
  -OEChem-04052303393D

 82 90  0     1  0  0  0  0  0999 V2000
  -21.6020  -11.5814   21.7465 C   0  0  0  0  0  0  0  0  0  0  0  0
  -22.0311  -12.5285   22.6708 C   0  0  0  0  0  0  0  0  0  0  0  0
  -23.6659  -28.6913   19.0838 C   0  0  0  0  0  0  0  0  0  0  0  0
  -24.0177  -27.6885   21.2536 C   0  0  0  0  0  0  0  0  0  0  0  0
  -22.4391  -11.2036   20.6974 C   0  0  0  0  0  0  0  0  0  0  0  0
  -23.2982  -13.0975   22.5472 C   0  0  0  0  0  0  0  0  0  0  0  0
  -24.9074  -18.8392   23.9433 C   0  0  0  0  0  0  0  0  0  0  0  0
  -22.3298  -28.2921   19.1160 C   0  0  0  0  0  0  0  0  0  0  0  0
  -22.6816  -27.2893   21.2858 C   0  0  0  0  0  0  0  0  0  0  0  0
  -25.5234  -19.3945   25.0640 C   0  0  0  0  0  0  0  0  0  0  0  0
  -19.6776  -28.6980   21.9277 C   0  0  0  0  0  0  0  0  0  0  0  0
  -18.9690  -28.9059   23.1110 C   0  0  0  0  0  0  0  0  0  0  0  0
  -30.4952  -24.0854   25.8183 C   0  0  0  0  0  0  0  0  0  0  0  0
  -27.6586  -19.2603   23.9495 C   0  0  0  0  0  0  0  0  0  0  0  0
  -30.3316  -23.3224   23.5392 C   0  0  0  0  0  0  0  0  0  0  0  0
  -18.5642  -26.5304   23.2858 C   0  0  0  0  0  0  0  0  0  0  0  0
  -31.5655  -24.8842   25.4417 C   0  0  0  0  0  0  0  0  0  0  0  0
  -24.5099  -28.3894   20.1526 C   0  0  0  0  0  0  0  0  0  0  0  0
  -26.4275  -30.0132   20.5930 C   0  0  0  0  0  0  0  0  0  0  0  0
  -23.7133  -11.7754   20.5554 C   0  0  0  0  0  0  0  0  0  0  0  0
  -25.6652  -18.4795   22.8195 C   0  0  0  0  0  0  0  0  0  0  0  0
  -24.1536  -12.7260   21.4961 C   0  0  0  0  0  0  0  0  0  0  0  0
  -27.0495  -18.7029   22.8148 C   0  0  0  0  0  0  0  0  0  0  0  0
  -29.8746  -23.2978   24.8535 C   0  0  0  0  0  0  0  0  0  0  0  0
  -21.8376  -27.5911   20.2169 C   0  0  0  0  0  0  0  0  0  0  0  0
  -26.8995  -19.6025   25.0683 C   0  0  0  0  0  0  0  0  0  0  0  0
  -19.8294  -27.4064   21.4233 C   0  0  0  0  0  0  0  0  0  0  0  0
  -18.4123  -27.8221   23.7901 C   0  0  0  0  0  0  0  0  0  0  0  0
  -19.2728  -26.3226   22.1024 C   0  0  0  0  0  0  0  0  0  0  0  0
  -25.8903  -28.8011   20.1197 C   0  0  0  0  0  0  0  0  0  0  0  0
  -31.4060  -24.1406   23.2203 C   0  0  0  0  0  0  0  0  0  0  0  0
  -27.7725  -29.9179   20.3318 C   0  0  0  0  0  0  0  0  0  0  0  0
  -25.7695  -31.1257   21.2134 C   0  0  0  0  0  0  0  0  0  0  0  0
  -26.2591  -15.7556   21.2927 C   0  0  0  0  0  0  0  0  0  0  0  0
  -27.7611  -17.7153   19.1890 C   0  0  0  0  0  0  0  0  0  0  0  0
  -29.3202  -20.6957   18.6111 C   0  0  0  0  0  0  0  0  0  0  0  0
  -31.4718  -25.2609   19.6398 C   0  0  0  0  0  0  0  0  0  0  0  0
  -24.6009  -11.3006   19.4323 C   0  0  0  0  0  0  0  0  0  0  0  0
  -24.9820  -17.9063   21.6083 C   0  0  0  0  0  0  0  0  0  0  0  0
  -27.9052  -18.3528   21.6258 C   0  0  0  0  0  0  0  0  0  0  0  0
  -25.7830  -12.2264   19.1572 C   0  0  0  0  0  0  0  0  0  0  0  0
  -30.8633  -27.8773   17.3030 C   0  0  0  0  0  0  0  0  0  0  0  0
  -26.4698  -12.6175   20.4619 C   0  0  0  0  0  0  0  0  0  0  0  0
  -29.5683  -28.5201   17.8026 C   0  0  0  0  0  0  0  0  0  0  0  0
  -30.8581  -26.3641   17.5084 C   0  0  0  0  0  0  0  0  0  0  0  0
  -29.2767  -26.5702   19.3874 C   0  0  0  0  0  0  0  0  0  0  0  0
  -25.5115  -13.3841   21.3815 C   0  0  1  0  0  0  0  0  0  0  0  0
  -25.9227  -17.1019   20.7164 C   0  0  1  0  0  0  0  0  0  0  0  0
  -29.2581  -28.1024   19.2526 C   0  0  2  0  0  0  0  0  0  0  0  0
  -30.4758  -21.9962   16.8027 C   0  0  0  0  0  0  0  0  0  0  0  0
  -26.4872  -21.3307   27.9574 C   0  0  0  0  0  0  0  0  0  0  0  0
  -30.2324  -15.9538   19.5047 C   0  0  0  0  0  0  0  0  0  0  0  0
  -31.5860  -17.7872   18.4680 C   0  0  0  0  0  0  0  0  0  0  0  0
  -29.7680  -16.6889   17.1599 C   0  0  0  0  0  0  0  0  0  0  0  0
  -27.3349  -22.8857   18.7571 C   0  0  0  0  0  0  0  0  0  0  0  0
  -31.9536  -24.2229   21.8420 C   0  0  0  0  0  0  0  0  0  0  0  0
  -28.2685  -22.4022   26.5399 C   0  0  0  0  0  0  0  0  0  0  0  0
  -29.1625  -18.2586   19.0471 C   0  0  1  0  0  0  0  0  0  0  0  0
  -29.1547  -21.7210   17.5040 C   0  0  2  0  0  0  0  0  0  0  0  0
  -27.0780  -21.4462   26.5598 C   0  0  1  0  0  0  0  0  0  1  0  0
  -30.1717  -17.1770   18.5682 C   0  0  0  0  0  0  0  0  0  0  0  0
  -26.8184  -27.9949   19.5973 N   0  0  0  0  0  0  0  0  0  0  0  0
  -27.9522  -28.7020   19.7406 N   0  0  0  0  0  0  0  0  0  0  0  0
  -31.9851  -24.8889   24.1691 N   0  3  0  0  0  0  0  0  0  0  0  0
  -27.1916  -17.7892   20.4680 N   0  0  0  0  0  0  0  0  0  0  0  0
  -30.5594  -26.0351   18.9043 N   0  0  0  0  0  0  0  0  0  0  0  0
  -28.8073  -30.7564   20.5524 N   0  0  0  0  0  0  0  0  0  0  0  0
  -24.3829  -31.0590   21.4066 N   0  0  0  0  0  0  0  0  0  0  0  0
  -28.8051  -22.4895   25.2006 N   0  0  0  0  0  0  0  0  0  0  0  0
  -25.3743  -14.7550   20.9385 N   0  0  0  0  0  0  0  0  0  0  0  0
  -29.0641  -19.4164   18.1649 N   0  0  0  0  0  0  0  0  0  0  0  0
  -31.1149  -25.0003   20.9572 N   0  0  0  0  0  0  0  0  0  0  0  0
  -28.6411  -23.0049   18.0595 N   0  3  0  0  0  0  0  0  0  0  0  0
  -26.3902  -32.1556   21.5706 O   0  0  0  0  0  0  0  0  0  0  0  0
  -27.2490  -15.6334   22.0046 O   0  0  0  0  0  0  0  0  0  0  0  0
  -27.1901  -17.2494   18.1998 O   0  0  0  0  0  0  0  0  0  0  0  0
  -29.6477  -20.9988   19.7563 O   0  0  0  0  0  0  0  0  0  0  0  0
  -32.5290  -24.8380   19.1597 O   0  0  0  0  0  0  0  0  0  0  0  0
  -20.5338  -27.2016   20.2488 O   0  0  0  0  0  0  0  0  0  0  0  0
  -27.5034  -20.1438   26.1611 O   0  0  0  0  0  0  0  0  0  1  0  0
  -17.7333  -28.0216   24.9273 F   0  0  0  0  0  0  0  0  0  0  0  0
  -19.4163  -25.0793   21.6234 F   0  0  0  0  0  0  0  0  0  0  0  0
  1  2  1  0  0  0  0
  1  5  2  0  0  0  0
  2  6  2  0  0  0  0
  3  8  2  0  0  0  0
  3 18  1  0  0  0  0
  4  9  1  0  0  0  0
  4 18  2  0  0  0  0
  5 20  1  0  0  0  0
  6 22  1  0  0  0  0
  7 10  2  0  0  0  0
  7 21  1  0  0  0  0
  8 25  1  0  0  0  0
  9 25  2  0  0  0  0
 10 26  1  0  0  0  0
 11 12  2  0  0  0  0
 11 27  1  0  0  0  0
 12 28  1  0  0  0  0
 13 17  2  0  0  0  0
 13 24  1  0  0  0  0
 14 23  1  0  0  0  0
 14 26  2  0  0  0  0
 15 24  2  0  0  0  0
 15 31  1  0  0  0  0
 16 28  2  0  0  0  0
 16 29  1  0  0  0  0
 17 64  1  0  0  0  0
 18 30  1  0  0  0  0
 19 30  1  0  0  0  0
 19 32  2  0  0  0  0
 19 33  1  0  0  0  0
 20 22  2  0  0  0  0
 20 38  1  0  0  0  0
 21 23  2  0  0  0  0
 21 39  1  0  0  0  0
 22 47  1  0  0  0  0
 23 40  1  0  0  0  0
 24 69  1  0  0  0  0
 25 79  1  0  0  0  0
 26 80  1  0  0  0  0
 27 29  2  0  0  0  0
 27 79  1  0  0  0  0
 28 81  1  0  0  0  0
 29 82  1  0  0  0  0
 30 62  2  0  0  0  0
 31 56  1  0  0  0  0
 31 64  2  0  0  0  0
 32 63  1  0  0  0  0
 32 67  1  0  0  0  0
 33 68  1  0  0  0  0
 33 74  2  0  0  0  0
 34 48  1  0  0  0  0
 34 70  1  0  0  0  0
 34 75  2  0  0  0  0
 35 58  1  0  0  0  0
 35 65  1  0  0  0  0
 35 76  2  0  0  0  0
 36 59  1  0  0  0  0
 36 71  1  0  0  0  0
 36 77  2  0  0  0  0
 37 66  1  0  0  0  0
 37 72  1  0  0  0  0
 37 78  2  0  0  0  0
 38 41  1  0  0  0  0
 39 48  1  0  0  0  0
 40 65  1  0  0  0  0
 41 43  1  0  0  0  0
 42 44  1  0  0  0  0
 42 45  1  0  0  0  0
 43 47  1  0  0  0  0
 44 49  1  0  0  0  0
 45 66  1  0  0  0  0
 46 49  1  0  0  0  0
 46 66  1  0  0  0  0
 47 70  1  0  0  0  0
 48 65  1  0  0  0  0
 49 63  1  0  0  0  0
 50 59  1  0  0  0  0
 51 60  1  0  0  0  0
 52 61  1  0  0  0  0
 53 61  1  0  0  0  0
 54 61  1  0  0  0  0
 55 73  1  0  0  0  0
 56 72  1  0  0  0  0
 57 60  1  0  0  0  0
 57 69  1  0  0  0  0
 58 61  1  0  0  0  0
 58 71  1  0  0  0  0
 59 73  1  0  0  0  0
 60 80  1  0  0  0  0
 62 63  1  0  0  0  0
M  CHG  2  64   1  73   1
M  ISO  4  37 100  60 101  72 100  80 101
M  END
> <Batch ID>
0156

> <Smiles>
CNC(C)C(=O)NC(C(=O)N1Cc2cc([101O:1][101CH:1](C)CNc3ccnc(C[100NH:0][100C:0](=O)N4CCCC(n5nc(-c6ccc(Oc7ccc(F)cc7F)cc6)c(C(N)=O)c5N)C4)c3)ccc2CC1C(=O)NC1CCCc2ccccc21)C(C)(C)C

> <Shape>
0.231

> <Color>
0.063

> <Negative vol penalty>
0.000

$$$$

  -OEChem-04052303393D

 87 96  0     1  0  0  0  0  0999 V2000
  -28.3071  -24.7751   16.9149 C   0  0  0  0  0  0  0  0  0  0  0  0
  -27.1436  -24.9145   17.6646 C   0  0  0  0  0  0  0  0  0  0  0  0
  -25.8199  -11.8945   20.0635 C   0  0  0  0  0  0  0  0  0  0  0  0
  -23.6569  -12.6074   20.8697 C   0  0  0  0  0  0  0  0  0  0  0  0
  -29.4875  -25.3816   17.3426 C   0  0  0  0  0  0  0  0  0  0  0  0
  -27.1599  -25.6597   18.8431 C   0  0  0  0  0  0  0  0  0  0  0  0
  -23.1803  -28.7671   19.2322 C   0  0  0  0  0  0  0  0  0  0  0  0
  -25.6332  -10.6493   20.6636 C   0  0  0  0  0  0  0  0  0  0  0  0
  -23.4701  -11.3622   21.4698 C   0  0  0  0  0  0  0  0  0  0  0  0
  -21.9653  -28.2007   19.6156 C   0  0  0  0  0  0  0  0  0  0  0  0
  -22.5835   -8.2451   20.5117 C   0  0  0  0  0  0  0  0  0  0  0  0
  -21.3435   -7.6277   20.3478 C   0  0  0  0  0  0  0  0  0  0  0  0
  -22.3227  -28.9764   21.8717 C   0  0  0  0  0  0  0  0  0  0  0  0
  -21.0260   -7.6293   22.7428 C   0  0  0  0  0  0  0  0  0  0  0  0
  -23.7184  -22.1702   23.3719 C   0  0  0  0  0  0  0  0  0  0  0  0
  -24.8318  -12.8736   20.1665 C   0  0  0  0  0  0  0  0  0  0  0  0
  -24.6613  -14.5376   18.2405 C   0  0  0  0  0  0  0  0  0  0  0  0
  -29.5160  -26.1426   18.5219 C   0  0  0  0  0  0  0  0  0  0  0  0
  -23.9820  -29.4340   20.1697 C   0  0  0  0  0  0  0  0  0  0  0  0
  -28.3420  -26.2758   19.2877 C   0  0  0  0  0  0  0  0  0  0  0  0
  -23.5462  -29.5525   21.4971 C   0  0  0  0  0  0  0  0  0  0  0  0
  -24.4583  -10.3831   21.3668 C   0  0  0  0  0  0  0  0  0  0  0  0
  -21.5377  -28.3028   20.9362 C   0  0  0  0  0  0  0  0  0  0  0  0
  -23.0448   -8.5545   21.7913 C   0  0  0  0  0  0  0  0  0  0  0  0
  -20.5647   -7.3198   21.4633 C   0  0  0  0  0  0  0  0  0  0  0  0
  -22.2660   -8.2466   22.9068 C   0  0  0  0  0  0  0  0  0  0  0  0
  -25.0243  -14.1603   19.5473 C   0  0  0  0  0  0  0  0  0  0  0  0
  -25.0553  -15.8495   18.1400 C   0  0  0  0  0  0  0  0  0  0  0  0
  -23.5935  -20.8810   22.8981 C   0  0  0  0  0  0  0  0  0  0  0  0
  -21.5653  -21.9071   23.6957 C   0  0  0  0  0  0  0  0  0  0  0  0
  -24.0249  -13.7708   17.2096 C   0  0  0  0  0  0  0  0  0  0  0  0
  -26.9066  -28.9960   21.3354 C   0  0  0  0  0  0  0  0  0  0  0  0
  -20.0139  -25.6875   22.5017 C   0  0  0  0  0  0  0  0  0  0  0  0
  -26.3276  -31.8341   22.7955 C   0  0  0  0  0  0  0  0  0  0  0  0
  -24.0361  -34.0724   23.9726 C   0  0  0  0  0  0  0  0  0  0  0  0
  -25.9009  -20.1781   22.1715 C   0  0  0  0  0  0  0  0  0  0  0  0
  -30.8267  -26.7401   18.9687 C   0  0  0  0  0  0  0  0  0  0  0  0
  -25.2773  -30.0626   19.7342 C   0  0  0  0  0  0  0  0  0  0  0  0
  -24.3603  -30.2758   22.5375 C   0  0  0  0  0  0  0  0  0  0  0  0
  -30.6709  -27.8239   20.0324 C   0  0  0  0  0  0  0  0  0  0  0  0
  -18.4457  -22.0155   25.9912 C   0  0  0  0  0  0  0  0  0  0  0  0
  -28.2985  -18.9275   19.8553 C   0  0  0  0  0  0  0  0  0  0  0  0
  -18.0531  -23.4690   25.7740 C   0  0  0  0  0  0  0  0  0  0  0  0
  -29.7129  -27.3641   21.1267 C   0  0  0  0  0  0  0  0  0  0  0  0
  -19.8834  -21.7708   25.5502 C   0  0  0  0  0  0  0  0  0  0  0  0
  -27.6950  -17.6003   19.3900 C   0  0  0  0  0  0  0  0  0  0  0  0
  -28.0213  -19.1887   21.3347 C   0  0  0  0  0  0  0  0  0  0  0  0
  -26.0052  -17.7748   21.2611 C   0  0  0  0  0  0  0  0  0  0  0  0
  -18.2563  -23.8861   24.3277 C   0  0  0  0  0  0  0  0  0  0  0  0
  -28.3139  -27.0967   20.5587 C   0  0  1  0  0  0  0  0  0  0  0  0
  -20.1268  -22.1919   24.0895 C   0  0  1  0  0  0  0  0  0  0  0  0
  -26.2559  -30.2734   20.8854 C   0  0  1  0  0  0  0  0  0  0  0  0
  -26.2026  -17.4987   19.7616 C   0  0  2  0  0  0  0  0  0  0  0  0
  -19.0409  -26.0691   20.2052 C   0  0  0  0  0  0  0  0  0  0  0  0
  -23.8653  -36.2821   25.1496 C   0  0  0  0  0  0  0  0  0  0  0  0
  -27.0514  -30.4822   25.4334 C   0  0  0  0  0  0  0  0  0  0  0  0
  -25.9692  -32.3961   26.6309 C   0  0  0  0  0  0  0  0  0  0  0  0
  -27.9493  -32.8013   25.1689 C   0  0  0  0  0  0  0  0  0  0  0  0
  -22.6110  -35.3083   21.6921 C   0  0  0  0  0  0  0  0  0  0  0  0
  -19.9234  -24.1786   22.5194 C   0  0  0  0  0  0  0  0  0  0  0  0
  -20.2079  -26.3416   21.1384 C   0  0  1  0  0  0  0  0  0  1  0  0
  -25.7189  -32.2549   24.1113 C   0  0  1  0  0  0  0  0  0  0  0  0
  -23.9182  -35.5764   23.8036 C   0  0  2  0  0  0  0  0  0  0  0  0
  -26.6575  -31.9682   25.3172 C   0  0  0  0  0  0  0  0  0  0  0  0
  -22.5563  -22.7603   23.8293 N   0  0  0  0  0  0  0  0  0  0  0  0
  -25.6044  -15.1522   20.2280 N   0  0  0  0  0  0  0  0  0  0  0  0
  -25.6091  -16.1658   19.3456 N   0  0  0  0  0  0  0  0  0  0  0  0
  -25.6223  -30.8680   22.0641 N   0  0  0  0  0  0  0  0  0  0  0  0
  -26.5873  -19.0798   21.6116 N   0  0  0  0  0  0  0  0  0  0  0  0
  -24.9788  -16.7518   17.1388 N   0  0  0  0  0  0  0  0  0  0  0  0
  -23.6873  -12.4377   17.4804 N   0  0  0  0  0  0  0  0  0  0  0  0
  -24.5351  -19.9692   22.3599 N   0  0  0  0  0  0  0  0  0  0  0  0
  -27.6100  -28.3425   20.3416 N   0  0  0  0  0  0  0  0  0  0  0  0
  -25.3513  -33.6587   23.9607 N   0  0  0  0  0  0  0  0  0  0  0  0
  -19.6977  -23.6568   23.9193 N   0  3  1  0  0  0  0  0  0  0  0  0
  -22.6812  -35.9171   23.0455 N   0  3  0  0  0  0  0  0  0  0  0  0
  -23.7782  -14.2485   16.0763 O   0  0  0  0  0  0  0  0  0  0  0  0
  -26.7811  -28.6310   22.4985 O   0  0  0  0  0  0  0  0  0  0  0  0
  -19.9485  -26.3561   23.5337 O   0  0  0  0  0  0  0  0  0  0  0  0
  -27.3862  -32.3490   22.4268 O   0  0  0  0  0  0  0  0  0  0  0  0
  -23.0593  -33.3385   24.1059 O   0  0  0  0  0  0  0  0  0  0  0  0
  -26.4768  -21.2363   22.4372 O   0  0  0  0  0  0  0  0  0  0  0  0
  -24.2757   -9.1681   21.9524 O   0  0  0  0  0  0  0  0  0  0  0  0
  -20.3526  -27.7504   21.3133 O   0  0  0  0  0  0  0  0  0  1  0  0
  -19.3733   -6.7284   21.3056 F   0  0  0  0  0  0  0  0  0  0  0  0
  -22.7034   -8.5425   24.1385 F   0  0  0  0  0  0  0  0  0  0  0  0
  -21.9595  -20.3764   23.0274 S   0  0  0  0  0  0  0  0  0  0  0  0
  1  2  1  0  0  0  0
  1  5  2  0  0  0  0
  2  6  2  0  0  0  0
  3  8  2  0  0  0  0
  3 16  1  0  0  0  0
  4  9  1  0  0  0  0
  4 16  2  0  0  0  0
  5 18  1  0  0  0  0
  6 20  1  0  0  0  0
  7 10  2  0  0  0  0
  7 19  1  0  0  0  0
  8 22  1  0  0  0  0
  9 22  2  0  0  0  0
 10 23  1  0  0  0  0
 11 12  2  0  0  0  0
 11 24  1  0  0  0  0
 12 25  1  0  0  0  0
 13 21  1  0  0  0  0
 13 23  2  0  0  0  0
 14 25  2  0  0  0  0
 14 26  1  0  0  0  0
 15 29  2  0  0  0  0
 15 65  1  0  0  0  0
 16 27  1  0  0  0  0
 17 27  1  0  0  0  0
 17 28  2  0  0  0  0
 17 31  1  0  0  0  0
 18 20  2  0  0  0  0
 18 37  1  0  0  0  0
 19 21  2  0  0  0  0
 19 38  1  0  0  0  0
 20 50  1  0  0  0  0
 21 39  1  0  0  0  0
 22 83  1  0  0  0  0
 23 84  1  0  0  0  0
 24 26  2  0  0  0  0
 24 83  1  0  0  0  0
 25 85  1  0  0  0  0
 26 86  1  0  0  0  0
 27 66  2  0  0  0  0
 28 67  1  0  0  0  0
 28 70  1  0  0  0  0
 29 72  1  0  0  0  0
 29 87  1  0  0  0  0
 30 51  1  0  0  0  0
 30 65  2  0  0  0  0
 30 87  1  0  0  0  0
 31 71  1  0  0  0  0
 31 77  2  0  0  0  0
 32 52  1  0  0  0  0
 32 73  1  0  0  0  0
 32 78  2  0  0  0  0
 33 60  1  0  0  0  0
 33 61  1  0  0  0  0
 33 79  2  0  0  0  0
 34 62  1  0  0  0  0
 34 68  1  0  0  0  0
 34 80  2  0  0  0  0
 35 63  1  0  0  0  0
 35 74  1  0  0  0  0
 35 81  2  0  0  0  0
 36 69  1  0  0  0  0
 36 72  1  0  0  0  0
 36 82  2  0  0  0  0
 37 40  1  0  0  0  0
 38 52  1  0  0  0  0
 39 68  1  0  0  0  0
 40 44  1  0  0  0  0
 41 43  1  0  0  0  0
 41 45  1  0  0  0  0
 42 46  1  0  0  0  0
 42 47  1  0  0  0  0
 43 49  1  0  0  0  0
 44 50  1  0  0  0  0
 45 51  1  0  0  0  0
 46 53  1  0  0  0  0
 47 69  1  0  0  0  0
 48 53  1  0  0  0  0
 48 69  1  0  0  0  0
 49 75  1  0  0  0  0
 50 73  1  0  0  0  0
 51 75  1  0  0  0  0
 52 68  1  0  0  0  0
 53 67  1  0  0  0  0
 54 61  1  0  0  0  0
 55 63  1  0  0  0  0
 56 64  1  0  0  0  0
 57 64  1  0  0  0  0
 58 64  1  0  0  0  0
 59 76  1  0  0  0  0
 60 75  1  0  0  0  0
 61 84  1  0  0  0  0
 62 64  1  0  0  0  0
 62 74  1  0  0  0  0
 63 76  1  0  0  0  0
 66 67  1  0  0  0  0
M  CHG  2  75   1  76   1
M  ISO  4  36 100  61 101  72 100  84 101
M  END
> <Batch ID>
0156

> <Smiles>
CNC(C)C(=O)NC(C(=O)N1Cc2cc([101O:1][101CH:1](C)C(=O)CN3CCCCC3c3ncc([100NH:0][100C:0](=O)N4CCCC(n5nc(-c6ccc(Oc7ccc(F)cc7F)cc6)c(C(N)=O)c5N)C4)s3)ccc2CC1C(=O)NC1CCCc2ccccc21)C(C)(C)C

> <Shape>
0.295

> <Color>
0.070

> <Negative vol penalty>
0.000

$$$$

  -OEChem-04052303393D

 87 96  0     1  0  0  0  0  0999 V2000
  -26.0963  -20.3620   22.0769 C   0  0  0  0  0  0  0  0  0  0  0  0
  -27.4715  -20.2156   21.9261 C   0  0  0  0  0  0  0  0  0  0  0  0
  -23.0825   -9.9015   19.8983 C   0  0  0  0  0  0  0  0  0  0  0  0
  -23.8627   -9.8382   22.1840 C   0  0  0  0  0  0  0  0  0  0  0  0
  -25.4183  -21.3459   21.3585 C   0  0  0  0  0  0  0  0  0  0  0  0
  -28.1694  -21.0523   21.0559 C   0  0  0  0  0  0  0  0  0  0  0  0
  -32.4714  -22.8018   23.0750 C   0  0  0  0  0  0  0  0  0  0  0  0
  -22.3460   -8.7375   20.1174 C   0  0  0  0  0  0  0  0  0  0  0  0
  -23.1261   -8.6742   22.4031 C   0  0  0  0  0  0  0  0  0  0  0  0
  -33.5615  -21.9330   23.1022 C   0  0  0  0  0  0  0  0  0  0  0  0
  -19.9070   -7.8423   23.0078 C   0  0  0  0  0  0  0  0  0  0  0  0
  -19.1606   -7.7611   24.1833 C   0  0  0  0  0  0  0  0  0  0  0  0
  -31.8578  -18.2929   24.3542 C   0  0  0  0  0  0  0  0  0  0  0  0
  -32.0627  -16.5980   22.6448 C   0  0  0  0  0  0  0  0  0  0  0  0
  -34.4693  -23.0205   21.1497 C   0  0  0  0  0  0  0  0  0  0  0  0
  -29.8797  -17.4159   23.2795 C   0  0  0  0  0  0  0  0  0  0  0  0
  -20.4170   -5.8068   24.8461 C   0  0  0  0  0  0  0  0  0  0  0  0
  -23.8409  -10.4519   20.9316 C   0  0  0  0  0  0  0  0  0  0  0  0
  -32.6537  -17.4553   23.5729 C   0  0  0  0  0  0  0  0  0  0  0  0
  -24.1706  -12.9812   20.8900 C   0  0  0  0  0  0  0  0  0  0  0  0
  -26.1096  -22.2014   20.4863 C   0  0  0  0  0  0  0  0  0  0  0  0
  -32.3665  -23.7810   22.0768 C   0  0  0  0  0  0  0  0  0  0  0  0
  -27.4998  -22.0477   20.3241 C   0  0  0  0  0  0  0  0  0  0  0  0
  -33.3783  -23.9021   21.1135 C   0  0  0  0  0  0  0  0  0  0  0  0
  -30.4707  -18.2732   24.2075 C   0  0  0  0  0  0  0  0  0  0  0  0
  -30.6756  -16.5783   22.4981 C   0  0  0  0  0  0  0  0  0  0  0  0
  -22.3677   -8.1238   21.3698 C   0  0  0  0  0  0  0  0  0  0  0  0
  -34.5592  -22.0403   22.1378 C   0  0  0  0  0  0  0  0  0  0  0  0
  -20.9083   -6.9056   22.7513 C   0  0  0  0  0  0  0  0  0  0  0  0
  -19.4156   -6.7434   25.1025 C   0  0  0  0  0  0  0  0  0  0  0  0
  -21.1633   -5.8879   23.6705 C   0  0  0  0  0  0  0  0  0  0  0  0
  -24.6024  -11.6541   20.7056 C   0  0  0  0  0  0  0  0  0  0  0  0
  -25.2561  -13.7471   20.5416 C   0  0  0  0  0  0  0  0  0  0  0  0
  -34.3276  -19.2289   22.0147 C   0  0  0  0  0  0  0  0  0  0  0  0
  -34.1192  -17.4760   23.7278 C   0  0  0  0  0  0  0  0  0  0  0  0
  -22.9016  -13.4773   21.3364 C   0  0  0  0  0  0  0  0  0  0  0  0
  -30.2932  -24.3965   19.7473 C   0  0  0  0  0  0  0  0  0  0  0  0
  -32.1082  -27.0576   19.3647 C   0  0  0  0  0  0  0  0  0  0  0  0
  -35.1261  -28.5924   19.7930 C   0  0  0  0  0  0  0  0  0  0  0  0
  -30.7190  -14.8121   20.7022 C   0  0  0  0  0  0  0  0  0  0  0  0
  -25.3265  -23.2192   19.6954 C   0  0  0  0  0  0  0  0  0  0  0  0
  -31.1978  -24.7279   22.0771 C   0  0  0  0  0  0  0  0  0  0  0  0
  -33.3229  -24.9496   20.0327 C   0  0  0  0  0  0  0  0  0  0  0  0
  -26.1963  -24.3103   19.0766 C   0  0  0  0  0  0  0  0  0  0  0  0
  -29.5943  -12.4706   18.2672 C   0  0  0  0  0  0  0  0  0  0  0  0
  -27.4172  -23.6985   18.3970 C   0  0  0  0  0  0  0  0  0  0  0  0
  -28.1598  -12.1586   18.6997 C   0  0  0  0  0  0  0  0  0  0  0  0
  -36.6789  -19.0578   21.7672 C   0  0  0  0  0  0  0  0  0  0  0  0
  -30.5190  -12.6649   19.4675 C   0  0  0  0  0  0  0  0  0  0  0  0
  -36.3024  -18.3967   23.0918 C   0  0  0  0  0  0  0  0  0  0  0  0
  -28.6212  -13.3356   20.8880 C   0  0  0  0  0  0  0  0  0  0  0  0
  -28.2956  -22.9523   19.4085 C   0  0  1  0  0  0  0  0  0  0  0  0
  -30.9356  -25.3539   20.7108 C   0  0  1  0  0  0  0  0  0  0  0  0
  -27.6387  -13.1958   19.7138 C   0  0  2  0  0  0  0  0  0  0  0  0
  -35.5017  -19.9830   21.4344 C   0  0  1  0  0  0  0  0  0  1  0  0
  -35.3636  -20.2621   19.9498 C   0  0  0  0  0  0  0  0  0  0  0  0
  -36.3174  -30.7552   19.3449 C   0  0  0  0  0  0  0  0  0  0  0  0
  -32.3927  -26.2891   16.4256 C   0  0  0  0  0  0  0  0  0  0  0  0
  -34.3083  -27.8931   16.2637 C   0  0  0  0  0  0  0  0  0  0  0  0
  -32.0286  -28.7292   16.8354 C   0  0  0  0  0  0  0  0  0  0  0  0
  -35.5815  -29.0734   22.6775 C   0  0  0  0  0  0  0  0  0  0  0  0
  -33.3318  -27.4097   18.5537 C   0  0  1  0  0  0  0  0  0  0  0  0
  -35.4921  -29.9589   20.3437 C   0  0  2  0  0  0  0  0  0  0  0  0
  -33.0157  -27.5592   17.0387 C   0  0  0  0  0  0  0  0  0  0  0  0
  -25.8639  -11.5777   20.2735 N   0  0  0  0  0  0  0  0  0  0  0  0
  -26.2340  -12.8665   20.1833 N   0  0  0  0  0  0  0  0  0  0  0  0
  -34.8380  -18.3050   22.9918 N   0  0  0  0  0  0  0  0  0  0  0  0
  -32.1570  -25.8477   20.0716 N   0  0  0  0  0  0  0  0  0  0  0  0
  -29.9633  -13.6643   20.3825 N   0  0  0  0  0  0  0  0  0  0  0  0
  -29.6659  -19.1197   24.9979 N   0  0  0  0  0  0  0  0  0  0  0  0
  -25.4600  -15.0812   20.5097 N   0  0  0  0  0  0  0  0  0  0  0  0
  -21.8967  -12.5530   21.6530 N   0  0  0  0  0  0  0  0  0  0  0  0
  -30.0749  -15.7073   21.5556 N   0  0  0  0  0  0  0  0  0  0  0  0
  -29.0835  -23.8886   20.1811 N   0  0  0  0  0  0  0  0  0  0  0  0
  -33.8976  -28.6064   19.1669 N   0  0  0  0  0  0  0  0  0  0  0  0
  -34.6948  -16.6613   24.6071 N   0  3  0  0  0  0  0  0  0  0  0  0
  -36.2825  -29.8167   21.5991 N   0  3  0  0  0  0  0  0  0  0  0  0
  -33.1423  -19.3639   21.7697 O   0  0  0  0  0  0  0  0  0  0  0  0
  -22.6604  -14.7043   21.4355 O   0  0  0  0  0  0  0  0  0  0  0  0
  -30.8529  -24.1387   18.6880 O   0  0  0  0  0  0  0  0  0  0  0  0
  -31.1474  -27.8312   19.3766 O   0  0  0  0  0  0  0  0  0  0  0  0
  -35.8585  -27.6117   19.9036 O   0  0  0  0  0  0  0  0  0  0  0  0
  -31.8431  -15.0011   20.2304 O   0  0  0  0  0  0  0  0  0  0  0  0
  -21.6489   -6.9880   21.5841 O   0  0  0  0  0  0  0  0  0  0  0  0
  -35.6239  -21.1932   22.1616 O   0  0  0  0  0  0  0  0  0  1  0  0
  -18.6999   -6.6665   26.2321 F   0  0  0  0  0  0  0  0  0  0  0  0
  -22.1248   -4.9859   23.4301 F   0  0  0  0  0  0  0  0  0  0  0  0
  1  2  1  0  0  0  0
  1  5  2  0  0  0  0
  2  6  2  0  0  0  0
  3  8  2  0  0  0  0
  3 18  1  0  0  0  0
  4  9  1  0  0  0  0
  4 18  2  0  0  0  0
  5 21  1  0  0  0  0
  6 23  1  0  0  0  0
  7 10  2  0  0  0  0
  7 22  1  0  0  0  0
  8 27  1  0  0  0  0
  9 27  2  0  0  0  0
 10 28  1  0  0  0  0
 11 12  2  0  0  0  0
 11 29  1  0  0  0  0
 12 30  1  0  0  0  0
 13 19  1  0  0  0  0
 13 25  2  0  0  0  0
 14 19  2  0  0  0  0
 14 26  1  0  0  0  0
 15 24  1  0  0  0  0
 15 28  2  0  0  0  0
 16 25  1  0  0  0  0
 16 26  2  0  0  0  0
 17 30  2  0  0  0  0
 17 31  1  0  0  0  0
 18 32  1  0  0  0  0
 19 35  1  0  0  0  0
 20 32  1  0  0  0  0
 20 33  2  0  0  0  0
 20 36  1  0  0  0  0
 21 23  2  0  0  0  0
 21 41  1  0  0  0  0
 22 24  2  0  0  0  0
 22 42  1  0  0  0  0
 23 52  1  0  0  0  0
 24 43  1  0  0  0  0
 25 70  1  0  0  0  0
 26 73  1  0  0  0  0
 27 84  1  0  0  0  0
 28 85  1  0  0  0  0
 29 31  2  0  0  0  0
 29 84  1  0  0  0  0
 30 86  1  0  0  0  0
 31 87  1  0  0  0  0
 32 65  2  0  0  0  0
 33 66  1  0  0  0  0
 33 71  1  0  0  0  0
 34 55  1  0  0  0  0
 34 67  1  0  0  0  0
 34 78  2  0  0  0  0
 35 67  1  0  0  0  0
 35 76  2  0  0  0  0
 36 72  1  0  0  0  0
 36 79  2  0  0  0  0
 37 53  1  0  0  0  0
 37 74  1  0  0  0  0
 37 80  2  0  0  0  0
 38 62  1  0  0  0  0
 38 68  1  0  0  0  0
 38 81  2  0  0  0  0
 39 63  1  0  0  0  0
 39 75  1  0  0  0  0
 39 82  2  0  0  0  0
 40 69  1  0  0  0  0
 40 73  1  0  0  0  0
 40 83  2  0  0  0  0
 41 44  1  0  0  0  0
 42 53  1  0  0  0  0
 43 68  1  0  0  0  0
 44 46  1  0  0  0  0
 45 47  1  0  0  0  0
 45 49  1  0  0  0  0
 46 52  1  0  0  0  0
 47 54  1  0  0  0  0
 48 50  1  0  0  0  0
 48 55  1  0  0  0  0
 49 69  1  0  0  0  0
 50 67  1  0  0  0  0
 51 54  1  0  0  0  0
 51 69  1  0  0  0  0
 52 74  1  0  0  0  0
 53 68  1  0  0  0  0
 54 66  1  0  0  0  0
 55 56  1  0  0  0  0
 55 85  1  0  0  0  0
 57 63  1  0  0  0  0
 58 64  1  0  0  0  0
 59 64  1  0  0  0  0
 60 64  1  0  0  0  0
 61 77  1  0  0  0  0
 62 64  1  0  0  0  0
 62 75  1  0  0  0  0
 63 77  1  0  0  0  0
 65 66  1  0  0  0  0
M  CHG  2  76   1  77   1
M  ISO  4  40 100  55 101  73 100  85 101
M  END
> <Batch ID>
0156

> <Smiles>
CNC(C)C(=O)NC(C(=O)N1Cc2cc([101O:1][101C:1]3(C)CCN(C(=N)c4cc(N)cc([100NH:0][100C:0](=O)N5CCCC(n6nc(-c7ccc(Oc8ccc(F)cc8F)cc7)c(C(N)=O)c6N)C5)c4)C3=O)ccc2CC1C(=O)NC1CCCc2ccccc21)C(C)(C)C

> <Shape>
0.221

> <Color>
0.182

> <Negative vol penalty>
0.000

$$$$

  -OEChem-04052303393D

 82 90  0     1  0  0  0  0  0999 V2000
  -28.5600  -38.1480   20.4700 C   0  0  0  0  0  0  0  0  0  0  0  0
  -28.9826  -36.8471   20.2160 C   0  0  0  0  0  0  0  0  0  0  0  0
  -24.2144   -8.5871   21.2195 C   0  0  0  0  0  0  0  0  0  0  0  0
  -25.2168   -9.4493   23.2416 C   0  0  0  0  0  0  0  0  0  0  0  0
  -27.5961  -38.3881   21.4483 C   0  0  0  0  0  0  0  0  0  0  0  0
  -28.4422  -35.7856   20.9409 C   0  0  0  0  0  0  0  0  0  0  0  0
  -27.3297  -30.1205   18.8977 C   0  0  0  0  0  0  0  0  0  0  0  0
  -24.1695   -7.3129   21.7850 C   0  0  0  0  0  0  0  0  0  0  0  0
  -25.1719   -8.1750   23.8072 C   0  0  0  0  0  0  0  0  0  0  0  0
  -28.0436  -28.9277   19.0047 C   0  0  0  0  0  0  0  0  0  0  0  0
  -22.2365   -5.6347   23.9941 C   0  0  0  0  0  0  0  0  0  0  0  0
  -21.0584   -4.9021   23.8488 C   0  0  0  0  0  0  0  0  0  0  0  0
  -26.7067  -28.3058   20.9139 C   0  0  0  0  0  0  0  0  0  0  0  0
  -28.3405  -19.5085   19.7894 C   0  0  0  0  0  0  0  0  0  0  0  0
  -22.2783   -3.1709   22.6861 C   0  0  0  0  0  0  0  0  0  0  0  0
  -24.7381   -9.6554   21.9478 C   0  0  0  0  0  0  0  0  0  0  0  0
  -23.7927  -11.9678   21.4316 C   0  0  0  0  0  0  0  0  0  0  0  0
  -27.0366  -37.3280   22.1790 C   0  0  0  0  0  0  0  0  0  0  0  0
  -26.3045  -30.4203   19.8062 C   0  0  0  0  0  0  0  0  0  0  0  0
  -27.4709  -36.0118   21.9309 C   0  0  0  0  0  0  0  0  0  0  0  0
  -25.9796  -29.5019   20.8147 C   0  0  0  0  0  0  0  0  0  0  0  0
  -27.5700  -18.5075   20.4279 C   0  0  0  0  0  0  0  0  0  0  0  0
  -24.6482   -7.1068   23.0788 C   0  0  0  0  0  0  0  0  0  0  0  0
  -27.7341  -28.0215   20.0146 C   0  0  0  0  0  0  0  0  0  0  0  0
  -23.4355   -5.1354   23.4853 C   0  0  0  0  0  0  0  0  0  0  0  0
  -21.0793   -3.6703   23.1948 C   0  0  0  0  0  0  0  0  0  0  0  0
  -23.4564   -3.9035   22.8313 C   0  0  0  0  0  0  0  0  0  0  0  0
  -24.7853  -10.9718   21.3640 C   0  0  0  0  0  0  0  0  0  0  0  0
  -26.6912  -19.1702   21.2528 C   0  0  0  0  0  0  0  0  0  0  0  0
  -24.3156  -13.0223   20.7238 C   0  0  0  0  0  0  0  0  0  0  0  0
  -27.8774  -20.7114   20.2695 C   0  0  0  0  0  0  0  0  0  0  0  0
  -22.5125  -11.9421   22.0767 C   0  0  0  0  0  0  0  0  0  0  0  0
  -25.8084  -32.7120   21.9523 C   0  0  0  0  0  0  0  0  0  0  0  0
  -28.2907  -24.4374   20.1018 C   0  0  0  0  0  0  0  0  0  0  0  0
  -22.9066  -31.2884   22.2267 C   0  0  0  0  0  0  0  0  0  0  0  0
  -21.0142  -28.4727   21.8557 C   0  0  0  0  0  0  0  0  0  0  0  0
  -28.5467  -16.4063   19.4393 C   0  0  0  0  0  0  0  0  0  0  0  0
  -26.0320  -37.6415   23.2593 C   0  0  0  0  0  0  0  0  0  0  0  0
  -25.5261  -31.6991   19.6609 C   0  0  0  0  0  0  0  0  0  0  0  0
  -24.8744  -29.7673   21.8029 C   0  0  0  0  0  0  0  0  0  0  0  0
  -25.2365  -36.4240   23.7232 C   0  0  0  0  0  0  0  0  0  0  0  0
  -28.3918  -13.2845   17.7342 C   0  0  0  0  0  0  0  0  0  0  0  0
  -26.1667  -35.2401   23.9679 C   0  0  0  0  0  0  0  0  0  0  0  0
  -27.3581  -12.4865   18.5321 C   0  0  0  0  0  0  0  0  0  0  0  0
  -29.2535  -14.1619   18.6404 C   0  0  0  0  0  0  0  0  0  0  0  0
  -27.4712  -14.2499   20.3388 C   0  0  0  0  0  0  0  0  0  0  0  0
  -26.8903  -34.8315   22.6791 C   0  0  1  0  0  0  0  0  0  0  0  0
  -24.8448  -32.1342   20.9547 C   0  0  1  0  0  0  0  0  0  0  0  0
  -26.5365  -13.4002   19.4625 C   0  0  2  0  0  0  0  0  0  0  0  0
  -25.6361  -18.7243   22.1756 C   0  0  0  0  0  0  0  0  0  0  0  0
  -18.6843  -27.6059   22.1985 C   0  0  0  0  0  0  0  0  0  0  0  0
  -23.4172  -31.1106   25.2296 C   0  0  0  0  0  0  0  0  0  0  0  0
  -21.5625  -29.4351   25.3752 C   0  0  0  0  0  0  0  0  0  0  0  0
  -21.0840  -31.7589   24.6047 C   0  0  0  0  0  0  0  0  0  0  0  0
  -20.6843  -27.8852   18.9739 C   0  0  0  0  0  0  0  0  0  0  0  0
  -27.6387  -23.1710   20.6147 C   0  0  0  0  0  0  0  0  0  0  0  0
  -27.7355  -25.7328   20.6612 C   0  0  0  0  0  0  0  0  0  1  0  0
  -22.3359  -30.1799   23.0778 C   0  0  1  0  0  0  0  0  0  0  0  0
  -19.6539  -28.2499   21.2198 C   0  0  2  0  0  0  0  0  0  0  0  0
  -22.1221  -30.6167   24.5545 C   0  0  0  0  0  0  0  0  0  0  0  0
  -25.8575  -11.3589   20.6680 N   0  0  0  0  0  0  0  0  0  0  0  0
  -25.5417  -12.6098   20.2917 N   0  0  0  0  0  0  0  0  0  0  0  0
  -24.1465  -31.0343   21.6233 N   0  0  0  0  0  0  0  0  0  0  0  0
  -28.4074  -15.0031   19.4897 N   0  0  0  0  0  0  0  0  0  0  0  0
  -23.8416  -14.2529   20.4350 N   0  0  0  0  0  0  0  0  0  0  0  0
  -22.1320  -10.7792   22.7603 N   0  0  0  0  0  0  0  0  0  0  0  0
  -27.6665  -17.1031   20.2666 N   0  0  0  0  0  0  0  0  0  0  0  0
  -28.2522  -22.0204   20.0024 N   0  0  0  0  0  0  0  0  0  0  0  0
  -26.0051  -34.0735   21.8210 N   0  0  0  0  0  0  0  0  0  0  0  0
  -21.1209  -29.7330   22.4050 N   0  0  0  0  0  0  0  0  0  0  0  0
  -19.7780  -27.3628   20.0287 N   0  3  0  0  0  0  0  0  0  0  0  0
  -21.7224  -12.9154   22.0340 O   0  0  0  0  0  0  0  0  0  0  0  0
  -26.3335  -31.9774   22.7807 O   0  0  0  0  0  0  0  0  0  0  0  0
  -29.2107  -24.4283   19.2849 O   0  0  0  0  0  0  0  0  0  0  0  0
  -22.2723  -32.3383   22.0961 O   0  0  0  0  0  0  0  0  0  0  0  0
  -21.8928  -27.6134   21.8675 O   0  0  0  0  0  0  0  0  0  0  0  0
  -29.3664  -16.9508   18.6954 O   0  0  0  0  0  0  0  0  0  0  0  0
  -26.8719  -20.5139   21.1620 O   0  0  0  0  0  0  0  0  0  0  0  0
  -24.6043   -5.8635   23.6310 O   0  0  0  0  0  0  0  0  0  0  0  0
  -28.4297  -26.8568   20.1217 O   0  0  0  0  0  0  0  0  0  1  0  0
  -19.9482   -2.9662   23.0567 F   0  0  0  0  0  0  0  0  0  0  0  0
  -24.6054   -3.4182   22.3415 F   0  0  0  0  0  0  0  0  0  0  0  0
  1  2  1  0  0  0  0
  1  5  2  0  0  0  0
  2  6  2  0  0  0  0
  3  8  2  0  0  0  0
  3 16  1  0  0  0  0
  4  9  1  0  0  0  0
  4 16  2  0  0  0  0
  5 18  1  0  0  0  0
  6 20  1  0  0  0  0
  7 10  2  0  0  0  0
  7 19  1  0  0  0  0
  8 23  1  0  0  0  0
  9 23  2  0  0  0  0
 10 24  1  0  0  0  0
 11 12  2  0  0  0  0
 11 25  1  0  0  0  0
 12 26  1  0  0  0  0
 13 21  1  0  0  0  0
 13 24  2  0  0  0  0
 14 22  1  0  0  0  0
 14 31  2  0  0  0  0
 15 26  2  0  0  0  0
 15 27  1  0  0  0  0
 16 28  1  0  0  0  0
 17 28  1  0  0  0  0
 17 30  2  0  0  0  0
 17 32  1  0  0  0  0
 18 20  2  0  0  0  0
 18 38  1  0  0  0  0
 19 21  2  0  0  0  0
 19 39  1  0  0  0  0
 20 47  1  0  0  0  0
 21 40  1  0  0  0  0
 22 29  2  0  0  0  0
 22 67  1  0  0  0  0
 23 79  1  0  0  0  0
 24 80  1  0  0  0  0
 25 27  2  0  0  0  0
 25 79  1  0  0  0  0
 26 81  1  0  0  0  0
 27 82  1  0  0  0  0
 28 61  2  0  0  0  0
 29 50  1  0  0  0  0
 29 78  1  0  0  0  0
 30 62  1  0  0  0  0
 30 65  1  0  0  0  0
 31 68  1  0  0  0  0
 31 78  1  0  0  0  0
 32 66  1  0  0  0  0
 32 72  2  0  0  0  0
 33 48  1  0  0  0  0
 33 69  1  0  0  0  0
 33 73  2  0  0  0  0
 34 56  1  0  0  0  0
 34 57  1  0  0  0  0
 34 74  2  0  0  0  0
 35 58  1  0  0  0  0
 35 63  1  0  0  0  0
 35 75  2  0  0  0  0
 36 59  1  0  0  0  0
 36 70  1  0  0  0  0
 36 76  2  0  0  0  0
 37 64  1  0  0  0  0
 37 67  1  0  0  0  0
 37 77  2  0  0  0  0
 38 41  1  0  0  0  0
 39 48  1  0  0  0  0
 40 63  1  0  0  0  0
 41 43  1  0  0  0  0
 42 44  1  0  0  0  0
 42 45  1  0  0  0  0
 43 47  1  0  0  0  0
 44 49  1  0  0  0  0
 45 64  1  0  0  0  0
 46 49  1  0  0  0  0
 46 64  1  0  0  0  0
 47 69  1  0  0  0  0
 48 63  1  0  0  0  0
 49 62  1  0  0  0  0
 51 59  1  0  0  0  0
 52 60  1  0  0  0  0
 53 60  1  0  0  0  0
 54 60  1  0  0  0  0
 55 71  1  0  0  0  0
 56 68  1  0  0  0  0
 57 80  1  0  0  0  0
 58 60  1  0  0  0  0
 58 70  1  0  0  0  0
 59 71  1  0  0  0  0
 61 62  1  0  0  0  0
M  CHG  1  71   1
M  ISO  4  37 100  57 101  67 100  80 101
M  END
> <Batch ID>
0156

> <Smiles>
CNC(C)C(=O)NC(C(=O)N1Cc2cc([101O:1][101CH2:1]C(=O)CNc3cc([100NH:0][100C:0](=O)N4CCCC(n5nc(-c6ccc(Oc7ccc(F)cc7F)cc6)c(C(N)=O)c5N)C4)c(C)o3)ccc2CC1C(=O)NC1CCCc2ccccc21)C(C)(C)C

> <Shape>
0.314

> <Color>
0.088

> <Negative vol penalty>
0.000

$$$$

  -OEChem-04052303393D

 82 91  0     1  0  0  0  0  0999 V2000
  -18.3635  -24.8768   24.4432 C   0  0  0  0  0  0  0  0  0  0  0  0
  -19.6133  -24.6205   23.8887 C   0  0  0  0  0  0  0  0  0  0  0  0
  -26.5829  -12.3970   21.1840 C   0  0  0  0  0  0  0  0  0  0  0  0
  -25.5527  -13.8538   19.5550 C   0  0  0  0  0  0  0  0  0  0  0  0
  -17.7641  -26.1226   24.2626 C   0  0  0  0  0  0  0  0  0  0  0  0
  -20.2642  -25.6097   23.1522 C   0  0  0  0  0  0  0  0  0  0  0  0
  -26.2959  -26.6385   22.8940 C   0  0  0  0  0  0  0  0  0  0  0  0
  -25.3371  -11.8409   21.4746 C   0  0  0  0  0  0  0  0  0  0  0  0
  -24.3069  -13.2976   19.8455 C   0  0  0  0  0  0  0  0  0  0  0  0
  -27.2705  -26.2746   21.9658 C   0  0  0  0  0  0  0  0  0  0  0  0
  -23.2426   -9.5685   20.1027 C   0  0  0  0  0  0  0  0  0  0  0  0
  -23.1607   -8.1799   20.2057 C   0  0  0  0  0  0  0  0  0  0  0  0
  -27.0421  -28.4230   20.8928 C   0  0  0  0  0  0  0  0  0  0  0  0
  -22.3982   -8.3942   22.4882 C   0  0  0  0  0  0  0  0  0  0  0  0
  -28.5848  -23.0453   17.5986 C   0  0  0  0  0  0  0  0  0  0  0  0
  -26.6906  -13.4035   20.2243 C   0  0  0  0  0  0  0  0  0  0  0  0
  -28.8974  -13.5429   18.9521 C   0  0  0  0  0  0  0  0  0  0  0  0
  -18.4122  -27.1308   23.5318 C   0  0  0  0  0  0  0  0  0  0  0  0
  -25.6781  -27.8953   22.8218 C   0  0  0  0  0  0  0  0  0  0  0  0
  -19.6724  -26.8698   22.9606 C   0  0  0  0  0  0  0  0  0  0  0  0
  -26.0617  -28.8014   21.8228 C   0  0  0  0  0  0  0  0  0  0  0  0
  -24.1991  -12.2911   20.8053 C   0  0  0  0  0  0  0  0  0  0  0  0
  -27.6417  -27.1659   20.9633 C   0  0  0  0  0  0  0  0  0  0  0  0
  -22.9024  -10.3700   21.1925 C   0  0  0  0  0  0  0  0  0  0  0  0
  -22.7385   -7.5927   21.3985 C   0  0  0  0  0  0  0  0  0  0  0  0
  -22.4802   -9.7829   22.3852 C   0  0  0  0  0  0  0  0  0  0  0  0
  -27.9771  -13.9788   19.9241 C   0  0  0  0  0  0  0  0  0  0  0  0
  -29.5316  -23.5173   18.4834 C   0  0  0  0  0  0  0  0  0  0  0  0
  -29.9528  -14.4148   19.0630 C   0  0  0  0  0  0  0  0  0  0  0  0
  -29.3869  -21.4577   19.2229 C   0  0  0  0  0  0  0  0  0  0  0  0
  -30.0499  -24.9041   18.4738 C   0  0  0  0  0  0  0  0  0  0  0  0
  -28.8062  -12.4478   18.0311 C   0  0  0  0  0  0  0  0  0  0  0  0
  -22.6984  -28.9078   22.3750 C   0  0  0  0  0  0  0  0  0  0  0  0
  -24.0084  -31.8124   22.9829 C   0  0  0  0  0  0  0  0  0  0  0  0
  -26.7923  -33.7862   23.0125 C   0  0  0  0  0  0  0  0  0  0  0  0
  -30.4133  -20.0373   21.0328 C   0  0  0  0  0  0  0  0  0  0  0  0
  -17.7039  -28.4460   23.3235 C   0  0  0  0  0  0  0  0  0  0  0  0
  -24.6476  -28.2827   23.8466 C   0  0  0  0  0  0  0  0  0  0  0  0
  -25.4434  -30.1704   21.7140 C   0  0  0  0  0  0  0  0  0  0  0  0
  -29.5640  -25.9171   17.4702 C   0  0  0  0  0  0  0  0  0  0  0  0
  -18.6256  -29.5654   22.8464 C   0  0  0  0  0  0  0  0  0  0  0  0
  -32.1885  -17.2019   22.2517 C   0  0  0  0  0  0  0  0  0  0  0  0
  -19.5182  -29.0745   21.7110 C   0  0  0  0  0  0  0  0  0  0  0  0
  -31.3972  -16.0139   21.6996 C   0  0  0  0  0  0  0  0  0  0  0  0
  -31.2233  -26.7283   18.9501 C   0  0  0  0  0  0  0  0  0  0  0  0
  -31.2723  -18.3576   22.6500 C   0  0  0  0  0  0  0  0  0  0  0  0
  -29.5515  -17.6140   21.0516 C   0  0  0  0  0  0  0  0  0  0  0  0
  -20.4210  -27.9255   22.1763 C   0  0  1  0  0  0  0  0  0  0  0  0
  -23.7166  -29.3925   23.3680 C   0  0  1  0  0  0  0  0  0  0  0  0
  -30.0135  -27.1977   18.1510 C   0  0  2  0  0  0  0  0  0  0  0  0
  -30.4363  -16.4500   20.5763 C   0  0  2  0  0  0  0  0  0  0  0  0
  -27.5429  -36.1259   23.5221 C   0  0  0  0  0  0  0  0  0  0  0  0
  -22.7876  -32.7734   20.3569 C   0  0  0  0  0  0  0  0  0  0  0  0
  -24.3208  -34.7506   20.4483 C   0  0  0  0  0  0  0  0  0  0  0  0
  -22.6229  -34.4070   22.2433 C   0  0  0  0  0  0  0  0  0  0  0  0
  -28.6306  -32.8576   25.1379 C   0  0  0  0  0  0  0  0  0  0  0  0
  -28.9242  -27.7751   19.0554 C   0  0  0  0  0  0  0  0  0  1  0  0
  -24.6462  -32.8941   22.1449 C   0  0  1  0  0  0  0  0  0  0  0  0
  -27.3540  -34.7197   24.0696 C   0  0  2  0  0  0  0  0  0  0  0  0
  -23.6048  -33.6798   21.2990 C   0  0  0  0  0  0  0  0  0  0  0  0
  -28.4101  -15.0447   20.6027 N   0  0  0  0  0  0  0  0  0  0  0  0
  -29.9924  -22.6085   19.4158 N   0  0  0  0  0  0  0  0  0  0  0  0
  -30.9537  -25.3219   19.3097 N   0  0  0  0  0  0  0  0  0  0  0  0
  -29.6140  -15.2858   20.0563 N   0  0  0  0  0  0  0  0  0  0  0  0
  -24.4360  -30.5002   22.7357 N   0  0  0  0  0  0  0  0  0  0  0  0
  -30.3938  -18.7191   21.5354 N   0  0  0  0  0  0  0  0  0  0  0  0
  -31.1285  -14.5136   18.4069 N   0  0  0  0  0  0  0  0  0  0  0  0
  -27.6524  -11.6525   18.0508 N   0  0  0  0  0  0  0  0  0  0  0  0
  -29.5598  -20.2548   19.9516 N   0  0  0  0  0  0  0  0  0  0  0  0
  -21.5327  -28.4373   22.9488 N   0  0  0  0  0  0  0  0  0  0  0  0
  -25.4159  -33.7234   23.0659 N   0  0  0  0  0  0  0  0  0  0  0  0
  -28.6733  -34.2221   24.5520 N   0  3  0  0  0  0  0  0  0  0  0  0
  -29.7280  -12.1724   17.2261 O   0  0  0  0  0  0  0  0  0  0  0  0
  -22.9510  -28.9584   21.1770 O   0  0  0  0  0  0  0  0  0  0  0  0
  -23.1672  -32.1212   23.8307 O   0  0  0  0  0  0  0  0  0  0  0  0
  -27.5032  -33.1767   22.2165 O   0  0  0  0  0  0  0  0  0  0  0  0
  -31.1540  -20.9021   21.5077 O   0  0  0  0  0  0  0  0  0  0  0  0
  -22.9834  -11.7485   21.0884 O   0  0  0  0  0  0  0  0  0  0  0  0
  -28.5924  -26.8130   20.0558 O   0  0  0  0  0  0  0  0  0  1  0  0
  -22.6585   -6.2593   21.4967 F   0  0  0  0  0  0  0  0  0  0  0  0
  -22.1509  -10.5477   23.4352 F   0  0  0  0  0  0  0  0  0  0  0  0
  -28.2518  -21.3974   17.9372 S   0  0  0  0  0  0  0  0  0  0  0  0
  1  2  1  0  0  0  0
  1  5  2  0  0  0  0
  2  6  2  0  0  0  0
  3  8  2  0  0  0  0
  3 16  1  0  0  0  0
  4  9  1  0  0  0  0
  4 16  2  0  0  0  0
  5 18  1  0  0  0  0
  6 20  1  0  0  0  0
  7 10  2  0  0  0  0
  7 19  1  0  0  0  0
  8 22  1  0  0  0  0
  9 22  2  0  0  0  0
 10 23  1  0  0  0  0
 11 12  2  0  0  0  0
 11 24  1  0  0  0  0
 12 25  1  0  0  0  0
 13 21  1  0  0  0  0
 13 23  2  0  0  0  0
 14 25  2  0  0  0  0
 14 26  1  0  0  0  0
 15 28  2  0  0  0  0
 15 82  1  0  0  0  0
 16 27  1  0  0  0  0
 17 27  1  0  0  0  0
 17 29  2  0  0  0  0
 17 32  1  0  0  0  0
 18 20  2  0  0  0  0
 18 37  1  0  0  0  0
 19 21  2  0  0  0  0
 19 38  1  0  0  0  0
 20 48  1  0  0  0  0
 21 39  1  0  0  0  0
 22 78  1  0  0  0  0
 23 79  1  0  0  0  0
 24 26  2  0  0  0  0
 24 78  1  0  0  0  0
 25 80  1  0  0  0  0
 26 81  1  0  0  0  0
 27 61  2  0  0  0  0
 28 31  1  0  0  0  0
 28 62  1  0  0  0  0
 29 64  1  0  0  0  0
 29 67  1  0  0  0  0
 30 62  2  0  0  0  0
 30 69  1  0  0  0  0
 30 82  1  0  0  0  0
 31 40  1  0  0  0  0
 31 63  2  0  0  0  0
 32 68  1  0  0  0  0
 32 73  2  0  0  0  0
 33 49  1  0  0  0  0
 33 70  1  0  0  0  0
 33 74  2  0  0  0  0
 34 58  1  0  0  0  0
 34 65  1  0  0  0  0
 34 75  2  0  0  0  0
 35 59  1  0  0  0  0
 35 71  1  0  0  0  0
 35 76  2  0  0  0  0
 36 66  1  0  0  0  0
 36 69  1  0  0  0  0
 36 77  2  0  0  0  0
 37 41  1  0  0  0  0
 38 49  1  0  0  0  0
 39 65  1  0  0  0  0
 40 50  1  0  0  0  0
 41 43  1  0  0  0  0
 42 44  1  0  0  0  0
 42 46  1  0  0  0  0
 43 48  1  0  0  0  0
 44 51  1  0  0  0  0
 45 50  1  0  0  0  0
 45 63  1  0  0  0  0
 46 66  1  0  0  0  0
 47 51  1  0  0  0  0
 47 66  1  0  0  0  0
 48 70  1  0  0  0  0
 49 65  1  0  0  0  0
 50 57  1  0  0  0  0
 51 64  1  0  0  0  0
 52 59  1  0  0  0  0
 53 60  1  0  0  0  0
 54 60  1  0  0  0  0
 55 60  1  0  0  0  0
 56 72  1  0  0  0  0
 57 79  1  0  0  0  0
 58 60  1  0  0  0  0
 58 71  1  0  0  0  0
 59 72  1  0  0  0  0
 61 64  1  0  0  0  0
M  CHG  1  72   1
M  ISO  4  36 100  57 101  69 100  79 101
M  END
> <Batch ID>
0156

> <Smiles>
CNC(C)C(=O)NC(C(=O)N1Cc2cc([101O:1][101CH2:1]C3=CC(c4csc([100NH:0][100C:0](=O)N5CCCC(n6nc(-c7ccc(Oc8ccc(F)cc8F)cc7)c(C(N)=O)c6N)C5)n4)NC3)ccc2CC1C(=O)NC1CCCc2ccccc21)C(C)(C)C

> <Shape>
0.353

> <Color>
0.121

> <Negative vol penalty>
0.000

$$$$

  -OEChem-04052303393D

 87 96  0     1  0  0  0  0  0999 V2000
  -30.2661  -23.1373   16.8017 C   0  0  0  0  0  0  0  0  0  0  0  0
  -28.9133  -23.3691   17.0291 C   0  0  0  0  0  0  0  0  0  0  0  0
  -17.6474  -20.2168   21.9661 C   0  0  0  0  0  0  0  0  0  0  0  0
  -26.1742  -13.5071   19.8739 C   0  0  0  0  0  0  0  0  0  0  0  0
  -24.0565  -13.5517   21.0360 C   0  0  0  0  0  0  0  0  0  0  0  0
  -31.1906  -23.3541   17.8225 C   0  0  0  0  0  0  0  0  0  0  0  0
  -28.4842  -23.8168   18.2780 C   0  0  0  0  0  0  0  0  0  0  0  0
  -23.8497  -27.6538   19.4205 C   0  0  0  0  0  0  0  0  0  0  0  0
  -17.4475  -21.5966   22.0052 C   0  0  0  0  0  0  0  0  0  0  0  0
  -18.8969  -19.6838   22.2828 C   0  0  0  0  0  0  0  0  0  0  0  0
  -26.3342  -12.1646   20.2169 C   0  0  0  0  0  0  0  0  0  0  0  0
  -24.2165  -12.2092   21.3790 C   0  0  0  0  0  0  0  0  0  0  0  0
  -22.5286  -27.4390   19.8105 C   0  0  0  0  0  0  0  0  0  0  0  0
  -23.8444   -9.1984   19.8900 C   0  0  0  0  0  0  0  0  0  0  0  0
  -22.7442   -8.3555   19.7331 C   0  0  0  0  0  0  0  0  0  0  0  0
  -23.1555  -27.8002   22.1117 C   0  0  0  0  0  0  0  0  0  0  0  0
  -19.7467  -21.9106   22.6776 C   0  0  0  0  0  0  0  0  0  0  0  0
  -22.7933   -7.8514   22.0954 C   0  0  0  0  0  0  0  0  0  0  0  0
  -25.0354  -14.2007   20.2835 C   0  0  0  0  0  0  0  0  0  0  0  0
  -24.8098  -16.1333   18.6337 C   0  0  0  0  0  0  0  0  0  0  0  0
  -30.7737  -23.8139   19.0817 C   0  0  0  0  0  0  0  0  0  0  0  0
  -24.8375  -27.9331   20.3759 C   0  0  0  0  0  0  0  0  0  0  0  0
  -29.4038  -24.0386   19.3171 C   0  0  0  0  0  0  0  0  0  0  0  0
  -24.4880  -28.0207   21.7310 C   0  0  0  0  0  0  0  0  0  0  0  0
  -18.4972  -22.4436   22.3609 C   0  0  0  0  0  0  0  0  0  0  0  0
  -19.9466  -20.5307   22.6385 C   0  0  0  0  0  0  0  0  0  0  0  0
  -25.3553  -11.5156   20.9694 C   0  0  0  0  0  0  0  0  0  0  0  0
  -22.1818  -27.5093   21.1566 C   0  0  0  0  0  0  0  0  0  0  0  0
  -24.4192   -9.3677   21.1497 C   0  0  0  0  0  0  0  0  0  0  0  0
  -22.2186   -7.6820   20.8357 C   0  0  0  0  0  0  0  0  0  0  0  0
  -23.8936   -8.6943   22.2524 C   0  0  0  0  0  0  0  0  0  0  0  0
  -24.8699  -15.5877   19.9300 C   0  0  0  0  0  0  0  0  0  0  0  0
  -24.6463  -17.4819   18.8359 C   0  0  0  0  0  0  0  0  0  0  0  0
  -18.4042  -26.3006   23.6858 C   0  0  0  0  0  0  0  0  0  0  0  0
  -19.4005  -25.9570   22.8559 C   0  0  0  0  0  0  0  0  0  0  0  0
  -17.1389  -25.5321   23.6861 C   0  0  0  0  0  0  0  0  0  0  0  0
  -24.8941  -15.4794   17.3605 C   0  0  0  0  0  0  0  0  0  0  0  0
  -27.5127  -26.5004   21.3213 C   0  0  0  0  0  0  0  0  0  0  0  0
  -27.8619  -29.1889   23.1023 C   0  0  0  0  0  0  0  0  0  0  0  0
  -26.3912  -31.8592   24.6364 C   0  0  0  0  0  0  0  0  0  0  0  0
  -22.3634  -20.6882   23.3318 C   0  0  0  0  0  0  0  0  0  0  0  0
  -31.8046  -23.9885   20.1686 C   0  0  0  0  0  0  0  0  0  0  0  0
  -26.2530  -28.1887   19.9362 C   0  0  0  0  0  0  0  0  0  0  0  0
  -25.5070  -28.3375   22.7939 C   0  0  0  0  0  0  0  0  0  0  0  0
  -16.9834  -24.3810   22.7225 C   0  0  0  0  0  0  0  0  0  0  0  0
  -31.3105  -24.8216   21.3485 C   0  0  0  0  0  0  0  0  0  0  0  0
  -25.6506  -20.9446   21.9880 C   0  0  0  0  0  0  0  0  0  0  0  0
  -29.9216  -24.3631   21.7814 C   0  0  0  0  0  0  0  0  0  0  0  0
  -25.8157  -19.6525   21.1848 C   0  0  0  0  0  0  0  0  0  0  0  0
  -24.8473  -20.7183   23.2676 C   0  0  0  0  0  0  0  0  0  0  0  0
  -23.7122  -18.7709   22.2735 C   0  0  0  0  0  0  0  0  0  0  0  0
  -28.9022  -24.5482   20.6509 C   0  0  1  0  0  0  0  0  0  0  0  0
  -19.3281  -24.7619   21.9210 C   0  0  2  0  0  0  0  0  0  0  0  0
  -27.2742  -27.9581   21.0458 C   0  0  1  0  0  0  0  0  0  0  0  0
  -24.4591  -18.9618   20.9433 C   0  0  2  0  0  0  0  0  0  0  0  0
  -18.9913  -24.0356   19.5540 C   0  0  0  0  0  0  0  0  0  0  0  0
  -26.9304  -33.8633   26.0471 C   0  0  0  0  0  0  0  0  0  0  0  0
  -28.1952  -27.3817   25.5381 C   0  0  0  0  0  0  0  0  0  0  0  0
  -27.7769  -29.3781   26.9897 C   0  0  0  0  0  0  0  0  0  0  0  0
  -29.7534  -29.3365   25.4685 C   0  0  0  0  0  0  0  0  0  0  0  0
  -25.3627  -33.7260   22.5831 C   0  0  0  0  0  0  0  0  0  0  0  0
  -20.6840  -26.7410   22.8365 C   0  0  0  0  0  0  0  0  0  1  0  0
  -19.0414  -25.2018   20.4826 C   0  0  0  0  0  0  0  0  0  0  0  0
  -27.4401  -29.6160   24.4875 C   0  0  1  0  0  0  0  0  0  0  0  0
  -26.7353  -33.3377   24.6335 C   0  0  2  0  0  0  0  0  0  0  0  0
  -28.2723  -28.9202   25.6014 C   0  0  0  0  0  0  0  0  0  0  0  0
  -24.7542  -16.5141   20.8852 N   0  0  0  0  0  0  0  0  0  0  0  0
  -24.6198  -17.6555   20.1885 N   0  0  0  0  0  0  0  0  0  0  0  0
  -18.2968  -23.8237   22.4006 N   0  0  3  0  0  0  0  0  0  0  0  0
  -26.8790  -28.5732   22.3145 N   0  0  0  0  0  0  0  0  0  0  0  0
  -23.5733  -20.0644   22.9607 N   0  0  0  0  0  0  0  0  0  0  0  0
  -24.5242  -18.5244   17.9870 N   0  0  0  0  0  0  0  0  0  0  0  0
  -23.7103  -15.0273   16.7618 N   0  0  0  0  0  0  0  0  0  0  0  0
  -21.2160  -19.9889   22.9589 N   0  0  0  0  0  0  0  0  0  0  0  0
  -28.5092  -25.9372   20.5471 N   0  0  0  0  0  0  0  0  0  0  0  0
  -27.5163  -31.0727   24.5065 N   0  0  0  0  0  0  0  0  0  0  0  0
  -25.6454  -34.1219   23.9868 N   0  3  0  0  0  0  0  0  0  0  0  0
  -16.2207  -25.8767   24.4289 O   0  0  0  0  0  0  0  0  0  0  0  0
  -25.9887  -15.2867   16.7788 O   0  0  0  0  0  0  0  0  0  0  0  0
  -26.8433  -25.9292   22.1741 O   0  0  0  0  0  0  0  0  0  0  0  0
  -29.0188  -29.4004   22.7304 O   0  0  0  0  0  0  0  0  0  0  0  0
  -25.2399  -31.4434   24.7470 O   0  0  0  0  0  0  0  0  0  0  0  0
  -22.3458  -21.7769   23.9118 O   0  0  0  0  0  0  0  0  0  0  0  0
  -25.5109  -10.2055   21.3040 O   0  0  0  0  0  0  0  0  0  0  0  0
  -20.8931  -27.2995   21.5401 O   0  0  0  0  0  0  0  0  0  1  0  0
  -21.1611   -6.8738   20.6851 F   0  0  0  0  0  0  0  0  0  0  0  0
  -24.4408   -8.8539   23.4652 F   0  0  0  0  0  0  0  0  0  0  0  0
  1  2  1  0  0  0  0
  1  6  2  0  0  0  0
  2  7  2  0  0  0  0
  3  9  2  0  0  0  0
  3 10  1  0  0  0  0
  4 11  2  0  0  0  0
  4 19  1  0  0  0  0
  5 12  1  0  0  0  0
  5 19  2  0  0  0  0
  6 21  1  0  0  0  0
  7 23  1  0  0  0  0
  8 13  2  0  0  0  0
  8 22  1  0  0  0  0
  9 25  1  0  0  0  0
 10 26  2  0  0  0  0
 11 27  1  0  0  0  0
 12 27  2  0  0  0  0
 13 28  1  0  0  0  0
 14 15  2  0  0  0  0
 14 29  1  0  0  0  0
 15 30  1  0  0  0  0
 16 24  1  0  0  0  0
 16 28  2  0  0  0  0
 17 25  2  0  0  0  0
 17 26  1  0  0  0  0
 18 30  2  0  0  0  0
 18 31  1  0  0  0  0
 19 32  1  0  0  0  0
 20 32  1  0  0  0  0
 20 33  2  0  0  0  0
 20 37  1  0  0  0  0
 21 23  2  0  0  0  0
 21 42  1  0  0  0  0
 22 24  2  0  0  0  0
 22 43  1  0  0  0  0
 23 52  1  0  0  0  0
 24 44  1  0  0  0  0
 25 69  1  0  0  0  0
 26 74  1  0  0  0  0
 27 84  1  0  0  0  0
 28 85  1  0  0  0  0
 29 31  2  0  0  0  0
 29 84  1  0  0  0  0
 30 86  1  0  0  0  0
 31 87  1  0  0  0  0
 32 67  2  0  0  0  0
 33 68  1  0  0  0  0
 33 72  1  0  0  0  0
 34 35  2  0  0  0  0
 34 36  1  0  0  0  0
 35 53  1  0  0  0  0
 35 62  1  0  0  0  0
 36 45  1  0  0  0  0
 36 78  2  0  0  0  0
 37 73  1  0  0  0  0
 37 79  2  0  0  0  0
 38 54  1  0  0  0  0
 38 75  1  0  0  0  0
 38 80  2  0  0  0  0
 39 64  1  0  0  0  0
 39 70  1  0  0  0  0
 39 81  2  0  0  0  0
 40 65  1  0  0  0  0
 40 76  1  0  0  0  0
 40 82  2  0  0  0  0
 41 71  1  0  0  0  0
 41 74  1  0  0  0  0
 41 83  2  0  0  0  0
 42 46  1  0  0  0  0
 43 54  1  0  0  0  0
 44 70  1  0  0  0  0
 45 69  1  0  0  0  0
 46 48  1  0  0  0  0
 47 49  1  0  0  0  0
 47 50  1  0  0  0  0
 48 52  1  0  0  0  0
 49 55  1  0  0  0  0
 50 71  1  0  0  0  0
 51 55  1  0  0  0  0
 51 71  1  0  0  0  0
 52 75  1  0  0  0  0
 53 63  1  0  0  0  0
 53 69  1  0  0  0  0
 54 70  1  0  0  0  0
 55 68  1  0  0  0  0
 56 63  1  0  0  0  0
 57 65  1  0  0  0  0
 58 66  1  0  0  0  0
 59 66  1  0  0  0  0
 60 66  1  0  0  0  0
 61 77  1  0  0  0  0
 62 85  1  0  0  0  0
 64 66  1  0  0  0  0
 64 76  1  0  0  0  0
 65 77  1  0  0  0  0
 67 68  1  0  0  0  0
M  CHG  1  77   1
M  ISO  4  41 100  62 101  74 100  85 101
M  END
> <Batch ID>
0156

> <Smiles>
CCC1=C([101CH2:1][101O:1]c2ccc3c(c2)CN(C(=O)C(NC(=O)C(C)NC)C(C)(C)C)C(C(=O)NC2CCCc4ccccc42)C3)CC(=O)CN1c1cccc([100NH:0][100C:0](=O)N2CCCC(n3nc(-c4ccc(Oc5ccc(F)cc5F)cc4)c(C(N)=O)c3N)C2)c1

> <Shape>
0.230

> <Color>
0.051

> <Negative vol penalty>
0.000

$$$$

  -OEChem-04052303393D

 86 95  0     1  0  0  0  0  0999 V2000
  -27.3217  -36.2487   20.9408 C   0  0  0  0  0  0  0  0  0  0  0  0
  -27.7369  -34.9241   21.0320 C   0  0  0  0  0  0  0  0  0  0  0  0
  -26.7266   -9.9690   21.1211 C   0  0  0  0  0  0  0  0  0  0  0  0
  -27.4654  -11.6034   22.7397 C   0  0  0  0  0  0  0  0  0  0  0  0
  -26.1192  -36.6430   21.5259 C   0  0  0  0  0  0  0  0  0  0  0  0
  -26.9502  -33.9931   21.7093 C   0  0  0  0  0  0  0  0  0  0  0  0
  -26.4890  -29.6314   19.1778 C   0  0  0  0  0  0  0  0  0  0  0  0
  -27.6487   -9.0522   21.6259 C   0  0  0  0  0  0  0  0  0  0  0  0
  -28.3875  -10.6867   23.2446 C   0  0  0  0  0  0  0  0  0  0  0  0
  -27.5664  -28.7481   19.2298 C   0  0  0  0  0  0  0  0  0  0  0  0
  -28.3607   -8.0044   25.3001 C   0  0  0  0  0  0  0  0  0  0  0  0
  -28.4560   -7.8797   26.6861 C   0  0  0  0  0  0  0  0  0  0  0  0
  -26.4219  -27.4610   20.9188 C   0  0  0  0  0  0  0  0  0  0  0  0
  -28.6879  -20.1890   19.2894 C   0  0  0  0  0  0  0  0  0  0  0  0
  -30.5513  -20.0094   20.8692 C   0  0  0  0  0  0  0  0  0  0  0  0
  -30.7802   -8.5314   26.5850 C   0  0  0  0  0  0  0  0  0  0  0  0
  -26.6349  -11.2446   21.6780 C   0  0  0  0  0  0  0  0  0  0  0  0
  -24.3522  -12.3787   21.5760 C   0  0  0  0  0  0  0  0  0  0  0  0
  -25.3126  -35.7143   22.2025 C   0  0  0  0  0  0  0  0  0  0  0  0
  -25.3728  -29.4420   20.0052 C   0  0  0  0  0  0  0  0  0  0  0  0
  -25.7364  -34.3755   22.3051 C   0  0  0  0  0  0  0  0  0  0  0  0
  -25.3305  -28.3419   20.8736 C   0  0  0  0  0  0  0  0  0  0  0  0
  -29.5818  -18.0388   20.0095 C   0  0  0  0  0  0  0  0  0  0  0  0
  -28.7132  -18.8240   19.2896 C   0  0  0  0  0  0  0  0  0  0  0  0
  -29.6437  -20.7900   20.1104 C   0  0  0  0  0  0  0  0  0  0  0  0
  -30.5249  -18.6080   20.8214 C   0  0  0  0  0  0  0  0  0  0  0  0
  -28.4791   -9.4110   22.6877 C   0  0  0  0  0  0  0  0  0  0  0  0
  -27.5342  -27.6643   20.1024 C   0  0  0  0  0  0  0  0  0  0  0  0
  -29.4753   -8.3926   24.5565 C   0  0  0  0  0  0  0  0  0  0  0  0
  -29.6657   -8.1433   27.3286 C   0  0  0  0  0  0  0  0  0  0  0  0
  -30.6850   -8.6561   25.1990 C   0  0  0  0  0  0  0  0  0  0  0  0
  -25.6830  -12.1923   21.1565 C   0  0  0  0  0  0  0  0  0  0  0  0
  -23.8778  -13.3882   20.7744 C   0  0  0  0  0  0  0  0  0  0  0  0
  -28.3407  -25.4825   19.8577 C   0  0  0  0  0  0  0  0  0  1  0  0
  -23.6111  -11.7002   22.5988 C   0  0  0  0  0  0  0  0  0  0  0  0
  -29.2857  -24.5347   19.8733 C   0  0  0  0  0  0  0  0  0  0  0  0
  -28.9080  -23.1250   19.5296 C   0  0  0  0  0  0  0  0  0  0  0  0
  -23.9855  -31.1217   22.3199 C   0  0  0  0  0  0  0  0  0  0  0  0
  -21.7513  -28.7762   22.1498 C   0  0  0  0  0  0  0  0  0  0  0  0
  -20.9839  -25.5623   21.2960 C   0  0  0  0  0  0  0  0  0  0  0  0
  -27.0592  -17.7157   17.8070 C   0  0  0  0  0  0  0  0  0  0  0  0
  -24.0440  -36.1975   22.8596 C   0  0  0  0  0  0  0  0  0  0  0  0
  -24.2072  -30.3888   19.9179 C   0  0  0  0  0  0  0  0  0  0  0  0
  -24.1468  -28.0827   21.7680 C   0  0  0  0  0  0  0  0  0  0  0  0
  -23.0862  -35.0704   23.2372 C   0  0  0  0  0  0  0  0  0  0  0  0
  -24.8509  -15.0854   16.3364 C   0  0  0  0  0  0  0  0  0  0  0  0
  -23.8386  -33.9417   23.9349 C   0  0  0  0  0  0  0  0  0  0  0  0
  -24.3996  -14.2504   17.5350 C   0  0  0  0  0  0  0  0  0  0  0  0
  -25.2047  -16.5142   16.7218 C   0  0  0  0  0  0  0  0  0  0  0  0
  -26.2875  -15.4770   18.7220 C   0  0  0  0  0  0  0  0  0  0  0  0
  -24.8985  -33.3310   23.0101 C   0  0  1  0  0  0  0  0  0  0  0  0
  -28.9635  -16.7868   19.4362 C   0  0  2  0  0  0  0  0  0  0  0  0
  -23.3432  -30.3903   21.1752 C   0  0  1  0  0  0  0  0  0  0  0  0
  -24.9152  -14.7995   18.8766 C   0  0  2  0  0  0  0  0  0  0  0  0
  -29.8822  -16.0421   18.4828 C   0  0  0  0  0  0  0  0  0  0  0  0
  -19.0866  -23.9199   21.3097 C   0  0  0  0  0  0  0  0  0  0  0  0
  -22.1169  -28.3825   25.1533 C   0  0  0  0  0  0  0  0  0  0  0  0
  -20.9575  -26.1743   24.9345 C   0  0  0  0  0  0  0  0  0  0  0  0
  -19.7445  -28.2794   24.3688 C   0  0  0  0  0  0  0  0  0  0  0  0
  -21.0470  -25.2883   18.3499 C   0  0  0  0  0  0  0  0  0  0  0  0
  -21.5544  -27.4368   22.8177 C   0  0  1  0  0  0  0  0  0  0  0  0
  -19.8259  -24.9789   20.5067 C   0  0  2  0  0  0  0  0  0  0  0  0
  -21.1166  -27.5739   24.3032 C   0  0  0  0  0  0  0  0  0  0  0  0
  -26.0316  -13.0169   20.1654 N   0  0  0  0  0  0  0  0  0  0  0  0
  -24.9128  -13.7313   19.9553 N   0  0  0  0  0  0  0  0  0  0  0  0
  -28.0645  -17.7388   18.7415 N   0  0  0  0  0  0  0  0  0  0  0  0
  -23.0346  -29.0402   21.6506 N   0  0  0  0  0  0  0  0  0  0  0  0
  -26.2672  -16.5619   17.7302 N   0  0  0  0  0  0  0  0  0  0  0  0
  -31.4235  -17.8312   21.5627 N   0  0  0  0  0  0  0  0  0  0  0  0
  -22.6803  -14.0067   20.6974 N   0  0  0  0  0  0  0  0  0  0  0  0
  -24.2508  -10.6883   23.3276 N   0  0  0  0  0  0  0  0  0  0  0  0
  -29.7071  -22.1825   20.1883 N   0  0  0  0  0  0  0  0  0  0  0  0
  -24.2796  -32.4443   22.0483 N   0  0  0  0  0  0  0  0  0  0  0  0
  -20.6126  -26.6988   21.9829 N   0  0  0  0  0  0  0  0  0  0  0  0
  -20.3202  -24.3538   19.2473 N   0  3  0  0  0  0  0  0  0  0  0  0
  -22.4120  -11.9717   22.8476 O   0  0  0  0  0  0  0  0  0  0  0  0
  -27.9904  -22.8907   18.7505 O   0  0  0  0  0  0  0  0  0  0  0  0
  -24.1972  -30.5304   23.3721 O   0  0  0  0  0  0  0  0  0  0  0  0
  -20.7995  -29.5566   22.0674 O   0  0  0  0  0  0  0  0  0  0  0  0
  -22.1047  -25.0580   21.3055 O   0  0  0  0  0  0  0  0  0  0  0  0
  -26.8715  -18.6740   17.0455 O   0  0  0  0  0  0  0  0  0  0  0  0
  -30.6011  -24.8035   20.1933 O   0  0  0  0  0  0  0  0  0  0  0  0
  -29.3789   -8.5167   23.1807 O   0  0  0  0  0  0  0  0  0  0  0  0
  -28.5921  -26.7949   20.1560 O   0  0  0  0  0  0  0  0  0  1  0  0
  -29.7566   -8.0250   28.6597 F   0  0  0  0  0  0  0  0  0  0  0  0
  -31.7588   -9.0305   24.4901 F   0  0  0  0  0  0  0  0  0  0  0  0
  1  2  1  0  0  0  0
  1  5  2  0  0  0  0
  2  6  2  0  0  0  0
  3  8  2  0  0  0  0
  3 17  1  0  0  0  0
  4  9  1  0  0  0  0
  4 17  2  0  0  0  0
  5 19  1  0  0  0  0
  6 21  1  0  0  0  0
  7 10  2  0  0  0  0
  7 20  1  0  0  0  0
  8 27  1  0  0  0  0
  9 27  2  0  0  0  0
 10 28  1  0  0  0  0
 11 12  2  0  0  0  0
 11 29  1  0  0  0  0
 12 30  1  0  0  0  0
 13 22  1  0  0  0  0
 13 28  2  0  0  0  0
 14 24  1  0  0  0  0
 14 25  2  0  0  0  0
 15 25  1  0  0  0  0
 15 26  2  0  0  0  0
 16 30  2  0  0  0  0
 16 31  1  0  0  0  0
 17 32  1  0  0  0  0
 18 32  1  0  0  0  0
 18 33  2  0  0  0  0
 18 35  1  0  0  0  0
 19 21  2  0  0  0  0
 19 42  1  0  0  0  0
 20 22  2  0  0  0  0
 20 43  1  0  0  0  0
 21 51  1  0  0  0  0
 22 44  1  0  0  0  0
 23 24  2  0  0  0  0
 23 26  1  0  0  0  0
 23 52  1  0  0  0  0
 24 66  1  0  0  0  0
 25 72  1  0  0  0  0
 26 69  1  0  0  0  0
 27 83  1  0  0  0  0
 28 84  1  0  0  0  0
 29 31  2  0  0  0  0
 29 83  1  0  0  0  0
 30 85  1  0  0  0  0
 31 86  1  0  0  0  0
 32 64  2  0  0  0  0
 33 65  1  0  0  0  0
 33 70  1  0  0  0  0
 34 36  2  0  0  0  0
 34 84  1  0  0  0  0
 35 71  1  0  0  0  0
 35 76  2  0  0  0  0
 36 37  1  0  0  0  0
 36 82  1  0  0  0  0
 37 72  1  0  0  0  0
 37 77  2  0  0  0  0
 38 53  1  0  0  0  0
 38 73  1  0  0  0  0
 38 78  2  0  0  0  0
 39 61  1  0  0  0  0
 39 67  1  0  0  0  0
 39 79  2  0  0  0  0
 40 62  1  0  0  0  0
 40 74  1  0  0  0  0
 40 80  2  0  0  0  0
 41 66  1  0  0  0  0
 41 68  1  0  0  0  0
 41 81  2  0  0  0  0
 42 45  1  0  0  0  0
 43 53  1  0  0  0  0
 44 67  1  0  0  0  0
 45 47  1  0  0  0  0
 46 48  1  0  0  0  0
 46 49  1  0  0  0  0
 47 51  1  0  0  0  0
 48 54  1  0  0  0  0
 49 68  1  0  0  0  0
 50 54  1  0  0  0  0
 50 68  1  0  0  0  0
 51 73  1  0  0  0  0
 52 55  1  0  0  0  0
 52 66  1  0  0  0  0
 53 67  1  0  0  0  0
 54 65  1  0  0  0  0
 56 62  1  0  0  0  0
 57 63  1  0  0  0  0
 58 63  1  0  0  0  0
 59 63  1  0  0  0  0
 60 75  1  0  0  0  0
 61 63  1  0  0  0  0
 61 74  1  0  0  0  0
 62 75  1  0  0  0  0
 64 65  1  0  0  0  0
M  CHG  1  75   1
M  ISO  4  34 101  41 100  66 100  84 101
M  END
> <Batch ID>
0156

> <Smiles>
CNC(C)C(=O)NC(C(=O)N1Cc2cc([101O:1][101CH2:1]C(=O)C(=O)Nc3cc(N)c4c(c3)[100N:0]([100C:0](=O)N3CCCC(n5nc(-c6ccc(Oc7ccc(F)cc7F)cc6)c(C(N)=O)c5N)C3)C4C)ccc2CC1C(=O)NC1CCCc2ccccc21)C(C)(C)C

> <Shape>
0.256

> <Color>
0.077

> <Negative vol penalty>
0.000

$$$$

  -OEChem-04052303393D

 82 91  0     1  0  0  0  0  0999 V2000
  -32.8559  -25.8411   18.0128 C   0  0  0  0  0  0  0  0  0  0  0  0
  -31.5775  -25.3100   18.1509 C   0  0  0  0  0  0  0  0  0  0  0  0
  -24.5290   -9.0120   21.1400 C   0  0  0  0  0  0  0  0  0  0  0  0
  -22.6809  -10.5199   20.7556 C   0  0  0  0  0  0  0  0  0  0  0  0
  -33.3312  -26.7625   18.9450 C   0  0  0  0  0  0  0  0  0  0  0  0
  -30.7741  -25.6991   19.2221 C   0  0  0  0  0  0  0  0  0  0  0  0
  -24.6875  -26.3764   19.2032 C   0  0  0  0  0  0  0  0  0  0  0  0
  -23.6315   -7.9640   21.3444 C   0  0  0  0  0  0  0  0  0  0  0  0
  -21.7834   -9.4719   20.9599 C   0  0  0  0  0  0  0  0  0  0  0  0
  -23.6498  -25.5445   19.6214 C   0  0  0  0  0  0  0  0  0  0  0  0
  -21.6244   -6.8523   23.8263 C   0  0  0  0  0  0  0  0  0  0  0  0
  -21.8511   -6.0086   24.9137 C   0  0  0  0  0  0  0  0  0  0  0  0
  -23.5891  -26.6956   21.7405 C   0  0  0  0  0  0  0  0  0  0  0  0
  -22.0430   -4.1253   23.4125 C   0  0  0  0  0  0  0  0  0  0  0  0
  -23.1028  -18.6222   23.0176 C   0  0  0  0  0  0  0  0  0  0  0  0
  -24.0538  -10.2900   20.8457 C   0  0  0  0  0  0  0  0  0  0  0  0
  -25.5591  -11.7717   19.4152 C   0  0  0  0  0  0  0  0  0  0  0  0
  -32.5295  -27.1704   20.0228 C   0  0  0  0  0  0  0  0  0  0  0  0
  -25.1919  -27.3687   20.0560 C   0  0  0  0  0  0  0  0  0  0  0  0
  -31.2396  -26.6258   20.1704 C   0  0  0  0  0  0  0  0  0  0  0  0
  -24.6314  -27.5405   21.3298 C   0  0  0  0  0  0  0  0  0  0  0  0
  -22.2587   -8.1939   21.2543 C   0  0  0  0  0  0  0  0  0  0  0  0
  -23.1024  -25.7021   20.8913 C   0  0  0  0  0  0  0  0  0  0  0  0
  -21.6070   -6.3325   22.5320 C   0  0  0  0  0  0  0  0  0  0  0  0
  -22.0604   -4.6451   24.7068 C   0  0  0  0  0  0  0  0  0  0  0  0
  -21.8163   -4.9690   22.3251 C   0  0  0  0  0  0  0  0  0  0  0  0
  -24.9804  -11.3731   20.6351 C   0  0  0  0  0  0  0  0  0  0  0  0
  -22.8309  -19.9227   23.3504 C   0  0  0  0  0  0  0  0  0  0  0  0
  -24.3265  -18.3621   23.6582 C   0  0  0  0  0  0  0  0  0  0  0  0
  -26.3589  -12.8379   19.7468 C   0  0  0  0  0  0  0  0  0  0  0  0
  -25.3888  -11.2269   18.0999 C   0  0  0  0  0  0  0  0  0  0  0  0
  -28.0157  -27.9542   21.3929 C   0  0  0  0  0  0  0  0  0  0  0  0
  -26.5528  -30.6812   22.3654 C   0  0  0  0  0  0  0  0  0  0  0  0
  -23.6406  -32.3092   23.0835 C   0  0  0  0  0  0  0  0  0  0  0  0
  -26.2283  -16.8057   24.2126 C   0  0  0  0  0  0  0  0  0  0  0  0
  -33.1044  -28.1331   21.0315 C   0  0  0  0  0  0  0  0  0  0  0  0
  -26.2935  -28.2755   19.5799 C   0  0  0  0  0  0  0  0  0  0  0  0
  -25.1235  -28.6041   22.2759 C   0  0  0  0  0  0  0  0  0  0  0  0
  -32.0503  -28.7763   21.9290 C   0  0  0  0  0  0  0  0  0  0  0  0
  -28.9111  -14.6146   23.3888 C   0  0  0  0  0  0  0  0  0  0  0  0
  -31.0816  -27.7219   22.4550 C   0  0  0  0  0  0  0  0  0  0  0  0
  -21.0079  -21.3499   24.3086 C   0  0  0  0  0  0  0  0  0  0  0  0
  -21.2589  -22.8534   24.3638 C   0  0  0  0  0  0  0  0  0  0  0  0
  -28.2615  -13.5744   22.4732 C   0  0  0  0  0  0  0  0  0  0  0  0
  -22.2327  -22.1161   22.3203 C   0  0  0  0  0  0  0  0  0  0  0  0
  -27.9671  -15.0549   24.5063 C   0  0  0  0  0  0  0  0  0  0  0  0
  -25.9983  -14.4783   23.1423 C   0  0  0  0  0  0  0  0  0  0  0  0
  -30.3288  -27.0418   21.3051 C   0  0  1  0  0  0  0  0  0  0  0  0
  -21.7218  -20.8510   23.0348 C   0  0  1  0  0  0  0  0  0  0  0  0
  -27.0759  -28.9159   20.7224 C   0  0  1  0  0  0  0  0  0  0  0  0
  -21.3854  -23.2488   22.8966 C   0  0  2  0  0  0  0  0  0  0  0  0
  -26.8879  -14.0522   21.9630 C   0  0  2  0  0  0  0  0  0  0  0  0
  -22.7663  -34.5182   23.8916 C   0  0  0  0  0  0  0  0  0  0  0  0
  -27.4011  -29.9738   25.2096 C   0  0  0  0  0  0  0  0  0  0  0  0
  -25.7348  -31.6439   26.0476 C   0  0  0  0  0  0  0  0  0  0  0  0
  -27.6393  -32.3928   24.6211 C   0  0  0  0  0  0  0  0  0  0  0  0
  -22.1234  -32.7552   20.5819 C   0  0  0  0  0  0  0  0  0  0  0  0
  -22.0045  -24.6161   22.7000 C   0  0  0  0  0  0  0  0  0  1  0  0
  -25.7439  -31.0883   23.5733 C   0  0  1  0  0  0  0  0  0  0  0  0
  -23.1246  -33.6775   22.6761 C   0  0  2  0  0  0  0  0  0  0  0  0
  -26.6216  -31.2533   24.8460 C   0  0  0  0  0  0  0  0  0  0  0  0
  -25.3788  -12.1247   21.6647 N   0  0  0  0  0  0  0  0  0  0  0  0
  -24.7790  -19.4205   24.3364 N   0  0  0  0  0  0  0  0  0  0  0  0
  -26.2165  -13.0063   21.0927 N   0  0  0  0  0  0  0  0  0  0  0  0
  -26.2065  -29.4616   21.7667 N   0  0  0  0  0  0  0  0  0  0  0  0
  -26.6879  -15.4983   23.9477 N   0  0  0  0  0  0  0  0  0  0  0  0
  -27.1632  -13.6383   19.0155 N   0  0  0  0  0  0  0  0  0  0  0  0
  -24.5299  -10.1314   17.9365 N   0  0  0  0  0  0  0  0  0  0  0  0
  -25.0161  -17.1256   23.6019 N   0  0  0  0  0  0  0  0  0  0  0  0
  -29.2704  -27.8996   20.8167 N   0  0  0  0  0  0  0  0  0  0  0  0
  -25.0153  -32.2926   23.1897 N   0  0  0  0  0  0  0  0  0  0  0  0
  -21.9092  -33.5403   21.8247 N   0  3  0  0  0  0  0  0  0  0  0  0
  -25.9933  -11.6873   17.1019 O   0  0  0  0  0  0  0  0  0  0  0  0
  -27.6313  -27.3106   22.3623 O   0  0  0  0  0  0  0  0  0  0  0  0
  -27.4538  -31.4217   21.9634 O   0  0  0  0  0  0  0  0  0  0  0  0
  -22.8982  -31.3519   23.2908 O   0  0  0  0  0  0  0  0  0  0  0  0
  -26.8766  -17.5935   24.9062 O   0  0  0  0  0  0  0  0  0  0  0  0
  -23.8240  -20.4102   24.1373 O   0  0  0  0  0  0  0  0  0  0  0  0
  -21.3826   -7.1715   21.4534 O   0  0  0  0  0  0  0  0  0  0  0  0
  -22.0899  -24.8910   21.3023 O   0  0  0  0  0  0  0  0  0  1  0  0
  -22.2796   -3.8354   25.7510 F   0  0  0  0  0  0  0  0  0  0  0  0
  -21.8019   -4.4640   21.0839 F   0  0  0  0  0  0  0  0  0  0  0  0
  1  2  1  0  0  0  0
  1  5  2  0  0  0  0
  2  6  2  0  0  0  0
  3  8  2  0  0  0  0
  3 16  1  0  0  0  0
  4  9  1  0  0  0  0
  4 16  2  0  0  0  0
  5 18  1  0  0  0  0
  6 20  1  0  0  0  0
  7 10  2  0  0  0  0
  7 19  1  0  0  0  0
  8 22  1  0  0  0  0
  9 22  2  0  0  0  0
 10 23  1  0  0  0  0
 11 12  2  0  0  0  0
 11 24  1  0  0  0  0
 12 25  1  0  0  0  0
 13 21  1  0  0  0  0
 13 23  2  0  0  0  0
 14 25  2  0  0  0  0
 14 26  1  0  0  0  0
 15 28  2  0  0  0  0
 15 29  1  0  0  0  0
 16 27  1  0  0  0  0
 17 27  1  0  0  0  0
 17 30  2  0  0  0  0
 17 31  1  0  0  0  0
 18 20  2  0  0  0  0
 18 36  1  0  0  0  0
 19 21  2  0  0  0  0
 19 37  1  0  0  0  0
 20 48  1  0  0  0  0
 21 38  1  0  0  0  0
 22 79  1  0  0  0  0
 23 80  1  0  0  0  0
 24 26  2  0  0  0  0
 24 79  1  0  0  0  0
 25 81  1  0  0  0  0
 26 82  1  0  0  0  0
 27 62  2  0  0  0  0
 28 49  1  0  0  0  0
 28 78  1  0  0  0  0
 29 63  2  0  0  0  0
 29 69  1  0  0  0  0
 30 64  1  0  0  0  0
 30 67  1  0  0  0  0
 31 68  1  0  0  0  0
 31 73  2  0  0  0  0
 32 50  1  0  0  0  0
 32 70  1  0  0  0  0
 32 74  2  0  0  0  0
 33 59  1  0  0  0  0
 33 65  1  0  0  0  0
 33 75  2  0  0  0  0
 34 60  1  0  0  0  0
 34 71  1  0  0  0  0
 34 76  2  0  0  0  0
 35 66  1  0  0  0  0
 35 69  1  0  0  0  0
 35 77  2  0  0  0  0
 36 39  1  0  0  0  0
 37 50  1  0  0  0  0
 38 65  1  0  0  0  0
 39 41  1  0  0  0  0
 40 44  1  0  0  0  0
 40 46  1  0  0  0  0
 41 48  1  0  0  0  0
 42 43  1  0  0  0  0
 42 49  1  0  0  0  0
 43 51  1  0  0  0  0
 44 52  1  0  0  0  0
 45 49  1  0  0  0  0
 45 51  1  0  0  0  0
 46 66  1  0  0  0  0
 47 52  1  0  0  0  0
 47 66  1  0  0  0  0
 48 70  1  0  0  0  0
 50 65  1  0  0  0  0
 51 58  1  0  0  0  0
 52 64  1  0  0  0  0
 53 60  1  0  0  0  0
 54 61  1  0  0  0  0
 55 61  1  0  0  0  0
 56 61  1  0  0  0  0
 57 72  1  0  0  0  0
 58 80  1  0  0  0  0
 59 61  1  0  0  0  0
 59 71  1  0  0  0  0
 60 72  1  0  0  0  0
 62 64  1  0  0  0  0
 63 78  1  0  0  0  0
M  CHG  1  72   1
M  ISO  4  35 100  58 101  69 100  80 101
M  END
> <Batch ID>
0156

> <Smiles>
CNC(C)C(=O)NC(C(=O)N1Cc2cc([101O:1][101CH2:1]C3CCC(c4cc([100NH:0][100C:0](=O)N5CCCC(n6nc(-c7ccc(Oc8ccc(F)cc8F)cc7)c(C(N)=O)c6N)C5)no4)C3)ccc2CC1C(=O)NC1CCCc2ccccc21)C(C)(C)C

> <Shape>
0.243

> <Color>
0.104

> <Negative vol penalty>
0.000

$$$$

  -OEChem-04052303393D

 82 90  0     1  0  0  0  0  0999 V2000
  -25.6262  -38.1353   26.7726 C   0  0  0  0  0  0  0  0  0  0  0  0
  -25.0199  -36.9849   27.2669 C   0  0  0  0  0  0  0  0  0  0  0  0
  -24.4914   -9.0891   21.4682 C   0  0  0  0  0  0  0  0  0  0  0  0
  -22.6361  -10.2287   20.4212 C   0  0  0  0  0  0  0  0  0  0  0  0
  -25.8522  -38.2694   25.4033 C   0  0  0  0  0  0  0  0  0  0  0  0
  -24.6382  -35.9683   26.3921 C   0  0  0  0  0  0  0  0  0  0  0  0
  -24.0030  -28.8411   26.0524 C   0  0  0  0  0  0  0  0  0  0  0  0
  -23.6976   -7.9553   21.6410 C   0  0  0  0  0  0  0  0  0  0  0  0
  -21.8422   -9.0948   20.5940 C   0  0  0  0  0  0  0  0  0  0  0  0
  -23.0718  -27.8572   25.7226 C   0  0  0  0  0  0  0  0  0  0  0  0
  -21.2787   -6.9076   23.7566 C   0  0  0  0  0  0  0  0  0  0  0  0
  -21.3238   -6.2685   24.9956 C   0  0  0  0  0  0  0  0  0  0  0  0
  -23.5841  -28.1644   23.3854 C   0  0  0  0  0  0  0  0  0  0  0  0
  -22.6790  -19.8325   22.8601 C   0  0  0  0  0  0  0  0  0  0  0  0
  -22.0967   -4.2457   23.9241 C   0  0  0  0  0  0  0  0  0  0  0  0
  -21.5620  -18.4938   21.3230 C   0  0  0  0  0  0  0  0  0  0  0  0
  -23.9607  -10.2258   20.8583 C   0  0  0  0  0  0  0  0  0  0  0  0
  -25.5936  -11.7056   19.5733 C   0  0  0  0  0  0  0  0  0  0  0  0
  -25.4818  -37.2498   24.5123 C   0  0  0  0  0  0  0  0  0  0  0  0
  -24.7250  -29.5028   25.0488 C   0  0  0  0  0  0  0  0  0  0  0  0
  -24.8582  -36.0895   25.0095 C   0  0  0  0  0  0  0  0  0  0  0  0
  -24.5257  -29.1545   23.7053 C   0  0  0  0  0  0  0  0  0  0  0  0
  -22.5804  -18.5491   22.2490 C   0  0  0  0  0  0  0  0  0  0  0  0
  -22.3730   -7.9581   21.2038 C   0  0  0  0  0  0  0  0  0  0  0  0
  -22.8601  -27.5208   24.3888 C   0  0  0  0  0  0  0  0  0  0  0  0
  -21.6426   -6.2157   22.6013 C   0  0  0  0  0  0  0  0  0  0  0  0
  -21.7328   -4.9376   25.0793 C   0  0  0  0  0  0  0  0  0  0  0  0
  -22.0516   -4.8848   22.6851 C   0  0  0  0  0  0  0  0  0  0  0  0
  -24.7800  -11.3975   20.6801 C   0  0  0  0  0  0  0  0  0  0  0  0
  -26.1584  -12.9171   19.8890 C   0  0  0  0  0  0  0  0  0  0  0  0
  -21.7323  -20.7093   22.3776 C   0  0  0  0  0  0  0  0  0  0  0  0
  -22.3826  -25.2668   23.9860 C   0  0  0  0  0  0  0  0  0  1  0  0
  -25.8185  -10.9631   18.3675 C   0  0  0  0  0  0  0  0  0  0  0  0
  -21.5762  -24.2447   23.6752 C   0  0  0  0  0  0  0  0  0  0  0  0
  -22.1471  -22.8595   23.6167 C   0  0  0  0  0  0  0  0  0  0  0  0
  -24.9561  -32.5177   24.0686 C   0  0  0  0  0  0  0  0  0  0  0  0
  -27.2806  -31.3084   22.1563 C   0  0  0  0  0  0  0  0  0  0  0  0
  -28.5991  -28.5954   20.5601 C   0  0  0  0  0  0  0  0  0  0  0  0
  -24.4700  -17.4025   23.4577 C   0  0  0  0  0  0  0  0  0  0  0  0
  -25.7036  -37.4605   23.0354 C   0  0  0  0  0  0  0  0  0  0  0  0
  -25.7451  -30.5429   25.4228 C   0  0  0  0  0  0  0  0  0  0  0  0
  -25.2899  -29.8208   22.5915 C   0  0  0  0  0  0  0  0  0  0  0  0
  -25.6094  -36.1759   22.2161 C   0  0  0  0  0  0  0  0  0  0  0  0
  -27.5063  -15.5532   23.6531 C   0  0  0  0  0  0  0  0  0  0  0  0
  -24.3774  -35.3731   22.6217 C   0  0  0  0  0  0  0  0  0  0  0  0
  -27.2279  -14.3086   22.8072 C   0  0  0  0  0  0  0  0  0  0  0  0
  -26.2706  -15.9958   24.4346 C   0  0  0  0  0  0  0  0  0  0  0  0
  -24.7812  -14.9408   22.7800 C   0  0  0  0  0  0  0  0  0  0  0  0
  -24.4524  -34.9541   24.0949 C   0  0  1  0  0  0  0  0  0  0  0  0
  -26.0526  -31.5138   24.2869 C   0  0  1  0  0  0  0  0  0  0  0  0
  -25.9783  -14.4952   21.9244 C   0  0  2  0  0  0  0  0  0  0  0  0
  -30.4811  -27.9258   19.0412 C   0  0  0  0  0  0  0  0  0  0  0  0
  -25.8196  -32.5707   19.7937 C   0  0  0  0  0  0  0  0  0  0  0  0
  -27.1639  -31.1076   18.2704 C   0  0  0  0  0  0  0  0  0  0  0  0
  -28.3099  -32.7865   19.7162 C   0  0  0  0  0  0  0  0  0  0  0  0
  -29.7033  -26.7188   22.5646 C   0  0  0  0  0  0  0  0  0  0  0  0
  -27.3218  -30.7117   20.7702 C   0  0  1  0  0  0  0  0  0  0  0  0
  -30.0188  -28.0634   20.4834 C   0  0  2  0  0  0  0  0  0  0  0  0
  -27.1378  -31.7827   19.6583 C   0  0  0  0  0  0  0  0  0  0  0  0
  -24.8217  -12.3374   21.6282 N   0  0  0  0  0  0  0  0  0  0  0  0
  -25.6683  -13.2480   21.1180 N   0  0  0  0  0  0  0  0  0  0  0  0
  -26.2717  -30.8359   23.0076 N   0  0  0  0  0  0  0  0  0  0  0  0
  -25.1278  -16.1565   23.5329 N   0  0  0  0  0  0  0  0  0  0  0  0
  -27.0217  -13.7210   19.2324 N   0  0  0  0  0  0  0  0  0  0  0  0
  -25.1585   -9.7374   18.2047 N   0  0  0  0  0  0  0  0  0  0  0  0
  -23.4188  -17.4451   22.5424 N   0  0  0  0  0  0  0  0  0  0  0  0
  -21.4742  -22.0636   22.6997 N   0  0  0  0  0  0  0  0  0  0  0  0
  -25.3487  -33.8293   24.2554 N   0  0  0  0  0  0  0  0  0  0  0  0
  -28.5742  -29.9686   20.6828 N   0  0  0  0  0  0  0  0  0  0  0  0
  -30.1067  -26.7259   21.1348 N   0  3  0  0  0  0  0  0  0  0  0  0
  -26.5948  -11.3665   17.4686 O   0  0  0  0  0  0  0  0  0  0  0  0
  -23.0961  -22.5387   24.3239 O   0  0  0  0  0  0  0  0  0  0  0  0
  -23.8370  -32.1309   23.7526 O   0  0  0  0  0  0  0  0  0  0  0  0
  -28.1173  -32.1572   22.4744 O   0  0  0  0  0  0  0  0  0  0  0  0
  -27.6110  -27.8662   20.5119 O   0  0  0  0  0  0  0  0  0  0  0  0
  -24.8313  -18.3689   24.1340 O   0  0  0  0  0  0  0  0  0  0  0  0
  -20.2332  -24.4141   23.4063 O   0  0  0  0  0  0  0  0  0  0  0  0
  -21.5981   -6.8518   21.3721 O   0  0  0  0  0  0  0  0  0  0  0  0
  -21.9514  -26.5613   24.0641 O   0  0  0  0  0  0  0  0  0  1  0  0
  -21.7775   -4.3244   26.2694 F   0  0  0  0  0  0  0  0  0  0  0  0
  -22.4035   -4.2153   21.5788 F   0  0  0  0  0  0  0  0  0  0  0  0
  -20.7300  -19.9848   21.1932 S   0  0  0  0  0  0  0  0  0  0  0  0
  1  2  1  0  0  0  0
  1  5  2  0  0  0  0
  2  6  2  0  0  0  0
  3  8  2  0  0  0  0
  3 17  1  0  0  0  0
  4  9  1  0  0  0  0
  4 17  2  0  0  0  0
  5 19  1  0  0  0  0
  6 21  1  0  0  0  0
  7 10  2  0  0  0  0
  7 20  1  0  0  0  0
  8 24  1  0  0  0  0
  9 24  2  0  0  0  0
 10 25  1  0  0  0  0
 11 12  2  0  0  0  0
 11 26  1  0  0  0  0
 12 27  1  0  0  0  0
 13 22  1  0  0  0  0
 13 25  2  0  0  0  0
 14 23  1  0  0  0  0
 14 31  2  0  0  0  0
 15 27  2  0  0  0  0
 15 28  1  0  0  0  0
 16 23  2  0  0  0  0
 16 82  1  0  0  0  0
 17 29  1  0  0  0  0
 18 29  1  0  0  0  0
 18 30  2  0  0  0  0
 18 33  1  0  0  0  0
 19 21  2  0  0  0  0
 19 40  1  0  0  0  0
 20 22  2  0  0  0  0
 20 41  1  0  0  0  0
 21 49  1  0  0  0  0
 22 42  1  0  0  0  0
 23 66  1  0  0  0  0
 24 78  1  0  0  0  0
 25 79  1  0  0  0  0
 26 28  2  0  0  0  0
 26 78  1  0  0  0  0
 27 80  1  0  0  0  0
 28 81  1  0  0  0  0
 29 60  2  0  0  0  0
 30 61  1  0  0  0  0
 30 64  1  0  0  0  0
 31 67  1  0  0  0  0
 31 82  1  0  0  0  0
 32 34  2  0  0  0  0
 32 79  1  0  0  0  0
 33 65  1  0  0  0  0
 33 71  2  0  0  0  0
 34 35  1  0  0  0  0
 34 77  1  0  0  0  0
 35 67  1  0  0  0  0
 35 72  2  0  0  0  0
 36 50  1  0  0  0  0
 36 68  1  0  0  0  0
 36 73  2  0  0  0  0
 37 57  1  0  0  0  0
 37 62  1  0  0  0  0
 37 74  2  0  0  0  0
 38 58  1  0  0  0  0
 38 69  1  0  0  0  0
 38 75  2  0  0  0  0
 39 63  1  0  0  0  0
 39 66  1  0  0  0  0
 39 76  2  0  0  0  0
 40 43  1  0  0  0  0
 41 50  1  0  0  0  0
 42 62  1  0  0  0  0
 43 45  1  0  0  0  0
 44 46  1  0  0  0  0
 44 47  1  0  0  0  0
 45 49  1  0  0  0  0
 46 51  1  0  0  0  0
 47 63  1  0  0  0  0
 48 51  1  0  0  0  0
 48 63  1  0  0  0  0
 49 68  1  0  0  0  0
 50 62  1  0  0  0  0
 51 61  1  0  0  0  0
 52 58  1  0  0  0  0
 53 59  1  0  0  0  0
 54 59  1  0  0  0  0
 55 59  1  0  0  0  0
 56 70  1  0  0  0  0
 57 59  1  0  0  0  0
 57 69  1  0  0  0  0
 58 70  1  0  0  0  0
 60 61  1  0  0  0  0
M  CHG  1  70   1
M  ISO  4  32 101  39 100  66 100  79 101
M  END
> <Batch ID>
0156

> <Smiles>
CNC(C)C(=O)NC(C(=O)N1Cc2cc([101O:1][101CH2:1]C(=O)C(=O)Nc3cc([100NH:0][100C:0](=O)N4CCCC(n5nc(-c6ccc(Oc7ccc(F)cc7F)cc6)c(C(N)=O)c5N)C4)cs3)ccc2CC1C(=O)NC1CCCc2ccccc21)C(C)(C)C

> <Shape>
0.247

> <Color>
0.111

> <Negative vol penalty>
0.000

$$$$

  -OEChem-04052303393D

 85 94  0     1  0  0  0  0  0999 V2000
  -18.3175  -29.8171   25.3254 C   0  0  0  0  0  0  0  0  0  0  0  0
  -19.6335  -29.5753   25.7064 C   0  0  0  0  0  0  0  0  0  0  0  0
  -23.1247   -9.8090   20.1140 C   0  0  0  0  0  0  0  0  0  0  0  0
  -23.7658  -10.0865   22.4268 C   0  0  0  0  0  0  0  0  0  0  0  0
  -17.8184  -29.2547   24.1513 C   0  0  0  0  0  0  0  0  0  0  0  0
  -20.4508  -28.7700   24.9140 C   0  0  0  0  0  0  0  0  0  0  0  0
  -27.2868  -28.0115   22.9115 C   0  0  0  0  0  0  0  0  0  0  0  0
  -22.3806   -8.6798   20.4557 C   0  0  0  0  0  0  0  0  0  0  0  0
  -23.0217   -8.9572   22.7685 C   0  0  0  0  0  0  0  0  0  0  0  0
  -28.2915  -27.0466   22.8536 C   0  0  0  0  0  0  0  0  0  0  0  0
  -19.7751   -8.1815   23.2960 C   0  0  0  0  0  0  0  0  0  0  0  0
  -18.9595   -8.2618   24.4246 C   0  0  0  0  0  0  0  0  0  0  0  0
  -27.3451  -26.1928   20.8056 C   0  0  0  0  0  0  0  0  0  0  0  0
  -20.1809   -6.4396   25.4370 C   0  0  0  0  0  0  0  0  0  0  0  0
  -31.6658  -17.7807   21.4305 C   0  0  0  0  0  0  0  0  0  0  0  0
  -23.8174  -10.5123   21.0996 C   0  0  0  0  0  0  0  0  0  0  0  0
  -24.1394  -13.0130   20.7112 C   0  0  0  0  0  0  0  0  0  0  0  0
  -18.6329  -28.4499   23.3391 C   0  0  0  0  0  0  0  0  0  0  0  0
  -26.2958  -28.0675   21.9210 C   0  0  0  0  0  0  0  0  0  0  0  0
  -19.9617  -28.1952   23.7286 C   0  0  0  0  0  0  0  0  0  0  0  0
  -26.3304  -27.1610   20.8518 C   0  0  0  0  0  0  0  0  0  0  0  0
  -22.3291   -8.2539   21.7830 C   0  0  0  0  0  0  0  0  0  0  0  0
  -28.3191  -26.1352   21.8021 C   0  0  0  0  0  0  0  0  0  0  0  0
  -20.7936   -7.2301   23.2377 C   0  0  0  0  0  0  0  0  0  0  0  0
  -19.1624   -7.3909   25.4952 C   0  0  0  0  0  0  0  0  0  0  0  0
  -20.9965   -6.3592   24.3082 C   0  0  0  0  0  0  0  0  0  0  0  0
  -31.7083  -19.1069   21.9497 C   0  0  0  0  0  0  0  0  0  0  0  0
  -24.5866  -11.6786   20.7471 C   0  0  0  0  0  0  0  0  0  0  0  0
  -30.5241  -19.4632   22.5565 C   0  0  0  0  0  0  0  0  0  0  0  0
  -25.2412  -13.7339   20.3202 C   0  0  0  0  0  0  0  0  0  0  0  0
  -30.4506  -17.1738   21.6606 C   0  0  0  0  0  0  0  0  0  0  0  0
  -29.4746  -23.0847   22.9204 C   0  0  0  0  0  0  0  0  0  0  0  0
  -22.8440  -13.5526   21.0051 C   0  0  0  0  0  0  0  0  0  0  0  0
  -30.2747  -20.7733   23.1841 C   0  0  0  0  0  0  0  0  0  0  0  0
  -23.1343  -27.7396   21.8901 C   0  0  0  0  0  0  0  0  0  0  0  0
  -23.4632  -28.6249   18.7868 C   0  0  0  0  0  0  0  0  0  0  0  0
  -25.4643  -28.8344   16.0303 C   0  0  0  0  0  0  0  0  0  0  0  0
  -30.6804  -14.8787   20.6476 C   0  0  0  0  0  0  0  0  0  0  0  0
  -18.0348  -27.8253   22.1035 C   0  0  0  0  0  0  0  0  0  0  0  0
  -25.2343  -29.1314   21.9836 C   0  0  0  0  0  0  0  0  0  0  0  0
  -25.3014  -27.1918   19.7524 C   0  0  0  0  0  0  0  0  0  0  0  0
  -19.0778  -27.2892   21.1262 C   0  0  0  0  0  0  0  0  0  0  0  0
  -29.7133  -12.1962   18.5155 C   0  0  0  0  0  0  0  0  0  0  0  0
  -20.1360  -26.4778   21.8669 C   0  0  0  0  0  0  0  0  0  0  0  0
  -28.2565  -11.9321   18.9031 C   0  0  0  0  0  0  0  0  0  0  0  0
  -29.4150  -23.0605   20.5575 C   0  0  0  0  0  0  0  0  0  0  0  0
  -30.5632  -12.5733   19.7276 C   0  0  0  0  0  0  0  0  0  0  0  0
  -29.4489  -21.6113   21.0286 C   0  0  0  0  0  0  0  0  0  0  0  0
  -28.5807  -13.4186   20.9211 C   0  0  0  0  0  0  0  0  0  0  0  0
  -20.8867  -27.3472   22.8828 C   0  0  1  0  0  0  0  0  0  0  0  0
  -28.8925  -23.8484   21.7581 C   0  0  2  0  0  0  0  0  0  1  0  0
  -23.9790  -28.7701   21.1956 C   0  0  1  0  0  0  0  0  0  0  0  0
  -27.6714  -13.0984   19.7235 C   0  0  2  0  0  0  0  0  0  0  0  0
  -25.4417  -29.5690   13.6308 C   0  0  0  0  0  0  0  0  0  0  0  0
  -21.9016  -26.1137   18.0352 C   0  0  0  0  0  0  0  0  0  0  0  0
  -22.7204  -26.3920   15.6857 C   0  0  0  0  0  0  0  0  0  0  0  0
  -21.2910  -28.1535   16.7234 C   0  0  0  0  0  0  0  0  0  0  0  0
  -27.5813  -30.8473   16.5057 C   0  0  0  0  0  0  0  0  0  0  0  0
  -23.6879  -27.8946   17.4848 C   0  0  1  0  0  0  0  0  0  0  0  0
  -25.7352  -29.9757   15.0666 C   0  0  2  0  0  0  0  0  0  0  0  0
  -22.4186  -27.1364   17.0038 C   0  0  0  0  0  0  0  0  0  0  0  0
  -25.8722  -11.5562   20.4060 N   0  0  0  0  0  0  0  0  0  0  0  0
  -26.2422  -12.8230   20.1519 N   0  0  0  0  0  0  0  0  0  0  0  0
  -29.7731  -21.7560   22.4575 N   0  0  0  0  0  0  0  0  0  0  0  0
  -24.2802  -28.2466   19.8616 N   0  0  0  0  0  0  0  0  0  0  0  0
  -29.9497  -13.6875   20.4536 N   0  0  0  0  0  0  0  0  0  0  0  0
  -25.4416  -15.0518   20.1073 N   0  0  0  0  0  0  0  0  0  0  0  0
  -21.8253  -12.6713   21.3924 N   0  0  0  0  0  0  0  0  0  0  0  0
  -29.9827  -15.8797   21.3226 N   0  0  0  0  0  0  0  0  0  0  0  0
  -21.8641  -28.1779   22.2126 N   0  0  0  0  0  0  0  0  0  0  0  0
  -24.1841  -28.8889   16.5395 N   0  0  0  0  0  0  0  0  0  0  0  0
  -30.5568  -20.9449   24.4722 N   0  3  0  0  0  0  0  0  0  0  0  0
  -27.1614  -30.3991   15.1529 N   0  3  0  0  0  0  0  0  0  0  0  0
  -29.6719  -23.4673   24.0592 O   0  0  0  0  0  0  0  0  0  0  0  0
  -22.5927  -14.7779   20.9107 O   0  0  0  0  0  0  0  0  0  0  0  0
  -23.5999  -26.6287   22.1153 O   0  0  0  0  0  0  0  0  0  0  0  0
  -22.5996  -29.5037   18.8460 O   0  0  0  0  0  0  0  0  0  0  0  0
  -26.3032  -27.9781   16.3012 O   0  0  0  0  0  0  0  0  0  0  0  0
  -31.8303  -15.0115   20.2207 O   0  0  0  0  0  0  0  0  0  0  0  0
  -21.6029   -7.1521   22.1168 O   0  0  0  0  0  0  0  0  0  0  0  0
  -29.2982  -25.1919   21.7435 O   0  0  0  0  0  0  0  0  0  1  0  0
  -18.3801   -7.4692   26.5796 F   0  0  0  0  0  0  0  0  0  0  0  0
  -21.9741   -5.4440   24.2585 F   0  0  0  0  0  0  0  0  0  0  0  0
  -32.7746  -19.9043   21.8555 F   0  0  0  0  0  0  0  0  0  0  0  0
  -29.3676  -18.2016   22.4990 S   0  0  0  0  0  0  0  0  0  0  0  0
  1  2  1  0  0  0  0
  1  5  2  0  0  0  0
  2  6  2  0  0  0  0
  3  8  2  0  0  0  0
  3 16  1  0  0  0  0
  4  9  1  0  0  0  0
  4 16  2  0  0  0  0
  5 18  1  0  0  0  0
  6 20  1  0  0  0  0
  7 10  2  0  0  0  0
  7 19  1  0  0  0  0
  8 22  1  0  0  0  0
  9 22  2  0  0  0  0
 10 23  1  0  0  0  0
 11 12  2  0  0  0  0
 11 24  1  0  0  0  0
 12 25  1  0  0  0  0
 13 21  1  0  0  0  0
 13 23  2  0  0  0  0
 14 25  2  0  0  0  0
 14 26  1  0  0  0  0
 15 27  1  0  0  0  0
 15 31  2  0  0  0  0
 16 28  1  0  0  0  0
 17 28  1  0  0  0  0
 17 30  2  0  0  0  0
 17 33  1  0  0  0  0
 18 20  2  0  0  0  0
 18 39  1  0  0  0  0
 19 21  2  0  0  0  0
 19 40  1  0  0  0  0
 20 50  1  0  0  0  0
 21 41  1  0  0  0  0
 22 80  1  0  0  0  0
 23 81  1  0  0  0  0
 24 26  2  0  0  0  0
 24 80  1  0  0  0  0
 25 82  1  0  0  0  0
 26 83  1  0  0  0  0
 27 29  2  0  0  0  0
 27 84  1  0  0  0  0
 28 62  2  0  0  0  0
 29 34  1  0  0  0  0
 29 85  1  0  0  0  0
 30 63  1  0  0  0  0
 30 67  1  0  0  0  0
 31 69  1  0  0  0  0
 31 85  1  0  0  0  0
 32 51  1  0  0  0  0
 32 64  1  0  0  0  0
 32 74  2  0  0  0  0
 33 68  1  0  0  0  0
 33 75  2  0  0  0  0
 34 64  1  0  0  0  0
 34 72  2  0  0  0  0
 35 52  1  0  0  0  0
 35 70  1  0  0  0  0
 35 76  2  0  0  0  0
 36 59  1  0  0  0  0
 36 65  1  0  0  0  0
 36 77  2  0  0  0  0
 37 60  1  0  0  0  0
 37 71  1  0  0  0  0
 37 78  2  0  0  0  0
 38 66  1  0  0  0  0
 38 69  1  0  0  0  0
 38 79  2  0  0  0  0
 39 42  1  0  0  0  0
 40 52  1  0  0  0  0
 41 65  1  0  0  0  0
 42 44  1  0  0  0  0
 43 45  1  0  0  0  0
 43 47  1  0  0  0  0
 44 50  1  0  0  0  0
 45 53  1  0  0  0  0
 46 48  1  0  0  0  0
 46 51  1  0  0  0  0
 47 66  1  0  0  0  0
 48 64  1  0  0  0  0
 49 53  1  0  0  0  0
 49 66  1  0  0  0  0
 50 70  1  0  0  0  0
 51 81  1  0  0  0  0
 52 65  1  0  0  0  0
 53 63  1  0  0  0  0
 54 60  1  0  0  0  0
 55 61  1  0  0  0  0
 56 61  1  0  0  0  0
 57 61  1  0  0  0  0
 58 73  1  0  0  0  0
 59 61  1  0  0  0  0
 59 71  1  0  0  0  0
 60 73  1  0  0  0  0
 62 63  1  0  0  0  0
M  CHG  2  72   1  73   1
M  ISO  4  38 100  51 101  69 100  81 101
M  END
> <Batch ID>
0156

> <Smiles>
CNC(C)C(=O)NC(C(=O)N1Cc2cc([101O:1][101CH:1]3CCN(C(=N)c4sc([100NH:0][100C:0](=O)N5CCCC(n6nc(-c7ccc(Oc8ccc(F)cc8F)cc7)c(C(N)=O)c6N)C5)cc4F)C3=O)ccc2CC1C(=O)NC1CCCc2ccccc21)C(C)(C)C

> <Shape>
0.302

> <Color>
0.215

> <Negative vol penalty>
0.000

$$$$

  -OEChem-04052303393D

 83 91  0     1  0  0  0  0  0999 V2000
  -16.7963  -30.5840   23.9511 C   0  0  0  0  0  0  0  0  0  0  0  0
  -18.0039  -31.0443   24.4661 C   0  0  0  0  0  0  0  0  0  0  0  0
  -27.8043  -11.7980   21.5109 C   0  0  0  0  0  0  0  0  0  0  0  0
  -27.3264  -13.4053   19.7716 C   0  0  0  0  0  0  0  0  0  0  0  0
  -16.7668  -29.4254   23.1761 C   0  0  0  0  0  0  0  0  0  0  0  0
  -19.1825  -30.3457   24.2073 C   0  0  0  0  0  0  0  0  0  0  0  0
  -26.1899  -31.4101   23.1678 C   0  0  0  0  0  0  0  0  0  0  0  0
  -26.8173  -10.9539   21.0021 C   0  0  0  0  0  0  0  0  0  0  0  0
  -26.3395  -12.5611   19.2627 C   0  0  0  0  0  0  0  0  0  0  0  0
  -27.4272  -30.9707   23.6365 C   0  0  0  0  0  0  0  0  0  0  0  0
  -24.1761   -8.5346   20.3743 C   0  0  0  0  0  0  0  0  0  0  0  0
  -23.2974   -7.9414   21.2808 C   0  0  0  0  0  0  0  0  0  0  0  0
  -27.2668  -29.0255   22.2189 C   0  0  0  0  0  0  0  0  0  0  0  0
  -28.2785  -22.6316   23.2575 C   0  0  0  0  0  0  0  0  0  0  0  0
  -22.5658  -10.1279   22.0025 C   0  0  0  0  0  0  0  0  0  0  0  0
  -28.0354  -21.6408   21.1691 C   0  0  0  0  0  0  0  0  0  0  0  0
  -28.0588  -13.0238   20.8957 C   0  0  0  0  0  0  0  0  0  0  0  0
  -30.4406  -13.9208   21.0690 C   0  0  0  0  0  0  0  0  0  0  0  0
  -17.9471  -28.7175   22.8996 C   0  0  0  0  0  0  0  0  0  0  0  0
  -25.4755  -30.6537   22.2276 C   0  0  0  0  0  0  0  0  0  0  0  0
  -19.1686  -29.1757   23.4290 C   0  0  0  0  0  0  0  0  0  0  0  0
  -26.0218  -29.4587   21.7379 C   0  0  0  0  0  0  0  0  0  0  0  0
  -28.2545  -21.4184   22.5108 C   0  0  0  0  0  0  0  0  0  0  0  0
  -26.0849  -11.3354   19.8780 C   0  0  0  0  0  0  0  0  0  0  0  0
  -27.9646  -29.7769   23.1642 C   0  0  0  0  0  0  0  0  0  0  0  0
  -24.2497   -9.9245   20.2820 C   0  0  0  0  0  0  0  0  0  0  0  0
  -22.4923   -8.7380   22.0948 C   0  0  0  0  0  0  0  0  0  0  0  0
  -23.4445  -10.7211   21.0961 C   0  0  0  0  0  0  0  0  0  0  0  0
  -29.0779  -13.8964   21.4212 C   0  0  0  0  0  0  0  0  0  0  0  0
  -30.9776  -14.9199   21.8435 C   0  0  0  0  0  0  0  0  0  0  0  0
  -28.0770  -23.7353   22.4579 C   0  0  0  0  0  0  0  0  0  0  0  0
  -31.1570  -13.1126   20.1260 C   0  0  0  0  0  0  0  0  0  0  0  0
  -22.6545  -29.1889   22.2039 C   0  0  0  0  0  0  0  0  0  0  0  0
  -23.3800  -28.6850   19.0826 C   0  0  0  0  0  0  0  0  0  0  0  0
  -28.1782  -25.6990   24.0261 C   0  0  0  0  0  0  0  0  0  0  0  0
  -25.7827  -28.4045   16.6754 C   0  0  0  0  0  0  0  0  0  0  0  0
  -28.6582  -19.7986   24.3975 C   0  0  0  0  0  0  0  0  0  0  0  0
  -17.8585  -27.4441   22.0963 C   0  0  0  0  0  0  0  0  0  0  0  0
  -24.1543  -31.1548   21.7120 C   0  0  0  0  0  0  0  0  0  0  0  0
  -25.3042  -28.6201   20.7132 C   0  0  0  0  0  0  0  0  0  0  0  0
  -19.2053  -26.9697   21.5563 C   0  0  0  0  0  0  0  0  0  0  0  0
  -30.3662  -17.1421   26.0415 C   0  0  0  0  0  0  0  0  0  0  0  0
  -20.2678  -27.0240   22.6495 C   0  0  0  0  0  0  0  0  0  0  0  0
  -30.3590  -16.0125   25.0089 C   0  0  0  0  0  0  0  0  0  0  0  0
  -29.0705  -17.9505   26.0067 C   0  0  0  0  0  0  0  0  0  0  0  0
  -28.6889  -17.3373   23.6514 C   0  0  0  0  0  0  0  0  0  0  0  0
  -20.4719  -28.4592   23.1496 C   0  0  1  0  0  0  0  0  0  0  0  0
  -23.2773  -30.0461   21.1385 C   0  0  1  0  0  0  0  0  0  0  0  0
  -29.9998  -16.5354   23.6042 C   0  0  2  0  0  0  0  0  0  0  0  0
  -26.0718  -27.9523   14.2240 C   0  0  0  0  0  0  0  0  0  0  0  0
  -22.8665  -25.7173   19.5720 C   0  0  0  0  0  0  0  0  0  0  0  0
  -24.0628  -25.2281   17.4278 C   0  0  0  0  0  0  0  0  0  0  0  0
  -21.9713  -26.5875   17.4050 C   0  0  0  0  0  0  0  0  0  0  0  0
  -29.9805  -27.5149   22.3179 C   0  0  0  0  0  0  0  0  0  0  0  0
  -30.3901  -27.6520   24.7834 C   0  0  0  0  0  0  0  0  0  0  0  0
  -27.0238  -31.0515   16.2151 C   0  0  0  0  0  0  0  0  0  0  0  0
  -28.0566  -27.2162   23.9646 C   0  0  0  0  0  0  0  0  0  0  0  0
  -24.1004  -27.6040   18.3135 C   0  0  1  0  0  0  0  0  0  0  0  0
  -25.9001  -29.0204   15.2928 C   0  0  2  0  0  0  0  0  0  0  0  0
  -23.2631  -26.2988   18.2003 C   0  0  0  0  0  0  0  0  0  0  0  0
  -29.3841  -27.9349   23.6623 C   0  0  0  0  0  0  0  0  0  1  0  0
  -28.7683  -14.8075   22.3475 N   0  0  0  0  0  0  0  0  0  0  0  0
  -29.9442  -15.4137   22.5840 N   0  0  0  0  0  0  0  0  0  0  0  0
  -24.0127  -29.1491   20.2446 N   0  0  0  0  0  0  0  0  0  0  0  0
  -28.7968  -18.4166   24.6455 N   0  0  0  0  0  0  0  0  0  0  0  0
  -32.2283  -15.4152   21.9567 N   0  0  0  0  0  0  0  0  0  0  0  0
  -30.4519  -12.1321   19.4147 N   0  0  0  0  0  0  0  0  0  0  0  0
  -28.4323  -20.1246   23.0606 N   0  0  0  0  0  0  0  0  0  0  0  0
  -28.0255  -25.1126   22.7769 N   0  0  0  0  0  0  0  0  0  0  0  0
  -21.2729  -29.2130   22.2091 N   0  0  0  0  0  0  0  0  0  0  0  0
  -24.4672  -28.1919   17.0297 N   0  0  0  0  0  0  0  0  0  0  0  0
  -27.0727  -29.9383   15.2326 N   0  3  0  0  0  0  0  0  0  0  0  0
  -32.3893  -13.2446   19.9321 O   0  0  0  0  0  0  0  0  0  0  0  0
  -23.3742  -28.5517   22.9640 O   0  0  0  0  0  0  0  0  0  0  0  0
  -22.2992  -29.1071   18.6639 O   0  0  0  0  0  0  0  0  0  0  0  0
  -28.3927  -25.1374   25.0970 O   0  0  0  0  0  0  0  0  0  0  0  0
  -26.7603  -28.1352   17.3699 O   0  0  0  0  0  0  0  0  0  0  0  0
  -28.7613  -20.6334   25.2999 O   0  0  0  0  0  0  0  0  0  0  0  0
  -25.1219  -10.5119   19.3810 O   0  0  0  0  0  0  0  0  0  0  0  0
  -29.1718  -29.3454   23.6206 O   0  0  0  0  0  0  0  0  0  1  0  0
  -21.6474   -8.1682   22.9642 F   0  0  0  0  0  0  0  0  0  0  0  0
  -23.5099  -12.0569   21.0111 F   0  0  0  0  0  0  0  0  0  0  0  0
  -27.8598  -23.3068   20.8143 S   0  0  0  0  0  0  0  0  0  0  0  0
  1  2  1  0  0  0  0
  1  5  2  0  0  0  0
  2  6  2  0  0  0  0
  3  8  2  0  0  0  0
  3 17  1  0  0  0  0
  4  9  1  0  0  0  0
  4 17  2  0  0  0  0
  5 19  1  0  0  0  0
  6 21  1  0  0  0  0
  7 10  2  0  0  0  0
  7 20  1  0  0  0  0
  8 24  1  0  0  0  0
  9 24  2  0  0  0  0
 10 25  1  0  0  0  0
 11 12  2  0  0  0  0
 11 26  1  0  0  0  0
 12 27  1  0  0  0  0
 13 22  1  0  0  0  0
 13 25  2  0  0  0  0
 14 23  1  0  0  0  0
 14 31  2  0  0  0  0
 15 27  2  0  0  0  0
 15 28  1  0  0  0  0
 16 23  2  0  0  0  0
 16 83  1  0  0  0  0
 17 29  1  0  0  0  0
 18 29  1  0  0  0  0
 18 30  2  0  0  0  0
 18 32  1  0  0  0  0
 19 21  2  0  0  0  0
 19 38  1  0  0  0  0
 20 22  2  0  0  0  0
 20 39  1  0  0  0  0
 21 47  1  0  0  0  0
 22 40  1  0  0  0  0
 23 68  1  0  0  0  0
 24 79  1  0  0  0  0
 25 80  1  0  0  0  0
 26 28  2  0  0  0  0
 26 79  1  0  0  0  0
 27 81  1  0  0  0  0
 28 82  1  0  0  0  0
 29 62  2  0  0  0  0
 30 63  1  0  0  0  0
 30 66  1  0  0  0  0
 31 69  1  0  0  0  0
 31 83  1  0  0  0  0
 32 67  1  0  0  0  0
 32 73  2  0  0  0  0
 33 48  1  0  0  0  0
 33 70  1  0  0  0  0
 33 74  2  0  0  0  0
 34 58  1  0  0  0  0
 34 64  1  0  0  0  0
 34 75  2  0  0  0  0
 35 57  1  0  0  0  0
 35 69  1  0  0  0  0
 35 76  2  0  0  0  0
 36 59  1  0  0  0  0
 36 71  1  0  0  0  0
 36 77  2  0  0  0  0
 37 65  1  0  0  0  0
 37 68  1  0  0  0  0
 37 78  2  0  0  0  0
 38 41  1  0  0  0  0
 39 48  1  0  0  0  0
 40 64  1  0  0  0  0
 41 43  1  0  0  0  0
 42 44  1  0  0  0  0
 42 45  1  0  0  0  0
 43 47  1  0  0  0  0
 44 49  1  0  0  0  0
 45 65  1  0  0  0  0
 46 49  1  0  0  0  0
 46 65  1  0  0  0  0
 47 70  1  0  0  0  0
 48 64  1  0  0  0  0
 49 63  1  0  0  0  0
 50 59  1  0  0  0  0
 51 60  1  0  0  0  0
 52 60  1  0  0  0  0
 53 60  1  0  0  0  0
 54 61  1  0  0  0  0
 55 61  1  0  0  0  0
 56 72  1  0  0  0  0
 57 61  1  0  0  0  0
 58 60  1  0  0  0  0
 58 71  1  0  0  0  0
 59 72  1  0  0  0  0
 61 80  1  0  0  0  0
 62 63  1  0  0  0  0
M  CHG  1  72   1
M  ISO  4  37 100  61 101  68 100  80 101
M  END
> <Batch ID>
0156

> <Smiles>
CNC(C)C(=O)NC(C(=O)N1Cc2cc([101O:1][101C:1](C)(C)CC(=O)Nc3cc([100NH:0][100C:0](=O)N4CCCC(n5nc(-c6ccc(Oc7ccc(F)cc7F)cc6)c(C(N)=O)c5N)C4)cs3)ccc2CC1C(=O)NC1CCCc2ccccc21)C(C)(C)C

> <Shape>
0.275

> <Color>
0.103

> <Negative vol penalty>
0.000

$$$$

  -OEChem-04052303393D

 83 91  0     1  0  0  0  0  0999 V2000
  -31.3847  -35.5258   15.7283 C   0  0  0  0  0  0  0  0  0  0  0  0
  -31.3281  -34.2550   16.2914 C   0  0  0  0  0  0  0  0  0  0  0  0
  -24.3257   -9.4608   20.1605 C   0  0  0  0  0  0  0  0  0  0  0  0
  -24.5905   -9.9705   22.5072 C   0  0  0  0  0  0  0  0  0  0  0  0
  -30.9025  -36.6241   16.4391 C   0  0  0  0  0  0  0  0  0  0  0  0
  -30.7901  -34.0818   17.5661 C   0  0  0  0  0  0  0  0  0  0  0  0
  -27.6429  -30.1228   17.8252 C   0  0  0  0  0  0  0  0  0  0  0  0
  -24.0118   -8.1405   20.4827 C   0  0  0  0  0  0  0  0  0  0  0  0
  -24.2766   -8.6502   22.8294 C   0  0  0  0  0  0  0  0  0  0  0  0
  -28.2189  -28.8556   17.9040 C   0  0  0  0  0  0  0  0  0  0  0  0
  -21.3295   -6.4241   21.6194 C   0  0  0  0  0  0  0  0  0  0  0  0
  -20.2411   -5.8399   20.9716 C   0  0  0  0  0  0  0  0  0  0  0  0
  -27.8427  -28.8394   20.2867 C   0  0  0  0  0  0  0  0  0  0  0  0
  -21.6960   -4.1401   20.0599 C   0  0  0  0  0  0  0  0  0  0  0  0
  -26.8028  -21.1191   21.7121 C   0  0  0  0  0  0  0  0  0  0  0  0
  -24.6151  -10.3758   21.1727 C   0  0  0  0  0  0  0  0  0  0  0  0
  -24.0454  -12.8184   20.7073 C   0  0  0  0  0  0  0  0  0  0  0  0
  -30.3496  -36.4629   17.7193 C   0  0  0  0  0  0  0  0  0  0  0  0
  -27.1716  -30.7635   18.9802 C   0  0  0  0  0  0  0  0  0  0  0  0
  -30.3013  -35.1791   18.2953 C   0  0  0  0  0  0  0  0  0  0  0  0
  -27.2588  -30.1136   20.2196 C   0  0  0  0  0  0  0  0  0  0  0  0
  -28.5958  -19.9785   20.7706 C   0  0  0  0  0  0  0  0  0  0  0  0
  -27.8958  -21.2147   20.8792 C   0  0  0  0  0  0  0  0  0  0  0  0
  -23.9872   -7.7352   21.8171 C   0  0  0  0  0  0  0  0  0  0  0  0
  -28.3215  -28.2149   19.1353 C   0  0  0  0  0  0  0  0  0  0  0  0
  -22.6012   -5.8663   21.4875 C   0  0  0  0  0  0  0  0  0  0  0  0
  -20.4243   -4.6979   20.1919 C   0  0  0  0  0  0  0  0  0  0  0  0
  -22.7845   -4.7243   20.7078 C   0  0  0  0  0  0  0  0  0  0  0  0
  -24.9400  -11.7397   20.8405 C   0  0  0  0  0  0  0  0  0  0  0  0
  -24.8437  -13.8888   20.3856 C   0  0  0  0  0  0  0  0  0  0  0  0
  -28.0112  -18.9850   21.5250 C   0  0  0  0  0  0  0  0  0  0  0  0
  -22.6202  -12.8501   20.8608 C   0  0  0  0  0  0  0  0  0  0  0  0
  -28.5074  -24.6662   19.8172 C   0  0  0  0  0  0  0  0  0  0  0  0
  -28.0457  -23.6228   20.7254 C   0  0  0  0  0  0  0  0  0  0  0  0
  -27.9068  -33.4485   20.5144 C   0  0  0  0  0  0  0  0  0  0  0  0
  -25.3308  -32.6614   22.3219 C   0  0  0  0  0  0  0  0  0  0  0  0
  -23.2344  -30.2272   23.4737 C   0  0  0  0  0  0  0  0  0  0  0  0
  -29.4369  -16.9425   21.1478 C   0  0  0  0  0  0  0  0  0  0  0  0
  -29.8843  -37.6865   18.4683 C   0  0  0  0  0  0  0  0  0  0  0  0
  -26.5286  -32.1192   18.8745 C   0  0  0  0  0  0  0  0  0  0  0  0
  -26.7495  -30.7498   21.4862 C   0  0  0  0  0  0  0  0  0  0  0  0
  -28.9871  -37.3660   19.6610 C   0  0  0  0  0  0  0  0  0  0  0  0
  -29.7240  -14.0761   19.0554 C   0  0  0  0  0  0  0  0  0  0  0  0
  -29.5859  -36.2346   20.4907 C   0  0  0  0  0  0  0  0  0  0  0  0
  -28.4314  -13.3014   19.3224 C   0  0  0  0  0  0  0  0  0  0  0  0
  -30.2550  -14.7465   20.3212 C   0  0  0  0  0  0  0  0  0  0  0  0
  -27.9934  -14.8188   21.2954 C   0  0  0  0  0  0  0  0  0  0  0  0
  -29.7023  -34.9473   19.6655 C   0  0  1  0  0  0  0  0  0  0  0  0
  -26.5489  -32.8941   20.1884 C   0  0  1  0  0  0  0  0  0  0  0  0
  -27.3852  -14.1798   20.0362 C   0  0  2  0  0  0  0  0  0  0  0  0
  -21.2460  -29.8838   24.9655 C   0  0  0  0  0  0  0  0  0  0  0  0
  -27.1283  -32.9224   24.7736 C   0  0  0  0  0  0  0  0  0  0  0  0
  -25.4005  -31.6741   26.0868 C   0  0  0  0  0  0  0  0  0  0  0  0
  -24.8329  -33.8740   25.0568 C   0  0  0  0  0  0  0  0  0  0  0  0
  -21.5842  -29.2141   21.2355 C   0  0  0  0  0  0  0  0  0  0  0  0
  -28.4128  -26.1161   20.2500 C   0  0  0  0  0  0  0  0  0  1  0  0
  -25.1118  -31.8459   23.5732 C   0  0  1  0  0  0  0  0  0  0  0  0
  -21.7199  -30.1535   23.5459 C   0  0  2  0  0  0  0  0  0  0  0  0
  -25.6298  -32.5677   24.8492 C   0  0  0  0  0  0  0  0  0  0  0  0
  -26.2095  -12.0925   20.6211 N   0  0  0  0  0  0  0  0  0  0  0  0
  -26.1183  -13.4049   20.3468 N   0  0  0  0  0  0  0  0  0  0  0  0
  -26.1348  -32.0787   21.3320 N   0  0  0  0  0  0  0  0  0  0  0  0
  -29.2107  -15.5653   20.9408 N   0  0  0  0  0  0  0  0  0  0  0  0
  -29.7061  -19.7997   20.0148 N   0  0  0  0  0  0  0  0  0  0  0  0
  -24.5727  -15.1873   20.1348 N   0  0  0  0  0  0  0  0  0  0  0  0
  -21.9574  -11.6608   21.1932 N   0  0  0  0  0  0  0  0  0  0  0  0
  -27.5618  -24.0216   21.8988 N   0  0  0  0  0  0  0  0  0  0  0  0
  -28.3606  -17.6248   21.7141 N   0  0  0  0  0  0  0  0  0  0  0  0
  -28.4122  -34.3014   19.5518 N   0  0  0  0  0  0  0  0  0  0  0  0
  -23.6896  -31.5221   23.6057 N   0  0  0  0  0  0  0  0  0  0  0  0
  -28.2298  -22.3863   20.2505 N   0  3  0  0  0  0  0  0  0  0  0  0
  -21.2118  -29.0635   22.6657 N   0  3  0  0  0  0  0  0  0  0  0  0
  -21.9525  -13.8985   20.6916 O   0  0  0  0  0  0  0  0  0  0  0  0
  -28.9653  -24.3636   18.7159 O   0  0  0  0  0  0  0  0  0  0  0  0
  -28.4549  -33.1274   21.5624 O   0  0  0  0  0  0  0  0  0  0  0  0
  -24.8020  -33.7715   22.2232 O   0  0  0  0  0  0  0  0  0  0  0  0
  -23.9430  -29.2349   23.3196 O   0  0  0  0  0  0  0  0  0  0  0  0
  -30.4965  -17.4826   20.8200 O   0  0  0  0  0  0  0  0  0  0  0  0
  -23.6807   -6.4470   22.1319 O   0  0  0  0  0  0  0  0  0  0  0  0
  -28.8839  -26.9783   19.2151 O   0  0  0  0  0  0  0  0  0  1  0  0
  -19.3787   -4.1362   19.5711 F   0  0  0  0  0  0  0  0  0  0  0  0
  -24.0036   -4.1832   20.5782 F   0  0  0  0  0  0  0  0  0  0  0  0
  -26.6240  -19.5437   22.3592 S   0  0  0  0  0  0  0  0  0  0  0  0
  1  2  1  0  0  0  0
  1  5  2  0  0  0  0
  2  6  2  0  0  0  0
  3  8  2  0  0  0  0
  3 16  1  0  0  0  0
  4  9  1  0  0  0  0
  4 16  2  0  0  0  0
  5 18  1  0  0  0  0
  6 20  1  0  0  0  0
  7 10  2  0  0  0  0
  7 19  1  0  0  0  0
  8 24  1  0  0  0  0
  9 24  2  0  0  0  0
 10 25  1  0  0  0  0
 11 12  2  0  0  0  0
 11 26  1  0  0  0  0
 12 27  1  0  0  0  0
 13 21  1  0  0  0  0
 13 25  2  0  0  0  0
 14 27  2  0  0  0  0
 14 28  1  0  0  0  0
 15 23  2  0  0  0  0
 15 83  1  0  0  0  0
 16 29  1  0  0  0  0
 17 29  1  0  0  0  0
 17 30  2  0  0  0  0
 17 32  1  0  0  0  0
 18 20  2  0  0  0  0
 18 39  1  0  0  0  0
 19 21  2  0  0  0  0
 19 40  1  0  0  0  0
 20 48  1  0  0  0  0
 21 41  1  0  0  0  0
 22 23  1  0  0  0  0
 22 31  2  0  0  0  0
 22 64  1  0  0  0  0
 23 71  1  0  0  0  0
 24 79  1  0  0  0  0
 25 80  1  0  0  0  0
 26 28  2  0  0  0  0
 26 79  1  0  0  0  0
 27 81  1  0  0  0  0
 28 82  1  0  0  0  0
 29 60  2  0  0  0  0
 30 61  1  0  0  0  0
 30 65  1  0  0  0  0
 31 68  1  0  0  0  0
 31 83  1  0  0  0  0
 32 66  1  0  0  0  0
 32 73  2  0  0  0  0
 33 34  1  0  0  0  0
 33 56  1  0  0  0  0
 33 74  2  0  0  0  0
 34 67  1  0  0  0  0
 34 71  2  0  0  0  0
 35 49  1  0  0  0  0
 35 69  1  0  0  0  0
 35 75  2  0  0  0  0
 36 57  1  0  0  0  0
 36 62  1  0  0  0  0
 36 76  2  0  0  0  0
 37 58  1  0  0  0  0
 37 70  1  0  0  0  0
 37 77  2  0  0  0  0
 38 63  1  0  0  0  0
 38 68  1  0  0  0  0
 38 78  2  0  0  0  0
 39 42  1  0  0  0  0
 40 49  1  0  0  0  0
 41 62  1  0  0  0  0
 42 44  1  0  0  0  0
 43 45  1  0  0  0  0
 43 46  1  0  0  0  0
 44 48  1  0  0  0  0
 45 50  1  0  0  0  0
 46 63  1  0  0  0  0
 47 50  1  0  0  0  0
 47 63  1  0  0  0  0
 48 69  1  0  0  0  0
 49 62  1  0  0  0  0
 50 61  1  0  0  0  0
 51 58  1  0  0  0  0
 52 59  1  0  0  0  0
 53 59  1  0  0  0  0
 54 59  1  0  0  0  0
 55 72  1  0  0  0  0
 56 80  1  0  0  0  0
 57 59  1  0  0  0  0
 57 70  1  0  0  0  0
 58 72  1  0  0  0  0
 60 61  1  0  0  0  0
M  CHG  2  71   1  72   1
M  ISO  4  38 100  56 101  68 100  80 101
M  END
> <Batch ID>
0156

> <Smiles>
CNC(C)C(=O)NC(C(=O)N1Cc2cc([101O:1][101CH2:1]C(=O)C(=N)Nc3csc([100NH:0][100C:0](=O)N4CCCC(n5nc(-c6ccc(Oc7ccc(F)cc7F)cc6)c(C(N)=O)c5N)C4)c3N)ccc2CC1C(=O)NC1CCCc2ccccc21)C(C)(C)C

> <Shape>
0.279

> <Color>
0.128

> <Negative vol penalty>
0.000

$$$$

  -OEChem-04052303393D

 82 90  0     1  0  0  0  0  0999 V2000
  -30.8972  -11.9196   19.7295 C   0  0  0  0  0  0  0  0  0  0  0  0
  -30.6308  -13.2527   20.0250 C   0  0  0  0  0  0  0  0  0  0  0  0
  -20.9179  -29.3165   20.6261 C   0  0  0  0  0  0  0  0  0  0  0  0
  -22.1526  -27.6435   21.8564 C   0  0  0  0  0  0  0  0  0  0  0  0
  -29.9285  -11.1393   19.0998 C   0  0  0  0  0  0  0  0  0  0  0  0
  -29.3958  -13.8066   19.6898 C   0  0  0  0  0  0  0  0  0  0  0  0
  -27.4417  -16.6042   23.4314 C   0  0  0  0  0  0  0  0  0  0  0  0
  -30.3203  -25.2917   20.6994 C   0  0  0  0  0  0  0  0  0  0  0  0
  -19.7464  -28.5798   20.7999 C   0  0  0  0  0  0  0  0  0  0  0  0
  -20.9810  -26.9067   22.0302 C   0  0  0  0  0  0  0  0  0  0  0  0
  -27.9612  -17.8862   23.6059 C   0  0  0  0  0  0  0  0  0  0  0  0
  -18.3835  -24.4063   22.4891 C   0  0  0  0  0  0  0  0  0  0  0  0
  -18.4452  -23.0298   22.2728 C   0  0  0  0  0  0  0  0  0  0  0  0
  -30.0867  -24.1184   21.4079 C   0  0  0  0  0  0  0  0  0  0  0  0
  -26.0684  -18.8071   22.4275 C   0  0  0  0  0  0  0  0  0  0  0  0
  -19.1317  -23.4193   19.9894 C   0  0  0  0  0  0  0  0  0  0  0  0
  -22.1211  -28.8484   21.1543 C   0  0  0  0  0  0  0  0  0  0  0  0
  -23.8413  -30.6091   21.8240 C   0  0  0  0  0  0  0  0  0  0  0  0
  -28.6774  -11.6812   18.7655 C   0  0  0  0  0  0  0  0  0  0  0  0
  -26.2351  -16.4128   22.7430 C   0  0  0  0  0  0  0  0  0  0  0  0
  -28.4099  -13.0331   19.0538 C   0  0  0  0  0  0  0  0  0  0  0  0
  -25.5345  -17.5219   22.2478 C   0  0  0  0  0  0  0  0  0  0  0  0
  -29.8952  -25.3966   19.3796 C   0  0  0  0  0  0  0  0  0  0  0  0
  -19.7779  -27.3749   21.5020 C   0  0  0  0  0  0  0  0  0  0  0  0
  -27.2760  -18.9876   23.1014 C   0  0  0  0  0  0  0  0  0  0  0  0
  -18.6958  -25.2894   21.4555 C   0  0  0  0  0  0  0  0  0  0  0  0
  -18.8193  -22.5362   21.0230 C   0  0  0  0  0  0  0  0  0  0  0  0
  -19.0700  -24.7959   20.2057 C   0  0  0  0  0  0  0  0  0  0  0  0
  -23.3318  -29.6087   20.9746 C   0  0  0  0  0  0  0  0  0  0  0  0
  -29.4292  -23.0873   20.7565 C   0  0  0  0  0  0  0  0  0  0  0  0
  -29.2465  -24.3082   18.8189 C   0  0  0  0  0  0  0  0  0  0  0  0
  -25.0029  -31.0174   21.2153 C   0  0  0  0  0  0  0  0  0  0  0  0
  -23.3121  -31.1231   23.0533 C   0  0  0  0  0  0  0  0  0  0  0  0
  -25.3861  -14.8891   20.0857 C   0  0  0  0  0  0  0  0  0  0  0  0
  -22.3944  -15.7032   21.0392 C   0  0  0  0  0  0  0  0  0  0  0  0
  -20.4003  -17.7999   22.8487 C   0  0  0  0  0  0  0  0  0  0  0  0
  -28.7760  -28.3369   17.4167 C   0  0  0  0  0  0  0  0  0  0  0  0
  -27.6792  -10.8116   18.0430 C   0  0  0  0  0  0  0  0  0  0  0  0
  -25.6747  -15.0258   22.5865 C   0  0  0  0  0  0  0  0  0  0  0  0
  -24.2250  -17.3718   21.5191 C   0  0  0  0  0  0  0  0  0  0  0  0
  -26.2593  -11.3718   18.0590 C   0  0  0  0  0  0  0  0  0  0  0  0
  -27.0352  -31.3996   16.9008 C   0  0  0  0  0  0  0  0  0  0  0  0
  -26.2667  -12.8554   17.7044 C   0  0  0  0  0  0  0  0  0  0  0  0
  -25.9346  -31.3781   17.9630 C   0  0  0  0  0  0  0  0  0  0  0  0
  -27.3001  -30.0063   16.3345 C   0  0  0  0  0  0  0  0  0  0  0  0
  -26.4871  -28.9500   18.4074 C   0  0  0  0  0  0  0  0  0  0  0  0
  -27.0731  -13.6633   18.7284 C   0  0  1  0  0  0  0  0  0  0  0  0
  -24.6976  -14.9041   21.4211 C   0  0  1  0  0  0  0  0  0  0  0  0
  -26.2230  -30.3233   19.0481 C   0  0  2  0  0  0  0  0  0  0  0  0
  -17.9923  -18.2380   23.4027 C   0  0  0  0  0  0  0  0  0  0  0  0
  -21.9880  -16.9436   18.2813 C   0  0  0  0  0  0  0  0  0  0  0  0
  -20.0023  -18.1617   19.1985 C   0  0  0  0  0  0  0  0  0  0  0  0
  -20.0210  -15.6677   19.1514 C   0  0  0  0  0  0  0  0  0  0  0  0
  -20.8610  -17.3427   25.7362 C   0  0  0  0  0  0  0  0  0  0  0  0
  -30.1469  -26.6567   18.6236 C   0  0  0  0  0  0  0  0  0  0  0  0
  -29.6152  -21.7395   22.8480 C   0  0  0  0  0  0  0  0  0  0  0  0
  -29.2010  -20.3634   23.3416 C   0  0  0  0  0  0  0  0  0  1  0  0
  -21.4852  -16.8870   20.8131 C   0  0  1  0  0  0  0  0  0  0  0  0
  -19.2678  -17.5233   23.8210 C   0  0  2  0  0  0  0  0  0  0  0  0
  -20.8997  -16.9180   19.3730 C   0  0  0  0  0  0  0  0  0  0  0  0
  -24.1061  -29.3947   19.9075 N   0  0  0  0  0  0  0  0  0  0  0  0
  -29.0016  -23.1522   19.4757 N   0  0  0  0  0  0  0  0  0  0  0  0
  -25.1139  -30.2663   20.0822 N   0  0  0  0  0  0  0  0  0  0  0  0
  -23.7212  -15.9948   21.3860 N   0  0  0  0  0  0  0  0  0  0  0  0
  -27.5682  -29.0539   17.4148 N   0  0  0  0  0  0  0  0  0  0  0  0
  -28.8126  -24.4098   17.4734 N   0  0  0  0  0  0  0  0  0  0  0  0
  -25.9298  -31.9422   21.5440 N   0  0  0  0  0  0  0  0  0  0  0  0
  -22.1087  -30.5916   23.5367 N   0  0  0  0  0  0  0  0  0  0  0  0
  -29.2042  -21.9249   21.4752 N   0  0  0  0  0  0  0  0  0  0  0  0
  -26.3003  -13.8639   19.9355 N   0  0  0  0  0  0  0  0  0  0  0  0
  -20.4776  -16.8350   21.8668 N   0  0  0  0  0  0  0  0  0  0  0  0
  -28.9532  -27.4599   18.4798 N   0  0  0  0  0  0  0  0  0  0  0  0
  -19.6366  -17.9826   25.1900 N   0  3  0  0  0  0  0  0  0  0  0  0
  -23.8807  -32.0385   23.6954 O   0  0  0  0  0  0  0  0  0  0  0  0
  -25.1073  -15.7435   19.2526 O   0  0  0  0  0  0  0  0  0  0  0  0
  -21.9420  -14.5618   20.9198 O   0  0  0  0  0  0  0  0  0  0  0  0
  -21.1399  -18.7765   22.9480 O   0  0  0  0  0  0  0  0  0  0  0  0
  -29.6353  -28.4724   16.5391 O   0  0  0  0  0  0  0  0  0  0  0  0
  -18.6348  -26.6558   21.6720 O   0  0  0  0  0  0  0  0  0  0  0  0
  -27.7811  -20.2400   23.2698 O   0  0  0  0  0  0  0  0  0  1  0  0
  -18.8800  -21.2142   20.8159 F   0  0  0  0  0  0  0  0  0  0  0  0
  -19.3724  -25.6393   19.2092 F   0  0  0  0  0  0  0  0  0  0  0  0
  1  2  1  0  0  0  0
  1  5  2  0  0  0  0
  2  6  2  0  0  0  0
  3  9  2  0  0  0  0
  3 17  1  0  0  0  0
  4 10  1  0  0  0  0
  4 17  2  0  0  0  0
  5 19  1  0  0  0  0
  6 21  1  0  0  0  0
  7 11  2  0  0  0  0
  7 20  1  0  0  0  0
  8 14  2  0  0  0  0
  8 23  1  0  0  0  0
  9 24  1  0  0  0  0
 10 24  2  0  0  0  0
 11 25  1  0  0  0  0
 12 13  2  0  0  0  0
 12 26  1  0  0  0  0
 13 27  1  0  0  0  0
 14 30  1  0  0  0  0
 15 22  1  0  0  0  0
 15 25  2  0  0  0  0
 16 27  2  0  0  0  0
 16 28  1  0  0  0  0
 17 29  1  0  0  0  0
 18 29  1  0  0  0  0
 18 32  2  0  0  0  0
 18 33  1  0  0  0  0
 19 21  2  0  0  0  0
 19 38  1  0  0  0  0
 20 22  2  0  0  0  0
 20 39  1  0  0  0  0
 21 47  1  0  0  0  0
 22 40  1  0  0  0  0
 23 31  2  0  0  0  0
 23 55  1  0  0  0  0
 24 79  1  0  0  0  0
 25 80  1  0  0  0  0
 26 28  2  0  0  0  0
 26 79  1  0  0  0  0
 27 81  1  0  0  0  0
 28 82  1  0  0  0  0
 29 61  2  0  0  0  0
 30 62  2  0  0  0  0
 30 69  1  0  0  0  0
 31 62  1  0  0  0  0
 31 66  1  0  0  0  0
 32 63  1  0  0  0  0
 32 67  1  0  0  0  0
 33 68  1  0  0  0  0
 33 74  2  0  0  0  0
 34 48  1  0  0  0  0
 34 70  1  0  0  0  0
 34 75  2  0  0  0  0
 35 58  1  0  0  0  0
 35 64  1  0  0  0  0
 35 76  2  0  0  0  0
 36 59  1  0  0  0  0
 36 71  1  0  0  0  0
 36 77  2  0  0  0  0
 37 65  1  0  0  0  0
 37 72  1  0  0  0  0
 37 78  2  0  0  0  0
 38 41  1  0  0  0  0
 39 48  1  0  0  0  0
 40 64  1  0  0  0  0
 41 43  1  0  0  0  0
 42 44  1  0  0  0  0
 42 45  1  0  0  0  0
 43 47  1  0  0  0  0
 44 49  1  0  0  0  0
 45 65  1  0  0  0  0
 46 49  1  0  0  0  0
 46 65  1  0  0  0  0
 47 70  1  0  0  0  0
 48 64  1  0  0  0  0
 49 63  1  0  0  0  0
 50 59  1  0  0  0  0
 51 60  1  0  0  0  0
 52 60  1  0  0  0  0
 53 60  1  0  0  0  0
 54 73  1  0  0  0  0
 55 72  1  0  0  0  0
 56 57  1  0  0  0  0
 56 69  1  0  0  0  0
 57 80  1  0  0  0  0
 58 60  1  0  0  0  0
 58 71  1  0  0  0  0
 59 73  1  0  0  0  0
 61 63  1  0  0  0  0
M  CHG  1  73   1
M  ISO  4  37 100  57 101  72 100  80 101
M  END
> <Batch ID>
0156

> <Smiles>
CNC(C)C(=O)NC(C(=O)N1Cc2cc([101O:1][101CH2:1]CNc3ccc(C[100NH:0][100C:0](=O)N4CCCC(n5nc(-c6ccc(Oc7ccc(F)cc7F)cc6)c(C(N)=O)c5N)C4)c(N)n3)ccc2CC1C(=O)NC1CCCc2ccccc21)C(C)(C)C

> <Shape>
0.214

> <Color>
0.074

> <Negative vol penalty>
0.000

$$$$

  -OEChem-04052303393D

 81 89  0     1  0  0  0  0  0999 V2000
  -28.8146  -35.9957   21.8420 C   0  0  0  0  0  0  0  0  0  0  0  0
  -28.9823  -34.6165   21.7689 C   0  0  0  0  0  0  0  0  0  0  0  0
  -23.8275   -9.6496   22.5393 C   0  0  0  0  0  0  0  0  0  0  0  0
  -23.4222  -10.0898   20.1986 C   0  0  0  0  0  0  0  0  0  0  0  0
  -27.7069  -36.5281   22.5004 C   0  0  0  0  0  0  0  0  0  0  0  0
  -28.0430  -33.7690   22.3552 C   0  0  0  0  0  0  0  0  0  0  0  0
  -26.7829  -29.8916   19.3514 C   0  0  0  0  0  0  0  0  0  0  0  0
  -22.9691   -8.5517   22.4815 C   0  0  0  0  0  0  0  0  0  0  0  0
  -22.5638   -8.9918   20.1408 C   0  0  0  0  0  0  0  0  0  0  0  0
  -27.6819  -28.8288   19.2727 C   0  0  0  0  0  0  0  0  0  0  0  0
  -23.0878   -5.3514   21.3968 C   0  0  0  0  0  0  0  0  0  0  0  0
  -23.5089   -4.1668   22.0009 C   0  0  0  0  0  0  0  0  0  0  0  0
  -28.9091  -18.4190   18.2936 C   0  0  0  0  0  0  0  0  0  0  0  0
  -29.5414  -19.6468   17.9842 C   0  0  0  0  0  0  0  0  0  0  0  0
  -26.3312  -27.5786   20.8320 C   0  0  0  0  0  0  0  0  0  0  0  0
  -21.5882   -4.2308   23.4651 C   0  0  0  0  0  0  0  0  0  0  0  0
  -24.0540  -10.4187   21.3979 C   0  0  0  0  0  0  0  0  0  0  0  0
  -26.3275  -11.5618   21.2182 C   0  0  0  0  0  0  0  0  0  0  0  0
  -26.7484  -35.6865   23.0866 C   0  0  0  0  0  0  0  0  0  0  0  0
  -25.6552  -29.8099   20.1808 C   0  0  0  0  0  0  0  0  0  0  0  0
  -26.9221  -34.2907   23.0232 C   0  0  0  0  0  0  0  0  0  0  0  0
  -25.4181  -28.6406   20.9176 C   0  0  0  0  0  0  0  0  0  0  0  0
  -22.3373   -8.2228   21.2823 C   0  0  0  0  0  0  0  0  0  0  0  0
  -27.4577  -27.6733   20.0153 C   0  0  0  0  0  0  0  0  0  0  0  0
  -21.9169   -5.9758   21.8268 C   0  0  0  0  0  0  0  0  0  0  0  0
  -22.7591   -3.6065   23.0351 C   0  0  0  0  0  0  0  0  0  0  0  0
  -21.1671   -5.4155   22.8610 C   0  0  0  0  0  0  0  0  0  0  0  0
  -24.9401  -11.5533   21.4571 C   0  0  0  0  0  0  0  0  0  0  0  0
  -26.6990  -12.8716   21.3993 C   0  0  0  0  0  0  0  0  0  0  0  0
  -27.8688  -18.7274   19.1390 C   0  0  0  0  0  0  0  0  0  0  0  0
  -28.8422  -20.6181   18.6623 C   0  0  0  0  0  0  0  0  0  0  0  0
  -27.2021  -10.4822   20.8643 C   0  0  0  0  0  0  0  0  0  0  0  0
  -24.6087  -31.4266   22.7096 C   0  0  0  0  0  0  0  0  0  0  0  0
  -28.6170  -24.2964   19.3707 C   0  0  0  0  0  0  0  0  0  0  0  0
  -21.9842  -29.5584   22.3299 C   0  0  0  0  0  0  0  0  0  0  0  0
  -20.6406  -26.6588   21.1325 C   0  0  0  0  0  0  0  0  0  0  0  0
  -25.8708  -18.3221   20.6188 C   0  0  0  0  0  0  0  0  0  0  0  0
  -25.5923  -36.3091   23.8285 C   0  0  0  0  0  0  0  0  0  0  0  0
  -24.6808  -30.9545   20.2341 C   0  0  0  0  0  0  0  0  0  0  0  0
  -24.2117  -28.4949   21.8074 C   0  0  0  0  0  0  0  0  0  0  0  0
  -24.4474  -35.3362   24.0991 C   0  0  0  0  0  0  0  0  0  0  0  0
  -24.1321  -16.7883   23.3209 C   0  0  0  0  0  0  0  0  0  0  0  0
  -24.9856  -34.0162   24.6420 C   0  0  0  0  0  0  0  0  0  0  0  0
  -24.3015  -15.2903   23.0573 C   0  0  0  0  0  0  0  0  0  0  0  0
  -23.9614  -17.5767   22.0236 C   0  0  0  0  0  0  0  0  0  0  0  0
  -25.1742  -15.8498   20.7524 C   0  0  0  0  0  0  0  0  0  0  0  0
  -25.9119  -33.3382   23.6252 C   0  0  1  0  0  0  0  0  0  0  0  0
  -23.8382  -30.9631   21.5058 C   0  0  1  0  0  0  0  0  0  0  0  0
  -25.4145  -15.0220   22.0254 C   0  0  2  0  0  0  0  0  0  0  0  0
  -18.4763  -25.3949   21.0073 C   0  0  0  0  0  0  0  0  0  0  0  0
  -22.2878  -28.7535   25.2574 C   0  0  0  0  0  0  0  0  0  0  0  0
  -20.7450  -26.8316   24.8166 C   0  0  0  0  0  0  0  0  0  0  0  0
  -19.9322  -29.1725   24.5296 C   0  0  0  0  0  0  0  0  0  0  0  0
  -20.6375  -26.7276   18.1737 C   0  0  0  0  0  0  0  0  0  0  0  0
  -28.1565  -22.8612   19.5133 C   0  0  0  0  0  0  0  0  0  0  0  0
  -27.8053  -25.3237   20.1357 C   0  0  0  0  0  0  0  0  0  1  0  0
  -21.5505  -28.2069   22.8441 C   0  0  1  0  0  0  0  0  0  0  0  0
  -19.3917  -26.3907   20.3122 C   0  0  2  0  0  0  0  0  0  0  0  0
  -21.1527  -28.2443   24.3467 C   0  0  0  0  0  0  0  0  0  0  0  0
  -24.4628  -12.7618   21.7665 N   0  0  0  0  0  0  0  0  0  0  0  0
  -25.5563  -13.5419   21.7234 N   0  0  0  0  0  0  0  0  0  0  0  0
  -23.2916  -29.6441   21.8306 N   0  0  0  0  0  0  0  0  0  0  0  0
  -25.0542  -17.2753   21.0964 N   0  0  0  0  0  0  0  0  0  0  0  0
  -27.8886  -13.5039   21.3115 N   0  0  0  0  0  0  0  0  0  0  0  0
  -26.6555   -9.1999   20.7185 N   0  0  0  0  0  0  0  0  0  0  0  0
  -26.8972  -17.9109   19.7692 N   0  0  0  0  0  0  0  0  0  0  0  0
  -29.0044  -21.9942   18.7357 N   0  0  0  0  0  0  0  0  0  0  0  0
  -25.1370  -32.6973   22.5844 N   0  0  0  0  0  0  0  0  0  0  0  0
  -20.4859  -27.7544   21.9552 N   0  0  0  0  0  0  0  0  0  0  0  0
  -19.7575  -25.8400   18.9766 N   0  3  0  0  0  0  0  0  0  0  0  0
  -28.4346  -10.6468   20.6986 O   0  0  0  0  0  0  0  0  0  0  0  0
  -24.7148  -30.6868   23.6807 O   0  0  0  0  0  0  0  0  0  0  0  0
  -29.5842  -24.6195   18.6823 O   0  0  0  0  0  0  0  0  0  0  0  0
  -21.1899  -30.5015   22.3633 O   0  0  0  0  0  0  0  0  0  0  0  0
  -21.6510  -25.9635   21.0541 O   0  0  0  0  0  0  0  0  0  0  0  0
  -25.6907  -19.4935   20.9614 O   0  0  0  0  0  0  0  0  0  0  0  0
  -27.8211  -20.0658   19.3686 O   0  0  0  0  0  0  0  0  0  0  0  0
  -21.4998   -7.1514   21.2255 O   0  0  0  0  0  0  0  0  0  0  0  0
  -28.3339  -26.6347   19.9407 O   0  0  0  0  0  0  0  0  0  1  0  0
  -23.1628   -2.4681   23.6141 F   0  0  0  0  0  0  0  0  0  0  0  0
  -20.0408   -6.0101   23.2776 F   0  0  0  0  0  0  0  0  0  0  0  0
  1  2  1  0  0  0  0
  1  5  2  0  0  0  0
  2  6  2  0  0  0  0
  3  8  2  0  0  0  0
  3 17  1  0  0  0  0
  4  9  1  0  0  0  0
  4 17  2  0  0  0  0
  5 19  1  0  0  0  0
  6 21  1  0  0  0  0
  7 10  2  0  0  0  0
  7 20  1  0  0  0  0
  8 23  1  0  0  0  0
  9 23  2  0  0  0  0
 10 24  1  0  0  0  0
 11 12  2  0  0  0  0
 11 25  1  0  0  0  0
 12 26  1  0  0  0  0
 13 14  1  0  0  0  0
 13 30  2  0  0  0  0
 14 31  2  0  0  0  0
 15 22  1  0  0  0  0
 15 24  2  0  0  0  0
 16 26  2  0  0  0  0
 16 27  1  0  0  0  0
 17 28  1  0  0  0  0
 18 28  1  0  0  0  0
 18 29  2  0  0  0  0
 18 32  1  0  0  0  0
 19 21  2  0  0  0  0
 19 38  1  0  0  0  0
 20 22  2  0  0  0  0
 20 39  1  0  0  0  0
 21 47  1  0  0  0  0
 22 40  1  0  0  0  0
 23 78  1  0  0  0  0
 24 79  1  0  0  0  0
 25 27  2  0  0  0  0
 25 78  1  0  0  0  0
 26 80  1  0  0  0  0
 27 81  1  0  0  0  0
 28 60  2  0  0  0  0
 29 61  1  0  0  0  0
 29 64  1  0  0  0  0
 30 66  1  0  0  0  0
 30 77  1  0  0  0  0
 31 67  1  0  0  0  0
 31 77  1  0  0  0  0
 32 65  1  0  0  0  0
 32 71  2  0  0  0  0
 33 48  1  0  0  0  0
 33 68  1  0  0  0  0
 33 72  2  0  0  0  0
 34 55  1  0  0  0  0
 34 56  1  0  0  0  0
 34 73  2  0  0  0  0
 35 57  1  0  0  0  0
 35 62  1  0  0  0  0
 35 74  2  0  0  0  0
 36 58  1  0  0  0  0
 36 69  1  0  0  0  0
 36 75  2  0  0  0  0
 37 63  1  0  0  0  0
 37 66  1  0  0  0  0
 37 76  2  0  0  0  0
 38 41  1  0  0  0  0
 39 48  1  0  0  0  0
 40 62  1  0  0  0  0
 41 43  1  0  0  0  0
 42 44  1  0  0  0  0
 42 45  1  0  0  0  0
 43 47  1  0  0  0  0
 44 49  1  0  0  0  0
 45 63  1  0  0  0  0
 46 49  1  0  0  0  0
 46 63  1  0  0  0  0
 47 68  1  0  0  0  0
 48 62  1  0  0  0  0
 49 61  1  0  0  0  0
 50 58  1  0  0  0  0
 51 59  1  0  0  0  0
 52 59  1  0  0  0  0
 53 59  1  0  0  0  0
 54 70  1  0  0  0  0
 55 67  1  0  0  0  0
 56 79  1  0  0  0  0
 57 59  1  0  0  0  0
 57 69  1  0  0  0  0
 58 70  1  0  0  0  0
 60 61  1  0  0  0  0
M  CHG  1  70   1
M  ISO  4  37 100  56 101  66 100  79 101
M  END
> <Batch ID>
0156

> <Smiles>
CNC(C)C(=O)NC(C(=O)N1Cc2cc([101O:1][101CH2:1]C(=O)CNc3ccc([100NH:0][100C:0](=O)N4CCCC(n5nc(-c6ccc(Oc7ccc(F)cc7F)cc6)c(C(N)=O)c5N)C4)o3)ccc2CC1C(=O)NC1CCCc2ccccc21)C(C)(C)C

> <Shape>
0.325

> <Color>
0.098

> <Negative vol penalty>
0.000

$$$$

  -OEChem-04052303393D

 82 90  0     1  0  0  0  0  0999 V2000
  -36.1405  -21.2619    8.9775 C   0  0  0  0  0  0  0  0  0  0  0  0
  -36.2434  -21.4409   10.3533 C   0  0  0  0  0  0  0  0  0  0  0  0
  -23.0516   -9.9881   19.8908 C   0  0  0  0  0  0  0  0  0  0  0  0
  -23.8538   -9.8672   22.1665 C   0  0  0  0  0  0  0  0  0  0  0  0
  -35.0661  -21.8151    8.2822 C   0  0  0  0  0  0  0  0  0  0  0  0
  -35.2724  -22.1741   11.0344 C   0  0  0  0  0  0  0  0  0  0  0  0
  -33.8005  -19.9303   15.3291 C   0  0  0  0  0  0  0  0  0  0  0  0
  -22.2917   -8.8369   20.0975 C   0  0  0  0  0  0  0  0  0  0  0  0
  -23.0938   -8.7160   22.3732 C   0  0  0  0  0  0  0  0  0  0  0  0
  -34.6484  -20.0442   16.4299 C   0  0  0  0  0  0  0  0  0  0  0  0
  -19.8633   -7.9449   22.9978 C   0  0  0  0  0  0  0  0  0  0  0  0
  -19.1276   -7.8594   24.1797 C   0  0  0  0  0  0  0  0  0  0  0  0
  -31.1955  -18.7527   23.0860 C   0  0  0  0  0  0  0  0  0  0  0  0
  -30.2013  -17.7558   22.9414 C   0  0  0  0  0  0  0  0  0  0  0  0
  -33.2587  -21.8088   17.3100 C   0  0  0  0  0  0  0  0  0  0  0  0
  -20.3469   -5.8665   24.7948 C   0  0  0  0  0  0  0  0  0  0  0  0
  -23.8328  -10.5033   20.9253 C   0  0  0  0  0  0  0  0  0  0  0  0
  -24.2182  -13.0250   20.9243 C   0  0  0  0  0  0  0  0  0  0  0  0
  -34.0763  -22.5473    8.9565 C   0  0  0  0  0  0  0  0  0  0  0  0
  -32.6795  -20.7636   15.2048 C   0  0  0  0  0  0  0  0  0  0  0  0
  -34.1844  -22.7387   10.3472 C   0  0  0  0  0  0  0  0  0  0  0  0
  -32.3968  -21.7017   16.2079 C   0  0  0  0  0  0  0  0  0  0  0  0
  -22.3127   -8.2009   21.3387 C   0  0  0  0  0  0  0  0  0  0  0  0
  -34.3791  -20.9855   17.4192 C   0  0  0  0  0  0  0  0  0  0  0  0
  -20.8409   -6.9910   22.7143 C   0  0  0  0  0  0  0  0  0  0  0  0
  -19.3694   -6.8203   25.0782 C   0  0  0  0  0  0  0  0  0  0  0  0
  -21.0827   -5.9519   23.6128 C   0  0  0  0  0  0  0  0  0  0  0  0
  -24.6185  -11.6921   20.7122 C   0  0  0  0  0  0  0  0  0  0  0  0
  -25.3169  -13.7728   20.5776 C   0  0  0  0  0  0  0  0  0  0  0  0
  -32.2548  -18.3519   22.3055 C   0  0  0  0  0  0  0  0  0  0  0  0
  -30.7239  -16.8169   22.0826 C   0  0  0  0  0  0  0  0  0  0  0  0
  -22.9653  -13.5410   21.3929 C   0  0  0  0  0  0  0  0  0  0  0  0
  -31.7374  -22.9582   13.1071 C   0  0  0  0  0  0  0  0  0  0  0  0
  -29.0251  -22.9320   14.8862 C   0  0  0  0  0  0  0  0  0  0  0  0
  -34.4607  -18.7033   21.3752 C   0  0  0  0  0  0  0  0  0  0  0  0
  -27.5353  -22.2863   17.8879 C   0  0  0  0  0  0  0  0  0  0  0  0
  -30.8035  -14.7137   20.6982 C   0  0  0  0  0  0  0  0  0  0  0  0
  -32.9586  -23.1662    8.1550 C   0  0  0  0  0  0  0  0  0  0  0  0
  -31.7599  -20.6100   14.0244 C   0  0  0  0  0  0  0  0  0  0  0  0
  -31.1949  -22.6062   16.1317 C   0  0  0  0  0  0  0  0  0  0  0  0
  -31.7730  -23.6125    9.0068 C   0  0  0  0  0  0  0  0  0  0  0  0
  -29.6017  -12.4412   18.2348 C   0  0  0  0  0  0  0  0  0  0  0  0
  -32.2555  -24.3854   10.2302 C   0  0  0  0  0  0  0  0  0  0  0  0
  -28.1652  -12.1534   18.6772 C   0  0  0  0  0  0  0  0  0  0  0  0
  -30.5429  -12.5937   19.4284 C   0  0  0  0  0  0  0  0  0  0  0  0
  -28.6754  -13.2808   20.8807 C   0  0  0  0  0  0  0  0  0  0  0  0
  -33.1380  -23.5068   11.1251 C   0  0  1  0  0  0  0  0  0  0  0  0
  -30.9328  -21.8610   13.7446 C   0  0  1  0  0  0  0  0  0  0  0  0
  -27.6779  -13.1836   19.7148 C   0  0  2  0  0  0  0  0  0  0  0  0
  -34.6125  -17.2366   21.1659 C   0  0  0  0  0  0  0  0  0  0  0  0
  -25.3135  -22.3990   19.0490 C   0  0  0  0  0  0  0  0  0  0  0  0
  -29.3238  -25.9563   15.1588 C   0  0  0  0  0  0  0  0  0  0  0  0
  -27.6887  -25.8770   17.0531 C   0  0  0  0  0  0  0  0  0  0  0  0
  -26.9821  -25.1703   14.7675 C   0  0  0  0  0  0  0  0  0  0  0  0
  -27.5023  -19.3645   18.3582 C   0  0  0  0  0  0  0  0  0  0  0  0
  -35.4099  -20.9605   20.8810 C   0  0  0  0  0  0  0  0  0  0  0  0
  -34.6188  -21.5311   19.7215 C   0  0  0  0  0  0  0  0  0  1  0  0
  -28.5350  -23.6849   16.0994 C   0  0  1  0  0  0  0  0  0  0  0  0
  -26.2662  -21.5318   18.2409 C   0  0  2  0  0  0  0  0  0  0  0  0
  -28.1562  -25.1565   15.7705 C   0  0  0  0  0  0  0  0  0  0  0  0
  -25.8734  -11.5955   20.2652 N   0  0  0  0  0  0  0  0  0  0  0  0
  -26.2712  -12.8772   20.1936 N   0  0  0  0  0  0  0  0  0  0  0  0
  -30.3294  -22.4221   14.9551 N   0  0  0  0  0  0  0  0  0  0  0  0
  -30.0192  -13.5887   20.3667 N   0  0  0  0  0  0  0  0  0  0  0  0
  -25.5501  -15.1024   20.5668 N   0  0  0  0  0  0  0  0  0  0  0  0
  -21.9434  -12.6337   21.7041 N   0  0  0  0  0  0  0  0  0  0  0  0
  -33.4316  -19.0412   22.1636 N   0  0  0  0  0  0  0  0  0  0  0  0
  -30.1884  -15.6076   21.5741 N   0  0  0  0  0  0  0  0  0  0  0  0
  -32.3226  -22.6022   11.9070 N   0  0  0  0  0  0  0  0  0  0  0  0
  -27.4407  -22.8960   16.6548 N   0  0  0  0  0  0  0  0  0  0  0  0
  -35.3758  -19.4981   20.8004 N   0  3  0  0  0  0  0  0  0  0  0  0
  -26.5911  -20.3179   19.0421 N   0  3  0  0  0  0  0  0  0  0  0  0
  -22.7525  -14.7711   21.5159 O   0  0  0  0  0  0  0  0  0  0  0  0
  -31.8199  -24.0476   13.6622 O   0  0  0  0  0  0  0  0  0  0  0  0
  -28.2757  -22.7950   13.9160 O   0  0  0  0  0  0  0  0  0  0  0  0
  -28.5114  -22.3333   18.6332 O   0  0  0  0  0  0  0  0  0  0  0  0
  -31.9267  -14.8861   20.2178 O   0  0  0  0  0  0  0  0  0  0  0  0
  -31.9753  -17.1729   21.6904 O   0  0  0  0  0  0  0  0  0  0  0  0
  -21.5710   -7.0776   21.5408 O   0  0  0  0  0  0  0  0  0  0  0  0
  -35.2054  -21.0992   18.4945 O   0  0  0  0  0  0  0  0  0  1  0  0
  -18.6638   -6.7393   26.2139 F   0  0  0  0  0  0  0  0  0  0  0  0
  -22.0213   -5.0332   23.3465 F   0  0  0  0  0  0  0  0  0  0  0  0
  1  2  1  0  0  0  0
  1  5  2  0  0  0  0
  2  6  2  0  0  0  0
  3  8  2  0  0  0  0
  3 17  1  0  0  0  0
  4  9  1  0  0  0  0
  4 17  2  0  0  0  0
  5 19  1  0  0  0  0
  6 21  1  0  0  0  0
  7 10  2  0  0  0  0
  7 20  1  0  0  0  0
  8 23  1  0  0  0  0
  9 23  2  0  0  0  0
 10 24  1  0  0  0  0
 11 12  2  0  0  0  0
 11 25  1  0  0  0  0
 12 26  1  0  0  0  0
 13 14  1  0  0  0  0
 13 30  2  0  0  0  0
 14 31  2  0  0  0  0
 15 22  1  0  0  0  0
 15 24  2  0  0  0  0
 16 26  2  0  0  0  0
 16 27  1  0  0  0  0
 17 28  1  0  0  0  0
 18 28  1  0  0  0  0
 18 29  2  0  0  0  0
 18 32  1  0  0  0  0
 19 21  2  0  0  0  0
 19 38  1  0  0  0  0
 20 22  2  0  0  0  0
 20 39  1  0  0  0  0
 21 47  1  0  0  0  0
 22 40  1  0  0  0  0
 23 79  1  0  0  0  0
 24 80  1  0  0  0  0
 25 27  2  0  0  0  0
 25 79  1  0  0  0  0
 26 81  1  0  0  0  0
 27 82  1  0  0  0  0
 28 61  2  0  0  0  0
 29 62  1  0  0  0  0
 29 65  1  0  0  0  0
 30 67  1  0  0  0  0
 30 78  1  0  0  0  0
 31 68  1  0  0  0  0
 31 78  1  0  0  0  0
 32 66  1  0  0  0  0
 32 73  2  0  0  0  0
 33 48  1  0  0  0  0
 33 69  1  0  0  0  0
 33 74  2  0  0  0  0
 34 58  1  0  0  0  0
 34 63  1  0  0  0  0
 34 75  2  0  0  0  0
 35 50  1  0  0  0  0
 35 67  1  0  0  0  0
 35 71  2  0  0  0  0
 36 59  1  0  0  0  0
 36 70  1  0  0  0  0
 36 76  2  0  0  0  0
 37 64  1  0  0  0  0
 37 68  1  0  0  0  0
 37 77  2  0  0  0  0
 38 41  1  0  0  0  0
 39 48  1  0  0  0  0
 40 63  1  0  0  0  0
 41 43  1  0  0  0  0
 42 44  1  0  0  0  0
 42 45  1  0  0  0  0
 43 47  1  0  0  0  0
 44 49  1  0  0  0  0
 45 64  1  0  0  0  0
 46 49  1  0  0  0  0
 46 64  1  0  0  0  0
 47 69  1  0  0  0  0
 48 63  1  0  0  0  0
 49 62  1  0  0  0  0
 51 59  1  0  0  0  0
 52 60  1  0  0  0  0
 53 60  1  0  0  0  0
 54 60  1  0  0  0  0
 55 72  1  0  0  0  0
 56 57  1  0  0  0  0
 56 71  1  0  0  0  0
 57 80  1  0  0  0  0
 58 60  1  0  0  0  0
 58 70  1  0  0  0  0
 59 72  1  0  0  0  0
 61 62  1  0  0  0  0
M  CHG  2  71   1  72   1
M  ISO  4  37 100  57 101  68 100  80 101
M  END
> <Batch ID>
0156

> <Smiles>
CNC(C)C(=O)NC(C(=O)N1Cc2cc([101O:1][101CH2:1]CN=C(C)Nc3ccc([100NH:0][100C:0](=O)N4CCCC(n5nc(-c6ccc(Oc7ccc(F)cc7F)cc6)c(C(N)=O)c5N)C4)o3)ccc2CC1C(=O)NC1CCCc2ccccc21)C(C)(C)C

> <Shape>
0.186

> <Color>
0.193

> <Negative vol penalty>
0.000

$$$$

  -OEChem-04052303393D

 86 95  0     1  0  0  0  0  0999 V2000
  -17.0308  -30.4527   22.8917 C   0  0  0  0  0  0  0  0  0  0  0  0
  -18.3087  -29.9446   22.6819 C   0  0  0  0  0  0  0  0  0  0  0  0
  -22.9991   -9.9574   20.0327 C   0  0  0  0  0  0  0  0  0  0  0  0
  -23.7412  -10.0301   22.3308 C   0  0  0  0  0  0  0  0  0  0  0  0
  -16.1775  -29.8349   23.8050 C   0  0  0  0  0  0  0  0  0  0  0  0
  -18.7345  -28.8189   23.3861 C   0  0  0  0  0  0  0  0  0  0  0  0
  -22.4453  -24.3910   21.3539 C   0  0  0  0  0  0  0  0  0  0  0  0
  -22.2047   -8.8486   20.3243 C   0  0  0  0  0  0  0  0  0  0  0  0
  -22.9467   -8.9213   22.6224 C   0  0  0  0  0  0  0  0  0  0  0  0
  -23.8102  -24.1608   21.5211 C   0  0  0  0  0  0  0  0  0  0  0  0
  -19.2141   -8.2407   21.7804 C   0  0  0  0  0  0  0  0  0  0  0  0
  -17.9102   -8.2294   21.2853 C   0  0  0  0  0  0  0  0  0  0  0  0
  -29.7620  -17.7916   22.1799 C   0  0  0  0  0  0  0  0  0  0  0  0
  -30.9181  -19.6881   21.2295 C   0  0  0  0  0  0  0  0  0  0  0  0
  -23.3278  -22.6658   23.3517 C   0  0  0  0  0  0  0  0  0  0  0  0
  -31.3957  -17.4583   20.4316 C   0  0  0  0  0  0  0  0  0  0  0  0
  -18.3961   -6.2095   20.0519 C   0  0  0  0  0  0  0  0  0  0  0  0
  -23.7675  -10.5481   21.0359 C   0  0  0  0  0  0  0  0  0  0  0  0
  -29.9882  -19.1670   22.1291 C   0  0  0  0  0  0  0  0  0  0  0  0
  -24.2180  -13.0490   20.8122 C   0  0  0  0  0  0  0  0  0  0  0  0
  -16.5896  -28.6953   24.5136 C   0  0  0  0  0  0  0  0  0  0  0  0
  -21.5104  -23.7678   22.1929 C   0  0  0  0  0  0  0  0  0  0  0  0
  -17.8864  -28.1860   24.3107 C   0  0  0  0  0  0  0  0  0  0  0  0
  -21.9515  -22.8878   23.1916 C   0  0  0  0  0  0  0  0  0  0  0  0
  -30.4658  -16.9372   21.3312 C   0  0  0  0  0  0  0  0  0  0  0  0
  -22.1784   -8.3306   21.6192 C   0  0  0  0  0  0  0  0  0  0  0  0
  -24.2518  -23.3004   22.5219 C   0  0  0  0  0  0  0  0  0  0  0  0
  -20.1091   -7.2365   21.4112 C   0  0  0  0  0  0  0  0  0  0  0  0
  -17.5011   -7.2137   20.4211 C   0  0  0  0  0  0  0  0  0  0  0  0
  -31.6219  -18.8338   20.3807 C   0  0  0  0  0  0  0  0  0  0  0  0
  -19.7001   -6.2209   20.5470 C   0  0  0  0  0  0  0  0  0  0  0  0
  -24.5888  -11.6931   20.7352 C   0  0  0  0  0  0  0  0  0  0  0  0
  -25.3440  -13.7352   20.4277 C   0  0  0  0  0  0  0  0  0  0  0  0
  -27.2515  -21.4656   23.3845 C   0  0  0  0  0  0  0  0  0  0  0  0
  -29.2458  -20.0701   23.0266 C   0  0  0  0  0  0  0  0  0  0  0  0
  -22.9677  -13.6358   21.1970 C   0  0  0  0  0  0  0  0  0  0  0  0
  -19.3335  -24.7864   24.2731 C   0  0  0  0  0  0  0  0  0  0  0  0
  -18.5376  -21.6438   24.3859 C   0  0  0  0  0  0  0  0  0  0  0  0
  -19.4869  -18.3968   23.9359 C   0  0  0  0  0  0  0  0  0  0  0  0
  -30.8485  -14.5542   20.6092 C   0  0  0  0  0  0  0  0  0  0  0  0
  -15.6488  -28.0899   25.5251 C   0  0  0  0  0  0  0  0  0  0  0  0
  -20.0402  -24.0058   21.9824 C   0  0  0  0  0  0  0  0  0  0  0  0
  -20.9874  -22.1781   24.1055 C   0  0  0  0  0  0  0  0  0  0  0  0
  -16.0425  -26.6791   25.9551 C   0  0  0  0  0  0  0  0  0  0  0  0
  -29.6496  -12.0909   18.3350 C   0  0  0  0  0  0  0  0  0  0  0  0
  -17.5330  -26.6143   26.2729 C   0  0  0  0  0  0  0  0  0  0  0  0
  -28.1956  -11.8793   18.7631 C   0  0  0  0  0  0  0  0  0  0  0  0
  -26.5192  -21.4362   21.1372 C   0  0  0  0  0  0  0  0  0  0  0  0
  -30.5646  -12.3318   19.5344 C   0  0  0  0  0  0  0  0  0  0  0  0
  -27.4987  -20.2818   21.3139 C   0  0  0  0  0  0  0  0  0  0  0  0
  -28.6801  -13.1949   20.8658 C   0  0  0  0  0  0  0  0  0  0  0  0
  -18.3759  -26.9520   25.0372 C   0  0  1  0  0  0  0  0  0  0  0  0
  -26.0287  -21.7506   22.5499 C   0  0  2  0  0  0  0  0  0  1  0  0
  -19.2042  -23.7171   23.2255 C   0  0  1  0  0  0  0  0  0  0  0  0
  -27.7096  -13.0130   19.6873 C   0  0  2  0  0  0  0  0  0  0  0  0
  -18.6308  -16.0471   24.1449 C   0  0  0  0  0  0  0  0  0  0  0  0
  -18.8510  -21.8018   27.4168 C   0  0  0  0  0  0  0  0  0  0  0  0
  -18.9282  -19.3000   27.4694 C   0  0  0  0  0  0  0  0  0  0  0  0
  -16.8849  -20.4658   26.6396 C   0  0  0  0  0  0  0  0  0  0  0  0
  -19.8680  -17.8775   21.0473 C   0  0  0  0  0  0  0  0  0  0  0  0
  -18.9734  -20.4597   25.2146 C   0  0  1  0  0  0  0  0  0  0  0  0
  -18.8129  -17.2403   23.2198 C   0  0  2  0  0  0  0  0  0  0  0  0
  -18.4279  -20.5215   26.6693 C   0  0  0  0  0  0  0  0  0  0  0  0
  -25.8515  -11.5259   20.3332 N   0  0  0  0  0  0  0  0  0  0  0  0
  -26.2840  -12.7856   20.1541 N   0  0  0  0  0  0  0  0  0  0  0  0
  -28.0912  -20.5747   22.6295 N   0  0  0  0  0  0  0  0  0  0  0  0
  -19.5604  -22.4484   23.8641 N   0  0  0  0  0  0  0  0  0  0  0  0
  -30.0437  -13.4220   20.3621 N   0  0  0  0  0  0  0  0  0  0  0  0
  -25.6118  -15.0522   20.3003 N   0  0  0  0  0  0  0  0  0  0  0  0
  -21.9152  -12.7856   21.5629 N   0  0  0  0  0  0  0  0  0  0  0  0
  -30.2352  -15.5400   21.3816 N   0  0  0  0  0  0  0  0  0  0  0  0
  -18.4275  -25.8208   24.1361 N   0  0  0  0  0  0  0  0  0  0  0  0
  -18.5659  -19.2708   24.4738 N   0  0  0  0  0  0  0  0  0  0  0  0
  -29.7488  -20.3615   24.2225 N   0  3  0  0  0  0  0  0  0  0  0  0
  -19.6300  -16.8081   22.0507 N   0  3  0  0  0  0  0  0  0  0  0  0
  -27.5265  -21.8787   24.4962 O   0  0  0  0  0  0  0  0  0  0  0  0
  -22.7839  -14.8766   21.1999 O   0  0  0  0  0  0  0  0  0  0  0  0
  -20.1908  -24.6802   25.1423 O   0  0  0  0  0  0  0  0  0  0  0  0
  -17.3343  -21.8433   24.2020 O   0  0  0  0  0  0  0  0  0  0  0  0
  -20.7081  -18.5112   24.0138 O   0  0  0  0  0  0  0  0  0  0  0  0
  -31.9873  -14.6547   20.1455 O   0  0  0  0  0  0  0  0  0  0  0  0
  -21.4031   -7.2488   21.9042 O   0  0  0  0  0  0  0  0  0  0  0  0
  -25.5835  -23.0745   22.6876 O   0  0  0  0  0  0  0  0  0  1  0  0
  -16.2484   -7.2021   19.9469 F   0  0  0  0  0  0  0  0  0  0  0  0
  -32.5149  -19.3342   19.5169 F   0  0  0  0  0  0  0  0  0  0  0  0
  -20.5551   -5.2529   20.1896 F   0  0  0  0  0  0  0  0  0  0  0  0
  1  2  1  0  0  0  0
  1  5  2  0  0  0  0
  2  6  2  0  0  0  0
  3  8  2  0  0  0  0
  3 18  1  0  0  0  0
  4  9  1  0  0  0  0
  4 18  2  0  0  0  0
  5 21  1  0  0  0  0
  6 23  1  0  0  0  0
  7 10  2  0  0  0  0
  7 22  1  0  0  0  0
  8 26  1  0  0  0  0
  9 26  2  0  0  0  0
 10 27  1  0  0  0  0
 11 12  2  0  0  0  0
 11 28  1  0  0  0  0
 12 29  1  0  0  0  0
 13 19  2  0  0  0  0
 13 25  1  0  0  0  0
 14 19  1  0  0  0  0
 14 30  2  0  0  0  0
 15 24  1  0  0  0  0
 15 27  2  0  0  0  0
 16 25  2  0  0  0  0
 16 30  1  0  0  0  0
 17 29  2  0  0  0  0
 17 31  1  0  0  0  0
 18 32  1  0  0  0  0
 19 35  1  0  0  0  0
 20 32  1  0  0  0  0
 20 33  2  0  0  0  0
 20 36  1  0  0  0  0
 21 23  2  0  0  0  0
 21 41  1  0  0  0  0
 22 24  2  0  0  0  0
 22 42  1  0  0  0  0
 23 52  1  0  0  0  0
 24 43  1  0  0  0  0
 25 71  1  0  0  0  0
 26 82  1  0  0  0  0
 27 83  1  0  0  0  0
 28 31  2  0  0  0  0
 28 82  1  0  0  0  0
 29 84  1  0  0  0  0
 30 85  1  0  0  0  0
 31 86  1  0  0  0  0
 32 64  2  0  0  0  0
 33 65  1  0  0  0  0
 33 69  1  0  0  0  0
 34 53  1  0  0  0  0
 34 66  1  0  0  0  0
 34 76  2  0  0  0  0
 35 66  1  0  0  0  0
 35 74  2  0  0  0  0
 36 70  1  0  0  0  0
 36 77  2  0  0  0  0
 37 54  1  0  0  0  0
 37 72  1  0  0  0  0
 37 78  2  0  0  0  0
 38 61  1  0  0  0  0
 38 67  1  0  0  0  0
 38 79  2  0  0  0  0
 39 62  1  0  0  0  0
 39 73  1  0  0  0  0
 39 80  2  0  0  0  0
 40 68  1  0  0  0  0
 40 71  1  0  0  0  0
 40 81  2  0  0  0  0
 41 44  1  0  0  0  0
 42 54  1  0  0  0  0
 43 67  1  0  0  0  0
 44 46  1  0  0  0  0
 45 47  1  0  0  0  0
 45 49  1  0  0  0  0
 46 52  1  0  0  0  0
 47 55  1  0  0  0  0
 48 50  1  0  0  0  0
 48 53  1  0  0  0  0
 49 68  1  0  0  0  0
 50 66  1  0  0  0  0
 51 55  1  0  0  0  0
 51 68  1  0  0  0  0
 52 72  1  0  0  0  0
 53 83  1  0  0  0  0
 54 67  1  0  0  0  0
 55 65  1  0  0  0  0
 56 62  1  0  0  0  0
 57 63  1  0  0  0  0
 58 63  1  0  0  0  0
 59 63  1  0  0  0  0
 60 75  1  0  0  0  0
 61 63  1  0  0  0  0
 61 73  1  0  0  0  0
 62 75  1  0  0  0  0
 64 65  1  0  0  0  0
M  CHG  2  74   1  75   1
M  ISO  4  40 100  53 101  71 100  83 101
M  END
> <Batch ID>
0156

> <Smiles>
CNC(C)C(=O)NC(C(=O)N1Cc2cc([101O:1][101CH:1]3CCN(C(=N)c4cc(F)cc([100NH:0][100C:0](=O)N5CCCC(n6nc(-c7ccc(Oc8ccc(F)cc8F)cc7)c(C(N)=O)c6N)C5)c4)C3=O)ccc2CC1C(=O)NC1CCCc2ccccc21)C(C)(C)C

> <Shape>
0.193

> <Color>
0.199

> <Negative vol penalty>
0.000

$$$$

  -OEChem-04052303393D

 85 93  0     1  0  0  0  0  0999 V2000
  -28.4436  -24.1418   17.2006 C   0  0  0  0  0  0  0  0  0  0  0  0
  -27.2801  -24.8378   17.5082 C   0  0  0  0  0  0  0  0  0  0  0  0
  -25.6406  -13.4832   20.0838 C   0  0  0  0  0  0  0  0  0  0  0  0
  -23.6636  -14.8715   20.1086 C   0  0  0  0  0  0  0  0  0  0  0  0
  -29.5646  -24.2699   18.0180 C   0  0  0  0  0  0  0  0  0  0  0  0
  -27.2409  -25.6713   18.6265 C   0  0  0  0  0  0  0  0  0  0  0  0
  -23.2094  -28.4279   19.2191 C   0  0  0  0  0  0  0  0  0  0  0  0
  -24.9702  -12.5151   20.8313 C   0  0  0  0  0  0  0  0  0  0  0  0
  -22.9931  -13.9034   20.8561 C   0  0  0  0  0  0  0  0  0  0  0  0
  -21.9797  -27.8928   19.6003 C   0  0  0  0  0  0  0  0  0  0  0  0
  -22.6998  -10.0713   20.2782 C   0  0  0  0  0  0  0  0  0  0  0  0
  -22.8260   -8.7411   19.8781 C   0  0  0  0  0  0  0  0  0  0  0  0
  -26.0757  -23.8664   21.8403 C   0  0  0  0  0  0  0  0  0  0  0  0
  -22.3142  -28.7327   21.8368 C   0  0  0  0  0  0  0  0  0  0  0  0
  -24.1517  -22.9720   20.7076 C   0  0  0  0  0  0  0  0  0  0  0  0
  -23.7896   -8.1873   22.0233 C   0  0  0  0  0  0  0  0  0  0  0  0
  -25.2360  -24.8129   22.4049 C   0  0  0  0  0  0  0  0  0  0  0  0
  -24.9873  -14.6615   19.7224 C   0  0  0  0  0  0  0  0  0  0  0  0
  -25.7347  -15.7662   17.5479 C   0  0  0  0  0  0  0  0  0  0  0  0
  -29.5343  -25.0959   19.1537 C   0  0  0  0  0  0  0  0  0  0  0  0
  -24.0070  -29.1112   20.1483 C   0  0  0  0  0  0  0  0  0  0  0  0
  -28.3695  -25.8325   19.4504 C   0  0  0  0  0  0  0  0  0  0  0  0
  -23.5524  -29.2778   21.4642 C   0  0  0  0  0  0  0  0  0  0  0  0
  -25.5153  -22.9319   20.9765 C   0  0  0  0  0  0  0  0  0  0  0  0
  -23.6465  -12.7251   21.2175 C   0  0  0  0  0  0  0  0  0  0  0  0
  -21.5333  -28.0426   20.9100 C   0  0  0  0  0  0  0  0  0  0  0  0
  -23.1186  -10.4596   21.5508 C   0  0  0  0  0  0  0  0  0  0  0  0
  -23.3708   -7.7991   20.7507 C   0  0  0  0  0  0  0  0  0  0  0  0
  -23.6634   -9.5176   22.4234 C   0  0  0  0  0  0  0  0  0  0  0  0
  -25.6795  -15.6622   18.9507 C   0  0  0  0  0  0  0  0  0  0  0  0
  -23.3982  -23.9585   21.3231 C   0  0  0  0  0  0  0  0  0  0  0  0
  -26.5100  -16.8759   17.3161 C   0  0  0  0  0  0  0  0  0  0  0  0
  -25.1383  -14.9341   16.5441 C   0  0  0  0  0  0  0  0  0  0  0  0
  -21.9445  -24.0626   21.0854 C   0  0  0  0  0  0  0  0  0  0  0  0
  -26.9056  -28.6645   21.3739 C   0  0  0  0  0  0  0  0  0  0  0  0
  -26.3495  -31.5554   22.7361 C   0  0  0  0  0  0  0  0  0  0  0  0
  -24.0760  -33.8646   23.8064 C   0  0  0  0  0  0  0  0  0  0  0  0
  -27.7045  -21.7661   20.5355 C   0  0  0  0  0  0  0  0  0  0  0  0
  -30.7788  -25.2038   19.9993 C   0  0  0  0  0  0  0  0  0  0  0  0
  -25.3188  -29.7058   19.7145 C   0  0  0  0  0  0  0  0  0  0  0  0
  -24.3618  -30.0205   22.4948 C   0  0  0  0  0  0  0  0  0  0  0  0
  -30.5034  -25.7543   21.3948 C   0  0  0  0  0  0  0  0  0  0  0  0
  -30.0669  -19.4304   19.2545 C   0  0  0  0  0  0  0  0  0  0  0  0
  -29.6650  -27.0202   21.2981 C   0  0  0  0  0  0  0  0  0  0  0  0
  -29.2141  -18.2107   18.8979 C   0  0  0  0  0  0  0  0  0  0  0  0
  -29.5669  -20.1210   20.5221 C   0  0  0  0  0  0  0  0  0  0  0  0
  -27.2891  -19.2559   20.1585 C   0  0  0  0  0  0  0  0  0  0  0  0
  -28.2939  -26.7211   20.6788 C   0  0  1  0  0  0  0  0  0  0  0  0
  -26.2825  -29.9372   20.8742 C   0  0  1  0  0  0  0  0  0  0  0  0
  -27.7148  -18.5652   18.8526 C   0  0  2  0  0  0  0  0  0  0  0  0
  -23.9223  -36.1123   24.9117 C   0  0  0  0  0  0  0  0  0  0  0  0
  -27.0103  -30.2753   25.4258 C   0  0  0  0  0  0  0  0  0  0  0  0
  -25.9403  -32.2421   26.5460 C   0  0  0  0  0  0  0  0  0  0  0  0
  -27.9493  -32.5708   25.1042 C   0  0  0  0  0  0  0  0  0  0  0  0
  -17.8438  -26.3175   22.2352 C   0  0  0  0  0  0  0  0  0  0  0  0
  -19.0961  -25.5330   24.2533 C   0  0  0  0  0  0  0  0  0  0  0  0
  -22.7066  -35.0508   21.4662 C   0  0  0  0  0  0  0  0  0  0  0  0
  -19.7209  -24.7008   21.9485 C   0  0  0  0  0  0  0  0  0  0  0  0
  -20.2012  -27.1085   22.6447 C   0  0  0  0  0  0  0  0  0  1  0  0
  -25.7271  -32.0264   24.0283 C   0  0  1  0  0  0  0  0  0  0  0  0
  -23.9848  -35.3642   23.5891 C   0  0  2  0  0  0  0  0  0  0  0  0
  -26.6421  -31.7629   25.2574 C   0  0  0  0  0  0  0  0  0  0  0  0
  -19.2323  -25.9126   22.7681 C   0  0  0  0  0  0  0  0  0  0  0  0
  -23.9070  -24.8833   22.1677 N   0  0  0  0  0  0  0  0  0  0  0  0
  -26.3653  -16.6287   19.5668 N   0  0  0  0  0  0  0  0  0  0  0  0
  -26.8589  -17.3505   18.5462 N   0  0  0  0  0  0  0  0  0  0  0  0
  -25.6403  -30.5780   22.0236 N   0  0  0  0  0  0  0  0  0  0  0  0
  -28.1403  -20.4305   20.4051 N   0  0  0  0  0  0  0  0  0  0  0  0
  -26.9207  -17.4823   16.1820 N   0  0  0  0  0  0  0  0  0  0  0  0
  -24.3725  -13.8348   16.9559 N   0  0  0  0  0  0  0  0  0  0  0  0
  -21.4709  -23.6646   19.9046 N   0  0  0  0  0  0  0  0  0  0  0  0
  -26.3309  -21.9429   20.3728 N   0  0  0  0  0  0  0  0  0  0  0  0
  -27.6139  -27.9695   20.4122 N   0  0  0  0  0  0  0  0  0  0  0  0
  -25.3845  -33.4303   23.8284 N   0  0  0  0  0  0  0  0  0  0  0  0
  -21.1743  -24.5527   22.0638 N   0  3  0  0  0  0  0  0  0  0  0  0
  -22.7654  -35.7002   22.8010 N   0  3  0  0  0  0  0  0  0  0  0  0
  -25.2939  -15.1491   15.3181 O   0  0  0  0  0  0  0  0  0  0  0  0
  -26.7562  -28.3379   22.5455 O   0  0  0  0  0  0  0  0  0  0  0  0
  -27.4218  -32.0421   22.3687 O   0  0  0  0  0  0  0  0  0  0  0  0
  -23.0856  -33.1504   23.9466 O   0  0  0  0  0  0  0  0  0  0  0  0
  -28.4954  -22.6890   20.7469 O   0  0  0  0  0  0  0  0  0  0  0  0
  -22.9919  -11.7806   21.9468 O   0  0  0  0  0  0  0  0  0  0  0  0
  -20.3337  -27.5206   21.2849 O   0  0  0  0  0  0  0  0  0  1  0  0
  -23.4905   -6.5213   20.3669 F   0  0  0  0  0  0  0  0  0  0  0  0
  -24.0664   -9.8845   23.6477 F   0  0  0  0  0  0  0  0  0  0  0  0
  1  2  1  0  0  0  0
  1  5  2  0  0  0  0
  2  6  2  0  0  0  0
  3  8  2  0  0  0  0
  3 18  1  0  0  0  0
  4  9  1  0  0  0  0
  4 18  2  0  0  0  0
  5 20  1  0  0  0  0
  6 22  1  0  0  0  0
  7 10  2  0  0  0  0
  7 21  1  0  0  0  0
  8 25  1  0  0  0  0
  9 25  2  0  0  0  0
 10 26  1  0  0  0  0
 11 12  2  0  0  0  0
 11 27  1  0  0  0  0
 12 28  1  0  0  0  0
 13 17  2  0  0  0  0
 13 24  1  0  0  0  0
 14 23  1  0  0  0  0
 14 26  2  0  0  0  0
 15 24  2  0  0  0  0
 15 31  1  0  0  0  0
 16 28  2  0  0  0  0
 16 29  1  0  0  0  0
 17 64  1  0  0  0  0
 18 30  1  0  0  0  0
 19 30  1  0  0  0  0
 19 32  2  0  0  0  0
 19 33  1  0  0  0  0
 20 22  2  0  0  0  0
 20 39  1  0  0  0  0
 21 23  2  0  0  0  0
 21 40  1  0  0  0  0
 22 48  1  0  0  0  0
 23 41  1  0  0  0  0
 24 72  1  0  0  0  0
 25 82  1  0  0  0  0
 26 83  1  0  0  0  0
 27 29  2  0  0  0  0
 27 82  1  0  0  0  0
 28 84  1  0  0  0  0
 29 85  1  0  0  0  0
 30 65  2  0  0  0  0
 31 34  1  0  0  0  0
 31 64  2  0  0  0  0
 32 66  1  0  0  0  0
 32 69  1  0  0  0  0
 33 70  1  0  0  0  0
 33 77  2  0  0  0  0
 34 71  1  0  0  0  0
 34 75  2  0  0  0  0
 35 49  1  0  0  0  0
 35 73  1  0  0  0  0
 35 78  2  0  0  0  0
 36 60  1  0  0  0  0
 36 67  1  0  0  0  0
 36 79  2  0  0  0  0
 37 61  1  0  0  0  0
 37 74  1  0  0  0  0
 37 80  2  0  0  0  0
 38 68  1  0  0  0  0
 38 72  1  0  0  0  0
 38 81  2  0  0  0  0
 39 42  1  0  0  0  0
 40 49  1  0  0  0  0
 41 67  1  0  0  0  0
 42 44  1  0  0  0  0
 43 45  1  0  0  0  0
 43 46  1  0  0  0  0
 44 48  1  0  0  0  0
 45 50  1  0  0  0  0
 46 68  1  0  0  0  0
 47 50  1  0  0  0  0
 47 68  1  0  0  0  0
 48 73  1  0  0  0  0
 49 67  1  0  0  0  0
 50 66  1  0  0  0  0
 51 61  1  0  0  0  0
 52 62  1  0  0  0  0
 53 62  1  0  0  0  0
 54 62  1  0  0  0  0
 55 63  1  0  0  0  0
 56 63  1  0  0  0  0
 57 76  1  0  0  0  0
 58 63  1  0  0  0  0
 58 75  1  0  0  0  0
 59 63  1  0  0  0  0
 59 83  1  0  0  0  0
 60 62  1  0  0  0  0
 60 74  1  0  0  0  0
 61 76  1  0  0  0  0
 65 66  1  0  0  0  0
M  CHG  2  75   1  76   1
M  ISO  4  38 100  59 101  72 100  83 101
M  END
> <Batch ID>
0156

> <Smiles>
CNC(C)C(=O)NC(C(=O)N1Cc2cc([101O:1][101CH2:1]C(C)(C)CNC(=N)c3cc([100NH:0][100C:0](=O)N4CCCC(n5nc(-c6ccc(Oc7ccc(F)cc7F)cc6)c(C(N)=O)c5N)C4)ccn3)ccc2CC1C(=O)NC1CCCc2ccccc21)C(C)(C)C

> <Shape>
0.328

> <Color>
0.069

> <Negative vol penalty>
0.000

$$$$

  -OEChem-04052303393D

 84 92  0     1  0  0  0  0  0999 V2000
  -30.6981  -24.3971   18.3882 C   0  0  0  0  0  0  0  0  0  0  0  0
  -29.3120  -24.3429   18.4947 C   0  0  0  0  0  0  0  0  0  0  0  0
  -27.6744  -15.0291   19.9130 C   0  0  0  0  0  0  0  0  0  0  0  0
  -25.3155  -15.4655   20.1994 C   0  0  0  0  0  0  0  0  0  0  0  0
  -31.4438  -25.0788   19.3489 C   0  0  0  0  0  0  0  0  0  0  0  0
  -28.6709  -24.9695   19.5628 C   0  0  0  0  0  0  0  0  0  0  0  0
  -23.2036  -27.7272   19.4696 C   0  0  0  0  0  0  0  0  0  0  0  0
  -27.4449  -13.6660   20.0992 C   0  0  0  0  0  0  0  0  0  0  0  0
  -25.0859  -14.1023   20.3855 C   0  0  0  0  0  0  0  0  0  0  0  0
  -21.9321  -27.3024   19.8526 C   0  0  0  0  0  0  0  0  0  0  0  0
  -25.4261  -11.8352   22.8705 C   0  0  0  0  0  0  0  0  0  0  0  0
  -24.5902  -11.4563   23.9209 C   0  0  0  0  0  0  0  0  0  0  0  0
  -22.2292  -28.3663   21.9971 C   0  0  0  0  0  0  0  0  0  0  0  0
  -23.0922  -10.3992   22.3475 C   0  0  0  0  0  0  0  0  0  0  0  0
  -22.5872  -22.5820   23.7840 C   0  0  0  0  0  0  0  0  0  0  0  0
  -26.6097  -15.9289   19.9632 C   0  0  0  0  0  0  0  0  0  0  0  0
  -26.8292  -18.0442   18.5543 C   0  0  0  0  0  0  0  0  0  0  0  0
  -30.8108  -25.7224   20.4240 C   0  0  0  0  0  0  0  0  0  0  0  0
  -24.0031  -28.4667   20.3530 C   0  0  0  0  0  0  0  0  0  0  0  0
  -29.4090  -25.6594   20.5395 C   0  0  0  0  0  0  0  0  0  0  0  0
  -23.5095  -28.8014   21.6220 C   0  0  0  0  0  0  0  0  0  0  0  0
  -26.1506  -13.2025   20.3354 C   0  0  0  0  0  0  0  0  0  0  0  0
  -21.4459  -27.6194   21.1176 C   0  0  0  0  0  0  0  0  0  0  0  0
  -25.0949  -11.4962   21.5586 C   0  0  0  0  0  0  0  0  0  0  0  0
  -23.4233  -10.7383   23.6594 C   0  0  0  0  0  0  0  0  0  0  0  0
  -23.9280  -10.7781   21.2971 C   0  0  0  0  0  0  0  0  0  0  0  0
  -26.8463  -17.3373   19.7715 C   0  0  0  0  0  0  0  0  0  0  0  0
  -23.9161  -22.9116   24.1021 C   0  0  0  0  0  0  0  0  0  0  0  0
  -27.1111  -19.3415   18.9066 C   0  0  0  0  0  0  0  0  0  0  0  0
  -21.8526  -23.5603   24.4000 C   0  0  0  0  0  0  0  0  0  0  0  0
  -26.5806  -17.5706   17.2240 C   0  0  0  0  0  0  0  0  0  0  0  0
  -26.8236  -28.0078   21.7451 C   0  0  0  0  0  0  0  0  0  0  0  0
  -18.9729  -25.8475   23.0753 C   0  0  0  0  0  0  0  0  0  0  0  0
  -26.3812  -31.0568   22.7600 C   0  0  0  0  0  0  0  0  0  0  0  0
  -24.2034  -33.5858   23.4731 C   0  0  0  0  0  0  0  0  0  0  0  0
  -26.3882  -22.4483   23.9593 C   0  0  0  0  0  0  0  0  0  0  0  0
  -31.6625  -26.4069   21.4636 C   0  0  0  0  0  0  0  0  0  0  0  0
  -25.3618  -28.9403   19.9149 C   0  0  0  0  0  0  0  0  0  0  0  0
  -24.3202  -29.6104   22.6002 C   0  0  0  0  0  0  0  0  0  0  0  0
  -30.8790  -27.3620   22.3603 C   0  0  0  0  0  0  0  0  0  0  0  0
  -29.4434  -21.9009   22.2148 C   0  0  0  0  0  0  0  0  0  0  0  0
  -29.5922  -26.7028   22.8468 C   0  0  0  0  0  0  0  0  0  0  0  0
  -29.1208  -20.7368   21.2752 C   0  0  0  0  0  0  0  0  0  0  0  0
  -28.7407  -21.7528   23.5632 C   0  0  0  0  0  0  0  0  0  0  0  0
  -26.9669  -20.3777   22.5475 C   0  0  0  0  0  0  0  0  0  0  0  0
  -28.6753  -26.3476   21.6701 C   0  0  1  0  0  0  0  0  0  0  0  0
  -26.2928  -29.2481   21.0836 C   0  0  1  0  0  0  0  0  0  0  0  0
  -27.6003  -20.5155   21.1534 C   0  0  2  0  0  0  0  0  0  0  0  0
  -24.1357  -35.9470   24.3202 C   0  0  0  0  0  0  0  0  0  0  0  0
  -17.5253  -24.3427   24.5062 C   0  0  0  0  0  0  0  0  0  0  0  0
  -18.0665  -26.6569   25.2674 C   0  0  0  0  0  0  0  0  0  0  0  0
  -26.8667  -30.0498   25.5990 C   0  0  0  0  0  0  0  0  0  0  0  0
  -25.8684  -32.1817   26.4514 C   0  0  0  0  0  0  0  0  0  0  0  0
  -27.9456  -32.2434   25.0714 C   0  0  0  0  0  0  0  0  0  0  0  0
  -22.9924  -34.5753   20.9605 C   0  0  0  0  0  0  0  0  0  0  0  0
  -19.9987  -26.9540   22.8835 C   0  0  0  0  0  0  0  0  0  1  0  0
  -19.9108  -24.9149   25.1873 C   0  0  0  0  0  0  0  0  0  0  0  0
  -25.7382  -31.6999   23.9650 C   0  0  1  0  0  0  0  0  0  0  0  0
  -24.2055  -35.0548   23.0906 C   0  0  2  0  0  0  0  0  0  0  0  0
  -18.6164  -25.4255   24.5197 C   0  0  0  0  0  0  0  0  0  0  0  0
  -26.5900  -31.5268   25.2542 C   0  0  0  0  0  0  0  0  0  0  0  0
  -27.1178  -18.1204   20.8189 N   0  0  0  0  0  0  0  0  0  0  0  0
  -23.9993  -24.0103   24.8575 N   0  0  0  0  0  0  0  0  0  0  0  0
  -27.2739  -19.3329   20.2607 N   0  0  0  0  0  0  0  0  0  0  0  0
  -25.6451  -30.0449   22.1275 N   0  0  0  0  0  0  0  0  0  0  0  0
  -27.3032  -21.5508   23.3694 N   0  0  0  0  0  0  0  0  0  0  0  0
  -27.2331  -20.4772   18.1871 N   0  0  0  0  0  0  0  0  0  0  0  0
  -26.3070  -16.2084   17.0399 N   0  0  0  0  0  0  0  0  0  0  0  0
  -25.0499  -22.1747   23.6788 N   0  0  0  0  0  0  0  0  0  0  0  0
  -20.4908  -23.8031   24.4694 N   0  0  0  0  0  0  0  0  0  0  0  0
  -27.9931  -27.5288   21.1865 N   0  0  0  0  0  0  0  0  0  0  0  0
  -25.4834  -33.0890   23.5992 N   0  0  0  0  0  0  0  0  0  0  0  0
  -23.0376  -35.3646   22.2182 N   0  3  0  0  0  0  0  0  0  0  0  0
  -26.6166  -18.3299   16.2261 O   0  0  0  0  0  0  0  0  0  0  0  0
  -26.2177  -27.5222   22.6932 O   0  0  0  0  0  0  0  0  0  0  0  0
  -18.4142  -25.3385   22.1003 O   0  0  0  0  0  0  0  0  0  0  0  0
  -27.4924  -31.4433   22.3891 O   0  0  0  0  0  0  0  0  0  0  0  0
  -23.1696  -32.9441   23.6467 O   0  0  0  0  0  0  0  0  0  0  0  0
  -26.7654  -23.4061   24.6392 O   0  0  0  0  0  0  0  0  0  0  0  0
  -22.6841  -24.4188   25.0440 O   0  0  0  0  0  0  0  0  0  0  0  0
  -25.9262  -11.8724   20.5169 O   0  0  0  0  0  0  0  0  0  0  0  0
  -20.2054  -27.2055   21.4942 O   0  0  0  0  0  0  0  0  0  1  0  0
  -22.6215  -10.3731   24.6684 F   0  0  0  0  0  0  0  0  0  0  0  0
  -23.6053  -10.4485   20.0389 F   0  0  0  0  0  0  0  0  0  0  0  0
  1  2  1  0  0  0  0
  1  5  2  0  0  0  0
  2  6  2  0  0  0  0
  3  8  2  0  0  0  0
  3 16  1  0  0  0  0
  4  9  1  0  0  0  0
  4 16  2  0  0  0  0
  5 18  1  0  0  0  0
  6 20  1  0  0  0  0
  7 10  2  0  0  0  0
  7 19  1  0  0  0  0
  8 22  1  0  0  0  0
  9 22  2  0  0  0  0
 10 23  1  0  0  0  0
 11 12  2  0  0  0  0
 11 24  1  0  0  0  0
 12 25  1  0  0  0  0
 13 21  1  0  0  0  0
 13 23  2  0  0  0  0
 14 25  2  0  0  0  0
 14 26  1  0  0  0  0
 15 28  1  0  0  0  0
 15 30  2  0  0  0  0
 16 27  1  0  0  0  0
 17 27  1  0  0  0  0
 17 29  2  0  0  0  0
 17 31  1  0  0  0  0
 18 20  2  0  0  0  0
 18 37  1  0  0  0  0
 19 21  2  0  0  0  0
 19 38  1  0  0  0  0
 20 46  1  0  0  0  0
 21 39  1  0  0  0  0
 22 81  1  0  0  0  0
 23 82  1  0  0  0  0
 24 26  2  0  0  0  0
 24 81  1  0  0  0  0
 25 83  1  0  0  0  0
 26 84  1  0  0  0  0
 27 62  2  0  0  0  0
 28 63  2  0  0  0  0
 28 69  1  0  0  0  0
 29 64  1  0  0  0  0
 29 67  1  0  0  0  0
 30 70  1  0  0  0  0
 30 80  1  0  0  0  0
 31 68  1  0  0  0  0
 31 74  2  0  0  0  0
 32 47  1  0  0  0  0
 32 71  1  0  0  0  0
 32 75  2  0  0  0  0
 33 56  1  0  0  0  0
 33 60  1  0  0  0  0
 33 76  2  0  0  0  0
 34 58  1  0  0  0  0
 34 65  1  0  0  0  0
 34 77  2  0  0  0  0
 35 59  1  0  0  0  0
 35 72  1  0  0  0  0
 35 78  2  0  0  0  0
 36 66  1  0  0  0  0
 36 69  1  0  0  0  0
 36 79  2  0  0  0  0
 37 40  1  0  0  0  0
 38 47  1  0  0  0  0
 39 65  1  0  0  0  0
 40 42  1  0  0  0  0
 41 43  1  0  0  0  0
 41 44  1  0  0  0  0
 42 46  1  0  0  0  0
 43 48  1  0  0  0  0
 44 66  1  0  0  0  0
 45 48  1  0  0  0  0
 45 66  1  0  0  0  0
 46 71  1  0  0  0  0
 47 65  1  0  0  0  0
 48 64  1  0  0  0  0
 49 59  1  0  0  0  0
 50 60  1  0  0  0  0
 51 60  1  0  0  0  0
 52 61  1  0  0  0  0
 53 61  1  0  0  0  0
 54 61  1  0  0  0  0
 55 73  1  0  0  0  0
 56 82  1  0  0  0  0
 57 60  1  0  0  0  0
 57 70  1  0  0  0  0
 58 61  1  0  0  0  0
 58 72  1  0  0  0  0
 59 73  1  0  0  0  0
 62 64  1  0  0  0  0
 63 80  1  0  0  0  0
M  CHG  1  73   1
M  ISO  4  36 100  56 101  69 100  82 101
M  END
> <Batch ID>
0156

> <Smiles>
CNC(C)C(=O)NC(C(=O)N1Cc2cc([101O:1][101CH2:1]C(=O)C(C)(C)CNc3cc([100NH:0][100C:0](=O)N4CCCC(n5nc(-c6ccc(Oc7ccc(F)cc7F)cc6)c(C(N)=O)c5N)C4)no3)ccc2CC1C(=O)NC1CCCc2ccccc21)C(C)(C)C

> <Shape>
0.267

> <Color>
0.056

> <Negative vol penalty>
0.000

$$$$

  -OEChem-04052303393D

 84 93  0     1  0  0  0  0  0999 V2000
  -19.7912  -37.9024   21.6978 C   0  0  0  0  0  0  0  0  0  0  0  0
  -20.2689  -37.2421   20.5703 C   0  0  0  0  0  0  0  0  0  0  0  0
  -24.3579   -8.9258   21.2381 C   0  0  0  0  0  0  0  0  0  0  0  0
  -25.0246  -10.0561   23.2667 C   0  0  0  0  0  0  0  0  0  0  0  0
  -20.5139  -37.8571   22.8892 C   0  0  0  0  0  0  0  0  0  0  0  0
  -21.4702  -36.5370   20.6333 C   0  0  0  0  0  0  0  0  0  0  0  0
  -25.5748  -20.7572   20.8603 C   0  0  0  0  0  0  0  0  0  0  0  0
  -22.9669  -29.0488   18.9862 C   0  0  0  0  0  0  0  0  0  0  0  0
  -25.8943  -19.4290   20.5788 C   0  0  0  0  0  0  0  0  0  0  0  0
  -24.0757   -7.7740   21.9726 C   0  0  0  0  0  0  0  0  0  0  0  0
  -24.7423   -8.9043   24.0012 C   0  0  0  0  0  0  0  0  0  0  0  0
  -23.3237  -27.7046   18.8766 C   0  0  0  0  0  0  0  0  0  0  0  0
  -21.5885   -6.6336   23.9590 C   0  0  0  0  0  0  0  0  0  0  0  0
  -20.3947   -5.9663   23.6849 C   0  0  0  0  0  0  0  0  0  0  0  0
  -25.1190  -28.0408   20.4614 C   0  0  0  0  0  0  0  0  0  0  0  0
  -28.2124  -19.8781   21.0909 C   0  0  0  0  0  0  0  0  0  0  0  0
  -21.6400   -3.9837   23.0884 C   0  0  0  0  0  0  0  0  0  0  0  0
  -24.8325  -10.0668   21.8852 C   0  0  0  0  0  0  0  0  0  0  0  0
  -24.2295  -12.0029   20.3374 C   0  0  0  0  0  0  0  0  0  0  0  0
  -21.7199  -37.1430   22.9695 C   0  0  0  0  0  0  0  0  0  0  0  0
  -23.6761  -29.8916   19.8465 C   0  0  0  0  0  0  0  0  0  0  0  0
  -22.2105  -36.4832   21.8266 C   0  0  0  0  0  0  0  0  0  0  0  0
  -26.5741  -21.6460   21.2570 C   0  0  0  0  0  0  0  0  0  0  0  0
  -24.7584  -29.3852   20.5848 C   0  0  0  0  0  0  0  0  0  0  0  0
  -27.2131  -18.9894   20.6941 C   0  0  0  0  0  0  0  0  0  0  0  0
  -24.2679   -7.7633   23.3541 C   0  0  0  0  0  0  0  0  0  0  0  0
  -24.3972  -27.2019   19.6122 C   0  0  0  0  0  0  0  0  0  0  0  0
  -22.8080   -5.9760   23.7978 C   0  0  0  0  0  0  0  0  0  0  0  0
  -20.4205   -4.6413   23.2496 C   0  0  0  0  0  0  0  0  0  0  0  0
  -27.8928  -21.2064   21.3723 C   0  0  0  0  0  0  0  0  0  0  0  0
  -22.8338   -4.6511   23.3625 C   0  0  0  0  0  0  0  0  0  0  0  0
  -25.1248  -11.2566   21.1269 C   0  0  0  0  0  0  0  0  0  0  0  0
  -24.9903  -13.0287   19.8321 C   0  0  0  0  0  0  0  0  0  0  0  0
  -22.8348  -11.7881   20.0837 C   0  0  0  0  0  0  0  0  0  0  0  0
  -24.0694  -33.3375   21.2771 C   0  0  0  0  0  0  0  0  0  0  0  0
  -24.5258  -31.3603   23.5776 C   0  0  0  0  0  0  0  0  0  0  0  0
  -24.5437  -28.8753   25.9146 C   0  0  0  0  0  0  0  0  0  0  0  0
  -28.7961  -17.0425   20.4707 C   0  0  0  0  0  0  0  0  0  0  0  0
  -22.4898  -37.1621   24.2663 C   0  0  0  0  0  0  0  0  0  0  0  0
  -23.3658  -31.3602   19.9498 C   0  0  0  0  0  0  0  0  0  0  0  0
  -25.5143  -30.3367   21.4715 C   0  0  0  0  0  0  0  0  0  0  0  0
  -23.5646  -36.0815   24.3524 C   0  0  0  0  0  0  0  0  0  0  0  0
  -24.9079  -24.6601   23.0616 C   0  0  0  0  0  0  0  0  0  0  0  0
  -30.0009  -13.7451   19.8770 C   0  0  0  0  0  0  0  0  0  0  0  0
  -25.2502  -23.2029   22.7530 C   0  0  0  0  0  0  0  0  0  0  0  0
  -24.3815  -36.0372   23.0649 C   0  0  0  0  0  0  0  0  0  0  0  0
  -28.7661  -12.8651   20.0843 C   0  0  0  0  0  0  0  0  0  0  0  0
  -24.3652  -25.3818   21.8330 C   0  0  0  0  0  0  0  0  0  0  0  0
  -25.6660  -23.8181   20.3293 C   0  0  0  0  0  0  0  0  0  0  0  0
  -30.0304  -14.9199   20.8530 C   0  0  0  0  0  0  0  0  0  0  0  0
  -27.5781  -14.8608   21.0808 C   0  0  0  0  0  0  0  0  0  0  0  0
  -26.2217  -23.0900   21.5642 C   0  0  2  0  0  0  0  0  0  0  0  0
  -23.4970  -35.6872   21.8622 C   0  0  1  0  0  0  0  0  0  0  0  0
  -23.5762  -31.9233   21.3668 C   0  0  1  0  0  0  0  0  0  0  0  0
  -27.4710  -13.7008   20.0776 C   0  0  2  0  0  0  0  0  0  0  0  0
  -25.3230  -25.2744   20.6476 C   0  0  1  0  0  0  0  0  0  1  0  0
  -24.8378  -28.4887   28.3766 C   0  0  0  0  0  0  0  0  0  0  0  0
  -27.5377  -31.7340   23.2727 C   0  0  0  0  0  0  0  0  0  0  0  0
  -27.8409  -30.4493   25.4001 C   0  0  0  0  0  0  0  0  0  0  0  0
  -26.5894  -32.6072   25.4158 C   0  0  0  0  0  0  0  0  0  0  0  0
  -21.8154  -27.7604   26.1833 C   0  0  0  0  0  0  0  0  0  0  0  0
  -25.5215  -30.5625   24.3811 C   0  0  1  0  0  0  0  0  0  0  0  0
  -23.8435  -28.7482   27.2555 C   0  0  2  0  0  0  0  0  0  0  0  0
  -26.8584  -31.3268   24.5955 C   0  0  0  0  0  0  0  0  0  0  0  0
  -26.3599  -11.7650   21.1262 N   0  0  0  0  0  0  0  0  0  0  0  0
  -26.2462  -12.8416   20.3299 N   0  0  0  0  0  0  0  0  0  0  0  0
  -24.5729  -31.2130   22.1860 N   0  0  0  0  0  0  0  0  0  0  0  0
  -28.7730  -15.6680   20.7883 N   0  0  0  0  0  0  0  0  0  0  0  0
  -24.7008  -14.0634   19.0148 N   0  0  0  0  0  0  0  0  0  0  0  0
  -21.9001  -12.3811   20.9434 N   0  0  0  0  0  0  0  0  0  0  0  0
  -27.5381  -17.6406   20.4062 N   0  0  0  0  0  0  0  0  0  0  0  0
  -23.2154  -34.2679   21.8379 N   0  0  0  0  0  0  0  0  0  0  0  0
  -24.8424  -30.1880   25.6168 N   0  0  0  0  0  0  0  0  0  0  0  0
  -22.8659  -27.6238   27.2249 N   0  3  0  0  0  0  0  0  0  0  0  0
  -22.4297  -11.0775   19.1326 O   0  0  0  0  0  0  0  0  0  0  0  0
  -25.1463  -33.5690   20.7400 O   0  0  0  0  0  0  0  0  0  0  0  0
  -23.7307  -32.0992   24.1649 O   0  0  0  0  0  0  0  0  0  0  0  0
  -24.8033  -27.9065   25.2042 O   0  0  0  0  0  0  0  0  0  0  0  0
  -29.8522  -17.6385   20.2438 O   0  0  0  0  0  0  0  0  0  0  0  0
  -23.9923   -6.6397   24.0711 O   0  0  0  0  0  0  0  0  0  0  0  0
  -24.7373  -25.8876   19.5039 O   0  0  0  0  0  0  0  0  0  1  0  0
  -19.2739   -4.0001   22.9878 F   0  0  0  0  0  0  0  0  0  0  0  0
  -28.8598  -22.0529   21.7529 F   0  0  0  0  0  0  0  0  0  0  0  0
  -24.0023   -4.0137   23.2069 F   0  0  0  0  0  0  0  0  0  0  0  0
  1  2  1  0  0  0  0
  1  5  2  0  0  0  0
  2  6  2  0  0  0  0
  3 10  2  0  0  0  0
  3 18  1  0  0  0  0
  4 11  1  0  0  0  0
  4 18  2  0  0  0  0
  5 20  1  0  0  0  0
  6 22  1  0  0  0  0
  7  9  2  0  0  0  0
  7 23  1  0  0  0  0
  8 12  2  0  0  0  0
  8 21  1  0  0  0  0
  9 25  1  0  0  0  0
 10 26  1  0  0  0  0
 11 26  2  0  0  0  0
 12 27  1  0  0  0  0
 13 14  2  0  0  0  0
 13 28  1  0  0  0  0
 14 29  1  0  0  0  0
 15 24  1  0  0  0  0
 15 27  2  0  0  0  0
 16 25  2  0  0  0  0
 16 30  1  0  0  0  0
 17 29  2  0  0  0  0
 17 31  1  0  0  0  0
 18 32  1  0  0  0  0
 19 32  1  0  0  0  0
 19 33  2  0  0  0  0
 19 34  1  0  0  0  0
 20 22  2  0  0  0  0
 20 39  1  0  0  0  0
 21 24  2  0  0  0  0
 21 40  1  0  0  0  0
 22 53  1  0  0  0  0
 23 30  2  0  0  0  0
 23 52  1  0  0  0  0
 24 41  1  0  0  0  0
 25 71  1  0  0  0  0
 26 80  1  0  0  0  0
 27 81  1  0  0  0  0
 28 31  2  0  0  0  0
 28 80  1  0  0  0  0
 29 82  1  0  0  0  0
 30 83  1  0  0  0  0
 31 84  1  0  0  0  0
 32 65  2  0  0  0  0
 33 66  1  0  0  0  0
 33 69  1  0  0  0  0
 34 70  1  0  0  0  0
 34 75  2  0  0  0  0
 35 54  1  0  0  0  0
 35 72  1  0  0  0  0
 35 76  2  0  0  0  0
 36 62  1  0  0  0  0
 36 67  1  0  0  0  0
 36 77  2  0  0  0  0
 37 63  1  0  0  0  0
 37 73  1  0  0  0  0
 37 78  2  0  0  0  0
 38 68  1  0  0  0  0
 38 71  1  0  0  0  0
 38 79  2  0  0  0  0
 39 42  1  0  0  0  0
 40 54  1  0  0  0  0
 41 67  1  0  0  0  0
 42 46  1  0  0  0  0
 43 45  1  0  0  0  0
 43 48  1  0  0  0  0
 44 47  1  0  0  0  0
 44 50  1  0  0  0  0
 45 52  1  0  0  0  0
 46 53  1  0  0  0  0
 47 55  1  0  0  0  0
 48 56  1  0  0  0  0
 49 52  1  0  0  0  0
 49 56  1  0  0  0  0
 50 68  1  0  0  0  0
 51 55  1  0  0  0  0
 51 68  1  0  0  0  0
 53 72  1  0  0  0  0
 54 67  1  0  0  0  0
 55 66  1  0  0  0  0
 56 81  1  0  0  0  0
 57 63  1  0  0  0  0
 58 64  1  0  0  0  0
 59 64  1  0  0  0  0
 60 64  1  0  0  0  0
 61 74  1  0  0  0  0
 62 64  1  0  0  0  0
 62 73  1  0  0  0  0
 63 74  1  0  0  0  0
 65 66  1  0  0  0  0
M  CHG  1  74   1
M  ISO  4  38 100  56 101  71 100  81 101
M  END
> <Batch ID>
0156

> <Smiles>
CNC(C)C(=O)NC(C(=O)N1Cc2cc([101O:1][101CH:1]3CCCC(c4ccc([100NH:0][100C:0](=O)N5CCCC(n6nc(-c7ccc(Oc8ccc(F)cc8F)cc7)c(C(N)=O)c6N)C5)cc4F)C3)ccc2CC1C(=O)NC1CCCc2ccccc21)C(C)(C)C

> <Shape>
0.274

> <Color>
0.107

> <Negative vol penalty>
0.000

$$$$

  -OEChem-04052303393D

 81 89  0     1  0  0  0  0  0999 V2000
  -29.1282  -32.4964   22.0596 C   0  0  0  0  0  0  0  0  0  0  0  0
  -29.0937  -31.1570   21.6853 C   0  0  0  0  0  0  0  0  0  0  0  0
  -23.0446   -9.9704   19.9042 C   0  0  0  0  0  0  0  0  0  0  0  0
  -23.9615   -9.7447   22.1281 C   0  0  0  0  0  0  0  0  0  0  0  0
  -28.0486  -33.0567   22.7412 C   0  0  0  0  0  0  0  0  0  0  0  0
  -27.9798  -30.3767   21.9932 C   0  0  0  0  0  0  0  0  0  0  0  0
  -26.4831  -27.5051   18.0998 C   0  0  0  0  0  0  0  0  0  0  0  0
  -22.3358   -8.7814   20.0758 C   0  0  0  0  0  0  0  0  0  0  0  0
  -23.2526   -8.5557   22.2996 C   0  0  0  0  0  0  0  0  0  0  0  0
  -27.2153  -26.3464   17.8447 C   0  0  0  0  0  0  0  0  0  0  0  0
  -23.5498   -5.3207   21.3629 C   0  0  0  0  0  0  0  0  0  0  0  0
  -24.2277   -4.2369   21.9210 C   0  0  0  0  0  0  0  0  0  0  0  0
  -31.3387  -18.7128   20.3525 C   0  0  0  0  0  0  0  0  0  0  0  0
  -30.7139  -19.8451   19.7544 C   0  0  0  0  0  0  0  0  0  0  0  0
  -25.5315  -25.0407   18.9758 C   0  0  0  0  0  0  0  0  0  0  0  0
  -22.6464   -4.1882   23.7470 C   0  0  0  0  0  0  0  0  0  0  0  0
  -23.8575  -10.4521   20.9304 C   0  0  0  0  0  0  0  0  0  0  0  0
  -24.1555  -12.9820   21.0653 C   0  0  0  0  0  0  0  0  0  0  0  0
  -26.9169  -32.2853   23.0491 C   0  0  0  0  0  0  0  0  0  0  0  0
  -25.2729  -27.4415   18.8055 C   0  0  0  0  0  0  0  0  0  0  0  0
  -26.8846  -30.9268   22.6807 C   0  0  0  0  0  0  0  0  0  0  0  0
  -24.7846  -26.1997   19.2363 C   0  0  0  0  0  0  0  0  0  0  0  0
  -22.4398   -8.0741   21.2735 C   0  0  0  0  0  0  0  0  0  0  0  0
  -26.7410  -25.1143   18.2853 C   0  0  0  0  0  0  0  0  0  0  0  0
  -22.4203   -5.8384   21.9970 C   0  0  0  0  0  0  0  0  0  0  0  0
  -23.7759   -3.6706   23.1130 C   0  0  0  0  0  0  0  0  0  0  0  0
  -21.9686   -5.2721   23.1890 C   0  0  0  0  0  0  0  0  0  0  0  0
  -24.5904  -11.6799   20.7536 C   0  0  0  0  0  0  0  0  0  0  0  0
  -30.5204  -18.0966   21.2734 C   0  0  0  0  0  0  0  0  0  0  0  0
  -25.2094  -13.7895   20.7137 C   0  0  0  0  0  0  0  0  0  0  0  0
  -29.4415  -20.0509   20.2408 C   0  0  0  0  0  0  0  0  0  0  0  0
  -22.9101  -13.4222   21.6229 C   0  0  0  0  0  0  0  0  0  0  0  0
  -24.2145  -28.6340   21.5553 C   0  0  0  0  0  0  0  0  0  0  0  0
  -21.3955  -27.3662   20.5712 C   0  0  0  0  0  0  0  0  0  0  0  0
  -28.6039  -22.0845   19.0173 C   0  0  0  0  0  0  0  0  0  0  0  0
  -19.7686  -25.0629   18.6490 C   0  0  0  0  0  0  0  0  0  0  0  0
  -30.6785  -14.8983   20.6426 C   0  0  0  0  0  0  0  0  0  0  0  0
  -25.7942  -32.9227   23.8288 C   0  0  0  0  0  0  0  0  0  0  0  0
  -24.4818  -28.6973   19.0492 C   0  0  0  0  0  0  0  0  0  0  0  0
  -23.4810  -26.0751   19.9803 C   0  0  0  0  0  0  0  0  0  0  0  0
  -24.4937  -32.1245   23.7869 C   0  0  0  0  0  0  0  0  0  0  0  0
  -29.4111  -12.7632   18.0908 C   0  0  0  0  0  0  0  0  0  0  0  0
  -24.7655  -30.6468   24.0506 C   0  0  0  0  0  0  0  0  0  0  0  0
  -28.0113  -12.3938   18.5848 C   0  0  0  0  0  0  0  0  0  0  0  0
  -30.4061  -12.8719   19.2441 C   0  0  0  0  0  0  0  0  0  0  0  0
  -28.5952  -13.4077   20.8276 C   0  0  0  0  0  0  0  0  0  0  0  0
  -25.6836  -30.0542   22.9749 C   0  0  1  0  0  0  0  0  0  0  0  0
  -23.5176  -28.5773   20.2253 C   0  0  1  0  0  0  0  0  0  0  0  0
  -27.5442  -13.3412   19.7062 C   0  0  2  0  0  0  0  0  0  0  0  0
  -17.4652  -24.2433   18.0832 C   0  0  0  0  0  0  0  0  0  0  0  0
  -21.2567  -25.9137   23.2509 C   0  0  0  0  0  0  0  0  0  0  0  0
  -19.4992  -24.4229   22.2728 C   0  0  0  0  0  0  0  0  0  0  0  0
  -19.0833  -26.8745   22.4712 C   0  0  0  0  0  0  0  0  0  0  0  0
  -20.0954  -25.7628   15.7921 C   0  0  0  0  0  0  0  0  0  0  0  0
  -30.8003  -16.9029   22.1007 C   0  0  0  0  0  0  0  0  0  0  0  0
  -27.3389  -22.9220   18.9868 C   0  0  0  0  0  0  0  0  0  1  0  0
  -20.7106  -26.0303   20.7302 C   0  0  1  0  0  0  0  0  0  0  0  0
  -18.5895  -25.1937   17.7018 C   0  0  2  0  0  0  0  0  0  0  0  0
  -20.1630  -25.8126   22.1690 C   0  0  0  0  0  0  0  0  0  0  0  0
  -25.8245  -11.6569   20.2430 N   0  0  0  0  0  0  0  0  0  0  0  0
  -26.1739  -12.9546   20.2311 N   0  0  0  0  0  0  0  0  0  0  0  0
  -22.7471  -27.3323   20.1998 N   0  0  0  0  0  0  0  0  0  0  0  0
  -29.9042  -13.7863   20.2727 N   0  0  0  0  0  0  0  0  0  0  0  0
  -25.3959  -15.1252   20.7731 N   0  0  0  0  0  0  0  0  0  0  0  0
  -21.9366  -12.4606   21.9259 N   0  0  0  0  0  0  0  0  0  0  0  0
  -28.4804  -21.0418   19.9292 N   0  0  0  0  0  0  0  0  0  0  0  0
  -24.9382  -29.7928   21.7623 N   0  0  0  0  0  0  0  0  0  0  0  0
  -19.6923  -25.9670   19.6873 N   0  0  0  0  0  0  0  0  0  0  0  0
  -30.1264  -15.7174   21.6199 N   0  0  0  0  0  0  0  0  0  0  0  0
  -19.0104  -24.8874   16.3054 N   0  3  0  0  0  0  0  0  0  0  0  0
  -22.6615  -14.6341   21.8307 O   0  0  0  0  0  0  0  0  0  0  0  0
  -24.1026  -27.6965   22.3365 O   0  0  0  0  0  0  0  0  0  0  0  0
  -20.7530  -28.4017   20.7623 O   0  0  0  0  0  0  0  0  0  0  0  0
  -29.5674  -22.3498   18.3060 O   0  0  0  0  0  0  0  0  0  0  0  0
  -20.6654  -24.2384   18.4863 O   0  0  0  0  0  0  0  0  0  0  0  0
  -31.7777  -15.1461   20.1355 O   0  0  0  0  0  0  0  0  0  0  0  0
  -21.7480   -6.9139   21.4413 O   0  0  0  0  0  0  0  0  0  0  0  0
  -27.4540  -23.9819   18.0382 O   0  0  0  0  0  0  0  0  0  1  0  0
  -24.4260   -2.6288   23.6479 F   0  0  0  0  0  0  0  0  0  0  0  0
  -20.8834   -5.7642   23.8020 F   0  0  0  0  0  0  0  0  0  0  0  0
  -29.0053  -18.8823   21.4139 S   0  0  0  0  0  0  0  0  0  0  0  0
  1  2  1  0  0  0  0
  1  5  2  0  0  0  0
  2  6  2  0  0  0  0
  3  8  2  0  0  0  0
  3 17  1  0  0  0  0
  4  9  1  0  0  0  0
  4 17  2  0  0  0  0
  5 19  1  0  0  0  0
  6 21  1  0  0  0  0
  7 10  2  0  0  0  0
  7 20  1  0  0  0  0
  8 23  1  0  0  0  0
  9 23  2  0  0  0  0
 10 24  1  0  0  0  0
 11 12  2  0  0  0  0
 11 25  1  0  0  0  0
 12 26  1  0  0  0  0
 13 14  1  0  0  0  0
 13 29  2  0  0  0  0
 14 31  2  0  0  0  0
 15 22  1  0  0  0  0
 15 24  2  0  0  0  0
 16 26  2  0  0  0  0
 16 27  1  0  0  0  0
 17 28  1  0  0  0  0
 18 28  1  0  0  0  0
 18 30  2  0  0  0  0
 18 32  1  0  0  0  0
 19 21  2  0  0  0  0
 19 38  1  0  0  0  0
 20 22  2  0  0  0  0
 20 39  1  0  0  0  0
 21 47  1  0  0  0  0
 22 40  1  0  0  0  0
 23 77  1  0  0  0  0
 24 78  1  0  0  0  0
 25 27  2  0  0  0  0
 25 77  1  0  0  0  0
 26 79  1  0  0  0  0
 27 80  1  0  0  0  0
 28 60  2  0  0  0  0
 29 55  1  0  0  0  0
 29 81  1  0  0  0  0
 30 61  1  0  0  0  0
 30 64  1  0  0  0  0
 31 66  1  0  0  0  0
 31 81  1  0  0  0  0
 32 65  1  0  0  0  0
 32 71  2  0  0  0  0
 33 48  1  0  0  0  0
 33 67  1  0  0  0  0
 33 72  2  0  0  0  0
 34 57  1  0  0  0  0
 34 62  1  0  0  0  0
 34 73  2  0  0  0  0
 35 56  1  0  0  0  0
 35 66  1  0  0  0  0
 35 74  2  0  0  0  0
 36 58  1  0  0  0  0
 36 68  1  0  0  0  0
 36 75  2  0  0  0  0
 37 63  1  0  0  0  0
 37 69  1  0  0  0  0
 37 76  2  0  0  0  0
 38 41  1  0  0  0  0
 39 48  1  0  0  0  0
 40 62  1  0  0  0  0
 41 43  1  0  0  0  0
 42 44  1  0  0  0  0
 42 45  1  0  0  0  0
 43 47  1  0  0  0  0
 44 49  1  0  0  0  0
 45 63  1  0  0  0  0
 46 49  1  0  0  0  0
 46 63  1  0  0  0  0
 47 67  1  0  0  0  0
 48 62  1  0  0  0  0
 49 61  1  0  0  0  0
 50 58  1  0  0  0  0
 51 59  1  0  0  0  0
 52 59  1  0  0  0  0
 53 59  1  0  0  0  0
 54 70  1  0  0  0  0
 55 69  1  0  0  0  0
 56 78  1  0  0  0  0
 57 59  1  0  0  0  0
 57 68  1  0  0  0  0
 58 70  1  0  0  0  0
 60 61  1  0  0  0  0
M  CHG  1  70   1
M  ISO  4  37 100  56 101  69 100  78 101
M  END
> <Batch ID>
0156

> <Smiles>
CNC(C)C(=O)NC(C(=O)N1Cc2cc([101O:1][101CH2:1]C(=O)Nc3ccc(C[100NH:0][100C:0](=O)N4CCCC(n5nc(-c6ccc(Oc7ccc(F)cc7F)cc6)c(C(N)=O)c5N)C4)s3)ccc2CC1C(=O)NC1CCCc2ccccc21)C(C)(C)C

> <Shape>
0.340

> <Color>
0.188

> <Negative vol penalty>
0.000

$$$$

  -OEChem-04052303393D

 88 97  0     1  0  0  0  0  0999 V2000
  -16.2864  -31.4612   21.0047 C   0  0  0  0  0  0  0  0  0  0  0  0
  -17.5324  -32.0798   21.0193 C   0  0  0  0  0  0  0  0  0  0  0  0
  -26.4852  -11.4993   21.5460 C   0  0  0  0  0  0  0  0  0  0  0  0
  -25.8458  -12.1134   19.2986 C   0  0  0  0  0  0  0  0  0  0  0  0
  -16.0777  -30.2989   21.7460 C   0  0  0  0  0  0  0  0  0  0  0  0
  -18.5702  -31.5370   21.7761 C   0  0  0  0  0  0  0  0  0  0  0  0
  -25.7307  -29.3167   19.5796 C   0  0  0  0  0  0  0  0  0  0  0  0
  -25.3220  -10.7396   21.6694 C   0  0  0  0  0  0  0  0  0  0  0  0
  -24.6826  -11.3536   19.4219 C   0  0  0  0  0  0  0  0  0  0  0  0
  -26.9672  -28.7432   19.2823 C   0  0  0  0  0  0  0  0  0  0  0  0
  -24.2119   -7.7047   20.6744 C   0  0  0  0  0  0  0  0  0  0  0  0
  -24.3256   -6.4308   21.2312 C   0  0  0  0  0  0  0  0  0  0  0  0
  -26.7531  -27.2684   21.1868 C   0  0  0  0  0  0  0  0  0  0  0  0
  -22.8119   -7.0699   23.0025 C   0  0  0  0  0  0  0  0  0  0  0  0
  -27.8154  -19.6386   16.1293 C   0  0  0  0  0  0  0  0  0  0  0  0
  -26.7471  -12.1863   20.3606 C   0  0  0  0  0  0  0  0  0  0  0  0
  -29.2007  -12.5387   19.7579 C   0  0  0  0  0  0  0  0  0  0  0  0
  -17.1163  -29.7362   22.5045 C   0  0  0  0  0  0  0  0  0  0  0  0
  -24.9928  -28.8571   20.6740 C   0  0  0  0  0  0  0  0  0  0  0  0
  -18.3749  -30.3669   22.5292 C   0  0  0  0  0  0  0  0  0  0  0  0
  -25.5083  -27.8304   21.4822 C   0  0  0  0  0  0  0  0  0  0  0  0
  -24.4207  -10.6666   20.6073 C   0  0  0  0  0  0  0  0  0  0  0  0
  -27.4772  -27.7218   20.0841 C   0  0  0  0  0  0  0  0  0  0  0  0
  -23.3982   -8.6611   21.2817 C   0  0  0  0  0  0  0  0  0  0  0  0
  -23.6256   -6.1134   22.3952 C   0  0  0  0  0  0  0  0  0  0  0  0
  -22.6982   -8.3437   22.4457 C   0  0  0  0  0  0  0  0  0  0  0  0
  -27.9482  -12.9718   20.2328 C   0  0  0  0  0  0  0  0  0  0  0  0
  -28.2837  -20.0466   17.3607 C   0  0  0  0  0  0  0  0  0  0  0  0
  -30.0006  -13.6526   19.8338 C   0  0  0  0  0  0  0  0  0  0  0  0
  -28.4582  -21.9543   16.2929 C   0  0  0  0  0  0  0  0  0  0  0  0
  -29.6049  -11.2451   19.2900 C   0  0  0  0  0  0  0  0  0  0  0  0
  -21.8568  -29.1440   22.7133 C   0  0  0  0  0  0  0  0  0  0  0  0
  -29.4297  -25.6963   21.5489 C   0  0  0  0  0  0  0  0  0  0  0  0
  -29.7588  -25.1803   19.0941 C   0  0  0  0  0  0  0  0  0  0  0  0
  -22.4861  -26.1521   22.4627 C   0  0  0  0  0  0  0  0  0  0  0  0
  -23.2938  -22.9524   21.5985 C   0  0  0  0  0  0  0  0  0  0  0  0
  -28.8521  -19.5160   19.7569 C   0  0  0  0  0  0  0  0  0  0  0  0
  -16.8296  -28.5051   23.3271 C   0  0  0  0  0  0  0  0  0  0  0  0
  -23.6846  -29.4874   21.0678 C   0  0  0  0  0  0  0  0  0  0  0  0
  -24.6954  -27.3917   22.6695 C   0  0  0  0  0  0  0  0  0  0  0  0
  -18.0880  -27.7854   23.8054 C   0  0  0  0  0  0  0  0  0  0  0  0
  -30.5434  -17.7109   22.3178 C   0  0  0  0  0  0  0  0  0  0  0  0
  -19.0874  -28.7835   24.3815 C   0  0  0  0  0  0  0  0  0  0  0  0
  -30.1888  -16.2509   22.0269 C   0  0  0  0  0  0  0  0  0  0  0  0
  -27.5217  -24.3031   16.2653 C   0  0  0  0  0  0  0  0  0  0  0  0
  -29.3725  -18.6479   22.0263 C   0  0  0  0  0  0  0  0  0  0  0  0
  -27.6740  -24.7382   17.7172 C   0  0  0  0  0  0  0  0  0  0  0  0
  -29.8276  -24.0775   16.8675 C   0  0  0  0  0  0  0  0  0  0  0  0
  -28.4385  -17.0583   20.3923 C   0  0  0  0  0  0  0  0  0  0  0  0
  -19.5326  -29.7947   23.3181 C   0  0  1  0  0  0  0  0  0  0  0  0
  -28.7492  -23.4156   16.0022 C   0  0  1  0  0  0  0  0  0  0  0  0
  -22.6792  -28.4777   21.6498 C   0  0  1  0  0  0  0  0  0  0  0  0
  -29.6077  -16.0838   20.6091 C   0  0  2  0  0  0  0  0  0  0  0  0
  -30.0792  -23.3882   22.2315 C   0  0  0  0  0  0  0  0  0  0  0  0
  -22.5593  -20.5764   21.9337 C   0  0  0  0  0  0  0  0  0  0  0  0
  -23.6683  -26.1872   25.2743 C   0  0  0  0  0  0  0  0  0  0  0  0
  -23.7822  -23.6879   25.1810 C   0  0  0  0  0  0  0  0  0  0  0  0
  -21.5743  -24.8402   25.0395 C   0  0  0  0  0  0  0  0  0  0  0  0
  -22.8201  -22.5681   18.7025 C   0  0  0  0  0  0  0  0  0  0  0  0
  -29.0614  -24.5003   22.3993 C   0  0  0  0  0  0  0  0  0  0  0  0
  -28.8711  -25.7955   20.1462 C   0  0  2  0  0  0  0  0  0  1  0  0
  -23.1557  -24.9451   23.0697 C   0  0  1  0  0  0  0  0  0  0  0  0
  -22.4516  -21.8125   21.0545 C   0  0  2  0  0  0  0  0  0  0  0  0
  -23.0581  -24.9309   24.6213 C   0  0  0  0  0  0  0  0  0  0  0  0
  -27.9476  -14.2604   20.5845 N   0  0  0  0  0  0  0  0  0  0  0  0
  -28.6531  -21.3741   17.4563 N   0  0  0  0  0  0  0  0  0  0  0  0
  -30.2568  -26.5934   21.9815 N   0  0  0  0  0  0  0  0  0  0  0  0
  -29.2096  -14.6465   20.3305 N   0  0  0  0  0  0  0  0  0  0  0  0
  -23.2748  -27.2972   22.2985 N   0  0  0  0  0  0  0  0  0  0  0  0
  -29.1093  -24.7039   17.9693 N   0  0  0  0  0  0  0  0  0  0  0  0
  -28.8770  -18.4361   20.6645 N   0  0  0  0  0  0  0  0  0  0  0  0
  -31.2965  -13.8691   19.5235 N   0  0  0  0  0  0  0  0  0  0  0  0
  -28.6572  -10.2127   19.2783 N   0  0  0  0  0  0  0  0  0  0  0  0
  -28.3917  -19.1874   18.4823 N   0  0  0  0  0  0  0  0  0  0  0  0
  -20.5056  -29.1974   22.4287 N   0  0  0  0  0  0  0  0  0  0  0  0
  -22.5614  -23.7803   22.4229 N   0  0  0  0  0  0  0  0  0  0  0  0
  -22.8960  -21.4509   19.6788 N   0  3  0  0  0  0  0  0  0  0  0  0
  -30.7763  -11.0075   18.9093 O   0  0  0  0  0  0  0  0  0  0  0  0
  -22.4063  -29.5769   23.7195 O   0  0  0  0  0  0  0  0  0  0  0  0
  -30.9784  -25.1278   19.2601 O   0  0  0  0  0  0  0  0  0  0  0  0
  -21.2947  -26.0859   22.1472 O   0  0  0  0  0  0  0  0  0  0  0  0
  -24.4834  -23.0921   21.3229 O   0  0  0  0  0  0  0  0  0  0  0  0
  -29.2383  -20.6428   20.0782 O   0  0  0  0  0  0  0  0  0  0  0  0
  -23.2856   -9.9251   20.7273 O   0  0  0  0  0  0  0  0  0  0  0  0
  -28.6829  -27.1633   19.7854 O   0  0  0  0  0  0  0  0  0  1  0  0
  -23.7338   -4.8896   22.9289 F   0  0  0  0  0  0  0  0  0  0  0  0
  -21.9140   -9.2580   23.0329 F   0  0  0  0  0  0  0  0  0  0  0  0
  -27.8323  -20.9630   15.0398 S   0  0  0  0  0  0  0  0  0  0  0  0
  1  2  1  0  0  0  0
  1  5  2  0  0  0  0
  2  6  2  0  0  0  0
  3  8  2  0  0  0  0
  3 16  1  0  0  0  0
  4  9  1  0  0  0  0
  4 16  2  0  0  0  0
  5 18  1  0  0  0  0
  6 20  1  0  0  0  0
  7 10  2  0  0  0  0
  7 19  1  0  0  0  0
  8 22  1  0  0  0  0
  9 22  2  0  0  0  0
 10 23  1  0  0  0  0
 11 12  2  0  0  0  0
 11 24  1  0  0  0  0
 12 25  1  0  0  0  0
 13 21  1  0  0  0  0
 13 23  2  0  0  0  0
 14 25  2  0  0  0  0
 14 26  1  0  0  0  0
 15 28  2  0  0  0  0
 15 88  1  0  0  0  0
 16 27  1  0  0  0  0
 17 27  1  0  0  0  0
 17 29  2  0  0  0  0
 17 31  1  0  0  0  0
 18 20  2  0  0  0  0
 18 38  1  0  0  0  0
 19 21  2  0  0  0  0
 19 39  1  0  0  0  0
 20 50  1  0  0  0  0
 21 40  1  0  0  0  0
 22 84  1  0  0  0  0
 23 85  1  0  0  0  0
 24 26  2  0  0  0  0
 24 84  1  0  0  0  0
 25 86  1  0  0  0  0
 26 87  1  0  0  0  0
 27 65  2  0  0  0  0
 28 66  1  0  0  0  0
 28 74  1  0  0  0  0
 29 68  1  0  0  0  0
 29 72  1  0  0  0  0
 30 51  1  0  0  0  0
 30 66  2  0  0  0  0
 30 88  1  0  0  0  0
 31 73  1  0  0  0  0
 31 78  2  0  0  0  0
 32 52  1  0  0  0  0
 32 75  1  0  0  0  0
 32 79  2  0  0  0  0
 33 60  1  0  0  0  0
 33 61  1  0  0  0  0
 33 67  2  0  0  0  0
 34 61  1  0  0  0  0
 34 70  1  0  0  0  0
 34 80  2  0  0  0  0
 35 62  1  0  0  0  0
 35 69  1  0  0  0  0
 35 81  2  0  0  0  0
 36 63  1  0  0  0  0
 36 76  1  0  0  0  0
 36 82  2  0  0  0  0
 37 71  1  0  0  0  0
 37 74  1  0  0  0  0
 37 83  2  0  0  0  0
 38 41  1  0  0  0  0
 39 52  1  0  0  0  0
 40 69  1  0  0  0  0
 41 43  1  0  0  0  0
 42 44  1  0  0  0  0
 42 46  1  0  0  0  0
 43 50  1  0  0  0  0
 44 53  1  0  0  0  0
 45 47  1  0  0  0  0
 45 51  1  0  0  0  0
 46 71  1  0  0  0  0
 47 70  1  0  0  0  0
 48 51  1  0  0  0  0
 48 70  1  0  0  0  0
 49 53  1  0  0  0  0
 49 71  1  0  0  0  0
 50 75  1  0  0  0  0
 52 69  1  0  0  0  0
 53 68  1  0  0  0  0
 54 60  1  0  0  0  0
 55 63  1  0  0  0  0
 56 64  1  0  0  0  0
 57 64  1  0  0  0  0
 58 64  1  0  0  0  0
 59 77  1  0  0  0  0
 61 85  1  0  0  0  0
 62 64  1  0  0  0  0
 62 76  1  0  0  0  0
 63 77  1  0  0  0  0
 65 68  1  0  0  0  0
M  CHG  1  77   1
M  ISO  4  37 100  61 101  74 100  85 101
M  END
> <Batch ID>
0156

> <Smiles>
CCC(=N)[101CH:1](C(=O)N1CCC(c2nc([100NH:0][100C:0](=O)N3CCCC(n4nc(-c5ccc(Oc6ccc(F)cc6F)cc5)c(C(N)=O)c4N)C3)cs2)C1)[101O:1]c1ccc2c(c1)CN(C(=O)C(NC(=O)C(C)NC)C(C)(C)C)C(C(=O)NC1CCCc3ccccc31)C2

> <Shape>
0.286

> <Color>
0.107

> <Negative vol penalty>
0.000

$$$$

  -OEChem-04052303393D

 85 94  0     1  0  0  0  0  0999 V2000
  -20.1258  -25.1229   24.8323 C   0  0  0  0  0  0  0  0  0  0  0  0
  -21.2077  -25.0601   23.9599 C   0  0  0  0  0  0  0  0  0  0  0  0
  -24.3978   -9.0877   20.2616 C   0  0  0  0  0  0  0  0  0  0  0  0
  -23.1963  -10.6513   21.6575 C   0  0  0  0  0  0  0  0  0  0  0  0
  -19.1660  -26.1226   24.6800 C   0  0  0  0  0  0  0  0  0  0  0  0
  -21.3297  -25.9965   22.9339 C   0  0  0  0  0  0  0  0  0  0  0  0
  -26.0399  -27.8064   22.5057 C   0  0  0  0  0  0  0  0  0  0  0  0
  -23.8099   -8.0243   20.9466 C   0  0  0  0  0  0  0  0  0  0  0  0
  -22.6082   -9.5879   22.3424 C   0  0  0  0  0  0  0  0  0  0  0  0
  -26.9779  -26.9959   21.8678 C   0  0  0  0  0  0  0  0  0  0  0  0
  -20.8369   -6.4138   20.9668 C   0  0  0  0  0  0  0  0  0  0  0  0
  -20.3338   -5.3549   20.2111 C   0  0  0  0  0  0  0  0  0  0  0  0
  -26.6980  -28.2761   19.8425 C   0  0  0  0  0  0  0  0  0  0  0  0
  -28.2621  -20.1115   18.9284 C   0  0  0  0  0  0  0  0  0  0  0  0
  -21.8432   -3.8377   21.3323 C   0  0  0  0  0  0  0  0  0  0  0  0
  -24.0911  -10.4012   20.6171 C   0  0  0  0  0  0  0  0  0  0  0  0
  -24.2065  -12.1478   18.7615 C   0  0  0  0  0  0  0  0  0  0  0  0
  -19.2815  -27.0775   23.6575 C   0  0  0  0  0  0  0  0  0  0  0  0
  -25.4148  -28.8528   21.8124 C   0  0  0  0  0  0  0  0  0  0  0  0
  -20.3698  -27.0091   22.7669 C   0  0  0  0  0  0  0  0  0  0  0  0
  -25.7543  -29.1001   20.4746 C   0  0  0  0  0  0  0  0  0  0  0  0
  -27.7288  -21.2766   18.3054 C   0  0  0  0  0  0  0  0  0  0  0  0
  -22.9151   -8.2744   21.9869 C   0  0  0  0  0  0  0  0  0  0  0  0
  -27.3050  -27.2288   20.5352 C   0  0  0  0  0  0  0  0  0  0  0  0
  -21.8431   -6.1848   21.9053 C   0  0  0  0  0  0  0  0  0  0  0  0
  -20.8370   -4.0668   20.3938 C   0  0  0  0  0  0  0  0  0  0  0  0
  -22.3462   -4.8967   22.0881 C   0  0  0  0  0  0  0  0  0  0  0  0
  -24.6986  -11.5000   19.9104 C   0  0  0  0  0  0  0  0  0  0  0  0
  -26.4215  -21.0993   17.9093 C   0  0  0  0  0  0  0  0  0  0  0  0
  -25.1420  -13.1147   18.4852 C   0  0  0  0  0  0  0  0  0  0  0  0
  -27.3418  -19.0879   18.9850 C   0  0  0  0  0  0  0  0  0  0  0  0
  -29.6407  -24.8239   17.2200 C   0  0  0  0  0  0  0  0  0  0  0  0
  -28.6298  -24.9215   18.0994 C   0  0  0  0  0  0  0  0  0  0  0  0
  -25.5390  -22.0136   17.2564 C   0  0  0  0  0  0  0  0  0  0  0  0
  -23.0105  -11.8979   18.0111 C   0  0  0  0  0  0  0  0  0  0  0  0
  -22.4155  -29.5373   21.0128 C   0  0  0  0  0  0  0  0  0  0  0  0
  -23.7373  -32.3107   19.9720 C   0  0  0  0  0  0  0  0  0  0  0  0
  -26.5123  -33.9626   18.8686 C   0  0  0  0  0  0  0  0  0  0  0  0
  -28.5576  -17.1965   20.1211 C   0  0  0  0  0  0  0  0  0  0  0  0
  -18.1940  -28.1111   23.5033 C   0  0  0  0  0  0  0  0  0  0  0  0
  -24.4248  -29.7349   22.5226 C   0  0  0  0  0  0  0  0  0  0  0  0
  -25.1267  -30.2234   19.6918 C   0  0  0  0  0  0  0  0  0  0  0  0
  -30.2430  -23.5127   16.8230 C   0  0  0  0  0  0  0  0  0  0  0  0
  -27.9829  -23.7089   18.7291 C   0  0  0  0  0  0  0  0  0  0  0  0
  -18.5952  -29.2904   22.6209 C   0  0  0  0  0  0  0  0  0  0  0  0
  -29.7709  -13.8602   20.3928 C   0  0  0  0  0  0  0  0  0  0  0  0
  -19.2650  -28.7969   21.3424 C   0  0  0  0  0  0  0  0  0  0  0  0
  -28.5190  -13.0020   20.1970 C   0  0  0  0  0  0  0  0  0  0  0  0
  -29.8793  -22.3839   17.7860 C   0  0  0  0  0  0  0  0  0  0  0  0
  -29.4666  -15.1373   21.1739 C   0  0  0  0  0  0  0  0  0  0  0  0
  -27.1159  -15.0901   20.4382 C   0  0  0  0  0  0  0  0  0  0  0  0
  -20.5502  -28.0217   21.6568 C   0  0  1  0  0  0  0  0  0  0  0  0
  -23.4709  -30.4497   21.5706 C   0  0  1  0  0  0  0  0  0  0  0  0
  -27.3598  -13.8242   19.6005 C   0  0  2  0  0  0  0  0  0  0  0  0
  -27.2734  -36.2124   18.0583 C   0  0  0  0  0  0  0  0  0  0  0  0
  -22.4082  -31.7866   17.2759 C   0  0  0  0  0  0  0  0  0  0  0  0
  -23.9359  -33.4956   16.2691 C   0  0  0  0  0  0  0  0  0  0  0  0
  -22.3129  -34.1657   18.0411 C   0  0  0  0  0  0  0  0  0  0  0  0
  -28.4382  -34.2430   21.0982 C   0  0  0  0  0  0  0  0  0  0  0  0
  -28.0628  -26.2509   18.5041 C   0  0  0  0  0  0  0  0  0  1  0  0
  -24.3366  -32.7872   18.6709 C   0  0  1  0  0  0  0  0  0  0  0  0
  -27.1123  -35.2998   19.2641 C   0  0  2  0  0  0  0  0  0  0  0  0
  -23.2590  -33.0363   17.5782 C   0  0  0  0  0  0  0  0  0  0  0  0
  -25.8569  -12.0121   20.3347 N   0  0  0  0  0  0  0  0  0  0  0  0
  -24.2986  -21.7366   16.9213 N   0  0  0  0  0  0  0  0  0  0  0  0
  -26.1005  -12.9919   19.4476 N   0  0  0  0  0  0  0  0  0  0  0  0
  -28.4548  -22.4560   18.1230 N   0  0  1  0  0  0  0  0  0  0  0  0
  -24.1598  -31.0541   20.4285 N   0  0  0  0  0  0  0  0  0  0  0  0
  -28.3611  -15.8662   20.5483 N   0  0  0  0  0  0  0  0  0  0  0  0
  -25.2301  -14.0495   17.5152 N   0  0  0  0  0  0  0  0  0  0  0  0
  -22.1603  -10.8667   18.4330 N   0  0  0  0  0  0  0  0  0  0  0  0
  -27.4456  -17.7764   19.5113 N   0  0  0  0  0  0  0  0  0  0  0  0
  -21.6267  -28.9354   21.9745 N   0  0  0  0  0  0  0  0  0  0  0  0
  -25.1394  -33.9609   18.9969 N   0  0  0  0  0  0  0  0  0  0  0  0
  -28.4519  -35.1026   19.8866 N   0  3  0  0  0  0  0  0  0  0  0  0
  -22.7132  -12.5585   16.9870 O   0  0  0  0  0  0  0  0  0  0  0  0
  -22.3227  -29.3913   19.7996 O   0  0  0  0  0  0  0  0  0  0  0  0
  -22.9297  -33.0300   20.5651 O   0  0  0  0  0  0  0  0  0  0  0  0
  -27.1930  -33.0156   18.4808 O   0  0  0  0  0  0  0  0  0  0  0  0
  -29.6414  -17.7692   20.2598 O   0  0  0  0  0  0  0  0  0  0  0  0
  -22.3409   -7.2370   22.6554 O   0  0  0  0  0  0  0  0  0  0  0  0
  -28.2197  -26.4388   19.9099 O   0  0  0  0  0  0  0  0  0  1  0  0
  -20.3527   -3.0498   19.6691 F   0  0  0  0  0  0  0  0  0  0  0  0
  -23.3121   -4.6703   22.9890 F   0  0  0  0  0  0  0  0  0  0  0  0
  -25.8421  -19.5331   18.2887 S   0  0  0  0  0  0  0  0  0  0  0  0
  1  2  1  0  0  0  0
  1  5  2  0  0  0  0
  2  6  2  0  0  0  0
  3  8  2  0  0  0  0
  3 16  1  0  0  0  0
  4  9  1  0  0  0  0
  4 16  2  0  0  0  0
  5 18  1  0  0  0  0
  6 20  1  0  0  0  0
  7 10  2  0  0  0  0
  7 19  1  0  0  0  0
  8 23  1  0  0  0  0
  9 23  2  0  0  0  0
 10 24  1  0  0  0  0
 11 12  2  0  0  0  0
 11 25  1  0  0  0  0
 12 26  1  0  0  0  0
 13 21  1  0  0  0  0
 13 24  2  0  0  0  0
 14 22  1  0  0  0  0
 14 31  2  0  0  0  0
 15 26  2  0  0  0  0
 15 27  1  0  0  0  0
 16 28  1  0  0  0  0
 17 28  1  0  0  0  0
 17 30  2  0  0  0  0
 17 35  1  0  0  0  0
 18 20  2  0  0  0  0
 18 40  1  0  0  0  0
 19 21  2  0  0  0  0
 19 41  1  0  0  0  0
 20 52  1  0  0  0  0
 21 42  1  0  0  0  0
 22 29  2  0  0  0  0
 22 67  1  0  0  0  0
 23 81  1  0  0  0  0
 24 82  1  0  0  0  0
 25 27  2  0  0  0  0
 25 81  1  0  0  0  0
 26 83  1  0  0  0  0
 27 84  1  0  0  0  0
 28 64  2  0  0  0  0
 29 34  1  0  0  0  0
 29 85  1  0  0  0  0
 30 66  1  0  0  0  0
 30 70  1  0  0  0  0
 31 72  1  0  0  0  0
 31 85  1  0  0  0  0
 32 33  2  0  0  0  0
 32 43  1  0  0  0  0
 33 44  1  0  0  0  0
 33 60  1  0  0  0  0
 34 65  2  0  0  0  0
 35 71  1  0  0  0  0
 35 76  2  0  0  0  0
 36 53  1  0  0  0  0
 36 73  1  0  0  0  0
 36 77  2  0  0  0  0
 37 61  1  0  0  0  0
 37 68  1  0  0  0  0
 37 78  2  0  0  0  0
 38 62  1  0  0  0  0
 38 74  1  0  0  0  0
 38 79  2  0  0  0  0
 39 69  1  0  0  0  0
 39 72  1  0  0  0  0
 39 80  2  0  0  0  0
 40 45  1  0  0  0  0
 41 53  1  0  0  0  0
 42 68  1  0  0  0  0
 43 49  1  0  0  0  0
 44 67  1  0  0  0  0
 45 47  1  0  0  0  0
 46 48  1  0  0  0  0
 46 50  1  0  0  0  0
 47 52  1  0  0  0  0
 48 54  1  0  0  0  0
 49 67  1  0  0  0  0
 50 69  1  0  0  0  0
 51 54  1  0  0  0  0
 51 69  1  0  0  0  0
 52 73  1  0  0  0  0
 53 68  1  0  0  0  0
 54 66  1  0  0  0  0
 55 62  1  0  0  0  0
 56 63  1  0  0  0  0
 57 63  1  0  0  0  0
 58 63  1  0  0  0  0
 59 75  1  0  0  0  0
 60 82  1  0  0  0  0
 61 63  1  0  0  0  0
 61 74  1  0  0  0  0
 62 75  1  0  0  0  0
 64 66  1  0  0  0  0
M  CHG  1  75   1
M  ISO  4  39 100  60 101  72 100  82 101
M  END
> <Batch ID>
0156

> <Smiles>
CNC(C)C(=O)NC(C(=O)N1Cc2cc([101O:1][101CH2:1]C3=CCCN(c4cc([100NH:0][100C:0](=O)N5CCCC(n6nc(-c7ccc(Oc8ccc(F)cc8F)cc7)c(C(N)=O)c6N)C5)sc4C=N)C3)ccc2CC1C(=O)NC1CCCc2ccccc21)C(C)(C)C

> <Shape>
0.257

> <Color>
0.123

> <Negative vol penalty>
0.000

$$$$

  -OEChem-04052303393D

 83 92  0     1  0  0  0  0  0999 V2000
  -22.6508  -30.0082   27.1493 C   0  0  0  0  0  0  0  0  0  0  0  0
  -23.2580  -29.1666   26.2229 C   0  0  0  0  0  0  0  0  0  0  0  0
  -22.7647   -9.7717   20.0953 C   0  0  0  0  0  0  0  0  0  0  0  0
  -24.5133   -8.9629   21.5531 C   0  0  0  0  0  0  0  0  0  0  0  0
  -21.5607  -30.7902   26.7695 C   0  0  0  0  0  0  0  0  0  0  0  0
  -22.7749  -29.1057   24.9163 C   0  0  0  0  0  0  0  0  0  0  0  0
  -26.4814  -29.2131   21.4674 C   0  0  0  0  0  0  0  0  0  0  0  0
  -21.8093   -9.1368   20.8889 C   0  0  0  0  0  0  0  0  0  0  0  0
  -23.5580   -8.3280   22.3468 C   0  0  0  0  0  0  0  0  0  0  0  0
  -27.1871  -28.0298   21.2540 C   0  0  0  0  0  0  0  0  0  0  0  0
  -21.7167   -5.4943   22.2421 C   0  0  0  0  0  0  0  0  0  0  0  0
  -21.9777   -4.1858   22.6485 C   0  0  0  0  0  0  0  0  0  0  0  0
  -25.3972  -19.7407   19.0343 C   0  0  0  0  0  0  0  0  0  0  0  0
  -25.2501  -18.3383   19.1561 C   0  0  0  0  0  0  0  0  0  0  0  0
  -25.8664  -27.6053   19.2804 C   0  0  0  0  0  0  0  0  0  0  0  0
  -21.8728   -4.8824   24.9595 C   0  0  0  0  0  0  0  0  0  0  0  0
  -24.1167   -9.6847   20.4273 C   0  0  0  0  0  0  0  0  0  0  0  0
  -25.3623  -10.1122   18.2426 C   0  0  0  0  0  0  0  0  0  0  0  0
  -21.0701  -30.7461   25.4550 C   0  0  0  0  0  0  0  0  0  0  0  0
  -25.4539  -29.5966   20.5936 C   0  0  0  0  0  0  0  0  0  0  0  0
  -21.6764  -29.8868   24.5188 C   0  0  0  0  0  0  0  0  0  0  0  0
  -25.1510  -28.7952   19.4835 C   0  0  0  0  0  0  0  0  0  0  0  0
  -22.2060   -8.4150   22.0147 C   0  0  0  0  0  0  0  0  0  0  0  0
  -26.8777  -27.2242   20.1620 C   0  0  0  0  0  0  0  0  0  0  0  0
  -21.5338   -6.4970   23.1945 C   0  0  0  0  0  0  0  0  0  0  0  0
  -22.0557   -3.8798   24.0071 C   0  0  0  0  0  0  0  0  0  0  0  0
  -21.6118   -6.1910   24.5531 C   0  0  0  0  0  0  0  0  0  0  0  0
  -25.1040  -10.3398   19.6076 C   0  0  0  0  0  0  0  0  0  0  0  0
  -26.3837  -10.9783   17.9373 C   0  0  0  0  0  0  0  0  0  0  0  0
  -26.6948  -20.0213   19.3937 C   0  0  0  0  0  0  0  0  0  0  0  0
  -26.4685  -17.8619   19.5811 C   0  0  0  0  0  0  0  0  0  0  0  0
  -24.7351   -9.1995   17.3320 C   0  0  0  0  0  0  0  0  0  0  0  0
  -22.3284  -30.0950   20.8878 C   0  0  0  0  0  0  0  0  0  0  0  0
  -22.5940  -31.0983   17.8145 C   0  0  0  0  0  0  0  0  0  0  0  0
  -24.3293  -30.0314   14.8367 C   0  0  0  0  0  0  0  0  0  0  0  0
  -28.1833  -16.1627   20.3012 C   0  0  0  0  0  0  0  0  0  0  0  0
  -19.8597  -31.5745   25.1037 C   0  0  0  0  0  0  0  0  0  0  0  0
  -24.7202  -30.8895   20.8227 C   0  0  0  0  0  0  0  0  0  0  0  0
  -24.0705  -29.1724   18.5044 C   0  0  0  0  0  0  0  0  0  0  0  0
  -19.6442  -31.7311   23.6006 C   0  0  0  0  0  0  0  0  0  0  0  0
  -30.1278  -13.2035   19.9284 C   0  0  0  0  0  0  0  0  0  0  0  0
  -19.7871  -30.3849   22.8977 C   0  0  0  0  0  0  0  0  0  0  0  0
  -29.0841  -12.1136   19.6735 C   0  0  0  0  0  0  0  0  0  0  0  0
  -29.6294  -14.2426   20.9312 C   0  0  0  0  0  0  0  0  0  0  0  0
  -28.8531  -21.1779   19.2248 C   0  0  0  0  0  0  0  0  0  0  0  0
  -27.2851  -13.7532   20.3535 C   0  0  0  0  0  0  0  0  0  0  0  0
  -26.7223  -22.4847   19.1369 C   0  0  0  0  0  0  0  0  0  0  0  0
  -29.5499  -22.3694   19.8625 C   0  0  0  0  0  0  0  0  0  0  0  0
  -21.1968  -29.8114   23.0855 C   0  0  1  0  0  0  0  0  0  0  0  0
  -23.3475  -30.9234   20.1578 C   0  0  1  0  0  0  0  0  0  0  0  0
  -27.7165  -12.7190   19.3009 C   0  0  2  0  0  0  0  0  0  0  0  0
  -27.4333  -23.6761   19.7816 C   0  0  2  0  0  0  0  0  0  0  0  0
  -25.1155  -31.3442   12.8478 C   0  0  0  0  0  0  0  0  0  0  0  0
  -19.9244  -30.2806   16.5837 C   0  0  0  0  0  0  0  0  0  0  0  0
  -21.1003  -30.0012   14.3911 C   0  0  0  0  0  0  0  0  0  0  0  0
  -21.0223  -32.2413   15.4861 C   0  0  0  0  0  0  0  0  0  0  0  0
  -27.1103  -29.0704   15.1558 C   0  0  0  0  0  0  0  0  0  0  0  0
  -26.8650  -25.0057   19.3053 C   0  0  0  0  0  0  0  0  0  1  0  0
  -22.4987  -30.4356   16.4615 C   0  0  1  0  0  0  0  0  0  0  0  0
  -25.5105  -30.7201   14.1772 C   0  0  2  0  0  0  0  0  0  0  0  0
  -21.1451  -30.7253   15.7536 C   0  0  0  0  0  0  0  0  0  0  0  0
  -25.8974  -11.2770   20.1332 N   0  0  0  0  0  0  0  0  0  0  0  0
  -26.6644  -11.6458   19.0931 N   0  0  0  0  0  0  0  0  0  0  0  0
  -27.4044  -21.2267   19.4655 N   0  0  1  0  0  0  0  0  0  0  0  0
  -23.3772  -30.4427   18.7750 N   0  0  0  0  0  0  0  0  0  0  0  0
  -28.3317  -14.7753   20.5107 N   0  0  0  0  0  0  0  0  0  0  0  0
  -27.0601  -11.2263   16.7957 N   0  0  0  0  0  0  0  0  0  0  0  0
  -23.7019   -8.3824   17.8106 N   0  0  0  0  0  0  0  0  0  0  0  0
  -26.9140  -16.5485   19.8716 N   0  0  0  0  0  0  0  0  0  0  0  0
  -22.1334  -30.4730   22.2025 N   0  0  0  0  0  0  0  0  0  0  0  0
  -23.6711  -30.8710   15.7103 N   0  0  0  0  0  0  0  0  0  0  0  0
  -28.8847  -23.6270   19.4209 N   0  3  0  0  0  0  0  0  0  0  0  0
  -26.6081  -29.7428   13.9300 N   0  3  0  0  0  0  0  0  0  0  0  0
  -25.0917   -9.0995   16.1335 O   0  0  0  0  0  0  0  0  0  0  0  0
  -21.7600  -29.1814   20.3012 O   0  0  0  0  0  0  0  0  0  0  0  0
  -22.0012  -32.1624   18.0098 O   0  0  0  0  0  0  0  0  0  0  0  0
  -24.0192  -28.8664   14.5978 O   0  0  0  0  0  0  0  0  0  0  0  0
  -29.1215  -16.9474   20.4628 O   0  0  0  0  0  0  0  0  0  0  0  0
  -27.3547  -18.8815   19.7283 O   0  0  0  0  0  0  0  0  0  0  0  0
  -21.2740   -7.7955   22.7895 O   0  0  0  0  0  0  0  0  0  0  0  0
  -27.5645  -26.0683   19.9518 O   0  0  0  0  0  0  0  0  0  1  0  0
  -22.3048   -2.6228   24.3972 F   0  0  0  0  0  0  0  0  0  0  0  0
  -21.4358   -7.1498   25.4727 F   0  0  0  0  0  0  0  0  0  0  0  0
  1  2  1  0  0  0  0
  1  5  2  0  0  0  0
  2  6  2  0  0  0  0
  3  8  2  0  0  0  0
  3 17  1  0  0  0  0
  4  9  1  0  0  0  0
  4 17  2  0  0  0  0
  5 19  1  0  0  0  0
  6 21  1  0  0  0  0
  7 10  2  0  0  0  0
  7 20  1  0  0  0  0
  8 23  1  0  0  0  0
  9 23  2  0  0  0  0
 10 24  1  0  0  0  0
 11 12  2  0  0  0  0
 11 25  1  0  0  0  0
 12 26  1  0  0  0  0
 13 14  1  0  0  0  0
 13 30  2  0  0  0  0
 14 31  2  0  0  0  0
 15 22  1  0  0  0  0
 15 24  2  0  0  0  0
 16 26  2  0  0  0  0
 16 27  1  0  0  0  0
 17 28  1  0  0  0  0
 18 28  1  0  0  0  0
 18 29  2  0  0  0  0
 18 32  1  0  0  0  0
 19 21  2  0  0  0  0
 19 37  1  0  0  0  0
 20 22  2  0  0  0  0
 20 38  1  0  0  0  0
 21 49  1  0  0  0  0
 22 39  1  0  0  0  0
 23 80  1  0  0  0  0
 24 81  1  0  0  0  0
 25 27  2  0  0  0  0
 25 80  1  0  0  0  0
 26 82  1  0  0  0  0
 27 83  1  0  0  0  0
 28 62  2  0  0  0  0
 29 63  1  0  0  0  0
 29 67  1  0  0  0  0
 30 64  1  0  0  0  0
 30 79  1  0  0  0  0
 31 69  1  0  0  0  0
 31 79  1  0  0  0  0
 32 68  1  0  0  0  0
 32 74  2  0  0  0  0
 33 50  1  0  0  0  0
 33 70  1  0  0  0  0
 33 75  2  0  0  0  0
 34 59  1  0  0  0  0
 34 65  1  0  0  0  0
 34 76  2  0  0  0  0
 35 60  1  0  0  0  0
 35 71  1  0  0  0  0
 35 77  2  0  0  0  0
 36 66  1  0  0  0  0
 36 69  1  0  0  0  0
 36 78  2  0  0  0  0
 37 40  1  0  0  0  0
 38 50  1  0  0  0  0
 39 65  1  0  0  0  0
 40 42  1  0  0  0  0
 41 43  1  0  0  0  0
 41 44  1  0  0  0  0
 42 49  1  0  0  0  0
 43 51  1  0  0  0  0
 44 66  1  0  0  0  0
 45 48  1  0  0  0  0
 45 64  1  0  0  0  0
 46 51  1  0  0  0  0
 46 66  1  0  0  0  0
 47 52  1  0  0  0  0
 47 64  1  0  0  0  0
 48 72  1  0  0  0  0
 49 70  1  0  0  0  0
 50 65  1  0  0  0  0
 51 63  1  0  0  0  0
 52 58  1  0  0  0  0
 52 72  1  0  0  0  0
 53 60  1  0  0  0  0
 54 61  1  0  0  0  0
 55 61  1  0  0  0  0
 56 61  1  0  0  0  0
 57 73  1  0  0  0  0
 58 81  1  0  0  0  0
 59 61  1  0  0  0  0
 59 71  1  0  0  0  0
 60 73  1  0  0  0  0
 62 63  1  0  0  0  0
M  CHG  2  72   1  73   1
M  ISO  4  36 100  58 101  69 100  81 101
M  END
> <Batch ID>
0156

> <Smiles>
CNC(C)C(=O)NC(C(=O)N1Cc2cc([101O:1][101CH2:1]C3CN(c4ccc([100NH:0][100C:0](=O)N5CCCC(n6nc(-c7ccc(Oc8ccc(F)cc8F)cc7)c(C(N)=O)c6N)C5)o4)CCN3)ccc2CC1C(=O)NC1CCCc2ccccc21)C(C)(C)C

> <Shape>
0.252

> <Color>
0.090

> <Negative vol penalty>
0.000

$$$$

  -OEChem-04052303393D

 84 93  0     1  0  0  0  0  0999 V2000
  -19.3820  -27.3937   26.5910 C   0  0  0  0  0  0  0  0  0  0  0  0
  -20.6360  -27.0039   26.1317 C   0  0  0  0  0  0  0  0  0  0  0  0
  -24.5858   -9.3753   21.5535 C   0  0  0  0  0  0  0  0  0  0  0  0
  -23.0063  -10.7540   20.3529 C   0  0  0  0  0  0  0  0  0  0  0  0
  -18.4378  -27.8945   25.6957 C   0  0  0  0  0  0  0  0  0  0  0  0
  -20.9462  -27.1136   24.7766 C   0  0  0  0  0  0  0  0  0  0  0  0
  -26.3982  -28.4840   22.3470 C   0  0  0  0  0  0  0  0  0  0  0  0
  -23.5948   -8.4143   21.7536 C   0  0  0  0  0  0  0  0  0  0  0  0
  -22.0153   -9.7929   20.5530 C   0  0  0  0  0  0  0  0  0  0  0  0
  -27.4106  -27.6917   21.8076 C   0  0  0  0  0  0  0  0  0  0  0  0
  -22.1163   -5.9519   19.9693 C   0  0  0  0  0  0  0  0  0  0  0  0
  -22.4537   -4.6169   19.7468 C   0  0  0  0  0  0  0  0  0  0  0  0
  -26.5302  -28.0830   19.5960 C   0  0  0  0  0  0  0  0  0  0  0  0
  -28.7244  -20.2091   19.7354 C   0  0  0  0  0  0  0  0  0  0  0  0
  -21.9137   -4.0976   22.0437 C   0  0  0  0  0  0  0  0  0  0  0  0
  -28.2653  -18.8518   17.9053 C   0  0  0  0  0  0  0  0  0  0  0  0
  -24.2915  -10.5452   20.8532 C   0  0  0  0  0  0  0  0  0  0  0  0
  -26.2109  -11.6235   19.5644 C   0  0  0  0  0  0  0  0  0  0  0  0
  -18.7398  -28.0195   24.3305 C   0  0  0  0  0  0  0  0  0  0  0  0
  -25.4362  -29.0739   21.5146 C   0  0  0  0  0  0  0  0  0  0  0  0
  -20.0046  -27.6154   23.8621 C   0  0  0  0  0  0  0  0  0  0  0  0
  -25.5081  -28.8845   20.1272 C   0  0  0  0  0  0  0  0  0  0  0  0
  -28.1713  -18.9799   19.2736 C   0  0  0  0  0  0  0  0  0  0  0  0
  -22.3096   -8.6231   21.2533 C   0  0  0  0  0  0  0  0  0  0  0  0
  -27.4750  -27.4887   20.4322 C   0  0  0  0  0  0  0  0  0  0  0  0
  -21.6778   -6.3598   21.2291 C   0  0  0  0  0  0  0  0  0  0  0  0
  -22.3523   -3.6897   20.7839 C   0  0  0  0  0  0  0  0  0  0  0  0
  -21.5764   -5.4326   22.2662 C   0  0  0  0  0  0  0  0  0  0  0  0
  -25.3145  -11.5386   20.6466 C   0  0  0  0  0  0  0  0  0  0  0  0
  -29.2203  -20.9737   18.7023 C   0  0  0  0  0  0  0  0  0  0  0  0
  -26.9725  -12.7338   19.8357 C   0  0  0  0  0  0  0  0  0  0  0  0
  -29.6385  -24.6144   19.6613 C   0  0  0  0  0  0  0  0  0  0  0  0
  -26.3431  -10.7747   18.4165 C   0  0  0  0  0  0  0  0  0  0  0  0
  -29.8548  -22.2924   18.8778 C   0  0  0  0  0  0  0  0  0  0  0  0
  -22.2792  -28.8459   21.2229 C   0  0  0  0  0  0  0  0  0  0  0  0
  -22.6926  -31.2580   19.0938 C   0  0  0  0  0  0  0  0  0  0  0  0
  -24.7719  -32.8971   16.9405 C   0  0  0  0  0  0  0  0  0  0  0  0
  -27.4480  -18.0286   21.4914 C   0  0  0  0  0  0  0  0  0  0  0  0
  -17.6703  -28.5222   23.3934 C   0  0  0  0  0  0  0  0  0  0  0  0
  -24.3662  -29.9477   22.1097 C   0  0  0  0  0  0  0  0  0  0  0  0
  -24.5115  -29.5121   19.1884 C   0  0  0  0  0  0  0  0  0  0  0  0
  -18.2081  -28.9571   22.0326 C   0  0  0  0  0  0  0  0  0  0  0  0
  -27.3274  -15.5392   24.0340 C   0  0  0  0  0  0  0  0  0  0  0  0
  -19.1736  -27.9126   21.4815 C   0  0  0  0  0  0  0  0  0  0  0  0
  -26.8667  -14.2834   23.2904 C   0  0  0  0  0  0  0  0  0  0  0  0
  -27.2891  -24.5732   19.9192 C   0  0  0  0  0  0  0  0  0  0  0  0
  -26.6485  -16.7977   23.4965 C   0  0  0  0  0  0  0  0  0  0  0  0
  -27.7687  -23.1273   19.8684 C   0  0  0  0  0  0  0  0  0  0  0  0
  -26.2987  -15.7355   21.3015 C   0  0  0  0  0  0  0  0  0  0  0  0
  -20.3872  -27.7424   22.4034 C   0  0  1  0  0  0  0  0  0  0  0  0
  -28.5222  -25.3786   20.3268 C   0  0  2  0  0  0  0  0  0  1  0  0
  -23.1369  -30.0796   21.2159 C   0  0  1  0  0  0  0  0  0  0  0  0
  -27.0038  -14.4501   21.7643 C   0  0  2  0  0  0  0  0  0  0  0  0
  -24.8144  -34.8071   15.3134 C   0  0  0  0  0  0  0  0  0  0  0  0
  -21.1705  -29.5610   17.0656 C   0  0  0  0  0  0  0  0  0  0  0  0
  -22.0557  -31.0511   15.2589 C   0  0  0  0  0  0  0  0  0  0  0  0
  -20.5848  -31.9922   17.0403 C   0  0  0  0  0  0  0  0  0  0  0  0
  -26.8605  -34.3170   18.4836 C   0  0  0  0  0  0  0  0  0  0  0  0
  -22.9602  -31.3404   17.6103 C   0  0  1  0  0  0  0  0  0  0  0  0
  -25.0631  -34.3748   16.7501 C   0  0  2  0  0  0  0  0  0  0  0  0
  -21.7106  -30.9726   16.7614 C   0  0  0  0  0  0  0  0  0  0  0  0
  -25.4894  -12.5169   21.5390 N   0  0  0  0  0  0  0  0  0  0  0  0
  -26.5045  -13.2270   21.0181 N   0  0  0  0  0  0  0  0  0  0  0  0
  -29.1641  -23.2775   19.4233 N   0  0  0  0  0  0  0  0  0  0  0  0
  -23.4804  -30.3528   19.8189 N   0  0  0  0  0  0  0  0  0  0  0  0
  -26.8236  -16.8912   22.0455 N   0  0  0  0  0  0  0  0  0  0  0  0
  -27.9903  -13.3265   19.1760 N   0  0  0  0  0  0  0  0  0  0  0  0
  -25.4798   -9.6774   18.2939 N   0  0  0  0  0  0  0  0  0  0  0  0
  -27.5885  -17.9910   20.1045 N   0  0  0  0  0  0  0  0  0  0  0  0
  -21.3200  -28.8332   22.2176 N   0  0  0  0  0  0  0  0  0  0  0  0
  -23.4770  -32.6820   17.3627 N   0  0  0  0  0  0  0  0  0  0  0  0
  -31.1132  -22.4692   18.4861 N   0  3  0  0  0  0  0  0  0  0  0  0
  -26.4833  -34.6709   17.0909 N   0  3  0  0  0  0  0  0  0  0  0  0
  -30.7532  -25.0024   19.3632 O   0  0  0  0  0  0  0  0  0  0  0  0
  -27.2123  -10.9735   17.5342 O   0  0  0  0  0  0  0  0  0  0  0  0
  -22.4722  -27.9710   20.3869 O   0  0  0  0  0  0  0  0  0  0  0  0
  -21.8217  -31.9756   19.5920 O   0  0  0  0  0  0  0  0  0  0  0  0
  -25.6083  -32.0211   16.7318 O   0  0  0  0  0  0  0  0  0  0  0  0
  -27.8544  -18.9548   22.1979 O   0  0  0  0  0  0  0  0  0  0  0  0
  -21.3425   -7.6854   21.4482 O   0  0  0  0  0  0  0  0  0  0  0  0
  -28.4617  -26.7152   19.9031 O   0  0  0  0  0  0  0  0  0  1  0  0
  -22.6748   -2.4074   20.5697 F   0  0  0  0  0  0  0  0  0  0  0  0
  -21.1545   -5.8183   23.4783 F   0  0  0  0  0  0  0  0  0  0  0  0
  -29.0180  -20.2099   17.1832 S   0  0  0  0  0  0  0  0  0  0  0  0
  1  2  1  0  0  0  0
  1  5  2  0  0  0  0
  2  6  2  0  0  0  0
  3  8  2  0  0  0  0
  3 17  1  0  0  0  0
  4  9  1  0  0  0  0
  4 17  2  0  0  0  0
  5 19  1  0  0  0  0
  6 21  1  0  0  0  0
  7 10  2  0  0  0  0
  7 20  1  0  0  0  0
  8 24  1  0  0  0  0
  9 24  2  0  0  0  0
 10 25  1  0  0  0  0
 11 12  2  0  0  0  0
 11 26  1  0  0  0  0
 12 27  1  0  0  0  0
 13 22  1  0  0  0  0
 13 25  2  0  0  0  0
 14 23  1  0  0  0  0
 14 30  2  0  0  0  0
 15 27  2  0  0  0  0
 15 28  1  0  0  0  0
 16 23  2  0  0  0  0
 16 84  1  0  0  0  0
 17 29  1  0  0  0  0
 18 29  1  0  0  0  0
 18 31  2  0  0  0  0
 18 33  1  0  0  0  0
 19 21  2  0  0  0  0
 19 39  1  0  0  0  0
 20 22  2  0  0  0  0
 20 40  1  0  0  0  0
 21 50  1  0  0  0  0
 22 41  1  0  0  0  0
 23 69  1  0  0  0  0
 24 80  1  0  0  0  0
 25 81  1  0  0  0  0
 26 28  2  0  0  0  0
 26 80  1  0  0  0  0
 27 82  1  0  0  0  0
 28 83  1  0  0  0  0
 29 62  2  0  0  0  0
 30 34  1  0  0  0  0
 30 84  1  0  0  0  0
 31 63  1  0  0  0  0
 31 67  1  0  0  0  0
 32 51  1  0  0  0  0
 32 64  1  0  0  0  0
 32 74  2  0  0  0  0
 33 68  1  0  0  0  0
 33 75  2  0  0  0  0
 34 64  1  0  0  0  0
 34 72  2  0  0  0  0
 35 52  1  0  0  0  0
 35 70  1  0  0  0  0
 35 76  2  0  0  0  0
 36 59  1  0  0  0  0
 36 65  1  0  0  0  0
 36 77  2  0  0  0  0
 37 60  1  0  0  0  0
 37 71  1  0  0  0  0
 37 78  2  0  0  0  0
 38 66  1  0  0  0  0
 38 69  1  0  0  0  0
 38 79  2  0  0  0  0
 39 42  1  0  0  0  0
 40 52  1  0  0  0  0
 41 65  1  0  0  0  0
 42 44  1  0  0  0  0
 43 45  1  0  0  0  0
 43 47  1  0  0  0  0
 44 50  1  0  0  0  0
 45 53  1  0  0  0  0
 46 48  1  0  0  0  0
 46 51  1  0  0  0  0
 47 66  1  0  0  0  0
 48 64  1  0  0  0  0
 49 53  1  0  0  0  0
 49 66  1  0  0  0  0
 50 70  1  0  0  0  0
 51 81  1  0  0  0  0
 52 65  1  0  0  0  0
 53 63  1  0  0  0  0
 54 60  1  0  0  0  0
 55 61  1  0  0  0  0
 56 61  1  0  0  0  0
 57 61  1  0  0  0  0
 58 73  1  0  0  0  0
 59 61  1  0  0  0  0
 59 71  1  0  0  0  0
 60 73  1  0  0  0  0
 62 63  1  0  0  0  0
M  CHG  2  72   1  73   1
M  ISO  4  38 100  51 101  69 100  81 101
M  END
> <Batch ID>
0156

> <Smiles>
CNC(C)C(=O)NC(C(=O)N1Cc2cc([101O:1][101CH:1]3CCN(C(=N)c4cc([100NH:0][100C:0](=O)N5CCCC(n6nc(-c7ccc(Oc8ccc(F)cc8F)cc7)c(C(N)=O)c6N)C5)cs4)C3=O)ccc2CC1C(=O)NC1CCCc2ccccc21)C(C)(C)C

> <Shape>
0.276

> <Color>
0.124

> <Negative vol penalty>
0.000

$$$$

  -OEChem-04052303393D

 82 90  0     1  0  0  0  0  0999 V2000
  -22.9990  -20.2188   21.9952 C   0  0  0  0  0  0  0  0  0  0  0  0
  -23.8555  -21.1063   21.3517 C   0  0  0  0  0  0  0  0  0  0  0  0
  -26.2127  -12.7681   21.6704 C   0  0  0  0  0  0  0  0  0  0  0  0
  -25.7997  -13.6075   19.4429 C   0  0  0  0  0  0  0  0  0  0  0  0
  -21.7046  -20.6171   22.3264 C   0  0  0  0  0  0  0  0  0  0  0  0
  -23.4177  -22.3926   21.0381 C   0  0  0  0  0  0  0  0  0  0  0  0
  -26.8454  -25.9427   22.1748 C   0  0  0  0  0  0  0  0  0  0  0  0
  -25.0237  -12.0408   21.6168 C   0  0  0  0  0  0  0  0  0  0  0  0
  -24.6107  -12.8802   19.3892 C   0  0  0  0  0  0  0  0  0  0  0  0
  -27.9151  -26.1000   21.2945 C   0  0  0  0  0  0  0  0  0  0  0  0
  -23.9316   -9.1502   20.2441 C   0  0  0  0  0  0  0  0  0  0  0  0
  -23.9603   -7.8275   20.6859 C   0  0  0  0  0  0  0  0  0  0  0  0
  -28.4362  -22.8065   16.6234 C   0  0  0  0  0  0  0  0  0  0  0  0
  -28.2570  -21.5104   17.1630 C   0  0  0  0  0  0  0  0  0  0  0  0
  -26.8138  -28.0052   20.3063 C   0  0  0  0  0  0  0  0  0  0  0  0
  -22.3067   -8.3531   22.3671 C   0  0  0  0  0  0  0  0  0  0  0  0
  -26.6007  -13.5515   20.5834 C   0  0  0  0  0  0  0  0  0  0  0  0
  -29.1078  -13.8728   20.2386 C   0  0  0  0  0  0  0  0  0  0  0  0
  -21.2539  -21.9121   22.0253 C   0  0  0  0  0  0  0  0  0  0  0  0
  -25.7451  -26.8103   22.1201 C   0  0  0  0  0  0  0  0  0  0  0  0
  -22.1156  -22.8082   21.3644 C   0  0  0  0  0  0  0  0  0  0  0  0
  -25.7327  -27.8584   21.1887 C   0  0  0  0  0  0  0  0  0  0  0  0
  -24.2227  -12.0968   20.4762 C   0  0  0  0  0  0  0  0  0  0  0  0
  -27.8981  -27.1296   20.3582 C   0  0  0  0  0  0  0  0  0  0  0  0
  -23.0905  -10.0744   20.8638 C   0  0  0  0  0  0  0  0  0  0  0  0
  -23.1479   -7.4289   21.7473 C   0  0  0  0  0  0  0  0  0  0  0  0
  -22.2780   -9.6758   21.9253 C   0  0  0  0  0  0  0  0  0  0  0  0
  -27.8285  -14.3035   20.6384 C   0  0  0  0  0  0  0  0  0  0  0  0
  -29.9260  -14.9468   20.4907 C   0  0  0  0  0  0  0  0  0  0  0  0
  -28.8580  -23.5991   17.6655 C   0  0  0  0  0  0  0  0  0  0  0  0
  -28.5823  -21.6033   18.4963 C   0  0  0  0  0  0  0  0  0  0  0  0
  -29.5197  -12.6144   19.6885 C   0  0  0  0  0  0  0  0  0  0  0  0
  -22.6408  -26.4618   21.5324 C   0  0  0  0  0  0  0  0  0  0  0  0
  -22.5312  -29.5988   22.3507 C   0  0  0  0  0  0  0  0  0  0  0  0
  -29.1663  -25.8976   16.6841 C   0  0  0  0  0  0  0  0  0  0  0  0
  -24.1743  -32.5756   22.6437 C   0  0  0  0  0  0  0  0  0  0  0  0
  -28.9422  -20.8286   20.8662 C   0  0  0  0  0  0  0  0  0  0  0  0
  -19.8306  -22.2816   22.3607 C   0  0  0  0  0  0  0  0  0  0  0  0
  -24.6114  -26.6436   23.0944 C   0  0  0  0  0  0  0  0  0  0  0  0
  -24.5843  -28.8291   21.1026 C   0  0  0  0  0  0  0  0  0  0  0  0
  -19.5681  -23.7850   22.3292 C   0  0  0  0  0  0  0  0  0  0  0  0
  -30.3428  -18.7388   23.3857 C   0  0  0  0  0  0  0  0  0  0  0  0
  -20.1637  -24.4047   21.0691 C   0  0  0  0  0  0  0  0  0  0  0  0
  -29.9787  -17.3247   22.9276 C   0  0  0  0  0  0  0  0  0  0  0  0
  -29.2285  -19.7383   23.0808 C   0  0  0  0  0  0  0  0  0  0  0  0
  -28.4081  -18.3386   21.2269 C   0  0  0  0  0  0  0  0  0  0  0  0
  -21.6855  -24.2200   21.0298 C   0  0  1  0  0  0  0  0  0  0  0  0
  -23.3085  -27.2709   22.6081 C   0  0  1  0  0  0  0  0  0  0  0  0
  -29.5266  -17.3086   21.4541 C   0  0  2  0  0  0  0  0  0  0  0  0
  -23.8112  -34.9694   23.3035 C   0  0  0  0  0  0  0  0  0  0  0  0
  -21.1125  -30.1122   19.6986 C   0  0  0  0  0  0  0  0  0  0  0  0
  -21.6268  -32.5468   19.9747 C   0  0  0  0  0  0  0  0  0  0  0  0
  -20.1826  -31.3821   21.6421 C   0  0  0  0  0  0  0  0  0  0  0  0
  -26.1529  -32.3923   24.8369 C   0  0  0  0  0  0  0  0  0  0  0  0
  -28.6480  -27.8430   18.2170 C   0  0  0  0  0  0  0  0  0  1  0  0
  -22.6649  -30.9038   21.6037 C   0  0  1  0  0  0  0  0  0  0  0  0
  -29.5960  -27.2789   17.1639 C   0  0  2  0  0  0  0  0  0  0  0  0
  -24.2334  -33.5864   23.7747 C   0  0  2  0  0  0  0  0  0  0  0  0
  -21.4176  -31.2169   20.7299 C   0  0  0  0  0  0  0  0  0  0  0  0
  -27.8290  -15.5536   21.1088 N   0  0  0  0  0  0  0  0  0  0  0  0
  -29.1186  -15.9175   21.0064 N   0  0  0  0  0  0  0  0  0  0  0  0
  -23.4966  -28.6207   22.0725 N   0  0  0  0  0  0  0  0  0  0  0  0
  -28.8553  -19.6697   21.6663 N   0  0  0  0  0  0  0  0  0  0  0  0
  -31.2502  -15.1460   20.3195 N   0  0  0  0  0  0  0  0  0  0  0  0
  -28.5505  -11.6207   19.4946 N   0  0  0  0  0  0  0  0  0  0  0  0
  -29.1899  -24.9735   17.7243 N   0  0  0  0  0  0  0  0  0  0  0  0
  -28.5928  -20.6345   19.5303 N   0  0  0  0  0  0  0  0  0  0  0  0
  -22.3327  -25.1688   21.9103 N   0  0  0  0  0  0  0  0  0  0  0  0
  -22.9617  -31.9201   22.6074 N   0  0  0  0  0  0  0  0  0  0  0  0
  -29.6634  -28.2305   16.0173 N   0  3  0  0  0  0  0  0  0  0  0  0
  -25.6188  -33.6771   24.3164 N   0  3  0  0  0  0  0  0  0  0  0  0
  -30.7146  -12.3724   19.3935 O   0  0  0  0  0  0  0  0  0  0  0  0
  -22.4200  -26.9732   20.4409 O   0  0  0  0  0  0  0  0  0  0  0  0
  -21.6086  -29.4552   23.1568 O   0  0  0  0  0  0  0  0  0  0  0  0
  -28.8507  -25.6931   15.5156 O   0  0  0  0  0  0  0  0  0  0  0  0
  -25.1087  -32.3890   21.8675 O   0  0  0  0  0  0  0  0  0  0  0  0
  -29.3263  -21.9072   21.3258 O   0  0  0  0  0  0  0  0  0  0  0  0
  -28.9497  -22.8732   18.8106 O   0  0  0  0  0  0  0  0  0  0  0  0
  -23.0625  -11.3870   20.4235 O   0  0  0  0  0  0  0  0  0  0  0  0
  -28.9406  -27.2850   19.4973 O   0  0  0  0  0  0  0  0  0  1  0  0
  -23.1744   -6.1583   22.1705 F   0  0  0  0  0  0  0  0  0  0  0  0
  -21.4670  -10.5589   22.5238 F   0  0  0  0  0  0  0  0  0  0  0  0
  1  2  1  0  0  0  0
  1  5  2  0  0  0  0
  2  6  2  0  0  0  0
  3  8  2  0  0  0  0
  3 17  1  0  0  0  0
  4  9  1  0  0  0  0
  4 17  2  0  0  0  0
  5 19  1  0  0  0  0
  6 21  1  0  0  0  0
  7 10  2  0  0  0  0
  7 20  1  0  0  0  0
  8 23  1  0  0  0  0
  9 23  2  0  0  0  0
 10 24  1  0  0  0  0
 11 12  2  0  0  0  0
 11 25  1  0  0  0  0
 12 26  1  0  0  0  0
 13 14  1  0  0  0  0
 13 30  2  0  0  0  0
 14 31  2  0  0  0  0
 15 22  1  0  0  0  0
 15 24  2  0  0  0  0
 16 26  2  0  0  0  0
 16 27  1  0  0  0  0
 17 28  1  0  0  0  0
 18 28  1  0  0  0  0
 18 29  2  0  0  0  0
 18 32  1  0  0  0  0
 19 21  2  0  0  0  0
 19 38  1  0  0  0  0
 20 22  2  0  0  0  0
 20 39  1  0  0  0  0
 21 47  1  0  0  0  0
 22 40  1  0  0  0  0
 23 79  1  0  0  0  0
 24 80  1  0  0  0  0
 25 27  2  0  0  0  0
 25 79  1  0  0  0  0
 26 81  1  0  0  0  0
 27 82  1  0  0  0  0
 28 60  2  0  0  0  0
 29 61  1  0  0  0  0
 29 64  1  0  0  0  0
 30 66  1  0  0  0  0
 30 78  1  0  0  0  0
 31 67  1  0  0  0  0
 31 78  1  0  0  0  0
 32 65  1  0  0  0  0
 32 72  2  0  0  0  0
 33 48  1  0  0  0  0
 33 68  1  0  0  0  0
 33 73  2  0  0  0  0
 34 56  1  0  0  0  0
 34 62  1  0  0  0  0
 34 74  2  0  0  0  0
 35 57  1  0  0  0  0
 35 66  1  0  0  0  0
 35 75  2  0  0  0  0
 36 58  1  0  0  0  0
 36 69  1  0  0  0  0
 36 76  2  0  0  0  0
 37 63  1  0  0  0  0
 37 67  1  0  0  0  0
 37 77  2  0  0  0  0
 38 41  1  0  0  0  0
 39 48  1  0  0  0  0
 40 62  1  0  0  0  0
 41 43  1  0  0  0  0
 42 44  1  0  0  0  0
 42 45  1  0  0  0  0
 43 47  1  0  0  0  0
 44 49  1  0  0  0  0
 45 63  1  0  0  0  0
 46 49  1  0  0  0  0
 46 63  1  0  0  0  0
 47 68  1  0  0  0  0
 48 62  1  0  0  0  0
 49 61  1  0  0  0  0
 50 58  1  0  0  0  0
 51 59  1  0  0  0  0
 52 59  1  0  0  0  0
 53 59  1  0  0  0  0
 54 71  1  0  0  0  0
 55 57  1  0  0  0  0
 55 80  1  0  0  0  0
 56 59  1  0  0  0  0
 56 69  1  0  0  0  0
 57 70  1  0  0  0  0
 58 71  1  0  0  0  0
 60 61  1  0  0  0  0
M  CHG  2  70   1  71   1
M  ISO  4  37 100  55 101  67 100  80 101
M  END
> <Batch ID>
0156

> <Smiles>
CNC(C)C(=O)NC(C(=O)N1Cc2cc([101O:1][101CH2:1]C(N)C(=O)Nc3ccc([100NH:0][100C:0](=O)N4CCCC(n5nc(-c6ccc(Oc7ccc(F)cc7F)cc6)c(C(N)=O)c5N)C4)o3)ccc2CC1C(=O)NC1CCCc2ccccc21)C(C)(C)C

> <Shape>
0.272

> <Color>
0.087

> <Negative vol penalty>
0.000

$$$$

  -OEChem-04052303393D

 84 92  0     1  0  0  0  0  0999 V2000
  -23.9932  -11.7660   20.6648 C   0  0  0  0  0  0  0  0  0  0  0  0
  -24.0927  -12.6803   21.7086 C   0  0  0  0  0  0  0  0  0  0  0  0
  -23.6416  -27.1518   22.7637 C   0  0  0  0  0  0  0  0  0  0  0  0
  -22.9711  -29.1644   21.6074 C   0  0  0  0  0  0  0  0  0  0  0  0
  -24.9474  -11.7638   19.6482 C   0  0  0  0  0  0  0  0  0  0  0  0
  -25.1471  -13.5923   21.7370 C   0  0  0  0  0  0  0  0  0  0  0  0
  -24.9795  -19.3501   23.8168 C   0  0  0  0  0  0  0  0  0  0  0  0
  -22.5807  -27.3105   23.6553 C   0  0  0  0  0  0  0  0  0  0  0  0
  -21.9102  -29.3231   22.4990 C   0  0  0  0  0  0  0  0  0  0  0  0
  -25.3618  -19.9206   25.0301 C   0  0  0  0  0  0  0  0  0  0  0  0
  -18.8248  -28.0213   22.9535 C   0  0  0  0  0  0  0  0  0  0  0  0
  -17.5774  -28.3489   22.4223 C   0  0  0  0  0  0  0  0  0  0  0  0
  -27.4911  -20.5223   24.0693 C   0  0  0  0  0  0  0  0  0  0  0  0
  -29.5270  -24.4632   23.4581 C   0  0  0  0  0  0  0  0  0  0  0  0
  -17.5616  -30.3886   23.7170 C   0  0  0  0  0  0  0  0  0  0  0  0
  -31.0949  -23.2961   24.5331 C   0  0  0  0  0  0  0  0  0  0  0  0
  -23.8369  -28.0787   21.7398 C   0  0  0  0  0  0  0  0  0  0  0  0
  -24.9215  -27.2116   19.5999 C   0  0  0  0  0  0  0  0  0  0  0  0
  -26.0087  -12.6826   19.6591 C   0  0  0  0  0  0  0  0  0  0  0  0
  -25.8558  -19.3517   22.7221 C   0  0  0  0  0  0  0  0  0  0  0  0
  -26.1171  -13.6015   20.7204 C   0  0  0  0  0  0  0  0  0  0  0  0
  -27.1166  -19.9534   22.8425 C   0  0  0  0  0  0  0  0  0  0  0  0
  -29.7434  -23.5514   24.5187 C   0  0  0  0  0  0  0  0  0  0  0  0
  -21.7150  -28.3961   23.5229 C   0  0  0  0  0  0  0  0  0  0  0  0
  -26.6189  -20.5043   25.1574 C   0  0  0  0  0  0  0  0  0  0  0  0
  -19.4407  -28.8774   23.8666 C   0  0  0  0  0  0  0  0  0  0  0  0
  -16.9458  -29.5325   22.8040 C   0  0  0  0  0  0  0  0  0  0  0  0
  -18.8091  -30.0611   24.2483 C   0  0  0  0  0  0  0  0  0  0  0  0
  -24.9330  -27.9156   20.8189 C   0  0  0  0  0  0  0  0  0  0  0  0
  -26.1961  -27.3550   19.1086 C   0  0  0  0  0  0  0  0  0  0  0  0
  -30.7617  -24.7003   22.9001 C   0  0  0  0  0  0  0  0  0  0  0  0
  -23.8541  -26.4925   18.9681 C   0  0  0  0  0  0  0  0  0  0  0  0
  -27.2710  -17.1022   20.9783 C   0  0  0  0  0  0  0  0  0  0  0  0
  -28.2355  -19.6371   19.1988 C   0  0  0  0  0  0  0  0  0  0  0  0
  -29.1485  -22.6786   17.9487 C   0  0  0  0  0  0  0  0  0  0  0  0
  -27.4145  -23.2273   25.4221 C   0  0  0  0  0  0  0  0  0  0  0  0
  -31.4476  -28.2998   21.6726 C   0  0  0  0  0  0  0  0  0  0  0  0
  -27.0423  -12.6109   18.5631 C   0  0  0  0  0  0  0  0  0  0  0  0
  -25.4181  -18.7558   21.4122 C   0  0  0  0  0  0  0  0  0  0  0  0
  -28.0866  -19.9993   21.6912 C   0  0  0  0  0  0  0  0  0  0  0  0
  -27.9194  -13.8568   18.4706 C   0  0  0  0  0  0  0  0  0  0  0  0
  -29.9347  -30.3357   19.1712 C   0  0  0  0  0  0  0  0  0  0  0  0
  -28.4088  -14.2692   19.8553 C   0  0  0  0  0  0  0  0  0  0  0  0
  -28.4716  -29.8855   19.2071 C   0  0  0  0  0  0  0  0  0  0  0  0
  -30.5569  -30.3581   20.5664 C   0  0  0  0  0  0  0  0  0  0  0  0
  -28.9519  -28.6588   21.3608 C   0  0  0  0  0  0  0  0  0  0  0  0
  -27.2326  -14.6228   20.7734 C   0  0  1  0  0  0  0  0  0  0  0  0
  -26.5872  -18.3579   20.5165 C   0  0  1  0  0  0  0  0  0  0  0  0
  -28.3151  -28.5541   19.9655 C   0  0  1  0  0  0  0  0  0  0  0  0
  -30.1793  -24.3317   16.3670 C   0  0  0  0  0  0  0  0  0  0  0  0
  -27.2259  -22.8233   27.9131 C   0  0  0  0  0  0  0  0  0  0  0  0
  -25.1773  -22.6135   26.4552 C   0  0  0  0  0  0  0  0  0  0  0  0
  -30.7779  -18.9960   20.7593 C   0  0  0  0  0  0  0  0  0  0  0  0
  -31.9368  -20.8099   19.4806 C   0  0  0  0  0  0  0  0  0  0  0  0
  -31.0099  -18.8328   18.2745 C   0  0  0  0  0  0  0  0  0  0  0  0
  -26.6980  -22.7984   16.2935 C   0  0  0  0  0  0  0  0  0  0  0  0
  -32.8779  -25.5699   21.3787 C   0  0  0  0  0  0  0  0  0  0  0  0
  -29.4266  -20.5644   19.2165 C   0  0  1  0  0  0  0  0  0  0  0  0
  -29.1469  -23.2276   16.5334 C   0  0  2  0  0  0  0  0  0  0  0  0
  -26.6939  -22.4429   26.5329 C   0  0  0  0  0  0  0  0  0  1  0  0
  -30.7643  -19.8064   19.4478 C   0  0  0  0  0  0  0  0  0  0  0  0
  -26.1207  -28.4653   21.0858 N   0  0  0  0  0  0  0  0  0  0  0  0
  -31.1881  -27.0611   22.3174 N   0  0  0  0  0  0  0  0  0  0  0  0
  -26.8675  -28.1066   20.0276 N   0  0  0  0  0  0  0  0  0  0  0  0
  -27.6148  -19.3978   20.4330 N   0  0  0  0  0  0  0  0  0  0  0  0
  -30.3531  -29.0745   21.2387 N   0  0  0  0  0  0  0  0  0  0  0  0
  -26.7968  -26.9102   17.9845 N   0  0  0  0  0  0  0  0  0  0  0  0
  -22.6088  -26.4452   19.6094 N   0  0  0  0  0  0  0  0  0  0  0  0
  -28.7859  -22.9970   25.4019 N   0  0  0  0  0  0  0  0  0  0  0  0
  -26.7266  -15.9423   20.4610 N   0  0  0  0  0  0  0  0  0  0  0  0
  -29.3753  -21.3186   17.9687 N   0  0  0  0  0  0  0  0  0  0  0  0
  -27.8061  -23.7830   16.1948 N   0  3  0  0  0  0  0  0  0  0  0  0
  -24.0049  -25.8953   17.8753 O   0  0  0  0  0  0  0  0  0  0  0  0
  -28.2231  -17.1801   21.7459 O   0  0  0  0  0  0  0  0  0  0  0  0
  -27.8650  -19.1489   18.1283 O   0  0  0  0  0  0  0  0  0  0  0  0
  -28.9703  -23.3860   18.9378 O   0  0  0  0  0  0  0  0  0  0  0  0
  -26.7859  -23.9643   24.6654 O   0  0  0  0  0  0  0  0  0  0  0  0
  -32.6054  -28.6900   21.4935 O   0  0  0  0  0  0  0  0  0  0  0  0
  -31.7229  -23.9926   23.5497 O   0  0  0  0  0  0  0  0  0  0  0  0
  -20.6795  -28.5512   24.3925 O   0  0  0  0  0  0  0  0  0  0  0  0
  -26.9948  -21.0613   26.3407 O   0  0  0  0  0  0  0  0  0  1  0  0
  -15.7486  -29.8476   22.2926 F   0  0  0  0  0  0  0  0  0  0  0  0
  -19.3963  -30.8881   25.1241 F   0  0  0  0  0  0  0  0  0  0  0  0
  -31.0804  -25.7992   21.4902 S   0  0  2  0  0  0  0  0  0  0  0  0
  1  2  1  0  0  0  0
  1  5  2  0  0  0  0
  2  6  2  0  0  0  0
  3  8  2  0  0  0  0
  3 17  1  0  0  0  0
  4  9  1  0  0  0  0
  4 17  2  0  0  0  0
  5 19  1  0  0  0  0
  6 21  1  0  0  0  0
  7 10  2  0  0  0  0
  7 20  1  0  0  0  0
  8 24  1  0  0  0  0
  9 24  2  0  0  0  0
 10 25  1  0  0  0  0
 11 12  2  0  0  0  0
 11 26  1  0  0  0  0
 12 27  1  0  0  0  0
 13 22  1  0  0  0  0
 13 25  2  0  0  0  0
 14 23  1  0  0  0  0
 14 31  2  0  0  0  0
 15 27  2  0  0  0  0
 15 28  1  0  0  0  0
 16 23  2  0  0  0  0
 16 79  1  0  0  0  0
 17 29  1  0  0  0  0
 18 29  1  0  0  0  0
 18 30  2  0  0  0  0
 18 32  1  0  0  0  0
 19 21  2  0  0  0  0
 19 38  1  0  0  0  0
 20 22  2  0  0  0  0
 20 39  1  0  0  0  0
 21 47  1  0  0  0  0
 22 40  1  0  0  0  0
 23 69  1  0  0  0  0
 24 80  1  0  0  0  0
 25 81  1  0  0  0  0
 26 28  2  0  0  0  0
 26 80  1  0  0  0  0
 27 82  1  0  0  0  0
 28 83  1  0  0  0  0
 29 62  2  0  0  0  0
 30 64  1  0  0  0  0
 30 67  1  0  0  0  0
 31 79  1  0  0  0  0
 31 84  1  0  0  0  0
 32 68  1  0  0  0  0
 32 73  2  0  0  0  0
 33 48  1  0  0  0  0
 33 70  1  0  0  0  0
 33 74  2  0  0  0  0
 34 58  1  0  0  0  0
 34 65  1  0  0  0  0
 34 75  2  0  0  0  0
 35 59  1  0  0  0  0
 35 71  1  0  0  0  0
 35 76  2  0  0  0  0
 36 60  1  0  0  0  0
 36 69  1  0  0  0  0
 36 77  2  0  0  0  0
 37 63  1  0  0  0  0
 37 66  1  0  0  0  0
 37 78  2  0  0  0  0
 38 41  1  0  0  0  0
 39 48  1  0  0  0  0
 40 65  1  0  0  0  0
 41 43  1  0  0  0  0
 42 44  1  0  0  0  0
 42 45  1  0  0  0  0
 43 47  1  0  0  0  0
 44 49  1  0  0  0  0
 45 66  1  0  0  0  0
 46 49  1  0  0  0  0
 46 66  1  0  0  0  0
 47 70  1  0  0  0  0
 48 65  1  0  0  0  0
 49 64  1  0  0  0  0
 50 59  1  0  0  0  0
 51 60  1  0  0  0  0
 52 60  1  0  0  0  0
 53 61  1  0  0  0  0
 54 61  1  0  0  0  0
 55 61  1  0  0  0  0
 56 72  1  0  0  0  0
 57 84  1  0  0  0  0
 58 61  1  0  0  0  0
 58 71  1  0  0  0  0
 59 72  1  0  0  0  0
 60 81  1  0  0  0  0
 62 64  1  0  0  0  0
 63 84  2  0  0  0  0
M  CHG  1  72   1
M  ISO  4  37 100  60 101  63 100  81 101
M  END
> <Batch ID>
0156

> <Smiles>
CNC(C)C(=O)NC(C(=O)N1Cc2cc([101O:1][101C:1](C)(C)C(=O)Nc3coc(S(C)=[100N:0][100C:0](=O)N4CCCC(n5nc(-c6ccc(Oc7ccc(F)cc7F)cc6)c(C(N)=O)c5N)C4)c3)ccc2CC1C(=O)NC1CCCc2ccccc21)C(C)(C)C

> <Shape>
0.216

> <Color>
0.065

> <Negative vol penalty>
0.000

$$$$

  -OEChem-04052303393D

 87 96  0     1  0  0  0  0  0999 V2000
  -31.5910  -35.0120   22.9440 C   0  0  0  0  0  0  0  0  0  0  0  0
  -31.5180  -33.6847   23.3545 C   0  0  0  0  0  0  0  0  0  0  0  0
  -23.0767   -9.8659   19.9408 C   0  0  0  0  0  0  0  0  0  0  0  0
  -23.8354   -9.8743   22.2345 C   0  0  0  0  0  0  0  0  0  0  0  0
  -31.2803  -35.3515   21.6279 C   0  0  0  0  0  0  0  0  0  0  0  0
  -31.1332  -32.6963   22.4493 C   0  0  0  0  0  0  0  0  0  0  0  0
  -33.1648  -26.9236   22.2178 C   0  0  0  0  0  0  0  0  0  0  0  0
  -22.3333   -8.7125   20.1909 C   0  0  0  0  0  0  0  0  0  0  0  0
  -23.0919   -8.7209   22.4847 C   0  0  0  0  0  0  0  0  0  0  0  0
  -32.6375  -25.7238   22.6937 C   0  0  0  0  0  0  0  0  0  0  0  0
  -19.8639   -7.9218   23.0859 C   0  0  0  0  0  0  0  0  0  0  0  0
  -19.1063   -7.8820   24.2564 C   0  0  0  0  0  0  0  0  0  0  0  0
  -31.8474  -18.3668   24.1987 C   0  0  0  0  0  0  0  0  0  0  0  0
  -32.0593  -16.6128   22.5509 C   0  0  0  0  0  0  0  0  0  0  0  0
  -31.6892  -25.2851   20.5194 C   0  0  0  0  0  0  0  0  0  0  0  0
  -29.8748  -17.4620   23.1371 C   0  0  0  0  0  0  0  0  0  0  0  0
  -20.3483   -5.9455   24.9944 C   0  0  0  0  0  0  0  0  0  0  0  0
  -23.8279  -10.4468   20.9626 C   0  0  0  0  0  0  0  0  0  0  0  0
  -32.6462  -17.4991   23.4541 C   0  0  0  0  0  0  0  0  0  0  0  0
  -24.1685  -12.9720   20.8416 C   0  0  0  0  0  0  0  0  0  0  0  0
  -30.9008  -34.3655   20.7036 C   0  0  0  0  0  0  0  0  0  0  0  0
  -32.9486  -27.3190   20.8899 C   0  0  0  0  0  0  0  0  0  0  0  0
  -30.8158  -33.0232   21.1200 C   0  0  0  0  0  0  0  0  0  0  0  0
  -32.2169  -26.4891   20.0284 C   0  0  0  0  0  0  0  0  0  0  0  0
  -30.4616  -18.3483   24.0403 C   0  0  0  0  0  0  0  0  0  0  0  0
  -30.6736  -16.5942   22.3924 C   0  0  0  0  0  0  0  0  0  0  0  0
  -22.3409   -8.1400   21.4628 C   0  0  0  0  0  0  0  0  0  0  0  0
  -31.8972  -24.9058   21.8453 C   0  0  0  0  0  0  0  0  0  0  0  0
  -20.8636   -6.9734   22.8695 C   0  0  0  0  0  0  0  0  0  0  0  0
  -19.3486   -6.8939   25.2107 C   0  0  0  0  0  0  0  0  0  0  0  0
  -21.1058   -5.9853   23.8238 C   0  0  0  0  0  0  0  0  0  0  0  0
  -24.5965  -11.6379   20.7047 C   0  0  0  0  0  0  0  0  0  0  0  0
  -25.2605  -13.7219   20.4786 C   0  0  0  0  0  0  0  0  0  0  0  0
  -29.5234  -22.6656   23.3372 C   0  0  0  0  0  0  0  0  0  0  0  0
  -30.1280  -23.7546   22.8529 C   0  0  0  0  0  0  0  0  0  1  0  0
  -34.0828  -17.5190   23.6184 C   0  0  0  0  0  0  0  0  0  0  0  0
  -22.8976  -13.4874   21.2597 C   0  0  0  0  0  0  0  0  0  0  0  0
  -31.5048  -29.7800   19.4890 C   0  0  0  0  0  0  0  0  0  0  0  0
  -32.7269  -28.4592   16.7900 C   0  0  0  0  0  0  0  0  0  0  0  0
  -33.8947  -25.6748   15.1993 C   0  0  0  0  0  0  0  0  0  0  0  0
  -30.7261  -14.7702   20.6556 C   0  0  0  0  0  0  0  0  0  0  0  0
  -30.5286  -34.7871   19.3042 C   0  0  0  0  0  0  0  0  0  0  0  0
  -33.5467  -28.6033   20.3846 C   0  0  0  0  0  0  0  0  0  0  0  0
  -31.9735  -26.8584   18.5887 C   0  0  0  0  0  0  0  0  0  0  0  0
  -28.1533  -22.6287   23.9457 C   0  0  0  0  0  0  0  0  0  0  0  0
  -30.1342  -21.3024   23.4110 C   0  0  0  0  0  0  0  0  0  0  0  0
  -30.4917  -33.6301   18.3090 C   0  0  0  0  0  0  0  0  0  0  0  0
  -29.6141  -12.3548   18.2879 C   0  0  0  0  0  0  0  0  0  0  0  0
  -29.7341  -32.4440   18.8973 C   0  0  0  0  0  0  0  0  0  0  0  0
  -28.1744  -12.0627   18.7168 C   0  0  0  0  0  0  0  0  0  0  0  0
  -30.5285  -12.5846   19.4899 C   0  0  0  0  0  0  0  0  0  0  0  0
  -28.6205  -13.3087   20.8698 C   0  0  0  0  0  0  0  0  0  0  0  0
  -28.1815  -21.3720   24.8056 C   0  0  0  0  0  0  0  0  0  0  0  0
  -30.4263  -31.9192   20.1610 C   0  0  1  0  0  0  0  0  0  0  0  0
  -32.8293  -29.1536   19.1558 C   0  0  1  0  0  0  0  0  0  0  0  0
  -27.6483  -13.1345   19.6916 C   0  0  2  0  0  0  0  0  0  0  0  0
  -34.7861  -24.8989   12.9856 C   0  0  0  0  0  0  0  0  0  0  0  0
  -29.9005  -28.4973   15.6413 C   0  0  0  0  0  0  0  0  0  0  0  0
  -30.6679  -26.8877   13.8839 C   0  0  0  0  0  0  0  0  0  0  0  0
  -31.6919  -29.1580   14.0262 C   0  0  0  0  0  0  0  0  0  0  0  0
  -36.4843  -24.8783   16.3902 C   0  0  0  0  0  0  0  0  0  0  0  0
  -29.6025  -19.2823   24.8406 C   0  0  0  0  0  0  0  0  0  0  0  0
  -32.2486  -27.4343   15.7901 C   0  0  1  0  0  0  0  0  0  0  0  0
  -35.1391  -25.4404   14.3621 C   0  0  2  0  0  0  0  0  0  0  0  0
  -31.1300  -27.9880   14.8630 C   0  0  0  0  0  0  0  0  0  0  0  0
  -25.8616  -11.5425   20.2871 N   0  0  0  0  0  0  0  0  0  0  0  0
  -26.2380  -12.8262   20.1584 N   0  0  0  0  0  0  0  0  0  0  0  0
  -32.5735  -28.1270   18.1435 N   0  0  0  0  0  0  0  0  0  0  0  0
  -29.9686  -13.6155   20.3665 N   0  0  0  0  0  0  0  0  0  0  0  0
  -25.4703  -15.0534   20.4051 N   0  0  0  0  0  0  0  0  0  0  0  0
  -34.6573  -18.3695   24.4856 N   0  0  0  0  0  0  0  0  0  0  0  0
  -21.8859  -12.5779   21.5968 N   0  0  0  0  0  0  0  0  0  0  0  0
  -30.0779  -15.6953   21.4733 N   0  0  0  0  0  0  0  0  0  0  0  0
  -31.5819  -31.1218   19.8102 N   0  0  0  0  0  0  0  0  0  0  0  0
  -33.4364  -26.9700   15.0817 N   0  0  0  0  0  0  0  0  0  0  0  0
  -34.8613  -16.6861   22.9074 N   0  3  0  0  0  0  0  0  0  0  0  0
  -29.0747  -20.4242   24.0375 N   0  3  2  0  0  0  0  0  0  0  0  0
  -36.0395  -24.4621   15.0352 N   0  3  0  0  0  0  0  0  0  0  0  0
  -22.6607  -14.7180   21.3164 O   0  0  0  0  0  0  0  0  0  0  0  0
  -30.4880  -29.0969   19.4556 O   0  0  0  0  0  0  0  0  0  0  0  0
  -33.2250  -29.5126   16.3852 O   0  0  0  0  0  0  0  0  0  0  0  0
  -33.3784  -24.7958   15.8859 O   0  0  0  0  0  0  0  0  0  0  0  0
  -31.8554  -14.9392   20.1885 O   0  0  0  0  0  0  0  0  0  0  0  0
  -21.6153   -7.0147   21.7073 O   0  0  0  0  0  0  0  0  0  0  0  0
  -31.3809  -23.7346   22.3074 O   0  0  0  0  0  0  0  0  0  1  0  0
  -18.6221   -6.8568   26.3354 F   0  0  0  0  0  0  0  0  0  0  0  0
  -22.0657   -5.0721   23.6220 F   0  0  0  0  0  0  0  0  0  0  0  0
  1  2  1  0  0  0  0
  1  5  2  0  0  0  0
  2  6  2  0  0  0  0
  3  8  2  0  0  0  0
  3 18  1  0  0  0  0
  4  9  1  0  0  0  0
  4 18  2  0  0  0  0
  5 21  1  0  0  0  0
  6 23  1  0  0  0  0
  7 10  2  0  0  0  0
  7 22  1  0  0  0  0
  8 27  1  0  0  0  0
  9 27  2  0  0  0  0
 10 28  1  0  0  0  0
 11 12  2  0  0  0  0
 11 29  1  0  0  0  0
 12 30  1  0  0  0  0
 13 19  1  0  0  0  0
 13 25  2  0  0  0  0
 14 19  2  0  0  0  0
 14 26  1  0  0  0  0
 15 24  1  0  0  0  0
 15 28  2  0  0  0  0
 16 25  1  0  0  0  0
 16 26  2  0  0  0  0
 17 30  2  0  0  0  0
 17 31  1  0  0  0  0
 18 32  1  0  0  0  0
 19 36  1  0  0  0  0
 20 32  1  0  0  0  0
 20 33  2  0  0  0  0
 20 37  1  0  0  0  0
 21 23  2  0  0  0  0
 21 42  1  0  0  0  0
 22 24  2  0  0  0  0
 22 43  1  0  0  0  0
 23 54  1  0  0  0  0
 24 44  1  0  0  0  0
 25 62  1  0  0  0  0
 26 73  1  0  0  0  0
 27 84  1  0  0  0  0
 28 85  1  0  0  0  0
 29 31  2  0  0  0  0
 29 84  1  0  0  0  0
 30 86  1  0  0  0  0
 31 87  1  0  0  0  0
 32 66  2  0  0  0  0
 33 67  1  0  0  0  0
 33 70  1  0  0  0  0
 34 35  2  0  0  0  0
 34 45  1  0  0  0  0
 34 46  1  0  0  0  0
 35 85  1  0  0  0  0
 36 71  1  0  0  0  0
 36 76  2  0  0  0  0
 37 72  1  0  0  0  0
 37 79  2  0  0  0  0
 38 55  1  0  0  0  0
 38 74  1  0  0  0  0
 38 80  2  0  0  0  0
 39 63  1  0  0  0  0
 39 68  1  0  0  0  0
 39 81  2  0  0  0  0
 40 64  1  0  0  0  0
 40 75  1  0  0  0  0
 40 82  2  0  0  0  0
 41 69  1  0  0  0  0
 41 73  1  0  0  0  0
 41 83  2  0  0  0  0
 42 47  1  0  0  0  0
 43 55  1  0  0  0  0
 44 68  1  0  0  0  0
 45 53  1  0  0  0  0
 46 77  1  0  0  0  0
 47 49  1  0  0  0  0
 48 50  1  0  0  0  0
 48 51  1  0  0  0  0
 49 54  1  0  0  0  0
 50 56  1  0  0  0  0
 51 69  1  0  0  0  0
 52 56  1  0  0  0  0
 52 69  1  0  0  0  0
 53 77  1  0  0  0  0
 54 74  1  0  0  0  0
 55 68  1  0  0  0  0
 56 67  1  0  0  0  0
 57 64  1  0  0  0  0
 58 65  1  0  0  0  0
 59 65  1  0  0  0  0
 60 65  1  0  0  0  0
 61 78  1  0  0  0  0
 62 77  1  0  0  0  0
 63 65  1  0  0  0  0
 63 75  1  0  0  0  0
 64 78  1  0  0  0  0
 66 67  1  0  0  0  0
M  CHG  3  76   1  77   1  78   1
M  ISO  4  35 101  41 100  73 100  85 101
M  END
> <Batch ID>
0156

> <Smiles>
CNC(C)C(=O)NC(C(=O)N1Cc2cc([101O:1][101CH:1]=C3CCN(Cc4cc([100NH:0][100C:0](=O)N5CCCC(n6nc(-c7ccc(Oc8ccc(F)cc8F)cc7)c(C(N)=O)c6N)C5)cc(C(=N)N)c4)C3)ccc2CC1C(=O)NC1CCCc2ccccc21)C(C)(C)C

> <Shape>
0.181

> <Color>
0.176

> <Negative vol penalty>
0.000

$$$$

  -OEChem-04052303393D

 86 95  0     1  0  0  0  0  0999 V2000
  -26.3985  -37.5613   22.0879 C   0  0  0  0  0  0  0  0  0  0  0  0
  -27.0329  -36.4247   21.5970 C   0  0  0  0  0  0  0  0  0  0  0  0
  -22.2234  -10.0744   21.5661 C   0  0  0  0  0  0  0  0  0  0  0  0
  -24.5382   -9.6987   20.9849 C   0  0  0  0  0  0  0  0  0  0  0  0
  -25.4810  -37.4502   23.1318 C   0  0  0  0  0  0  0  0  0  0  0  0
  -26.7510  -35.1763   22.1506 C   0  0  0  0  0  0  0  0  0  0  0  0
  -26.5506  -29.8065   19.2127 C   0  0  0  0  0  0  0  0  0  0  0  0
  -22.0087   -8.6967   21.6017 C   0  0  0  0  0  0  0  0  0  0  0  0
  -24.3235   -8.3209   21.0206 C   0  0  0  0  0  0  0  0  0  0  0  0
  -27.4771  -28.7727   19.0838 C   0  0  0  0  0  0  0  0  0  0  0  0
  -20.9391   -5.2741   22.1994 C   0  0  0  0  0  0  0  0  0  0  0  0
  -20.2122   -4.7586   23.2724 C   0  0  0  0  0  0  0  0  0  0  0  0
  -26.4202  -27.6057   20.9114 C   0  0  0  0  0  0  0  0  0  0  0  0
  -27.5217  -19.9349   18.4673 C   0  0  0  0  0  0  0  0  0  0  0  0
  -21.8661   -5.6220   24.8075 C   0  0  0  0  0  0  0  0  0  0  0  0
  -23.4882  -10.5754   21.2577 C   0  0  0  0  0  0  0  0  0  0  0  0
  -24.1126  -12.8246   22.2868 C   0  0  0  0  0  0  0  0  0  0  0  0
  -25.1805  -36.1986   23.6920 C   0  0  0  0  0  0  0  0  0  0  0  0
  -25.5569  -29.7526   20.2008 C   0  0  0  0  0  0  0  0  0  0  0  0
  -25.8296  -35.0485   23.2040 C   0  0  0  0  0  0  0  0  0  0  0  0
  -25.4807  -28.6388   21.0492 C   0  0  0  0  0  0  0  0  0  0  0  0
  -27.7894  -18.5699   18.2373 C   0  0  0  0  0  0  0  0  0  0  0  0
  -23.0587   -7.8199   21.3290 C   0  0  0  0  0  0  0  0  0  0  0  0
  -27.4138  -27.6734   19.9351 C   0  0  0  0  0  0  0  0  0  0  0  0
  -22.1295   -5.9635   22.4303 C   0  0  0  0  0  0  0  0  0  0  0  0
  -20.6757   -4.9326   24.5765 C   0  0  0  0  0  0  0  0  0  0  0  0
  -22.5930   -6.1375   23.7343 C   0  0  0  0  0  0  0  0  0  0  0  0
  -23.7105  -11.9986   21.2201 C   0  0  0  0  0  0  0  0  0  0  0  0
  -29.1248  -18.2802   18.2763 C   0  0  0  0  0  0  0  0  0  0  0  0
  -24.1805  -14.0827   21.7401 C   0  0  0  0  0  0  0  0  0  0  0  0
  -28.7003  -20.6279   18.6920 C   0  0  0  0  0  0  0  0  0  0  0  0
  -27.8341  -25.4074   19.5363 C   0  0  0  0  0  0  0  0  0  1  0  0
  -24.3992  -12.4849   23.6500 C   0  0  0  0  0  0  0  0  0  0  0  0
  -28.6161  -24.3308   19.3912 C   0  0  0  0  0  0  0  0  0  0  0  0
  -27.9816  -23.0060   19.0900 C   0  0  0  0  0  0  0  0  0  0  0  0
  -24.8070  -31.5300   22.7271 C   0  0  0  0  0  0  0  0  0  0  0  0
  -22.2437  -29.5474   22.8725 C   0  0  0  0  0  0  0  0  0  0  0  0
  -20.8781  -26.5162   22.1020 C   0  0  0  0  0  0  0  0  0  0  0  0
  -25.7104  -17.4696   17.5932 C   0  0  0  0  0  0  0  0  0  0  0  0
  -24.2171  -36.1344   24.8507 C   0  0  0  0  0  0  0  0  0  0  0  0
  -24.5486  -30.8634   20.3095 C   0  0  0  0  0  0  0  0  0  0  0  0
  -24.4208  -28.5233   22.1130 C   0  0  0  0  0  0  0  0  0  0  0  0
  -23.6947  -34.7277   25.1311 C   0  0  0  0  0  0  0  0  0  0  0  0
  -22.5786  -15.8562   17.3038 C   0  0  0  0  0  0  0  0  0  0  0  0
  -24.8417  -33.7222   25.1303 C   0  0  0  0  0  0  0  0  0  0  0  0
  -22.6310  -14.7503   18.3543 C   0  0  0  0  0  0  0  0  0  0  0  0
  -23.9366  -16.0337   16.6386 C   0  0  0  0  0  0  0  0  0  0  0  0
  -25.1034  -15.2688   18.6933 C   0  0  0  0  0  0  0  0  0  0  0  0
  -28.0031  -16.2497   17.8637 C   0  0  0  0  0  0  0  0  0  0  0  0
  -25.5318  -33.6736   23.7617 C   0  0  1  0  0  0  0  0  0  0  0  0
  -23.8954  -30.9449   21.6858 C   0  0  1  0  0  0  0  0  0  0  0  0
  -23.7419  -15.0301   19.3780 C   0  0  2  0  0  0  0  0  0  0  0  0
  -29.4586  -16.8493   17.9821 C   0  0  0  0  0  0  0  0  0  0  0  0
  -30.2332  -16.1880   19.1229 C   0  0  0  0  0  0  0  0  0  0  0  0
  -30.2075  -16.7049   16.6550 C   0  0  0  0  0  0  0  0  0  0  0  0
  -18.7783  -25.1720   22.3867 C   0  0  0  0  0  0  0  0  0  0  0  0
  -22.9964  -28.9912   25.7766 C   0  0  0  0  0  0  0  0  0  0  0  0
  -21.4963  -26.9879   25.7088 C   0  0  0  0  0  0  0  0  0  0  0  0
  -20.5445  -29.2685   25.3691 C   0  0  0  0  0  0  0  0  0  0  0  0
  -20.4519  -26.3470   19.1782 C   0  0  0  0  0  0  0  0  0  0  0  0
  -21.9498  -28.2274   23.5434 C   0  0  1  0  0  0  0  0  0  0  0  0
  -19.5391  -26.1399   21.4939 C   0  0  2  0  0  0  0  0  0  0  0  0
  -21.7680  -28.3715   25.0808 C   0  0  0  0  0  0  0  0  0  0  0  0
  -23.5351  -12.6751   20.0819 N   0  0  0  0  0  0  0  0  0  0  0  0
  -23.8283  -13.9395   20.4303 N   0  0  0  0  0  0  0  0  0  0  0  0
  -27.0560  -17.4174   17.9582 N   0  0  0  0  0  0  0  0  0  0  0  0
  -23.4616  -29.6380   22.1838 N   0  0  0  0  0  0  0  0  0  0  0  0
  -24.9989  -16.2624   17.6187 N   0  0  0  0  0  0  0  0  0  0  0  0
  -24.5064  -15.2865   22.2568 N   0  0  0  0  0  0  0  0  0  0  0  0
  -24.2799  -11.1452   24.0440 N   0  0  0  0  0  0  0  0  0  0  0  0
  -28.9200  -21.9509   18.9609 N   0  0  0  0  0  0  0  0  0  0  0  0
  -24.7404  -32.9069   22.8235 N   0  0  0  0  0  0  0  0  0  0  0  0
  -20.7917  -27.6683   22.8546 N   0  0  0  0  0  0  0  0  0  0  0  0
  -19.7364  -25.4967   20.1642 N   0  3  0  0  0  0  0  0  0  0  0  0
  -24.7349  -13.3465   24.4976 O   0  0  0  0  0  0  0  0  0  0  0  0
  -26.7650  -22.9014   18.9767 O   0  0  0  0  0  0  0  0  0  0  0  0
  -25.5171  -30.7872   23.3947 O   0  0  0  0  0  0  0  0  0  0  0  0
  -21.4197  -30.4621   22.9504 O   0  0  0  0  0  0  0  0  0  0  0  0
  -21.8980  -25.8523   21.9299 O   0  0  0  0  0  0  0  0  0  0  0  0
  -25.1727  -18.5115   17.1971 O   0  0  0  0  0  0  0  0  0  0  0  0
  -29.9901  -24.3905   19.5066 O   0  0  0  0  0  0  0  0  0  0  0  0
  -22.8496   -6.4754   21.3639 O   0  0  0  0  0  0  0  0  0  0  0  0
  -28.3236  -26.6562   19.8109 O   0  0  0  0  0  0  0  0  0  1  0  0
  -19.9768   -4.4388   25.6070 F   0  0  0  0  0  0  0  0  0  0  0  0
  -23.7353   -6.7999   23.9625 F   0  0  0  0  0  0  0  0  0  0  0  0
  -30.0945  -19.6105   18.6019 S   0  0  0  0  0  0  0  0  0  0  0  0
  1  2  1  0  0  0  0
  1  5  2  0  0  0  0
  2  6  2  0  0  0  0
  3  8  2  0  0  0  0
  3 16  1  0  0  0  0
  4  9  1  0  0  0  0
  4 16  2  0  0  0  0
  5 18  1  0  0  0  0
  6 20  1  0  0  0  0
  7 10  2  0  0  0  0
  7 19  1  0  0  0  0
  8 23  1  0  0  0  0
  9 23  2  0  0  0  0
 10 24  1  0  0  0  0
 11 12  2  0  0  0  0
 11 25  1  0  0  0  0
 12 26  1  0  0  0  0
 13 21  1  0  0  0  0
 13 24  2  0  0  0  0
 14 22  1  0  0  0  0
 14 31  2  0  0  0  0
 15 26  2  0  0  0  0
 15 27  1  0  0  0  0
 16 28  1  0  0  0  0
 17 28  1  0  0  0  0
 17 30  2  0  0  0  0
 17 33  1  0  0  0  0
 18 20  2  0  0  0  0
 18 40  1  0  0  0  0
 19 21  2  0  0  0  0
 19 41  1  0  0  0  0
 20 50  1  0  0  0  0
 21 42  1  0  0  0  0
 22 29  2  0  0  0  0
 22 66  1  0  0  0  0
 23 82  1  0  0  0  0
 24 83  1  0  0  0  0
 25 27  2  0  0  0  0
 25 82  1  0  0  0  0
 26 84  1  0  0  0  0
 27 85  1  0  0  0  0
 28 64  2  0  0  0  0
 29 53  1  0  0  0  0
 29 86  1  0  0  0  0
 30 65  1  0  0  0  0
 30 69  1  0  0  0  0
 31 71  1  0  0  0  0
 31 86  1  0  0  0  0
 32 34  2  0  0  0  0
 32 83  1  0  0  0  0
 33 70  1  0  0  0  0
 33 75  2  0  0  0  0
 34 35  1  0  0  0  0
 34 81  1  0  0  0  0
 35 71  1  0  0  0  0
 35 76  2  0  0  0  0
 36 51  1  0  0  0  0
 36 72  1  0  0  0  0
 36 77  2  0  0  0  0
 37 61  1  0  0  0  0
 37 67  1  0  0  0  0
 37 78  2  0  0  0  0
 38 62  1  0  0  0  0
 38 73  1  0  0  0  0
 38 79  2  0  0  0  0
 39 66  1  0  0  0  0
 39 68  1  0  0  0  0
 39 80  2  0  0  0  0
 40 43  1  0  0  0  0
 41 51  1  0  0  0  0
 42 67  1  0  0  0  0
 43 45  1  0  0  0  0
 44 46  1  0  0  0  0
 44 47  1  0  0  0  0
 45 50  1  0  0  0  0
 46 52  1  0  0  0  0
 47 68  1  0  0  0  0
 48 52  1  0  0  0  0
 48 68  1  0  0  0  0
 49 53  1  0  0  0  0
 49 66  1  0  0  0  0
 50 72  1  0  0  0  0
 51 67  1  0  0  0  0
 52 65  1  0  0  0  0
 53 54  1  0  0  0  0
 53 55  1  0  0  0  0
 56 62  1  0  0  0  0
 57 63  1  0  0  0  0
 58 63  1  0  0  0  0
 59 63  1  0  0  0  0
 60 74  1  0  0  0  0
 61 63  1  0  0  0  0
 61 73  1  0  0  0  0
 62 74  1  0  0  0  0
 64 65  1  0  0  0  0
M  CHG  1  74   1
M  ISO  4  32 101  39 100  66 100  83 101
M  END
> <Batch ID>
0156

> <Smiles>
CNC(C)C(=O)NC(C(=O)N1Cc2cc([101O:1][101CH2:1]C(=O)C(=O)Nc3cc4c(s3)C(C)(C)C[100N:0]4[100C:0](=O)N3CCCC(n4nc(-c5ccc(Oc6ccc(F)cc6F)cc5)c(C(N)=O)c4N)C3)ccc2CC1C(=O)NC1CCCc2ccccc21)C(C)(C)C

> <Shape>
0.303

> <Color>
0.087

> <Negative vol penalty>
0.000

$$$$

  -OEChem-04052303393D

 83 92  0     1  0  0  0  0  0999 V2000
  -16.7940  -28.0000   23.3549 C   0  0  0  0  0  0  0  0  0  0  0  0
  -17.7357  -27.2390   22.6696 C   0  0  0  0  0  0  0  0  0  0  0  0
  -22.7348  -13.0243   22.7852 C   0  0  0  0  0  0  0  0  0  0  0  0
  -24.0873  -11.1346   23.4458 C   0  0  0  0  0  0  0  0  0  0  0  0
  -16.9980  -29.3683   23.5287 C   0  0  0  0  0  0  0  0  0  0  0  0
  -18.8815  -27.8462   22.1569 C   0  0  0  0  0  0  0  0  0  0  0  0
  -24.4777  -25.3927   21.7458 C   0  0  0  0  0  0  0  0  0  0  0  0
  -22.0058  -12.9166   23.9695 C   0  0  0  0  0  0  0  0  0  0  0  0
  -23.3583  -11.0268   24.6301 C   0  0  0  0  0  0  0  0  0  0  0  0
  -25.1620  -24.7889   20.6918 C   0  0  0  0  0  0  0  0  0  0  0  0
  -20.3647   -9.7984   25.6098 C   0  0  0  0  0  0  0  0  0  0  0  0
  -19.9518   -8.5254   26.0032 C   0  0  0  0  0  0  0  0  0  0  0  0
  -26.2444  -26.8879   20.1999 C   0  0  0  0  0  0  0  0  0  0  0  0
  -21.2059   -8.7530   28.0557 C   0  0  0  0  0  0  0  0  0  0  0  0
  -31.0344  -18.1707   19.5568 C   0  0  0  0  0  0  0  0  0  0  0  0
  -23.7756  -12.1333   22.5233 C   0  0  0  0  0  0  0  0  0  0  0  0
  -24.0340  -12.1467   19.9855 C   0  0  0  0  0  0  0  0  0  0  0  0
  -18.1516  -29.9907   23.0262 C   0  0  0  0  0  0  0  0  0  0  0  0
  -24.6637  -26.7536   22.0283 C   0  0  0  0  0  0  0  0  0  0  0  0
  -19.1005  -29.2243   22.3230 C   0  0  0  0  0  0  0  0  0  0  0  0
  -25.5631  -27.5060   21.2596 C   0  0  0  0  0  0  0  0  0  0  0  0
  -22.3176  -11.9179   24.8919 C   0  0  0  0  0  0  0  0  0  0  0  0
  -26.0433  -25.5371   19.9169 C   0  0  0  0  0  0  0  0  0  0  0  0
  -21.1982  -10.5486   26.4394 C   0  0  0  0  0  0  0  0  0  0  0  0
  -20.3724   -8.0027   27.2261 C   0  0  0  0  0  0  0  0  0  0  0  0
  -21.6187  -10.0259   27.6623 C   0  0  0  0  0  0  0  0  0  0  0  0
  -24.5287  -12.2437   21.2999 C   0  0  0  0  0  0  0  0  0  0  0  0
  -25.1393  -12.3205   19.1890 C   0  0  0  0  0  0  0  0  0  0  0  0
  -29.8558  -17.5480   19.9108 C   0  0  0  0  0  0  0  0  0  0  0  0
  -29.7563  -19.9464   19.7098 C   0  0  0  0  0  0  0  0  0  0  0  0
  -22.6950  -11.9199   19.5257 C   0  0  0  0  0  0  0  0  0  0  0  0
  -22.7843  -29.3170   22.0511 C   0  0  0  0  0  0  0  0  0  0  0  0
  -25.4239  -30.7600   23.2647 C   0  0  0  0  0  0  0  0  0  0  0  0
  -28.9770  -30.7053   22.6402 C   0  0  0  0  0  0  0  0  0  0  0  0
  -30.3723  -15.0845   20.0148 C   0  0  0  0  0  0  0  0  0  0  0  0
  -18.3055  -31.4812   23.1978 C   0  0  0  0  0  0  0  0  0  0  0  0
  -23.9381  -27.3837   23.1855 C   0  0  0  0  0  0  0  0  0  0  0  0
  -25.8135  -28.9655   21.5346 C   0  0  0  0  0  0  0  0  0  0  0  0
  -19.7269  -31.9793   22.9491 C   0  0  0  0  0  0  0  0  0  0  0  0
  -29.8826  -11.6605   19.1699 C   0  0  0  0  0  0  0  0  0  0  0  0
  -20.2899  -31.3699   21.6691 C   0  0  0  0  0  0  0  0  0  0  0  0
  -28.4075  -11.4143   19.4949 C   0  0  0  0  0  0  0  0  0  0  0  0
  -30.4243  -22.3574   20.1077 C   0  0  0  0  0  0  0  0  0  0  0  0
  -28.7305  -21.7923   18.3128 C   0  0  0  0  0  0  0  0  0  0  0  0
  -30.5338  -12.6099   20.1741 C   0  0  0  0  0  0  0  0  0  0  0  0
  -28.3564  -13.6386   20.6937 C   0  0  0  0  0  0  0  0  0  0  0  0
  -29.9598  -23.8052   20.0830 C   0  0  0  0  0  0  0  0  0  0  0  0
  -20.3681  -29.8419   21.7735 C   0  0  1  0  0  0  0  0  0  0  0  0
  -29.3013  -21.3951   19.6866 C   0  0  1  0  0  0  0  0  0  0  0  0
  -23.8160  -28.8992   23.0604 C   0  0  1  0  0  0  0  0  0  0  0  0
  -27.6407  -12.7395   19.6723 C   0  0  2  0  0  0  0  0  0  0  0  0
  -28.2918  -23.2573   18.2430 C   0  0  1  0  0  0  0  0  0  0  0  0
  -30.9097  -31.1771   24.1697 C   0  0  0  0  0  0  0  0  0  0  0  0
  -25.2439  -33.5926   22.1448 C   0  0  0  0  0  0  0  0  0  0  0  0
  -27.7457  -33.6869   22.1704 C   0  0  0  0  0  0  0  0  0  0  0  0
  -26.4882  -33.4023   24.3059 C   0  0  0  0  0  0  0  0  0  0  0  0
  -30.2165  -28.0782   22.0739 C   0  0  0  0  0  0  0  0  0  0  0  0
  -27.0139  -23.5616   19.0162 C   0  0  0  0  0  0  0  0  0  1  0  0
  -26.6181  -31.4727   22.6774 C   0  0  1  0  0  0  0  0  0  0  0  0
  -30.0470  -30.1000   23.5308 C   0  0  2  0  0  0  0  0  0  0  0  0
  -26.5104  -33.0181   22.8103 C   0  0  0  0  0  0  0  0  0  0  0  0
  -30.9791  -19.5460   19.4407 N   0  0  0  0  0  0  0  0  0  0  0  0
  -25.8458  -12.4620   21.3404 N   0  0  0  0  0  0  0  0  0  0  0  0
  -26.1881  -12.5035   20.0415 N   0  0  0  0  0  0  0  0  0  0  0  0
  -25.0756  -29.5376   22.6728 N   0  0  0  0  0  0  0  0  0  0  0  0
  -29.7551  -13.8452   20.2866 N   0  0  0  0  0  0  0  0  0  0  0  0
  -25.3068  -12.3330   17.8495 N   0  0  0  0  0  0  0  0  0  0  0  0
  -22.2721  -10.5988   19.3254 N   0  0  0  0  0  0  0  0  0  0  0  0
  -29.5248  -16.1866   20.1225 N   0  0  0  0  0  0  0  0  0  0  0  0
  -21.5103  -29.4476   22.5700 N   0  0  0  0  0  0  0  0  0  0  0  0
  -27.7940  -30.8980   23.3220 N   0  0  0  0  0  0  0  0  0  0  0  0
  -29.4091  -24.1315   18.7330 N   0  3  0  0  0  0  0  0  0  0  0  0
  -30.9307  -29.1983   22.7390 N   0  3  0  0  0  0  0  0  0  0  0  0
  -21.9026  -12.8616   19.2834 O   0  0  0  0  0  0  0  0  0  0  0  0
  -23.1196  -29.5083   20.8881 O   0  0  0  0  0  0  0  0  0  0  0  0
  -24.8266  -31.2656   24.2182 O   0  0  0  0  0  0  0  0  0  0  0  0
  -29.1722  -30.9832   21.4591 O   0  0  0  0  0  0  0  0  0  0  0  0
  -31.5580  -15.1599   19.6824 O   0  0  0  0  0  0  0  0  0  0  0  0
  -21.6065  -11.8126   26.0478 O   0  0  0  0  0  0  0  0  0  0  0  0
  -26.7121  -24.9503   18.8871 O   0  0  0  0  0  0  0  0  0  1  0  0
  -19.9746   -6.7809   27.6044 F   0  0  0  0  0  0  0  0  0  0  0  0
  -22.4185  -10.7425   28.4640 F   0  0  0  0  0  0  0  0  0  0  0  0
  -28.6221  -18.7225   20.1108 S   0  0  0  0  0  0  0  0  0  0  0  0
  1  2  1  0  0  0  0
  1  5  2  0  0  0  0
  2  6  2  0  0  0  0
  3  8  2  0  0  0  0
  3 16  1  0  0  0  0
  4  9  1  0  0  0  0
  4 16  2  0  0  0  0
  5 18  1  0  0  0  0
  6 20  1  0  0  0  0
  7 10  2  0  0  0  0
  7 19  1  0  0  0  0
  8 22  1  0  0  0  0
  9 22  2  0  0  0  0
 10 23  1  0  0  0  0
 11 12  2  0  0  0  0
 11 24  1  0  0  0  0
 12 25  1  0  0  0  0
 13 21  1  0  0  0  0
 13 23  2  0  0  0  0
 14 25  2  0  0  0  0
 14 26  1  0  0  0  0
 15 29  2  0  0  0  0
 15 62  1  0  0  0  0
 16 27  1  0  0  0  0
 17 27  1  0  0  0  0
 17 28  2  0  0  0  0
 17 31  1  0  0  0  0
 18 20  2  0  0  0  0
 18 36  1  0  0  0  0
 19 21  2  0  0  0  0
 19 37  1  0  0  0  0
 20 48  1  0  0  0  0
 21 38  1  0  0  0  0
 22 79  1  0  0  0  0
 23 80  1  0  0  0  0
 24 26  2  0  0  0  0
 24 79  1  0  0  0  0
 25 81  1  0  0  0  0
 26 82  1  0  0  0  0
 27 63  2  0  0  0  0
 28 64  1  0  0  0  0
 28 67  1  0  0  0  0
 29 69  1  0  0  0  0
 29 83  1  0  0  0  0
 30 49  1  0  0  0  0
 30 62  2  0  0  0  0
 30 83  1  0  0  0  0
 31 68  1  0  0  0  0
 31 74  2  0  0  0  0
 32 50  1  0  0  0  0
 32 70  1  0  0  0  0
 32 75  2  0  0  0  0
 33 59  1  0  0  0  0
 33 65  1  0  0  0  0
 33 76  2  0  0  0  0
 34 60  1  0  0  0  0
 34 71  1  0  0  0  0
 34 77  2  0  0  0  0
 35 66  1  0  0  0  0
 35 69  1  0  0  0  0
 35 78  2  0  0  0  0
 36 39  1  0  0  0  0
 37 50  1  0  0  0  0
 38 65  1  0  0  0  0
 39 41  1  0  0  0  0
 40 42  1  0  0  0  0
 40 45  1  0  0  0  0
 41 48  1  0  0  0  0
 42 51  1  0  0  0  0
 43 47  1  0  0  0  0
 43 49  1  0  0  0  0
 44 49  1  0  0  0  0
 44 52  1  0  0  0  0
 45 66  1  0  0  0  0
 46 51  1  0  0  0  0
 46 66  1  0  0  0  0
 47 72  1  0  0  0  0
 48 70  1  0  0  0  0
 50 65  1  0  0  0  0
 51 64  1  0  0  0  0
 52 58  1  0  0  0  0
 52 72  1  0  0  0  0
 53 60  1  0  0  0  0
 54 61  1  0  0  0  0
 55 61  1  0  0  0  0
 56 61  1  0  0  0  0
 57 73  1  0  0  0  0
 58 80  1  0  0  0  0
 59 61  1  0  0  0  0
 59 71  1  0  0  0  0
 60 73  1  0  0  0  0
 63 64  1  0  0  0  0
M  CHG  2  72   1  73   1
M  ISO  4  35 100  58 101  69 100  80 101
M  END
> <Batch ID>
0156

> <Smiles>
CNC(C)C(=O)NC(C(=O)N1Cc2cc([101O:1][101CH2:1]C3CC(c4ncc([100NH:0][100C:0](=O)N5CCCC(n6nc(-c7ccc(Oc8ccc(F)cc8F)cc7)c(C(N)=O)c6N)C5)s4)CCN3)ccc2CC1C(=O)NC1CCCc2ccccc21)C(C)(C)C

> <Shape>
0.276

> <Color>
0.077

> <Negative vol penalty>
0.000

$$$$

  -OEChem-04052303393D

 83 91  0     1  0  0  0  0  0999 V2000
  -22.2544  -11.5580   22.3902 C   0  0  0  0  0  0  0  0  0  0  0  0
  -22.0940  -12.9179   22.6359 C   0  0  0  0  0  0  0  0  0  0  0  0
  -30.3742  -28.1615   19.3147 C   0  0  0  0  0  0  0  0  0  0  0  0
  -29.7735  -26.6636   21.1125 C   0  0  0  0  0  0  0  0  0  0  0  0
  -23.4063  -11.0968   21.7544 C   0  0  0  0  0  0  0  0  0  0  0  0
  -23.0860  -13.8173   22.2469 C   0  0  0  0  0  0  0  0  0  0  0  0
  -21.1955  -17.9398   19.9938 C   0  0  0  0  0  0  0  0  0  0  0  0
  -31.7243  -27.9000   19.5478 C   0  0  0  0  0  0  0  0  0  0  0  0
  -31.1236  -26.4020   21.3457 C   0  0  0  0  0  0  0  0  0  0  0  0
  -20.6416  -18.9184   20.8179 C   0  0  0  0  0  0  0  0  0  0  0  0
  -33.7266  -27.9198   22.8792 C   0  0  0  0  0  0  0  0  0  0  0  0
  -34.1684  -27.9239   24.2022 C   0  0  0  0  0  0  0  0  0  0  0  0
  -18.1252  -26.7498   23.2214 C   0  0  0  0  0  0  0  0  0  0  0  0
  -20.0606  -26.8757   21.7808 C   0  0  0  0  0  0  0  0  0  0  0  0
  -22.6733  -20.2071   20.6431 C   0  0  0  0  0  0  0  0  0  0  0  0
  -19.5618  -28.6910   23.2951 C   0  0  0  0  0  0  0  0  0  0  0  0
  -34.8667  -25.6220   23.9760 C   0  0  0  0  0  0  0  0  0  0  0  0
  -29.3987  -27.5433   20.0970 C   0  0  0  0  0  0  0  0  0  0  0  0
  -18.9366  -26.1868   22.2364 C   0  0  0  0  0  0  0  0  0  0  0  0
  -27.1404  -27.1182   18.9894 C   0  0  0  0  0  0  0  0  0  0  0  0
  -24.4086  -11.9921   21.3487 C   0  0  0  0  0  0  0  0  0  0  0  0
  -22.4987  -18.0826   19.4961 C   0  0  0  0  0  0  0  0  0  0  0  0
  -24.2530  -13.3675   21.6062 C   0  0  0  0  0  0  0  0  0  0  0  0
  -23.2405  -19.2301   19.8107 C   0  0  0  0  0  0  0  0  0  0  0  0
  -18.4378  -28.0020   23.7507 C   0  0  0  0  0  0  0  0  0  0  0  0
  -20.3732  -28.1278   22.3101 C   0  0  0  0  0  0  0  0  0  0  0  0
  -32.0990  -27.0202   20.5633 C   0  0  0  0  0  0  0  0  0  0  0  0
  -21.3815  -20.0509   21.1451 C   0  0  0  0  0  0  0  0  0  0  0  0
  -33.8547  -26.7668   22.1046 C   0  0  0  0  0  0  0  0  0  0  0  0
  -34.7385  -26.7750   24.7506 C   0  0  0  0  0  0  0  0  0  0  0  0
  -34.4248  -25.6180   22.6530 C   0  0  0  0  0  0  0  0  0  0  0  0
  -28.0039  -27.8135   19.8570 C   0  0  0  0  0  0  0  0  0  0  0  0
  -25.9326  -27.7590   19.1209 C   0  0  0  0  0  0  0  0  0  0  0  0
  -20.1450  -23.2562   22.1077 C   0  0  0  0  0  0  0  0  0  0  0  0
  -18.6035  -24.8496   21.6726 C   0  0  0  0  0  0  0  0  0  0  0  0
  -27.4061  -25.9937   18.1407 C   0  0  0  0  0  0  0  0  0  0  0  0
  -25.2058  -16.4434   19.7940 C   0  0  0  0  0  0  0  0  0  0  0  0
  -26.2754  -18.5607   17.5815 C   0  0  0  0  0  0  0  0  0  0  0  0
  -25.9626  -21.6275   16.1174 C   0  0  0  0  0  0  0  0  0  0  0  0
  -21.9664  -30.0788   22.2658 C   0  0  0  0  0  0  0  0  0  0  0  0
  -25.6575  -11.4414   20.7071 C   0  0  0  0  0  0  0  0  0  0  0  0
  -23.0720  -17.0306   18.5865 C   0  0  0  0  0  0  0  0  0  0  0  0
  -24.6364  -19.4407   19.2857 C   0  0  0  0  0  0  0  0  0  0  0  0
  -26.4918  -12.5001   19.9906 C   0  0  0  0  0  0  0  0  0  0  0  0
  -24.7495  -32.1226   21.3971 C   0  0  0  0  0  0  0  0  0  0  0  0
  -26.6544  -13.7364   20.8692 C   0  0  0  0  0  0  0  0  0  0  0  0
  -25.7732  -31.1265   20.8477 C   0  0  0  0  0  0  0  0  0  0  0  0
  -23.9571  -31.5358   22.5641 C   0  0  0  0  0  0  0  0  0  0  0  0
  -24.3429  -29.2453   21.7432 C   0  0  0  0  0  0  0  0  0  0  0  0
  -25.2956  -14.3770   21.1771 C   0  0  1  0  0  0  0  0  0  0  0  0
  -24.5972  -17.0353   18.5543 C   0  0  1  0  0  0  0  0  0  0  0  0
  -25.1206  -29.7681   20.5244 C   0  0  2  0  0  0  0  0  0  0  0  0
  -27.0053  -23.0889   14.3640 C   0  0  0  0  0  0  0  0  0  0  0  0
  -28.5821  -19.1864   19.4782 C   0  0  0  0  0  0  0  0  0  0  0  0
  -29.0217  -21.2611   18.1475 C   0  0  0  0  0  0  0  0  0  0  0  0
  -29.2287  -19.0218   17.0679 C   0  0  0  0  0  0  0  0  0  0  0  0
  -23.4640  -21.7079   14.5332 C   0  0  0  0  0  0  0  0  0  0  0  0
  -21.2822  -22.3498   21.7460 C   0  0  0  0  0  0  0  0  0  1  0  0
  -26.9330  -19.9186   17.6315 C   0  0  1  0  0  0  0  0  0  0  0  0
  -25.9351  -22.0496   14.6595 C   0  0  2  0  0  0  0  0  0  0  0  0
  -28.4158  -19.8424   18.0929 C   0  0  0  0  0  0  0  0  0  0  0  0
  -27.3964  -28.8190   20.4925 N   0  0  0  0  0  0  0  0  0  0  0  0
  -19.6309  -24.0529   21.2277 N   0  0  0  0  0  0  0  0  0  0  0  0
  -26.1383  -28.7603   20.0238 N   0  0  0  0  0  0  0  0  0  0  0  0
  -25.1553  -18.3809   18.4053 N   0  0  0  0  0  0  0  0  0  0  0  0
  -23.3642  -30.2520   22.1832 N   0  0  0  0  0  0  0  0  0  0  0  0
  -17.6174  -28.5718   24.7463 N   0  0  0  0  0  0  0  0  0  0  0  0
  -24.7255  -27.5580   18.5510 N   0  0  0  0  0  0  0  0  0  0  0  0
  -28.7014  -25.4586   18.1266 N   0  0  0  0  0  0  0  0  0  0  0  0
  -21.5146  -28.8279   21.8465 N   0  0  0  0  0  0  0  0  0  0  0  0
  -24.8259  -15.1376   20.0389 N   0  0  0  0  0  0  0  0  0  0  0  0
  -26.7478  -20.5107   16.3111 N   0  0  0  0  0  0  0  0  0  0  0  0
  -17.3924  -24.4337   21.5509 N   0  3  0  0  0  0  0  0  0  0  0  0
  -24.6072  -22.6309   14.3135 N   0  3  0  0  0  0  0  0  0  0  0  0
  -26.5253  -25.4889   17.4038 O   0  0  0  0  0  0  0  0  0  0  0  0
  -25.9651  -17.1207   20.4770 O   0  0  0  0  0  0  0  0  0  0  0  0
  -26.7343  -17.6937   16.8335 O   0  0  0  0  0  0  0  0  0  0  0  0
  -25.3518  -22.2305   16.9971 O   0  0  0  0  0  0  0  0  0  0  0  0
  -21.2221  -30.9836   22.6523 O   0  0  0  0  0  0  0  0  0  0  0  0
  -33.4163  -26.7646   20.7910 O   0  0  0  0  0  0  0  0  0  0  0  0
  -20.8435  -21.0072   21.9499 O   0  0  0  0  0  0  0  0  0  1  0  0
  -35.1641  -26.7795   26.0206 F   0  0  0  0  0  0  0  0  0  0  0  0
  -34.5517  -24.5077   21.9134 F   0  0  0  0  0  0  0  0  0  0  0  0
  1  2  1  0  0  0  0
  1  5  2  0  0  0  0
  2  6  2  0  0  0  0
  3  8  2  0  0  0  0
  3 18  1  0  0  0  0
  4  9  1  0  0  0  0
  4 18  2  0  0  0  0
  5 21  1  0  0  0  0
  6 23  1  0  0  0  0
  7 10  2  0  0  0  0
  7 22  1  0  0  0  0
  8 27  1  0  0  0  0
  9 27  2  0  0  0  0
 10 28  1  0  0  0  0
 11 12  2  0  0  0  0
 11 29  1  0  0  0  0
 12 30  1  0  0  0  0
 13 19  1  0  0  0  0
 13 25  2  0  0  0  0
 14 19  2  0  0  0  0
 14 26  1  0  0  0  0
 15 24  1  0  0  0  0
 15 28  2  0  0  0  0
 16 25  1  0  0  0  0
 16 26  2  0  0  0  0
 17 30  2  0  0  0  0
 17 31  1  0  0  0  0
 18 32  1  0  0  0  0
 19 35  1  0  0  0  0
 20 32  1  0  0  0  0
 20 33  2  0  0  0  0
 20 36  1  0  0  0  0
 21 23  2  0  0  0  0
 21 41  1  0  0  0  0
 22 24  2  0  0  0  0
 22 42  1  0  0  0  0
 23 50  1  0  0  0  0
 24 43  1  0  0  0  0
 25 67  1  0  0  0  0
 26 70  1  0  0  0  0
 27 80  1  0  0  0  0
 28 81  1  0  0  0  0
 29 31  2  0  0  0  0
 29 80  1  0  0  0  0
 30 82  1  0  0  0  0
 31 83  1  0  0  0  0
 32 62  2  0  0  0  0
 33 64  1  0  0  0  0
 33 68  1  0  0  0  0
 34 58  1  0  0  0  0
 34 63  2  0  0  0  0
 35 63  1  0  0  0  0
 35 73  2  0  0  0  0
 36 69  1  0  0  0  0
 36 75  2  0  0  0  0
 37 51  1  0  0  0  0
 37 71  1  0  0  0  0
 37 76  2  0  0  0  0
 38 59  1  0  0  0  0
 38 65  1  0  0  0  0
 38 77  2  0  0  0  0
 39 60  1  0  0  0  0
 39 72  1  0  0  0  0
 39 78  2  0  0  0  0
 40 66  1  0  0  0  0
 40 70  1  0  0  0  0
 40 79  2  0  0  0  0
 41 44  1  0  0  0  0
 42 51  1  0  0  0  0
 43 65  1  0  0  0  0
 44 46  1  0  0  0  0
 45 47  1  0  0  0  0
 45 48  1  0  0  0  0
 46 50  1  0  0  0  0
 47 52  1  0  0  0  0
 48 66  1  0  0  0  0
 49 52  1  0  0  0  0
 49 66  1  0  0  0  0
 50 71  1  0  0  0  0
 51 65  1  0  0  0  0
 52 64  1  0  0  0  0
 53 60  1  0  0  0  0
 54 61  1  0  0  0  0
 55 61  1  0  0  0  0
 56 61  1  0  0  0  0
 57 74  1  0  0  0  0
 58 81  1  0  0  0  0
 59 61  1  0  0  0  0
 59 72  1  0  0  0  0
 60 74  1  0  0  0  0
 62 64  1  0  0  0  0
M  CHG  2  73   1  74   1
M  ISO  4  40 100  58 101  70 100  81 101
M  END
> <Batch ID>
0156

> <Smiles>
CNC(C)C(=O)NC(C(=O)N1Cc2cc([101O:1][101CH:1]=CNC(=N)c3cc(N)cc([100NH:0][100C:0](=O)N4CCCC(n5nc(-c6ccc(Oc7ccc(F)cc7F)cc6)c(C(N)=O)c5N)C4)c3)ccc2CC1C(=O)NC1CCCc2ccccc21)C(C)(C)C

> <Shape>
0.223

> <Color>
0.070

> <Negative vol penalty>
0.000

$$$$

  -OEChem-04052303393D

 84 93  0     1  0  0  0  0  0999 V2000
  -18.3197  -29.8142   25.3213 C   0  0  0  0  0  0  0  0  0  0  0  0
  -19.6358  -29.5730   25.7022 C   0  0  0  0  0  0  0  0  0  0  0  0
  -23.1236   -9.8109   20.1121 C   0  0  0  0  0  0  0  0  0  0  0  0
  -23.7663  -10.0852   22.4248 C   0  0  0  0  0  0  0  0  0  0  0  0
  -17.8204  -29.2508   24.1477 C   0  0  0  0  0  0  0  0  0  0  0  0
  -20.4531  -28.7672   24.9103 C   0  0  0  0  0  0  0  0  0  0  0  0
  -27.2889  -28.0083   22.9073 C   0  0  0  0  0  0  0  0  0  0  0  0
  -22.3793   -8.6816   20.4529 C   0  0  0  0  0  0  0  0  0  0  0  0
  -23.0219   -8.9559   22.7656 C   0  0  0  0  0  0  0  0  0  0  0  0
  -28.2937  -27.0435   22.8500 C   0  0  0  0  0  0  0  0  0  0  0  0
  -19.7753   -8.1808   23.2942 C   0  0  0  0  0  0  0  0  0  0  0  0
  -18.9605   -8.2601   24.4235 C   0  0  0  0  0  0  0  0  0  0  0  0
  -31.7117  -19.1036   21.9518 C   0  0  0  0  0  0  0  0  0  0  0  0
  -31.6688  -17.7773   21.4329 C   0  0  0  0  0  0  0  0  0  0  0  0
  -27.3471  -26.1879   20.8028 C   0  0  0  0  0  0  0  0  0  0  0  0
  -20.1819   -6.4361   25.4328 C   0  0  0  0  0  0  0  0  0  0  0  0
  -23.8171  -10.5128   21.0981 C   0  0  0  0  0  0  0  0  0  0  0  0
  -24.1400  -13.0137   20.7126 C   0  0  0  0  0  0  0  0  0  0  0  0
  -18.6349  -28.4456   23.3360 C   0  0  0  0  0  0  0  0  0  0  0  0
  -26.2976  -28.0634   21.9169 C   0  0  0  0  0  0  0  0  0  0  0  0
  -19.9639  -28.1914   23.7255 C   0  0  0  0  0  0  0  0  0  0  0  0
  -26.3323  -27.1560   20.8484 C   0  0  0  0  0  0  0  0  0  0  0  0
  -22.3284   -8.2540   21.7796 C   0  0  0  0  0  0  0  0  0  0  0  0
  -28.3212  -26.1313   21.7992 C   0  0  0  0  0  0  0  0  0  0  0  0
  -20.7934   -7.2291   23.2341 C   0  0  0  0  0  0  0  0  0  0  0  0
  -19.1638   -7.3877   25.4928 C   0  0  0  0  0  0  0  0  0  0  0  0
  -20.9967   -6.3568   24.3034 C   0  0  0  0  0  0  0  0  0  0  0  0
  -24.5866  -11.6791   20.7466 C   0  0  0  0  0  0  0  0  0  0  0  0
  -30.5276  -19.4604   22.5586 C   0  0  0  0  0  0  0  0  0  0  0  0
  -25.2418  -13.7347   20.3218 C   0  0  0  0  0  0  0  0  0  0  0  0
  -30.4535  -17.1708   21.6631 C   0  0  0  0  0  0  0  0  0  0  0  0
  -29.4775  -23.0819   22.9197 C   0  0  0  0  0  0  0  0  0  0  0  0
  -22.8450  -13.5535   21.0081 C   0  0  0  0  0  0  0  0  0  0  0  0
  -30.2781  -20.7709   23.1852 C   0  0  0  0  0  0  0  0  0  0  0  0
  -23.1362  -27.7349   21.8868 C   0  0  0  0  0  0  0  0  0  0  0  0
  -23.4644  -28.6177   18.7827 C   0  0  0  0  0  0  0  0  0  0  0  0
  -25.4650  -28.8254   16.0257 C   0  0  0  0  0  0  0  0  0  0  0  0
  -30.6817  -14.8769   20.6471 C   0  0  0  0  0  0  0  0  0  0  0  0
  -18.0367  -27.8198   22.1010 C   0  0  0  0  0  0  0  0  0  0  0  0
  -25.2360  -29.1271   21.9788 C   0  0  0  0  0  0  0  0  0  0  0  0
  -25.3031  -27.1857   19.7492 C   0  0  0  0  0  0  0  0  0  0  0  0
  -19.0796  -27.2831   21.1240 C   0  0  0  0  0  0  0  0  0  0  0  0
  -29.7121  -12.1974   18.5123 C   0  0  0  0  0  0  0  0  0  0  0  0
  -20.1382  -26.4726   21.8651 C   0  0  0  0  0  0  0  0  0  0  0  0
  -28.2555  -11.9335   18.9005 C   0  0  0  0  0  0  0  0  0  0  0  0
  -29.4175  -23.0558   20.5568 C   0  0  0  0  0  0  0  0  0  0  0  0
  -30.5630  -12.5727   19.7243 C   0  0  0  0  0  0  0  0  0  0  0  0
  -29.4517  -21.6070   21.0292 C   0  0  0  0  0  0  0  0  0  0  0  0
  -28.5816  -13.4172   20.9201 C   0  0  0  0  0  0  0  0  0  0  0  0
  -20.8889  -27.3429   22.8802 C   0  0  1  0  0  0  0  0  0  0  0  0
  -28.8951  -23.8446   21.7569 C   0  0  2  0  0  0  0  0  0  1  0  0
  -23.9806  -28.7649   21.1913 C   0  0  1  0  0  0  0  0  0  0  0  0
  -27.6714  -13.0989   19.7227 C   0  0  2  0  0  0  0  0  0  0  0  0
  -25.4418  -29.5580   13.6257 C   0  0  0  0  0  0  0  0  0  0  0  0
  -21.9031  -26.1056   18.0334 C   0  0  0  0  0  0  0  0  0  0  0  0
  -22.7214  -26.3822   15.6835 C   0  0  0  0  0  0  0  0  0  0  0  0
  -21.2919  -28.1442   16.7201 C   0  0  0  0  0  0  0  0  0  0  0  0
  -27.5817  -30.8390   16.4991 C   0  0  0  0  0  0  0  0  0  0  0  0
  -23.6890  -27.8864   17.4813 C   0  0  1  0  0  0  0  0  0  0  0  0
  -25.7355  -29.9659   15.0610 C   0  0  2  0  0  0  0  0  0  0  0  0
  -22.4198  -27.1275   17.0012 C   0  0  0  0  0  0  0  0  0  0  0  0
  -25.8719  -11.5567   20.4045 N   0  0  0  0  0  0  0  0  0  0  0  0
  -26.2423  -12.8236   20.1517 N   0  0  0  0  0  0  0  0  0  0  0  0
  -29.7762  -21.7529   22.4579 N   0  0  0  0  0  0  0  0  0  0  0  0
  -24.2817  -28.2405   19.8577 N   0  0  0  0  0  0  0  0  0  0  0  0
  -29.9503  -13.6862   20.4520 N   0  0  0  0  0  0  0  0  0  0  0  0
  -25.4426  -15.0528   20.1104 N   0  0  0  0  0  0  0  0  0  0  0  0
  -21.8262  -12.6722   21.3949 N   0  0  0  0  0  0  0  0  0  0  0  0
  -29.9848  -15.8773   21.3238 N   0  0  0  0  0  0  0  0  0  0  0  0
  -21.8660  -28.1732   22.2091 N   0  0  0  0  0  0  0  0  0  0  0  0
  -24.1848  -28.8800   16.5350 N   0  0  0  0  0  0  0  0  0  0  0  0
  -30.5604  -20.9436   24.4731 N   0  3  0  0  0  0  0  0  0  0  0  0
  -27.1617  -30.3896   15.1468 N   0  3  0  0  0  0  0  0  0  0  0  0
  -29.6750  -23.4655   24.0582 O   0  0  0  0  0  0  0  0  0  0  0  0
  -22.5941  -14.7790   20.9153 O   0  0  0  0  0  0  0  0  0  0  0  0
  -23.6020  -26.6242   22.1128 O   0  0  0  0  0  0  0  0  0  0  0  0
  -22.6006  -29.4964   18.8413 O   0  0  0  0  0  0  0  0  0  0  0  0
  -26.3041  -27.9694   16.2971 O   0  0  0  0  0  0  0  0  0  0  0  0
  -31.8313  -15.0097   20.2196 O   0  0  0  0  0  0  0  0  0  0  0  0
  -21.6020   -7.1522   22.1126 O   0  0  0  0  0  0  0  0  0  0  0  0
  -29.3005  -25.1882   21.7412 O   0  0  0  0  0  0  0  0  0  1  0  0
  -18.3822   -7.4650   26.5779 F   0  0  0  0  0  0  0  0  0  0  0  0
  -21.9739   -5.4412   24.2520 F   0  0  0  0  0  0  0  0  0  0  0  0
  -29.3708  -18.1991   22.5014 S   0  0  0  0  0  0  0  0  0  0  0  0
  1  2  1  0  0  0  0
  1  5  2  0  0  0  0
  2  6  2  0  0  0  0
  3  8  2  0  0  0  0
  3 17  1  0  0  0  0
  4  9  1  0  0  0  0
  4 17  2  0  0  0  0
  5 19  1  0  0  0  0
  6 21  1  0  0  0  0
  7 10  2  0  0  0  0
  7 20  1  0  0  0  0
  8 23  1  0  0  0  0
  9 23  2  0  0  0  0
 10 24  1  0  0  0  0
 11 12  2  0  0  0  0
 11 25  1  0  0  0  0
 12 26  1  0  0  0  0
 13 14  1  0  0  0  0
 13 29  2  0  0  0  0
 14 31  2  0  0  0  0
 15 22  1  0  0  0  0
 15 24  2  0  0  0  0
 16 26  2  0  0  0  0
 16 27  1  0  0  0  0
 17 28  1  0  0  0  0
 18 28  1  0  0  0  0
 18 30  2  0  0  0  0
 18 33  1  0  0  0  0
 19 21  2  0  0  0  0
 19 39  1  0  0  0  0
 20 22  2  0  0  0  0
 20 40  1  0  0  0  0
 21 50  1  0  0  0  0
 22 41  1  0  0  0  0
 23 80  1  0  0  0  0
 24 81  1  0  0  0  0
 25 27  2  0  0  0  0
 25 80  1  0  0  0  0
 26 82  1  0  0  0  0
 27 83  1  0  0  0  0
 28 62  2  0  0  0  0
 29 34  1  0  0  0  0
 29 84  1  0  0  0  0
 30 63  1  0  0  0  0
 30 67  1  0  0  0  0
 31 69  1  0  0  0  0
 31 84  1  0  0  0  0
 32 51  1  0  0  0  0
 32 64  1  0  0  0  0
 32 74  2  0  0  0  0
 33 68  1  0  0  0  0
 33 75  2  0  0  0  0
 34 64  1  0  0  0  0
 34 72  2  0  0  0  0
 35 52  1  0  0  0  0
 35 70  1  0  0  0  0
 35 76  2  0  0  0  0
 36 59  1  0  0  0  0
 36 65  1  0  0  0  0
 36 77  2  0  0  0  0
 37 60  1  0  0  0  0
 37 71  1  0  0  0  0
 37 78  2  0  0  0  0
 38 66  1  0  0  0  0
 38 69  1  0  0  0  0
 38 79  2  0  0  0  0
 39 42  1  0  0  0  0
 40 52  1  0  0  0  0
 41 65  1  0  0  0  0
 42 44  1  0  0  0  0
 43 45  1  0  0  0  0
 43 47  1  0  0  0  0
 44 50  1  0  0  0  0
 45 53  1  0  0  0  0
 46 48  1  0  0  0  0
 46 51  1  0  0  0  0
 47 66  1  0  0  0  0
 48 64  1  0  0  0  0
 49 53  1  0  0  0  0
 49 66  1  0  0  0  0
 50 70  1  0  0  0  0
 51 81  1  0  0  0  0
 52 65  1  0  0  0  0
 53 63  1  0  0  0  0
 54 60  1  0  0  0  0
 55 61  1  0  0  0  0
 56 61  1  0  0  0  0
 57 61  1  0  0  0  0
 58 73  1  0  0  0  0
 59 61  1  0  0  0  0
 59 71  1  0  0  0  0
 60 73  1  0  0  0  0
 62 63  1  0  0  0  0
M  CHG  2  72   1  73   1
M  ISO  4  38 100  51 101  69 100  81 101
M  END
> <Batch ID>
0156

> <Smiles>
CNC(C)C(=O)NC(C(=O)N1Cc2cc([101O:1][101CH:1]3CCN(C(=N)c4ccc([100NH:0][100C:0](=O)N5CCCC(n6nc(-c7ccc(Oc8ccc(F)cc8F)cc7)c(C(N)=O)c6N)C5)s4)C3=O)ccc2CC1C(=O)NC1CCCc2ccccc21)C(C)(C)C

> <Shape>
0.303

> <Color>
0.215

> <Negative vol penalty>
0.000

$$$$

  -OEChem-04052303393D

 85 93  0     1  0  0  0  0  0999 V2000
  -17.9857  -24.4600   24.7352 C   0  0  0  0  0  0  0  0  0  0  0  0
  -19.2754  -24.2181   24.2731 C   0  0  0  0  0  0  0  0  0  0  0  0
  -31.1094  -17.0384   19.0070 C   0  0  0  0  0  0  0  0  0  0  0  0
  -23.9404  -16.2884   21.0782 C   0  0  0  0  0  0  0  0  0  0  0  0
  -23.1697  -15.2784   19.0232 C   0  0  0  0  0  0  0  0  0  0  0  0
  -17.3808  -25.6932   24.4963 C   0  0  0  0  0  0  0  0  0  0  0  0
  -19.9606  -25.2090   23.5708 C   0  0  0  0  0  0  0  0  0  0  0  0
  -24.7590  -25.7149   25.1085 C   0  0  0  0  0  0  0  0  0  0  0  0
  -30.5058  -18.0679   19.7290 C   0  0  0  0  0  0  0  0  0  0  0  0
  -31.3223  -15.7974   19.6071 C   0  0  0  0  0  0  0  0  0  0  0  0
  -23.1753  -17.4228   20.8076 C   0  0  0  0  0  0  0  0  0  0  0  0
  -22.4045  -16.4128   18.7526 C   0  0  0  0  0  0  0  0  0  0  0  0
  -25.6764  -24.7686   24.6539 C   0  0  0  0  0  0  0  0  0  0  0  0
  -21.7047  -20.7324   20.4792 C   0  0  0  0  0  0  0  0  0  0  0  0
  -22.3006  -21.9790   20.6699 C   0  0  0  0  0  0  0  0  0  0  0  0
  -26.4393  -26.3236   22.9749 C   0  0  0  0  0  0  0  0  0  0  0  0
  -30.3283  -16.6155   21.6515 C   0  0  0  0  0  0  0  0  0  0  0  0
  -23.9944  -21.4185   19.0407 C   0  0  0  0  0  0  0  0  0  0  0  0
  -23.9376  -15.2161   20.1860 C   0  0  0  0  0  0  0  0  0  0  0  0
  -24.3277  -12.8984   21.1778 C   0  0  0  0  0  0  0  0  0  0  0  0
  -18.0624  -26.7032   23.7992 C   0  0  0  0  0  0  0  0  0  0  0  0
  -24.6671  -26.9709   24.4916 C   0  0  0  0  0  0  0  0  0  0  0  0
  -19.3636  -26.4564   23.3213 C   0  0  0  0  0  0  0  0  0  0  0  0
  -25.5217  -27.2850   23.4252 C   0  0  0  0  0  0  0  0  0  0  0  0
  -30.1153  -17.8565   21.0513 C   0  0  0  0  0  0  0  0  0  0  0  0
  -30.9318  -15.5859   20.9294 C   0  0  0  0  0  0  0  0  0  0  0  0
  -22.4073  -17.4850   19.6448 C   0  0  0  0  0  0  0  0  0  0  0  0
  -26.5147  -25.0718   23.5851 C   0  0  0  0  0  0  0  0  0  0  0  0
  -22.2537  -19.8287   19.5693 C   0  0  0  0  0  0  0  0  0  0  0  0
  -23.4455  -22.3221   19.9507 C   0  0  0  0  0  0  0  0  0  0  0  0
  -23.3985  -20.1718   18.8501 C   0  0  0  0  0  0  0  0  0  0  0  0
  -24.7282  -14.0442   20.4647 C   0  0  0  0  0  0  0  0  0  0  0  0
  -25.4320  -12.0819   21.1639 C   0  0  0  0  0  0  0  0  0  0  0  0
  -28.5651  -20.9931   22.4214 C   0  0  0  0  0  0  0  0  0  0  0  0
  -23.0698  -12.5989   21.7973 C   0  0  0  0  0  0  0  0  0  0  0  0
  -27.6879  -21.9817   22.1830 C   0  0  0  0  0  0  0  0  0  0  0  0
  -29.2179  -20.1887   21.3406 C   0  0  0  0  0  0  0  0  0  0  0  0
  -22.3903  -28.5379   22.9218 C   0  0  0  0  0  0  0  0  0  0  0  0
  -24.5483  -30.9587   22.9945 C   0  0  0  0  0  0  0  0  0  0  0  0
  -27.8122  -31.9238   23.2436 C   0  0  0  0  0  0  0  0  0  0  0  0
  -31.1520  -13.1114   20.7903 C   0  0  0  0  0  0  0  0  0  0  0  0
  -17.3496  -28.0035   23.5241 C   0  0  0  0  0  0  0  0  0  0  0  0
  -23.6907  -27.9903   25.0111 C   0  0  0  0  0  0  0  0  0  0  0  0
  -25.4768  -28.6264   22.7417 C   0  0  0  0  0  0  0  0  0  0  0  0
  -18.2845  -29.1323   23.0978 C   0  0  0  0  0  0  0  0  0  0  0  0
  -29.3023  -11.0486   18.5618 C   0  0  0  0  0  0  0  0  0  0  0  0
  -19.2624  -28.6426   22.0344 C   0  0  0  0  0  0  0  0  0  0  0  0
  -27.8690  -11.4848   18.8635 C   0  0  0  0  0  0  0  0  0  0  0  0
  -30.2735  -12.2295   18.5683 C   0  0  0  0  0  0  0  0  0  0  0  0
  -28.7920  -13.4766   20.1092 C   0  0  0  0  0  0  0  0  0  0  0  0
  -20.1485  -27.5149   22.5772 C   0  0  1  0  0  0  0  0  0  0  0  0
  -23.3284  -29.0518   23.9770 C   0  0  1  0  0  0  0  0  0  0  0  0
  -27.8030  -12.3018   20.1659 C   0  0  1  0  0  0  0  0  0  0  0  0
  -29.2685  -33.9674   23.2320 C   0  0  0  0  0  0  0  0  0  0  0  0
  -24.2356  -31.1614   19.9661 C   0  0  0  0  0  0  0  0  0  0  0  0
  -26.3464  -32.5064   19.9081 C   0  0  0  0  0  0  0  0  0  0  0  0
  -24.3595  -33.3600   21.1516 C   0  0  0  0  0  0  0  0  0  0  0  0
  -31.6187  -14.2663   22.9406 C   0  0  0  0  0  0  0  0  0  0  0  0
  -28.7876  -31.3863   25.9856 C   0  0  0  0  0  0  0  0  0  0  0  0
  -27.0572  -22.7754   23.2888 C   0  0  0  0  0  0  0  0  0  1  0  0
  -25.6720  -31.4165   22.0963 C   0  0  1  0  0  0  0  0  0  0  0  0
  -28.4863  -32.9869   24.0920 C   0  0  2  0  0  0  0  0  0  0  0  0
  -25.1531  -32.0850   20.7919 C   0  0  0  0  0  0  0  0  0  0  0  0
  -25.9886  -13.9664   20.0296 N   0  0  0  0  0  0  0  0  0  0  0  0
  -26.3897  -12.7619   20.4707 N   0  0  0  0  0  0  0  0  0  0  0  0
  -24.5008  -29.5872   23.2820 N   0  0  0  0  0  0  0  0  0  0  0  0
  -30.1457  -13.0023   19.8120 N   0  0  0  0  0  0  0  0  0  0  0  0
  -25.6677  -10.8558   21.6773 N   0  0  0  0  0  0  0  0  0  0  0  0
  -22.0424  -13.5487   21.7166 N   0  0  0  0  0  0  0  0  0  0  0  0
  -29.5018  -18.9025   21.7839 N   0  0  0  0  0  0  0  0  0  0  0  0
  -21.1948  -28.0549   23.4187 N   0  0  0  0  0  0  0  0  0  0  0  0
  -26.5215  -32.2776   22.9119 N   0  0  0  0  0  0  0  0  0  0  0  0
  -31.1525  -14.3009   21.5501 N   0  0  0  0  0  0  0  0  0  0  0  0
  -29.4274  -32.3569   25.0606 N   0  3  0  0  0  0  0  0  0  0  0  0
  -22.8684  -11.5279   22.4184 O   0  0  0  0  0  0  0  0  0  0  0  0
  -29.4434  -20.6620   20.2337 O   0  0  0  0  0  0  0  0  0  0  0  0
  -22.7257  -28.5780   21.7438 O   0  0  0  0  0  0  0  0  0  0  0  0
  -23.7466  -31.7884   23.4309 O   0  0  0  0  0  0  0  0  0  0  0  0
  -28.3757  -30.8852   22.9055 O   0  0  0  0  0  0  0  0  0  0  0  0
  -31.9705  -12.2053   20.9878 O   0  0  0  0  0  0  0  0  0  0  0  0
  -27.3201  -22.3494   20.9039 O   0  0  0  0  0  0  0  0  0  0  0  0
  -21.6604  -18.5918   19.3806 O   0  0  0  0  0  0  0  0  0  0  0  0
  -27.4106  -24.1498   23.1390 O   0  0  0  0  0  0  0  0  0  1  0  0
  -24.0167  -23.5199   20.1327 F   0  0  0  0  0  0  0  0  0  0  0  0
  -23.9298  -19.3084   17.9737 F   0  0  0  0  0  0  0  0  0  0  0  0
  1  2  1  0  0  0  0
  1  6  2  0  0  0  0
  2  7  2  0  0  0  0
  3  9  2  0  0  0  0
  3 10  1  0  0  0  0
  4 11  2  0  0  0  0
  4 19  1  0  0  0  0
  5 12  1  0  0  0  0
  5 19  2  0  0  0  0
  6 21  1  0  0  0  0
  7 23  1  0  0  0  0
  8 13  2  0  0  0  0
  8 22  1  0  0  0  0
  9 25  1  0  0  0  0
 10 26  2  0  0  0  0
 11 27  1  0  0  0  0
 12 27  2  0  0  0  0
 13 28  1  0  0  0  0
 14 15  2  0  0  0  0
 14 29  1  0  0  0  0
 15 30  1  0  0  0  0
 16 24  1  0  0  0  0
 16 28  2  0  0  0  0
 17 25  2  0  0  0  0
 17 26  1  0  0  0  0
 18 30  2  0  0  0  0
 18 31  1  0  0  0  0
 19 32  1  0  0  0  0
 20 32  1  0  0  0  0
 20 33  2  0  0  0  0
 20 35  1  0  0  0  0
 21 23  2  0  0  0  0
 21 42  1  0  0  0  0
 22 24  2  0  0  0  0
 22 43  1  0  0  0  0
 23 51  1  0  0  0  0
 24 44  1  0  0  0  0
 25 70  1  0  0  0  0
 26 73  1  0  0  0  0
 27 82  1  0  0  0  0
 28 83  1  0  0  0  0
 29 31  2  0  0  0  0
 29 82  1  0  0  0  0
 30 84  1  0  0  0  0
 31 85  1  0  0  0  0
 32 64  2  0  0  0  0
 33 65  1  0  0  0  0
 33 68  1  0  0  0  0
 34 36  2  0  0  0  0
 34 37  1  0  0  0  0
 35 69  1  0  0  0  0
 35 75  2  0  0  0  0
 36 60  1  0  0  0  0
 36 81  1  0  0  0  0
 37 70  1  0  0  0  0
 37 76  2  0  0  0  0
 38 52  1  0  0  0  0
 38 71  1  0  0  0  0
 38 77  2  0  0  0  0
 39 61  1  0  0  0  0
 39 66  1  0  0  0  0
 39 78  2  0  0  0  0
 40 62  1  0  0  0  0
 40 72  1  0  0  0  0
 40 79  2  0  0  0  0
 41 67  1  0  0  0  0
 41 73  1  0  0  0  0
 41 80  2  0  0  0  0
 42 45  1  0  0  0  0
 43 52  1  0  0  0  0
 44 66  1  0  0  0  0
 45 47  1  0  0  0  0
 46 48  1  0  0  0  0
 46 49  1  0  0  0  0
 47 51  1  0  0  0  0
 48 53  1  0  0  0  0
 49 67  1  0  0  0  0
 50 53  1  0  0  0  0
 50 67  1  0  0  0  0
 51 71  1  0  0  0  0
 52 66  1  0  0  0  0
 53 65  1  0  0  0  0
 54 62  1  0  0  0  0
 55 63  1  0  0  0  0
 56 63  1  0  0  0  0
 57 63  1  0  0  0  0
 58 73  1  0  0  0  0
 59 74  1  0  0  0  0
 60 83  1  0  0  0  0
 61 63  1  0  0  0  0
 61 72  1  0  0  0  0
 62 74  1  0  0  0  0
 64 65  1  0  0  0  0
M  CHG  1  74   1
M  ISO  4  41 100  60 101  73 100  83 101
M  END
> <Batch ID>
0156

> <Smiles>
CNC(C)C(=O)NC(C(=O)N1Cc2cc([101O:1][101CH2:1]C(=O)CC(=O)Nc3cccc([100N:0](C)[100C:0](=O)N4CCCC(n5nc(-c6ccc(Oc7ccc(F)cc7F)cc6)c(C(N)=O)c5N)C4)c3)ccc2CC1C(=O)NC1CCCc2ccccc21)C(C)(C)C

> <Shape>
0.261

> <Color>
0.090

> <Negative vol penalty>
0.000

$$$$

  -OEChem-04052303393D

 82 90  0     1  0  0  0  0  0999 V2000
  -20.6415  -33.8809   24.6101 C   0  0  0  0  0  0  0  0  0  0  0  0
  -21.8961  -33.4303   24.2123 C   0  0  0  0  0  0  0  0  0  0  0  0
  -25.1107  -12.8477   21.8598 C   0  0  0  0  0  0  0  0  0  0  0  0
  -26.4609  -12.5820   19.8740 C   0  0  0  0  0  0  0  0  0  0  0  0
  -19.6010  -32.9710   24.7930 C   0  0  0  0  0  0  0  0  0  0  0  0
  -22.1114  -32.0693   23.9984 C   0  0  0  0  0  0  0  0  0  0  0  0
  -25.7851  -29.5380   19.8029 C   0  0  0  0  0  0  0  0  0  0  0  0
  -24.8243  -11.4826   21.8477 C   0  0  0  0  0  0  0  0  0  0  0  0
  -26.1746  -11.2169   19.8620 C   0  0  0  0  0  0  0  0  0  0  0  0
  -27.0804  -29.0275   19.8760 C   0  0  0  0  0  0  0  0  0  0  0  0
  -22.7619   -9.3854   20.1827 C   0  0  0  0  0  0  0  0  0  0  0  0
  -21.4386   -8.9997   20.3966 C   0  0  0  0  0  0  0  0  0  0  0  0
  -26.1826  -26.8072   20.1650 C   0  0  0  0  0  0  0  0  0  0  0  0
  -29.6214  -23.1109   17.6868 C   0  0  0  0  0  0  0  0  0  0  0  0
  -22.1195   -7.7446   22.3455 C   0  0  0  0  0  0  0  0  0  0  0  0
  -25.9290  -13.3974   20.8729 C   0  0  0  0  0  0  0  0  0  0  0  0
  -27.3007  -15.4452   21.5306 C   0  0  0  0  0  0  0  0  0  0  0  0
  -19.8010  -31.5992   24.5718 C   0  0  0  0  0  0  0  0  0  0  0  0
  -24.6769  -28.6869   19.9215 C   0  0  0  0  0  0  0  0  0  0  0  0
  -21.0730  -31.1400   24.1798 C   0  0  0  0  0  0  0  0  0  0  0  0
  -24.8743  -27.3091   20.0905 C   0  0  0  0  0  0  0  0  0  0  0  0
  -29.2644  -21.8340   17.1651 C   0  0  0  0  0  0  0  0  0  0  0  0
  -25.3562  -10.6672   20.8488 C   0  0  0  0  0  0  0  0  0  0  0  0
  -27.2793  -27.6623   20.0599 C   0  0  0  0  0  0  0  0  0  0  0  0
  -23.7640   -8.9507   21.0501 C   0  0  0  0  0  0  0  0  0  0  0  0
  -21.1174   -8.1793   21.4780 C   0  0  0  0  0  0  0  0  0  0  0  0
  -23.4428   -8.1303   22.1316 C   0  0  0  0  0  0  0  0  0  0  0  0
  -26.2247  -14.8076   20.8845 C   0  0  0  0  0  0  0  0  0  0  0  0
  -28.1238  -21.8902   16.3947 C   0  0  0  0  0  0  0  0  0  0  0  0
  -27.1356  -16.7772   21.2391 C   0  0  0  0  0  0  0  0  0  0  0  0
  -28.7401  -24.0947   17.2949 C   0  0  0  0  0  0  0  0  0  0  0  0
  -28.3552  -14.8836   22.3233 C   0  0  0  0  0  0  0  0  0  0  0  0
  -22.2541  -28.4302   21.9630 C   0  0  0  0  0  0  0  0  0  0  0  0
  -21.2245  -26.1901   19.8548 C   0  0  0  0  0  0  0  0  0  0  0  0
  -21.9986  -23.9485   17.4007 C   0  0  0  0  0  0  0  0  0  0  0  0
  -25.3685  -20.2255   16.9378 C   0  0  0  0  0  0  0  0  0  0  0  0
  -18.6587  -30.6484   24.8282 C   0  0  0  0  0  0  0  0  0  0  0  0
  -23.2862  -29.2497   19.8138 C   0  0  0  0  0  0  0  0  0  0  0  0
  -23.7182  -26.3503   20.2031 C   0  0  0  0  0  0  0  0  0  0  0  0
  -18.8689  -29.2651   24.2180 C   0  0  0  0  0  0  0  0  0  0  0  0
  -23.3314  -19.5803   19.7857 C   0  0  0  0  0  0  0  0  0  0  0  0
  -20.2737  -28.7549   24.5232 C   0  0  0  0  0  0  0  0  0  0  0  0
  -23.9698  -18.3431   20.4194 C   0  0  0  0  0  0  0  0  0  0  0  0
  -23.3934  -19.5290   18.2607 C   0  0  0  0  0  0  0  0  0  0  0  0
  -25.3792  -18.0714   18.3365 C   0  0  0  0  0  0  0  0  0  0  0  0
  -21.3390  -29.6742   23.9138 C   0  0  1  0  0  0  0  0  0  0  0  0
  -22.2299  -28.3603   20.4622 C   0  0  1  0  0  0  0  0  0  0  0  0
  -25.3907  -18.1039   19.8744 C   0  0  2  0  0  0  0  0  0  0  0  0
  -20.9510  -22.2357   15.8953 C   0  0  0  0  0  0  0  0  0  0  0  0
  -30.5714  -28.2028   19.4481 C   0  0  0  0  0  0  0  0  0  0  0  0
  -21.0218  -24.2532   22.2037 C   0  0  0  0  0  0  0  0  0  0  0  0
  -20.9068  -22.3737   20.5537 C   0  0  0  0  0  0  0  0  0  0  0  0
  -19.1272  -24.1216   20.5765 C   0  0  0  0  0  0  0  0  0  0  0  0
  -22.8328  -25.4091   14.9656 C   0  0  0  0  0  0  0  0  0  0  0  0
  -27.4285  -20.7971   15.6773 C   0  0  0  0  0  0  0  0  0  0  0  0
  -29.8425  -26.0085   18.4559 C   0  0  0  0  0  0  0  0  0  0  0  0
  -21.4238  -24.7024   19.6932 C   0  0  1  0  0  0  0  0  0  0  0  0
  -21.3759  -23.6886   16.0408 C   0  0  2  0  0  0  0  0  0  0  0  0
  -29.3862  -27.3608   18.9986 C   0  0  1  0  0  0  0  0  0  1  0  0
  -20.6419  -23.8808   20.7566 C   0  0  0  0  0  0  0  0  0  0  0  0
  -25.4344  -15.6641   20.2320 N   0  0  0  0  0  0  0  0  0  0  0  0
  -26.0143  -16.8535   20.4666 N   0  0  0  0  0  0  0  0  0  0  0  0
  -22.3776  -26.9497   20.0980 N   0  0  0  0  0  0  0  0  0  0  0  0
  -24.7681  -19.3014   17.8088 N   0  0  0  0  0  0  0  0  0  0  0  0
  -29.9684  -20.7022   17.4028 N   0  0  0  0  0  0  0  0  0  0  0  0
  -27.8417  -17.8789   21.5709 N   0  0  0  0  0  0  0  0  0  0  0  0
  -28.3748  -13.4966   22.5231 N   0  0  0  0  0  0  0  0  0  0  0  0
  -28.8057  -25.4377   17.6262 N   0  0  0  0  0  0  0  0  0  0  0  0
  -21.4628  -29.4317   22.4924 N   0  0  0  0  0  0  0  0  0  0  0  0
  -21.0648  -24.3899   18.3141 N   0  0  0  0  0  0  0  0  0  0  0  0
  -26.6753  -19.9378   16.5634 N   0  0  0  0  0  0  0  0  0  0  0  0
  -22.3485  -24.0047   14.9568 N   0  3  0  0  0  0  0  0  0  0  0  0
  -29.2442  -15.5928   22.8528 O   0  0  0  0  0  0  0  0  0  0  0  0
  -22.9388  -27.6334   22.5939 O   0  0  0  0  0  0  0  0  0  0  0  0
  -20.0885  -26.6617   19.7614 O   0  0  0  0  0  0  0  0  0  0  0  0
  -23.1932  -23.7735   17.6307 O   0  0  0  0  0  0  0  0  0  0  0  0
  -24.7852  -21.2351   16.5288 O   0  0  0  0  0  0  0  0  0  0  0  0
  -25.0772   -9.3351   20.8369 O   0  0  0  0  0  0  0  0  0  0  0  0
  -28.5426  -27.1615   20.1322 O   0  0  0  0  0  0  0  0  0  1  0  0
  -19.8464   -7.8103   21.6842 F   0  0  0  0  0  0  0  0  0  0  0  0
  -24.4010   -7.7105   22.9691 F   0  0  0  0  0  0  0  0  0  0  0  0
  -27.4884  -23.4777   16.3025 S   0  0  0  0  0  0  0  0  0  0  0  0
  1  2  1  0  0  0  0
  1  5  2  0  0  0  0
  2  6  2  0  0  0  0
  3  8  2  0  0  0  0
  3 16  1  0  0  0  0
  4  9  1  0  0  0  0
  4 16  2  0  0  0  0
  5 18  1  0  0  0  0
  6 20  1  0  0  0  0
  7 10  2  0  0  0  0
  7 19  1  0  0  0  0
  8 23  1  0  0  0  0
  9 23  2  0  0  0  0
 10 24  1  0  0  0  0
 11 12  2  0  0  0  0
 11 25  1  0  0  0  0
 12 26  1  0  0  0  0
 13 21  1  0  0  0  0
 13 24  2  0  0  0  0
 14 22  1  0  0  0  0
 14 31  2  0  0  0  0
 15 26  2  0  0  0  0
 15 27  1  0  0  0  0
 16 28  1  0  0  0  0
 17 28  1  0  0  0  0
 17 30  2  0  0  0  0
 17 32  1  0  0  0  0
 18 20  2  0  0  0  0
 18 37  1  0  0  0  0
 19 21  2  0  0  0  0
 19 38  1  0  0  0  0
 20 46  1  0  0  0  0
 21 39  1  0  0  0  0
 22 29  2  0  0  0  0
 22 65  1  0  0  0  0
 23 78  1  0  0  0  0
 24 79  1  0  0  0  0
 25 27  2  0  0  0  0
 25 78  1  0  0  0  0
 26 80  1  0  0  0  0
 27 81  1  0  0  0  0
 28 61  2  0  0  0  0
 29 55  1  0  0  0  0
 29 82  1  0  0  0  0
 30 62  1  0  0  0  0
 30 66  1  0  0  0  0
 31 68  1  0  0  0  0
 31 82  1  0  0  0  0
 32 67  1  0  0  0  0
 32 73  2  0  0  0  0
 33 47  1  0  0  0  0
 33 69  1  0  0  0  0
 33 74  2  0  0  0  0
 34 57  1  0  0  0  0
 34 63  1  0  0  0  0
 34 75  2  0  0  0  0
 35 58  1  0  0  0  0
 35 70  1  0  0  0  0
 35 76  2  0  0  0  0
 36 64  1  0  0  0  0
 36 71  1  0  0  0  0
 36 77  2  0  0  0  0
 37 40  1  0  0  0  0
 38 47  1  0  0  0  0
 39 63  1  0  0  0  0
 40 42  1  0  0  0  0
 41 43  1  0  0  0  0
 41 44  1  0  0  0  0
 42 46  1  0  0  0  0
 43 48  1  0  0  0  0
 44 64  1  0  0  0  0
 45 48  1  0  0  0  0
 45 64  1  0  0  0  0
 46 69  1  0  0  0  0
 47 63  1  0  0  0  0
 48 62  1  0  0  0  0
 49 58  1  0  0  0  0
 50 59  1  0  0  0  0
 51 60  1  0  0  0  0
 52 60  1  0  0  0  0
 53 60  1  0  0  0  0
 54 72  1  0  0  0  0
 55 71  1  0  0  0  0
 56 59  1  0  0  0  0
 56 68  1  0  0  0  0
 57 60  1  0  0  0  0
 57 70  1  0  0  0  0
 58 72  1  0  0  0  0
 59 79  1  0  0  0  0
 61 62  1  0  0  0  0
M  CHG  1  72   1
M  ISO  4  36 100  59 101  71 100  79 101
M  END
> <Batch ID>
0156

> <Smiles>
CNC(C)C(=O)NC(C(=O)N1Cc2cc([101O:1][101CH:1](C)CNc3cc(N)c(C[100NH:0][100C:0](=O)N4CCCC(n5nc(-c6ccc(Oc7ccc(F)cc7F)cc6)c(C(N)=O)c5N)C4)s3)ccc2CC1C(=O)NC1CCCc2ccccc21)C(C)(C)C

> <Shape>
0.207

> <Color>
0.088

> <Negative vol penalty>
0.000

$$$$

  -OEChem-04052303393D

 82 90  0     1  0  0  0  0  0999 V2000
  -18.0496  -26.9439   22.3725 C   0  0  0  0  0  0  0  0  0  0  0  0
  -19.1291  -26.1235   22.6842 C   0  0  0  0  0  0  0  0  0  0  0  0
  -23.0279   -9.8281   19.9705 C   0  0  0  0  0  0  0  0  0  0  0  0
  -23.7134   -9.9359   22.2846 C   0  0  0  0  0  0  0  0  0  0  0  0
  -18.2422  -28.3150   22.2081 C   0  0  0  0  0  0  0  0  0  0  0  0
  -20.4020  -26.6736   22.8306 C   0  0  0  0  0  0  0  0  0  0  0  0
  -24.7723  -24.8580   26.7178 C   0  0  0  0  0  0  0  0  0  0  0  0
  -22.2730   -8.6883   20.2472 C   0  0  0  0  0  0  0  0  0  0  0  0
  -22.9585   -8.7962   22.5614 C   0  0  0  0  0  0  0  0  0  0  0  0
  -25.8942  -24.0465   26.5552 C   0  0  0  0  0  0  0  0  0  0  0  0
  -23.2576   -5.4522   22.1619 C   0  0  0  0  0  0  0  0  0  0  0  0
  -23.8466   -4.4590   22.9442 C   0  0  0  0  0  0  0  0  0  0  0  0
  -27.2579  -26.0086   26.2239 C   0  0  0  0  0  0  0  0  0  0  0  0
  -22.0915   -4.7108   24.5854 C   0  0  0  0  0  0  0  0  0  0  0  0
  -23.7482  -10.4519   20.9892 C   0  0  0  0  0  0  0  0  0  0  0  0
  -24.1010  -12.9687   20.7682 C   0  0  0  0  0  0  0  0  0  0  0  0
  -19.5165  -28.8835   22.3621 C   0  0  0  0  0  0  0  0  0  0  0  0
  -24.8830  -26.2527   26.6237 C   0  0  0  0  0  0  0  0  0  0  0  0
  -20.6121  -28.0533   22.6668 C   0  0  0  0  0  0  0  0  0  0  0  0
  -26.1363  -26.8357   26.3882 C   0  0  0  0  0  0  0  0  0  0  0  0
  -22.2383   -8.1723   21.5426 C   0  0  0  0  0  0  0  0  0  0  0  0
  -27.1368  -24.6216   26.3053 C   0  0  0  0  0  0  0  0  0  0  0  0
  -22.0855   -6.0749   22.5913 C   0  0  0  0  0  0  0  0  0  0  0  0
  -23.2636   -4.0882   24.1559 C   0  0  0  0  0  0  0  0  0  0  0  0
  -21.5025   -5.7042   23.8030 C   0  0  0  0  0  0  0  0  0  0  0  0
  -24.5286  -11.6290   20.7038 C   0  0  0  0  0  0  0  0  0  0  0  0
  -31.7104  -18.7672   22.1666 C   0  0  0  0  0  0  0  0  0  0  0  0
  -25.2065  -13.6997   20.4076 C   0  0  0  0  0  0  0  0  0  0  0  0
  -30.5865  -19.1683   22.8580 C   0  0  0  0  0  0  0  0  0  0  0  0
  -30.4788  -16.9786   21.8600 C   0  0  0  0  0  0  0  0  0  0  0  0
  -22.8192  -13.5045   21.1225 C   0  0  0  0  0  0  0  0  0  0  0  0
  -23.6650  -28.4752   24.7051 C   0  0  0  0  0  0  0  0  0  0  0  0
  -29.2474  -22.0619   24.8369 C   0  0  0  0  0  0  0  0  0  0  0  0
  -25.1256  -30.5044   26.7718 C   0  0  0  0  0  0  0  0  0  0  0  0
  -27.5809  -31.0099   29.0876 C   0  0  0  0  0  0  0  0  0  0  0  0
  -30.6673  -14.7438   20.7125 C   0  0  0  0  0  0  0  0  0  0  0  0
  -19.6839  -30.3640   22.1282 C   0  0  0  0  0  0  0  0  0  0  0  0
  -23.6679  -27.1154   26.8281 C   0  0  0  0  0  0  0  0  0  0  0  0
  -26.3121  -28.3288   26.2982 C   0  0  0  0  0  0  0  0  0  0  0  0
  -20.9979  -30.9214   22.6693 C   0  0  0  0  0  0  0  0  0  0  0  0
  -29.6228  -12.2289   18.4188 C   0  0  0  0  0  0  0  0  0  0  0  0
  -22.1639  -30.0230   22.2693 C   0  0  0  0  0  0  0  0  0  0  0  0
  -28.1692  -11.9588   18.8141 C   0  0  0  0  0  0  0  0  0  0  0  0
  -30.4993  -12.5095   19.6381 C   0  0  0  0  0  0  0  0  0  0  0  0
  -28.5509  -13.2974   20.9235 C   0  0  0  0  0  0  0  0  0  0  0  0
  -22.0037  -28.6162   22.8582 C   0  0  1  0  0  0  0  0  0  0  0  0
  -23.8053  -28.4993   26.2009 C   0  0  1  0  0  0  0  0  0  0  0  0
  -27.6161  -13.0735   19.7236 C   0  0  2  0  0  0  0  0  0  0  0  0
  -28.5507  -32.7829   30.5753 C   0  0  0  0  0  0  0  0  0  0  0  0
  -26.4956  -31.7755   24.3598 C   0  0  0  0  0  0  0  0  0  0  0  0
  -28.1170  -32.8511   25.9354 C   0  0  0  0  0  0  0  0  0  0  0  0
  -25.6885  -33.4029   26.0787 C   0  0  0  0  0  0  0  0  0  0  0  0
  -26.9566  -29.4635   31.5325 C   0  0  0  0  0  0  0  0  0  0  0  0
  -29.1459  -20.6828   24.2205 C   0  0  0  0  0  0  0  0  0  0  0  0
  -28.0227  -22.5309   25.5981 C   0  0  0  0  0  0  0  0  0  1  0  0
  -26.4931  -31.1376   26.8617 C   0  0  1  0  0  0  0  0  0  0  0  0
  -27.5496  -31.6432   30.4669 C   0  0  2  0  0  0  0  0  0  0  0  0
  -26.6952  -32.2635   25.8086 C   0  0  0  0  0  0  0  0  0  0  0  0
  -25.8060  -11.5128   20.3314 N   0  0  0  0  0  0  0  0  0  0  0  0
  -31.6507  -17.5117   21.5940 N   0  0  0  0  0  0  0  0  0  0  0  0
  -26.1906  -12.7888   20.1584 N   0  0  0  0  0  0  0  0  0  0  0  0
  -25.0931  -29.1296   26.4988 N   0  0  0  0  0  0  0  0  0  0  0  0
  -29.9154  -13.5791   20.4504 N   0  0  0  0  0  0  0  0  0  0  0  0
  -32.8270  -19.5235   22.0311 N   0  0  0  0  0  0  0  0  0  0  0  0
  -25.4230  -15.0263   20.2823 N   0  0  0  0  0  0  0  0  0  0  0  0
  -21.7943  -12.6127   21.4669 N   0  0  0  0  0  0  0  0  0  0  0  0
  -30.3669  -20.3647   23.5255 N   0  0  0  0  0  0  0  0  0  0  0  0
  -29.9966  -15.7053   21.4677 N   0  0  0  0  0  0  0  0  0  0  0  0
  -22.3639  -28.6110   24.2599 N   0  0  0  0  0  0  0  0  0  0  0  0
  -26.6493  -31.5772   28.2439 N   0  0  0  0  0  0  0  0  0  0  0  0
  -27.8763  -30.6299   31.5097 N   0  3  0  0  0  0  0  0  0  0  0  0
  -22.5848  -14.7368   21.1175 O   0  0  0  0  0  0  0  0  0  0  0  0
  -24.6633  -28.3446   24.0066 O   0  0  0  0  0  0  0  0  0  0  0  0
  -30.2520  -22.7646   24.7333 O   0  0  0  0  0  0  0  0  0  0  0  0
  -24.1234  -31.2025   26.9447 O   0  0  0  0  0  0  0  0  0  0  0  0
  -28.3567  -30.1052   28.7875 O   0  0  0  0  0  0  0  0  0  0  0  0
  -31.8114  -14.8899   20.2746 O   0  0  0  0  0  0  0  0  0  0  0  0
  -21.5015   -7.0603   21.8131 O   0  0  0  0  0  0  0  0  0  0  0  0
  -28.2334  -23.8318   26.1455 O   0  0  0  0  0  0  0  0  0  1  0  0
  -23.8285   -3.1333   24.9063 F   0  0  0  0  0  0  0  0  0  0  0  0
  -20.3759   -6.2979   24.2203 F   0  0  0  0  0  0  0  0  0  0  0  0
  -29.3997  -17.9320   22.7935 S   0  0  0  0  0  0  0  0  0  0  0  0
  1  2  1  0  0  0  0
  1  5  2  0  0  0  0
  2  6  2  0  0  0  0
  3  8  2  0  0  0  0
  3 15  1  0  0  0  0
  4  9  1  0  0  0  0
  4 15  2  0  0  0  0
  5 17  1  0  0  0  0
  6 19  1  0  0  0  0
  7 10  2  0  0  0  0
  7 18  1  0  0  0  0
  8 21  1  0  0  0  0
  9 21  2  0  0  0  0
 10 22  1  0  0  0  0
 11 12  2  0  0  0  0
 11 23  1  0  0  0  0
 12 24  1  0  0  0  0
 13 20  1  0  0  0  0
 13 22  2  0  0  0  0
 14 24  2  0  0  0  0
 14 25  1  0  0  0  0
 15 26  1  0  0  0  0
 16 26  1  0  0  0  0
 16 28  2  0  0  0  0
 16 31  1  0  0  0  0
 17 19  2  0  0  0  0
 17 37  1  0  0  0  0
 18 20  2  0  0  0  0
 18 38  1  0  0  0  0
 19 46  1  0  0  0  0
 20 39  1  0  0  0  0
 21 78  1  0  0  0  0
 22 79  1  0  0  0  0
 23 25  2  0  0  0  0
 23 78  1  0  0  0  0
 24 80  1  0  0  0  0
 25 81  1  0  0  0  0
 26 59  2  0  0  0  0
 27 29  2  0  0  0  0
 27 60  1  0  0  0  0
 27 64  1  0  0  0  0
 28 61  1  0  0  0  0
 28 65  1  0  0  0  0
 29 67  1  0  0  0  0
 29 82  1  0  0  0  0
 30 60  2  0  0  0  0
 30 68  1  0  0  0  0
 30 82  1  0  0  0  0
 31 66  1  0  0  0  0
 31 72  2  0  0  0  0
 32 47  1  0  0  0  0
 32 69  1  0  0  0  0
 32 73  2  0  0  0  0
 33 54  1  0  0  0  0
 33 55  1  0  0  0  0
 33 74  2  0  0  0  0
 34 56  1  0  0  0  0
 34 62  1  0  0  0  0
 34 75  2  0  0  0  0
 35 57  1  0  0  0  0
 35 70  1  0  0  0  0
 35 76  2  0  0  0  0
 36 63  1  0  0  0  0
 36 68  1  0  0  0  0
 36 77  2  0  0  0  0
 37 40  1  0  0  0  0
 38 47  1  0  0  0  0
 39 62  1  0  0  0  0
 40 42  1  0  0  0  0
 41 43  1  0  0  0  0
 41 44  1  0  0  0  0
 42 46  1  0  0  0  0
 43 48  1  0  0  0  0
 44 63  1  0  0  0  0
 45 48  1  0  0  0  0
 45 63  1  0  0  0  0
 46 69  1  0  0  0  0
 47 62  1  0  0  0  0
 48 61  1  0  0  0  0
 49 57  1  0  0  0  0
 50 58  1  0  0  0  0
 51 58  1  0  0  0  0
 52 58  1  0  0  0  0
 53 71  1  0  0  0  0
 54 67  1  0  0  0  0
 55 79  1  0  0  0  0
 56 58  1  0  0  0  0
 56 70  1  0  0  0  0
 57 71  1  0  0  0  0
 59 61  1  0  0  0  0
M  CHG  1  71   1
M  ISO  4  36 100  55 101  68 100  79 101
M  END
> <Batch ID>
0156

> <Smiles>
CNC(C)C(=O)NC(C(=O)N1Cc2cc([101O:1][101CH2:1]C(=O)CNc3sc([100NH:0][100C:0](=O)N4CCCC(n5nc(-c6ccc(Oc7ccc(F)cc7F)cc6)c(C(N)=O)c5N)C4)nc3N)ccc2CC1C(=O)NC1CCCc2ccccc21)C(C)(C)C

> <Shape>
0.299

> <Color>
0.218

> <Negative vol penalty>
0.000

$$$$

  -OEChem-04052303393D

 86 94  0     1  0  0  0  0  0999 V2000
  -21.6608  -29.1834   23.0757 C   0  0  0  0  0  0  0  0  0  0  0  0
  -22.4224  -28.0635   23.3937 C   0  0  0  0  0  0  0  0  0  0  0  0
  -23.0008   -9.8912   19.9839 C   0  0  0  0  0  0  0  0  0  0  0  0
  -23.7200   -9.9515   22.2895 C   0  0  0  0  0  0  0  0  0  0  0  0
  -22.2461  -30.4488   23.0854 C   0  0  0  0  0  0  0  0  0  0  0  0
  -23.7702  -28.2082   23.7206 C   0  0  0  0  0  0  0  0  0  0  0  0
  -25.0907  -25.4752   27.7742 C   0  0  0  0  0  0  0  0  0  0  0  0
  -22.2335   -8.7579   20.2528 C   0  0  0  0  0  0  0  0  0  0  0  0
  -22.9527   -8.8182   22.5585 C   0  0  0  0  0  0  0  0  0  0  0  0
  -25.2912  -24.1088   27.5831 C   0  0  0  0  0  0  0  0  0  0  0  0
  -23.1980   -5.4773   22.1008 C   0  0  0  0  0  0  0  0  0  0  0  0
  -23.7836   -4.4632   22.8586 C   0  0  0  0  0  0  0  0  0  0  0  0
  -31.1920  -17.6055   20.5649 C   0  0  0  0  0  0  0  0  0  0  0  0
  -30.6508  -19.8101   21.3917 C   0  0  0  0  0  0  0  0  0  0  0  0
  -27.6746  -24.4745   27.5135 C   0  0  0  0  0  0  0  0  0  0  0  0
  -29.5342  -17.8708   22.3022 C   0  0  0  0  0  0  0  0  0  0  0  0
  -22.0554   -4.7130   24.5284 C   0  0  0  0  0  0  0  0  0  0  0  0
  -23.7441  -10.4881   21.0022 C   0  0  0  0  0  0  0  0  0  0  0  0
  -31.3838  -18.9868   20.5370 C   0  0  0  0  0  0  0  0  0  0  0  0
  -24.1300  -13.0029   20.8169 C   0  0  0  0  0  0  0  0  0  0  0  0
  -23.5994  -30.6101   23.4218 C   0  0  0  0  0  0  0  0  0  0  0  0
  -26.1819  -26.3544   27.8256 C   0  0  0  0  0  0  0  0  0  0  0  0
  -24.3746  -29.4768   23.7334 C   0  0  0  0  0  0  0  0  0  0  0  0
  -27.4854  -25.8512   27.7079 C   0  0  0  0  0  0  0  0  0  0  0  0
  -30.2672  -17.0475   21.4475 C   0  0  0  0  0  0  0  0  0  0  0  0
  -29.7260  -19.2521   22.2743 C   0  0  0  0  0  0  0  0  0  0  0  0
  -22.2094   -8.2213   21.5402 C   0  0  0  0  0  0  0  0  0  0  0  0
  -26.5832  -23.6086   27.4498 C   0  0  0  0  0  0  0  0  0  0  0  0
  -22.0412   -6.1094   22.5569 C   0  0  0  0  0  0  0  0  0  0  0  0
  -23.2123   -4.0810   24.0723 C   0  0  0  0  0  0  0  0  0  0  0  0
  -21.4699   -5.7272   23.7706 C   0  0  0  0  0  0  0  0  0  0  0  0
  -24.5373  -11.6585   20.7248 C   0  0  0  0  0  0  0  0  0  0  0  0
  -25.2407  -13.7239   20.4525 C   0  0  0  0  0  0  0  0  0  0  0  0
  -32.3418  -19.5653   19.6214 C   0  0  0  0  0  0  0  0  0  0  0  0
  -22.8611  -13.5509   21.1980 C   0  0  0  0  0  0  0  0  0  0  0  0
  -27.1505  -28.8317   26.0852 C   0  0  0  0  0  0  0  0  0  0  0  0
  -27.4132  -20.7396   24.8339 C   0  0  0  0  0  0  0  0  0  0  0  0
  -29.3980  -29.0881   28.4101 C   0  0  0  0  0  0  0  0  0  0  0  0
  -31.2022  -27.5678   30.8759 C   0  0  0  0  0  0  0  0  0  0  0  0
  -30.7196  -14.6857   20.6966 C   0  0  0  0  0  0  0  0  0  0  0  0
  -24.1998  -31.9928   23.3726 C   0  0  0  0  0  0  0  0  0  0  0  0
  -25.9502  -27.8221   28.0591 C   0  0  0  0  0  0  0  0  0  0  0  0
  -28.6918  -26.7504   27.7762 C   0  0  0  0  0  0  0  0  0  0  0  0
  -25.5405  -32.1007   24.0945 C   0  0  0  0  0  0  0  0  0  0  0  0
  -29.6072  -12.2234   18.3778 C   0  0  0  0  0  0  0  0  0  0  0  0
  -26.4501  -30.9388   23.7079 C   0  0  0  0  0  0  0  0  0  0  0  0
  -28.1555  -11.9676   18.7893 C   0  0  0  0  0  0  0  0  0  0  0  0
  -30.5046  -12.4717   19.5889 C   0  0  0  0  0  0  0  0  0  0  0  0
  -28.5859  -13.2661   20.9143 C   0  0  0  0  0  0  0  0  0  0  0  0
  -25.8336  -29.5957   24.1173 C   0  0  1  0  0  0  0  0  0  0  0  0
  -27.1076  -28.6933   27.5808 C   0  0  1  0  0  0  0  0  0  0  0  0
  -27.6313  -13.0750   19.7244 C   0  0  2  0  0  0  0  0  0  0  0  0
  -32.9893  -28.0258   32.5771 C   0  0  0  0  0  0  0  0  0  0  0  0
  -31.5051  -29.0489   26.2036 C   0  0  0  0  0  0  0  0  0  0  0  0
  -33.2265  -28.5519   27.9523 C   0  0  0  0  0  0  0  0  0  0  0  0
  -31.9458  -30.6908   28.0378 C   0  0  0  0  0  0  0  0  0  0  0  0
  -29.4040  -26.8748   33.1221 C   0  0  0  0  0  0  0  0  0  0  0  0
  -26.3667  -20.3552   25.8715 C   0  0  0  0  0  0  0  0  0  0  0  0
  -28.0225  -19.5829   24.0672 C   0  0  0  0  0  0  0  0  0  0  0  0
  -25.7567  -21.5560   26.5783 C   0  0  0  0  0  0  0  0  0  1  0  0
  -30.7819  -28.5248   28.6261 C   0  0  1  0  0  0  0  0  0  0  0  0
  -31.4932  -27.9760   32.3088 C   0  0  2  0  0  0  0  0  0  0  0  0
  -31.8422  -29.1871   27.7017 C   0  0  0  0  0  0  0  0  0  0  0  0
  -25.8076  -11.5303   20.3325 N   0  0  0  0  0  0  0  0  0  0  0  0
  -26.2080  -12.8035   20.1747 N   0  0  0  0  0  0  0  0  0  0  0  0
  -28.4130  -28.1787   27.9995 N   0  0  0  0  0  0  0  0  0  0  0  0
  -29.9475  -13.5361   20.4265 N   0  0  0  0  0  0  0  0  0  0  0  0
  -25.4745  -15.0492   20.3456 N   0  0  0  0  0  0  0  0  0  0  0  0
  -33.0523  -18.7809   18.7935 N   0  0  0  0  0  0  0  0  0  0  0  0
  -21.8283  -12.6682   21.5425 N   0  0  0  0  0  0  0  0  0  0  0  0
  -30.0734  -15.6441   21.4766 N   0  0  0  0  0  0  0  0  0  0  0  0
  -28.9973  -20.0709   23.1245 N   0  0  0  0  0  0  0  0  0  0  0  0
  -26.0035  -29.3735   25.5372 N   0  0  0  0  0  0  0  0  0  0  0  0
  -31.0613  -28.6638   30.0512 N   0  0  0  0  0  0  0  0  0  0  0  0
  -32.5327  -20.8949   19.5854 N   0  3  0  0  0  0  0  0  0  0  0  0
  -30.8774  -27.0068   33.2588 N   0  3  0  0  0  0  0  0  0  0  0  0
  -22.6444  -14.7863   21.2162 O   0  0  0  0  0  0  0  0  0  0  0  0
  -28.1508  -28.4747   25.4738 O   0  0  0  0  0  0  0  0  0  0  0  0
  -27.7419  -21.9081   24.6342 O   0  0  0  0  0  0  0  0  0  0  0  0
  -29.1967  -30.2893   28.6056 O   0  0  0  0  0  0  0  0  0  0  0  0
  -31.1129  -26.3940   30.5228 O   0  0  0  0  0  0  0  0  0  0  0  0
  -31.8595  -14.8227   20.2450 O   0  0  0  0  0  0  0  0  0  0  0  0
  -21.4606   -7.1156   21.8030 O   0  0  0  0  0  0  0  0  0  0  0  0
  -26.7817  -22.2754   27.2625 O   0  0  0  0  0  0  0  0  0  1  0  0
  -23.7738   -3.1060   24.7992 F   0  0  0  0  0  0  0  0  0  0  0  0
  -20.3579   -6.3299   24.2133 F   0  0  0  0  0  0  0  0  0  0  0  0
  1  2  1  0  0  0  0
  1  5  2  0  0  0  0
  2  6  2  0  0  0  0
  3  8  2  0  0  0  0
  3 18  1  0  0  0  0
  4  9  1  0  0  0  0
  4 18  2  0  0  0  0
  5 21  1  0  0  0  0
  6 23  1  0  0  0  0
  7 10  2  0  0  0  0
  7 22  1  0  0  0  0
  8 27  1  0  0  0  0
  9 27  2  0  0  0  0
 10 28  1  0  0  0  0
 11 12  2  0  0  0  0
 11 29  1  0  0  0  0
 12 30  1  0  0  0  0
 13 19  2  0  0  0  0
 13 25  1  0  0  0  0
 14 19  1  0  0  0  0
 14 26  2  0  0  0  0
 15 24  1  0  0  0  0
 15 28  2  0  0  0  0
 16 25  2  0  0  0  0
 16 26  1  0  0  0  0
 17 30  2  0  0  0  0
 17 31  1  0  0  0  0
 18 32  1  0  0  0  0
 19 34  1  0  0  0  0
 20 32  1  0  0  0  0
 20 33  2  0  0  0  0
 20 35  1  0  0  0  0
 21 23  2  0  0  0  0
 21 41  1  0  0  0  0
 22 24  2  0  0  0  0
 22 42  1  0  0  0  0
 23 50  1  0  0  0  0
 24 43  1  0  0  0  0
 25 71  1  0  0  0  0
 26 72  1  0  0  0  0
 27 83  1  0  0  0  0
 28 84  1  0  0  0  0
 29 31  2  0  0  0  0
 29 83  1  0  0  0  0
 30 85  1  0  0  0  0
 31 86  1  0  0  0  0
 32 64  2  0  0  0  0
 33 65  1  0  0  0  0
 33 68  1  0  0  0  0
 34 69  1  0  0  0  0
 34 75  2  0  0  0  0
 35 70  1  0  0  0  0
 35 77  2  0  0  0  0
 36 51  1  0  0  0  0
 36 73  1  0  0  0  0
 36 78  2  0  0  0  0
 37 58  1  0  0  0  0
 37 59  1  0  0  0  0
 37 79  2  0  0  0  0
 38 61  1  0  0  0  0
 38 66  1  0  0  0  0
 38 80  2  0  0  0  0
 39 62  1  0  0  0  0
 39 74  1  0  0  0  0
 39 81  2  0  0  0  0
 40 67  1  0  0  0  0
 40 71  1  0  0  0  0
 40 82  2  0  0  0  0
 41 44  1  0  0  0  0
 42 51  1  0  0  0  0
 43 66  1  0  0  0  0
 44 46  1  0  0  0  0
 45 47  1  0  0  0  0
 45 48  1  0  0  0  0
 46 50  1  0  0  0  0
 47 52  1  0  0  0  0
 48 67  1  0  0  0  0
 49 52  1  0  0  0  0
 49 67  1  0  0  0  0
 50 73  1  0  0  0  0
 51 66  1  0  0  0  0
 52 65  1  0  0  0  0
 53 62  1  0  0  0  0
 54 63  1  0  0  0  0
 55 63  1  0  0  0  0
 56 63  1  0  0  0  0
 57 76  1  0  0  0  0
 58 60  1  0  0  0  0
 59 72  1  0  0  0  0
 60 84  1  0  0  0  0
 61 63  1  0  0  0  0
 61 74  1  0  0  0  0
 62 76  1  0  0  0  0
 64 65  1  0  0  0  0
M  CHG  2  75   1  76   1
M  ISO  4  40 100  60 101  71 100  84 101
M  END
> <Batch ID>
0156

> <Smiles>
CNC(C)C(=O)NC(C(=O)N1Cc2cc([101O:1][101CH2:1]CC(=O)CNc3cc([100NH:0][100C:0](=O)N4CCCC(n5nc(-c6ccc(Oc7ccc(F)cc7F)cc6)c(C(N)=O)c5N)C4)cc(C(=N)N)c3)ccc2CC1C(=O)NC1CCCc2ccccc21)C(C)(C)C

> <Shape>
0.242

> <Color>
0.186

> <Negative vol penalty>
0.000

$$$$

  -OEChem-04052303393D

 82 90  0     1  0  0  0  0  0999 V2000
  -34.3473  -12.0385   19.8855 C   0  0  0  0  0  0  0  0  0  0  0  0
  -34.5710  -13.3696   19.5486 C   0  0  0  0  0  0  0  0  0  0  0  0
  -21.9557  -21.6159   23.7268 C   0  0  0  0  0  0  0  0  0  0  0  0
  -19.7342  -21.4174   24.6555 C   0  0  0  0  0  0  0  0  0  0  0  0
  -33.0536  -11.5987   20.1629 C   0  0  0  0  0  0  0  0  0  0  0  0
  -33.5009  -14.2616   19.4879 C   0  0  0  0  0  0  0  0  0  0  0  0
  -31.8994  -21.1469   20.6472 C   0  0  0  0  0  0  0  0  0  0  0  0
  -22.4208  -20.6660   24.6361 C   0  0  0  0  0  0  0  0  0  0  0  0
  -20.1992  -20.4674   25.5648 C   0  0  0  0  0  0  0  0  0  0  0  0
  -31.3079  -22.2371   20.0106 C   0  0  0  0  0  0  0  0  0  0  0  0
  -21.9078  -20.4384   28.4822 C   0  0  0  0  0  0  0  0  0  0  0  0
  -21.5040  -20.5618   29.8116 C   0  0  0  0  0  0  0  0  0  0  0  0
  -29.1269  -21.3828   20.5872 C   0  0  0  0  0  0  0  0  0  0  0  0
  -24.9317  -27.4862   20.7503 C   0  0  0  0  0  0  0  0  0  0  0  0
  -20.4724  -18.3799   29.7007 C   0  0  0  0  0  0  0  0  0  0  0  0
  -26.8755  -28.1824   19.6830 C   0  0  0  0  0  0  0  0  0  0  0  0
  -20.6123  -21.9917   23.7365 C   0  0  0  0  0  0  0  0  0  0  0  0
  -19.6141  -22.7363   21.5101 C   0  0  0  0  0  0  0  0  0  0  0  0
  -31.9684  -12.4879   20.1150 C   0  0  0  0  0  0  0  0  0  0  0  0
  -31.1075  -20.1591   21.2502 C   0  0  0  0  0  0  0  0  0  0  0  0
  -32.1913  -13.8330   19.7636 C   0  0  0  0  0  0  0  0  0  0  0  0
  -29.7109  -20.2824   21.2331 C   0  0  0  0  0  0  0  0  0  0  0  0
  -26.1924  -27.1065   20.2057 C   0  0  0  0  0  0  0  0  0  0  0  0
  -21.5426  -20.0917   25.5551 C   0  0  0  0  0  0  0  0  0  0  0  0
  -29.9214  -22.3537   19.9779 C   0  0  0  0  0  0  0  0  0  0  0  0
  -21.5938  -19.2859   27.7620 C   0  0  0  0  0  0  0  0  0  0  0  0
  -20.7864  -19.5325   30.4209 C   0  0  0  0  0  0  0  0  0  0  0  0
  -20.8762  -18.2566   28.3713 C   0  0  0  0  0  0  0  0  0  0  0  0
  -20.1314  -22.9733   22.7978 C   0  0  0  0  0  0  0  0  0  0  0  0
  -24.6994  -28.8382   20.6234 C   0  0  0  0  0  0  0  0  0  0  0  0
  -19.3011  -23.9847   21.0307 C   0  0  0  0  0  0  0  0  0  0  0  0
  -19.4326  -21.4983   20.8101 C   0  0  0  0  0  0  0  0  0  0  0  0
  -23.5163  -29.6248   21.0573 C   0  0  0  0  0  0  0  0  0  0  0  0
  -30.6799  -17.0419   20.7988 C   0  0  0  0  0  0  0  0  0  0  0  0
  -28.8606  -17.3003   23.4719 C   0  0  0  0  0  0  0  0  0  0  0  0
  -27.9225  -25.3566   19.6778 C   0  0  0  0  0  0  0  0  0  0  0  0
  -26.9867  -19.2849   25.5205 C   0  0  0  0  0  0  0  0  0  0  0  0
  -21.3281  -29.4490   22.1994 C   0  0  0  0  0  0  0  0  0  0  0  0
  -30.5817  -11.9557   20.3767 C   0  0  0  0  0  0  0  0  0  0  0  0
  -31.7616  -19.0032   21.9561 C   0  0  0  0  0  0  0  0  0  0  0  0
  -28.8165  -19.2596   21.8831 C   0  0  0  0  0  0  0  0  0  0  0  0
  -29.5527  -13.0481   20.6561 C   0  0  0  0  0  0  0  0  0  0  0  0
  -17.9843  -28.3471   22.5183 C   0  0  0  0  0  0  0  0  0  0  0  0
  -29.6787  -14.1740   19.6347 C   0  0  0  0  0  0  0  0  0  0  0  0
  -18.1031  -26.8208   22.4934 C   0  0  0  0  0  0  0  0  0  0  0  0
  -19.1422  -28.9941   23.2769 C   0  0  0  0  0  0  0  0  0  0  0  0
  -20.5976  -27.0641   22.8130 C   0  0  0  0  0  0  0  0  0  0  0  0
  -31.0596  -14.8364   19.7114 C   0  0  1  0  0  0  0  0  0  0  0  0
  -30.8462  -17.7902   22.0911 C   0  0  1  0  0  0  0  0  0  0  0  0
  -19.4927  -26.3696   22.0006 C   0  0  1  0  0  0  0  0  0  0  0  0
  -25.5945  -19.2043   27.6068 C   0  0  0  0  0  0  0  0  0  0  0  0
  -26.5969  -15.9819   21.9074 C   0  0  0  0  0  0  0  0  0  0  0  0
  -25.0075  -16.7813   23.6690 C   0  0  0  0  0  0  0  0  0  0  0  0
  -26.8328  -15.1900   24.2679 C   0  0  0  0  0  0  0  0  0  0  0  0
  -28.7568  -21.2036   26.9149 C   0  0  0  0  0  0  0  0  0  0  0  0
  -28.0842  -23.8596   19.8657 C   0  0  0  0  0  0  0  0  0  1  0  0
  -27.4071  -17.5974   23.7513 C   0  0  1  0  0  0  0  0  0  0  0  0
  -26.9792  -19.4526   27.0292 C   0  0  2  0  0  0  0  0  0  0  0  0
  -26.4776  -16.4061   23.3849 C   0  0  0  0  0  0  0  0  0  0  0  0
  -20.1480  -24.2704   23.1161 N   0  0  0  0  0  0  0  0  0  0  0  0
  -19.6372  -24.8596   22.0215 N   0  0  0  0  0  0  0  0  0  0  0  0
  -29.5034  -18.1444   22.5553 N   0  0  0  0  0  0  0  0  0  0  0  0
  -20.4216  -28.5226   22.7438 N   0  0  0  0  0  0  0  0  0  0  0  0
  -18.7740  -24.4086   19.8624 N   0  0  0  0  0  0  0  0  0  0  0  0
  -19.8069  -20.3083   21.4490 N   0  0  0  0  0  0  0  0  0  0  0  0
  -26.7043  -25.7873   20.1921 N   0  0  0  0  0  0  0  0  0  0  0  0
  -22.5024  -28.8947   21.6780 N   0  0  0  0  0  0  0  0  0  0  0  0
  -31.1269  -15.7351   20.8438 N   0  0  0  0  0  0  0  0  0  0  0  0
  -27.3350  -18.0030   25.1508 N   0  0  0  0  0  0  0  0  0  0  0  0
  -27.4021  -20.8330   27.3990 N   0  3  0  0  0  0  0  0  0  0  0  0
  -18.9679  -21.4501   19.6459 O   0  0  0  0  0  0  0  0  0  0  0  0
  -23.5120  -30.8411   20.8881 O   0  0  0  0  0  0  0  0  0  0  0  0
  -30.1815  -17.6078   19.8328 O   0  0  0  0  0  0  0  0  0  0  0  0
  -29.4075  -16.3585   24.0512 O   0  0  0  0  0  0  0  0  0  0  0  0
  -28.7903  -26.0336   19.1362 O   0  0  0  0  0  0  0  0  0  0  0  0
  -26.7076  -20.1986   24.7473 O   0  0  0  0  0  0  0  0  0  0  0  0
  -21.0958  -30.6608   22.1472 O   0  0  0  0  0  0  0  0  0  0  0  0
  -21.9960  -19.1646   26.4425 O   0  0  0  0  0  0  0  0  0  0  0  0
  -29.3415  -23.4165   19.3566 O   0  0  0  0  0  0  0  0  0  1  0  0
  -20.4000  -19.6504   31.6980 F   0  0  0  0  0  0  0  0  0  0  0  0
  -20.5726  -17.1464   27.6848 F   0  0  0  0  0  0  0  0  0  0  0  0
  -25.9979  -29.6433   19.8499 S   0  0  0  0  0  0  0  0  0  0  0  0
  1  2  1  0  0  0  0
  1  5  2  0  0  0  0
  2  6  2  0  0  0  0
  3  8  2  0  0  0  0
  3 17  1  0  0  0  0
  4  9  1  0  0  0  0
  4 17  2  0  0  0  0
  5 19  1  0  0  0  0
  6 21  1  0  0  0  0
  7 10  2  0  0  0  0
  7 20  1  0  0  0  0
  8 24  1  0  0  0  0
  9 24  2  0  0  0  0
 10 25  1  0  0  0  0
 11 12  2  0  0  0  0
 11 26  1  0  0  0  0
 12 27  1  0  0  0  0
 13 22  1  0  0  0  0
 13 25  2  0  0  0  0
 14 23  1  0  0  0  0
 14 30  2  0  0  0  0
 15 27  2  0  0  0  0
 15 28  1  0  0  0  0
 16 23  2  0  0  0  0
 16 82  1  0  0  0  0
 17 29  1  0  0  0  0
 18 29  1  0  0  0  0
 18 31  2  0  0  0  0
 18 32  1  0  0  0  0
 19 21  2  0  0  0  0
 19 39  1  0  0  0  0
 20 22  2  0  0  0  0
 20 40  1  0  0  0  0
 21 48  1  0  0  0  0
 22 41  1  0  0  0  0
 23 66  1  0  0  0  0
 24 78  1  0  0  0  0
 25 79  1  0  0  0  0
 26 28  2  0  0  0  0
 26 78  1  0  0  0  0
 27 80  1  0  0  0  0
 28 81  1  0  0  0  0
 29 60  2  0  0  0  0
 30 33  1  0  0  0  0
 30 82  1  0  0  0  0
 31 61  1  0  0  0  0
 31 64  1  0  0  0  0
 32 65  1  0  0  0  0
 32 71  2  0  0  0  0
 33 67  1  0  0  0  0
 33 72  2  0  0  0  0
 34 49  1  0  0  0  0
 34 68  1  0  0  0  0
 34 73  2  0  0  0  0
 35 57  1  0  0  0  0
 35 62  1  0  0  0  0
 35 74  2  0  0  0  0
 36 56  1  0  0  0  0
 36 66  1  0  0  0  0
 36 75  2  0  0  0  0
 37 58  1  0  0  0  0
 37 69  1  0  0  0  0
 37 76  2  0  0  0  0
 38 63  1  0  0  0  0
 38 67  1  0  0  0  0
 38 77  2  0  0  0  0
 39 42  1  0  0  0  0
 40 49  1  0  0  0  0
 41 62  1  0  0  0  0
 42 44  1  0  0  0  0
 43 45  1  0  0  0  0
 43 46  1  0  0  0  0
 44 48  1  0  0  0  0
 45 50  1  0  0  0  0
 46 63  1  0  0  0  0
 47 50  1  0  0  0  0
 47 63  1  0  0  0  0
 48 68  1  0  0  0  0
 49 62  1  0  0  0  0
 50 61  1  0  0  0  0
 51 58  1  0  0  0  0
 52 59  1  0  0  0  0
 53 59  1  0  0  0  0
 54 59  1  0  0  0  0
 55 70  1  0  0  0  0
 56 79  1  0  0  0  0
 57 59  1  0  0  0  0
 57 69  1  0  0  0  0
 58 70  1  0  0  0  0
 60 61  1  0  0  0  0
M  CHG  1  70   1
M  ISO  4  38 100  56 101  67 100  79 101
M  END
> <Batch ID>
0156

> <Smiles>
CNC(C)C(=O)NC(C(=O)N1Cc2cc([101O:1][101CH2:1]C(=O)Nc3csc(C(=O)[100NH:0][100C:0](=O)N4CCCC(n5nc(-c6ccc(Oc7ccc(F)cc7F)cc6)c(C(N)=O)c5N)C4)c3)ccc2CC1C(=O)NC1CCCc2ccccc21)C(C)(C)C

> <Shape>
0.190

> <Color>
0.073

> <Negative vol penalty>
0.000

$$$$

  -OEChem-04052303393D

 86 94  0     1  0  0  0  0  0999 V2000
  -19.1802  -32.0674   21.5172 C   0  0  0  0  0  0  0  0  0  0  0  0
  -20.3385  -31.3238   21.7192 C   0  0  0  0  0  0  0  0  0  0  0  0
  -23.1038   -9.8043   20.7267 C   0  0  0  0  0  0  0  0  0  0  0  0
  -23.7582  -10.4101   22.9720 C   0  0  0  0  0  0  0  0  0  0  0  0
  -17.9739  -31.6409   22.0711 C   0  0  0  0  0  0  0  0  0  0  0  0
  -20.2914  -30.1537   22.4763 C   0  0  0  0  0  0  0  0  0  0  0  0
  -23.5823  -25.0644   21.5965 C   0  0  0  0  0  0  0  0  0  0  0  0
  -22.3558   -8.7408   21.2316 C   0  0  0  0  0  0  0  0  0  0  0  0
  -23.0101   -9.3466   23.4770 C   0  0  0  0  0  0  0  0  0  0  0  0
  -24.7472  -24.5856   22.1943 C   0  0  0  0  0  0  0  0  0  0  0  0
  -22.9328   -5.6171   22.3866 C   0  0  0  0  0  0  0  0  0  0  0  0
  -23.0482   -4.3832   21.7467 C   0  0  0  0  0  0  0  0  0  0  0  0
  -31.6280  -19.2512   23.0428 C   0  0  0  0  0  0  0  0  0  0  0  0
  -31.9245  -17.1416   21.9032 C   0  0  0  0  0  0  0  0  0  0  0  0
  -23.4181  -23.2481   23.6989 C   0  0  0  0  0  0  0  0  0  0  0  0
  -29.7108  -18.0739   22.1623 C   0  0  0  0  0  0  0  0  0  0  0  0
  -20.6813   -4.4128   21.2628 C   0  0  0  0  0  0  0  0  0  0  0  0
  -23.8050  -10.6390   21.5969 C   0  0  0  0  0  0  0  0  0  0  0  0
  -32.4647  -18.2373   22.5766 C   0  0  0  0  0  0  0  0  0  0  0  0
  -24.1378  -13.0551   20.8490 C   0  0  0  0  0  0  0  0  0  0  0  0
  -17.9101  -30.4599   22.8273 C   0  0  0  0  0  0  0  0  0  0  0  0
  -22.3242  -24.6463   22.0532 C   0  0  0  0  0  0  0  0  0  0  0  0
  -19.0834  -29.7118   23.0420 C   0  0  0  0  0  0  0  0  0  0  0  0
  -22.2388  -23.7211   23.1034 C   0  0  0  0  0  0  0  0  0  0  0  0
  -30.2510  -19.1695   22.8356 C   0  0  0  0  0  0  0  0  0  0  0  0
  -30.5475  -17.0600   21.6960 C   0  0  0  0  0  0  0  0  0  0  0  0
  -22.3089   -8.5119   22.6067 C   0  0  0  0  0  0  0  0  0  0  0  0
  -24.6652  -23.6795   23.2476 C   0  0  0  0  0  0  0  0  0  0  0  0
  -21.6917   -6.2489   22.4648 C   0  0  0  0  0  0  0  0  0  0  0  0
  -21.9225   -3.7810   21.1847 C   0  0  0  0  0  0  0  0  0  0  0  0
  -20.5659   -5.6468   21.9028 C   0  0  0  0  0  0  0  0  0  0  0  0
  -24.5784  -11.7374   21.0759 C   0  0  0  0  0  0  0  0  0  0  0  0
  -25.2412  -13.7054   20.3529 C   0  0  0  0  0  0  0  0  0  0  0  0
  -26.3651  -22.0748   23.3255 C   0  0  0  0  0  0  0  0  0  1  0  0
  -33.8924  -18.3220   22.7910 C   0  0  0  0  0  0  0  0  0  0  0  0
  -22.8466  -13.6390   21.0673 C   0  0  0  0  0  0  0  0  0  0  0  0
  -27.4803  -21.5266   23.8229 C   0  0  0  0  0  0  0  0  0  0  0  0
  -28.0206  -20.2779   23.1927 C   0  0  0  0  0  0  0  0  0  0  0  0
  -19.8080  -26.1008   23.3404 C   0  0  0  0  0  0  0  0  0  0  0  0
  -18.4548  -23.1669   23.0519 C   0  0  0  0  0  0  0  0  0  0  0  0
  -18.8837  -19.7903   22.8036 C   0  0  0  0  0  0  0  0  0  0  0  0
  -30.6877  -14.8543   20.4870 C   0  0  0  0  0  0  0  0  0  0  0  0
  -16.5926  -30.0642   23.4457 C   0  0  0  0  0  0  0  0  0  0  0  0
  -21.0776  -25.1516   21.3800 C   0  0  0  0  0  0  0  0  0  0  0  0
  -20.9128  -23.2253   23.6176 C   0  0  0  0  0  0  0  0  0  0  0  0
  -16.5542  -28.6142   23.9215 C   0  0  0  0  0  0  0  0  0  0  0  0
  -29.6961  -11.8967   18.7705 C   0  0  0  0  0  0  0  0  0  0  0  0
  -17.8159  -28.2775   24.7100 C   0  0  0  0  0  0  0  0  0  0  0  0
  -28.2400  -11.7000   19.1986 C   0  0  0  0  0  0  0  0  0  0  0  0
  -30.5541  -12.4406   19.9114 C   0  0  0  0  0  0  0  0  0  0  0  0
  -28.5821  -13.4613   20.9784 C   0  0  0  0  0  0  0  0  0  0  0  0
  -19.0678  -28.4239   23.8366 C   0  0  1  0  0  0  0  0  0  0  0  0
  -19.8387  -25.0523   22.2646 C   0  0  1  0  0  0  0  0  0  0  0  0
  -27.6650  -12.9762   19.8439 C   0  0  2  0  0  0  0  0  0  0  0  0
  -17.5891  -17.6484   22.6195 C   0  0  0  0  0  0  0  0  0  0  0  0
  -17.7686  -23.3292   26.0205 C   0  0  0  0  0  0  0  0  0  0  0  0
  -17.3614  -20.8591   25.9901 C   0  0  0  0  0  0  0  0  0  0  0  0
  -15.9611  -22.3697   24.5829 C   0  0  0  0  0  0  0  0  0  0  0  0
  -20.0986  -19.1459   20.1830 C   0  0  0  0  0  0  0  0  0  0  0  0
  -18.3648  -21.9403   23.9273 C   0  0  1  0  0  0  0  0  0  0  0  0
  -18.2845  -18.7657   21.8572 C   0  0  2  0  0  0  0  0  0  0  0  0
  -17.3891  -22.1352   25.1220 C   0  0  0  0  0  0  0  0  0  0  0  0
  -25.8615  -11.5595   20.7504 N   0  0  0  0  0  0  0  0  0  0  0  0
  -26.2367  -12.7740   20.3139 N   0  0  0  0  0  0  0  0  0  0  0  0
  -19.7225  -23.7535   22.9309 N   0  0  0  0  0  0  0  0  0  0  0  0
  -29.9499  -13.6517   20.4709 N   0  0  0  0  0  0  0  0  0  0  0  0
  -25.4472  -14.9774   19.9504 N   0  0  0  0  0  0  0  0  0  0  0  0
  -34.4225  -19.3734   23.4381 N   0  0  0  0  0  0  0  0  0  0  0  0
  -21.8255  -12.8290   21.5826 N   0  0  0  0  0  0  0  0  0  0  0  0
  -29.4017  -20.1989   23.3085 N   0  0  0  0  0  0  0  0  0  0  0  0
  -29.9985  -15.9465   21.0129 N   0  0  0  0  0  0  0  0  0  0  0  0
  -19.2059  -27.2837   22.9560 N   0  0  0  0  0  0  0  0  0  0  0  0
  -18.0144  -20.8333   23.0441 N   0  0  0  0  0  0  0  0  0  0  0  0
  -34.7066  -17.3496   22.3475 N   0  3  0  0  0  0  0  0  0  0  0  0
  -19.3485  -18.1624   21.0058 N   0  3  0  0  0  0  0  0  0  0  0  0
  -22.6011  -14.8392   20.7975 O   0  0  0  0  0  0  0  0  0  0  0  0
  -27.2720  -19.4678   22.6570 O   0  0  0  0  0  0  0  0  0  0  0  0
  -20.2932  -25.8544   24.4383 O   0  0  0  0  0  0  0  0  0  0  0  0
  -17.4392  -23.5848   22.4902 O   0  0  0  0  0  0  0  0  0  0  0  0
  -20.0088  -19.6750   23.2845 O   0  0  0  0  0  0  0  0  0  0  0  0
  -31.8360  -14.9172   20.0404 O   0  0  0  0  0  0  0  0  0  0  0  0
  -28.1577  -22.0671   24.8969 O   0  0  0  0  0  0  0  0  0  0  0  0
  -21.5789   -7.4744   23.0998 O   0  0  0  0  0  0  0  0  0  0  0  0
  -25.8007  -23.2111   23.8334 O   0  0  0  0  0  0  0  0  0  1  0  0
  -22.0337   -2.5967   20.5688 F   0  0  0  0  0  0  0  0  0  0  0  0
  -19.3711   -6.2495   21.9737 F   0  0  0  0  0  0  0  0  0  0  0  0
  1  2  1  0  0  0  0
  1  5  2  0  0  0  0
  2  6  2  0  0  0  0
  3  8  2  0  0  0  0
  3 18  1  0  0  0  0
  4  9  1  0  0  0  0
  4 18  2  0  0  0  0
  5 21  1  0  0  0  0
  6 23  1  0  0  0  0
  7 10  2  0  0  0  0
  7 22  1  0  0  0  0
  8 27  1  0  0  0  0
  9 27  2  0  0  0  0
 10 28  1  0  0  0  0
 11 12  2  0  0  0  0
 11 29  1  0  0  0  0
 12 30  1  0  0  0  0
 13 19  1  0  0  0  0
 13 25  2  0  0  0  0
 14 19  2  0  0  0  0
 14 26  1  0  0  0  0
 15 24  1  0  0  0  0
 15 28  2  0  0  0  0
 16 25  1  0  0  0  0
 16 26  2  0  0  0  0
 17 30  2  0  0  0  0
 17 31  1  0  0  0  0
 18 32  1  0  0  0  0
 19 35  1  0  0  0  0
 20 32  1  0  0  0  0
 20 33  2  0  0  0  0
 20 36  1  0  0  0  0
 21 23  2  0  0  0  0
 21 43  1  0  0  0  0
 22 24  2  0  0  0  0
 22 44  1  0  0  0  0
 23 52  1  0  0  0  0
 24 45  1  0  0  0  0
 25 70  1  0  0  0  0
 26 71  1  0  0  0  0
 27 83  1  0  0  0  0
 28 84  1  0  0  0  0
 29 31  2  0  0  0  0
 29 83  1  0  0  0  0
 30 85  1  0  0  0  0
 31 86  1  0  0  0  0
 32 63  2  0  0  0  0
 33 64  1  0  0  0  0
 33 67  1  0  0  0  0
 34 37  2  0  0  0  0
 34 84  1  0  0  0  0
 35 68  1  0  0  0  0
 35 74  2  0  0  0  0
 36 69  1  0  0  0  0
 36 76  2  0  0  0  0
 37 38  1  0  0  0  0
 37 82  1  0  0  0  0
 38 70  1  0  0  0  0
 38 77  2  0  0  0  0
 39 53  1  0  0  0  0
 39 72  1  0  0  0  0
 39 78  2  0  0  0  0
 40 60  1  0  0  0  0
 40 65  1  0  0  0  0
 40 79  2  0  0  0  0
 41 61  1  0  0  0  0
 41 73  1  0  0  0  0
 41 80  2  0  0  0  0
 42 66  1  0  0  0  0
 42 71  1  0  0  0  0
 42 81  2  0  0  0  0
 43 46  1  0  0  0  0
 44 53  1  0  0  0  0
 45 65  1  0  0  0  0
 46 48  1  0  0  0  0
 47 49  1  0  0  0  0
 47 50  1  0  0  0  0
 48 52  1  0  0  0  0
 49 54  1  0  0  0  0
 50 66  1  0  0  0  0
 51 54  1  0  0  0  0
 51 66  1  0  0  0  0
 52 72  1  0  0  0  0
 53 65  1  0  0  0  0
 54 64  1  0  0  0  0
 55 61  1  0  0  0  0
 56 62  1  0  0  0  0
 57 62  1  0  0  0  0
 58 62  1  0  0  0  0
 59 75  1  0  0  0  0
 60 62  1  0  0  0  0
 60 73  1  0  0  0  0
 61 75  1  0  0  0  0
 63 64  1  0  0  0  0
M  CHG  2  74   1  75   1
M  ISO  4  34 101  42 100  71 100  84 101
M  END
> <Batch ID>
0156

> <Smiles>
CNC(C)C(=O)NC(C(=O)N1Cc2cc([101O:1][101CH2:1]C(=O)C(=O)Nc3cc([100NH:0][100C:0](=O)N4CCCC(n5nc(-c6ccc(Oc7ccc(F)cc7F)cc6)c(C(N)=O)c5N)C4)cc(C(=N)N)c3)ccc2CC1C(=O)NC1CCCc2ccccc21)C(C)(C)C

> <Shape>
0.219

> <Color>
0.164

> <Negative vol penalty>
0.000

$$$$

  -OEChem-04052303393D

 82 90  0     1  0  0  0  0  0999 V2000
  -24.5926  -34.3396   22.5351 C   0  0  0  0  0  0  0  0  0  0  0  0
  -25.5347  -33.7041   21.7325 C   0  0  0  0  0  0  0  0  0  0  0  0
  -23.0628   -9.8943   19.9191 C   0  0  0  0  0  0  0  0  0  0  0  0
  -23.8487   -9.8461   22.2032 C   0  0  0  0  0  0  0  0  0  0  0  0
  -23.6300  -33.5875   23.2071 C   0  0  0  0  0  0  0  0  0  0  0  0
  -25.5153  -32.3159   21.6023 C   0  0  0  0  0  0  0  0  0  0  0  0
  -26.9115  -27.1336   16.8578 C   0  0  0  0  0  0  0  0  0  0  0  0
  -22.3197   -8.7368   20.1504 C   0  0  0  0  0  0  0  0  0  0  0  0
  -23.1056   -8.6886   22.4345 C   0  0  0  0  0  0  0  0  0  0  0  0
  -27.6390  -25.9503   16.7382 C   0  0  0  0  0  0  0  0  0  0  0  0
  -19.8830   -7.8819   23.0549 C   0  0  0  0  0  0  0  0  0  0  0  0
  -19.1393   -7.8156   24.2330 C   0  0  0  0  0  0  0  0  0  0  0  0
  -25.8805  -24.7604   17.8832 C   0  0  0  0  0  0  0  0  0  0  0  0
  -31.5073  -18.5011   20.0965 C   0  0  0  0  0  0  0  0  0  0  0  0
  -20.3854   -5.8594   24.9095 C   0  0  0  0  0  0  0  0  0  0  0  0
  -23.8274  -10.4489   20.9455 C   0  0  0  0  0  0  0  0  0  0  0  0
  -24.1725  -12.9757   20.8810 C   0  0  0  0  0  0  0  0  0  0  0  0
  -23.5928  -32.1902   23.0774 C   0  0  0  0  0  0  0  0  0  0  0  0
  -25.6658  -27.1412   17.5018 C   0  0  0  0  0  0  0  0  0  0  0  0
  -24.5520  -31.5443   22.2743 C   0  0  0  0  0  0  0  0  0  0  0  0
  -25.1380  -25.9446   18.0074 C   0  0  0  0  0  0  0  0  0  0  0  0
  -30.9408  -19.5864   19.3675 C   0  0  0  0  0  0  0  0  0  0  0  0
  -22.3410   -8.1339   21.4080 C   0  0  0  0  0  0  0  0  0  0  0  0
  -27.1249  -24.7640   17.2534 C   0  0  0  0  0  0  0  0  0  0  0  0
  -20.8779   -6.9369   22.8039 C   0  0  0  0  0  0  0  0  0  0  0  0
  -19.3905   -6.8044   25.1604 C   0  0  0  0  0  0  0  0  0  0  0  0
  -21.1291   -5.9257   23.7313 C   0  0  0  0  0  0  0  0  0  0  0  0
  -24.5957  -11.6443   20.7071 C   0  0  0  0  0  0  0  0  0  0  0  0
  -30.6257  -17.9806   21.0181 C   0  0  0  0  0  0  0  0  0  0  0  0
  -25.2618  -13.7318   20.5230 C   0  0  0  0  0  0  0  0  0  0  0  0
  -29.6475  -19.8538   19.7597 C   0  0  0  0  0  0  0  0  0  0  0  0
  -22.9078  -13.4835   21.3264 C   0  0  0  0  0  0  0  0  0  0  0  0
  -24.4843  -28.5691   20.0842 C   0  0  0  0  0  0  0  0  0  0  0  0
  -21.7018  -27.2524   19.0614 C   0  0  0  0  0  0  0  0  0  0  0  0
  -28.9035  -21.7869   18.3301 C   0  0  0  0  0  0  0  0  0  0  0  0
  -20.1430  -24.8138   17.2531 C   0  0  0  0  0  0  0  0  0  0  0  0
  -30.7492  -14.7375   20.6728 C   0  0  0  0  0  0  0  0  0  0  0  0
  -22.5627  -31.4156   23.8607 C   0  0  0  0  0  0  0  0  0  0  0  0
  -24.8813  -28.4209   17.5990 C   0  0  0  0  0  0  0  0  0  0  0  0
  -23.7961  -25.8955   18.6896 C   0  0  0  0  0  0  0  0  0  0  0  0
  -22.3783  -29.9811   23.3725 C   0  0  0  0  0  0  0  0  0  0  0  0
  -29.5802  -12.4116   18.2437 C   0  0  0  0  0  0  0  0  0  0  0  0
  -23.7322  -29.3110   23.1609 C   0  0  0  0  0  0  0  0  0  0  0  0
  -28.1472  -12.1100   18.6860 C   0  0  0  0  0  0  0  0  0  0  0  0
  -30.5113  -12.6026   19.4389 C   0  0  0  0  0  0  0  0  0  0  0  0
  -28.6268  -13.3039   20.8639 C   0  0  0  0  0  0  0  0  0  0  0  0
  -24.5482  -30.0425   22.0882 C   0  0  1  0  0  0  0  0  0  0  0  0
  -23.8562  -28.4090   18.7287 C   0  0  1  0  0  0  0  0  0  0  0  0
  -27.6390  -13.1586   19.6937 C   0  0  2  0  0  0  0  0  0  0  0  0
  -17.8602  -23.9734   16.6366 C   0  0  0  0  0  0  0  0  0  0  0  0
  -21.4040  -26.0295   21.8409 C   0  0  0  0  0  0  0  0  0  0  0  0
  -19.6779  -24.4803   20.8982 C   0  0  0  0  0  0  0  0  0  0  0  0
  -19.2879  -26.9440   20.8713 C   0  0  0  0  0  0  0  0  0  0  0  0
  -20.6267  -25.2701   14.3693 C   0  0  0  0  0  0  0  0  0  0  0  0
  -30.8331  -16.8582   21.9590 C   0  0  0  0  0  0  0  0  0  0  0  0
  -27.6541  -22.6318   18.1641 C   0  0  0  0  0  0  0  0  0  1  0  0
  -20.9904  -25.9414   19.2939 C   0  0  1  0  0  0  0  0  0  0  0  0
  -19.0163  -24.8772   16.2377 C   0  0  2  0  0  0  0  0  0  0  0  0
  -20.3662  -25.8498   20.7150 C   0  0  0  0  0  0  0  0  0  0  0  0
  -25.8555  -11.5564   20.2723 N   0  0  0  0  0  0  0  0  0  0  0  0
  -26.2333  -12.8420   20.1699 N   0  0  0  0  0  0  0  0  0  0  0  0
  -23.0701  -27.1741   18.7656 N   0  0  0  0  0  0  0  0  0  0  0  0
  -29.9727  -13.6109   20.3551 N   0  0  0  0  0  0  0  0  0  0  0  0
  -31.6028  -20.2700   18.4040 N   0  0  0  0  0  0  0  0  0  0  0  0
  -25.4738  -15.0643   20.4789 N   0  0  0  0  0  0  0  0  0  0  0  0
  -21.8981  -12.5682   21.6537 N   0  0  0  0  0  0  0  0  0  0  0  0
  -28.7182  -20.8250   19.3172 N   0  0  0  0  0  0  0  0  0  0  0  0
  -24.0702  -29.6970   20.7666 N   0  0  0  0  0  0  0  0  0  0  0  0
  -20.0264  -25.8019   18.2078 N   0  0  0  0  0  0  0  0  0  0  0  0
  -30.1614  -15.6472   21.5432 N   0  0  0  0  0  0  0  0  0  0  0  0
  -19.5042  -24.4515   14.8954 N   0  3  0  0  0  0  0  0  0  0  0  0
  -22.6745  -14.7128   21.4154 O   0  0  0  0  0  0  0  0  0  0  0  0
  -25.2844  -27.7305   20.4823 O   0  0  0  0  0  0  0  0  0  0  0  0
  -21.0654  -28.3067   19.1323 O   0  0  0  0  0  0  0  0  0  0  0  0
  -29.9061  -21.9823   17.6509 O   0  0  0  0  0  0  0  0  0  0  0  0
  -21.0350  -23.9696   17.2065 O   0  0  0  0  0  0  0  0  0  0  0  0
  -31.8803  -14.9218   20.2105 O   0  0  0  0  0  0  0  0  0  0  0  0
  -21.6158   -7.0045   21.6341 O   0  0  0  0  0  0  0  0  0  0  0  0
  -27.8332  -23.6078   17.1386 O   0  0  0  0  0  0  0  0  0  1  0  0
  -18.6774   -6.7418   26.2925 F   0  0  0  0  0  0  0  0  0  0  0  0
  -22.0843   -5.0157   23.4963 F   0  0  0  0  0  0  0  0  0  0  0  0
  -29.1217  -18.7992   21.0020 S   0  0  0  0  0  0  0  0  0  0  0  0
  1  2  1  0  0  0  0
  1  5  2  0  0  0  0
  2  6  2  0  0  0  0
  3  8  2  0  0  0  0
  3 16  1  0  0  0  0
  4  9  1  0  0  0  0
  4 16  2  0  0  0  0
  5 18  1  0  0  0  0
  6 20  1  0  0  0  0
  7 10  2  0  0  0  0
  7 19  1  0  0  0  0
  8 23  1  0  0  0  0
  9 23  2  0  0  0  0
 10 24  1  0  0  0  0
 11 12  2  0  0  0  0
 11 25  1  0  0  0  0
 12 26  1  0  0  0  0
 13 21  1  0  0  0  0
 13 24  2  0  0  0  0
 14 22  1  0  0  0  0
 14 29  2  0  0  0  0
 15 26  2  0  0  0  0
 15 27  1  0  0  0  0
 16 28  1  0  0  0  0
 17 28  1  0  0  0  0
 17 30  2  0  0  0  0
 17 32  1  0  0  0  0
 18 20  2  0  0  0  0
 18 38  1  0  0  0  0
 19 21  2  0  0  0  0
 19 39  1  0  0  0  0
 20 47  1  0  0  0  0
 21 40  1  0  0  0  0
 22 31  2  0  0  0  0
 22 64  1  0  0  0  0
 23 78  1  0  0  0  0
 24 79  1  0  0  0  0
 25 27  2  0  0  0  0
 25 78  1  0  0  0  0
 26 80  1  0  0  0  0
 27 81  1  0  0  0  0
 28 60  2  0  0  0  0
 29 55  1  0  0  0  0
 29 82  1  0  0  0  0
 30 61  1  0  0  0  0
 30 65  1  0  0  0  0
 31 67  1  0  0  0  0
 31 82  1  0  0  0  0
 32 66  1  0  0  0  0
 32 72  2  0  0  0  0
 33 48  1  0  0  0  0
 33 68  1  0  0  0  0
 33 73  2  0  0  0  0
 34 57  1  0  0  0  0
 34 62  1  0  0  0  0
 34 74  2  0  0  0  0
 35 56  1  0  0  0  0
 35 67  1  0  0  0  0
 35 75  2  0  0  0  0
 36 58  1  0  0  0  0
 36 69  1  0  0  0  0
 36 76  2  0  0  0  0
 37 63  1  0  0  0  0
 37 70  1  0  0  0  0
 37 77  2  0  0  0  0
 38 41  1  0  0  0  0
 39 48  1  0  0  0  0
 40 62  1  0  0  0  0
 41 43  1  0  0  0  0
 42 44  1  0  0  0  0
 42 45  1  0  0  0  0
 43 47  1  0  0  0  0
 44 49  1  0  0  0  0
 45 63  1  0  0  0  0
 46 49  1  0  0  0  0
 46 63  1  0  0  0  0
 47 68  1  0  0  0  0
 48 62  1  0  0  0  0
 49 61  1  0  0  0  0
 50 58  1  0  0  0  0
 51 59  1  0  0  0  0
 52 59  1  0  0  0  0
 53 59  1  0  0  0  0
 54 71  1  0  0  0  0
 55 70  1  0  0  0  0
 56 79  1  0  0  0  0
 57 59  1  0  0  0  0
 57 69  1  0  0  0  0
 58 71  1  0  0  0  0
 60 61  1  0  0  0  0
M  CHG  1  71   1
M  ISO  4  37 100  56 101  70 100  79 101
M  END
> <Batch ID>
0156

> <Smiles>
CNC(C)C(=O)NC(C(=O)N1Cc2cc([101O:1][101CH2:1]C(=O)Nc3sc(C[100NH:0][100C:0](=O)N4CCCC(n5nc(-c6ccc(Oc7ccc(F)cc7F)cc6)c(C(N)=O)c5N)C4)cc3N)ccc2CC1C(=O)NC1CCCc2ccccc21)C(C)(C)C

> <Shape>
0.304

> <Color>
0.184

> <Negative vol penalty>
0.000

$$$$

  -OEChem-04052303393D

 87 96  0     1  0  0  0  0  0999 V2000
  -31.3745  -15.4669   41.6050 C   0  0  0  0  0  0  0  0  0  0  0  0
  -30.7943  -16.0209   40.4684 C   0  0  0  0  0  0  0  0  0  0  0  0
  -32.6525  -17.4896   23.4572 C   0  0  0  0  0  0  0  0  0  0  0  0
  -23.0752   -9.8686   19.9401 C   0  0  0  0  0  0  0  0  0  0  0  0
  -23.8347   -9.8745   22.2336 C   0  0  0  0  0  0  0  0  0  0  0  0
  -32.6970  -15.0269   41.5673 C   0  0  0  0  0  0  0  0  0  0  0  0
  -31.5367  -16.1362   39.2937 C   0  0  0  0  0  0  0  0  0  0  0  0
  -29.4612  -15.5862   33.5582 C   0  0  0  0  0  0  0  0  0  0  0  0
  -31.8546  -18.3565   24.2038 C   0  0  0  0  0  0  0  0  0  0  0  0
  -32.0646  -16.6055   22.5525 C   0  0  0  0  0  0  0  0  0  0  0  0
  -22.3308   -8.7157   20.1895 C   0  0  0  0  0  0  0  0  0  0  0  0
  -23.0902   -8.7216   22.4831 C   0  0  0  0  0  0  0  0  0  0  0  0
  -29.0899  -16.5291   32.6006 C   0  0  0  0  0  0  0  0  0  0  0  0
  -19.8617   -7.9248   23.0848 C   0  0  0  0  0  0  0  0  0  0  0  0
  -19.1045   -7.8848   24.2555 C   0  0  0  0  0  0  0  0  0  0  0  0
  -31.2914  -16.3947   31.6234 C   0  0  0  0  0  0  0  0  0  0  0  0
  -29.8809  -17.4552   23.1411 C   0  0  0  0  0  0  0  0  0  0  0  0
  -20.3450   -5.9466   24.9915 C   0  0  0  0  0  0  0  0  0  0  0  0
  -23.8272  -10.4480   20.9621 C   0  0  0  0  0  0  0  0  0  0  0  0
  -24.1700  -12.9731   20.8431 C   0  0  0  0  0  0  0  0  0  0  0  0
  -33.4529  -15.1279   40.3888 C   0  0  0  0  0  0  0  0  0  0  0  0
  -30.7560  -15.0477   33.5622 C   0  0  0  0  0  0  0  0  0  0  0  0
  -32.8709  -15.6983   39.2406 C   0  0  0  0  0  0  0  0  0  0  0  0
  -31.6758  -15.4433   32.5806 C   0  0  0  0  0  0  0  0  0  0  0  0
  -30.4688  -18.3393   24.0458 C   0  0  0  0  0  0  0  0  0  0  0  0
  -30.6788  -16.5883   22.3945 C   0  0  0  0  0  0  0  0  0  0  0  0
  -22.3383   -8.1422   21.4610 C   0  0  0  0  0  0  0  0  0  0  0  0
  -30.0059  -16.9356   31.6348 C   0  0  0  0  0  0  0  0  0  0  0  0
  -20.8605   -6.9757   22.8673 C   0  0  0  0  0  0  0  0  0  0  0  0
  -19.3462   -6.8957   25.2089 C   0  0  0  0  0  0  0  0  0  0  0  0
  -21.1022   -5.9866   23.8207 C   0  0  0  0  0  0  0  0  0  0  0  0
  -24.5968  -11.6387   20.7050 C   0  0  0  0  0  0  0  0  0  0  0  0
  -25.2625  -13.7222   20.4802 C   0  0  0  0  0  0  0  0  0  0  0  0
  -22.8997  -13.4893   21.2619 C   0  0  0  0  0  0  0  0  0  0  0  0
  -33.1828  -15.0571   35.6150 C   0  0  0  0  0  0  0  0  0  0  0  0
  -34.5047  -13.0243   33.4603 C   0  0  0  0  0  0  0  0  0  0  0  0
  -34.6305  -11.8932   30.2429 C   0  0  0  0  0  0  0  0  0  0  0  0
  -30.7291  -14.7656   20.6562 C   0  0  0  0  0  0  0  0  0  0  0  0
  -34.8935  -14.6820   40.4099 C   0  0  0  0  0  0  0  0  0  0  0  0
  -31.1325  -14.0118   34.5857 C   0  0  0  0  0  0  0  0  0  0  0  0
  -33.0718  -14.8804   32.5291 C   0  0  0  0  0  0  0  0  0  0  0  0
  -35.4940  -14.4962   39.0188 C   0  0  0  0  0  0  0  0  0  0  0  0
  -29.6141  -12.3530   18.2869 C   0  0  0  0  0  0  0  0  0  0  0  0
  -35.1524  -15.6854   38.1267 C   0  0  0  0  0  0  0  0  0  0  0  0
  -28.1743  -12.0619   18.7161 C   0  0  0  0  0  0  0  0  0  0  0  0
  -28.4914  -17.2340   27.8867 C   0  0  0  0  0  0  0  0  0  0  0  0
  -29.1089  -19.5646   28.6309 C   0  0  0  0  0  0  0  0  0  0  0  0
  -30.5291  -12.5811   19.4888 C   0  0  0  0  0  0  0  0  0  0  0  0
  -28.6222  -13.3058   20.8700 C   0  0  0  0  0  0  0  0  0  0  0  0
  -28.5008  -17.7033   26.4360 C   0  0  0  0  0  0  0  0  0  0  0  0
  -29.1172  -20.0188   27.1750 C   0  0  0  0  0  0  0  0  0  0  0  0
  -33.6360  -15.8176   37.9403 C   0  0  1  0  0  0  0  0  0  0  0  0
  -32.6384  -13.9120   34.8088 C   0  0  1  0  0  0  0  0  0  0  0  0
  -27.6495  -13.1334   19.6919 C   0  0  2  0  0  0  0  0  0  0  0  0
  -28.1724  -18.3720   28.8668 C   0  0  0  0  0  0  0  0  0  0  0  0
  -35.8370  -10.2516   28.7777 C   0  0  0  0  0  0  0  0  0  0  0  0
  -36.9340  -14.8694   33.3975 C   0  0  0  0  0  0  0  0  0  0  0  0
  -37.6523  -13.7370   31.2833 C   0  0  0  0  0  0  0  0  0  0  0  0
  -37.4779  -12.4284   33.3999 C   0  0  0  0  0  0  0  0  0  0  0  0
  -32.1305  -10.4385   29.6161 C   0  0  0  0  0  0  0  0  0  0  0  0
  -25.9028  -17.7621   28.8495 C   0  0  0  0  0  0  0  0  0  0  0  0
  -29.6111  -19.2720   24.8491 C   0  0  0  0  0  0  0  0  0  0  0  0
  -28.2727  -17.8882   30.3141 C   0  0  0  0  0  0  0  0  0  1  0  0
  -35.3665  -13.1818   32.2309 C   0  0  1  0  0  0  0  0  0  0  0  0
  -34.6272  -10.4881   29.6683 C   0  0  2  0  0  0  0  0  0  0  0  0
  -36.8321  -13.5664   32.5798 C   0  0  0  0  0  0  0  0  0  0  0  0
  -25.8616  -11.5425   20.2868 N   0  0  0  0  0  0  0  0  0  0  0  0
  -26.2391  -12.8260   20.1590 N   0  0  0  0  0  0  0  0  0  0  0  0
  -33.3943  -13.8750   33.5552 N   0  0  0  0  0  0  0  0  0  0  0  0
  -29.9704  -13.6118   20.3664 N   0  0  0  0  0  0  0  0  0  0  0  0
  -25.4735  -15.0537   20.4077 N   0  0  0  0  0  0  0  0  0  0  0  0
  -21.8873  -12.5804   21.5987 N   0  0  0  0  0  0  0  0  0  0  0  0
  -30.0820  -15.6906   21.4748 N   0  0  0  0  0  0  0  0  0  0  0  0
  -33.1581  -14.8457   36.9804 N   0  0  0  0  0  0  0  0  0  0  0  0
  -35.2378  -11.9376   31.4800 N   0  0  0  0  0  0  0  0  0  0  0  0
  -29.4685  -18.8513   26.2861 N   0  3  0  0  0  0  0  0  0  0  0  0
  -33.3964  -10.2624   28.8589 N   0  3  0  0  0  0  0  0  0  0  0  0
  -22.6639  -14.7199   21.3197 O   0  0  0  0  0  0  0  0  0  0  0  0
  -33.5962  -16.0576   35.0408 O   0  0  0  0  0  0  0  0  0  0  0  0
  -34.8017  -12.1727   34.3019 O   0  0  0  0  0  0  0  0  0  0  0  0
  -34.1463  -12.8557   29.6517 O   0  0  0  0  0  0  0  0  0  0  0  0
  -31.8584  -14.9340   20.1889 O   0  0  0  0  0  0  0  0  0  0  0  0
  -21.6119   -7.0173   21.7048 O   0  0  0  0  0  0  0  0  0  0  0  0
  -29.6463  -17.8562   30.6993 O   0  0  0  0  0  0  0  0  0  1  0  0
  -26.8301  -18.8151   28.6459 O   0  0  0  0  0  0  0  0  0  0  0  0
  -18.6200   -6.8583   26.3339 F   0  0  0  0  0  0  0  0  0  0  0  0
  -22.0611   -5.0728   23.6179 F   0  0  0  0  0  0  0  0  0  0  0  0
  1  2  1  0  0  0  0
  1  6  2  0  0  0  0
  2  7  2  0  0  0  0
  3  9  2  0  0  0  0
  3 10  1  0  0  0  0
  4 11  2  0  0  0  0
  4 19  1  0  0  0  0
  5 12  1  0  0  0  0
  5 19  2  0  0  0  0
  6 21  1  0  0  0  0
  7 23  1  0  0  0  0
  8 13  2  0  0  0  0
  8 22  1  0  0  0  0
  9 25  1  0  0  0  0
 10 26  2  0  0  0  0
 11 27  1  0  0  0  0
 12 27  2  0  0  0  0
 13 28  1  0  0  0  0
 14 15  2  0  0  0  0
 14 29  1  0  0  0  0
 15 30  1  0  0  0  0
 16 24  1  0  0  0  0
 16 28  2  0  0  0  0
 17 25  2  0  0  0  0
 17 26  1  0  0  0  0
 18 30  2  0  0  0  0
 18 31  1  0  0  0  0
 19 32  1  0  0  0  0
 20 32  1  0  0  0  0
 20 33  2  0  0  0  0
 20 34  1  0  0  0  0
 21 23  2  0  0  0  0
 21 39  1  0  0  0  0
 22 24  2  0  0  0  0
 22 40  1  0  0  0  0
 23 52  1  0  0  0  0
 24 41  1  0  0  0  0
 25 62  1  0  0  0  0
 26 73  1  0  0  0  0
 27 83  1  0  0  0  0
 28 84  1  0  0  0  0
 29 31  2  0  0  0  0
 29 83  1  0  0  0  0
 30 86  1  0  0  0  0
 31 87  1  0  0  0  0
 32 67  2  0  0  0  0
 33 68  1  0  0  0  0
 33 71  1  0  0  0  0
 34 72  1  0  0  0  0
 34 78  2  0  0  0  0
 35 53  1  0  0  0  0
 35 74  1  0  0  0  0
 35 79  2  0  0  0  0
 36 64  1  0  0  0  0
 36 69  1  0  0  0  0
 36 80  2  0  0  0  0
 37 65  1  0  0  0  0
 37 75  1  0  0  0  0
 37 81  2  0  0  0  0
 38 70  1  0  0  0  0
 38 73  1  0  0  0  0
 38 82  2  0  0  0  0
 39 42  1  0  0  0  0
 40 53  1  0  0  0  0
 41 69  1  0  0  0  0
 42 44  1  0  0  0  0
 43 45  1  0  0  0  0
 43 48  1  0  0  0  0
 44 52  1  0  0  0  0
 45 54  1  0  0  0  0
 46 50  1  0  0  0  0
 46 55  1  0  0  0  0
 47 51  1  0  0  0  0
 47 55  1  0  0  0  0
 48 70  1  0  0  0  0
 49 54  1  0  0  0  0
 49 70  1  0  0  0  0
 50 76  1  0  0  0  0
 51 76  1  0  0  0  0
 52 74  1  0  0  0  0
 53 69  1  0  0  0  0
 54 68  1  0  0  0  0
 55 63  1  0  0  0  0
 55 85  1  0  0  0  0
 56 65  1  0  0  0  0
 57 66  1  0  0  0  0
 58 66  1  0  0  0  0
 59 66  1  0  0  0  0
 60 77  1  0  0  0  0
 61 85  1  0  0  0  0
 62 76  1  0  0  0  0
 63 84  1  0  0  0  0
 64 66  1  0  0  0  0
 64 75  1  0  0  0  0
 65 77  1  0  0  0  0
 67 68  1  0  0  0  0
M  CHG  2  76   1  77   1
M  ISO  4  38 100  63 101  73 100  84 101
M  END
> <Batch ID>
0156

> <Smiles>
CNC(C)C(=O)NC(C(=O)N1Cc2cc([101O:1][101CH2:1]C3(OC)CCN(Cc4cccc([100NH:0][100C:0](=O)N5CCCC(n6nc(-c7ccc(Oc8ccc(F)cc8F)cc7)c(C(N)=O)c6N)C5)c4)CC3)ccc2CC1C(=O)NC1CCCc2ccccc21)C(C)(C)C

> <Shape>
0.163

> <Color>
0.184

> <Negative vol penalty>
0.000

$$$$

  -OEChem-04052303393D

 84 92  0     1  0  0  0  0  0999 V2000
  -28.9834  -32.2067   27.9282 C   0  0  0  0  0  0  0  0  0  0  0  0
  -28.6087  -31.2522   26.9881 C   0  0  0  0  0  0  0  0  0  0  0  0
  -24.6975   -8.9153   21.4294 C   0  0  0  0  0  0  0  0  0  0  0  0
  -23.2201  -10.8188   21.6060 C   0  0  0  0  0  0  0  0  0  0  0  0
  -28.1276  -33.2674   28.2222 C   0  0  0  0  0  0  0  0  0  0  0  0
  -27.3773  -31.3572   26.3422 C   0  0  0  0  0  0  0  0  0  0  0  0
  -27.7194  -30.5195   21.3596 C   0  0  0  0  0  0  0  0  0  0  0  0
  -23.9779   -8.2639   22.4311 C   0  0  0  0  0  0  0  0  0  0  0  0
  -22.5005  -10.1673   22.6077 C   0  0  0  0  0  0  0  0  0  0  0  0
  -27.8170  -29.1929   20.9422 C   0  0  0  0  0  0  0  0  0  0  0  0
  -21.0736   -6.5535   22.7009 C   0  0  0  0  0  0  0  0  0  0  0  0
  -20.7474   -5.2127   22.4972 C   0  0  0  0  0  0  0  0  0  0  0  0
  -28.1254  -19.2849   20.2291 C   0  0  0  0  0  0  0  0  0  0  0  0
  -25.4651  -29.1948   20.4059 C   0  0  0  0  0  0  0  0  0  0  0  0
  -21.9828   -4.6103   24.4842 C   0  0  0  0  0  0  0  0  0  0  0  0
  -24.3186  -10.1929   21.0169 C   0  0  0  0  0  0  0  0  0  0  0  0
  -27.3595  -20.4856   20.2707 C   0  0  0  0  0  0  0  0  0  0  0  0
  -24.8277  -10.8137   18.5955 C   0  0  0  0  0  0  0  0  0  0  0  0
  -26.8893  -33.3908   27.5725 C   0  0  0  0  0  0  0  0  0  0  0  0
  -26.4895  -31.1915   21.3134 C   0  0  0  0  0  0  0  0  0  0  0  0
  -26.5036  -32.4198   26.6288 C   0  0  0  0  0  0  0  0  0  0  0  0
  -25.3550  -30.5308   20.8209 C   0  0  0  0  0  0  0  0  0  0  0  0
  -22.8793   -8.8898   23.0202 C   0  0  0  0  0  0  0  0  0  0  0  0
  -26.6892  -28.5294   20.4680 C   0  0  0  0  0  0  0  0  0  0  0  0
  -21.8544   -6.9227   23.7962 C   0  0  0  0  0  0  0  0  0  0  0  0
  -21.2020   -4.2411   23.3889 C   0  0  0  0  0  0  0  0  0  0  0  0
  -22.3090   -5.9511   24.6879 C   0  0  0  0  0  0  0  0  0  0  0  0
  -25.0619  -10.8666   19.9826 C   0  0  0  0  0  0  0  0  0  0  0  0
  -25.7988  -11.6189   18.0523 C   0  0  0  0  0  0  0  0  0  0  0  0
  -27.3295  -18.1615   20.2758 C   0  0  0  0  0  0  0  0  0  0  0  0
  -26.0071  -20.2342   20.3473 C   0  0  0  0  0  0  0  0  0  0  0  0
  -27.9629  -21.8329   20.2347 C   0  0  0  0  0  0  0  0  0  0  0  0
  -23.8221  -10.1006   17.8635 C   0  0  0  0  0  0  0  0  0  0  0  0
  -24.5793  -32.5249   23.4761 C   0  0  0  0  0  0  0  0  0  0  0  0
  -27.3343  -24.9685   20.7167 C   0  0  0  0  0  0  0  0  0  0  0  0
  -22.9292  -33.4876   20.8546 C   0  0  0  0  0  0  0  0  0  0  0  0
  -22.1590  -32.9814   17.5686 C   0  0  0  0  0  0  0  0  0  0  0  0
  -28.9436  -16.2295   20.1873 C   0  0  0  0  0  0  0  0  0  0  0  0
  -25.9775  -34.5287   27.9580 C   0  0  0  0  0  0  0  0  0  0  0  0
  -26.4065  -32.6309   21.7423 C   0  0  0  0  0  0  0  0  0  0  0  0
  -24.0156  -31.2138   20.7321 C   0  0  0  0  0  0  0  0  0  0  0  0
  -24.8521  -34.7736   26.9561 C   0  0  0  0  0  0  0  0  0  0  0  0
  -30.2483  -13.1906   18.8682 C   0  0  0  0  0  0  0  0  0  0  0  0
  -24.1870  -33.4569   26.5680 C   0  0  0  0  0  0  0  0  0  0  0  0
  -29.0436  -12.2467   18.8724 C   0  0  0  0  0  0  0  0  0  0  0  0
  -30.2475  -14.1166   20.0832 C   0  0  0  0  0  0  0  0  0  0  0  0
  -27.8000  -13.9280   20.2915 C   0  0  0  0  0  0  0  0  0  0  0  0
  -25.1867  -32.5129   25.8890 C   0  0  1  0  0  0  0  0  0  0  0  0
  -24.9950  -33.0572   22.1339 C   0  0  1  0  0  0  0  0  0  0  0  0
  -27.7226  -13.0199   19.0533 C   0  0  2  0  0  0  0  0  0  0  0  0
  -20.7518  -33.9094   15.7096 C   0  0  0  0  0  0  0  0  0  0  0  0
  -20.4474  -32.2331   22.1102 C   0  0  0  0  0  0  0  0  0  0  0  0
  -19.3439  -32.3380   19.8654 C   0  0  0  0  0  0  0  0  0  0  0  0
  -20.0540  -34.4411   21.0036 C   0  0  0  0  0  0  0  0  0  0  0  0
  -24.5356  -33.5619   15.9033 C   0  0  0  0  0  0  0  0  0  0  0  0
  -28.3024  -24.0071   21.3549 C   0  0  0  0  0  0  0  0  0  0  0  0
  -27.7657  -26.4214   20.6985 C   0  0  0  0  0  0  0  0  0  1  0  0
  -21.8098  -32.9084   20.0237 C   0  0  1  0  0  0  0  0  0  0  0  0
  -22.1133  -33.9328   16.3866 C   0  0  2  0  0  0  0  0  0  0  0  0
  -20.4384  -32.9664   20.7541 C   0  0  0  0  0  0  0  0  0  0  0  0
  -26.1006  -11.6438   20.3009 N   0  0  0  0  0  0  0  0  0  0  0  0
  -26.5276  -12.0866   19.1061 N   0  0  0  0  0  0  0  0  0  0  0  0
  -23.9841  -32.6193   21.1692 N   0  0  0  0  0  0  0  0  0  0  0  0
  -28.9665  -14.8187   20.1880 N   0  0  0  0  0  0  0  0  0  0  0  0
  -26.0920  -11.9653   16.7809 N   0  0  0  0  0  0  0  0  0  0  0  0
  -25.0081  -21.1518   20.4023 N   0  0  0  0  0  0  0  0  0  0  0  0
  -22.9030   -9.3200   18.5778 N   0  0  0  0  0  0  0  0  0  0  0  0
  -27.6668  -16.7854   20.2587 N   0  0  0  0  0  0  0  0  0  0  0  0
  -27.7483  -22.6665   21.2681 N   0  0  0  0  0  0  0  0  0  0  0  0
  -25.4047  -32.9113   24.5148 N   0  0  0  0  0  0  0  0  0  0  0  0
  -21.8383  -33.6177   18.7491 N   0  0  0  0  0  0  0  0  0  0  0  0
  -28.6956  -22.1650   19.1717 N   0  3  0  0  0  0  0  0  0  0  0  0
  -23.1455  -33.5574   15.3793 N   0  3  0  0  0  0  0  0  0  0  0  0
  -23.7511  -10.1409   16.6117 O   0  0  0  0  0  0  0  0  0  0  0  0
  -23.5826  -31.8172   23.5632 O   0  0  0  0  0  0  0  0  0  0  0  0
  -26.2602  -24.6057   20.2389 O   0  0  0  0  0  0  0  0  0  0  0  0
  -22.8733  -34.6689   21.2053 O   0  0  0  0  0  0  0  0  0  0  0  0
  -22.4464  -31.7918   17.4555 O   0  0  0  0  0  0  0  0  0  0  0  0
  -29.9786  -16.8952   20.1002 O   0  0  0  0  0  0  0  0  0  0  0  0
  -22.1768   -8.2543   23.9975 O   0  0  0  0  0  0  0  0  0  0  0  0
  -26.7816  -27.2343   20.0606 O   0  0  0  0  0  0  0  0  0  1  0  0
  -20.8874   -2.9538   23.1940 F   0  0  0  0  0  0  0  0  0  0  0  0
  -23.0584   -6.2999   25.7426 F   0  0  0  0  0  0  0  0  0  0  0  0
  -25.6658  -18.5563   20.3692 S   0  0  0  0  0  0  0  0  0  0  0  0
  1  2  1  0  0  0  0
  1  5  2  0  0  0  0
  2  6  2  0  0  0  0
  3  8  2  0  0  0  0
  3 16  1  0  0  0  0
  4  9  1  0  0  0  0
  4 16  2  0  0  0  0
  5 19  1  0  0  0  0
  6 21  1  0  0  0  0
  7 10  2  0  0  0  0
  7 20  1  0  0  0  0
  8 23  1  0  0  0  0
  9 23  2  0  0  0  0
 10 24  1  0  0  0  0
 11 12  2  0  0  0  0
 11 25  1  0  0  0  0
 12 26  1  0  0  0  0
 13 17  1  0  0  0  0
 13 30  2  0  0  0  0
 14 22  1  0  0  0  0
 14 24  2  0  0  0  0
 15 26  2  0  0  0  0
 15 27  1  0  0  0  0
 16 28  1  0  0  0  0
 17 31  2  0  0  0  0
 17 32  1  0  0  0  0
 18 28  1  0  0  0  0
 18 29  2  0  0  0  0
 18 33  1  0  0  0  0
 19 21  2  0  0  0  0
 19 39  1  0  0  0  0
 20 22  2  0  0  0  0
 20 40  1  0  0  0  0
 21 48  1  0  0  0  0
 22 41  1  0  0  0  0
 23 80  1  0  0  0  0
 24 81  1  0  0  0  0
 25 27  2  0  0  0  0
 25 80  1  0  0  0  0
 26 82  1  0  0  0  0
 27 83  1  0  0  0  0
 28 61  2  0  0  0  0
 29 62  1  0  0  0  0
 29 65  1  0  0  0  0
 30 68  1  0  0  0  0
 30 84  1  0  0  0  0
 31 66  1  0  0  0  0
 31 84  1  0  0  0  0
 32 69  1  0  0  0  0
 32 72  2  0  0  0  0
 33 67  1  0  0  0  0
 33 74  2  0  0  0  0
 34 49  1  0  0  0  0
 34 70  1  0  0  0  0
 34 75  2  0  0  0  0
 35 56  1  0  0  0  0
 35 57  1  0  0  0  0
 35 76  2  0  0  0  0
 36 58  1  0  0  0  0
 36 63  1  0  0  0  0
 36 77  2  0  0  0  0
 37 59  1  0  0  0  0
 37 71  1  0  0  0  0
 37 78  2  0  0  0  0
 38 64  1  0  0  0  0
 38 68  1  0  0  0  0
 38 79  2  0  0  0  0
 39 42  1  0  0  0  0
 40 49  1  0  0  0  0
 41 63  1  0  0  0  0
 42 44  1  0  0  0  0
 43 45  1  0  0  0  0
 43 46  1  0  0  0  0
 44 48  1  0  0  0  0
 45 50  1  0  0  0  0
 46 64  1  0  0  0  0
 47 50  1  0  0  0  0
 47 64  1  0  0  0  0
 48 70  1  0  0  0  0
 49 63  1  0  0  0  0
 50 62  1  0  0  0  0
 51 59  1  0  0  0  0
 52 60  1  0  0  0  0
 53 60  1  0  0  0  0
 54 60  1  0  0  0  0
 55 73  1  0  0  0  0
 56 69  1  0  0  0  0
 57 81  1  0  0  0  0
 58 60  1  0  0  0  0
 58 71  1  0  0  0  0
 59 73  1  0  0  0  0
 61 62  1  0  0  0  0
M  CHG  2  72   1  73   1
M  ISO  4  38 100  57 101  68 100  81 101
M  END
> <Batch ID>
0156

> <Smiles>
CNC(C)C(=O)NC(C(=O)N1Cc2cc([101O:1][101CH2:1]C(=O)CNC(=N)c3cc([100NH:0][100C:0](=O)N4CCCC(n5nc(-c6ccc(Oc7ccc(F)cc7F)cc6)c(C(N)=O)c5N)C4)sc3N)ccc2CC1C(=O)NC1CCCc2ccccc21)C(C)(C)C

> <Shape>
0.260

> <Color>
0.081

> <Negative vol penalty>
0.000

$$$$

  -OEChem-04052303393D

 84 93  0     1  0  0  0  0  0999 V2000
  -26.5354  -34.9349   20.3233 C   0  0  0  0  0  0  0  0  0  0  0  0
  -26.7018  -33.7823   19.5622 C   0  0  0  0  0  0  0  0  0  0  0  0
  -22.9880   -9.9076   19.9866 C   0  0  0  0  0  0  0  0  0  0  0  0
  -23.7204   -9.9551   22.2885 C   0  0  0  0  0  0  0  0  0  0  0  0
  -26.2406  -34.8349   21.6823 C   0  0  0  0  0  0  0  0  0  0  0  0
  -26.5747  -32.5290   20.1600 C   0  0  0  0  0  0  0  0  0  0  0  0
  -24.3957  -25.8565   18.7296 C   0  0  0  0  0  0  0  0  0  0  0  0
  -22.2173   -8.7765   20.2552 C   0  0  0  0  0  0  0  0  0  0  0  0
  -22.9497   -8.8240   22.5570 C   0  0  0  0  0  0  0  0  0  0  0  0
  -24.8408  -24.5377   18.8095 C   0  0  0  0  0  0  0  0  0  0  0  0
  -23.1780   -5.4841   22.0840 C   0  0  0  0  0  0  0  0  0  0  0  0
  -23.7633   -4.4642   22.8341 C   0  0  0  0  0  0  0  0  0  0  0  0
  -24.2515  -24.4867   21.1481 C   0  0  0  0  0  0  0  0  0  0  0  0
  -22.0456   -4.7144   24.5146 C   0  0  0  0  0  0  0  0  0  0  0  0
  -23.7396  -10.4970   21.0033 C   0  0  0  0  0  0  0  0  0  0  0  0
  -24.1354  -13.0109   20.8264 C   0  0  0  0  0  0  0  0  0  0  0  0
  -26.1003  -33.5797   22.2950 C   0  0  0  0  0  0  0  0  0  0  0  0
  -23.8844  -26.5050   19.8629 C   0  0  0  0  0  0  0  0  0  0  0  0
  -26.2791  -32.4121   21.5288 C   0  0  0  0  0  0  0  0  0  0  0  0
  -23.7981  -25.8129   21.0794 C   0  0  0  0  0  0  0  0  0  0  0  0
  -29.7132  -18.1137   23.5385 C   0  0  0  0  0  0  0  0  0  0  0  0
  -28.7667  -19.1226   23.8063 C   0  0  0  0  0  0  0  0  0  0  0  0
  -22.1982   -8.2347   21.5403 C   0  0  0  0  0  0  0  0  0  0  0  0
  -24.7715  -23.8535   20.0195 C   0  0  0  0  0  0  0  0  0  0  0  0
  -22.0265   -6.1192   22.5491 C   0  0  0  0  0  0  0  0  0  0  0  0
  -23.1972   -4.0794   24.0495 C   0  0  0  0  0  0  0  0  0  0  0  0
  -21.4603   -5.7344   23.7644 C   0  0  0  0  0  0  0  0  0  0  0  0
  -24.5364  -11.6651   20.7264 C   0  0  0  0  0  0  0  0  0  0  0  0
  -29.8490  -17.8688   22.1984 C   0  0  0  0  0  0  0  0  0  0  0  0
  -25.2472  -13.7286   20.4587 C   0  0  0  0  0  0  0  0  0  0  0  0
  -28.2256  -19.6074   22.6260 C   0  0  0  0  0  0  0  0  0  0  0  0
  -22.8710  -13.5628   21.2168 C   0  0  0  0  0  0  0  0  0  0  0  0
  -24.7269  -29.0591   21.5571 C   0  0  0  0  0  0  0  0  0  0  0  0
  -21.9360  -28.4715   23.1024 C   0  0  0  0  0  0  0  0  0  0  0  0
  -26.7610  -21.0396   21.1640 C   0  0  0  0  0  0  0  0  0  0  0  0
  -19.5252  -26.2185   23.9735 C   0  0  0  0  0  0  0  0  0  0  0  0
  -30.7484  -14.6391   20.6906 C   0  0  0  0  0  0  0  0  0  0  0  0
  -25.8278  -33.5219   23.7773 C   0  0  0  0  0  0  0  0  0  0  0  0
  -23.3835  -27.9191   19.7539 C   0  0  0  0  0  0  0  0  0  0  0  0
  -30.6076  -17.2407   24.3383 C   0  0  0  0  0  0  0  0  0  0  0  0
  -23.2387  -26.4574   22.3204 C   0  0  0  0  0  0  0  0  0  0  0  0
  -25.3397  -32.1563   24.2541 C   0  0  0  0  0  0  0  0  0  0  0  0
  -31.5774  -16.6774   23.2493 C   0  0  0  0  0  0  0  0  0  0  0  0
  -29.5899  -12.2208   18.3483 C   0  0  0  0  0  0  0  0  0  0  0  0
  -26.2048  -31.0454   23.6672 C   0  0  0  0  0  0  0  0  0  0  0  0
  -28.1416  -11.9673   18.7703 C   0  0  0  0  0  0  0  0  0  0  0  0
  -30.4970  -12.4520   19.5548 C   0  0  0  0  0  0  0  0  0  0  0  0
  -28.5945  -13.2557   20.8995 C   0  0  0  0  0  0  0  0  0  0  0  0
  -26.1246  -31.0345   22.1358 C   0  0  1  0  0  0  0  0  0  0  0  0
  -30.8442  -16.8175   21.8758 C   0  0  1  0  0  0  0  0  0  0  0  0
  -23.3579  -28.6488   21.0934 C   0  0  1  0  0  0  0  0  0  0  0  0
  -27.6310  -13.0724   19.7144 C   0  0  2  0  0  0  0  0  0  0  0  0
  -28.4035  -19.5973   25.1610 C   0  0  0  0  0  0  0  0  0  0  0  0
  -17.3870  -26.0248   25.2727 C   0  0  0  0  0  0  0  0  0  0  0  0
  -23.5216  -28.4838   25.7092 C   0  0  0  0  0  0  0  0  0  0  0  0
  -21.5730  -27.3700   26.8185 C   0  0  0  0  0  0  0  0  0  0  0  0
  -21.3095  -29.6444   25.8283 C   0  0  0  0  0  0  0  0  0  0  0  0
  -17.9958  -25.4373   21.5632 C   0  0  0  0  0  0  0  0  0  0  0  0
  -25.7287  -22.1351   21.3561 C   0  0  0  0  0  0  0  0  0  1  0  0
  -21.5295  -27.6440   24.2978 C   0  0  1  0  0  0  0  0  0  0  0  0
  -18.0102  -26.2897   23.9109 C   0  0  2  0  0  0  0  0  0  0  0  0
  -21.9958  -28.2738   25.6407 C   0  0  0  0  0  0  0  0  0  0  0  0
  -25.8039  -11.5331   20.3263 N   0  0  0  0  0  0  0  0  0  0  0  0
  -26.2090  -12.8051   20.1716 N   0  0  0  0  0  0  0  0  0  0  0  0
  -22.7677  -27.8435   22.1645 N   0  0  0  0  0  0  0  0  0  0  0  0
  -29.9575  -13.5130   20.4087 N   0  0  0  0  0  0  0  0  0  0  0  0
  -25.4862  -15.0533   20.3561 N   0  0  0  0  0  0  0  0  0  0  0  0
  -21.8364  -12.6831   21.5634 N   0  0  0  0  0  0  0  0  0  0  0  0
  -27.2541  -20.6091   22.3910 N   0  0  0  0  0  0  0  0  0  0  0  0
  -24.8873  -30.4242   21.6989 N   0  0  0  0  0  0  0  0  0  0  0  0
  -20.0861  -27.4586   24.1941 N   0  0  0  0  0  0  0  0  0  0  0  0
  -30.1587  -15.6004   21.5024 N   0  0  0  0  0  0  0  0  0  0  0  0
  -17.4835  -25.2807   22.9488 N   0  3  0  0  0  0  0  0  0  0  0  0
  -22.6598  -14.7990   21.2414 O   0  0  0  0  0  0  0  0  0  0  0  0
  -25.5745  -28.2005   21.7720 O   0  0  0  0  0  0  0  0  0  0  0  0
  -21.5247  -29.6301   23.0009 O   0  0  0  0  0  0  0  0  0  0  0  0
  -27.0703  -20.6370   20.0474 O   0  0  0  0  0  0  0  0  0  0  0  0
  -20.1486  -25.1673   23.8436 O   0  0  0  0  0  0  0  0  0  0  0  0
  -31.8931  -14.7800   20.2470 O   0  0  0  0  0  0  0  0  0  0  0  0
  -21.4460   -7.1310   21.8028 O   0  0  0  0  0  0  0  0  0  0  0  0
  -25.2058  -22.5664   20.1004 O   0  0  0  0  0  0  0  0  0  1  0  0
  -23.7585   -3.0989   24.7690 F   0  0  0  0  0  0  0  0  0  0  0  0
  -20.3534   -6.3400   24.2159 F   0  0  0  0  0  0  0  0  0  0  0  0
  -28.8820  -18.8290   21.2266 S   0  0  0  0  0  0  0  0  0  0  0  0
  1  2  1  0  0  0  0
  1  5  2  0  0  0  0
  2  6  2  0  0  0  0
  3  8  2  0  0  0  0
  3 15  1  0  0  0  0
  4  9  1  0  0  0  0
  4 15  2  0  0  0  0
  5 17  1  0  0  0  0
  6 19  1  0  0  0  0
  7 10  2  0  0  0  0
  7 18  1  0  0  0  0
  8 23  1  0  0  0  0
  9 23  2  0  0  0  0
 10 24  1  0  0  0  0
 11 12  2  0  0  0  0
 11 25  1  0  0  0  0
 12 26  1  0  0  0  0
 13 20  1  0  0  0  0
 13 24  2  0  0  0  0
 14 26  2  0  0  0  0
 14 27  1  0  0  0  0
 15 28  1  0  0  0  0
 16 28  1  0  0  0  0
 16 30  2  0  0  0  0
 16 32  1  0  0  0  0
 17 19  2  0  0  0  0
 17 38  1  0  0  0  0
 18 20  2  0  0  0  0
 18 39  1  0  0  0  0
 19 49  1  0  0  0  0
 20 41  1  0  0  0  0
 21 22  1  0  0  0  0
 21 29  2  0  0  0  0
 21 40  1  0  0  0  0
 22 31  2  0  0  0  0
 22 53  1  0  0  0  0
 23 80  1  0  0  0  0
 24 81  1  0  0  0  0
 25 27  2  0  0  0  0
 25 80  1  0  0  0  0
 26 82  1  0  0  0  0
 27 83  1  0  0  0  0
 28 63  2  0  0  0  0
 29 50  1  0  0  0  0
 29 84  1  0  0  0  0
 30 64  1  0  0  0  0
 30 67  1  0  0  0  0
 31 69  1  0  0  0  0
 31 84  1  0  0  0  0
 32 68  1  0  0  0  0
 32 74  2  0  0  0  0
 33 51  1  0  0  0  0
 33 70  1  0  0  0  0
 33 75  2  0  0  0  0
 34 60  1  0  0  0  0
 34 65  1  0  0  0  0
 34 76  2  0  0  0  0
 35 59  1  0  0  0  0
 35 69  1  0  0  0  0
 35 77  2  0  0  0  0
 36 61  1  0  0  0  0
 36 71  1  0  0  0  0
 36 78  2  0  0  0  0
 37 66  1  0  0  0  0
 37 72  1  0  0  0  0
 37 79  2  0  0  0  0
 38 42  1  0  0  0  0
 39 51  1  0  0  0  0
 40 43  1  0  0  0  0
 41 65  1  0  0  0  0
 42 45  1  0  0  0  0
 43 50  1  0  0  0  0
 44 46  1  0  0  0  0
 44 47  1  0  0  0  0
 45 49  1  0  0  0  0
 46 52  1  0  0  0  0
 47 66  1  0  0  0  0
 48 52  1  0  0  0  0
 48 66  1  0  0  0  0
 49 70  1  0  0  0  0
 50 72  1  0  0  0  0
 51 65  1  0  0  0  0
 52 64  1  0  0  0  0
 54 61  1  0  0  0  0
 55 62  1  0  0  0  0
 56 62  1  0  0  0  0
 57 62  1  0  0  0  0
 58 73  1  0  0  0  0
 59 81  1  0  0  0  0
 60 62  1  0  0  0  0
 60 71  1  0  0  0  0
 61 73  1  0  0  0  0
 63 64  1  0  0  0  0
M  CHG  1  73   1
M  ISO  4  37 100  59 101  72 100  81 101
M  END
> <Batch ID>
0156

> <Smiles>
CNC(C)C(=O)NC(C(=O)N1Cc2cc([101O:1][101CH2:1]C(=O)Nc3sc4c(c3C)CCC4[100NH:0][100C:0](=O)N3CCCC(n4nc(-c5ccc(Oc6ccc(F)cc6F)cc5)c(C(N)=O)c4N)C3)ccc2CC1C(=O)NC1CCCc2ccccc21)C(C)(C)C

> <Shape>
0.319

> <Color>
0.193

> <Negative vol penalty>
0.000

$$$$

  -OEChem-04052303393D

 85 94  0     1  0  0  0  0  0999 V2000
  -21.8927  -34.2107   16.4059 C   0  0  0  0  0  0  0  0  0  0  0  0
  -22.3623  -33.2114   17.2524 C   0  0  0  0  0  0  0  0  0  0  0  0
  -23.0722   -9.8731   19.9409 C   0  0  0  0  0  0  0  0  0  0  0  0
  -23.8387   -9.8750   22.2321 C   0  0  0  0  0  0  0  0  0  0  0  0
  -20.9913  -33.8954   15.3900 C   0  0  0  0  0  0  0  0  0  0  0  0
  -21.9298  -31.8965   17.0841 C   0  0  0  0  0  0  0  0  0  0  0  0
  -25.1927  -26.7994   18.0214 C   0  0  0  0  0  0  0  0  0  0  0  0
  -22.3282   -8.7200   20.1907 C   0  0  0  0  0  0  0  0  0  0  0  0
  -23.0947   -8.7219   22.4820 C   0  0  0  0  0  0  0  0  0  0  0  0
  -25.2585  -25.9119   19.0946 C   0  0  0  0  0  0  0  0  0  0  0  0
  -19.8677   -7.9252   23.0922 C   0  0  0  0  0  0  0  0  0  0  0  0
  -19.1141   -7.8835   24.2652 C   0  0  0  0  0  0  0  0  0  0  0  0
  -23.6660  -24.4724   17.9941 C   0  0  0  0  0  0  0  0  0  0  0  0
  -28.9154  -18.7510   21.5194 C   0  0  0  0  0  0  0  0  0  0  0  0
  -20.3563   -5.9437   24.9943 C   0  0  0  0  0  0  0  0  0  0  0  0
  -23.8275  -10.4506   20.9616 C   0  0  0  0  0  0  0  0  0  0  0  0
  -24.1708  -12.9757   20.8455 C   0  0  0  0  0  0  0  0  0  0  0  0
  -20.5550  -32.5743   15.2031 C   0  0  0  0  0  0  0  0  0  0  0  0
  -24.3534  -26.5350   16.9296 C   0  0  0  0  0  0  0  0  0  0  0  0
  -21.0207  -31.5635   16.0656 C   0  0  0  0  0  0  0  0  0  0  0  0
  -23.5933  -25.3569   16.9071 C   0  0  0  0  0  0  0  0  0  0  0  0
  -29.8006  -17.9153   22.2318 C   0  0  0  0  0  0  0  0  0  0  0  0
  -22.3394   -8.1444   21.4613 C   0  0  0  0  0  0  0  0  0  0  0  0
  -24.4930  -24.7496   19.0824 C   0  0  0  0  0  0  0  0  0  0  0  0
  -20.8656   -6.9761   22.8702 C   0  0  0  0  0  0  0  0  0  0  0  0
  -19.3584   -6.8928   25.2163 C   0  0  0  0  0  0  0  0  0  0  0  0
  -21.1099   -5.9854   23.8212 C   0  0  0  0  0  0  0  0  0  0  0  0
  -24.5967  -11.6414   20.7039 C   0  0  0  0  0  0  0  0  0  0  0  0
  -29.7116  -18.1014   23.5849 C   0  0  0  0  0  0  0  0  0  0  0  0
  -25.2624  -13.7251   20.4805 C   0  0  0  0  0  0  0  0  0  0  0  0
  -28.1800  -19.5378   22.3919 C   0  0  0  0  0  0  0  0  0  0  0  0
  -25.4864  -22.8831   20.0824 C   0  0  0  0  0  0  0  0  0  1  0  0
  -22.9019  -13.4916   21.2691 C   0  0  0  0  0  0  0  0  0  0  0  0
  -25.6350  -21.9756   21.0549 C   0  0  0  0  0  0  0  0  0  0  0  0
  -26.6887  -20.9188   20.9089 C   0  0  0  0  0  0  0  0  0  0  0  0
  -21.8472  -27.9895   15.6230 C   0  0  0  0  0  0  0  0  0  0  0  0
  -22.1722  -25.6778   13.3708 C   0  0  0  0  0  0  0  0  0  0  0  0
  -23.3054  -22.5627   12.5589 C   0  0  0  0  0  0  0  0  0  0  0  0
  -30.7474  -14.7400   20.6550 C   0  0  0  0  0  0  0  0  0  0  0  0
  -19.5435  -32.2901   14.1211 C   0  0  0  0  0  0  0  0  0  0  0  0
  -24.3139  -27.4892   15.7676 C   0  0  0  0  0  0  0  0  0  0  0  0
  -22.6918  -25.0168   15.7495 C   0  0  0  0  0  0  0  0  0  0  0  0
  -30.6292  -17.2465   24.3739 C   0  0  0  0  0  0  0  0  0  0  0  0
  -19.4235  -30.8085   13.7735 C   0  0  0  0  0  0  0  0  0  0  0  0
  -31.5825  -16.7255   23.2515 C   0  0  0  0  0  0  0  0  0  0  0  0
  -29.6012  -12.3609   18.2669 C   0  0  0  0  0  0  0  0  0  0  0  0
  -19.3310  -29.9681   15.0432 C   0  0  0  0  0  0  0  0  0  0  0  0
  -28.1648  -12.0674   18.7034 C   0  0  0  0  0  0  0  0  0  0  0  0
  -30.5219  -12.5788   19.4656 C   0  0  0  0  0  0  0  0  0  0  0  0
  -28.6247  -13.3085   20.8591 C   0  0  0  0  0  0  0  0  0  0  0  0
  -20.5940  -30.1212   15.8993 C   0  0  1  0  0  0  0  0  0  0  0  0
  -30.8183  -16.8881   21.8960 C   0  0  1  0  0  0  0  0  0  0  0  0
  -23.0363  -27.3730   14.9421 C   0  0  1  0  0  0  0  0  0  0  0  0
  -27.6470  -13.1369   19.6839 C   0  0  2  0  0  0  0  0  0  0  0  0
  -23.3907  -20.9323   10.6531 C   0  0  0  0  0  0  0  0  0  0  0  0
  -19.2327  -24.9971   13.8248 C   0  0  0  0  0  0  0  0  0  0  0  0
  -19.6260  -22.8235   12.6462 C   0  0  0  0  0  0  0  0  0  0  0  0
  -19.9503  -24.9767   11.4291 C   0  0  0  0  0  0  0  0  0  0  0  0
  -26.2648  -22.5719   12.5312 C   0  0  0  0  0  0  0  0  0  0  0  0
  -21.6297  -24.2811   13.1863 C   0  0  1  0  0  0  0  0  0  0  0  0
  -24.1110  -22.0611   11.3741 C   0  0  2  0  0  0  0  0  0  0  0  0
  -20.1251  -24.2767   12.7944 C   0  0  0  0  0  0  0  0  0  0  0  0
  -25.8602  -11.5455   20.2818 N   0  0  0  0  0  0  0  0  0  0  0  0
  -26.2377  -12.8291   20.1549 N   0  0  0  0  0  0  0  0  0  0  0  0
  -22.6829  -25.9844   14.6400 N   0  0  0  0  0  0  0  0  0  0  0  0
  -29.9747  -13.6059   20.3551 N   0  0  0  0  0  0  0  0  0  0  0  0
  -25.4735  -15.0566   20.4095 N   0  0  0  0  0  0  0  0  0  0  0  0
  -21.8903  -12.5825   21.6075 N   0  0  0  0  0  0  0  0  0  0  0  0
  -27.1832  -20.5112   22.1403 N   0  0  0  0  0  0  0  0  0  0  0  0
  -21.6760  -29.3331   15.3492 N   0  0  0  0  0  0  0  0  0  0  0  0
  -22.5020  -23.6294   12.2153 N   0  0  0  0  0  0  0  0  0  0  0  0
  -30.1513  -15.6676   21.5006 N   0  0  0  0  0  0  0  0  0  0  0  0
  -25.4389  -21.5580   11.8263 N   0  3  0  0  0  0  0  0  0  0  0  0
  -22.6666  -14.7223   21.3295 O   0  0  0  0  0  0  0  0  0  0  0  0
  -27.0231  -20.5113   19.8017 O   0  0  0  0  0  0  0  0  0  0  0  0
  -21.1367  -27.2971   16.3424 O   0  0  0  0  0  0  0  0  0  0  0  0
  -22.1503  -26.4653   12.4216 O   0  0  0  0  0  0  0  0  0  0  0  0
  -23.3786  -22.0565   13.6764 O   0  0  0  0  0  0  0  0  0  0  0  0
  -31.8821  -14.9155   20.1985 O   0  0  0  0  0  0  0  0  0  0  0  0
  -24.8550  -21.9733   22.1934 O   0  0  0  0  0  0  0  0  0  0  0  0
  -21.6134   -7.0193   21.7055 O   0  0  0  0  0  0  0  0  0  0  0  0
  -24.5548  -23.8820   20.1289 O   0  0  0  0  0  0  0  0  0  1  0  0
  -18.6357   -6.8538   26.3434 F   0  0  0  0  0  0  0  0  0  0  0  0
  -22.0680   -5.0716   23.6141 F   0  0  0  0  0  0  0  0  0  0  0  0
  -28.5858  -19.2472   24.0491 S   0  0  0  0  0  0  0  0  0  0  0  0
  1  2  1  0  0  0  0
  1  5  2  0  0  0  0
  2  6  2  0  0  0  0
  3  8  2  0  0  0  0
  3 16  1  0  0  0  0
  4  9  1  0  0  0  0
  4 16  2  0  0  0  0
  5 18  1  0  0  0  0
  6 20  1  0  0  0  0
  7 10  2  0  0  0  0
  7 19  1  0  0  0  0
  8 23  1  0  0  0  0
  9 23  2  0  0  0  0
 10 24  1  0  0  0  0
 11 12  2  0  0  0  0
 11 25  1  0  0  0  0
 12 26  1  0  0  0  0
 13 21  1  0  0  0  0
 13 24  2  0  0  0  0
 14 22  1  0  0  0  0
 14 31  2  0  0  0  0
 15 26  2  0  0  0  0
 15 27  1  0  0  0  0
 16 28  1  0  0  0  0
 17 28  1  0  0  0  0
 17 30  2  0  0  0  0
 17 33  1  0  0  0  0
 18 20  2  0  0  0  0
 18 40  1  0  0  0  0
 19 21  2  0  0  0  0
 19 41  1  0  0  0  0
 20 51  1  0  0  0  0
 21 42  1  0  0  0  0
 22 29  2  0  0  0  0
 22 52  1  0  0  0  0
 23 81  1  0  0  0  0
 24 82  1  0  0  0  0
 25 27  2  0  0  0  0
 25 81  1  0  0  0  0
 26 83  1  0  0  0  0
 27 84  1  0  0  0  0
 28 63  2  0  0  0  0
 29 43  1  0  0  0  0
 29 85  1  0  0  0  0
 30 64  1  0  0  0  0
 30 67  1  0  0  0  0
 31 69  1  0  0  0  0
 31 85  1  0  0  0  0
 32 34  2  0  0  0  0
 32 82  1  0  0  0  0
 33 68  1  0  0  0  0
 33 74  2  0  0  0  0
 34 35  1  0  0  0  0
 34 80  1  0  0  0  0
 35 69  1  0  0  0  0
 35 75  2  0  0  0  0
 36 53  1  0  0  0  0
 36 70  1  0  0  0  0
 36 76  2  0  0  0  0
 37 60  1  0  0  0  0
 37 65  1  0  0  0  0
 37 77  2  0  0  0  0
 38 61  1  0  0  0  0
 38 71  1  0  0  0  0
 38 78  2  0  0  0  0
 39 66  1  0  0  0  0
 39 72  1  0  0  0  0
 39 79  2  0  0  0  0
 40 44  1  0  0  0  0
 41 53  1  0  0  0  0
 42 65  1  0  0  0  0
 43 45  1  0  0  0  0
 44 47  1  0  0  0  0
 45 52  1  0  0  0  0
 46 48  1  0  0  0  0
 46 49  1  0  0  0  0
 47 51  1  0  0  0  0
 48 54  1  0  0  0  0
 49 66  1  0  0  0  0
 50 54  1  0  0  0  0
 50 66  1  0  0  0  0
 51 70  1  0  0  0  0
 52 72  1  0  0  0  0
 53 65  1  0  0  0  0
 54 64  1  0  0  0  0
 55 61  1  0  0  0  0
 56 62  1  0  0  0  0
 57 62  1  0  0  0  0
 58 62  1  0  0  0  0
 59 73  1  0  0  0  0
 60 62  1  0  0  0  0
 60 71  1  0  0  0  0
 61 73  1  0  0  0  0
 63 64  1  0  0  0  0
M  CHG  1  73   1
M  ISO  4  32 101  39 100  72 100  82 101
M  END
> <Batch ID>
0156

> <Smiles>
CNC(C)C(=O)NC(C(=O)N1Cc2cc([101O:1][101CH2:1]C(=O)C(=O)Nc3cc4c(s3)CCC4[100NH:0][100C:0](=O)N3CCCC(n4nc(-c5ccc(Oc6ccc(F)cc6F)cc5)c(C(N)=O)c4N)C3)ccc2CC1C(=O)NC1CCCc2ccccc21)C(C)(C)C

> <Shape>
0.190

> <Color>
0.184

> <Negative vol penalty>
0.000

$$$$

  -OEChem-04052303393D

 85 94  0     1  0  0  0  0  0999 V2000
  -26.8270  -37.3418   17.1213 C   0  0  0  0  0  0  0  0  0  0  0  0
  -27.1785  -35.9986   17.0326 C   0  0  0  0  0  0  0  0  0  0  0  0
  -23.6957   -8.7006   19.9967 C   0  0  0  0  0  0  0  0  0  0  0  0
  -23.7313   -9.1896   22.3624 C   0  0  0  0  0  0  0  0  0  0  0  0
  -26.5968  -37.9199   18.3690 C   0  0  0  0  0  0  0  0  0  0  0  0
  -27.3012  -35.2331   18.1916 C   0  0  0  0  0  0  0  0  0  0  0  0
  -25.9171  -29.3039   18.8511 C   0  0  0  0  0  0  0  0  0  0  0  0
  -23.6308   -7.3363   20.2796 C   0  0  0  0  0  0  0  0  0  0  0  0
  -23.6664   -7.8253   22.6454 C   0  0  0  0  0  0  0  0  0  0  0  0
  -26.6999  -28.1504   18.8329 C   0  0  0  0  0  0  0  0  0  0  0  0
  -21.3048   -5.4093   22.7252 C   0  0  0  0  0  0  0  0  0  0  0  0
  -20.4141   -4.9961   23.7158 C   0  0  0  0  0  0  0  0  0  0  0  0
  -27.8115  -21.0987   17.1926 C   0  0  0  0  0  0  0  0  0  0  0  0
  -26.8222  -28.2026   21.2416 C   0  0  0  0  0  0  0  0  0  0  0  0
  -28.4988  -21.2146   19.5038 C   0  0  0  0  0  0  0  0  0  0  0  0
  -22.2525   -4.0763   24.9852 C   0  0  0  0  0  0  0  0  0  0  0  0
  -23.7460   -9.6273   21.0380 C   0  0  0  0  0  0  0  0  0  0  0  0
  -22.7327  -11.9231   20.5796 C   0  0  0  0  0  0  0  0  0  0  0  0
  -26.7073  -37.1587   19.5433 C   0  0  0  0  0  0  0  0  0  0  0  0
  -25.5896  -29.9227   20.0661 C   0  0  0  0  0  0  0  0  0  0  0  0
  -27.0736  -35.8020   19.4562 C   0  0  0  0  0  0  0  0  0  0  0  0
  -28.0138  -19.7116   17.1891 C   0  0  0  0  0  0  0  0  0  0  0  0
  -26.0330  -29.3625   21.2726 C   0  0  0  0  0  0  0  0  0  0  0  0
  -28.4411  -19.0694   18.3668 C   0  0  0  0  0  0  0  0  0  0  0  0
  -28.0560  -21.8460   18.3443 C   0  0  0  0  0  0  0  0  0  0  0  0
  -23.6162   -6.8986   21.6040 C   0  0  0  0  0  0  0  0  0  0  0  0
  -27.1550  -27.6012   20.0281 C   0  0  0  0  0  0  0  0  0  0  0  0
  -22.6695   -5.1559   22.8645 C   0  0  0  0  0  0  0  0  0  0  0  0
  -20.8879   -4.3297   24.8459 C   0  0  0  0  0  0  0  0  0  0  0  0
  -28.6922  -19.8336   19.5156 C   0  0  0  0  0  0  0  0  0  0  0  0
  -23.1433   -4.4895   23.9945 C   0  0  0  0  0  0  0  0  0  0  0  0
  -23.8136  -11.0367   20.7464 C   0  0  0  0  0  0  0  0  0  0  0  0
  -23.3210  -13.1369   20.3207 C   0  0  0  0  0  0  0  0  0  0  0  0
  -21.3231  -11.6717   20.6523 C   0  0  0  0  0  0  0  0  0  0  0  0
  -26.1629  -32.7689   21.3600 C   0  0  0  0  0  0  0  0  0  0  0  0
  -24.1742  -31.6811   23.6803 C   0  0  0  0  0  0  0  0  0  0  0  0
  -28.0474  -24.1373   19.3856 C   0  0  0  0  0  0  0  0  0  0  0  0
  -22.7897  -29.0104   25.2919 C   0  0  0  0  0  0  0  0  0  0  0  0
  -27.1982  -15.8399   17.2859 C   0  0  0  0  0  0  0  0  0  0  0  0
  -26.4950  -37.8394   20.8723 C   0  0  0  0  0  0  0  0  0  0  0  0
  -24.7220  -31.1514   20.0702 C   0  0  0  0  0  0  0  0  0  0  0  0
  -27.7197  -18.9200   15.9393 C   0  0  0  0  0  0  0  0  0  0  0  0
  -25.6922  -29.9769   22.6048 C   0  0  0  0  0  0  0  0  0  0  0  0
  -28.6730  -17.5754   18.4113 C   0  0  0  0  0  0  0  0  0  0  0  0
  -26.2798  -36.8655   22.0280 C   0  0  0  0  0  0  0  0  0  0  0  0
  -28.1306  -14.6254   20.6948 C   0  0  0  0  0  0  0  0  0  0  0  0
  -27.3155  -35.7465   21.9829 C   0  0  0  0  0  0  0  0  0  0  0  0
  -27.0225  -13.6058   20.9548 C   0  0  0  0  0  0  0  0  0  0  0  0
  -28.3943  -17.5524   15.9599 C   0  0  0  0  0  0  0  0  0  0  0  0
  -28.4273  -14.7499   19.2052 C   0  0  0  0  0  0  0  0  0  0  0  0
  -26.1200  -14.0710   18.6301 C   0  0  0  0  0  0  0  0  0  0  0  0
  -27.1923  -34.9325   20.6892 C   0  0  1  0  0  0  0  0  0  0  0  0
  -24.8787  -31.9893   21.3355 C   0  0  1  0  0  0  0  0  0  0  0  0
  -25.7707  -13.9280   20.1209 C   0  0  1  0  0  0  0  0  0  0  0  0
  -21.2302  -28.4363   27.1723 C   0  0  0  0  0  0  0  0  0  0  0  0
  -26.3620  -32.3555   25.6974 C   0  0  0  0  0  0  0  0  0  0  0  0
  -25.1684  -30.9211   27.3666 C   0  0  0  0  0  0  0  0  0  0  0  0
  -24.0459  -32.9445   26.4345 C   0  0  0  0  0  0  0  0  0  0  0  0
  -20.9125  -27.6293   23.4677 C   0  0  0  0  0  0  0  0  0  0  0  0
  -27.7140  -25.5537   18.9552 C   0  0  0  0  0  0  0  0  0  1  0  0
  -24.3520  -30.9096   24.9657 C   0  0  1  0  0  0  0  0  0  0  0  0
  -21.3550  -28.7011   25.6799 C   0  0  2  0  0  0  0  0  0  0  0  0
  -24.9903  -31.7720   26.0910 C   0  0  0  0  0  0  0  0  0  0  0  0
  -24.9987  -11.6363   20.6051 N   0  0  0  0  0  0  0  0  0  0  0  0
  -24.6660  -12.9125   20.3467 N   0  0  0  0  0  0  0  0  0  0  0  0
  -24.8465  -31.1811   22.5562 N   0  0  0  0  0  0  0  0  0  0  0  0
  -28.1368  -16.8815   17.2316 N   0  0  0  0  0  0  0  0  0  0  0  0
  -27.2100  -15.0289   18.4321 N   0  0  0  0  0  0  0  0  0  0  0  0
  -22.8137  -14.3637   20.0754 N   0  0  0  0  0  0  0  0  0  0  0  0
  -20.8903  -10.3674   20.9277 N   0  0  0  0  0  0  0  0  0  0  0  0
  -27.8564  -23.2268   18.3354 N   0  0  0  0  0  0  0  0  0  0  0  0
  -26.0749  -34.0166   20.7727 N   0  0  0  0  0  0  0  0  0  0  0  0
  -23.0401  -30.3663   25.3005 N   0  0  0  0  0  0  0  0  0  0  0  0
  -20.8679  -27.4986   24.9468 N   0  3  0  0  0  0  0  0  0  0  0  0
  -20.4722  -12.5735   20.4621 O   0  0  0  0  0  0  0  0  0  0  0  0
  -27.1595  -32.2757   21.8750 O   0  0  0  0  0  0  0  0  0  0  0  0
  -23.4591  -32.6862   23.6723 O   0  0  0  0  0  0  0  0  0  0  0  0
  -28.4306  -23.8848   20.5231 O   0  0  0  0  0  0  0  0  0  0  0  0
  -23.6075  -28.1364   25.0129 O   0  0  0  0  0  0  0  0  0  0  0  0
  -26.3868  -15.6521   16.3705 O   0  0  0  0  0  0  0  0  0  0  0  0
  -23.5526   -5.5674   21.8805 O   0  0  0  0  0  0  0  0  0  0  0  0
  -27.9277  -26.4639   20.0130 O   0  0  0  0  0  0  0  0  0  1  0  0
  -20.0326   -3.9343   25.7979 F   0  0  0  0  0  0  0  0  0  0  0  0
  -29.1194  -19.2408   20.6399 F   0  0  0  0  0  0  0  0  0  0  0  0
  -24.4533   -4.2443   24.1345 F   0  0  0  0  0  0  0  0  0  0  0  0
  1  2  1  0  0  0  0
  1  5  2  0  0  0  0
  2  6  2  0  0  0  0
  3  8  2  0  0  0  0
  3 17  1  0  0  0  0
  4  9  1  0  0  0  0
  4 17  2  0  0  0  0
  5 19  1  0  0  0  0
  6 21  1  0  0  0  0
  7 10  2  0  0  0  0
  7 20  1  0  0  0  0
  8 26  1  0  0  0  0
  9 26  2  0  0  0  0
 10 27  1  0  0  0  0
 11 12  2  0  0  0  0
 11 28  1  0  0  0  0
 12 29  1  0  0  0  0
 13 22  1  0  0  0  0
 13 25  2  0  0  0  0
 14 23  1  0  0  0  0
 14 27  2  0  0  0  0
 15 25  1  0  0  0  0
 15 30  2  0  0  0  0
 16 29  2  0  0  0  0
 16 31  1  0  0  0  0
 17 32  1  0  0  0  0
 18 32  1  0  0  0  0
 18 33  2  0  0  0  0
 18 34  1  0  0  0  0
 19 21  2  0  0  0  0
 19 40  1  0  0  0  0
 20 23  2  0  0  0  0
 20 41  1  0  0  0  0
 21 52  1  0  0  0  0
 22 24  2  0  0  0  0
 22 42  1  0  0  0  0
 23 43  1  0  0  0  0
 24 30  1  0  0  0  0
 24 44  1  0  0  0  0
 25 71  1  0  0  0  0
 26 81  1  0  0  0  0
 27 82  1  0  0  0  0
 28 31  2  0  0  0  0
 28 81  1  0  0  0  0
 29 83  1  0  0  0  0
 30 84  1  0  0  0  0
 31 85  1  0  0  0  0
 32 64  2  0  0  0  0
 33 65  1  0  0  0  0
 33 69  1  0  0  0  0
 34 70  1  0  0  0  0
 34 75  2  0  0  0  0
 35 53  1  0  0  0  0
 35 72  1  0  0  0  0
 35 76  2  0  0  0  0
 36 61  1  0  0  0  0
 36 66  1  0  0  0  0
 36 77  2  0  0  0  0
 37 60  1  0  0  0  0
 37 71  1  0  0  0  0
 37 78  2  0  0  0  0
 38 62  1  0  0  0  0
 38 73  1  0  0  0  0
 38 79  2  0  0  0  0
 39 67  1  0  0  0  0
 39 68  1  0  0  0  0
 39 80  2  0  0  0  0
 40 45  1  0  0  0  0
 41 53  1  0  0  0  0
 42 49  1  0  0  0  0
 43 66  1  0  0  0  0
 44 67  1  0  0  0  0
 45 47  1  0  0  0  0
 46 48  1  0  0  0  0
 46 50  1  0  0  0  0
 47 52  1  0  0  0  0
 48 54  1  0  0  0  0
 49 67  1  0  0  0  0
 50 68  1  0  0  0  0
 51 54  1  0  0  0  0
 51 68  1  0  0  0  0
 52 72  1  0  0  0  0
 53 66  1  0  0  0  0
 54 65  1  0  0  0  0
 55 62  1  0  0  0  0
 56 63  1  0  0  0  0
 57 63  1  0  0  0  0
 58 63  1  0  0  0  0
 59 74  1  0  0  0  0
 60 82  1  0  0  0  0
 61 63  1  0  0  0  0
 61 73  1  0  0  0  0
 62 74  1  0  0  0  0
 64 65  1  0  0  0  0
M  CHG  1  74   1
M  ISO  4  39 100  60 101  67 100  82 101
M  END
> <Batch ID>
0156

> <Smiles>
CNC(C)C(=O)NC(C(=O)N1Cc2cc([101O:1][101CH2:1]C(=O)Nc3cc(F)c4c(c3)CC[100N:0]([100C:0](=O)N3CCCC(n5nc(-c6ccc(Oc7ccc(F)cc7F)cc6)c(C(N)=O)c5N)C3)C4)ccc2CC1C(=O)NC1CCCc2ccccc21)C(C)(C)C

> <Shape>
0.263

> <Color>
0.097

> <Negative vol penalty>
0.000

$$$$

  -OEChem-04052303393D

 82 91  0     1  0  0  0  0  0999 V2000
  -24.0779  -35.5370   22.5325 C   0  0  0  0  0  0  0  0  0  0  0  0
  -25.2738  -35.2554   21.8798 C   0  0  0  0  0  0  0  0  0  0  0  0
  -23.1405   -9.8468   21.5019 C   0  0  0  0  0  0  0  0  0  0  0  0
  -23.8621  -10.8179   23.5931 C   0  0  0  0  0  0  0  0  0  0  0  0
  -23.7999  -34.9426   23.7627 C   0  0  0  0  0  0  0  0  0  0  0  0
  -26.1928  -34.3801   22.4573 C   0  0  0  0  0  0  0  0  0  0  0  0
  -29.3699  -27.8493   19.5796 C   0  0  0  0  0  0  0  0  0  0  0  0
  -22.4492   -8.8568   22.2001 C   0  0  0  0  0  0  0  0  0  0  0  0
  -23.1708   -9.8279   24.2914 C   0  0  0  0  0  0  0  0  0  0  0  0
  -29.8780  -26.5949   19.2412 C   0  0  0  0  0  0  0  0  0  0  0  0
  -23.1763   -5.9721   23.8047 C   0  0  0  0  0  0  0  0  0  0  0  0
  -23.3079   -4.6560   23.3619 C   0  0  0  0  0  0  0  0  0  0  0  0
  -30.0600  -26.0248   21.5842 C   0  0  0  0  0  0  0  0  0  0  0  0
  -20.9241   -4.5446   22.9846 C   0  0  0  0  0  0  0  0  0  0  0  0
  -29.4945  -18.6005   20.8012 C   0  0  0  0  0  0  0  0  0  0  0  0
  -23.8470  -10.8274   22.1984 C   0  0  0  0  0  0  0  0  0  0  0  0
  -24.0684  -13.1027   21.0664 C   0  0  0  0  0  0  0  0  0  0  0  0
  -24.7117  -34.0520   24.3511 C   0  0  0  0  0  0  0  0  0  0  0  0
  -29.1903  -28.1909   20.9229 C   0  0  0  0  0  0  0  0  0  0  0  0
  -25.9272  -33.7743   23.6972 C   0  0  0  0  0  0  0  0  0  0  0  0
  -29.5398  -27.2752   21.9289 C   0  0  0  0  0  0  0  0  0  0  0  0
  -22.4643   -8.8473   23.5949 C   0  0  0  0  0  0  0  0  0  0  0  0
  -30.2224  -25.6850   20.2411 C   0  0  0  0  0  0  0  0  0  0  0  0
  -21.9186   -6.5745   23.8375 C   0  0  0  0  0  0  0  0  0  0  0  0
  -22.1818   -3.9422   22.9519 C   0  0  0  0  0  0  0  0  0  0  0  0
  -20.7925   -5.8607   23.4274 C   0  0  0  0  0  0  0  0  0  0  0  0
  -24.5617  -11.8500   21.4777 C   0  0  0  0  0  0  0  0  0  0  0  0
  -30.2547  -17.4883   20.4003 C   0  0  0  0  0  0  0  0  0  0  0  0
  -25.1288  -13.6959   20.4260 C   0  0  0  0  0  0  0  0  0  0  0  0
  -30.2977  -19.6689   20.5021 C   0  0  0  0  0  0  0  0  0  0  0  0
  -31.0362  -22.0861   20.3083 C   0  0  0  0  0  0  0  0  0  0  0  0
  -22.7679  -13.6787   21.2472 C   0  0  0  0  0  0  0  0  0  0  0  0
  -28.0560  -30.7686   23.4017 C   0  0  0  0  0  0  0  0  0  0  0  0
  -27.0861  -28.0488   24.4374 C   0  0  0  0  0  0  0  0  0  0  0  0
  -25.8403  -24.9255   25.0121 C   0  0  0  0  0  0  0  0  0  0  0  0
  -30.5346  -14.9986   20.1369 C   0  0  0  0  0  0  0  0  0  0  0  0
  -24.3881  -33.4706   25.7045 C   0  0  0  0  0  0  0  0  0  0  0  0
  -28.7040  -29.5537   21.3351 C   0  0  0  0  0  0  0  0  0  0  0  0
  -29.3620  -27.6988   23.3614 C   0  0  0  0  0  0  0  0  0  0  0  0
  -25.2488  -32.2643   26.0709 C   0  0  0  0  0  0  0  0  0  0  0  0
  -29.5764  -11.7807   18.9519 C   0  0  0  0  0  0  0  0  0  0  0  0
  -26.7181  -32.5471   25.7743 C   0  0  0  0  0  0  0  0  0  0  0  0
  -28.1458  -11.6149   19.4695 C   0  0  0  0  0  0  0  0  0  0  0  0
  -28.9628  -23.1014   20.8994 C   0  0  0  0  0  0  0  0  0  0  0  0
  -30.4599  -12.5215   19.9541 C   0  0  0  0  0  0  0  0  0  0  0  0
  -28.9341  -21.6371   21.2869 C   0  0  0  0  0  0  0  0  0  0  0  0
  -28.4981  -13.6445   20.9337 C   0  0  0  0  0  0  0  0  0  0  0  0
  -26.9384  -32.8108   24.2798 C   0  0  1  0  0  0  0  0  0  0  0  0
  -30.4463  -23.3999   20.7860 C   0  0  2  0  0  0  0  0  0  1  0  0
  -27.8229  -29.5239   22.5968 C   0  0  1  0  0  0  0  0  0  0  0  0
  -27.5539  -12.9611   19.9311 C   0  0  2  0  0  0  0  0  0  0  0  0
  -24.4358  -23.6342   26.6422 C   0  0  0  0  0  0  0  0  0  0  0  0
  -29.4240  -27.9848   26.3954 C   0  0  0  0  0  0  0  0  0  0  0  0
  -28.3700  -25.9888   27.4786 C   0  0  0  0  0  0  0  0  0  0  0  0
  -27.1717  -28.1766   27.4654 C   0  0  0  0  0  0  0  0  0  0  0  0
  -23.8289  -24.2743   22.9411 C   0  0  0  0  0  0  0  0  0  0  0  0
  -27.3667  -26.8572   25.3175 C   0  0  1  0  0  0  0  0  0  0  0  0
  -24.4417  -24.4463   25.3564 C   0  0  2  0  0  0  0  0  0  0  0  0
  -28.0894  -27.2516   26.6365 C   0  0  0  0  0  0  0  0  0  0  0  0
  -25.8363  -11.6576   21.1278 N   0  0  0  0  0  0  0  0  0  0  0  0
  -31.4389  -17.8400   19.8915 N   0  0  0  0  0  0  0  0  0  0  0  0
  -26.1528  -12.7973   20.4898 N   0  0  0  0  0  0  0  0  0  0  0  0
  -30.1187  -21.0758   20.6618 N   0  0  0  0  0  0  0  0  0  0  0  0
  -28.0821  -28.4066   23.5207 N   0  0  0  0  0  0  0  0  0  0  0  0
  -29.8377  -13.7891   20.3426 N   0  0  0  0  0  0  0  0  0  0  0  0
  -25.2759  -14.8933   19.8201 N   0  0  0  0  0  0  0  0  0  0  0  0
  -21.7958  -12.9332   21.9280 N   0  0  0  0  0  0  0  0  0  0  0  0
  -29.8302  -16.1413   20.5147 N   0  0  0  0  0  0  0  0  0  0  0  0
  -26.9363  -31.5662   23.5413 N   0  0  0  0  0  0  0  0  0  0  0  0
  -26.0868  -26.1854   25.5153 N   0  0  0  0  0  0  0  0  0  0  0  0
  -23.9015  -23.5939   24.2598 N   0  3  0  0  0  0  0  0  0  0  0  0
  -32.1234  -22.0064   19.7558 O   0  0  0  0  0  0  0  0  0  0  0  0
  -22.4716  -14.8139   20.8034 O   0  0  0  0  0  0  0  0  0  0  0  0
  -29.1691  -30.9894   23.8641 O   0  0  0  0  0  0  0  0  0  0  0  0
  -26.0161  -28.6514   24.5612 O   0  0  0  0  0  0  0  0  0  0  0  0
  -26.6360  -24.2483   24.3649 O   0  0  0  0  0  0  0  0  0  0  0  0
  -31.6616  -15.0210   19.6356 O   0  0  0  0  0  0  0  0  0  0  0  0
  -31.4610  -19.2279   19.9587 O   0  0  0  0  0  0  0  0  0  0  0  0
  -21.7897   -7.8815   24.2766 O   0  0  0  0  0  0  0  0  0  0  0  0
  -30.7136  -24.4604   19.9037 O   0  0  0  0  0  0  0  0  0  1  0  0
  -22.3085   -2.6788   22.5253 F   0  0  0  0  0  0  0  0  0  0  0  0
  -19.5818   -6.4345   23.4556 F   0  0  0  0  0  0  0  0  0  0  0  0
  1  2  1  0  0  0  0
  1  5  2  0  0  0  0
  2  6  2  0  0  0  0
  3  8  2  0  0  0  0
  3 16  1  0  0  0  0
  4  9  1  0  0  0  0
  4 16  2  0  0  0  0
  5 18  1  0  0  0  0
  6 20  1  0  0  0  0
  7 10  2  0  0  0  0
  7 19  1  0  0  0  0
  8 22  1  0  0  0  0
  9 22  2  0  0  0  0
 10 23  1  0  0  0  0
 11 12  2  0  0  0  0
 11 24  1  0  0  0  0
 12 25  1  0  0  0  0
 13 21  1  0  0  0  0
 13 23  2  0  0  0  0
 14 25  2  0  0  0  0
 14 26  1  0  0  0  0
 15 28  1  0  0  0  0
 15 30  2  0  0  0  0
 16 27  1  0  0  0  0
 17 27  1  0  0  0  0
 17 29  2  0  0  0  0
 17 32  1  0  0  0  0
 18 20  2  0  0  0  0
 18 37  1  0  0  0  0
 19 21  2  0  0  0  0
 19 38  1  0  0  0  0
 20 48  1  0  0  0  0
 21 39  1  0  0  0  0
 22 79  1  0  0  0  0
 23 80  1  0  0  0  0
 24 26  2  0  0  0  0
 24 79  1  0  0  0  0
 25 81  1  0  0  0  0
 26 82  1  0  0  0  0
 27 60  2  0  0  0  0
 28 61  2  0  0  0  0
 28 68  1  0  0  0  0
 29 62  1  0  0  0  0
 29 66  1  0  0  0  0
 30 63  1  0  0  0  0
 30 78  1  0  0  0  0
 31 49  1  0  0  0  0
 31 63  1  0  0  0  0
 31 72  2  0  0  0  0
 32 67  1  0  0  0  0
 32 73  2  0  0  0  0
 33 50  1  0  0  0  0
 33 69  1  0  0  0  0
 33 74  2  0  0  0  0
 34 57  1  0  0  0  0
 34 64  1  0  0  0  0
 34 75  2  0  0  0  0
 35 58  1  0  0  0  0
 35 70  1  0  0  0  0
 35 76  2  0  0  0  0
 36 65  1  0  0  0  0
 36 68  1  0  0  0  0
 36 77  2  0  0  0  0
 37 40  1  0  0  0  0
 38 50  1  0  0  0  0
 39 64  1  0  0  0  0
 40 42  1  0  0  0  0
 41 43  1  0  0  0  0
 41 45  1  0  0  0  0
 42 48  1  0  0  0  0
 43 51  1  0  0  0  0
 44 46  1  0  0  0  0
 44 49  1  0  0  0  0
 45 65  1  0  0  0  0
 46 63  1  0  0  0  0
 47 51  1  0  0  0  0
 47 65  1  0  0  0  0
 48 69  1  0  0  0  0
 49 80  1  0  0  0  0
 50 64  1  0  0  0  0
 51 62  1  0  0  0  0
 52 58  1  0  0  0  0
 53 59  1  0  0  0  0
 54 59  1  0  0  0  0
 55 59  1  0  0  0  0
 56 71  1  0  0  0  0
 57 59  1  0  0  0  0
 57 70  1  0  0  0  0
 58 71  1  0  0  0  0
 60 62  1  0  0  0  0
 61 78  1  0  0  0  0
M  CHG  1  71   1
M  ISO  4  36 100  49 101  68 100  80 101
M  END
> <Batch ID>
0156

> <Smiles>
CNC(C)C(=O)NC(C(=O)N1Cc2cc([101O:1][101CH:1]3CCN(c4cc([100NH:0][100C:0](=O)N5CCCC(n6nc(-c7ccc(Oc8ccc(F)cc8F)cc7)c(C(N)=O)c6N)C5)no4)C3=O)ccc2CC1C(=O)NC1CCCc2ccccc21)C(C)(C)C

> <Shape>
0.307

> <Color>
0.161

> <Negative vol penalty>
0.000

$$$$

  -OEChem-04052303393D

 83 91  0     1  0  0  0  0  0999 V2000
  -30.8616  -21.6063   29.4324 C   0  0  0  0  0  0  0  0  0  0  0  0
  -31.1745  -22.3073   28.2721 C   0  0  0  0  0  0  0  0  0  0  0  0
  -26.1808  -12.8059   21.5849 C   0  0  0  0  0  0  0  0  0  0  0  0
  -25.8017  -13.5404   19.3147 C   0  0  0  0  0  0  0  0  0  0  0  0
  -29.6622  -20.9005   29.5170 C   0  0  0  0  0  0  0  0  0  0  0  0
  -30.2886  -22.3019   27.1953 C   0  0  0  0  0  0  0  0  0  0  0  0
  -29.2175  -26.8930   23.2863 C   0  0  0  0  0  0  0  0  0  0  0  0
  -24.9868  -12.0857   21.5513 C   0  0  0  0  0  0  0  0  0  0  0  0
  -24.6077  -12.8201   19.2810 C   0  0  0  0  0  0  0  0  0  0  0  0
  -29.6932  -27.1633   22.0039 C   0  0  0  0  0  0  0  0  0  0  0  0
  -22.2182   -9.7619   21.9389 C   0  0  0  0  0  0  0  0  0  0  0  0
  -22.2298   -8.4631   22.4472 C   0  0  0  0  0  0  0  0  0  0  0  0
  -29.0300  -22.7873   18.2108 C   0  0  0  0  0  0  0  0  0  0  0  0
  -27.7196  -26.1438   21.0634 C   0  0  0  0  0  0  0  0  0  0  0  0
  -23.8997   -7.8397   20.8162 C   0  0  0  0  0  0  0  0  0  0  0  0
  -28.2996  -21.0646   16.7428 C   0  0  0  0  0  0  0  0  0  0  0  0
  -26.5883  -13.5333   20.4666 C   0  0  0  0  0  0  0  0  0  0  0  0
  -29.0292  -23.6649   17.1323 C   0  0  0  0  0  0  0  0  0  0  0  0
  -29.1019  -13.8192   20.1384 C   0  0  0  0  0  0  0  0  0  0  0  0
  -28.7567  -20.8944   28.4443 C   0  0  0  0  0  0  0  0  0  0  0  0
  -27.9924  -26.2352   23.4670 C   0  0  0  0  0  0  0  0  0  0  0  0
  -29.0765  -21.5943   27.2652 C   0  0  0  0  0  0  0  0  0  0  0  0
  -27.2294  -25.8686   22.3491 C   0  0  0  0  0  0  0  0  0  0  0  0
  -28.6596  -21.4607   18.0208 C   0  0  0  0  0  0  0  0  0  0  0  0
  -24.2003  -12.0927   20.3994 C   0  0  0  0  0  0  0  0  0  0  0  0
  -28.9456  -26.7861   20.8922 C   0  0  0  0  0  0  0  0  0  0  0  0
  -23.0473  -10.0997   20.8692 C   0  0  0  0  0  0  0  0  0  0  0  0
  -23.0706   -7.5020   21.8859 C   0  0  0  0  0  0  0  0  0  0  0  0
  -23.8880   -9.1386   20.3079 C   0  0  0  0  0  0  0  0  0  0  0  0
  -27.8213  -14.2780   20.5009 C   0  0  0  0  0  0  0  0  0  0  0  0
  -28.6528  -23.1701   15.8941 C   0  0  0  0  0  0  0  0  0  0  0  0
  -29.9255  -14.8980   20.3489 C   0  0  0  0  0  0  0  0  0  0  0  0
  -29.4227  -25.0737   17.3348 C   0  0  0  0  0  0  0  0  0  0  0  0
  -29.5104  -12.5328   19.6545 C   0  0  0  0  0  0  0  0  0  0  0  0
  -27.0962  -23.4842   24.7834 C   0  0  0  0  0  0  0  0  0  0  0  0
  -24.1162  -24.6174   24.1852 C   0  0  0  0  0  0  0  0  0  0  0  0
  -22.1169  -26.6815   22.3442 C   0  0  0  0  0  0  0  0  0  0  0  0
  -28.9842  -20.7982   20.4295 C   0  0  0  0  0  0  0  0  0  0  0  0
  -27.4942  -20.0782   28.5647 C   0  0  0  0  0  0  0  0  0  0  0  0
  -27.4806  -25.9748   24.8572 C   0  0  0  0  0  0  0  0  0  0  0  0
  -25.8982  -25.1781   22.4895 C   0  0  0  0  0  0  0  0  0  0  0  0
  -26.4391  -20.4305   27.5192 C   0  0  0  0  0  0  0  0  0  0  0  0
  -30.3371  -18.8215   23.0638 C   0  0  0  0  0  0  0  0  0  0  0  0
  -27.0708  -20.5250   26.1340 C   0  0  0  0  0  0  0  0  0  0  0  0
  -29.9673  -17.3898   22.6694 C   0  0  0  0  0  0  0  0  0  0  0  0
  -29.2346  -19.8135   22.6972 C   0  0  0  0  0  0  0  0  0  0  0  0
  -28.4258  -18.3324   20.9024 C   0  0  0  0  0  0  0  0  0  0  0  0
  -28.1300  -21.6328   26.0850 C   0  0  1  0  0  0  0  0  0  0  0  0
  -26.4625  -24.8401   24.9164 C   0  0  1  0  0  0  0  0  0  0  0  0
  -29.5332  -17.3062   21.1929 C   0  0  2  0  0  0  0  0  0  0  0  0
  -19.7182  -27.3615   22.0599 C   0  0  0  0  0  0  0  0  0  0  0  0
  -23.5500  -21.9998   22.7232 C   0  0  0  0  0  0  0  0  0  0  0  0
  -21.5571  -23.0961   21.6770 C   0  0  0  0  0  0  0  0  0  0  0  0
  -21.6712  -22.8231   24.1539 C   0  0  0  0  0  0  0  0  0  0  0  0
  -22.7121  -29.4969   23.0360 C   0  0  0  0  0  0  0  0  0  0  0  0
  -31.1572  -26.6842   18.0381 C   0  0  0  0  0  0  0  0  0  0  0  0
  -30.8236  -27.0783   19.4626 C   0  0  0  0  0  0  0  0  0  1  0  0
  -23.1531  -24.5330   23.0258 C   0  0  1  0  0  0  0  0  0  0  0  0
  -21.0366  -27.6660   22.7540 C   0  0  2  0  0  0  0  0  0  0  0  0
  -22.5088  -23.1243   22.8920 C   0  0  0  0  0  0  0  0  0  0  0  0
  -28.2866  -21.8880   15.6707 N   0  0  0  0  0  0  0  0  0  0  0  0
  -27.8260  -15.5492   20.9108 N   0  0  0  0  0  0  0  0  0  0  0  0
  -29.1196  -15.8983   20.8073 N   0  0  0  0  0  0  0  0  0  0  0  0
  -25.4436  -24.9398   23.8694 N   0  0  0  0  0  0  0  0  0  0  0  0
  -28.8782  -19.6797   21.2830 N   0  0  0  0  0  0  0  0  0  0  0  0
  -28.6509  -24.0603   14.7908 N   0  0  0  0  0  0  0  0  0  0  0  0
  -31.2532  -15.0789   20.1850 N   0  0  0  0  0  0  0  0  0  0  0  0
  -28.5312  -26.0223   17.0478 N   0  0  0  0  0  0  0  0  0  0  0  0
  -28.5358  -11.5381   19.4962 N   0  0  0  0  0  0  0  0  0  0  0  0
  -28.6497  -20.5427   19.1001 N   0  0  0  0  0  0  0  0  0  0  0  0
  -27.4989  -22.9313   25.9840 N   0  0  0  0  0  0  0  0  0  0  0  0
  -22.1919  -25.6142   23.2140 N   0  0  0  0  0  0  0  0  0  0  0  0
  -30.6535  -25.3304   17.7936 N   0  3  0  0  0  0  0  0  0  0  0  0
  -21.4425  -29.0563   22.4028 N   0  3  0  0  0  0  0  0  0  0  0  0
  -30.7069  -12.2681   19.3864 O   0  0  0  0  0  0  0  0  0  0  0  0
  -27.2099  -22.9767   23.6738 O   0  0  0  0  0  0  0  0  0  0  0  0
  -23.7043  -24.4121   25.3297 O   0  0  0  0  0  0  0  0  0  0  0  0
  -22.8212  -26.8413   21.3497 O   0  0  0  0  0  0  0  0  0  0  0  0
  -29.3712  -21.8947   20.8417 O   0  0  0  0  0  0  0  0  0  0  0  0
  -23.0352  -11.3898   20.3661 O   0  0  0  0  0  0  0  0  0  0  0  0
  -29.4079  -27.0482   19.6394 O   0  0  0  0  0  0  0  0  0  1  0  0
  -23.0827   -6.2551   22.3752 F   0  0  0  0  0  0  0  0  0  0  0  0
  -24.6876   -9.4574   19.2808 F   0  0  0  0  0  0  0  0  0  0  0  0
  1  2  1  0  0  0  0
  1  5  2  0  0  0  0
  2  6  2  0  0  0  0
  3  8  2  0  0  0  0
  3 17  1  0  0  0  0
  4  9  1  0  0  0  0
  4 17  2  0  0  0  0
  5 20  1  0  0  0  0
  6 22  1  0  0  0  0
  7 10  2  0  0  0  0
  7 21  1  0  0  0  0
  8 25  1  0  0  0  0
  9 25  2  0  0  0  0
 10 26  1  0  0  0  0
 11 12  2  0  0  0  0
 11 27  1  0  0  0  0
 12 28  1  0  0  0  0
 13 18  1  0  0  0  0
 13 24  2  0  0  0  0
 14 23  1  0  0  0  0
 14 26  2  0  0  0  0
 15 28  2  0  0  0  0
 15 29  1  0  0  0  0
 16 24  1  0  0  0  0
 16 61  2  0  0  0  0
 17 30  1  0  0  0  0
 18 31  2  0  0  0  0
 18 33  1  0  0  0  0
 19 30  1  0  0  0  0
 19 32  2  0  0  0  0
 19 34  1  0  0  0  0
 20 22  2  0  0  0  0
 20 39  1  0  0  0  0
 21 23  2  0  0  0  0
 21 40  1  0  0  0  0
 22 48  1  0  0  0  0
 23 41  1  0  0  0  0
 24 70  1  0  0  0  0
 25 80  1  0  0  0  0
 26 81  1  0  0  0  0
 27 29  2  0  0  0  0
 27 80  1  0  0  0  0
 28 82  1  0  0  0  0
 29 83  1  0  0  0  0
 30 62  2  0  0  0  0
 31 61  1  0  0  0  0
 31 66  1  0  0  0  0
 32 63  1  0  0  0  0
 32 67  1  0  0  0  0
 33 68  1  0  0  0  0
 33 73  2  0  0  0  0
 34 69  1  0  0  0  0
 34 75  2  0  0  0  0
 35 49  1  0  0  0  0
 35 71  1  0  0  0  0
 35 76  2  0  0  0  0
 36 58  1  0  0  0  0
 36 64  1  0  0  0  0
 36 77  2  0  0  0  0
 37 59  1  0  0  0  0
 37 72  1  0  0  0  0
 37 78  2  0  0  0  0
 38 65  1  0  0  0  0
 38 70  1  0  0  0  0
 38 79  2  0  0  0  0
 39 42  1  0  0  0  0
 40 49  1  0  0  0  0
 41 64  1  0  0  0  0
 42 44  1  0  0  0  0
 43 45  1  0  0  0  0
 43 46  1  0  0  0  0
 44 48  1  0  0  0  0
 45 50  1  0  0  0  0
 46 65  1  0  0  0  0
 47 50  1  0  0  0  0
 47 65  1  0  0  0  0
 48 71  1  0  0  0  0
 49 64  1  0  0  0  0
 50 63  1  0  0  0  0
 51 59  1  0  0  0  0
 52 60  1  0  0  0  0
 53 60  1  0  0  0  0
 54 60  1  0  0  0  0
 55 74  1  0  0  0  0
 56 57  1  0  0  0  0
 56 73  1  0  0  0  0
 57 81  1  0  0  0  0
 58 60  1  0  0  0  0
 58 72  1  0  0  0  0
 59 74  1  0  0  0  0
 62 63  1  0  0  0  0
M  CHG  2  73   1  74   1
M  ISO  4  38 100  57 101  70 100  81 101
M  END
> <Batch ID>
0156

> <Smiles>
CNC(C)C(=O)NC(C(=O)N1Cc2cc([101O:1][101CH2:1]CNC(=N)c3cc([100NH:0][100C:0](=O)N4CCCC(n5nc(-c6ccc(Oc7ccc(F)cc7F)cc6)c(C(N)=O)c5N)C4)cnc3N)ccc2CC1C(=O)NC1CCCc2ccccc21)C(C)(C)C

> <Shape>
0.233

> <Color>
0.064

> <Negative vol penalty>
0.000

$$$$

  -OEChem-04052303393D

 83 92  0     1  0  0  0  0  0999 V2000
  -18.3248  -32.5645   20.6046 C   0  0  0  0  0  0  0  0  0  0  0  0
  -19.5851  -32.2728   20.0928 C   0  0  0  0  0  0  0  0  0  0  0  0
  -27.3660  -11.3116   20.7096 C   0  0  0  0  0  0  0  0  0  0  0  0
  -26.8600  -12.5041   18.6702 C   0  0  0  0  0  0  0  0  0  0  0  0
  -18.0117  -32.2237   21.9198 C   0  0  0  0  0  0  0  0  0  0  0  0
  -20.5335  -31.6409   20.8964 C   0  0  0  0  0  0  0  0  0  0  0  0
  -24.7539  -27.5787   19.1097 C   0  0  0  0  0  0  0  0  0  0  0  0
  -26.3668  -10.3841   20.4152 C   0  0  0  0  0  0  0  0  0  0  0  0
  -25.8608  -11.5765   18.3757 C   0  0  0  0  0  0  0  0  0  0  0  0
  -26.1081  -27.7061   18.8037 C   0  0  0  0  0  0  0  0  0  0  0  0
  -23.7062   -7.9054   20.3783 C   0  0  0  0  0  0  0  0  0  0  0  0
  -22.8432   -7.5308   21.4081 C   0  0  0  0  0  0  0  0  0  0  0  0
  -30.3751  -22.3318   19.4811 C   0  0  0  0  0  0  0  0  0  0  0  0
  -26.6729  -27.0318   21.0500 C   0  0  0  0  0  0  0  0  0  0  0  0
  -22.1326   -9.8274   21.6482 C   0  0  0  0  0  0  0  0  0  0  0  0
  -27.6126  -12.3717   19.8371 C   0  0  0  0  0  0  0  0  0  0  0  0
  -30.8609  -22.9406   18.2993 C   0  0  0  0  0  0  0  0  0  0  0  0
  -30.0002  -13.2675   19.7675 C   0  0  0  0  0  0  0  0  0  0  0  0
  -18.9535  -31.5787   22.7368 C   0  0  0  0  0  0  0  0  0  0  0  0
  -24.3480  -27.1868   20.3935 C   0  0  0  0  0  0  0  0  0  0  0  0
  -20.2332  -31.2924   22.2242 C   0  0  0  0  0  0  0  0  0  0  0  0
  -25.3130  -26.8977   21.3690 C   0  0  0  0  0  0  0  0  0  0  0  0
  -25.6142  -10.5165   19.2482 C   0  0  0  0  0  0  0  0  0  0  0  0
  -27.0678  -27.4355   19.7748 C   0  0  0  0  0  0  0  0  0  0  0  0
  -23.7825   -9.2411   19.9835 C   0  0  0  0  0  0  0  0  0  0  0  0
  -22.0563   -8.4917   22.0430 C   0  0  0  0  0  0  0  0  0  0  0  0
  -22.9956  -10.2021   20.6184 C   0  0  0  0  0  0  0  0  0  0  0  0
  -28.6443  -13.3305   20.1410 C   0  0  0  0  0  0  0  0  0  0  0  0
  -30.5551  -14.4076   20.2954 C   0  0  0  0  0  0  0  0  0  0  0  0
  -30.1526  -21.0113   19.1670 C   0  0  0  0  0  0  0  0  0  0  0  0
  -30.9009  -21.9486   17.3473 C   0  0  0  0  0  0  0  0  0  0  0  0
  -31.2446  -24.3537   18.1318 C   0  0  0  0  0  0  0  0  0  0  0  0
  -30.6958  -12.2678   19.0109 C   0  0  0  0  0  0  0  0  0  0  0  0
  -22.6352  -28.5272   22.7114 C   0  0  0  0  0  0  0  0  0  0  0  0
  -22.9704  -25.6190   24.1086 C   0  0  0  0  0  0  0  0  0  0  0  0
  -24.7574  -22.7243   24.3809 C   0  0  0  0  0  0  0  0  0  0  0  0
  -29.2913  -19.9557   21.2859 C   0  0  0  0  0  0  0  0  0  0  0  0
  -18.5850  -31.2724   24.1669 C   0  0  0  0  0  0  0  0  0  0  0  0
  -22.8840  -27.0282   20.6998 C   0  0  0  0  0  0  0  0  0  0  0  0
  -24.9299  -26.4539   22.7563 C   0  0  0  0  0  0  0  0  0  0  0  0
  -19.5202  -30.2677   24.8350 C   0  0  0  0  0  0  0  0  0  0  0  0
  -29.2959  -17.5463   23.9074 C   0  0  0  0  0  0  0  0  0  0  0  0
  -20.9764  -30.6286   24.5593 C   0  0  0  0  0  0  0  0  0  0  0  0
  -29.2610  -16.2066   23.1684 C   0  0  0  0  0  0  0  0  0  0  0  0
  -28.4557  -18.6070   23.1985 C   0  0  0  0  0  0  0  0  0  0  0  0
  -28.7322  -17.4575   21.0371 C   0  0  0  0  0  0  0  0  0  0  0  0
  -28.9723  -25.2348   18.7198 C   0  0  0  0  0  0  0  0  0  0  0  0
  -30.4295  -26.7210   18.2623 C   0  0  0  0  0  0  0  0  0  0  0  0
  -21.2805  -30.5855   23.0569 C   0  0  1  0  0  0  0  0  0  0  0  0
  -22.5721  -27.1194   22.1903 C   0  0  1  0  0  0  0  0  0  0  0  0
  -29.6164  -16.3755   21.6782 C   0  0  2  0  0  0  0  0  0  0  0  0
  -28.8997  -26.7428   18.4256 C   0  0  0  0  0  0  0  0  0  1  0  0
  -24.8074  -20.5506   25.6339 C   0  0  0  0  0  0  0  0  0  0  0  0
  -24.0531  -27.0644   26.5680 C   0  0  0  0  0  0  0  0  0  0  0  0
  -24.9514  -24.8713   27.3753 C   0  0  0  0  0  0  0  0  0  0  0  0
  -22.4942  -25.1745   27.0707 C   0  0  0  0  0  0  0  0  0  0  0  0
  -24.4593  -21.1498   21.8928 C   0  0  0  0  0  0  0  0  0  0  0  0
  -23.9818  -24.9882   25.0349 C   0  0  1  0  0  0  0  0  0  0  0  0
  -24.3240  -21.2695   24.3840 C   0  0  2  0  0  0  0  0  0  0  0  0
  -23.8776  -25.5348   26.4868 C   0  0  0  0  0  0  0  0  0  0  0  0
  -28.3555  -14.4241   20.8514 N   0  0  0  0  0  0  0  0  0  0  0  0
  -29.5377  -15.0587   20.9287 N   0  0  0  0  0  0  0  0  0  0  0  0
  -30.3575  -25.2864   18.3356 N   0  0  0  0  0  0  0  0  0  0  0  0
  -23.4857  -26.3197   23.0089 N   0  0  0  0  0  0  0  0  0  0  0  0
  -28.8510  -18.7146   21.7924 N   0  0  0  0  0  0  0  0  0  0  0  0
  -31.8093  -14.9065   20.2752 N   0  0  0  0  0  0  0  0  0  0  0  0
  -31.2766  -21.9529   16.0511 N   0  0  0  0  0  0  0  0  0  0  0  0
  -29.9740  -11.1609   18.5437 N   0  0  0  0  0  0  0  0  0  0  0  0
  -29.6717  -19.9289   19.9446 N   0  0  0  0  0  0  0  0  0  0  0  0
  -21.4421  -29.2175   22.6131 N   0  0  0  0  0  0  0  0  0  0  0  0
  -23.7926  -23.5458   24.9245 N   0  0  0  0  0  0  0  0  0  0  0  0
  -32.4903  -24.6548   17.7771 N   0  3  0  0  0  0  0  0  0  0  0  0
  -24.8740  -20.5626   23.1929 N   0  3  0  0  0  0  0  0  0  0  0  0
  -31.9245  -12.3453   18.7707 O   0  0  0  0  0  0  0  0  0  0  0  0
  -23.6879  -28.9551   23.1702 O   0  0  0  0  0  0  0  0  0  0  0  0
  -21.7673  -25.4886   24.3478 O   0  0  0  0  0  0  0  0  0  0  0  0
  -25.8448  -23.0945   23.9437 O   0  0  0  0  0  0  0  0  0  0  0  0
  -29.3539  -20.9616   21.9975 O   0  0  0  0  0  0  0  0  0  0  0  0
  -30.4708  -20.7695   17.8682 O   0  0  0  0  0  0  0  0  0  0  0  0
  -24.6392   -9.6114   18.9605 O   0  0  0  0  0  0  0  0  0  0  0  0
  -28.3902  -27.5597   19.4790 O   0  0  0  0  0  0  0  0  0  1  0  0
  -21.2265   -8.1315   23.0308 F   0  0  0  0  0  0  0  0  0  0  0  0
  -23.0637  -11.4866   20.2427 F   0  0  0  0  0  0  0  0  0  0  0  0
  1  2  1  0  0  0  0
  1  5  2  0  0  0  0
  2  6  2  0  0  0  0
  3  8  2  0  0  0  0
  3 16  1  0  0  0  0
  4  9  1  0  0  0  0
  4 16  2  0  0  0  0
  5 19  1  0  0  0  0
  6 21  1  0  0  0  0
  7 10  2  0  0  0  0
  7 20  1  0  0  0  0
  8 23  1  0  0  0  0
  9 23  2  0  0  0  0
 10 24  1  0  0  0  0
 11 12  2  0  0  0  0
 11 25  1  0  0  0  0
 12 26  1  0  0  0  0
 13 17  1  0  0  0  0
 13 30  2  0  0  0  0
 14 22  1  0  0  0  0
 14 24  2  0  0  0  0
 15 26  2  0  0  0  0
 15 27  1  0  0  0  0
 16 28  1  0  0  0  0
 17 31  2  0  0  0  0
 17 32  1  0  0  0  0
 18 28  1  0  0  0  0
 18 29  2  0  0  0  0
 18 33  1  0  0  0  0
 19 21  2  0  0  0  0
 19 38  1  0  0  0  0
 20 22  2  0  0  0  0
 20 39  1  0  0  0  0
 21 49  1  0  0  0  0
 22 40  1  0  0  0  0
 23 80  1  0  0  0  0
 24 81  1  0  0  0  0
 25 27  2  0  0  0  0
 25 80  1  0  0  0  0
 26 82  1  0  0  0  0
 27 83  1  0  0  0  0
 28 61  2  0  0  0  0
 29 62  1  0  0  0  0
 29 66  1  0  0  0  0
 30 69  1  0  0  0  0
 30 79  1  0  0  0  0
 31 67  1  0  0  0  0
 31 79  1  0  0  0  0
 32 63  1  0  0  0  0
 32 72  2  0  0  0  0
 33 68  1  0  0  0  0
 33 74  2  0  0  0  0
 34 50  1  0  0  0  0
 34 70  1  0  0  0  0
 34 75  2  0  0  0  0
 35 58  1  0  0  0  0
 35 64  1  0  0  0  0
 35 76  2  0  0  0  0
 36 59  1  0  0  0  0
 36 71  1  0  0  0  0
 36 77  2  0  0  0  0
 37 65  1  0  0  0  0
 37 69  1  0  0  0  0
 37 78  2  0  0  0  0
 38 41  1  0  0  0  0
 39 50  1  0  0  0  0
 40 64  1  0  0  0  0
 41 43  1  0  0  0  0
 42 44  1  0  0  0  0
 42 45  1  0  0  0  0
 43 49  1  0  0  0  0
 44 51  1  0  0  0  0
 45 65  1  0  0  0  0
 46 51  1  0  0  0  0
 46 65  1  0  0  0  0
 47 52  1  0  0  0  0
 47 63  1  0  0  0  0
 48 52  1  0  0  0  0
 48 63  1  0  0  0  0
 49 70  1  0  0  0  0
 50 64  1  0  0  0  0
 51 62  1  0  0  0  0
 52 81  1  0  0  0  0
 53 59  1  0  0  0  0
 54 60  1  0  0  0  0
 55 60  1  0  0  0  0
 56 60  1  0  0  0  0
 57 73  1  0  0  0  0
 58 60  1  0  0  0  0
 58 71  1  0  0  0  0
 59 73  1  0  0  0  0
 61 62  1  0  0  0  0
M  CHG  2  72   1  73   1
M  ISO  4  37 100  52 101  69 100  81 101
M  END
> <Batch ID>
0156

> <Smiles>
CNC(C)C(=O)NC(C(=O)N1Cc2cc([101O:1][101CH:1]3CN(C(=N)c4cc([100NH:0][100C:0](=O)N5CCCC(n6nc(-c7ccc(Oc8ccc(F)cc8F)cc7)c(C(N)=O)c6N)C5)oc4N)C3)ccc2CC1C(=O)NC1CCCc2ccccc21)C(C)(C)C

> <Shape>
0.238

> <Color>
0.079

> <Negative vol penalty>
0.000

$$$$

  -OEChem-04052303393D

 84 93  0     1  0  0  0  0  0999 V2000
  -21.9669  -11.0602   20.5691 C   0  0  0  0  0  0  0  0  0  0  0  0
  -21.7976  -12.2595   21.2535 C   0  0  0  0  0  0  0  0  0  0  0  0
  -28.7192  -27.2979   20.1407 C   0  0  0  0  0  0  0  0  0  0  0  0
  -28.8135  -29.3456   18.8620 C   0  0  0  0  0  0  0  0  0  0  0  0
  -23.2330  -10.6888   20.1185 C   0  0  0  0  0  0  0  0  0  0  0  0
  -22.8946  -13.0876   21.4888 C   0  0  0  0  0  0  0  0  0  0  0  0
  -21.8928  -17.9583   20.5313 C   0  0  0  0  0  0  0  0  0  0  0  0
  -30.0269  -26.9989   19.7585 C   0  0  0  0  0  0  0  0  0  0  0  0
  -30.1213  -29.0466   18.4798 C   0  0  0  0  0  0  0  0  0  0  0  0
  -21.1663  -18.6598   21.4925 C   0  0  0  0  0  0  0  0  0  0  0  0
  -33.1549  -27.9334   20.6390 C   0  0  0  0  0  0  0  0  0  0  0  0
  -34.0310  -27.4803   21.6253 C   0  0  0  0  0  0  0  0  0  0  0  0
  -23.2133  -19.6275   22.3247 C   0  0  0  0  0  0  0  0  0  0  0  0
  -18.9469  -25.1007   22.6100 C   0  0  0  0  0  0  0  0  0  0  0  0
  -34.3447  -25.4213   20.4007 C   0  0  0  0  0  0  0  0  0  0  0  0
  -28.1125  -28.4712   19.6924 C   0  0  0  0  0  0  0  0  0  0  0  0
  -26.3519  -29.5074   21.2203 C   0  0  0  0  0  0  0  0  0  0  0  0
  -24.3444  -11.5173   20.3399 C   0  0  0  0  0  0  0  0  0  0  0  0
  -23.2885  -18.0779   20.4665 C   0  0  0  0  0  0  0  0  0  0  0  0
  -24.1770  -12.7262   21.0420 C   0  0  0  0  0  0  0  0  0  0  0  0
  -23.9549  -18.9285   21.3602 C   0  0  0  0  0  0  0  0  0  0  0  0
  -19.2525  -26.4923   22.4884 C   0  0  0  0  0  0  0  0  0  0  0  0
  -30.7280  -27.8733   18.9280 C   0  0  0  0  0  0  0  0  0  0  0  0
  -21.8268  -19.4923   22.3912 C   0  0  0  0  0  0  0  0  0  0  0  0
  -32.8736  -27.1304   19.5337 C   0  0  0  0  0  0  0  0  0  0  0  0
  -34.6259  -26.2243   21.5061 C   0  0  0  0  0  0  0  0  0  0  0  0
  -33.4685  -25.8744   19.4145 C   0  0  0  0  0  0  0  0  0  0  0  0
  -26.7615  -28.7803   20.0865 C   0  0  0  0  0  0  0  0  0  0  0  0
  -18.7266  -27.2053   23.5509 C   0  0  0  0  0  0  0  0  0  0  0  0
  -24.9807  -29.5224   21.1416 C   0  0  0  0  0  0  0  0  0  0  0  0
  -18.2093  -24.8212   23.7410 C   0  0  0  0  0  0  0  0  0  0  0  0
  -27.1404  -30.1149   22.2522 C   0  0  0  0  0  0  0  0  0  0  0  0
  -25.7299  -16.0705   20.8035 C   0  0  0  0  0  0  0  0  0  0  0  0
  -19.4065  -21.8505   23.6982 C   0  0  0  0  0  0  0  0  0  0  0  0
  -27.4706  -18.6474   19.8805 C   0  0  0  0  0  0  0  0  0  0  0  0
  -28.2489  -22.1704   19.8824 C   0  0  0  0  0  0  0  0  0  0  0  0
  -20.2828  -26.4893   20.2723 C   0  0  0  0  0  0  0  0  0  0  0  0
  -25.7014  -11.0510   19.8754 C   0  0  0  0  0  0  0  0  0  0  0  0
  -24.0549  -17.3352   19.4067 C   0  0  0  0  0  0  0  0  0  0  0  0
  -25.4498  -19.1073   21.3194 C   0  0  0  0  0  0  0  0  0  0  0  0
  -18.8484  -28.6821   23.7446 C   0  0  0  0  0  0  0  0  0  0  0  0
  -26.7472  -12.1624   19.8374 C   0  0  0  0  0  0  0  0  0  0  0  0
  -19.1606  -29.3405   22.3983 C   0  0  0  0  0  0  0  0  0  0  0  0
  -21.8657  -28.1760   17.3959 C   0  0  0  0  0  0  0  0  0  0  0  0
  -26.7016  -12.9825   21.1228 C   0  0  0  0  0  0  0  0  0  0  0  0
  -23.2667  -28.4880   17.9228 C   0  0  0  0  0  0  0  0  0  0  0  0
  -20.2903  -28.6001   21.6717 C   0  0  0  0  0  0  0  0  0  0  0  0
  -21.2761  -26.9279   18.0477 C   0  0  0  0  0  0  0  0  0  0  0  0
  -22.6781  -27.2685   20.0518 C   0  0  0  0  0  0  0  0  0  0  0  0
  -25.3382  -13.6630   21.2949 C   0  0  1  0  0  0  0  0  0  0  0  0
  -25.5248  -17.1343   19.7624 C   0  0  1  0  0  0  0  0  0  0  0  0
  -23.2779  -28.5522   19.4611 C   0  0  1  0  0  0  0  0  0  0  0  0
  -29.9959  -23.4560   18.6203 C   0  0  0  0  0  0  0  0  0  0  0  0
  -29.1629  -18.2452   22.3873 C   0  0  0  0  0  0  0  0  0  0  0  0
  -30.0468  -20.5672   22.0787 C   0  0  0  0  0  0  0  0  0  0  0  0
  -30.4636  -18.8338   20.3339 C   0  0  0  0  0  0  0  0  0  0  0  0
  -26.2330  -24.0076   18.7335 C   0  0  0  0  0  0  0  0  0  0  0  0
  -18.0099  -22.3567   23.4061 C   0  0  0  0  0  0  0  0  0  0  0  0
  -19.7913  -20.5556   23.0095 C   0  0  0  0  0  0  0  0  0  1  0  0
  -28.1404  -19.7965   20.5946 C   0  0  1  0  0  0  0  0  0  0  0  0
  -28.5343  -23.0387   18.6703 C   0  0  2  0  0  0  0  0  0  0  0  0
  -29.4254  -19.3560   21.3509 C   0  0  0  0  0  0  0  0  0  0  0  0
  -25.7337  -28.3635   19.3423 N   0  0  0  0  0  0  0  0  0  0  0  0
  -24.6647  -28.8301   20.0098 N   0  0  0  0  0  0  0  0  0  0  0  0
  -19.9946  -27.1567   21.4819 N   0  0  0  0  0  0  0  0  0  0  0  0
  -26.1556  -18.3549   20.2690 N   0  0  0  0  0  0  0  0  0  0  0  0
  -21.3388  -27.0145   19.5064 N   0  0  0  0  0  0  0  0  0  0  0  0
  -24.0266  -30.0601   21.9309 N   0  0  0  0  0  0  0  0  0  0  0  0
  -28.5356  -30.0044   22.1795 N   0  0  0  0  0  0  0  0  0  0  0  0
  -17.7689  -23.5996   24.1334 N   0  0  0  0  0  0  0  0  0  0  0  0
  -25.2439  -14.8285   20.4421 N   0  0  0  0  0  0  0  0  0  0  0  0
  -28.3637  -20.8283   19.5877 N   0  0  0  0  0  0  0  0  0  0  0  0
  -27.6950  -24.2697   18.7058 N   0  3  0  0  0  0  0  0  0  0  0  0
  -26.6223  -30.7233   23.2191 O   0  0  0  0  0  0  0  0  0  0  0  0
  -26.2891  -16.3551   21.8561 O   0  0  0  0  0  0  0  0  0  0  0  0
  -20.1863  -22.4423   24.4436 O   0  0  0  0  0  0  0  0  0  0  0  0
  -28.0888  -18.0366   19.0051 O   0  0  0  0  0  0  0  0  0  0  0  0
  -27.9572  -22.6363   20.9817 O   0  0  0  0  0  0  0  0  0  0  0  0
  -19.6188  -25.5276   19.8669 O   0  0  0  0  0  0  0  0  0  0  0  0
  -32.0041  -27.5820   18.5550 O   0  0  0  0  0  0  0  0  0  0  0  0
  -21.1128  -20.1848   23.3405 O   0  0  0  0  0  0  0  0  0  1  0  0
  -35.4685  -25.7899   22.4525 F   0  0  0  0  0  0  0  0  0  0  0  0
  -33.2030  -25.0990   18.3543 F   0  0  0  0  0  0  0  0  0  0  0  0
  -17.8873  -26.2248   24.6614 S   0  0  0  0  0  0  0  0  0  0  0  0
  1  2  1  0  0  0  0
  1  5  2  0  0  0  0
  2  6  2  0  0  0  0
  3  8  2  0  0  0  0
  3 16  1  0  0  0  0
  4  9  1  0  0  0  0
  4 16  2  0  0  0  0
  5 18  1  0  0  0  0
  6 20  1  0  0  0  0
  7 10  2  0  0  0  0
  7 19  1  0  0  0  0
  8 23  1  0  0  0  0
  9 23  2  0  0  0  0
 10 24  1  0  0  0  0
 11 12  2  0  0  0  0
 11 25  1  0  0  0  0
 12 26  1  0  0  0  0
 13 21  1  0  0  0  0
 13 24  2  0  0  0  0
 14 22  1  0  0  0  0
 14 31  2  0  0  0  0
 15 26  2  0  0  0  0
 15 27  1  0  0  0  0
 16 28  1  0  0  0  0
 17 28  1  0  0  0  0
 17 30  2  0  0  0  0
 17 32  1  0  0  0  0
 18 20  2  0  0  0  0
 18 38  1  0  0  0  0
 19 21  2  0  0  0  0
 19 39  1  0  0  0  0
 20 50  1  0  0  0  0
 21 40  1  0  0  0  0
 22 29  2  0  0  0  0
 22 65  1  0  0  0  0
 23 80  1  0  0  0  0
 24 81  1  0  0  0  0
 25 27  2  0  0  0  0
 25 80  1  0  0  0  0
 26 82  1  0  0  0  0
 27 83  1  0  0  0  0
 28 63  2  0  0  0  0
 29 41  1  0  0  0  0
 29 84  1  0  0  0  0
 30 64  1  0  0  0  0
 30 68  1  0  0  0  0
 31 70  1  0  0  0  0
 31 84  1  0  0  0  0
 32 69  1  0  0  0  0
 32 74  2  0  0  0  0
 33 51  1  0  0  0  0
 33 71  1  0  0  0  0
 33 75  2  0  0  0  0
 34 58  1  0  0  0  0
 34 59  1  0  0  0  0
 34 76  2  0  0  0  0
 35 60  1  0  0  0  0
 35 66  1  0  0  0  0
 35 77  2  0  0  0  0
 36 61  1  0  0  0  0
 36 72  1  0  0  0  0
 36 78  2  0  0  0  0
 37 65  1  0  0  0  0
 37 67  1  0  0  0  0
 37 79  2  0  0  0  0
 38 42  1  0  0  0  0
 39 51  1  0  0  0  0
 40 66  1  0  0  0  0
 41 43  1  0  0  0  0
 42 45  1  0  0  0  0
 43 47  1  0  0  0  0
 44 46  1  0  0  0  0
 44 48  1  0  0  0  0
 45 50  1  0  0  0  0
 46 52  1  0  0  0  0
 47 65  1  0  0  0  0
 48 67  1  0  0  0  0
 49 52  1  0  0  0  0
 49 67  1  0  0  0  0
 50 71  1  0  0  0  0
 51 66  1  0  0  0  0
 52 64  1  0  0  0  0
 53 61  1  0  0  0  0
 54 62  1  0  0  0  0
 55 62  1  0  0  0  0
 56 62  1  0  0  0  0
 57 73  1  0  0  0  0
 58 70  1  0  0  0  0
 59 81  1  0  0  0  0
 60 62  1  0  0  0  0
 60 72  1  0  0  0  0
 61 73  1  0  0  0  0
 63 64  1  0  0  0  0
M  CHG  1  73   1
M  ISO  4  37 100  59 101  65 100  81 101
M  END
> <Batch ID>
0156

> <Smiles>
CNC(C)C(=O)NC(C(=O)N1Cc2cc([101O:1][101CH2:1]C(=O)CNc3cc4c(s3)CCC[100N:0]4[100C:0](=O)N3CCCC(n4nc(-c5ccc(Oc6ccc(F)cc6F)cc5)c(C(N)=O)c4N)C3)ccc2CC1C(=O)NC1CCCc2ccccc21)C(C)(C)C

> <Shape>
0.248

> <Color>
0.062

> <Negative vol penalty>
0.000

$$$$

  -OEChem-04052303393D

 83 92  0     1  0  0  0  0  0999 V2000
  -31.2692  -24.8304   37.8415 C   0  0  0  0  0  0  0  0  0  0  0  0
  -30.7007  -24.5010   36.6152 C   0  0  0  0  0  0  0  0  0  0  0  0
  -23.0733   -9.8696   19.9416 C   0  0  0  0  0  0  0  0  0  0  0  0
  -23.8313   -9.8776   22.2356 C   0  0  0  0  0  0  0  0  0  0  0  0
  -32.4844  -25.5125   37.8845 C   0  0  0  0  0  0  0  0  0  0  0  0
  -31.3467  -24.8546   35.4311 C   0  0  0  0  0  0  0  0  0  0  0  0
  -31.4322  -21.6802   30.1945 C   0  0  0  0  0  0  0  0  0  0  0  0
  -22.3282   -8.7173   20.1918 C   0  0  0  0  0  0  0  0  0  0  0  0
  -23.0862   -8.7253   22.4858 C   0  0  0  0  0  0  0  0  0  0  0  0
  -30.6945  -21.7934   29.0169 C   0  0  0  0  0  0  0  0  0  0  0  0
  -19.3781   -7.9243   21.6413 C   0  0  0  0  0  0  0  0  0  0  0  0
  -18.0716   -7.8789   21.1550 C   0  0  0  0  0  0  0  0  0  0  0  0
  -32.4679  -23.1044   28.0392 C   0  0  0  0  0  0  0  0  0  0  0  0
  -18.6307   -5.9343   19.8346 C   0  0  0  0  0  0  0  0  0  0  0  0
  -31.7780  -17.5889   21.7425 C   0  0  0  0  0  0  0  0  0  0  0  0
  -23.8249  -10.4498   20.9635 C   0  0  0  0  0  0  0  0  0  0  0  0
  -24.1690  -12.9745   20.8419 C   0  0  0  0  0  0  0  0  0  0  0  0
  -33.1504  -25.8661   36.7004 C   0  0  0  0  0  0  0  0  0  0  0  0
  -32.6906  -22.2885   30.3074 C   0  0  0  0  0  0  0  0  0  0  0  0
  -32.5713  -25.5433   35.4582 C   0  0  0  0  0  0  0  0  0  0  0  0
  -33.2206  -22.9953   29.2185 C   0  0  0  0  0  0  0  0  0  0  0  0
  -22.3347   -8.1452   21.4639 C   0  0  0  0  0  0  0  0  0  0  0  0
  -31.2111  -22.5080   27.9400 C   0  0  0  0  0  0  0  0  0  0  0  0
  -20.3110   -6.9748   21.2242 C   0  0  0  0  0  0  0  0  0  0  0  0
  -17.6979   -6.8839   20.2517 C   0  0  0  0  0  0  0  0  0  0  0  0
  -19.9373   -5.9799   20.3209 C   0  0  0  0  0  0  0  0  0  0  0  0
  -24.5952  -11.6398   20.7055 C   0  0  0  0  0  0  0  0  0  0  0  0
  -25.2621  -13.7228   20.4790 C   0  0  0  0  0  0  0  0  0  0  0  0
  -30.5872  -16.9324   21.9314 C   0  0  0  0  0  0  0  0  0  0  0  0
  -30.5791  -18.7993   22.9756 C   0  0  0  0  0  0  0  0  0  0  0  0
  -29.0068  -20.1100   24.4379 C   0  0  0  0  0  0  0  0  0  0  0  0
  -22.8987  -13.4918   21.2594 C   0  0  0  0  0  0  0  0  0  0  0  0
  -33.9334  -24.5425   32.1725 C   0  0  0  0  0  0  0  0  0  0  0  0
  -36.6859  -23.7271   30.6622 C   0  0  0  0  0  0  0  0  0  0  0  0
  -38.1917  -22.3686   27.9174 C   0  0  0  0  0  0  0  0  0  0  0  0
  -30.7291  -14.7637   20.6574 C   0  0  0  0  0  0  0  0  0  0  0  0
  -34.4385  -26.6446   36.7967 C   0  0  0  0  0  0  0  0  0  0  0  0
  -33.4854  -22.1345   31.5751 C   0  0  0  0  0  0  0  0  0  0  0  0
  -34.5756  -23.6498   29.2816 C   0  0  0  0  0  0  0  0  0  0  0  0
  -35.2439  -26.6526   35.4999 C   0  0  0  0  0  0  0  0  0  0  0  0
  -29.6145  -12.3493   18.2899 C   0  0  0  0  0  0  0  0  0  0  0  0
  -34.3387  -26.9598   34.3112 C   0  0  0  0  0  0  0  0  0  0  0  0
  -28.1742  -12.0593   18.7185 C   0  0  0  0  0  0  0  0  0  0  0  0
  -30.5288  -12.5781   19.4921 C   0  0  0  0  0  0  0  0  0  0  0  0
  -30.7626  -21.1410   24.1753 C   0  0  0  0  0  0  0  0  0  0  0  0
  -28.6214  -13.3051   20.8714 C   0  0  0  0  0  0  0  0  0  0  0  0
  -33.2539  -25.8877   34.1523 C   0  0  1  0  0  0  0  0  0  0  0  0
  -29.4873  -21.4607   24.9559 C   0  0  2  0  0  0  0  0  0  0  0  0
  -34.5330  -23.2279   31.7601 C   0  0  1  0  0  0  0  0  0  0  0  0
  -27.6494  -13.1320   19.6929 C   0  0  2  0  0  0  0  0  0  0  0  0
  -40.4560  -21.8745   26.9548 C   0  0  0  0  0  0  0  0  0  0  0  0
  -37.0316  -26.6778   29.9669 C   0  0  0  0  0  0  0  0  0  0  0  0
  -38.7280  -26.0036   28.2535 C   0  0  0  0  0  0  0  0  0  0  0  0
  -39.1338  -25.5176   30.6663 C   0  0  0  0  0  0  0  0  0  0  0  0
  -27.5976  -18.1728   24.0290 C   0  0  0  0  0  0  0  0  0  0  0  0
  -37.6529  -19.4595   27.8419 C   0  0  0  0  0  0  0  0  0  0  0  0
  -29.6140  -21.5443   26.4647 C   0  0  0  0  0  0  0  0  0  1  0  0
  -37.3932  -24.1831   29.4089 C   0  0  1  0  0  0  0  0  0  0  0  0
  -39.2980  -21.3380   27.7820 C   0  0  2  0  0  0  0  0  0  0  0  0
  -38.0453  -25.5849   29.5731 C   0  0  0  0  0  0  0  0  0  0  0  0
  -31.7667  -18.7847   22.4139 N   0  0  0  0  0  0  0  0  0  0  0  0
  -25.8604  -11.5426   20.2883 N   0  0  0  0  0  0  0  0  0  0  0  0
  -26.2385  -12.8257   20.1594 N   0  0  0  0  0  0  0  0  0  0  0  0
  -30.1326  -19.8872   23.7891 N   0  0  0  0  0  0  0  0  0  0  0  0
  -35.3115  -23.4762   30.5449 N   0  0  0  0  0  0  0  0  0  0  0  0
  -29.9701  -13.6100   20.3684 N   0  0  0  0  0  0  0  0  0  0  0  0
  -25.4737  -15.0540   20.4052 N   0  0  0  0  0  0  0  0  0  0  0  0
  -21.8857  -12.5837   21.5965 N   0  0  0  0  0  0  0  0  0  0  0  0
  -30.0819  -15.6899   21.4747 N   0  0  0  0  0  0  0  0  0  0  0  0
  -33.8050  -24.6980   33.5395 N   0  0  0  0  0  0  0  0  0  0  0  0
  -38.3341  -23.1233   29.0626 N   0  0  0  0  0  0  0  0  0  0  0  0
  -27.8681  -19.4857   24.6238 N   0  3  0  0  0  0  0  0  0  0  0  0
  -38.7804  -20.1060   27.1223 N   0  3  0  0  0  0  0  0  0  0  0  0
  -22.6634  -14.7226   21.3157 O   0  0  0  0  0  0  0  0  0  0  0  0
  -33.6124  -25.3560   31.3141 O   0  0  0  0  0  0  0  0  0  0  0  0
  -37.3306  -23.5914   31.7050 O   0  0  0  0  0  0  0  0  0  0  0  0
  -37.2933  -22.4943   27.0882 O   0  0  0  0  0  0  0  0  0  0  0  0
  -31.8587  -14.9311   20.1906 O   0  0  0  0  0  0  0  0  0  0  0  0
  -29.8026  -17.7087   22.7296 O   0  0  0  0  0  0  0  0  0  0  0  0
  -21.6075   -7.0209   21.7085 O   0  0  0  0  0  0  0  0  0  0  0  0
  -30.4929  -22.6206   26.7896 O   0  0  0  0  0  0  0  0  0  1  0  0
  -16.4427   -6.8394   19.7860 F   0  0  0  0  0  0  0  0  0  0  0  0
  -20.8287   -5.0642   19.9174 F   0  0  0  0  0  0  0  0  0  0  0  0
  1  2  1  0  0  0  0
  1  5  2  0  0  0  0
  2  6  2  0  0  0  0
  3  8  2  0  0  0  0
  3 16  1  0  0  0  0
  4  9  1  0  0  0  0
  4 16  2  0  0  0  0
  5 18  1  0  0  0  0
  6 20  1  0  0  0  0
  7 10  2  0  0  0  0
  7 19  1  0  0  0  0
  8 22  1  0  0  0  0
  9 22  2  0  0  0  0
 10 23  1  0  0  0  0
 11 12  2  0  0  0  0
 11 24  1  0  0  0  0
 12 25  1  0  0  0  0
 13 21  1  0  0  0  0
 13 23  2  0  0  0  0
 14 25  2  0  0  0  0
 14 26  1  0  0  0  0
 15 29  2  0  0  0  0
 15 61  1  0  0  0  0
 16 27  1  0  0  0  0
 17 27  1  0  0  0  0
 17 28  2  0  0  0  0
 17 32  1  0  0  0  0
 18 20  2  0  0  0  0
 18 37  1  0  0  0  0
 19 21  2  0  0  0  0
 19 38  1  0  0  0  0
 20 47  1  0  0  0  0
 21 39  1  0  0  0  0
 22 80  1  0  0  0  0
 23 81  1  0  0  0  0
 24 26  2  0  0  0  0
 24 80  1  0  0  0  0
 25 82  1  0  0  0  0
 26 83  1  0  0  0  0
 27 62  2  0  0  0  0
 28 63  1  0  0  0  0
 28 67  1  0  0  0  0
 29 69  1  0  0  0  0
 29 79  1  0  0  0  0
 30 61  2  0  0  0  0
 30 64  1  0  0  0  0
 30 79  1  0  0  0  0
 31 48  1  0  0  0  0
 31 64  1  0  0  0  0
 31 72  2  0  0  0  0
 32 68  1  0  0  0  0
 32 74  2  0  0  0  0
 33 49  1  0  0  0  0
 33 70  1  0  0  0  0
 33 75  2  0  0  0  0
 34 58  1  0  0  0  0
 34 65  1  0  0  0  0
 34 76  2  0  0  0  0
 35 59  1  0  0  0  0
 35 71  1  0  0  0  0
 35 77  2  0  0  0  0
 36 66  1  0  0  0  0
 36 69  1  0  0  0  0
 36 78  2  0  0  0  0
 37 40  1  0  0  0  0
 38 49  1  0  0  0  0
 39 65  1  0  0  0  0
 40 42  1  0  0  0  0
 41 43  1  0  0  0  0
 41 44  1  0  0  0  0
 42 47  1  0  0  0  0
 43 50  1  0  0  0  0
 44 66  1  0  0  0  0
 45 48  1  0  0  0  0
 45 64  1  0  0  0  0
 46 50  1  0  0  0  0
 46 66  1  0  0  0  0
 47 70  1  0  0  0  0
 48 57  1  0  0  0  0
 49 65  1  0  0  0  0
 50 63  1  0  0  0  0
 51 59  1  0  0  0  0
 52 60  1  0  0  0  0
 53 60  1  0  0  0  0
 54 60  1  0  0  0  0
 55 72  1  0  0  0  0
 56 73  1  0  0  0  0
 57 81  1  0  0  0  0
 58 60  1  0  0  0  0
 58 71  1  0  0  0  0
 59 73  1  0  0  0  0
 62 63  1  0  0  0  0
M  CHG  2  72   1  73   1
M  ISO  4  36 100  57 101  69 100  81 101
M  END
> <Batch ID>
0156

> <Smiles>
CN=C1C([101CH2:1][101O:1]c2ccc3c(c2)CN(C(=O)C(NC(=O)C(C)NC)C(C)(C)C)C(C(=O)NC2CCCc4ccccc42)C3)CN1c1ncc([100NH:0][100C:0](=O)N2CCCC(n3nc(-c4ccc(Oc5ccc(F)cc5F)cc4)c(C(N)=O)c3N)C2)o1

> <Shape>
0.150

> <Color>
0.184

> <Negative vol penalty>
0.000

$$$$

  -OEChem-04052303393D

 84 93  0     1  0  0  0  0  0999 V2000
  -26.1012  -28.9950   11.7935 C   0  0  0  0  0  0  0  0  0  0  0  0
  -25.1850  -28.7220   12.8029 C   0  0  0  0  0  0  0  0  0  0  0  0
  -23.0620   -9.8812   19.8939 C   0  0  0  0  0  0  0  0  0  0  0  0
  -23.8689   -9.7829   22.1690 C   0  0  0  0  0  0  0  0  0  0  0  0
  -27.3079  -28.3003   11.7462 C   0  0  0  0  0  0  0  0  0  0  0  0
  -25.4803  -27.7628   13.7723 C   0  0  0  0  0  0  0  0  0  0  0  0
  -24.3539  -23.2206   20.2597 C   0  0  0  0  0  0  0  0  0  0  0  0
  -22.3278   -8.7140   20.1038 C   0  0  0  0  0  0  0  0  0  0  0  0
  -23.1347   -8.6157   22.3790 C   0  0  0  0  0  0  0  0  0  0  0  0
  -24.7936  -22.0742   20.9203 C   0  0  0  0  0  0  0  0  0  0  0  0
  -19.9226   -7.7748   23.0085 C   0  0  0  0  0  0  0  0  0  0  0  0
  -19.1901   -7.6757   24.1913 C   0  0  0  0  0  0  0  0  0  0  0  0
  -27.0582  -22.9003   20.8339 C   0  0  0  0  0  0  0  0  0  0  0  0
  -20.4537   -5.7114   24.8093 C   0  0  0  0  0  0  0  0  0  0  0  0
  -29.8197  -17.7101   22.9352 C   0  0  0  0  0  0  0  0  0  0  0  0
  -23.8326  -10.4157   20.9265 C   0  0  0  0  0  0  0  0  0  0  0  0
  -24.1624  -12.9453   20.9198 C   0  0  0  0  0  0  0  0  0  0  0  0
  -27.6120  -27.3234   12.7086 C   0  0  0  0  0  0  0  0  0  0  0  0
  -25.2658  -24.2127   19.8711 C   0  0  0  0  0  0  0  0  0  0  0  0
  -26.7032  -27.0679   13.7555 C   0  0  0  0  0  0  0  0  0  0  0  0
  -26.6268  -24.0604   20.1728 C   0  0  0  0  0  0  0  0  0  0  0  0
  -22.3641   -8.0812   21.3463 C   0  0  0  0  0  0  0  0  0  0  0  0
  -26.1462  -21.9129   21.2055 C   0  0  0  0  0  0  0  0  0  0  0  0
  -20.9207   -6.8422   22.7260 C   0  0  0  0  0  0  0  0  0  0  0  0
  -19.4556   -6.6441   25.0918 C   0  0  0  0  0  0  0  0  0  0  0  0
  -21.1862   -5.8105   23.6264 C   0  0  0  0  0  0  0  0  0  0  0  0
  -24.5918  -11.6211   20.7101 C   0  0  0  0  0  0  0  0  0  0  0  0
  -30.5715  -16.8971   22.0394 C   0  0  0  0  0  0  0  0  0  0  0  0
  -25.2440  -13.7163   20.5704 C   0  0  0  0  0  0  0  0  0  0  0  0
  -30.5274  -18.8508   23.2463 C   0  0  0  0  0  0  0  0  0  0  0  0
  -22.8989  -13.4346   21.3886 C   0  0  0  0  0  0  0  0  0  0  0  0
  -27.7027  -19.9330   23.8216 C   0  0  0  0  0  0  0  0  0  0  0  0
  -26.2043  -25.5494   17.1182 C   0  0  0  0  0  0  0  0  0  0  0  0
  -27.8940  -27.4789   19.2337 C   0  0  0  0  0  0  0  0  0  0  0  0
  -27.5176  -30.3168   17.3778 C   0  0  0  0  0  0  0  0  0  0  0  0
  -30.7086  -14.7786   20.6832 C   0  0  0  0  0  0  0  0  0  0  0  0
  -28.9361  -26.6070   12.6144 C   0  0  0  0  0  0  0  0  0  0  0  0
  -24.7667  -25.4561   19.1861 C   0  0  0  0  0  0  0  0  0  0  0  0
  -27.6442  -25.0975   19.7805 C   0  0  0  0  0  0  0  0  0  0  0  0
  -28.9681  -25.3090   13.4146 C   0  0  0  0  0  0  0  0  0  0  0  0
  -29.4410  -20.0466   26.8802 C   0  0  0  0  0  0  0  0  0  0  0  0
  -29.5549  -12.4744   18.2261 C   0  0  0  0  0  0  0  0  0  0  0  0
  -28.4554  -25.5556   14.8256 C   0  0  0  0  0  0  0  0  0  0  0  0
  -28.1255  -12.1560   18.6706 C   0  0  0  0  0  0  0  0  0  0  0  0
  -28.8838  -18.9413   25.9649 C   0  0  0  0  0  0  0  0  0  0  0  0
  -28.9254  -21.0790   25.8617 C   0  0  0  0  0  0  0  0  0  0  0  0
  -30.4937  -12.6504   19.4184 C   0  0  0  0  0  0  0  0  0  0  0  0
  -28.6128  -13.2994   20.8711 C   0  0  0  0  0  0  0  0  0  0  0  0
  -26.9896  -26.0072   14.8030 C   0  0  1  0  0  0  0  0  0  0  0  0
  -25.8532  -26.2095   18.4215 C   0  0  1  0  0  0  0  0  0  0  0  0
  -27.6166  -13.1776   19.7064 C   0  0  2  0  0  0  0  0  0  0  0  0
  -28.9027  -19.9557   24.7858 C   0  0  0  0  0  0  0  0  0  0  0  0
  -27.9498  -32.6616   16.5954 C   0  0  0  0  0  0  0  0  0  0  0  0
  -26.0716  -28.2061   21.5694 C   0  0  0  0  0  0  0  0  0  0  0  0
  -26.1391  -30.5843   20.7898 C   0  0  0  0  0  0  0  0  0  0  0  0
  -28.2403  -29.4501   21.5115 C   0  0  0  0  0  0  0  0  0  0  0  0
  -29.6051  -29.4226   15.4800 C   0  0  0  0  0  0  0  0  0  0  0  0
  -27.7344  -20.9277   22.6762 C   0  0  0  0  0  0  0  0  0  1  0  0
  -27.1745  -28.8021   19.3124 C   0  0  1  0  0  0  0  0  0  0  0  0
  -28.5350  -31.2697   16.7767 C   0  0  2  0  0  0  0  0  0  0  0  0
  -26.8976  -29.2399   20.7783 C   0  0  0  0  0  0  0  0  0  0  0  0
  -25.8481  -11.5512   20.2620 N   0  0  0  0  0  0  0  0  0  0  0  0
  -31.7682  -17.3457   21.6680 N   0  0  0  0  0  0  0  0  0  0  0  0
  -26.2174  -12.8412   20.1873 N   0  0  0  0  0  0  0  0  0  0  0  0
  -27.0978  -26.3272   19.1919 N   0  0  0  0  0  0  0  0  0  0  0  0
  -29.9489  -13.6358   20.3550 N   0  0  0  0  0  0  0  0  0  0  0  0
  -25.4478  -15.0508   20.5565 N   0  0  0  0  0  0  0  0  0  0  0  0
  -21.8975  -12.5056   21.7027 N   0  0  0  0  0  0  0  0  0  0  0  0
  -30.0746  -15.6607   21.5576 N   0  0  0  0  0  0  0  0  0  0  0  0
  -30.1504  -19.8978   24.0830 N   0  0  0  0  0  0  0  0  0  0  0  0
  -26.6053  -26.4299   16.1317 N   0  0  0  0  0  0  0  0  0  0  0  0
  -27.9778  -29.7496   18.5474 N   0  0  0  0  0  0  0  0  0  0  0  0
  -28.9871  -30.7731   15.4463 N   0  3  0  0  0  0  0  0  0  0  0  0
  -22.6592  -14.6599   21.5092 O   0  0  0  0  0  0  0  0  0  0  0  0
  -26.7530  -19.1528   23.9566 O   0  0  0  0  0  0  0  0  0  0  0  0
  -26.1191  -24.3312   17.0157 O   0  0  0  0  0  0  0  0  0  0  0  0
  -29.1280  -27.4636   19.2175 O   0  0  0  0  0  0  0  0  0  0  0  0
  -26.4226  -30.1002   16.8634 O   0  0  0  0  0  0  0  0  0  0  0  0
  -31.8272  -14.9747   20.2013 O   0  0  0  0  0  0  0  0  0  0  0  0
  -21.6476   -6.9423   21.5516 O   0  0  0  0  0  0  0  0  0  0  0  0
  -26.5779  -20.7952   21.8507 O   0  0  0  0  0  0  0  0  0  1  0  0
  -18.7531   -6.5499   26.2283 F   0  0  0  0  0  0  0  0  0  0  0  0
  -22.1446   -4.9122   23.3611 F   0  0  0  0  0  0  0  0  0  0  0  0
  -32.0247  -18.8076   22.4157 S   0  0  0  0  0  0  0  0  0  0  0  0
  1  2  1  0  0  0  0
  1  5  2  0  0  0  0
  2  6  2  0  0  0  0
  3  8  2  0  0  0  0
  3 16  1  0  0  0  0
  4  9  1  0  0  0  0
  4 16  2  0  0  0  0
  5 18  1  0  0  0  0
  6 20  1  0  0  0  0
  7 10  2  0  0  0  0
  7 19  1  0  0  0  0
  8 22  1  0  0  0  0
  9 22  2  0  0  0  0
 10 23  1  0  0  0  0
 11 12  2  0  0  0  0
 11 24  1  0  0  0  0
 12 25  1  0  0  0  0
 13 21  1  0  0  0  0
 13 23  2  0  0  0  0
 14 25  2  0  0  0  0
 14 26  1  0  0  0  0
 15 28  1  0  0  0  0
 15 30  2  0  0  0  0
 16 27  1  0  0  0  0
 17 27  1  0  0  0  0
 17 29  2  0  0  0  0
 17 31  1  0  0  0  0
 18 20  2  0  0  0  0
 18 37  1  0  0  0  0
 19 21  2  0  0  0  0
 19 38  1  0  0  0  0
 20 49  1  0  0  0  0
 21 39  1  0  0  0  0
 22 80  1  0  0  0  0
 23 81  1  0  0  0  0
 24 26  2  0  0  0  0
 24 80  1  0  0  0  0
 25 82  1  0  0  0  0
 26 83  1  0  0  0  0
 27 62  2  0  0  0  0
 28 63  2  0  0  0  0
 28 69  1  0  0  0  0
 29 64  1  0  0  0  0
 29 67  1  0  0  0  0
 30 70  1  0  0  0  0
 30 84  1  0  0  0  0
 31 68  1  0  0  0  0
 31 74  2  0  0  0  0
 32 52  1  0  0  0  0
 32 58  1  0  0  0  0
 32 75  2  0  0  0  0
 33 50  1  0  0  0  0
 33 71  1  0  0  0  0
 33 76  2  0  0  0  0
 34 59  1  0  0  0  0
 34 65  1  0  0  0  0
 34 77  2  0  0  0  0
 35 60  1  0  0  0  0
 35 72  1  0  0  0  0
 35 78  2  0  0  0  0
 36 66  1  0  0  0  0
 36 69  1  0  0  0  0
 36 79  2  0  0  0  0
 37 40  1  0  0  0  0
 38 50  1  0  0  0  0
 39 65  1  0  0  0  0
 40 43  1  0  0  0  0
 41 45  1  0  0  0  0
 41 46  1  0  0  0  0
 42 44  1  0  0  0  0
 42 47  1  0  0  0  0
 43 49  1  0  0  0  0
 44 51  1  0  0  0  0
 45 52  1  0  0  0  0
 46 52  1  0  0  0  0
 47 66  1  0  0  0  0
 48 51  1  0  0  0  0
 48 66  1  0  0  0  0
 49 71  1  0  0  0  0
 50 65  1  0  0  0  0
 51 64  1  0  0  0  0
 52 70  1  0  0  0  0
 53 60  1  0  0  0  0
 54 61  1  0  0  0  0
 55 61  1  0  0  0  0
 56 61  1  0  0  0  0
 57 73  1  0  0  0  0
 58 81  1  0  0  0  0
 59 61  1  0  0  0  0
 59 72  1  0  0  0  0
 60 73  1  0  0  0  0
 62 64  1  0  0  0  0
 63 84  1  0  0  0  0
M  CHG  1  73   1
M  ISO  4  36 100  58 101  69 100  81 101
M  END
> <Batch ID>
0156

> <Smiles>
CNC(C)C(=O)NC(C(=O)N1Cc2cc([101O:1][101CH2:1]C(=O)C3(Nc4cc([100NH:0][100C:0](=O)N5CCCC(n6nc(-c7ccc(Oc8ccc(F)cc8F)cc7)c(C(N)=O)c6N)C5)ns4)CCC3)ccc2CC1C(=O)NC1CCCc2ccccc21)C(C)(C)C

> <Shape>
0.226

> <Color>
0.186

> <Negative vol penalty>
0.000

$$$$

  -OEChem-04052303393D

 85 94  0     1  0  0  0  0  0999 V2000
  -28.9506  -26.2224   15.5357 C   0  0  0  0  0  0  0  0  0  0  0  0
  -27.8571  -26.0395   16.3761 C   0  0  0  0  0  0  0  0  0  0  0  0
  -26.5012  -23.4243   22.3348 C   0  0  0  0  0  0  0  0  0  0  0  0
  -24.4782  -12.0531   21.1963 C   0  0  0  0  0  0  0  0  0  0  0  0
  -22.8076  -13.7800   21.4488 C   0  0  0  0  0  0  0  0  0  0  0  0
  -30.0459  -26.9672   15.9710 C   0  0  0  0  0  0  0  0  0  0  0  0
  -27.8588  -26.6005   17.6527 C   0  0  0  0  0  0  0  0  0  0  0  0
  -25.1327  -23.6939   22.3267 C   0  0  0  0  0  0  0  0  0  0  0  0
  -23.4642  -28.8425   18.7953 C   0  0  0  0  0  0  0  0  0  0  0  0
  -26.9900  -22.2786   21.7069 C   0  0  0  0  0  0  0  0  0  0  0  0
  -23.8263  -11.2817   22.1583 C   0  0  0  0  0  0  0  0  0  0  0  0
  -22.1557  -13.0087   22.4109 C   0  0  0  0  0  0  0  0  0  0  0  0
  -22.4054  -28.0155   19.1680 C   0  0  0  0  0  0  0  0  0  0  0  0
  -22.4014   -8.7019   24.2865 C   0  0  0  0  0  0  0  0  0  0  0  0
  -22.2224   -7.3450   24.0176 C   0  0  0  0  0  0  0  0  0  0  0  0
  -24.7417  -21.6721   21.0631 C   0  0  0  0  0  0  0  0  0  0  0  0
  -22.8391  -28.5156   21.4876 C   0  0  0  0  0  0  0  0  0  0  0  0
  -20.9396   -7.9045   22.0482 C   0  0  0  0  0  0  0  0  0  0  0  0
  -23.9689  -13.3023   20.8415 C   0  0  0  0  0  0  0  0  0  0  0  0
  -24.4216  -14.0901   18.4578 C   0  0  0  0  0  0  0  0  0  0  0  0
  -24.2529  -22.8178   21.6909 C   0  0  0  0  0  0  0  0  0  0  0  0
  -30.0569  -27.5457   17.2500 C   0  0  0  0  0  0  0  0  0  0  0  0
  -24.2265  -29.5048   19.7682 C   0  0  0  0  0  0  0  0  0  0  0  0
  -28.9558  -27.3526   18.1060 C   0  0  0  0  0  0  0  0  0  0  0  0
  -23.9054  -29.3525   21.1246 C   0  0  0  0  0  0  0  0  0  0  0  0
  -26.1103  -21.4025   21.0711 C   0  0  0  0  0  0  0  0  0  0  0  0
  -22.6650  -11.7595   22.7657 C   0  0  0  0  0  0  0  0  0  0  0  0
  -22.0946  -27.8497   20.5144 C   0  0  0  0  0  0  0  0  0  0  0  0
  -21.8493   -9.6602   23.4364 C   0  0  0  0  0  0  0  0  0  0  0  0
  -21.4916   -6.9463   22.8984 C   0  0  0  0  0  0  0  0  0  0  0  0
  -21.1185   -9.2615   22.3172 C   0  0  0  0  0  0  0  0  0  0  0  0
  -24.6422  -14.0998   19.8482 C   0  0  0  0  0  0  0  0  0  0  0  0
  -25.3052  -15.0183   17.9636 C   0  0  0  0  0  0  0  0  0  0  0  0
  -23.5004  -13.3118   17.6825 C   0  0  0  0  0  0  0  0  0  0  0  0
  -27.2806  -29.4471   20.6475 C   0  0  0  0  0  0  0  0  0  0  0  0
  -26.3693  -31.8959   22.5698 C   0  0  0  0  0  0  0  0  0  0  0  0
  -23.8533  -33.4887   24.2370 C   0  0  0  0  0  0  0  0  0  0  0  0
  -27.9359  -19.8244   20.3479 C   0  0  0  0  0  0  0  0  0  0  0  0
  -31.2835  -28.3029   17.6937 C   0  0  0  0  0  0  0  0  0  0  0  0
  -25.3485  -30.4145   19.3486 C   0  0  0  0  0  0  0  0  0  0  0  0
  -24.6802  -30.0573   22.2070 C   0  0  0  0  0  0  0  0  0  0  0  0
  -31.0478  -29.1782   18.9219 C   0  0  0  0  0  0  0  0  0  0  0  0
  -20.6890  -23.5255   23.0714 C   0  0  0  0  0  0  0  0  0  0  0  0
  -29.5602  -17.0070   18.8984 C   0  0  0  0  0  0  0  0  0  0  0  0
  -30.2907  -28.4010   19.9941 C   0  0  0  0  0  0  0  0  0  0  0  0
  -22.1856  -23.2220   23.0982 C   0  0  0  0  0  0  0  0  0  0  0  0
  -28.4617  -15.9429   18.8453 C   0  0  0  0  0  0  0  0  0  0  0  0
  -20.3832  -24.7673   22.2385 C   0  0  0  0  0  0  0  0  0  0  0  0
  -29.4557  -17.8678   20.1561 C   0  0  0  0  0  0  0  0  0  0  0  0
  -27.0407  -17.4132   20.3306 C   0  0  0  0  0  0  0  0  0  0  0  0
  -28.9098  -27.9661   19.4886 C   0  0  1  0  0  0  0  0  0  0  0  0
  -22.7682  -23.1109   21.6825 C   0  0  1  0  0  0  0  0  0  0  0  0
  -26.3822  -30.6350   20.4487 C   0  0  1  0  0  0  0  0  0  0  0  0
  -27.0657  -16.5633   19.0497 C   0  0  2  0  0  0  0  0  0  0  0  0
  -20.9570  -24.6551   20.8270 C   0  0  1  0  0  0  0  0  0  0  0  0
  -23.4223  -35.4407   25.7541 C   0  0  0  0  0  0  0  0  0  0  0  0
  -19.3445  -26.0668   19.5081 C   0  0  0  0  0  0  0  0  0  0  0  0
  -27.5605  -30.3387   24.9078 C   0  0  0  0  0  0  0  0  0  0  0  0
  -26.2878  -31.8337   26.4614 C   0  0  0  0  0  0  0  0  0  0  0  0
  -28.0217  -32.7964   24.9483 C   0  0  0  0  0  0  0  0  0  0  0  0
  -22.0280  -34.7543   22.2812 C   0  0  0  0  0  0  0  0  0  0  0  0
  -25.8261  -32.0077   23.9739 C   0  0  1  0  0  0  0  0  0  0  0  0
  -23.4658  -34.9544   24.3138 C   0  0  2  0  0  0  0  0  0  0  0  0
  -20.7679  -25.9367   20.0283 C   0  0  1  0  0  0  0  0  0  1  0  0
  -26.9105  -31.7292   25.0528 C   0  0  0  0  0  0  0  0  0  0  0  0
  -25.5915  -14.9654   20.2137 N   0  0  0  0  0  0  0  0  0  0  0  0
  -25.9754  -15.5082   19.0457 N   0  0  0  0  0  0  0  0  0  0  0  0
  -25.7721  -30.9309   21.7465 N   0  0  0  0  0  0  0  0  0  0  0  0
  -28.1074  -18.4255   20.2815 N   0  0  0  0  0  0  0  0  0  0  0  0
  -25.5665  -15.4550   16.7132 N   0  0  0  0  0  0  0  0  0  0  0  0
  -22.6652  -12.4052   18.3494 N   0  0  0  0  0  0  0  0  0  0  0  0
  -26.6073  -20.2391   20.4329 N   0  0  0  0  0  0  0  0  0  0  0  0
  -27.9869  -29.0804   19.5179 N   0  0  0  0  0  0  0  0  0  0  0  0
  -25.2126  -33.3278   24.0703 N   0  0  0  0  0  0  0  0  0  0  0  0
  -22.4288  -24.3731   20.9268 N   0  3  0  0  0  0  0  0  0  0  0  0
  -22.1223  -35.1676   23.7050 N   0  3  0  0  0  0  0  0  0  0  0  0
  -23.4318  -13.4052   16.4334 O   0  0  0  0  0  0  0  0  0  0  0  0
  -27.3304  -28.9043   21.7451 O   0  0  0  0  0  0  0  0  0  0  0  0
  -27.2849  -32.6423   22.2144 O   0  0  0  0  0  0  0  0  0  0  0  0
  -23.0328  -32.5775   24.3206 O   0  0  0  0  0  0  0  0  0  0  0  0
  -28.8954  -20.5987   20.3032 O   0  0  0  0  0  0  0  0  0  0  0  0
  -22.0285  -11.0069   23.7043 O   0  0  0  0  0  0  0  0  0  0  0  0
  -21.0621  -27.0425   20.8809 O   0  0  0  0  0  0  0  0  0  1  0  0
  -21.3212   -5.6432   22.6394 F   0  0  0  0  0  0  0  0  0  0  0  0
  -20.5868  -10.1774   21.4961 F   0  0  0  0  0  0  0  0  0  0  0  0
  1  2  1  0  0  0  0
  1  6  2  0  0  0  0
  2  7  2  0  0  0  0
  3  8  2  0  0  0  0
  3 10  1  0  0  0  0
  4 11  2  0  0  0  0
  4 19  1  0  0  0  0
  5 12  1  0  0  0  0
  5 19  2  0  0  0  0
  6 22  1  0  0  0  0
  7 24  1  0  0  0  0
  8 21  1  0  0  0  0
  9 13  2  0  0  0  0
  9 23  1  0  0  0  0
 10 26  2  0  0  0  0
 11 27  1  0  0  0  0
 12 27  2  0  0  0  0
 13 28  1  0  0  0  0
 14 15  2  0  0  0  0
 14 29  1  0  0  0  0
 15 30  1  0  0  0  0
 16 21  2  0  0  0  0
 16 26  1  0  0  0  0
 17 25  1  0  0  0  0
 17 28  2  0  0  0  0
 18 30  2  0  0  0  0
 18 31  1  0  0  0  0
 19 32  1  0  0  0  0
 20 32  1  0  0  0  0
 20 33  2  0  0  0  0
 20 34  1  0  0  0  0
 21 52  1  0  0  0  0
 22 24  2  0  0  0  0
 22 39  1  0  0  0  0
 23 25  2  0  0  0  0
 23 40  1  0  0  0  0
 24 51  1  0  0  0  0
 25 41  1  0  0  0  0
 26 72  1  0  0  0  0
 27 82  1  0  0  0  0
 28 83  1  0  0  0  0
 29 31  2  0  0  0  0
 29 82  1  0  0  0  0
 30 84  1  0  0  0  0
 31 85  1  0  0  0  0
 32 66  2  0  0  0  0
 33 67  1  0  0  0  0
 33 70  1  0  0  0  0
 34 71  1  0  0  0  0
 34 77  2  0  0  0  0
 35 53  1  0  0  0  0
 35 73  1  0  0  0  0
 35 78  2  0  0  0  0
 36 62  1  0  0  0  0
 36 68  1  0  0  0  0
 36 79  2  0  0  0  0
 37 63  1  0  0  0  0
 37 74  1  0  0  0  0
 37 80  2  0  0  0  0
 38 69  1  0  0  0  0
 38 72  1  0  0  0  0
 38 81  2  0  0  0  0
 39 42  1  0  0  0  0
 40 53  1  0  0  0  0
 41 68  1  0  0  0  0
 42 45  1  0  0  0  0
 43 46  1  0  0  0  0
 43 48  1  0  0  0  0
 44 47  1  0  0  0  0
 44 49  1  0  0  0  0
 45 51  1  0  0  0  0
 46 52  1  0  0  0  0
 47 54  1  0  0  0  0
 48 55  1  0  0  0  0
 49 69  1  0  0  0  0
 50 54  1  0  0  0  0
 50 69  1  0  0  0  0
 51 73  1  0  0  0  0
 52 75  1  0  0  0  0
 53 68  1  0  0  0  0
 54 67  1  0  0  0  0
 55 64  1  0  0  0  0
 55 75  1  0  0  0  0
 56 63  1  0  0  0  0
 57 64  1  0  0  0  0
 58 65  1  0  0  0  0
 59 65  1  0  0  0  0
 60 65  1  0  0  0  0
 61 76  1  0  0  0  0
 62 65  1  0  0  0  0
 62 74  1  0  0  0  0
 63 76  1  0  0  0  0
 64 83  1  0  0  0  0
 66 67  1  0  0  0  0
M  CHG  2  75   1  76   1
M  ISO  4  38 100  64 101  72 100  83 101
M  END
> <Batch ID>
0156

> <Smiles>
CNC(C)C(=O)NC(C(=O)N1Cc2cc([101O:1][101CH:1](C)C3CCCC(c4cccc([100NH:0][100C:0](=O)N5CCCC(n6nc(-c7ccc(Oc8ccc(F)cc8F)cc7)c(C(N)=O)c6N)C5)c4)N3)ccc2CC1C(=O)NC1CCCc2ccccc21)C(C)(C)C

> <Shape>
0.244

> <Color>
0.080

> <Negative vol penalty>
0.000

$$$$

  -OEChem-04052303393D

 86 94  0     1  0  0  0  0  0999 V2000
  -31.2949  -18.9793   14.9248 C   0  0  0  0  0  0  0  0  0  0  0  0
  -31.0280  -19.3223   16.2464 C   0  0  0  0  0  0  0  0  0  0  0  0
  -23.0022   -9.8907   19.9806 C   0  0  0  0  0  0  0  0  0  0  0  0
  -23.7267   -9.9430   22.2848 C   0  0  0  0  0  0  0  0  0  0  0  0
  -32.2415  -19.6987   14.1966 C   0  0  0  0  0  0  0  0  0  0  0  0
  -31.7085  -20.3843   16.8409 C   0  0  0  0  0  0  0  0  0  0  0  0
  -28.6385  -23.4222   19.4850 C   0  0  0  0  0  0  0  0  0  0  0  0
  -22.2365   -8.7557   20.2471 C   0  0  0  0  0  0  0  0  0  0  0  0
  -22.9609   -8.8080   22.5513 C   0  0  0  0  0  0  0  0  0  0  0  0
  -28.2386  -22.9819   20.7460 C   0  0  0  0  0  0  0  0  0  0  0  0
  -23.2081   -5.4691   22.0805 C   0  0  0  0  0  0  0  0  0  0  0  0
  -23.7963   -4.4526   22.8331 C   0  0  0  0  0  0  0  0  0  0  0  0
  -31.8146  -17.4824   21.6955 C   0  0  0  0  0  0  0  0  0  0  0  0
  -29.9069  -24.3972   21.7625 C   0  0  0  0  0  0  0  0  0  0  0  0
  -22.0717   -4.6946   24.5078 C   0  0  0  0  0  0  0  0  0  0  0  0
  -23.7474  -10.4844   20.9995 C   0  0  0  0  0  0  0  0  0  0  0  0
  -31.9125  -18.7560   22.3267 C   0  0  0  0  0  0  0  0  0  0  0  0
  -24.1307  -13.0002   20.8228 C   0  0  0  0  0  0  0  0  0  0  0  0
  -32.9270  -20.7761   14.7795 C   0  0  0  0  0  0  0  0  0  0  0  0
  -29.6847  -24.3466   19.3525 C   0  0  0  0  0  0  0  0  0  0  0  0
  -32.6662  -21.1179   16.1203 C   0  0  0  0  0  0  0  0  0  0  0  0
  -30.3164  -24.8495   20.4989 C   0  0  0  0  0  0  0  0  0  0  0  0
  -22.2159   -8.2143   21.5324 C   0  0  0  0  0  0  0  0  0  0  0  0
  -28.8747  -23.4672   21.8848 C   0  0  0  0  0  0  0  0  0  0  0  0
  -22.0518   -6.0984   22.5416 C   0  0  0  0  0  0  0  0  0  0  0  0
  -23.2281   -4.0653   24.0467 C   0  0  0  0  0  0  0  0  0  0  0  0
  -21.4836   -5.7112   23.7552 C   0  0  0  0  0  0  0  0  0  0  0  0
  -24.5390  -11.6565   20.7247 C   0  0  0  0  0  0  0  0  0  0  0  0
  -25.2400  -13.7236   20.4585 C   0  0  0  0  0  0  0  0  0  0  0  0
  -30.5903  -16.8896   21.9134 C   0  0  0  0  0  0  0  0  0  0  0  0
  -30.7592  -19.0883   23.0029 C   0  0  0  0  0  0  0  0  0  0  0  0
  -33.0685  -19.6141   22.2789 C   0  0  0  0  0  0  0  0  0  0  0  0
  -22.8622  -13.5457   21.2088 C   0  0  0  0  0  0  0  0  0  0  0  0
  -32.5523  -24.3076   17.9818 C   0  0  0  0  0  0  0  0  0  0  0  0
  -32.5586  -27.4449   18.8063 C   0  0  0  0  0  0  0  0  0  0  0  0
  -31.3677  -29.9062   20.8485 C   0  0  0  0  0  0  0  0  0  0  0  0
  -29.2165  -20.4952   24.4163 C   0  0  0  0  0  0  0  0  0  0  0  0
  -30.7186  -14.6891   20.6938 C   0  0  0  0  0  0  0  0  0  0  0  0
  -33.9757  -21.4941   13.9675 C   0  0  0  0  0  0  0  0  0  0  0  0
  -30.0863  -24.8317   17.9866 C   0  0  0  0  0  0  0  0  0  0  0  0
  -31.4313  -25.8585   20.4118 C   0  0  0  0  0  0  0  0  0  0  0  0
  -34.3825  -22.8433   14.5543 C   0  0  0  0  0  0  0  0  0  0  0  0
  -29.6029  -12.2347   18.3682 C   0  0  0  0  0  0  0  0  0  0  0  0
  -34.6354  -22.7190   16.0534 C   0  0  0  0  0  0  0  0  0  0  0  0
  -28.1524  -11.9760   18.7820 C   0  0  0  0  0  0  0  0  0  0  0  0
  -30.5029  -12.4791   19.5782 C   0  0  0  0  0  0  0  0  0  0  0  0
  -28.5866  -13.2668   20.9110 C   0  0  0  0  0  0  0  0  0  0  0  0
  -33.3659  -22.2792   16.7925 C   0  0  1  0  0  0  0  0  0  0  0  0
  -31.5068  -25.3862   17.9432 C   0  0  1  0  0  0  0  0  0  0  0  0
  -27.6294  -13.0794   19.7225 C   0  0  2  0  0  0  0  0  0  0  0  0
  -34.2714  -19.1379   21.5048 C   0  0  0  0  0  0  0  0  0  0  0  0
  -31.5865  -32.3639   21.3059 C   0  0  0  0  0  0  0  0  0  0  0  0
  -30.3202  -21.8877   26.2052 C   0  0  0  0  0  0  0  0  0  0  0  0
  -27.8381  -22.0984   25.8162 C   0  0  0  0  0  0  0  0  0  0  0  0
  -35.2310  -26.9466   20.1918 C   0  0  0  0  0  0  0  0  0  0  0  0
  -34.9295  -29.1178   21.4015 C   0  0  0  0  0  0  0  0  0  0  0  0
  -35.1030  -29.0921   18.9131 C   0  0  0  0  0  0  0  0  0  0  0  0
  -28.5130  -30.3922   20.2373 C   0  0  0  0  0  0  0  0  0  0  0  0
  -29.4849  -23.0030   24.1361 C   0  0  0  0  0  0  0  0  0  1  0  0
  -32.9981  -28.2311   20.0178 C   0  0  1  0  0  0  0  0  0  0  0  0
  -30.8231  -31.2905   20.5458 C   0  0  2  0  0  0  0  0  0  0  0  0
  -29.2038  -21.8651   25.1462 C   0  0  0  0  0  0  0  0  0  0  0  0
  -34.5457  -28.3264   20.1329 C   0  0  0  0  0  0  0  0  0  0  0  0
  -25.8084  -11.5309   20.3290 N   0  0  0  0  0  0  0  0  0  0  0  0
  -26.2074  -12.8050   20.1751 N   0  0  0  0  0  0  0  0  0  0  0  0
  -31.7921  -26.2973   19.0535 N   0  0  0  0  0  0  0  0  0  0  0  0
  -29.9468  -13.5399   20.4211 N   0  0  0  0  0  0  0  0  0  0  0  0
  -25.4724  -15.0494   20.3561 N   0  0  0  0  0  0  0  0  0  0  0  0
  -21.8310  -12.6608   21.5523 N   0  0  0  0  0  0  0  0  0  0  0  0
  -30.4156  -20.2358   23.7588 N   0  0  0  0  0  0  0  0  0  0  0  0
  -30.0734  -15.6440   21.4790 N   0  0  0  0  0  0  0  0  0  0  0  0
  -32.4587  -23.3961   16.9475 N   0  0  0  0  0  0  0  0  0  0  0  0
  -32.3246  -29.5224   19.9329 N   0  0  0  0  0  0  0  0  0  0  0  0
  -29.3853  -31.3765   20.9282 N   0  3  0  0  0  0  0  0  0  0  0  0
  -33.1663  -20.7223   22.8285 O   0  0  0  0  0  0  0  0  0  0  0  0
  -22.6444  -14.7809   21.2321 O   0  0  0  0  0  0  0  0  0  0  0  0
  -33.3833  -24.3036   18.8825 O   0  0  0  0  0  0  0  0  0  0  0  0
  -32.8774  -27.8387   17.6816 O   0  0  0  0  0  0  0  0  0  0  0  0
  -30.9854  -29.2343   21.8039 O   0  0  0  0  0  0  0  0  0  0  0  0
  -28.2347  -19.7550   24.4399 O   0  0  0  0  0  0  0  0  0  0  0  0
  -31.8573  -14.8288   20.2401 O   0  0  0  0  0  0  0  0  0  0  0  0
  -21.4686   -7.1069   21.7929 O   0  0  0  0  0  0  0  0  0  0  0  0
  -28.4868  -23.0387   23.1168 O   0  0  0  0  0  0  0  0  0  1  0  0
  -23.7921   -3.0881   24.7686 F   0  0  0  0  0  0  0  0  0  0  0  0
  -20.3721   -6.3113   24.2027 F   0  0  0  0  0  0  0  0  0  0  0  0
  -29.5653  -17.8674   22.8755 S   0  0  0  0  0  0  0  0  0  0  0  0
  1  2  1  0  0  0  0
  1  5  2  0  0  0  0
  2  6  2  0  0  0  0
  3  8  2  0  0  0  0
  3 16  1  0  0  0  0
  4  9  1  0  0  0  0
  4 16  2  0  0  0  0
  5 19  1  0  0  0  0
  6 21  1  0  0  0  0
  7 10  2  0  0  0  0
  7 20  1  0  0  0  0
  8 23  1  0  0  0  0
  9 23  2  0  0  0  0
 10 24  1  0  0  0  0
 11 12  2  0  0  0  0
 11 25  1  0  0  0  0
 12 26  1  0  0  0  0
 13 17  1  0  0  0  0
 13 30  2  0  0  0  0
 14 22  1  0  0  0  0
 14 24  2  0  0  0  0
 15 26  2  0  0  0  0
 15 27  1  0  0  0  0
 16 28  1  0  0  0  0
 17 31  2  0  0  0  0
 17 32  1  0  0  0  0
 18 28  1  0  0  0  0
 18 29  2  0  0  0  0
 18 33  1  0  0  0  0
 19 21  2  0  0  0  0
 19 39  1  0  0  0  0
 20 22  2  0  0  0  0
 20 40  1  0  0  0  0
 21 48  1  0  0  0  0
 22 41  1  0  0  0  0
 23 82  1  0  0  0  0
 24 83  1  0  0  0  0
 25 27  2  0  0  0  0
 25 82  1  0  0  0  0
 26 84  1  0  0  0  0
 27 85  1  0  0  0  0
 28 64  2  0  0  0  0
 29 65  1  0  0  0  0
 29 68  1  0  0  0  0
 30 71  1  0  0  0  0
 30 86  1  0  0  0  0
 31 70  1  0  0  0  0
 31 86  1  0  0  0  0
 32 51  1  0  0  0  0
 32 75  2  0  0  0  0
 33 69  1  0  0  0  0
 33 76  2  0  0  0  0
 34 49  1  0  0  0  0
 34 72  1  0  0  0  0
 34 77  2  0  0  0  0
 35 60  1  0  0  0  0
 35 66  1  0  0  0  0
 35 78  2  0  0  0  0
 36 61  1  0  0  0  0
 36 73  1  0  0  0  0
 36 79  2  0  0  0  0
 37 62  1  0  0  0  0
 37 70  1  0  0  0  0
 37 80  2  0  0  0  0
 38 67  1  0  0  0  0
 38 71  1  0  0  0  0
 38 81  2  0  0  0  0
 39 42  1  0  0  0  0
 40 49  1  0  0  0  0
 41 66  1  0  0  0  0
 42 44  1  0  0  0  0
 43 45  1  0  0  0  0
 43 46  1  0  0  0  0
 44 48  1  0  0  0  0
 45 50  1  0  0  0  0
 46 67  1  0  0  0  0
 47 50  1  0  0  0  0
 47 67  1  0  0  0  0
 48 72  1  0  0  0  0
 49 66  1  0  0  0  0
 50 65  1  0  0  0  0
 52 61  1  0  0  0  0
 53 62  1  0  0  0  0
 54 62  1  0  0  0  0
 55 63  1  0  0  0  0
 56 63  1  0  0  0  0
 57 63  1  0  0  0  0
 58 74  1  0  0  0  0
 59 62  1  0  0  0  0
 59 83  1  0  0  0  0
 60 63  1  0  0  0  0
 60 73  1  0  0  0  0
 61 74  1  0  0  0  0
 64 65  1  0  0  0  0
M  CHG  1  74   1
M  ISO  4  38 100  59 101  71 100  83 101
M  END
> <Batch ID>
0156

> <Smiles>
CNC(C)C(=O)NC(C(=O)N1Cc2cc([101O:1][101CH2:1]C(C)(C)C(=O)Nc3sc([100NH:0][100C:0](=O)N4CCCC(n5nc(-c6ccc(Oc7ccc(F)cc7F)cc6)c(C(N)=O)c5N)C4)cc3C(C)=O)ccc2CC1C(=O)NC1CCCc2ccccc21)C(C)(C)C

> <Shape>
0.231

> <Color>
0.190

> <Negative vol penalty>
0.000

$$$$

  -OEChem-04052303393D

 84 93  0     1  0  0  0  0  0999 V2000
  -26.4557  -37.2298   23.3069 C   0  0  0  0  0  0  0  0  0  0  0  0
  -26.9002  -35.9793   23.7241 C   0  0  0  0  0  0  0  0  0  0  0  0
  -32.0621  -19.0678   17.7235 C   0  0  0  0  0  0  0  0  0  0  0  0
  -23.7395  -12.5121   23.9698 C   0  0  0  0  0  0  0  0  0  0  0  0
  -24.8098  -14.6719   24.1331 C   0  0  0  0  0  0  0  0  0  0  0  0
  -25.1209  -37.4093   22.9463 C   0  0  0  0  0  0  0  0  0  0  0  0
  -26.0099  -34.9077   23.7819 C   0  0  0  0  0  0  0  0  0  0  0  0
  -31.2812  -20.1996   17.9577 C   0  0  0  0  0  0  0  0  0  0  0  0
  -27.1858  -28.9004   19.9844 C   0  0  0  0  0  0  0  0  0  0  0  0
  -31.6295  -17.8180   18.1668 C   0  0  0  0  0  0  0  0  0  0  0  0
  -23.3028  -12.6287   25.2893 C   0  0  0  0  0  0  0  0  0  0  0  0
  -24.3730  -14.7886   25.4526 C   0  0  0  0  0  0  0  0  0  0  0  0
  -27.4490  -27.6378   19.4527 C   0  0  0  0  0  0  0  0  0  0  0  0
  -25.2778  -13.6104   28.4897 C   0  0  0  0  0  0  0  0  0  0  0  0
  -26.1960  -14.0592   29.4390 C   0  0  0  0  0  0  0  0  0  0  0  0
  -29.6351  -18.8318   19.0788 C   0  0  0  0  0  0  0  0  0  0  0  0
  -25.3311  -26.8298   20.2950 C   0  0  0  0  0  0  0  0  0  0  0  0
  -24.7668  -15.9443   29.9300 C   0  0  0  0  0  0  0  0  0  0  0  0
  -24.4931  -13.5337   23.3916 C   0  0  0  0  0  0  0  0  0  0  0  0
  -24.1470  -13.2687   20.8781 C   0  0  0  0  0  0  0  0  0  0  0  0
  -30.0677  -20.0816   18.6354 C   0  0  0  0  0  0  0  0  0  0  0  0
  -24.2159  -36.3370   22.9905 C   0  0  0  0  0  0  0  0  0  0  0  0
  -25.9859  -29.1369   20.6609 C   0  0  0  0  0  0  0  0  0  0  0  0
  -24.6614  -35.0733   23.4228 C   0  0  0  0  0  0  0  0  0  0  0  0
  -25.0564  -28.0958   20.8189 C   0  0  0  0  0  0  0  0  0  0  0  0
  -30.4160  -17.7000   18.8445 C   0  0  0  0  0  0  0  0  0  0  0  0
  -23.6195  -13.7670   26.0307 C   0  0  0  0  0  0  0  0  0  0  0  0
  -26.5241  -26.6050   19.6079 C   0  0  0  0  0  0  0  0  0  0  0  0
  -24.1042  -14.3286   28.2605 C   0  0  0  0  0  0  0  0  0  0  0  0
  -25.9405  -15.2261   30.1592 C   0  0  0  0  0  0  0  0  0  0  0  0
  -23.8487  -15.4955   28.9807 C   0  0  0  0  0  0  0  0  0  0  0  0
  -24.9450  -13.4136   22.0288 C   0  0  0  0  0  0  0  0  0  0  0  0
  -25.0468  -13.1981   19.8429 C   0  0  0  0  0  0  0  0  0  0  0  0
  -27.1603  -23.0839   19.5357 C   0  0  0  0  0  0  0  0  0  0  0  0
  -22.7199  -13.2038   20.7561 C   0  0  0  0  0  0  0  0  0  0  0  0
  -23.8235  -31.5976   22.4898 C   0  0  0  0  0  0  0  0  0  0  0  0
  -21.9633  -29.9219   20.7172 C   0  0  0  0  0  0  0  0  0  0  0  0
  -19.4359  -28.7650   18.7396 C   0  0  0  0  0  0  0  0  0  0  0  0
  -30.6304  -15.2077   19.1430 C   0  0  0  0  0  0  0  0  0  0  0  0
  -22.7720  -36.5907   22.6363 C   0  0  0  0  0  0  0  0  0  0  0  0
  -25.6875  -30.4644   21.3032 C   0  0  0  0  0  0  0  0  0  0  0  0
  -23.7943  -28.3868   21.5840 C   0  0  0  0  0  0  0  0  0  0  0  0
  -28.2679  -22.8940   20.5490 C   0  0  0  0  0  0  0  0  0  0  0  0
  -21.9777  -35.3151   22.3674 C   0  0  0  0  0  0  0  0  0  0  0  0
  -29.0080  -21.5810   20.3795 C   0  0  0  0  0  0  0  0  0  0  0  0
  -29.5318  -11.8323   18.8660 C   0  0  0  0  0  0  0  0  0  0  0  0
  -22.2506  -34.2777   23.4518 C   0  0  0  0  0  0  0  0  0  0  0  0
  -28.1556  -11.8429   19.5355 C   0  0  0  0  0  0  0  0  0  0  0  0
  -27.8471  -21.2110   18.2178 C   0  0  0  0  0  0  0  0  0  0  0  0
  -30.5142  -12.7633   19.5744 C   0  0  0  0  0  0  0  0  0  0  0  0
  -28.6662  -14.1525   20.4253 C   0  0  0  0  0  0  0  0  0  0  0  0
  -29.2189  -21.3126   18.8898 C   0  0  2  0  0  0  0  0  0  0  0  0
  -23.7316  -33.8805   23.4751 C   0  0  1  0  0  0  0  0  0  0  0  0
  -24.1954  -30.8387   21.2500 C   0  0  1  0  0  0  0  0  0  0  0  0
  -27.6239  -13.2792   19.7081 C   0  0  2  0  0  0  0  0  0  0  0  0
  -16.9417  -28.4933   18.6882 C   0  0  0  0  0  0  0  0  0  0  0  0
  -22.1861  -27.5504   22.6225 C   0  0  0  0  0  0  0  0  0  0  0  0
  -19.9530  -26.7715   21.8010 C   0  0  0  0  0  0  0  0  0  0  0  0
  -20.1561  -28.9719   22.9585 C   0  0  0  0  0  0  0  0  0  0  0  0
  -19.1794  -30.5022   16.3573 C   0  0  0  0  0  0  0  0  0  0  0  0
  -26.2299  -24.2496   19.7598 C   0  0  0  0  0  0  0  0  0  1  0  0
  -21.0625  -28.7174   20.6121 C   0  0  1  0  0  0  0  0  0  0  0  0
  -18.1158  -29.3886   18.3239 C   0  0  2  0  0  0  0  0  0  0  0  0
  -20.8609  -28.0070   21.9803 C   0  0  0  0  0  0  0  0  0  0  0  0
  -26.2514  -13.4338   21.7510 N   0  0  0  0  0  0  0  0  0  0  0  0
  -26.9843  -22.3625   18.4845 N   0  0  0  0  0  0  0  0  0  0  0  0
  -26.2810  -13.3006   20.4141 N   0  0  0  0  0  0  0  0  0  0  0  0
  -23.2616  -29.7013   21.1930 N   0  0  0  0  0  0  0  0  0  0  0  0
  -29.9445  -14.1068   19.6982 N   0  0  0  0  0  0  0  0  0  0  0  0
  -24.8947  -13.0588   18.5087 N   0  0  0  0  0  0  0  0  0  0  0  0
  -21.9450  -13.2921   21.9206 N   0  0  0  0  0  0  0  0  0  0  0  0
  -29.9766  -16.4301   19.2941 N   0  0  0  0  0  0  0  0  0  0  0  0
  -24.0254  -32.9614   22.3965 N   0  0  0  0  0  0  0  0  0  0  0  0
  -19.8266  -29.1847   19.9936 N   0  0  0  0  0  0  0  0  0  0  0  0
  -18.0924  -29.6185   16.8516 N   0  3  0  0  0  0  0  0  0  0  0  0
  -22.1494  -13.0550   19.6489 O   0  0  0  0  0  0  0  0  0  0  0  0
  -23.3840  -30.9917   23.4601 O   0  0  0  0  0  0  0  0  0  0  0  0
  -21.5285  -31.0304   20.3924 O   0  0  0  0  0  0  0  0  0  0  0  0
  -20.0565  -27.9808   18.0250 O   0  0  0  0  0  0  0  0  0  0  0  0
  -31.7045  -15.0720   18.5515 O   0  0  0  0  0  0  0  0  0  0  0  0
  -23.1933  -13.8812   27.3183 O   0  0  0  0  0  0  0  0  0  0  0  0
  -26.7854  -25.3761   19.0824 O   0  0  0  0  0  0  0  0  0  1  0  0
  -26.8216  -15.6562   31.0718 F   0  0  0  0  0  0  0  0  0  0  0  0
  -22.7223  -16.1890   28.7658 F   0  0  0  0  0  0  0  0  0  0  0  0
  1  2  1  0  0  0  0
  1  6  2  0  0  0  0
  2  7  2  0  0  0  0
  3  8  2  0  0  0  0
  3 10  1  0  0  0  0
  4 11  2  0  0  0  0
  4 19  1  0  0  0  0
  5 12  1  0  0  0  0
  5 19  2  0  0  0  0
  6 22  1  0  0  0  0
  7 24  1  0  0  0  0
  8 21  1  0  0  0  0
  9 13  2  0  0  0  0
  9 23  1  0  0  0  0
 10 26  2  0  0  0  0
 11 27  1  0  0  0  0
 12 27  2  0  0  0  0
 13 28  1  0  0  0  0
 14 15  2  0  0  0  0
 14 29  1  0  0  0  0
 15 30  1  0  0  0  0
 16 21  2  0  0  0  0
 16 26  1  0  0  0  0
 17 25  1  0  0  0  0
 17 28  2  0  0  0  0
 18 30  2  0  0  0  0
 18 31  1  0  0  0  0
 19 32  1  0  0  0  0
 20 32  1  0  0  0  0
 20 33  2  0  0  0  0
 20 35  1  0  0  0  0
 21 52  1  0  0  0  0
 22 24  2  0  0  0  0
 22 40  1  0  0  0  0
 23 25  2  0  0  0  0
 23 41  1  0  0  0  0
 24 53  1  0  0  0  0
 25 42  1  0  0  0  0
 26 72  1  0  0  0  0
 27 81  1  0  0  0  0
 28 82  1  0  0  0  0
 29 31  2  0  0  0  0
 29 81  1  0  0  0  0
 30 83  1  0  0  0  0
 31 84  1  0  0  0  0
 32 65  2  0  0  0  0
 33 67  1  0  0  0  0
 33 70  1  0  0  0  0
 34 43  1  0  0  0  0
 34 61  1  0  0  0  0
 34 66  2  0  0  0  0
 35 71  1  0  0  0  0
 35 76  2  0  0  0  0
 36 54  1  0  0  0  0
 36 73  1  0  0  0  0
 36 77  2  0  0  0  0
 37 62  1  0  0  0  0
 37 68  1  0  0  0  0
 37 78  2  0  0  0  0
 38 63  1  0  0  0  0
 38 74  1  0  0  0  0
 38 79  2  0  0  0  0
 39 69  1  0  0  0  0
 39 72  1  0  0  0  0
 39 80  2  0  0  0  0
 40 44  1  0  0  0  0
 41 54  1  0  0  0  0
 42 68  1  0  0  0  0
 43 45  1  0  0  0  0
 44 47  1  0  0  0  0
 45 52  1  0  0  0  0
 46 48  1  0  0  0  0
 46 50  1  0  0  0  0
 47 53  1  0  0  0  0
 48 55  1  0  0  0  0
 49 52  1  0  0  0  0
 49 66  1  0  0  0  0
 50 69  1  0  0  0  0
 51 55  1  0  0  0  0
 51 69  1  0  0  0  0
 53 73  1  0  0  0  0
 54 68  1  0  0  0  0
 55 67  1  0  0  0  0
 56 63  1  0  0  0  0
 57 64  1  0  0  0  0
 58 64  1  0  0  0  0
 59 64  1  0  0  0  0
 60 75  1  0  0  0  0
 61 82  1  0  0  0  0
 62 64  1  0  0  0  0
 62 74  1  0  0  0  0
 63 75  1  0  0  0  0
 65 67  1  0  0  0  0
M  CHG  1  75   1
M  ISO  4  39 100  61 101  72 100  82 101
M  END
> <Batch ID>
0156

> <Smiles>
CNC(C)C(=O)NC(C(=O)N1Cc2cc([101O:1][101CH2:1]C3=NCC(c4cccc([100NH:0][100C:0](=O)N5CCCC(n6nc(-c7ccc(Oc8ccc(F)cc8F)cc7)c(C(N)=O)c6N)C5)c4)CC3)ccc2CC1C(=O)NC1CCCc2ccccc21)C(C)(C)C

> <Shape>
0.262

> <Color>
0.080

> <Negative vol penalty>
0.000

$$$$

  -OEChem-04052303393D

 82 90  0     1  0  0  0  0  0999 V2000
  -28.5414  -11.0745   20.4719 C   0  0  0  0  0  0  0  0  0  0  0  0
  -28.7913  -12.3962   20.1170 C   0  0  0  0  0  0  0  0  0  0  0  0
  -19.2866  -28.3991   23.4856 C   0  0  0  0  0  0  0  0  0  0  0  0
  -20.1646  -26.4786   22.3117 C   0  0  0  0  0  0  0  0  0  0  0  0
  -27.2289  -10.6353   20.6405 C   0  0  0  0  0  0  0  0  0  0  0  0
  -27.7286  -13.2794   19.9294 C   0  0  0  0  0  0  0  0  0  0  0  0
  -28.5244  -17.7712   22.1282 C   0  0  0  0  0  0  0  0  0  0  0  0
  -17.9908  -27.9136   23.3108 C   0  0  0  0  0  0  0  0  0  0  0  0
  -18.8687  -25.9931   22.1370 C   0  0  0  0  0  0  0  0  0  0  0  0
  -29.3712  -18.6616   21.4694 C   0  0  0  0  0  0  0  0  0  0  0  0
  -15.8171  -24.0665   21.6966 C   0  0  0  0  0  0  0  0  0  0  0  0
  -15.5920  -22.7125   21.9451 C   0  0  0  0  0  0  0  0  0  0  0  0
  -30.6743  -27.6794   18.6839 C   0  0  0  0  0  0  0  0  0  0  0  0
  -29.7333  -28.7363   18.7142 C   0  0  0  0  0  0  0  0  0  0  0  0
  -27.4512  -19.8396   20.6063 C   0  0  0  0  0  0  0  0  0  0  0  0
  -16.3231  -23.0101   24.2285 C   0  0  0  0  0  0  0  0  0  0  0  0
  -20.3736  -27.6817   22.9860 C   0  0  0  0  0  0  0  0  0  0  0  0
  -22.5807  -27.9215   24.2426 C   0  0  0  0  0  0  0  0  0  0  0  0
  -26.1501  -11.5160   20.4643 C   0  0  0  0  0  0  0  0  0  0  0  0
  -27.1323  -17.9021   22.0220 C   0  0  0  0  0  0  0  0  0  0  0  0
  -26.4004  -12.8513   20.0945 C   0  0  0  0  0  0  0  0  0  0  0  0
  -26.5889  -18.9512   21.2668 C   0  0  0  0  0  0  0  0  0  0  0  0
  -17.7818  -26.7106   22.6365 C   0  0  0  0  0  0  0  0  0  0  0  0
  -28.8346  -19.6942   20.7060 C   0  0  0  0  0  0  0  0  0  0  0  0
  -16.2952  -24.8922   22.7141 C   0  0  0  0  0  0  0  0  0  0  0  0
  -15.8450  -22.1843   23.2110 C   0  0  0  0  0  0  0  0  0  0  0  0
  -16.5482  -24.3640   23.9800 C   0  0  0  0  0  0  0  0  0  0  0  0
  -21.7124  -28.1830   23.1657 C   0  0  0  0  0  0  0  0  0  0  0  0
  -30.0849  -26.6243   19.3407 C   0  0  0  0  0  0  0  0  0  0  0  0
  -23.7214  -28.6252   23.9426 C   0  0  0  0  0  0  0  0  0  0  0  0
  -28.6360  -28.2516   19.3871 C   0  0  0  0  0  0  0  0  0  0  0  0
  -22.3745  -27.1145   25.4096 C   0  0  0  0  0  0  0  0  0  0  0  0
  -30.7094  -25.3021   19.5513 C   0  0  0  0  0  0  0  0  0  0  0  0
  -24.7883  -16.0805   20.8857 C   0  0  0  0  0  0  0  0  0  0  0  0
  -22.9026  -18.4083   22.1300 C   0  0  0  0  0  0  0  0  0  0  0  0
  -30.3276  -22.8643   19.8377 C   0  0  0  0  0  0  0  0  0  0  0  0
  -22.5868  -21.6568   23.1271 C   0  0  0  0  0  0  0  0  0  0  0  0
  -26.9810  -30.1505   19.4250 C   0  0  0  0  0  0  0  0  0  0  0  0
  -24.7467  -10.9834   20.6114 C   0  0  0  0  0  0  0  0  0  0  0  0
  -26.2325  -16.9495   22.7605 C   0  0  0  0  0  0  0  0  0  0  0  0
  -25.1012  -19.1473   21.1373 C   0  0  0  0  0  0  0  0  0  0  0  0
  -23.6925  -12.0774   20.7600 C   0  0  0  0  0  0  0  0  0  0  0  0
  -24.7774  -32.4610   21.0007 C   0  0  0  0  0  0  0  0  0  0  0  0
  -23.9098  -13.1729   19.7211 C   0  0  0  0  0  0  0  0  0  0  0  0
  -23.8464  -31.5693   21.8255 C   0  0  0  0  0  0  0  0  0  0  0  0
  -25.1501  -31.8129   19.6685 C   0  0  0  0  0  0  0  0  0  0  0  0
  -24.7675  -29.5628   20.5956 C   0  0  0  0  0  0  0  0  0  0  0  0
  -25.2753  -13.8457   19.9063 C   0  0  1  0  0  0  0  0  0  0  0  0
  -24.8305  -16.8683   22.1645 C   0  0  1  0  0  0  0  0  0  0  0  0
  -24.4163  -30.1450   21.9745 C   0  0  2  0  0  0  0  0  0  0  0  0
  -20.9145  -23.2757   24.0651 C   0  0  0  0  0  0  0  0  0  0  0  0
  -21.5880  -18.6365   19.3859 C   0  0  0  0  0  0  0  0  0  0  0  0
  -20.6408  -20.8411   20.1003 C   0  0  0  0  0  0  0  0  0  0  0  0
  -20.0021  -18.7585   21.3158 C   0  0  0  0  0  0  0  0  0  0  0  0
  -24.2064  -22.0965   25.5648 C   0  0  0  0  0  0  0  0  0  0  0  0
  -29.1773  -21.8936   19.8686 C   0  0  0  0  0  0  0  0  0  1  0  0
  -22.3268  -19.7059   21.6167 C   0  0  1  0  0  0  0  0  0  0  0  0
  -22.0094  -22.2714   24.3894 C   0  0  2  0  0  0  0  0  0  0  0  0
  -21.1675  -19.4809   20.6054 C   0  0  0  0  0  0  0  0  0  0  0  0
  -22.2550  -28.9900   22.2501 N   0  0  0  0  0  0  0  0  0  0  0  0
  -23.4764  -29.2418   22.7509 N   0  0  0  0  0  0  0  0  0  0  0  0
  -24.2630  -18.1863   21.8730 N   0  0  0  0  0  0  0  0  0  0  0  0
  -25.6867  -30.4681   19.8884 N   0  0  0  0  0  0  0  0  0  0  0  0
  -24.9000  -28.7707   24.5846 N   0  0  0  0  0  0  0  0  0  0  0  0
  -21.1441  -26.4605   25.5609 N   0  0  0  0  0  0  0  0  0  0  0  0
  -27.3969  -28.8527   19.7203 N   0  0  0  0  0  0  0  0  0  0  0  0
  -29.9089  -24.2298   19.6253 N   0  0  0  0  0  0  0  0  0  0  0  0
  -25.2334  -14.7784   21.0120 N   0  0  0  0  0  0  0  0  0  0  0  0
  -21.9502  -20.4796   22.7949 N   0  0  0  0  0  0  0  0  0  0  0  0
  -32.0373  -25.2527   19.6533 N   0  3  0  0  0  0  0  0  0  0  0  0
  -23.0762  -22.9714   25.1594 N   0  3  0  0  0  0  0  0  0  0  0  0
  -23.2492  -26.9906   26.3001 O   0  0  0  0  0  0  0  0  0  0  0  0
  -24.3806  -16.6140   19.8606 O   0  0  0  0  0  0  0  0  0  0  0  0
  -22.1741  -17.6238   22.7427 O   0  0  0  0  0  0  0  0  0  0  0  0
  -31.5050  -22.5645   19.9734 O   0  0  0  0  0  0  0  0  0  0  0  0
  -23.5077  -22.1715   22.4966 O   0  0  0  0  0  0  0  0  0  0  0  0
  -27.6804  -30.9782   18.8353 O   0  0  0  0  0  0  0  0  0  0  0  0
  -28.8422  -26.9649   19.7723 O   0  0  0  0  0  0  0  0  0  0  0  0
  -16.5174  -26.2364   22.4660 O   0  0  0  0  0  0  0  0  0  0  0  0
  -29.6589  -20.5642   20.0613 O   0  0  0  0  0  0  0  0  0  1  0  0
  -15.6274  -20.8844   23.4499 F   0  0  0  0  0  0  0  0  0  0  0  0
  -17.0065  -25.1526   24.9618 F   0  0  0  0  0  0  0  0  0  0  0  0
  1  2  1  0  0  0  0
  1  5  2  0  0  0  0
  2  6  2  0  0  0  0
  3  8  2  0  0  0  0
  3 17  1  0  0  0  0
  4  9  1  0  0  0  0
  4 17  2  0  0  0  0
  5 19  1  0  0  0  0
  6 21  1  0  0  0  0
  7 10  2  0  0  0  0
  7 20  1  0  0  0  0
  8 23  1  0  0  0  0
  9 23  2  0  0  0  0
 10 24  1  0  0  0  0
 11 12  2  0  0  0  0
 11 25  1  0  0  0  0
 12 26  1  0  0  0  0
 13 14  1  0  0  0  0
 13 29  2  0  0  0  0
 14 31  2  0  0  0  0
 15 22  1  0  0  0  0
 15 24  2  0  0  0  0
 16 26  2  0  0  0  0
 16 27  1  0  0  0  0
 17 28  1  0  0  0  0
 18 28  1  0  0  0  0
 18 30  2  0  0  0  0
 18 32  1  0  0  0  0
 19 21  2  0  0  0  0
 19 39  1  0  0  0  0
 20 22  2  0  0  0  0
 20 40  1  0  0  0  0
 21 48  1  0  0  0  0
 22 41  1  0  0  0  0
 23 79  1  0  0  0  0
 24 80  1  0  0  0  0
 25 27  2  0  0  0  0
 25 79  1  0  0  0  0
 26 81  1  0  0  0  0
 27 82  1  0  0  0  0
 28 60  2  0  0  0  0
 29 33  1  0  0  0  0
 29 78  1  0  0  0  0
 30 61  1  0  0  0  0
 30 64  1  0  0  0  0
 31 66  1  0  0  0  0
 31 78  1  0  0  0  0
 32 65  1  0  0  0  0
 32 72  2  0  0  0  0
 33 67  1  0  0  0  0
 33 70  2  0  0  0  0
 34 49  1  0  0  0  0
 34 68  1  0  0  0  0
 34 73  2  0  0  0  0
 35 57  1  0  0  0  0
 35 62  1  0  0  0  0
 35 74  2  0  0  0  0
 36 56  1  0  0  0  0
 36 67  1  0  0  0  0
 36 75  2  0  0  0  0
 37 58  1  0  0  0  0
 37 69  1  0  0  0  0
 37 76  2  0  0  0  0
 38 63  1  0  0  0  0
 38 66  1  0  0  0  0
 38 77  2  0  0  0  0
 39 42  1  0  0  0  0
 40 49  1  0  0  0  0
 41 62  1  0  0  0  0
 42 44  1  0  0  0  0
 43 45  1  0  0  0  0
 43 46  1  0  0  0  0
 44 48  1  0  0  0  0
 45 50  1  0  0  0  0
 46 63  1  0  0  0  0
 47 50  1  0  0  0  0
 47 63  1  0  0  0  0
 48 68  1  0  0  0  0
 49 62  1  0  0  0  0
 50 61  1  0  0  0  0
 51 58  1  0  0  0  0
 52 59  1  0  0  0  0
 53 59  1  0  0  0  0
 54 59  1  0  0  0  0
 55 71  1  0  0  0  0
 56 80  1  0  0  0  0
 57 59  1  0  0  0  0
 57 69  1  0  0  0  0
 58 71  1  0  0  0  0
 60 61  1  0  0  0  0
M  CHG  2  70   1  71   1
M  ISO  4  38 100  56 101  66 100  80 101
M  END
> <Batch ID>
0156

> <Smiles>
CNC(C)C(=O)NC(C(=O)N1Cc2cc([101O:1][101CH2:1]C(=O)NC(=N)c3ccc([100NH:0][100C:0](=O)N4CCCC(n5nc(-c6ccc(Oc7ccc(F)cc7F)cc6)c(C(N)=O)c5N)C4)o3)ccc2CC1C(=O)NC1CCCc2ccccc21)C(C)(C)C

> <Shape>
0.231

> <Color>
0.080

> <Negative vol penalty>
0.000

$$$$

  -OEChem-04052303393D

 82 91  0     1  0  0  0  0  0999 V2000
  -28.0806  -37.9666   19.3279 C   0  0  0  0  0  0  0  0  0  0  0  0
  -28.5324  -36.6630   19.1492 C   0  0  0  0  0  0  0  0  0  0  0  0
  -24.5921   -8.9814   21.3813 C   0  0  0  0  0  0  0  0  0  0  0  0
  -24.4495  -10.2424   23.4372 C   0  0  0  0  0  0  0  0  0  0  0  0
  -27.2045  -38.2626   20.3713 C   0  0  0  0  0  0  0  0  0  0  0  0
  -28.1091  -35.6548   20.0145 C   0  0  0  0  0  0  0  0  0  0  0  0
  -27.0507  -29.7915   18.5977 C   0  0  0  0  0  0  0  0  0  0  0  0
  -24.3521   -7.8027   22.0876 C   0  0  0  0  0  0  0  0  0  0  0  0
  -24.2094   -9.0637   24.1435 C   0  0  0  0  0  0  0  0  0  0  0  0
  -27.8218  -28.6385   18.7387 C   0  0  0  0  0  0  0  0  0  0  0  0
  -21.6922   -6.1931   23.4169 C   0  0  0  0  0  0  0  0  0  0  0  0
  -20.7719   -5.2923   22.8811 C   0  0  0  0  0  0  0  0  0  0  0  0
  -26.6998  -28.1496   20.8175 C   0  0  0  0  0  0  0  0  0  0  0  0
  -28.3383  -20.0229   20.0166 C   0  0  0  0  0  0  0  0  0  0  0  0
  -22.4948   -3.6028   22.7621 C   0  0  0  0  0  0  0  0  0  0  0  0
  -26.1219  -19.6442   20.6052 C   0  0  0  0  0  0  0  0  0  0  0  0
  -24.6409  -10.2012   22.0562 C   0  0  0  0  0  0  0  0  0  0  0  0
  -23.9327  -12.2686   20.7401 C   0  0  0  0  0  0  0  0  0  0  0  0
  -26.7626  -37.2557   21.2439 C   0  0  0  0  0  0  0  0  0  0  0  0
  -26.1044  -30.1385   19.5727 C   0  0  0  0  0  0  0  0  0  0  0  0
  -27.2272  -35.9379   21.0713 C   0  0  0  0  0  0  0  0  0  0  0  0
  -25.9162  -29.3061   20.6853 C   0  0  0  0  0  0  0  0  0  0  0  0
  -27.3563  -19.0664   20.4050 C   0  0  0  0  0  0  0  0  0  0  0  0
  -24.1607   -7.8439   23.4686 C   0  0  0  0  0  0  0  0  0  0  0  0
  -27.6484  -27.8189   19.8501 C   0  0  0  0  0  0  0  0  0  0  0  0
  -23.0139   -5.7988   23.6253 C   0  0  0  0  0  0  0  0  0  0  0  0
  -21.1732   -3.9971   22.5537 C   0  0  0  0  0  0  0  0  0  0  0  0
  -23.4152   -4.5036   23.2979 C   0  0  0  0  0  0  0  0  0  0  0  0
  -24.8894  -11.4190   21.3273 C   0  0  0  0  0  0  0  0  0  0  0  0
  -24.6717  -13.2780   20.1732 C   0  0  0  0  0  0  0  0  0  0  0  0
  -27.8169  -21.2955   19.9345 C   0  0  0  0  0  0  0  0  0  0  0  0
  -30.1284  -23.8772   18.9148 C   0  0  0  0  0  0  0  0  0  0  0  0
  -29.0039  -24.5910   19.0406 C   0  0  0  0  0  0  0  0  0  0  0  0
  -22.5037  -12.1554   20.7098 C   0  0  0  0  0  0  0  0  0  0  0  0
  -25.7167  -32.5995   21.5468 C   0  0  0  0  0  0  0  0  0  0  0  0
  -22.9175  -31.1093   22.2296 C   0  0  0  0  0  0  0  0  0  0  0  0
  -21.1204  -28.2088   22.2961 C   0  0  0  0  0  0  0  0  0  0  0  0
  -28.8032  -17.0042   20.3929 C   0  0  0  0  0  0  0  0  0  0  0  0
  -25.8525  -37.6328   22.3860 C   0  0  0  0  0  0  0  0  0  0  0  0
  -25.2618  -31.3714   19.3926 C   0  0  0  0  0  0  0  0  0  0  0  0
  -24.8993  -29.6234   21.7501 C   0  0  0  0  0  0  0  0  0  0  0  0
  -29.9036  -22.4396   19.2517 C   0  0  0  0  0  0  0  0  0  0  0  0
  -27.8604  -23.7298   19.4811 C   0  0  0  0  0  0  0  0  0  0  0  0
  -25.1574  -36.4368   23.0313 C   0  0  0  0  0  0  0  0  0  0  0  0
  -29.6613  -13.6869   19.4254 C   0  0  0  0  0  0  0  0  0  0  0  0
  -26.1564  -35.3127   23.2867 C   0  0  0  0  0  0  0  0  0  0  0  0
  -28.4176  -12.8710   19.7857 C   0  0  0  0  0  0  0  0  0  0  0  0
  -29.9309  -14.7906   20.4467 C   0  0  0  0  0  0  0  0  0  0  0  0
  -27.5499  -14.8641   21.0747 C   0  0  0  0  0  0  0  0  0  0  0  0
  -26.7712  -34.8122   21.9741 C   0  0  1  0  0  0  0  0  0  0  0  0
  -24.6883  -31.9000   20.7037 C   0  0  1  0  0  0  0  0  0  0  0  0
  -27.2005  -13.7817   20.0403 C   0  0  2  0  0  0  0  0  0  0  0  0
  -18.8727  -27.2984   22.9414 C   0  0  0  0  0  0  0  0  0  0  0  0
  -23.7178  -31.2255   25.1717 C   0  0  0  0  0  0  0  0  0  0  0  0
  -21.9586  -29.5084   25.6461 C   0  0  0  0  0  0  0  0  0  0  0  0
  -21.3103  -31.7340   24.7246 C   0  0  0  0  0  0  0  0  0  0  0  0
  -20.5440  -27.3482   19.5237 C   0  0  0  0  0  0  0  0  0  0  0  0
  -28.8287  -26.0450   18.7936 C   0  0  0  0  0  0  0  0  0  1  0  0
  -22.4779  -30.0649   23.2271 C   0  0  1  0  0  0  0  0  0  0  0  0
  -19.7167  -27.8824   21.8192 C   0  0  2  0  0  0  0  0  0  0  0  0
  -22.3868  -30.6280   24.6735 C   0  0  0  0  0  0  0  0  0  0  0  0
  -26.1407  -11.8510   21.1497 N   0  0  0  0  0  0  0  0  0  0  0  0
  -25.9754  -12.9830   20.4444 N   0  0  0  0  0  0  0  0  0  0  0  0
  -28.4817  -22.4087   19.5955 N   0  0  3  0  0  0  0  0  0  0  0  0
  -24.1042  -30.8431   21.5320 N   0  0  0  0  0  0  0  0  0  0  0  0
  -28.7354  -15.6156   20.6332 N   0  0  0  0  0  0  0  0  0  0  0  0
  -24.3271  -14.3802   19.4741 N   0  0  0  0  0  0  0  0  0  0  0  0
  -21.9070  -11.0560   21.3419 N   0  0  0  0  0  0  0  0  0  0  0  0
  -27.5965  -17.6799   20.5715 N   0  0  0  0  0  0  0  0  0  0  0  0
  -25.8417  -33.9490   21.2774 N   0  0  0  0  0  0  0  0  0  0  0  0
  -21.2249  -29.5170   22.7190 N   0  0  0  0  0  0  0  0  0  0  0  0
  -19.7650  -26.8944   20.7045 N   0  3  0  0  0  0  0  0  0  0  0  0
  -21.7785  -12.9955   20.1251 O   0  0  0  0  0  0  0  0  0  0  0  0
  -26.3489  -31.9622   22.3811 O   0  0  0  0  0  0  0  0  0  0  0  0
  -22.2294  -32.1206   22.0700 O   0  0  0  0  0  0  0  0  0  0  0  0
  -22.0321  -27.3845   22.2972 O   0  0  0  0  0  0  0  0  0  0  0  0
  -29.8479  -17.5493   20.0274 O   0  0  0  0  0  0  0  0  0  0  0  0
  -23.9262   -6.6940   24.1581 O   0  0  0  0  0  0  0  0  0  0  0  0
  -28.4002  -26.6933   19.9905 O   0  0  0  0  0  0  0  0  0  1  0  0
  -20.2889   -3.1317   22.0406 F   0  0  0  0  0  0  0  0  0  0  0  0
  -24.6833   -4.1186   23.4970 F   0  0  0  0  0  0  0  0  0  0  0  0
  -26.1501  -21.3333   20.3251 S   0  0  0  0  0  0  0  0  0  0  0  0
  1  2  1  0  0  0  0
  1  5  2  0  0  0  0
  2  6  2  0  0  0  0
  3  8  2  0  0  0  0
  3 17  1  0  0  0  0
  4  9  1  0  0  0  0
  4 17  2  0  0  0  0
  5 19  1  0  0  0  0
  6 21  1  0  0  0  0
  7 10  2  0  0  0  0
  7 20  1  0  0  0  0
  8 24  1  0  0  0  0
  9 24  2  0  0  0  0
 10 25  1  0  0  0  0
 11 12  2  0  0  0  0
 11 26  1  0  0  0  0
 12 27  1  0  0  0  0
 13 22  1  0  0  0  0
 13 25  2  0  0  0  0
 14 23  1  0  0  0  0
 14 31  2  0  0  0  0
 15 27  2  0  0  0  0
 15 28  1  0  0  0  0
 16 23  2  0  0  0  0
 16 82  1  0  0  0  0
 17 29  1  0  0  0  0
 18 29  1  0  0  0  0
 18 30  2  0  0  0  0
 18 34  1  0  0  0  0
 19 21  2  0  0  0  0
 19 39  1  0  0  0  0
 20 22  2  0  0  0  0
 20 40  1  0  0  0  0
 21 50  1  0  0  0  0
 22 41  1  0  0  0  0
 23 69  1  0  0  0  0
 24 78  1  0  0  0  0
 25 79  1  0  0  0  0
 26 28  2  0  0  0  0
 26 78  1  0  0  0  0
 27 80  1  0  0  0  0
 28 81  1  0  0  0  0
 29 62  2  0  0  0  0
 30 63  1  0  0  0  0
 30 67  1  0  0  0  0
 31 64  1  0  0  0  0
 31 82  1  0  0  0  0
 32 33  2  0  0  0  0
 32 42  1  0  0  0  0
 33 43  1  0  0  0  0
 33 58  1  0  0  0  0
 34 68  1  0  0  0  0
 34 73  2  0  0  0  0
 35 51  1  0  0  0  0
 35 70  1  0  0  0  0
 35 74  2  0  0  0  0
 36 59  1  0  0  0  0
 36 65  1  0  0  0  0
 36 75  2  0  0  0  0
 37 60  1  0  0  0  0
 37 71  1  0  0  0  0
 37 76  2  0  0  0  0
 38 66  1  0  0  0  0
 38 69  1  0  0  0  0
 38 77  2  0  0  0  0
 39 44  1  0  0  0  0
 40 51  1  0  0  0  0
 41 65  1  0  0  0  0
 42 64  1  0  0  0  0
 43 64  1  0  0  0  0
 44 46  1  0  0  0  0
 45 47  1  0  0  0  0
 45 48  1  0  0  0  0
 46 50  1  0  0  0  0
 47 52  1  0  0  0  0
 48 66  1  0  0  0  0
 49 52  1  0  0  0  0
 49 66  1  0  0  0  0
 50 70  1  0  0  0  0
 51 65  1  0  0  0  0
 52 63  1  0  0  0  0
 53 60  1  0  0  0  0
 54 61  1  0  0  0  0
 55 61  1  0  0  0  0
 56 61  1  0  0  0  0
 57 72  1  0  0  0  0
 58 79  1  0  0  0  0
 59 61  1  0  0  0  0
 59 71  1  0  0  0  0
 60 72  1  0  0  0  0
 62 63  1  0  0  0  0
M  CHG  1  72   1
M  ISO  4  38 100  58 101  69 100  79 101
M  END
> <Batch ID>
0156

> <Smiles>
CNC(C)C(=O)NC(C(=O)N1Cc2cc([101O:1][101CH2:1]C3=CCN(c4cc([100NH:0][100C:0](=O)N5CCCC(n6nc(-c7ccc(Oc8ccc(F)cc8F)cc7)c(C(N)=O)c6N)C5)cs4)C3)ccc2CC1C(=O)NC1CCCc2ccccc21)C(C)(C)C

> <Shape>
0.328

> <Color>
0.120

> <Negative vol penalty>
0.000

$$$$

  -OEChem-04052303393D

 85 94  0     1  0  0  0  0  0999 V2000
  -17.0073  -28.2577   20.3265 C   0  0  0  0  0  0  0  0  0  0  0  0
  -18.2868  -28.0790   19.8104 C   0  0  0  0  0  0  0  0  0  0  0  0
  -23.9764  -12.6403   20.7442 C   0  0  0  0  0  0  0  0  0  0  0  0
  -26.3820  -12.4380   20.8394 C   0  0  0  0  0  0  0  0  0  0  0  0
  -16.8068  -29.1120   21.4099 C   0  0  0  0  0  0  0  0  0  0  0  0
  -19.3665  -28.7555   20.3769 C   0  0  0  0  0  0  0  0  0  0  0  0
  -23.4012  -25.7672   21.0374 C   0  0  0  0  0  0  0  0  0  0  0  0
  -23.8621  -11.2517   20.6804 C   0  0  0  0  0  0  0  0  0  0  0  0
  -26.2677  -11.0492   20.7757 C   0  0  0  0  0  0  0  0  0  0  0  0
  -24.1764  -25.4863   19.9131 C   0  0  0  0  0  0  0  0  0  0  0  0
  -24.0074   -8.6393   22.8222 C   0  0  0  0  0  0  0  0  0  0  0  0
  -23.0486   -8.0300   23.6314 C   0  0  0  0  0  0  0  0  0  0  0  0
  -29.6310  -22.0529   21.1696 C   0  0  0  0  0  0  0  0  0  0  0  0
  -30.1636  -23.3615   21.0867 C   0  0  0  0  0  0  0  0  0  0  0  0
  -25.7687  -27.1635   20.5993 C   0  0  0  0  0  0  0  0  0  0  0  0
  -21.9615   -7.1340   21.6686 C   0  0  0  0  0  0  0  0  0  0  0  0
  -25.2364  -13.2335   20.8237 C   0  0  0  0  0  0  0  0  0  0  0  0
  -25.3768  -15.4673   22.0477 C   0  0  0  0  0  0  0  0  0  0  0  0
  -17.8861  -29.7919   21.9961 C   0  0  0  0  0  0  0  0  0  0  0  0
  -23.7991  -26.7577   21.9469 C   0  0  0  0  0  0  0  0  0  0  0  0
  -19.1802  -29.6208   21.4684 C   0  0  0  0  0  0  0  0  0  0  0  0
  -24.9981  -27.4533   21.7357 C   0  0  0  0  0  0  0  0  0  0  0  0
  -25.0077  -10.4561   20.6962 C   0  0  0  0  0  0  0  0  0  0  0  0
  -25.3588  -26.1865   19.6924 C   0  0  0  0  0  0  0  0  0  0  0  0
  -23.9433   -8.4961   21.4361 C   0  0  0  0  0  0  0  0  0  0  0  0
  -22.0256   -7.2773   23.0546 C   0  0  0  0  0  0  0  0  0  0  0  0
  -22.9204   -7.7434   20.8594 C   0  0  0  0  0  0  0  0  0  0  0  0
  -25.3552  -14.6680   20.8890 C   0  0  0  0  0  0  0  0  0  0  0  0
  -25.5043  -16.7512   21.5768 C   0  0  0  0  0  0  0  0  0  0  0  0
  -29.0667  -21.7917   19.9427 C   0  0  0  0  0  0  0  0  0  0  0  0
  -29.8871  -23.8066   19.8149 C   0  0  0  0  0  0  0  0  0  0  0  0
  -25.2894  -15.0835   23.4264 C   0  0  0  0  0  0  0  0  0  0  0  0
  -28.2768  -25.1721   17.7972 C   0  0  0  0  0  0  0  0  0  0  0  0
  -22.5634  -29.5093   22.9495 C   0  0  0  0  0  0  0  0  0  0  0  0
  -25.0732  -29.4395   25.0034 C   0  0  0  0  0  0  0  0  0  0  0  0
  -28.2139  -28.3018   25.7026 C   0  0  0  0  0  0  0  0  0  0  0  0
  -27.8491  -20.4795   18.1702 C   0  0  0  0  0  0  0  0  0  0  0  0
  -17.6132  -30.7414   23.1357 C   0  0  0  0  0  0  0  0  0  0  0  0
  -22.9654  -27.0301   23.1688 C   0  0  0  0  0  0  0  0  0  0  0  0
  -25.4799  -28.5119   22.6926 C   0  0  0  0  0  0  0  0  0  0  0  0
  -18.8656  -31.1318   23.9164 C   0  0  0  0  0  0  0  0  0  0  0  0
  -31.2538  -26.5044   16.3085 C   0  0  0  0  0  0  0  0  0  0  0  0
  -30.8607  -25.1931   15.6518 C   0  0  0  0  0  0  0  0  0  0  0  0
  -25.1243  -18.5883   16.8754 C   0  0  0  0  0  0  0  0  0  0  0  0
  -19.9950  -31.5055   22.9616 C   0  0  0  0  0  0  0  0  0  0  0  0
  -24.9433  -17.4656   17.8995 C   0  0  0  0  0  0  0  0  0  0  0  0
  -30.1952  -26.6998   17.3905 C   0  0  0  0  0  0  0  0  0  0  0  0
  -30.4592  -24.3214   16.8351 C   0  0  0  0  0  0  0  0  0  0  0  0
  -26.5972  -18.9402   16.6741 C   0  0  0  0  0  0  0  0  0  0  0  0
  -27.1557  -18.1220   18.9297 C   0  0  0  0  0  0  0  0  0  0  0  0
  -20.3804  -30.3180   22.0713 C   0  0  1  0  0  0  0  0  0  0  0  0
  -23.2043  -28.4169   23.7580 C   0  0  1  0  0  0  0  0  0  0  0  0
  -25.6848  -17.7771   19.2143 C   0  0  2  0  0  0  0  0  0  0  0  0
  -29.7883  -25.2853   17.8117 C   0  0  0  0  0  0  0  0  0  0  0  0
  -30.0199  -28.4456   27.4390 C   0  0  0  0  0  0  0  0  0  0  0  0
  -25.8026  -32.2308   24.0102 C   0  0  0  0  0  0  0  0  0  0  0  0
  -28.0673  -31.9274   25.0336 C   0  0  0  0  0  0  0  0  0  0  0  0
  -26.0345  -31.9085   26.4793 C   0  0  0  0  0  0  0  0  0  0  0  0
  -28.1099  -25.3895   26.2190 C   0  0  0  0  0  0  0  0  0  0  0  0
  -27.5250  -26.1138   18.7136 C   0  0  0  0  0  0  0  0  0  1  0  0
  -26.4984  -29.9361   24.9672 C   0  0  1  0  0  0  0  0  0  0  0  0
  -28.8026  -27.6742   26.9532 C   0  0  2  0  0  0  0  0  0  0  0  0
  -26.5909  -31.4821   25.1033 C   0  0  0  0  0  0  0  0  0  0  0  0
  -25.4604  -15.3842   19.7665 N   0  0  0  0  0  0  0  0  0  0  0  0
  -25.5492  -16.6470   20.2176 N   0  0  0  0  0  0  0  0  0  0  0  0
  -24.6267  -28.7464   23.8693 N   0  0  0  0  0  0  0  0  0  0  0  0
  -27.2333  -19.2272   17.9616 N   0  0  0  0  0  0  0  0  0  0  0  0
  -25.5811  -17.9479   22.1968 N   0  0  0  0  0  0  0  0  0  0  0  0
  -25.1620  -13.7221   23.7341 N   0  0  0  0  0  0  0  0  0  0  0  0
  -28.3916  -20.6503   19.4434 N   0  0  0  0  0  0  0  0  0  0  0  0
  -30.1658  -25.0021   19.1738 N   0  0  0  0  0  0  0  0  0  0  0  0
  -21.1952  -29.3766   22.8092 N   0  0  0  0  0  0  0  0  0  0  0  0
  -27.2132  -29.2010   26.0051 N   0  0  0  0  0  0  0  0  0  0  0  0
  -29.2148  -26.2679   26.6822 N   0  3  0  0  0  0  0  0  0  0  0  0
  -25.3069  -15.9243   24.3571 O   0  0  0  0  0  0  0  0  0  0  0  0
  -27.7039  -24.3561   17.0766 O   0  0  0  0  0  0  0  0  0  0  0  0
  -23.2587  -30.4069   22.4884 O   0  0  0  0  0  0  0  0  0  0  0  0
  -24.3839  -29.6522   26.0040 O   0  0  0  0  0  0  0  0  0  0  0  0
  -28.6052  -28.0251   24.5709 O   0  0  0  0  0  0  0  0  0  0  0  0
  -27.8682  -21.3473   17.2935 O   0  0  0  0  0  0  0  0  0  0  0  0
  -29.2187  -22.8556   19.1112 O   0  0  0  0  0  0  0  0  0  0  0  0
  -24.8965   -9.1010   20.6342 O   0  0  0  0  0  0  0  0  0  0  0  0
  -26.1169  -25.9147   18.5955 O   0  0  0  0  0  0  0  0  0  1  0  0
  -21.1058   -6.6909   23.8319 F   0  0  0  0  0  0  0  0  0  0  0  0
  -22.8543   -7.6012   19.5285 F   0  0  0  0  0  0  0  0  0  0  0  0
  1  2  1  0  0  0  0
  1  5  2  0  0  0  0
  2  6  2  0  0  0  0
  3  8  2  0  0  0  0
  3 17  1  0  0  0  0
  4  9  1  0  0  0  0
  4 17  2  0  0  0  0
  5 19  1  0  0  0  0
  6 21  1  0  0  0  0
  7 10  2  0  0  0  0
  7 20  1  0  0  0  0
  8 23  1  0  0  0  0
  9 23  2  0  0  0  0
 10 24  1  0  0  0  0
 11 12  2  0  0  0  0
 11 25  1  0  0  0  0
 12 26  1  0  0  0  0
 13 14  1  0  0  0  0
 13 30  2  0  0  0  0
 14 31  2  0  0  0  0
 15 22  1  0  0  0  0
 15 24  2  0  0  0  0
 16 26  2  0  0  0  0
 16 27  1  0  0  0  0
 17 28  1  0  0  0  0
 18 28  1  0  0  0  0
 18 29  2  0  0  0  0
 18 32  1  0  0  0  0
 19 21  2  0  0  0  0
 19 38  1  0  0  0  0
 20 22  2  0  0  0  0
 20 39  1  0  0  0  0
 21 51  1  0  0  0  0
 22 40  1  0  0  0  0
 23 82  1  0  0  0  0
 24 83  1  0  0  0  0
 25 27  2  0  0  0  0
 25 82  1  0  0  0  0
 26 84  1  0  0  0  0
 27 85  1  0  0  0  0
 28 64  2  0  0  0  0
 29 65  1  0  0  0  0
 29 68  1  0  0  0  0
 30 70  1  0  0  0  0
 30 81  1  0  0  0  0
 31 71  1  0  0  0  0
 31 81  1  0  0  0  0
 32 69  1  0  0  0  0
 32 75  2  0  0  0  0
 33 54  1  0  0  0  0
 33 60  1  0  0  0  0
 33 76  2  0  0  0  0
 34 52  1  0  0  0  0
 34 72  1  0  0  0  0
 34 77  2  0  0  0  0
 35 61  1  0  0  0  0
 35 66  1  0  0  0  0
 35 78  2  0  0  0  0
 36 62  1  0  0  0  0
 36 73  1  0  0  0  0
 36 79  2  0  0  0  0
 37 67  1  0  0  0  0
 37 70  1  0  0  0  0
 37 80  2  0  0  0  0
 38 41  1  0  0  0  0
 39 52  1  0  0  0  0
 40 66  1  0  0  0  0
 41 45  1  0  0  0  0
 42 43  1  0  0  0  0
 42 47  1  0  0  0  0
 43 48  1  0  0  0  0
 44 46  1  0  0  0  0
 44 49  1  0  0  0  0
 45 51  1  0  0  0  0
 46 53  1  0  0  0  0
 47 54  1  0  0  0  0
 48 54  1  0  0  0  0
 49 67  1  0  0  0  0
 50 53  1  0  0  0  0
 50 67  1  0  0  0  0
 51 72  1  0  0  0  0
 52 66  1  0  0  0  0
 53 65  1  0  0  0  0
 54 71  1  0  0  0  0
 55 62  1  0  0  0  0
 56 63  1  0  0  0  0
 57 63  1  0  0  0  0
 58 63  1  0  0  0  0
 59 74  1  0  0  0  0
 60 83  1  0  0  0  0
 61 63  1  0  0  0  0
 61 73  1  0  0  0  0
 62 74  1  0  0  0  0
 64 65  1  0  0  0  0
M  CHG  1  74   1
M  ISO  4  37 100  60 101  70 100  83 101
M  END
> <Batch ID>
0156

> <Smiles>
CNC(C)C(=O)NC(C(=O)N1Cc2cc([101O:1][101CH2:1]C(=O)C3(Nc4ccc([100NH:0][100C:0](=O)N5CCCC(n6nc(-c7ccc(Oc8ccc(F)cc8F)cc7)c(C(N)=O)c6N)C5)o4)CCCC3)ccc2CC1C(=O)NC1CCCc2ccccc21)C(C)(C)C

> <Shape>
0.263

> <Color>
0.069

> <Negative vol penalty>
0.000

$$$$

  -OEChem-04052303393D

 82 90  0     1  0  0  0  0  0999 V2000
  -28.7858  -37.9105   21.6176 C   0  0  0  0  0  0  0  0  0  0  0  0
  -29.1651  -36.6411   21.1933 C   0  0  0  0  0  0  0  0  0  0  0  0
  -23.8262   -9.0985   22.4487 C   0  0  0  0  0  0  0  0  0  0  0  0
  -23.1667   -9.7110   20.2066 C   0  0  0  0  0  0  0  0  0  0  0  0
  -27.8457  -38.0514   22.6376 C   0  0  0  0  0  0  0  0  0  0  0  0
  -28.6052  -35.5117   21.7894 C   0  0  0  0  0  0  0  0  0  0  0  0
  -27.2905  -30.1834   19.0716 C   0  0  0  0  0  0  0  0  0  0  0  0
  -23.0732   -7.9285   22.3506 C   0  0  0  0  0  0  0  0  0  0  0  0
  -22.4138   -8.5409   20.1084 C   0  0  0  0  0  0  0  0  0  0  0  0
  -27.9700  -28.9675   19.0130 C   0  0  0  0  0  0  0  0  0  0  0  0
  -23.3916   -4.8723   20.9394 C   0  0  0  0  0  0  0  0  0  0  0  0
  -23.9762   -3.6861   21.3828 C   0  0  0  0  0  0  0  0  0  0  0  0
  -26.6468  -28.1462   20.8552 C   0  0  0  0  0  0  0  0  0  0  0  0
  -22.2016   -3.4159   22.9998 C   0  0  0  0  0  0  0  0  0  0  0  0
  -23.8729   -9.9898   21.3767 C   0  0  0  0  0  0  0  0  0  0  0  0
  -26.0025  -11.3719   21.1269 C   0  0  0  0  0  0  0  0  0  0  0  0
  -27.2669  -36.9232   23.2399 C   0  0  0  0  0  0  0  0  0  0  0  0
  -26.2897  -30.3941   20.0310 C   0  0  0  0  0  0  0  0  0  0  0  0
  -27.6575  -35.6376   22.8193 C   0  0  0  0  0  0  0  0  0  0  0  0
  -25.9542  -29.3648   20.9221 C   0  0  0  0  0  0  0  0  0  0  0  0
  -22.3670   -7.6496   21.1805 C   0  0  0  0  0  0  0  0  0  0  0  0
  -27.6503  -27.9496   19.9068 C   0  0  0  0  0  0  0  0  0  0  0  0
  -22.2120   -5.3305   21.5262 C   0  0  0  0  0  0  0  0  0  0  0  0
  -23.3812   -2.9579   22.4130 C   0  0  0  0  0  0  0  0  0  0  0  0
  -21.6170   -4.6022   22.5564 C   0  0  0  0  0  0  0  0  0  0  0  0
  -24.6501  -11.1989   21.4776 C   0  0  0  0  0  0  0  0  0  0  0  0
  -27.6458  -18.5859   18.7363 C   0  0  0  0  0  0  0  0  0  0  0  0
  -26.6856  -18.8161   19.6901 C   0  0  0  0  0  0  0  0  0  0  0  0
  -26.2644  -12.6904   21.4091 C   0  0  0  0  0  0  0  0  0  0  0  0
  -27.5793  -20.6649   19.2358 C   0  0  0  0  0  0  0  0  0  0  0  0
  -26.9383  -10.4255   20.5936 C   0  0  0  0  0  0  0  0  0  0  0  0
  -25.8978  -32.4087   22.4583 C   0  0  0  0  0  0  0  0  0  0  0  0
  -28.1009  -24.3694   19.5305 C   0  0  0  0  0  0  0  0  0  0  0  0
  -22.9597  -31.0423   22.6094 C   0  0  0  0  0  0  0  0  0  0  0  0
  -20.9781  -28.3494   21.9248 C   0  0  0  0  0  0  0  0  0  0  0  0
  -24.8590  -18.0760   21.2591 C   0  0  0  0  0  0  0  0  0  0  0  0
  -26.2900  -37.1251   24.3711 C   0  0  0  0  0  0  0  0  0  0  0  0
  -25.5476  -31.7019   20.0637 C   0  0  0  0  0  0  0  0  0  0  0  0
  -24.8738  -29.5333   21.9579 C   0  0  0  0  0  0  0  0  0  0  0  0
  -25.4662  -35.8811   24.6939 C   0  0  0  0  0  0  0  0  0  0  0  0
  -23.5289  -16.1267   23.9253 C   0  0  0  0  0  0  0  0  0  0  0  0
  -26.3646  -34.6506   24.7687 C   0  0  0  0  0  0  0  0  0  0  0  0
  -23.8133  -14.6851   23.4973 C   0  0  0  0  0  0  0  0  0  0  0  0
  -23.1659  -17.0109   22.7336 C   0  0  0  0  0  0  0  0  0  0  0  0
  -24.4132  -15.5436   21.1973 C   0  0  0  0  0  0  0  0  0  0  0  0
  -27.0543  -34.3885   23.4244 C   0  0  1  0  0  0  0  0  0  0  0  0
  -24.9010  -31.9884   21.4155 C   0  0  1  0  0  0  0  0  0  0  0  0
  -24.8467  -14.6298   22.3551 C   0  0  2  0  0  0  0  0  0  0  0  0
  -28.1394  -17.4016   18.0244 C   0  0  0  0  0  0  0  0  0  0  0  0
  -18.6293  -27.5107   22.2025 C   0  0  0  0  0  0  0  0  0  0  0  0
  -23.5141  -30.4720   25.5552 C   0  0  0  0  0  0  0  0  0  0  0  0
  -21.6128  -28.8433   25.5258 C   0  0  0  0  0  0  0  0  0  0  0  0
  -21.1913  -31.2582   25.0640 C   0  0  0  0  0  0  0  0  0  0  0  0
  -20.5834  -28.1405   18.9992 C   0  0  0  0  0  0  0  0  0  0  0  0
  -27.4199  -23.0667   19.8929 C   0  0  0  0  0  0  0  0  0  0  0  0
  -27.5939  -25.5984   20.2597 C   0  0  0  0  0  0  0  0  0  1  0  0
  -22.3701  -29.8511   23.3254 C   0  0  1  0  0  0  0  0  0  0  0  0
  -19.6015  -28.2463   21.2934 C   0  0  2  0  0  0  0  0  0  0  0  0
  -22.1938  -30.1033   24.8494 C   0  0  0  0  0  0  0  0  0  0  0  0
  -24.0919  -12.3179   21.9469 N   0  0  0  0  0  0  0  0  0  0  0  0
  -26.6479  -20.1501   20.0063 N   0  0  0  0  0  0  0  0  0  0  0  0
  -25.0985  -13.2067   21.8932 N   0  0  0  0  0  0  0  0  0  0  0  0
  -24.1812  -30.8325   21.9540 N   0  0  0  0  0  0  0  0  0  0  0  0
  -24.1920  -16.9110   21.6934 N   0  0  0  0  0  0  0  0  0  0  0  0
  -27.3759  -13.4468   21.2880 N   0  0  0  0  0  0  0  0  0  0  0  0
  -26.5036   -9.1131   20.3638 N   0  0  0  0  0  0  0  0  0  0  0  0
  -25.8368  -17.8532   20.2902 N   0  0  0  0  0  0  0  0  0  0  0  0
  -27.9886  -21.9863   19.1282 N   0  0  0  0  0  0  0  0  0  0  0  0
  -26.1328  -33.7698   22.4957 N   0  0  0  0  0  0  0  0  0  0  0  0
  -21.1315  -29.5266   22.6262 N   0  0  0  0  0  0  0  0  0  0  0  0
  -19.6794  -27.5140   19.9978 N   0  3  0  0  0  0  0  0  0  0  0  0
  -28.1292  -10.7304   20.3442 O   0  0  0  0  0  0  0  0  0  0  0  0
  -26.4142  -31.5609   23.1768 O   0  0  0  0  0  0  0  0  0  0  0  0
  -29.0067  -24.4383   18.7006 O   0  0  0  0  0  0  0  0  0  0  0  0
  -22.3549  -32.1173   22.6250 O   0  0  0  0  0  0  0  0  0  0  0  0
  -21.8307  -27.4716   21.8107 O   0  0  0  0  0  0  0  0  0  0  0  0
  -24.6020  -19.1857   21.7329 O   0  0  0  0  0  0  0  0  0  0  0  0
  -28.2313  -19.7783   18.4347 O   0  0  0  0  0  0  0  0  0  0  0  0
  -21.6323   -6.5079   21.0843 O   0  0  0  0  0  0  0  0  0  0  0  0
  -28.3125  -26.7621   19.8523 O   0  0  0  0  0  0  0  0  0  1  0  0
  -23.9420   -1.8180   22.8377 F   0  0  0  0  0  0  0  0  0  0  0  0
  -20.4830   -5.0367   23.1232 F   0  0  0  0  0  0  0  0  0  0  0  0
  1  2  1  0  0  0  0
  1  5  2  0  0  0  0
  2  6  2  0  0  0  0
  3  8  2  0  0  0  0
  3 15  1  0  0  0  0
  4  9  1  0  0  0  0
  4 15  2  0  0  0  0
  5 17  1  0  0  0  0
  6 19  1  0  0  0  0
  7 10  2  0  0  0  0
  7 18  1  0  0  0  0
  8 21  1  0  0  0  0
  9 21  2  0  0  0  0
 10 22  1  0  0  0  0
 11 12  2  0  0  0  0
 11 23  1  0  0  0  0
 12 24  1  0  0  0  0
 13 20  1  0  0  0  0
 13 22  2  0  0  0  0
 14 24  2  0  0  0  0
 14 25  1  0  0  0  0
 15 26  1  0  0  0  0
 16 26  1  0  0  0  0
 16 29  2  0  0  0  0
 16 31  1  0  0  0  0
 17 19  2  0  0  0  0
 17 37  1  0  0  0  0
 18 20  2  0  0  0  0
 18 38  1  0  0  0  0
 19 46  1  0  0  0  0
 20 39  1  0  0  0  0
 21 79  1  0  0  0  0
 22 80  1  0  0  0  0
 23 25  2  0  0  0  0
 23 79  1  0  0  0  0
 24 81  1  0  0  0  0
 25 82  1  0  0  0  0
 26 60  2  0  0  0  0
 27 28  2  0  0  0  0
 27 49  1  0  0  0  0
 27 78  1  0  0  0  0
 28 61  1  0  0  0  0
 28 67  1  0  0  0  0
 29 62  1  0  0  0  0
 29 65  1  0  0  0  0
 30 61  2  0  0  0  0
 30 68  1  0  0  0  0
 30 78  1  0  0  0  0
 31 66  1  0  0  0  0
 31 72  2  0  0  0  0
 32 47  1  0  0  0  0
 32 69  1  0  0  0  0
 32 73  2  0  0  0  0
 33 55  1  0  0  0  0
 33 56  1  0  0  0  0
 33 74  2  0  0  0  0
 34 57  1  0  0  0  0
 34 63  1  0  0  0  0
 34 75  2  0  0  0  0
 35 58  1  0  0  0  0
 35 70  1  0  0  0  0
 35 76  2  0  0  0  0
 36 64  1  0  0  0  0
 36 67  1  0  0  0  0
 36 77  2  0  0  0  0
 37 40  1  0  0  0  0
 38 47  1  0  0  0  0
 39 63  1  0  0  0  0
 40 42  1  0  0  0  0
 41 43  1  0  0  0  0
 41 44  1  0  0  0  0
 42 46  1  0  0  0  0
 43 48  1  0  0  0  0
 44 64  1  0  0  0  0
 45 48  1  0  0  0  0
 45 64  1  0  0  0  0
 46 69  1  0  0  0  0
 47 63  1  0  0  0  0
 48 62  1  0  0  0  0
 50 58  1  0  0  0  0
 51 59  1  0  0  0  0
 52 59  1  0  0  0  0
 53 59  1  0  0  0  0
 54 71  1  0  0  0  0
 55 68  1  0  0  0  0
 56 80  1  0  0  0  0
 57 59  1  0  0  0  0
 57 70  1  0  0  0  0
 58 71  1  0  0  0  0
 60 62  1  0  0  0  0
M  CHG  1  71   1
M  ISO  4  36 100  56 101  67 100  80 101
M  END
> <Batch ID>
0156

> <Smiles>
CNC(C)C(=O)NC(C(=O)N1Cc2cc([101O:1][101CH2:1]C(=O)CNc3nc([100NH:0][100C:0](=O)N4CCCC(n5nc(-c6ccc(Oc7ccc(F)cc7F)cc6)c(C(N)=O)c5N)C4)c(C)o3)ccc2CC1C(=O)NC1CCCc2ccccc21)C(C)(C)C

> <Shape>
0.282

> <Color>
0.091

> <Negative vol penalty>
0.000

$$$$

  -OEChem-04052303393D

 82 91  0     1  0  0  0  0  0999 V2000
  -28.4846   -9.0864   16.7629 C   0  0  0  0  0  0  0  0  0  0  0  0
  -27.1755   -9.5447   16.8706 C   0  0  0  0  0  0  0  0  0  0  0  0
  -24.9810  -30.8975   20.4894 C   0  0  0  0  0  0  0  0  0  0  0  0
  -24.1612  -29.1376   21.9274 C   0  0  0  0  0  0  0  0  0  0  0  0
  -29.4815   -9.6315   17.5709 C   0  0  0  0  0  0  0  0  0  0  0  0
  -26.8623  -10.5478   17.7872 C   0  0  0  0  0  0  0  0  0  0  0  0
  -22.4600  -16.1300   18.6674 C   0  0  0  0  0  0  0  0  0  0  0  0
  -24.6089  -31.8478   21.4402 C   0  0  0  0  0  0  0  0  0  0  0  0
  -23.7891  -30.0879   22.8783 C   0  0  0  0  0  0  0  0  0  0  0  0
  -21.5447  -16.6458   19.5838 C   0  0  0  0  0  0  0  0  0  0  0  0
  -24.2037  -34.7105   23.6438 C   0  0  0  0  0  0  0  0  0  0  0  0
  -25.1141  -35.7260   23.9365 C   0  0  0  0  0  0  0  0  0  0  0  0
  -23.3635  -17.5689   20.8718 C   0  0  0  0  0  0  0  0  0  0  0  0
  -26.7264  -34.0745   24.6509 C   0  0  0  0  0  0  0  0  0  0  0  0
  -24.7571  -29.5424   20.7330 C   0  0  0  0  0  0  0  0  0  0  0  0
  -26.3794  -27.8993   19.6485 C   0  0  0  0  0  0  0  0  0  0  0  0
  -29.1822  -10.6485   18.4911 C   0  0  0  0  0  0  0  0  0  0  0  0
  -23.8369  -16.3208   18.8524 C   0  0  0  0  0  0  0  0  0  0  0  0
  -27.8559  -11.1061   18.6093 C   0  0  0  0  0  0  0  0  0  0  0  0
  -24.2941  -17.0567   19.9549 C   0  0  0  0  0  0  0  0  0  0  0  0
  -24.0130  -31.4430   22.6347 C   0  0  0  0  0  0  0  0  0  0  0  0
  -21.9965  -17.3629   20.6878 C   0  0  0  0  0  0  0  0  0  0  0  0
  -24.5546  -33.3771   23.8547 C   0  0  0  0  0  0  0  0  0  0  0  0
  -26.3754  -35.4080   24.4400 C   0  0  0  0  0  0  0  0  0  0  0  0
  -25.8160  -33.0591   24.3582 C   0  0  0  0  0  0  0  0  0  0  0  0
  -25.1407  -28.5603   19.7509 C   0  0  0  0  0  0  0  0  0  0  0  0
  -21.2670  -22.2246   19.2511 C   0  0  0  0  0  0  0  0  0  0  0  0
  -20.1614  -22.2366   18.4252 C   0  0  0  0  0  0  0  0  0  0  0  0
  -26.2392  -27.0739   18.5598 C   0  0  0  0  0  0  0  0  0  0  0  0
  -19.9317  -20.9757   20.4507 C   0  0  0  0  0  0  0  0  0  0  0  0
  -27.5520  -28.0206   20.4647 C   0  0  0  0  0  0  0  0  0  0  0  0
  -26.3272  -14.3976   19.3035 C   0  0  0  0  0  0  0  0  0  0  0  0
  -28.0098  -17.1596   19.0540 C   0  0  0  0  0  0  0  0  0  0  0  0
  -28.0527  -20.5610   19.3297 C   0  0  0  0  0  0  0  0  0  0  0  0
  -21.0709  -24.9362   16.0749 C   0  0  0  0  0  0  0  0  0  0  0  0
  -30.2845  -11.1739   19.3764 C   0  0  0  0  0  0  0  0  0  0  0  0
  -24.8099  -15.7808   17.8404 C   0  0  0  0  0  0  0  0  0  0  0  0
  -25.7609  -17.3067   20.1882 C   0  0  0  0  0  0  0  0  0  0  0  0
  -22.5162  -22.9589   18.9161 C   0  0  0  0  0  0  0  0  0  0  0  0
  -20.0677  -22.9334   17.1151 C   0  0  0  0  0  0  0  0  0  0  0  0
  -29.9403  -12.4955   20.0583 C   0  0  0  0  0  0  0  0  0  0  0  0
  -23.8884  -26.6808   14.4146 C   0  0  0  0  0  0  0  0  0  0  0  0
  -28.5399  -12.4368   20.6604 C   0  0  0  0  0  0  0  0  0  0  0  0
  -24.5863  -27.3672   15.5879 C   0  0  0  0  0  0  0  0  0  0  0  0
  -22.5237  -23.3593   17.4319 C   0  0  0  0  0  0  0  0  0  0  0  0
  -22.3991  -26.4796   14.6787 C   0  0  0  0  0  0  0  0  0  0  0  0
  -22.8027  -26.4446   17.1178 C   0  0  0  0  0  0  0  0  0  0  0  0
  -27.4815  -12.2101   19.5742 C   0  0  1  0  0  0  0  0  0  0  0  0
  -26.2158  -15.5953   18.4031 C   0  0  1  0  0  0  0  0  0  0  0  0
  -24.3133  -26.6159   16.9025 C   0  0  2  0  0  0  0  0  0  0  0  0
  -29.5823  -22.5369   19.0987 C   0  0  0  0  0  0  0  0  0  0  0  0
  -29.3101  -16.4624   21.7248 C   0  0  0  0  0  0  0  0  0  0  0  0
  -30.0695  -18.8418   21.8970 C   0  0  0  0  0  0  0  0  0  0  0  0
  -30.8741  -17.4105   20.0191 C   0  0  0  0  0  0  0  0  0  0  0  0
  -26.3943  -21.7403   17.1809 C   0  0  0  0  0  0  0  0  0  0  0  0
  -20.2273  -19.8407   22.6530 C   0  0  0  0  0  0  0  0  0  0  0  0
  -21.4747  -19.0643   22.2654 C   0  0  0  0  0  0  0  0  0  1  0  0
  -28.4781  -18.2175   20.0239 C   0  0  1  0  0  0  0  0  0  0  0  0
  -28.5731  -21.6406   18.3980 C   0  0  2  0  0  0  0  0  0  0  0  0
  -29.6553  -17.7269   20.9131 C   0  0  0  0  0  0  0  0  0  0  0  0
  -24.2772  -28.1871   18.8027 N   0  0  0  0  0  0  0  0  0  0  0  0
  -21.1371  -21.5039   20.4183 N   0  0  0  0  0  0  0  0  0  0  0  0
  -24.9744  -27.2827   18.0941 N   0  0  0  0  0  0  0  0  0  0  0  0
  -26.6733  -16.7531   19.1740 N   0  0  0  0  0  0  0  0  0  0  0  0
  -21.2054  -23.8643   16.9754 N   0  0  0  0  0  0  0  0  0  0  0  0
  -22.1655  -25.8077   15.9571 N   0  0  0  0  0  0  0  0  0  0  0  0
  -27.0757  -26.1971   17.9648 N   0  0  0  0  0  0  0  0  0  0  0  0
  -27.5257  -28.9152   21.5433 N   0  0  0  0  0  0  0  0  0  0  0  0
  -19.4635  -20.1984   21.4633 N   0  0  0  0  0  0  0  0  0  0  0  0
  -27.2196  -13.4407   18.8591 N   0  0  0  0  0  0  0  0  0  0  0  0
  -28.7855  -19.3978   19.2234 N   0  0  0  0  0  0  0  0  0  0  0  0
  -27.4495  -22.4895   17.9103 N   0  3  0  0  0  0  0  0  0  0  0  0
  -28.5978  -27.3675   20.2342 O   0  0  0  0  0  0  0  0  0  0  0  0
  -25.6545  -14.3461   20.3265 O   0  0  0  0  0  0  0  0  0  0  0  0
  -28.7987  -16.7157   18.2161 O   0  0  0  0  0  0  0  0  0  0  0  0
  -27.0945  -20.7335   20.0798 O   0  0  0  0  0  0  0  0  0  0  0  0
  -20.0361  -25.1015   15.4168 O   0  0  0  0  0  0  0  0  0  0  0  0
  -23.6500  -32.3700   23.5628 O   0  0  0  0  0  0  0  0  0  0  0  0
  -21.0990  -17.8704   21.5905 O   0  0  0  0  0  0  0  0  0  1  0  0
  -27.2501  -36.3831   24.7196 F   0  0  0  0  0  0  0  0  0  0  0  0
  -26.1593  -31.7798   24.5618 F   0  0  0  0  0  0  0  0  0  0  0  0
  -18.9085  -21.3100   19.1087 S   0  0  0  0  0  0  0  0  0  0  0  0
  1  2  1  0  0  0  0
  1  5  2  0  0  0  0
  2  6  2  0  0  0  0
  3  8  2  0  0  0  0
  3 15  1  0  0  0  0
  4  9  1  0  0  0  0
  4 15  2  0  0  0  0
  5 17  1  0  0  0  0
  6 19  1  0  0  0  0
  7 10  2  0  0  0  0
  7 18  1  0  0  0  0
  8 21  1  0  0  0  0
  9 21  2  0  0  0  0
 10 22  1  0  0  0  0
 11 12  2  0  0  0  0
 11 23  1  0  0  0  0
 12 24  1  0  0  0  0
 13 20  1  0  0  0  0
 13 22  2  0  0  0  0
 14 24  2  0  0  0  0
 14 25  1  0  0  0  0
 15 26  1  0  0  0  0
 16 26  1  0  0  0  0
 16 29  2  0  0  0  0
 16 31  1  0  0  0  0
 17 19  2  0  0  0  0
 17 36  1  0  0  0  0
 18 20  2  0  0  0  0
 18 37  1  0  0  0  0
 19 48  1  0  0  0  0
 20 38  1  0  0  0  0
 21 78  1  0  0  0  0
 22 79  1  0  0  0  0
 23 25  2  0  0  0  0
 23 78  1  0  0  0  0
 24 80  1  0  0  0  0
 25 81  1  0  0  0  0
 26 61  2  0  0  0  0
 27 28  2  0  0  0  0
 27 39  1  0  0  0  0
 27 62  1  0  0  0  0
 28 40  1  0  0  0  0
 28 82  1  0  0  0  0
 29 63  1  0  0  0  0
 29 67  1  0  0  0  0
 30 62  2  0  0  0  0
 30 69  1  0  0  0  0
 30 82  1  0  0  0  0
 31 68  1  0  0  0  0
 31 73  2  0  0  0  0
 32 49  1  0  0  0  0
 32 70  1  0  0  0  0
 32 74  2  0  0  0  0
 33 58  1  0  0  0  0
 33 64  1  0  0  0  0
 33 75  2  0  0  0  0
 34 59  1  0  0  0  0
 34 71  1  0  0  0  0
 34 76  2  0  0  0  0
 35 65  1  0  0  0  0
 35 66  1  0  0  0  0
 35 77  2  0  0  0  0
 36 41  1  0  0  0  0
 37 49  1  0  0  0  0
 38 64  1  0  0  0  0
 39 45  1  0  0  0  0
 40 65  1  0  0  0  0
 41 43  1  0  0  0  0
 42 44  1  0  0  0  0
 42 46  1  0  0  0  0
 43 48  1  0  0  0  0
 44 50  1  0  0  0  0
 45 65  1  0  0  0  0
 46 66  1  0  0  0  0
 47 50  1  0  0  0  0
 47 66  1  0  0  0  0
 48 70  1  0  0  0  0
 49 64  1  0  0  0  0
 50 63  1  0  0  0  0
 51 59  1  0  0  0  0
 52 60  1  0  0  0  0
 53 60  1  0  0  0  0
 54 60  1  0  0  0  0
 55 72  1  0  0  0  0
 56 57  1  0  0  0  0
 56 69  1  0  0  0  0
 57 79  1  0  0  0  0
 58 60  1  0  0  0  0
 58 71  1  0  0  0  0
 59 72  1  0  0  0  0
 61 63  1  0  0  0  0
M  CHG  1  72   1
M  ISO  4  35 100  57 101  65 100  79 101
M  END
> <Batch ID>
0156

> <Smiles>
CNC(C)C(=O)NC(C(=O)N1Cc2cc([101O:1][101CH2:1]CNc3nc4c(s3)C[100N:0]([100C:0](=O)N3CCCC(n5nc(-c6ccc(Oc7ccc(F)cc7F)cc6)c(C(N)=O)c5N)C3)CC4)ccc2CC1C(=O)NC1CCCc2ccccc21)C(C)(C)C

> <Shape>
0.234

> <Color>
0.055

> <Negative vol penalty>
0.000

$$$$

  -OEChem-04052303393D

 83 92  0     1  0  0  0  0  0999 V2000
  -17.9514  -30.9934   24.2417 C   0  0  0  0  0  0  0  0  0  0  0  0
  -19.3392  -30.9875   24.3386 C   0  0  0  0  0  0  0  0  0  0  0  0
  -23.0704  -10.1862   20.0027 C   0  0  0  0  0  0  0  0  0  0  0  0
  -24.0889   -9.5345   22.0943 C   0  0  0  0  0  0  0  0  0  0  0  0
  -17.2965  -29.9643   23.5665 C   0  0  0  0  0  0  0  0  0  0  0  0
  -20.0729  -29.9517   23.7612 C   0  0  0  0  0  0  0  0  0  0  0  0
  -26.3550  -28.6659   20.5676 C   0  0  0  0  0  0  0  0  0  0  0  0
  -22.3179   -9.0117   20.0031 C   0  0  0  0  0  0  0  0  0  0  0  0
  -23.3363   -8.3601   22.0948 C   0  0  0  0  0  0  0  0  0  0  0  0
  -27.4503  -27.8075   20.6519 C   0  0  0  0  0  0  0  0  0  0  0  0
  -20.1716   -7.4318   22.8319 C   0  0  0  0  0  0  0  0  0  0  0  0
  -19.5534   -7.0605   24.0258 C   0  0  0  0  0  0  0  0  0  0  0  0
  -26.2167  -26.1244   19.4417 C   0  0  0  0  0  0  0  0  0  0  0  0
  -28.7020  -20.4189   18.5750 C   0  0  0  0  0  0  0  0  0  0  0  0
  -20.7985   -4.9900   24.0265 C   0  0  0  0  0  0  0  0  0  0  0  0
  -23.9559  -10.4476   21.0482 C   0  0  0  0  0  0  0  0  0  0  0  0
  -24.3752  -12.9005   21.6093 C   0  0  0  0  0  0  0  0  0  0  0  0
  -18.0231  -28.9205   22.9722 C   0  0  0  0  0  0  0  0  0  0  0  0
  -25.1764  -28.2554   19.9282 C   0  0  0  0  0  0  0  0  0  0  0  0
  -19.4270  -28.9070   23.0785 C   0  0  0  0  0  0  0  0  0  0  0  0
  -25.1087  -26.9804   19.3485 C   0  0  0  0  0  0  0  0  0  0  0  0
  -28.6466  -19.0177   18.4341 C   0  0  0  0  0  0  0  0  0  0  0  0
  -22.4508   -8.0987   21.0492 C   0  0  0  0  0  0  0  0  0  0  0  0
  -27.3802  -26.5355   20.0914 C   0  0  0  0  0  0  0  0  0  0  0  0
  -21.1031   -6.5822   22.2351 C   0  0  0  0  0  0  0  0  0  0  0  0
  -19.8669   -5.8396   24.6232 C   0  0  0  0  0  0  0  0  0  0  0  0
  -21.4166   -5.3614   22.8325 C   0  0  0  0  0  0  0  0  0  0  0  0
  -24.7339  -11.6603   21.0480 C   0  0  0  0  0  0  0  0  0  0  0  0
  -28.2337  -18.3990   19.5781 C   0  0  0  0  0  0  0  0  0  0  0  0
  -25.4454  -13.7197   21.3444 C   0  0  0  0  0  0  0  0  0  0  0  0
  -28.3153  -20.7952   19.8518 C   0  0  0  0  0  0  0  0  0  0  0  0
  -23.1815  -13.2783   22.3078 C   0  0  0  0  0  0  0  0  0  0  0  0
  -22.1616  -27.8275   20.8403 C   0  0  0  0  0  0  0  0  0  0  0  0
  -21.6862  -27.3108   17.6734 C   0  0  0  0  0  0  0  0  0  0  0  0
  -22.9971  -26.3951   14.6584 C   0  0  0  0  0  0  0  0  0  0  0  0
  -28.4842  -23.3073   19.8622 C   0  0  0  0  0  0  0  0  0  0  0  0
  -29.1578  -15.5551   17.5273 C   0  0  0  0  0  0  0  0  0  0  0  0
  -17.2682  -27.8051   22.2934 C   0  0  0  0  0  0  0  0  0  0  0  0
  -24.0131  -29.2030   19.8224 C   0  0  0  0  0  0  0  0  0  0  0  0
  -23.8736  -26.4990   18.6334 C   0  0  0  0  0  0  0  0  0  0  0  0
  -28.9288  -18.0387   17.3691 C   0  0  0  0  0  0  0  0  0  0  0  0
  -28.1519  -16.9324   19.4640 C   0  0  0  0  0  0  0  0  0  0  0  0
  -18.1419  -26.9418   21.3870 C   0  0  0  0  0  0  0  0  0  0  0  0
  -30.0694  -12.6561   19.5888 C   0  0  0  0  0  0  0  0  0  0  0  0
  -19.4390  -26.5659   22.0963 C   0  0  0  0  0  0  0  0  0  0  0  0
  -28.7188  -12.2176   20.1593 C   0  0  0  0  0  0  0  0  0  0  0  0
  -29.9267  -13.3122   18.2170 C   0  0  0  0  0  0  0  0  0  0  0  0
  -27.6076  -13.9676   18.7268 C   0  0  0  0  0  0  0  0  0  0  0  0
  -20.2593  -27.8139   22.4440 C   0  0  1  0  0  0  0  0  0  0  0  0
  -22.6821  -28.4924   19.5974 C   0  0  1  0  0  0  0  0  0  0  0  0
  -27.7019  -13.3751   20.1390 C   0  0  1  0  0  0  0  0  0  0  0  0
  -22.3548  -26.0305   12.2601 C   0  0  0  0  0  0  0  0  0  0  0  0
  -29.1892  -24.3691   22.0382 C   0  0  0  0  0  0  0  0  0  0  0  0
  -20.3725  -24.6630   18.4303 C   0  0  0  0  0  0  0  0  0  0  0  0
  -20.6187  -23.9393   16.0462 C   0  0  0  0  0  0  0  0  0  0  0  0
  -19.2106  -25.9204   16.6073 C   0  0  0  0  0  0  0  0  0  0  0  0
  -24.8588  -28.4955   13.7196 C   0  0  0  0  0  0  0  0  0  0  0  0
  -21.7271  -26.1025   16.7694 C   0  0  1  0  0  0  0  0  0  0  0  0
  -22.8894  -27.0232   13.2806 C   0  0  2  0  0  0  0  0  0  0  0  0
  -28.2522  -24.4542   20.8425 C   0  0  1  0  0  0  0  0  0  1  0  0
  -20.5050  -25.1644   16.9784 C   0  0  0  0  0  0  0  0  0  0  0  0
  -25.9378  -11.6848   20.4700 N   0  0  0  0  0  0  0  0  0  0  0  0
  -26.3449  -12.9504   20.6666 N   0  0  0  0  0  0  0  0  0  0  0  0
  -22.7605  -27.4600   18.5619 N   0  0  0  0  0  0  0  0  0  0  0  0
  -28.6610  -16.7464   18.0676 N   0  0  0  0  0  0  0  0  0  0  0  0
  -28.9314  -14.3823   18.2542 N   0  0  0  0  0  0  0  0  0  0  0  0
  -25.6953  -15.0158   21.6273 N   0  0  0  0  0  0  0  0  0  0  0  0
  -22.1820  -12.3133   22.4929 N   0  0  0  0  0  0  0  0  0  0  0  0
  -28.2175  -22.0318   20.4279 N   0  0  0  0  0  0  0  0  0  0  0  0
  -20.9415  -28.3137   21.2696 N   0  0  0  0  0  0  0  0  0  0  0  0
  -21.8619  -26.6143   15.4098 N   0  0  0  0  0  0  0  0  0  0  0  0
  -24.2258  -27.4960   12.8210 N   0  3  0  0  0  0  0  0  0  0  0  0
  -22.9993  -14.4417   22.7401 O   0  0  0  0  0  0  0  0  0  0  0  0
  -22.8178  -26.9383   21.3698 O   0  0  0  0  0  0  0  0  0  0  0  0
  -20.7396  -28.0973   17.5892 O   0  0  0  0  0  0  0  0  0  0  0  0
  -23.9875  -25.7692   15.0296 O   0  0  0  0  0  0  0  0  0  0  0  0
  -28.8483  -23.5195   18.7091 O   0  0  0  0  0  0  0  0  0  0  0  0
  -29.8166  -15.5472   16.4798 O   0  0  0  0  0  0  0  0  0  0  0  0
  -21.7165   -6.9527   21.0501 O   0  0  0  0  0  0  0  0  0  0  0  0
  -28.4563  -25.6885   20.1735 O   0  0  0  0  0  0  0  0  0  1  0  0
  -19.2744   -5.4839   25.7706 F   0  0  0  0  0  0  0  0  0  0  0  0
  -22.3116   -4.5415   22.2645 F   0  0  0  0  0  0  0  0  0  0  0  0
  -27.8991  -19.4385   20.8432 S   0  0  0  0  0  0  0  0  0  0  0  0
  1  2  1  0  0  0  0
  1  5  2  0  0  0  0
  2  6  2  0  0  0  0
  3  8  2  0  0  0  0
  3 16  1  0  0  0  0
  4  9  1  0  0  0  0
  4 16  2  0  0  0  0
  5 18  1  0  0  0  0
  6 20  1  0  0  0  0
  7 10  2  0  0  0  0
  7 19  1  0  0  0  0
  8 23  1  0  0  0  0
  9 23  2  0  0  0  0
 10 24  1  0  0  0  0
 11 12  2  0  0  0  0
 11 25  1  0  0  0  0
 12 26  1  0  0  0  0
 13 21  1  0  0  0  0
 13 24  2  0  0  0  0
 14 22  1  0  0  0  0
 14 31  2  0  0  0  0
 15 26  2  0  0  0  0
 15 27  1  0  0  0  0
 16 28  1  0  0  0  0
 17 28  1  0  0  0  0
 17 30  2  0  0  0  0
 17 32  1  0  0  0  0
 18 20  2  0  0  0  0
 18 38  1  0  0  0  0
 19 21  2  0  0  0  0
 19 39  1  0  0  0  0
 20 49  1  0  0  0  0
 21 40  1  0  0  0  0
 22 29  2  0  0  0  0
 22 41  1  0  0  0  0
 23 79  1  0  0  0  0
 24 80  1  0  0  0  0
 25 27  2  0  0  0  0
 25 79  1  0  0  0  0
 26 81  1  0  0  0  0
 27 82  1  0  0  0  0
 28 62  2  0  0  0  0
 29 42  1  0  0  0  0
 29 83  1  0  0  0  0
 30 63  1  0  0  0  0
 30 67  1  0  0  0  0
 31 69  1  0  0  0  0
 31 83  1  0  0  0  0
 32 68  1  0  0  0  0
 32 73  2  0  0  0  0
 33 50  1  0  0  0  0
 33 70  1  0  0  0  0
 33 74  2  0  0  0  0
 34 58  1  0  0  0  0
 34 64  1  0  0  0  0
 34 75  2  0  0  0  0
 35 59  1  0  0  0  0
 35 71  1  0  0  0  0
 35 76  2  0  0  0  0
 36 60  1  0  0  0  0
 36 69  1  0  0  0  0
 36 77  2  0  0  0  0
 37 65  1  0  0  0  0
 37 66  1  0  0  0  0
 37 78  2  0  0  0  0
 38 43  1  0  0  0  0
 39 50  1  0  0  0  0
 40 64  1  0  0  0  0
 41 65  1  0  0  0  0
 42 65  1  0  0  0  0
 43 45  1  0  0  0  0
 44 46  1  0  0  0  0
 44 47  1  0  0  0  0
 45 49  1  0  0  0  0
 46 51  1  0  0  0  0
 47 66  1  0  0  0  0
 48 51  1  0  0  0  0
 48 66  1  0  0  0  0
 49 70  1  0  0  0  0
 50 64  1  0  0  0  0
 51 63  1  0  0  0  0
 52 59  1  0  0  0  0
 53 60  1  0  0  0  0
 54 61  1  0  0  0  0
 55 61  1  0  0  0  0
 56 61  1  0  0  0  0
 57 72  1  0  0  0  0
 58 61  1  0  0  0  0
 58 71  1  0  0  0  0
 59 72  1  0  0  0  0
 60 80  1  0  0  0  0
 62 63  1  0  0  0  0
M  CHG  1  72   1
M  ISO  4  37 100  60 101  65 100  80 101
M  END
> <Batch ID>
0156

> <Smiles>
CNC(C)C(=O)NC(C(=O)N1Cc2cc([101O:1][101CH:1](C)C(=O)Nc3cc4c(s3)C[100N:0]([100C:0](=O)N3CCCC(n5nc(-c6ccc(Oc7ccc(F)cc7F)cc6)c(C(N)=O)c5N)C3)C4)ccc2CC1C(=O)NC1CCCc2ccccc21)C(C)(C)C

> <Shape>
0.329

> <Color>
0.166

> <Negative vol penalty>
0.000

$$$$

  -OEChem-04052303393D

 82 90  0     1  0  0  0  0  0999 V2000
  -30.9349  -34.5676   18.5115 C   0  0  0  0  0  0  0  0  0  0  0  0
  -29.7374  -33.8595   18.5092 C   0  0  0  0  0  0  0  0  0  0  0  0
  -22.2506  -17.7241   22.4490 C   0  0  0  0  0  0  0  0  0  0  0  0
  -20.8621  -17.8912   20.4790 C   0  0  0  0  0  0  0  0  0  0  0  0
  -32.1056  -33.9568   18.0640 C   0  0  0  0  0  0  0  0  0  0  0  0
  -29.7097  -32.5403   18.0582 C   0  0  0  0  0  0  0  0  0  0  0  0
  -27.0266  -29.5045   21.0962 C   0  0  0  0  0  0  0  0  0  0  0  0
  -22.5306  -16.3934   22.1388 C   0  0  0  0  0  0  0  0  0  0  0  0
  -21.1422  -16.5605   20.1687 C   0  0  0  0  0  0  0  0  0  0  0  0
  -25.6378  -29.5627   20.9891 C   0  0  0  0  0  0  0  0  0  0  0  0
  -24.5521  -14.7015   20.0212 C   0  0  0  0  0  0  0  0  0  0  0  0
  -25.8773  -14.2778   20.1204 C   0  0  0  0  0  0  0  0  0  0  0  0
  -25.6648  -27.5675   19.6335 C   0  0  0  0  0  0  0  0  0  0  0  0
  -18.7059  -27.9698   22.1667 C   0  0  0  0  0  0  0  0  0  0  0  0
  -25.2285  -12.6346   21.7685 C   0  0  0  0  0  0  0  0  0  0  0  0
  -16.9351  -28.4268   23.6871 C   0  0  0  0  0  0  0  0  0  0  0  0
  -18.9055  -29.5896   23.8966 C   0  0  0  0  0  0  0  0  0  0  0  0
  -21.4163  -18.4731   21.6191 C   0  0  0  0  0  0  0  0  0  0  0  0
  -21.8452  -20.9861   21.5289 C   0  0  0  0  0  0  0  0  0  0  0  0
  -32.0941  -32.6263   17.6164 C   0  0  0  0  0  0  0  0  0  0  0  0
  -27.7472  -28.4819   20.4627 C   0  0  0  0  0  0  0  0  0  0  0  0
  -30.8811  -31.9115   17.6030 C   0  0  0  0  0  0  0  0  0  0  0  0
  -27.0625  -27.4971   19.7362 C   0  0  0  0  0  0  0  0  0  0  0  0
  -17.4113  -27.7093   22.6017 C   0  0  0  0  0  0  0  0  0  0  0  0
  -19.4740  -28.9264   22.8211 C   0  0  0  0  0  0  0  0  0  0  0  0
  -21.9764  -15.8115   20.9986 C   0  0  0  0  0  0  0  0  0  0  0  0
  -24.9569  -28.5957   20.2552 C   0  0  0  0  0  0  0  0  0  0  0  0
  -23.5650  -14.0918   20.7957 C   0  0  0  0  0  0  0  0  0  0  0  0
  -26.2155  -13.2444   20.9940 C   0  0  0  0  0  0  0  0  0  0  0  0
  -23.9033  -13.0584   21.6693 C   0  0  0  0  0  0  0  0  0  0  0  0
  -21.1261  -19.8476   21.9394 C   0  0  0  0  0  0  0  0  0  0  0  0
  -21.1700  -22.0407   22.0932 C   0  0  0  0  0  0  0  0  0  0  0  0
  -23.0186  -21.0819   20.7106 C   0  0  0  0  0  0  0  0  0  0  0  0
  -29.9754  -28.3790   18.1982 C   0  0  0  0  0  0  0  0  0  0  0  0
  -30.0335  -25.2225   18.9436 C   0  0  0  0  0  0  0  0  0  0  0  0
  -21.4946  -28.6343   21.3494 C   0  0  0  0  0  0  0  0  0  0  0  0
  -28.4029  -22.5233   20.2483 C   0  0  0  0  0  0  0  0  0  0  0  0
  -16.4019  -24.6601   23.3379 C   0  0  0  0  0  0  0  0  0  0  0  0
  -33.3757  -32.0238   17.0976 C   0  0  0  0  0  0  0  0  0  0  0  0
  -29.2427  -28.4180   20.6101 C   0  0  0  0  0  0  0  0  0  0  0  0
  -27.7877  -26.3670   19.0540 C   0  0  0  0  0  0  0  0  0  0  0  0
  -33.3324  -30.5019   16.9876 C   0  0  0  0  0  0  0  0  0  0  0  0
  -17.5002  -22.1162   25.5737 C   0  0  0  0  0  0  0  0  0  0  0  0
  -32.0375  -30.0516   16.3187 C   0  0  0  0  0  0  0  0  0  0  0  0
  -18.5958  -21.3898   24.7914 C   0  0  0  0  0  0  0  0  0  0  0  0
  -16.3607  -22.5673   24.6625 C   0  0  0  0  0  0  0  0  0  0  0  0
  -17.8745  -22.6488   22.7194 C   0  0  0  0  0  0  0  0  0  0  0  0
  -30.8153  -30.4708   17.1446 C   0  0  1  0  0  0  0  0  0  0  0  0
  -29.9195  -27.6248   19.4965 C   0  0  1  0  0  0  0  0  0  0  0  0
  -19.0717  -22.2239   23.5868 C   0  0  2  0  0  0  0  0  0  0  0  0
  -28.6930  -20.0696   20.6872 C   0  0  0  0  0  0  0  0  0  0  0  0
  -29.5913  -24.6428   15.9808 C   0  0  0  0  0  0  0  0  0  0  0  0
  -28.9484  -22.3052   16.6057 C   0  0  0  0  0  0  0  0  0  0  0  0
  -31.2460  -23.1399   17.1023 C   0  0  0  0  0  0  0  0  0  0  0  0
  -28.0800  -22.8890   23.1673 C   0  0  0  0  0  0  0  0  0  0  0  0
  -16.5646  -26.6923   21.9226 C   0  0  0  0  0  0  0  0  0  0  0  0
  -22.8867  -29.2281   21.2403 C   0  0  0  0  0  0  0  0  0  1  0  0
  -29.2950  -23.9968   18.4629 C   0  0  1  0  0  0  0  0  0  0  0  0
  -28.8381  -21.4732   21.2544 C   0  0  2  0  0  0  0  0  0  0  0  0
  -29.7564  -23.5434   17.0491 C   0  0  0  0  0  0  0  0  0  0  0  0
  -17.6514  -29.3636   24.3482 N   0  0  0  0  0  0  0  0  0  0  0  0
  -20.0747  -20.1503   22.7055 N   0  0  0  0  0  0  0  0  0  0  0  0
  -20.1282  -21.4911   22.7809 N   0  0  0  0  0  0  0  0  0  0  0  0
  -29.2503  -26.3516   19.2223 N   0  0  0  0  0  0  0  0  0  0  0  0
  -16.8791  -23.3548   23.5413 N   0  0  0  0  0  0  0  0  0  0  0  0
  -21.3716  -23.3751   22.0634 N   0  0  0  0  0  0  0  0  0  0  0  0
  -23.5842  -19.9002   20.2126 N   0  0  0  0  0  0  0  0  0  0  0  0
  -20.7951  -29.2133   22.4027 N   0  0  0  0  0  0  0  0  0  0  0  0
  -30.6431  -29.5862   18.2771 N   0  0  0  0  0  0  0  0  0  0  0  0
  -29.4651  -22.9849   19.5000 N   0  0  0  0  0  0  0  0  0  0  0  0
  -16.9501  -25.3393   22.2567 N   0  0  0  0  0  0  0  0  0  0  0  0
  -28.0127  -21.5677   22.4916 N   0  3  0  0  0  0  0  0  0  0  0  0
  -23.5593  -22.1817   20.4428 O   0  0  0  0  0  0  0  0  0  0  0  0
  -29.4528  -27.9004   17.1984 O   0  0  0  0  0  0  0  0  0  0  0  0
  -31.2593  -25.1777   19.0742 O   0  0  0  0  0  0  0  0  0  0  0  0
  -21.1053  -27.7635   20.5782 O   0  0  0  0  0  0  0  0  0  0  0  0
  -27.2367  -22.8941   20.1348 O   0  0  0  0  0  0  0  0  0  0  0  0
  -15.5542  -25.1835   24.0690 O   0  0  0  0  0  0  0  0  0  0  0  0
  -22.2497  -14.5131   20.6955 O   0  0  0  0  0  0  0  0  0  0  0  0
  -23.6014  -28.6505   20.1485 O   0  0  0  0  0  0  0  0  0  1  0  0
  -27.4879  -12.8366   21.0880 F   0  0  0  0  0  0  0  0  0  0  0  0
  -22.9593  -12.4680   22.4150 F   0  0  0  0  0  0  0  0  0  0  0  0
  1  2  1  0  0  0  0
  1  5  2  0  0  0  0
  2  6  2  0  0  0  0
  3  8  2  0  0  0  0
  3 18  1  0  0  0  0
  4  9  1  0  0  0  0
  4 18  2  0  0  0  0
  5 20  1  0  0  0  0
  6 22  1  0  0  0  0
  7 10  2  0  0  0  0
  7 21  1  0  0  0  0
  8 26  1  0  0  0  0
  9 26  2  0  0  0  0
 10 27  1  0  0  0  0
 11 12  2  0  0  0  0
 11 28  1  0  0  0  0
 12 29  1  0  0  0  0
 13 23  1  0  0  0  0
 13 27  2  0  0  0  0
 14 24  1  0  0  0  0
 14 25  2  0  0  0  0
 15 29  2  0  0  0  0
 15 30  1  0  0  0  0
 16 24  2  0  0  0  0
 16 61  1  0  0  0  0
 17 25  1  0  0  0  0
 17 61  2  0  0  0  0
 18 31  1  0  0  0  0
 19 31  1  0  0  0  0
 19 32  2  0  0  0  0
 19 33  1  0  0  0  0
 20 22  2  0  0  0  0
 20 39  1  0  0  0  0
 21 23  2  0  0  0  0
 21 40  1  0  0  0  0
 22 48  1  0  0  0  0
 23 41  1  0  0  0  0
 24 56  1  0  0  0  0
 25 68  1  0  0  0  0
 26 79  1  0  0  0  0
 27 80  1  0  0  0  0
 28 30  2  0  0  0  0
 28 79  1  0  0  0  0
 29 81  1  0  0  0  0
 30 82  1  0  0  0  0
 31 62  2  0  0  0  0
 32 63  1  0  0  0  0
 32 66  1  0  0  0  0
 33 67  1  0  0  0  0
 33 73  2  0  0  0  0
 34 49  1  0  0  0  0
 34 69  1  0  0  0  0
 34 74  2  0  0  0  0
 35 58  1  0  0  0  0
 35 64  1  0  0  0  0
 35 75  2  0  0  0  0
 36 57  1  0  0  0  0
 36 68  1  0  0  0  0
 36 76  2  0  0  0  0
 37 59  1  0  0  0  0
 37 70  1  0  0  0  0
 37 77  2  0  0  0  0
 38 65  1  0  0  0  0
 38 71  1  0  0  0  0
 38 78  2  0  0  0  0
 39 42  1  0  0  0  0
 40 49  1  0  0  0  0
 41 64  1  0  0  0  0
 42 44  1  0  0  0  0
 43 45  1  0  0  0  0
 43 46  1  0  0  0  0
 44 48  1  0  0  0  0
 45 50  1  0  0  0  0
 46 65  1  0  0  0  0
 47 50  1  0  0  0  0
 47 65  1  0  0  0  0
 48 69  1  0  0  0  0
 49 64  1  0  0  0  0
 50 63  1  0  0  0  0
 51 59  1  0  0  0  0
 52 60  1  0  0  0  0
 53 60  1  0  0  0  0
 54 60  1  0  0  0  0
 55 72  1  0  0  0  0
 56 71  1  0  0  0  0
 57 80  1  0  0  0  0
 58 60  1  0  0  0  0
 58 70  1  0  0  0  0
 59 72  1  0  0  0  0
 62 63  1  0  0  0  0
M  CHG  1  72   1
M  ISO  4  38 100  57 101  71 100  80 101
M  END
> <Batch ID>
0156

> <Smiles>
CNC(C)C(=O)NC(C(=O)N1Cc2cc([101O:1][101CH2:1]C(=O)Nc3cncc(C[100NH:0][100C:0](=O)N4CCCC(n5nc(-c6ccc(Oc7ccc(F)cc7F)cc6)c(C(N)=O)c5N)C4)c3)ccc2CC1C(=O)NC1CCCc2ccccc21)C(C)(C)C

> <Shape>
0.218

> <Color>
0.075

> <Negative vol penalty>
0.000

$$$$

  -OEChem-04052303393D

 84 92  0     1  0  0  0  0  0999 V2000
  -28.7040  -31.8501   27.7797 C   0  0  0  0  0  0  0  0  0  0  0  0
  -28.7687  -30.9145   26.7521 C   0  0  0  0  0  0  0  0  0  0  0  0
  -24.3223   -8.5820   21.3523 C   0  0  0  0  0  0  0  0  0  0  0  0
  -24.1203  -10.3426   22.9944 C   0  0  0  0  0  0  0  0  0  0  0  0
  -27.4682  -32.3464   28.1923 C   0  0  0  0  0  0  0  0  0  0  0  0
  -27.5973  -30.4738   26.1373 C   0  0  0  0  0  0  0  0  0  0  0  0
  -26.8747  -28.9651   20.2460 C   0  0  0  0  0  0  0  0  0  0  0  0
  -23.8314   -7.6618   22.2785 C   0  0  0  0  0  0  0  0  0  0  0  0
  -23.6293   -9.4224   23.9206 C   0  0  0  0  0  0  0  0  0  0  0  0
  -26.8650  -27.7367   19.5867 C   0  0  0  0  0  0  0  0  0  0  0  0
  -20.8268   -6.7569   23.5382 C   0  0  0  0  0  0  0  0  0  0  0  0
  -19.8560   -5.8547   23.1034 C   0  0  0  0  0  0  0  0  0  0  0  0
  -29.1108  -20.0617   19.1341 C   0  0  0  0  0  0  0  0  0  0  0  0
  -24.4558  -27.6997   19.7034 C   0  0  0  0  0  0  0  0  0  0  0  0
  -21.3173   -4.0134   23.6614 C   0  0  0  0  0  0  0  0  0  0  0  0
  -24.4669   -9.9224   21.7103 C   0  0  0  0  0  0  0  0  0  0  0  0
  -29.6013  -18.7248   19.1796 C   0  0  0  0  0  0  0  0  0  0  0  0
  -24.2281  -11.6407   19.8400 C   0  0  0  0  0  0  0  0  0  0  0  0
  -26.2818  -31.9188   27.5757 C   0  0  0  0  0  0  0  0  0  0  0  0
  -25.6735  -29.5658   20.6493 C   0  0  0  0  0  0  0  0  0  0  0  0
  -26.3443  -30.9639   26.5430 C   0  0  0  0  0  0  0  0  0  0  0  0
  -24.4528  -28.9370   20.3654 C   0  0  0  0  0  0  0  0  0  0  0  0
  -23.4848   -8.0820   23.5626 C   0  0  0  0  0  0  0  0  0  0  0  0
  -25.6557  -27.1024   19.3179 C   0  0  0  0  0  0  0  0  0  0  0  0
  -22.0430   -6.2874   24.0345 C   0  0  0  0  0  0  0  0  0  0  0  0
  -20.1012   -4.4829   23.1650 C   0  0  0  0  0  0  0  0  0  0  0  0
  -22.2881   -4.9156   24.0962 C   0  0  0  0  0  0  0  0  0  0  0  0
  -24.9745  -10.8733   20.7542 C   0  0  0  0  0  0  0  0  0  0  0  0
  -25.1681  -12.3799   19.1643 C   0  0  0  0  0  0  0  0  0  0  0  0
  -27.7565  -20.1079   18.8864 C   0  0  0  0  0  0  0  0  0  0  0  0
  -28.6030  -17.7999   18.9651 C   0  0  0  0  0  0  0  0  0  0  0  0
  -30.9731  -18.3565   19.4196 C   0  0  0  0  0  0  0  0  0  0  0  0
  -22.8117  -11.6817   19.6211 C   0  0  0  0  0  0  0  0  0  0  0  0
  -24.4115  -30.4023   23.4442 C   0  0  0  0  0  0  0  0  0  0  0  0
  -26.3697  -23.5919   18.7436 C   0  0  0  0  0  0  0  0  0  0  0  0
  -22.1057  -31.7055   21.5715 C   0  0  0  0  0  0  0  0  0  0  0  0
  -20.4772  -31.7259   18.5725 C   0  0  0  0  0  0  0  0  0  0  0  0
  -29.7408  -15.5563   19.0994 C   0  0  0  0  0  0  0  0  0  0  0  0
  -24.9658  -32.4484   28.0879 C   0  0  0  0  0  0  0  0  0  0  0  0
  -25.6995  -30.9039   21.3358 C   0  0  0  0  0  0  0  0  0  0  0  0
  -23.1346  -29.5498   20.7593 C   0  0  0  0  0  0  0  0  0  0  0  0
  -23.7998  -32.2103   27.1318 C   0  0  0  0  0  0  0  0  0  0  0  0
  -30.2173  -12.0278   19.1073 C   0  0  0  0  0  0  0  0  0  0  0  0
  -23.8138  -30.7734   26.6202 C   0  0  0  0  0  0  0  0  0  0  0  0
  -28.8344  -11.4760   19.4613 C   0  0  0  0  0  0  0  0  0  0  0  0
  -30.5207  -13.3226   19.8592 C   0  0  0  0  0  0  0  0  0  0  0  0
  -28.1179  -13.8190   20.0811 C   0  0  0  0  0  0  0  0  0  0  0  0
  -25.0976  -30.4799   25.8347 C   0  0  1  0  0  0  0  0  0  0  0  0
  -24.4440  -31.1782   22.1579 C   0  0  1  0  0  0  0  0  0  0  0  0
  -27.7408  -12.5500   19.2994 C   0  0  2  0  0  0  0  0  0  0  0  0
  -32.0504  -19.3117   18.9726 C   0  0  0  0  0  0  0  0  0  0  0  0
  -18.6121  -32.8783   17.3514 C   0  0  0  0  0  0  0  0  0  0  0  0
  -20.0663  -30.1194   23.1948 C   0  0  0  0  0  0  0  0  0  0  0  0
  -18.3948  -30.5448   21.3800 C   0  0  0  0  0  0  0  0  0  0  0  0
  -19.3717  -32.4586   22.6470 C   0  0  0  0  0  0  0  0  0  0  0  0
  -22.3092  -32.7132   16.4682 C   0  0  0  0  0  0  0  0  0  0  0  0
  -27.4895  -22.5885   18.9203 C   0  0  0  0  0  0  0  0  0  0  0  0
  -26.7696  -25.0489   18.8723 C   0  0  0  0  0  0  0  0  0  1  0  0
  -20.8071  -31.2156   20.9777 C   0  0  1  0  0  0  0  0  0  0  0  0
  -20.1060  -32.8612   17.6355 C   0  0  2  0  0  0  0  0  0  0  0  0
  -19.6848  -31.0719   22.0440 C   0  0  0  0  0  0  0  0  0  0  0  0
  -26.2875  -11.1036   20.6696 N   0  0  0  0  0  0  0  0  0  0  0  0
  -26.3734  -12.0240   19.6940 N   0  0  0  0  0  0  0  0  0  0  0  0
  -23.2127  -30.8561   21.4338 N   0  0  0  0  0  0  0  0  0  0  0  0
  -29.4439  -14.2942   19.6561 N   0  0  0  0  0  0  0  0  0  0  0  0
  -25.0729  -13.2930   18.1746 N   0  0  0  0  0  0  0  0  0  0  0  0
  -21.9908  -10.8574   20.4027 N   0  0  0  0  0  0  0  0  0  0  0  0
  -28.6323  -16.3838   18.9231 N   0  0  0  0  0  0  0  0  0  0  0  0
  -26.9756  -21.2499   18.7809 N   0  0  0  0  0  0  0  0  0  0  0  0
  -25.0176  -31.0470   24.5056 N   0  0  0  0  0  0  0  0  0  0  0  0
  -20.4840  -32.1326   19.8900 N   0  0  0  0  0  0  0  0  0  0  0  0
  -20.8292  -32.7211   16.3400 N   0  3  0  0  0  0  0  0  0  0  0  0
  -31.3528  -17.3082   19.9640 O   0  0  0  0  0  0  0  0  0  0  0  0
  -22.2910  -12.4150   18.7467 O   0  0  0  0  0  0  0  0  0  0  0  0
  -23.8750  -29.3009   23.4721 O   0  0  0  0  0  0  0  0  0  0  0  0
  -25.2084  -23.2588   18.5111 O   0  0  0  0  0  0  0  0  0  0  0  0
  -22.1384  -32.8047   22.1305 O   0  0  0  0  0  0  0  0  0  0  0  0
  -20.7318  -30.5909   18.1756 O   0  0  0  0  0  0  0  0  0  0  0  0
  -30.8895  -15.8688   18.7757 O   0  0  0  0  0  0  0  0  0  0  0  0
  -23.0055   -7.1844   24.4665 O   0  0  0  0  0  0  0  0  0  0  0  0
  -25.6435  -25.9030   18.6751 O   0  0  0  0  0  0  0  0  0  1  0  0
  -19.1682   -3.6166   22.7489 F   0  0  0  0  0  0  0  0  0  0  0  0
  -23.4541   -4.4586   24.5732 F   0  0  0  0  0  0  0  0  0  0  0  0
  -27.0819  -18.5439   18.7099 S   0  0  0  0  0  0  0  0  0  0  0  0
  1  2  1  0  0  0  0
  1  5  2  0  0  0  0
  2  6  2  0  0  0  0
  3  8  2  0  0  0  0
  3 16  1  0  0  0  0
  4  9  1  0  0  0  0
  4 16  2  0  0  0  0
  5 19  1  0  0  0  0
  6 21  1  0  0  0  0
  7 10  2  0  0  0  0
  7 20  1  0  0  0  0
  8 23  1  0  0  0  0
  9 23  2  0  0  0  0
 10 24  1  0  0  0  0
 11 12  2  0  0  0  0
 11 25  1  0  0  0  0
 12 26  1  0  0  0  0
 13 17  1  0  0  0  0
 13 30  2  0  0  0  0
 14 22  1  0  0  0  0
 14 24  2  0  0  0  0
 15 26  2  0  0  0  0
 15 27  1  0  0  0  0
 16 28  1  0  0  0  0
 17 31  2  0  0  0  0
 17 32  1  0  0  0  0
 18 28  1  0  0  0  0
 18 29  2  0  0  0  0
 18 33  1  0  0  0  0
 19 21  2  0  0  0  0
 19 39  1  0  0  0  0
 20 22  2  0  0  0  0
 20 40  1  0  0  0  0
 21 48  1  0  0  0  0
 22 41  1  0  0  0  0
 23 80  1  0  0  0  0
 24 81  1  0  0  0  0
 25 27  2  0  0  0  0
 25 80  1  0  0  0  0
 26 82  1  0  0  0  0
 27 83  1  0  0  0  0
 28 62  2  0  0  0  0
 29 63  1  0  0  0  0
 29 66  1  0  0  0  0
 30 69  1  0  0  0  0
 30 84  1  0  0  0  0
 31 68  1  0  0  0  0
 31 84  1  0  0  0  0
 32 51  1  0  0  0  0
 32 73  2  0  0  0  0
 33 67  1  0  0  0  0
 33 74  2  0  0  0  0
 34 49  1  0  0  0  0
 34 70  1  0  0  0  0
 34 75  2  0  0  0  0
 35 57  1  0  0  0  0
 35 58  1  0  0  0  0
 35 76  2  0  0  0  0
 36 59  1  0  0  0  0
 36 64  1  0  0  0  0
 36 77  2  0  0  0  0
 37 60  1  0  0  0  0
 37 71  1  0  0  0  0
 37 78  2  0  0  0  0
 38 65  1  0  0  0  0
 38 68  1  0  0  0  0
 38 79  2  0  0  0  0
 39 42  1  0  0  0  0
 40 49  1  0  0  0  0
 41 64  1  0  0  0  0
 42 44  1  0  0  0  0
 43 45  1  0  0  0  0
 43 46  1  0  0  0  0
 44 48  1  0  0  0  0
 45 50  1  0  0  0  0
 46 65  1  0  0  0  0
 47 50  1  0  0  0  0
 47 65  1  0  0  0  0
 48 70  1  0  0  0  0
 49 64  1  0  0  0  0
 50 63  1  0  0  0  0
 52 60  1  0  0  0  0
 53 61  1  0  0  0  0
 54 61  1  0  0  0  0
 55 61  1  0  0  0  0
 56 72  1  0  0  0  0
 57 69  1  0  0  0  0
 58 81  1  0  0  0  0
 59 61  1  0  0  0  0
 59 71  1  0  0  0  0
 60 72  1  0  0  0  0
 62 63  1  0  0  0  0
M  CHG  1  72   1
M  ISO  4  38 100  58 101  68 100  81 101
M  END
> <Batch ID>
0156

> <Smiles>
CNC(C)C(=O)NC(C(=O)N1Cc2cc([101O:1][101CH2:1]C(=O)CNc3cc(C(C)=O)c([100NH:0][100C:0](=O)N4CCCC(n5nc(-c6ccc(Oc7ccc(F)cc7F)cc6)c(C(N)=O)c5N)C4)s3)ccc2CC1C(=O)NC1CCCc2ccccc21)C(C)(C)C

> <Shape>
0.283

> <Color>
0.103

> <Negative vol penalty>
0.000

$$$$

  -OEChem-04052303393D

 86 95  0     1  0  0  0  0  0999 V2000
  -29.8699  -31.3191   25.9948 C   0  0  0  0  0  0  0  0  0  0  0  0
  -29.4866  -30.2725   25.1624 C   0  0  0  0  0  0  0  0  0  0  0  0
  -24.4532   -7.9227   20.1889 C   0  0  0  0  0  0  0  0  0  0  0  0
  -22.7244   -9.5642   19.7968 C   0  0  0  0  0  0  0  0  0  0  0  0
  -28.9004  -32.1074   26.6133 C   0  0  0  0  0  0  0  0  0  0  0  0
  -28.1333  -30.0128   24.9489 C   0  0  0  0  0  0  0  0  0  0  0  0
  -27.0635  -29.1664   20.0720 C   0  0  0  0  0  0  0  0  0  0  0  0
  -23.5122   -7.0691   20.7646 C   0  0  0  0  0  0  0  0  0  0  0  0
  -21.7833   -8.7105   20.3725 C   0  0  0  0  0  0  0  0  0  0  0  0
  -27.3783  -27.9083   19.5601 C   0  0  0  0  0  0  0  0  0  0  0  0
  -21.9184   -6.7558   23.7287 C   0  0  0  0  0  0  0  0  0  0  0  0
  -22.2647   -6.1205   24.9213 C   0  0  0  0  0  0  0  0  0  0  0  0
  -25.0725  -27.2408   19.7992 C   0  0  0  0  0  0  0  0  0  0  0  0
  -26.3285  -18.7138   21.0129 C   0  0  0  0  0  0  0  0  0  0  0  0
  -21.9775   -3.9697   23.8589 C   0  0  0  0  0  0  0  0  0  0  0  0
  -24.3837  -17.7740   20.1543 C   0  0  0  0  0  0  0  0  0  0  0  0
  -24.0593   -9.1703   19.7051 C   0  0  0  0  0  0  0  0  0  0  0  0
  -25.4016  -10.1192   17.7543 C   0  0  0  0  0  0  0  0  0  0  0  0
  -27.5346  -31.8633   26.3996 C   0  0  0  0  0  0  0  0  0  0  0  0
  -25.7508  -29.4679   20.4621 C   0  0  0  0  0  0  0  0  0  0  0  0
  -27.1445  -30.7977   25.5661 C   0  0  0  0  0  0  0  0  0  0  0  0
  -24.7432  -28.5042   20.3133 C   0  0  0  0  0  0  0  0  0  0  0  0
  -25.6544  -17.5208   20.6223 C   0  0  0  0  0  0  0  0  0  0  0  0
  -22.1773   -7.4630   20.8564 C   0  0  0  0  0  0  0  0  0  0  0  0
  -26.3833  -26.9443   19.4263 C   0  0  0  0  0  0  0  0  0  0  0  0
  -21.6016   -5.9980   22.6013 C   0  0  0  0  0  0  0  0  0  0  0  0
  -22.2943   -4.7275   24.9864 C   0  0  0  0  0  0  0  0  0  0  0  0
  -21.6311   -4.6050   22.6664 C   0  0  0  0  0  0  0  0  0  0  0  0
  -25.0310  -10.0527   19.1108 C   0  0  0  0  0  0  0  0  0  0  0  0
  -25.5473  -19.8335   20.8283 C   0  0  0  0  0  0  0  0  0  0  0  0
  -26.3518  -11.1098   17.7061 C   0  0  0  0  0  0  0  0  0  0  0  0
  -24.9290   -9.3541   16.6376 C   0  0  0  0  0  0  0  0  0  0  0  0
  -24.3542  -30.2760   23.2008 C   0  0  0  0  0  0  0  0  0  0  0  0
  -21.7504  -30.6688   21.3065 C   0  0  0  0  0  0  0  0  0  0  0  0
  -20.1295  -29.8778   18.4093 C   0  0  0  0  0  0  0  0  0  0  0  0
  -27.4742  -15.8611   21.1514 C   0  0  0  0  0  0  0  0  0  0  0  0
  -26.5228  -32.7126   27.1273 C   0  0  0  0  0  0  0  0  0  0  0  0
  -25.4223  -30.8385   20.9875 C   0  0  0  0  0  0  0  0  0  0  0  0
  -23.3144  -28.7847   20.6985 C   0  0  0  0  0  0  0  0  0  0  0  0
  -25.1126  -32.6069   26.5524 C   0  0  0  0  0  0  0  0  0  0  0  0
  -29.7185  -13.2032   20.3927 C   0  0  0  0  0  0  0  0  0  0  0  0
  -24.7426  -31.1469   26.3109 C   0  0  0  0  0  0  0  0  0  0  0  0
  -28.8056  -12.1019   19.8487 C   0  0  0  0  0  0  0  0  0  0  0  0
  -27.0176  -23.0843   18.2441 C   0  0  0  0  0  0  0  0  0  0  0  0
  -29.0548  -13.9809   21.5277 C   0  0  0  0  0  0  0  0  0  0  0  0
  -26.8136  -13.4222   20.6709 C   0  0  0  0  0  0  0  0  0  0  0  0
  -26.7765  -21.6808   18.7807 C   0  0  0  0  0  0  0  0  0  0  0  0
  -27.4185  -23.2131   20.5840 C   0  0  0  0  0  0  0  0  0  0  0  0
  -25.6867  -30.5002   25.2901 C   0  0  1  0  0  0  0  0  0  0  0  0
  -24.1531  -30.8658   21.8335 C   0  0  1  0  0  0  0  0  0  0  0  0
  -27.4138  -12.6535   19.4824 C   0  0  2  0  0  0  0  0  0  0  0  0
  -27.9642  -23.7161   19.2573 C   0  0  2  0  0  0  0  0  0  0  0  0
  -26.2467  -21.5161   22.5811 C   0  0  0  0  0  0  0  0  0  0  0  0
  -18.0014  -30.3259   17.1571 C   0  0  0  0  0  0  0  0  0  0  0  0
  -20.2470  -28.8082   23.2007 C   0  0  0  0  0  0  0  0  0  0  0  0
  -18.4937  -28.5399   21.4338 C   0  0  0  0  0  0  0  0  0  0  0  0
  -18.9325  -30.7880   22.4217 C   0  0  0  0  0  0  0  0  0  0  0  0
  -21.5888  -31.0507   16.1172 C   0  0  0  0  0  0  0  0  0  0  0  0
  -30.2016  -23.7676   19.9746 C   0  0  0  0  0  0  0  0  0  0  0  0
  -28.0072  -25.2264   19.1661 C   0  0  0  0  0  0  0  0  0  1  0  0
  -25.8895  -21.2771   21.1163 C   0  0  1  0  0  0  0  0  0  0  0  0
  -20.6250  -29.7782   20.8381 C   0  0  1  0  0  0  0  0  0  0  0  0
  -19.4479  -30.7459   17.3671 C   0  0  2  0  0  0  0  0  0  0  0  0
  -19.6017  -29.4723   21.9680 C   0  0  0  0  0  0  0  0  0  0  0  0
  -25.6921  -10.9310   19.8696 N   0  0  0  0  0  0  0  0  0  0  0  0
  -26.4876  -11.5587   18.9868 N   0  0  0  0  0  0  0  0  0  0  0  0
  -23.0445  -30.1374   21.2132 N   0  0  0  0  0  0  0  0  0  0  0  0
  -27.7426  -14.4766   21.1067 N   0  0  0  0  0  0  0  0  0  0  0  0
  -27.0761  -11.6319   16.6936 N   0  0  0  0  0  0  0  0  0  0  0  0
  -23.9505   -8.3765   16.8638 N   0  0  0  0  0  0  0  0  0  0  0  0
  -26.2051  -16.2174   20.6962 N   0  0  0  0  0  0  0  0  0  0  0  0
  -25.3325  -30.9054   23.9466 N   0  0  0  0  0  0  0  0  0  0  0  0
  -20.0467  -30.4321   19.6691 N   0  0  0  0  0  0  0  0  0  0  0  0
  -27.0175  -21.7815   20.2749 N   0  3  1  0  0  0  0  0  0  0  0  0
  -20.1607  -30.6450   16.0623 N   0  3  0  0  0  0  0  0  0  0  0  0
  -25.3735   -9.5208   15.4765 O   0  0  0  0  0  0  0  0  0  0  0  0
  -23.6713  -29.3216   23.5535 O   0  0  0  0  0  0  0  0  0  0  0  0
  -21.4914  -31.7970   21.7326 O   0  0  0  0  0  0  0  0  0  0  0  0
  -20.6772  -28.8126   18.1339 O   0  0  0  0  0  0  0  0  0  0  0  0
  -28.3184  -16.6737   21.5376 O   0  0  0  0  0  0  0  0  0  0  0  0
  -21.2587   -6.6302   21.4179 O   0  0  0  0  0  0  0  0  0  0  0  0
  -26.6880  -25.7154   18.9276 O   0  0  0  0  0  0  0  0  0  1  0  0
  -29.2806  -23.2069   19.0516 O   0  0  0  0  0  0  0  0  0  0  0  0
  -22.6283   -4.1176   26.1312 F   0  0  0  0  0  0  0  0  0  0  0  0
  -21.3289   -3.8716   21.5863 F   0  0  0  0  0  0  0  0  0  0  0  0
  -24.0080  -19.4443   20.1869 S   0  0  0  0  0  0  0  0  0  0  0  0
  1  2  1  0  0  0  0
  1  5  2  0  0  0  0
  2  6  2  0  0  0  0
  3  8  2  0  0  0  0
  3 17  1  0  0  0  0
  4  9  1  0  0  0  0
  4 17  2  0  0  0  0
  5 19  1  0  0  0  0
  6 21  1  0  0  0  0
  7 10  2  0  0  0  0
  7 20  1  0  0  0  0
  8 24  1  0  0  0  0
  9 24  2  0  0  0  0
 10 25  1  0  0  0  0
 11 12  2  0  0  0  0
 11 26  1  0  0  0  0
 12 27  1  0  0  0  0
 13 22  1  0  0  0  0
 13 25  2  0  0  0  0
 14 23  1  0  0  0  0
 14 30  2  0  0  0  0
 15 27  2  0  0  0  0
 15 28  1  0  0  0  0
 16 23  2  0  0  0  0
 16 86  1  0  0  0  0
 17 29  1  0  0  0  0
 18 29  1  0  0  0  0
 18 31  2  0  0  0  0
 18 32  1  0  0  0  0
 19 21  2  0  0  0  0
 19 37  1  0  0  0  0
 20 22  2  0  0  0  0
 20 38  1  0  0  0  0
 21 49  1  0  0  0  0
 22 39  1  0  0  0  0
 23 71  1  0  0  0  0
 24 81  1  0  0  0  0
 25 82  1  0  0  0  0
 26 28  2  0  0  0  0
 26 81  1  0  0  0  0
 27 84  1  0  0  0  0
 28 85  1  0  0  0  0
 29 65  2  0  0  0  0
 30 61  1  0  0  0  0
 30 86  1  0  0  0  0
 31 66  1  0  0  0  0
 31 69  1  0  0  0  0
 32 70  1  0  0  0  0
 32 76  2  0  0  0  0
 33 50  1  0  0  0  0
 33 72  1  0  0  0  0
 33 77  2  0  0  0  0
 34 62  1  0  0  0  0
 34 67  1  0  0  0  0
 34 78  2  0  0  0  0
 35 63  1  0  0  0  0
 35 73  1  0  0  0  0
 35 79  2  0  0  0  0
 36 68  1  0  0  0  0
 36 71  1  0  0  0  0
 36 80  2  0  0  0  0
 37 40  1  0  0  0  0
 38 50  1  0  0  0  0
 39 67  1  0  0  0  0
 40 42  1  0  0  0  0
 41 43  1  0  0  0  0
 41 45  1  0  0  0  0
 42 49  1  0  0  0  0
 43 51  1  0  0  0  0
 44 47  1  0  0  0  0
 44 52  1  0  0  0  0
 45 68  1  0  0  0  0
 46 51  1  0  0  0  0
 46 68  1  0  0  0  0
 47 74  1  0  0  0  0
 48 52  1  0  0  0  0
 48 74  1  0  0  0  0
 49 72  1  0  0  0  0
 50 67  1  0  0  0  0
 51 66  1  0  0  0  0
 52 60  1  0  0  0  0
 52 83  1  0  0  0  0
 53 61  1  0  0  0  0
 54 63  1  0  0  0  0
 55 64  1  0  0  0  0
 56 64  1  0  0  0  0
 57 64  1  0  0  0  0
 58 75  1  0  0  0  0
 59 83  1  0  0  0  0
 60 82  1  0  0  0  0
 61 74  1  0  0  0  0
 62 64  1  0  0  0  0
 62 73  1  0  0  0  0
 63 75  1  0  0  0  0
 65 66  1  0  0  0  0
M  CHG  2  74   1  75   1
M  ISO  4  36 100  60 101  71 100  82 101
M  END
> <Batch ID>
0156

> <Smiles>
CNC(C)C(=O)NC(C(=O)N1Cc2cc([101O:1][101CH2:1]C3(OC)CCN(C(C)c4cc([100NH:0][100C:0](=O)N5CCCC(n6nc(-c7ccc(Oc8ccc(F)cc8F)cc7)c(C(N)=O)c6N)C5)cs4)C3)ccc2CC1C(=O)NC1CCCc2ccccc21)C(C)(C)C

> <Shape>
0.290

> <Color>
0.111

> <Negative vol penalty>
0.000

$$$$

  -OEChem-04052303393D

 84 92  0     1  0  0  0  0  0999 V2000
  -28.5194  -17.3287   18.2056 C   0  0  0  0  0  0  0  0  0  0  0  0
  -27.4935  -18.1906   18.5801 C   0  0  0  0  0  0  0  0  0  0  0  0
  -18.3559  -27.8888   23.6001 C   0  0  0  0  0  0  0  0  0  0  0  0
  -23.2990  -14.4845   20.9383 C   0  0  0  0  0  0  0  0  0  0  0  0
  -25.0265  -14.7686   22.6033 C   0  0  0  0  0  0  0  0  0  0  0  0
  -18.4571  -26.4985   23.6476 C   0  0  0  0  0  0  0  0  0  0  0  0
  -29.8286  -17.5886   18.6085 C   0  0  0  0  0  0  0  0  0  0  0  0
  -27.7762  -19.3123   19.3586 C   0  0  0  0  0  0  0  0  0  0  0  0
  -25.0330  -24.7802   19.0698 C   0  0  0  0  0  0  0  0  0  0  0  0
  -19.0443  -28.6052   22.6210 C   0  0  0  0  0  0  0  0  0  0  0  0
  -24.0425  -13.4670   20.3405 C   0  0  0  0  0  0  0  0  0  0  0  0
  -25.7700  -13.7509   22.0055 C   0  0  0  0  0  0  0  0  0  0  0  0
  -24.0192  -25.3623   19.8296 C   0  0  0  0  0  0  0  0  0  0  0  0
  -28.2877  -11.4739   20.7070 C   0  0  0  0  0  0  0  0  0  0  0  0
  -29.6531  -11.6912   20.5225 C   0  0  0  0  0  0  0  0  0  0  0  0
  -19.9354  -26.5408   21.7371 C   0  0  0  0  0  0  0  0  0  0  0  0
  -25.6792  -26.4696   21.1851 C   0  0  0  0  0  0  0  0  0  0  0  0
  -29.1608  -13.6082   19.1368 C   0  0  0  0  0  0  0  0  0  0  0  0
  -23.7910  -15.1354   22.0697 C   0  0  0  0  0  0  0  0  0  0  0  0
  -19.2469  -25.8245   22.7162 C   0  0  0  0  0  0  0  0  0  0  0  0
  -22.0630  -16.0516   23.7075 C   0  0  0  0  0  0  0  0  0  0  0  0
  -30.1289  -18.7194   19.3842 C   0  0  0  0  0  0  0  0  0  0  0  0
  -26.3799  -25.0302   19.3693 C   0  0  0  0  0  0  0  0  0  0  0  0
  -29.0904  -19.5869   19.7733 C   0  0  0  0  0  0  0  0  0  0  0  0
  -26.7081  -25.8915   20.4260 C   0  0  0  0  0  0  0  0  0  0  0  0
  -19.8341  -27.9312   21.6895 C   0  0  0  0  0  0  0  0  0  0  0  0
  -25.2779  -13.1001   20.8741 C   0  0  0  0  0  0  0  0  0  0  0  0
  -24.3423  -26.2049   20.8892 C   0  0  0  0  0  0  0  0  0  0  0  0
  -27.3588  -12.3237   20.1064 C   0  0  0  0  0  0  0  0  0  0  0  0
  -30.0896  -12.7584   19.7375 C   0  0  0  0  0  0  0  0  0  0  0  0
  -27.7953  -13.3908   19.3213 C   0  0  0  0  0  0  0  0  0  0  0  0
  -23.0237  -16.1870   22.6874 C   0  0  0  0  0  0  0  0  0  0  0  0
  -21.6279  -17.3332   23.9415 C   0  0  0  0  0  0  0  0  0  0  0  0
  -19.3520  -24.3746   22.7669 C   0  0  0  0  0  0  0  0  0  0  0  0
  -19.7446  -23.5817   21.7472 C   0  0  0  0  0  0  0  0  0  0  0  0
  -21.6050  -14.8729   24.3831 C   0  0  0  0  0  0  0  0  0  0  0  0
  -19.8099  -22.1216   21.9588 C   0  0  0  0  0  0  0  0  0  0  0  0
  -28.8470  -23.2401   20.2709 C   0  0  0  0  0  0  0  0  0  0  0  0
  -21.7360  -29.0753   20.9351 C   0  0  0  0  0  0  0  0  0  0  0  0
  -30.4938  -26.0093   19.8937 C   0  0  0  0  0  0  0  0  0  0  0  0
  -30.4440  -29.4205   19.8038 C   0  0  0  0  0  0  0  0  0  0  0  0
  -31.5521  -18.9331   19.8354 C   0  0  0  0  0  0  0  0  0  0  0  0
  -27.4612  -24.4157   18.5234 C   0  0  0  0  0  0  0  0  0  0  0  0
  -28.1385  -26.2082   20.7758 C   0  0  0  0  0  0  0  0  0  0  0  0
  -31.8239  -20.3463   20.3446 C   0  0  0  0  0  0  0  0  0  0  0  0
  -23.4341  -21.7747   22.3791 C   0  0  0  0  0  0  0  0  0  0  0  0
  -30.7221  -20.7900   21.3017 C   0  0  0  0  0  0  0  0  0  0  0  0
  -23.5684  -20.2621   22.5332 C   0  0  0  0  0  0  0  0  0  0  0  0
  -22.3052  -22.1539   21.4218 C   0  0  0  0  0  0  0  0  0  0  0  0
  -21.1242  -20.0372   21.9368 C   0  0  0  0  0  0  0  0  0  0  0  0
  -29.3609  -20.8275   20.5966 C   0  0  1  0  0  0  0  0  0  0  0  0
  -28.8055  -24.3324   19.2399 C   0  0  1  0  0  0  0  0  0  0  0  0
  -22.2235  -19.6341   22.9320 C   0  0  1  0  0  0  0  0  0  0  0  0
  -22.5730  -29.8606   19.9460 C   0  0  0  0  0  0  0  0  0  0  0  0
  -22.5644  -30.1776   23.0373 C   0  0  0  0  0  0  0  0  0  0  0  0
  -31.9516  -31.4056   19.5143 C   0  0  0  0  0  0  0  0  0  0  0  0
  -31.5274  -25.6363   22.7402 C   0  0  0  0  0  0  0  0  0  0  0  0
  -32.2201  -28.0422   22.7295 C   0  0  0  0  0  0  0  0  0  0  0  0
  -33.2392  -26.4454   21.1064 C   0  0  0  0  0  0  0  0  0  0  0  0
  -28.9918  -30.3169   17.3858 C   0  0  0  0  0  0  0  0  0  0  0  0
  -23.6313  -28.0474   22.2141 C   0  0  0  0  0  0  0  0  0  1  0  0
  -22.3324  -28.8456   22.3283 C   0  0  2  0  0  0  0  0  0  0  0  0
  -30.8405  -27.1769   20.7855 C   0  0  1  0  0  0  0  0  0  0  0  0
  -31.0364  -30.4108   18.8175 C   0  0  2  0  0  0  0  0  0  0  0  0
  -31.9298  -26.8179   21.8353 C   0  0  0  0  0  0  0  0  0  0  0  0
  -23.1894  -17.4544   22.3000 N   0  0  0  0  0  0  0  0  0  0  0  0
  -20.5272  -28.6521   20.7058 N   0  0  0  0  0  0  0  0  0  0  0  0
  -22.3269  -18.1272   23.0807 N   0  0  0  0  0  0  0  0  0  0  0  0
  -21.0432  -21.4947   21.7898 N   0  0  0  0  0  0  0  0  0  0  0  0
  -29.1600  -25.5781   19.9232 N   0  0  0  0  0  0  0  0  0  0  0  0
  -20.7193  -17.8470   24.7976 N   0  0  0  0  0  0  0  0  0  0  0  0
  -22.1575  -13.6372   24.0196 N   0  0  0  0  0  0  0  0  0  0  0  0
  -29.2494  -22.0144   19.7760 N   0  0  0  0  0  0  0  0  0  0  0  0
  -31.2057  -28.2749   19.8970 N   0  0  0  0  0  0  0  0  0  0  0  0
  -29.9527  -31.1699   18.1316 N   0  3  0  0  0  0  0  0  0  0  0  0
  -20.7199  -14.9123   25.2711 O   0  0  0  0  0  0  0  0  0  0  0  0
  -18.7658  -21.5446   22.2681 O   0  0  0  0  0  0  0  0  0  0  0  0
  -28.5382  -23.4912   21.4299 O   0  0  0  0  0  0  0  0  0  0  0  0
  -31.3724  -25.5031   19.1912 O   0  0  0  0  0  0  0  0  0  0  0  0
  -29.4111  -29.6425   20.4317 O   0  0  0  0  0  0  0  0  0  0  0  0
  -26.0036  -12.1071   20.2912 O   0  0  0  0  0  0  0  0  0  0  0  0
  -23.3548  -26.7738   21.6328 O   0  0  0  0  0  0  0  0  0  1  0  0
  -31.4009  -12.9679   19.5616 F   0  0  0  0  0  0  0  0  0  0  0  0
  -26.9077  -14.2112   18.7427 F   0  0  0  0  0  0  0  0  0  0  0  0
  1  2  1  0  0  0  0
  1  7  2  0  0  0  0
  2  8  2  0  0  0  0
  3  6  1  0  0  0  0
  3 10  2  0  0  0  0
  4 11  2  0  0  0  0
  4 19  1  0  0  0  0
  5 12  1  0  0  0  0
  5 19  2  0  0  0  0
  6 20  2  0  0  0  0
  7 22  1  0  0  0  0
  8 24  1  0  0  0  0
  9 13  2  0  0  0  0
  9 23  1  0  0  0  0
 10 26  1  0  0  0  0
 11 27  1  0  0  0  0
 12 27  2  0  0  0  0
 13 28  1  0  0  0  0
 14 15  2  0  0  0  0
 14 29  1  0  0  0  0
 15 30  1  0  0  0  0
 16 20  1  0  0  0  0
 16 26  2  0  0  0  0
 17 25  1  0  0  0  0
 17 28  2  0  0  0  0
 18 30  2  0  0  0  0
 18 31  1  0  0  0  0
 19 32  1  0  0  0  0
 20 34  1  0  0  0  0
 21 32  1  0  0  0  0
 21 33  2  0  0  0  0
 21 36  1  0  0  0  0
 22 24  2  0  0  0  0
 22 42  1  0  0  0  0
 23 25  2  0  0  0  0
 23 43  1  0  0  0  0
 24 51  1  0  0  0  0
 25 44  1  0  0  0  0
 26 67  1  0  0  0  0
 27 81  1  0  0  0  0
 28 82  1  0  0  0  0
 29 31  2  0  0  0  0
 29 81  1  0  0  0  0
 30 83  1  0  0  0  0
 31 84  1  0  0  0  0
 32 66  2  0  0  0  0
 33 68  1  0  0  0  0
 33 71  1  0  0  0  0
 34 35  2  0  0  0  0
 35 37  1  0  0  0  0
 36 72  1  0  0  0  0
 36 76  2  0  0  0  0
 37 69  1  0  0  0  0
 37 77  2  0  0  0  0
 38 52  1  0  0  0  0
 38 73  1  0  0  0  0
 38 78  2  0  0  0  0
 39 54  1  0  0  0  0
 39 62  1  0  0  0  0
 39 67  2  0  0  0  0
 40 63  1  0  0  0  0
 40 70  1  0  0  0  0
 40 79  2  0  0  0  0
 41 64  1  0  0  0  0
 41 74  1  0  0  0  0
 41 80  2  0  0  0  0
 42 45  1  0  0  0  0
 43 52  1  0  0  0  0
 44 70  1  0  0  0  0
 45 47  1  0  0  0  0
 46 48  1  0  0  0  0
 46 49  1  0  0  0  0
 47 51  1  0  0  0  0
 48 53  1  0  0  0  0
 49 69  1  0  0  0  0
 50 53  1  0  0  0  0
 50 69  1  0  0  0  0
 51 73  1  0  0  0  0
 52 70  1  0  0  0  0
 53 68  1  0  0  0  0
 55 62  1  0  0  0  0
 56 64  1  0  0  0  0
 57 65  1  0  0  0  0
 58 65  1  0  0  0  0
 59 65  1  0  0  0  0
 60 75  1  0  0  0  0
 61 62  1  0  0  0  0
 61 82  1  0  0  0  0
 63 65  1  0  0  0  0
 63 74  1  0  0  0  0
 64 75  1  0  0  0  0
 66 68  1  0  0  0  0
M  CHG  1  75   1
M  ISO  4  35 100  37 100  61 101  82 101
M  END
> <Batch ID>
0156

> <Smiles>
CNC(C)C(=O)NC(C(=O)N1Cc2cc([101O:1][101CH2:1]C(C)=C(C)Nc3cccc(C=[100CH:0][100C:0](=O)N4CCCC(n5nc(-c6ccc(Oc7ccc(F)cc7F)cc6)c(C(N)=O)c5N)C4)c3)ccc2CC1C(=O)NC1CCCc2ccccc21)C(C)(C)C

> <Shape>
0.230

> <Color>
0.058

> <Negative vol penalty>
0.000

$$$$

  -OEChem-04052303393D

 84 92  0     1  0  0  0  0  0999 V2000
  -25.3447  -10.7034   18.4900 C   0  0  0  0  0  0  0  0  0  0  0  0
  -24.9558  -11.5892   19.4897 C   0  0  0  0  0  0  0  0  0  0  0  0
  -24.9207  -28.7546   19.2681 C   0  0  0  0  0  0  0  0  0  0  0  0
  -25.8585  -27.2780   20.9346 C   0  0  0  0  0  0  0  0  0  0  0  0
  -26.6899  -10.5966   18.1393 C   0  0  0  0  0  0  0  0  0  0  0  0
  -25.9122  -12.3681   20.1402 C   0  0  0  0  0  0  0  0  0  0  0  0
  -24.4630  -17.1926   20.6587 C   0  0  0  0  0  0  0  0  0  0  0  0
  -26.1499  -29.4035   19.1512 C   0  0  0  0  0  0  0  0  0  0  0  0
  -27.0878  -27.9268   20.8177 C   0  0  0  0  0  0  0  0  0  0  0  0
  -23.5508  -17.4778   21.6738 C   0  0  0  0  0  0  0  0  0  0  0  0
  -29.7129  -27.9213   18.6894 C   0  0  0  0  0  0  0  0  0  0  0  0
  -30.8574  -27.1283   18.6086 C   0  0  0  0  0  0  0  0  0  0  0  0
  -25.3571  -18.2571   23.0698 C   0  0  0  0  0  0  0  0  0  0  0  0
  -31.7172  -28.1647   20.6146 C   0  0  0  0  0  0  0  0  0  0  0  0
  -19.8086  -22.4329   24.9329 C   0  0  0  0  0  0  0  0  0  0  0  0
  -24.7750  -27.6919   20.1598 C   0  0  0  0  0  0  0  0  0  0  0  0
  -23.0583  -25.9076   19.5460 C   0  0  0  0  0  0  0  0  0  0  0  0
  -27.6620  -11.3816   18.7791 C   0  0  0  0  0  0  0  0  0  0  0  0
  -25.8327  -17.4277   20.8459 C   0  0  0  0  0  0  0  0  0  0  0  0
  -27.2719  -12.2708   19.7987 C   0  0  0  0  0  0  0  0  0  0  0  0
  -26.2843  -17.9764   22.0547 C   0  0  0  0  0  0  0  0  0  0  0  0
  -20.9689  -22.4757   25.6741 C   0  0  0  0  0  0  0  0  0  0  0  0
  -21.2883  -23.7999   26.0922 C   0  0  0  0  0  0  0  0  0  0  0  0
  -27.2335  -28.9896   19.9260 C   0  0  0  0  0  0  0  0  0  0  0  0
  -23.9981  -18.0074   22.8806 C   0  0  0  0  0  0  0  0  0  0  0  0
  -29.5704  -28.8362   19.7327 C   0  0  0  0  0  0  0  0  0  0  0  0
  -31.8596  -27.2499   19.5712 C   0  0  0  0  0  0  0  0  0  0  0  0
  -30.5726  -28.9578   20.6953 C   0  0  0  0  0  0  0  0  0  0  0  0
  -23.5053  -27.0217   20.2814 C   0  0  0  0  0  0  0  0  0  0  0  0
  -20.3600  -24.7188   25.6543 C   0  0  0  0  0  0  0  0  0  0  0  0
  -21.7991  -25.6570   20.0338 C   0  0  0  0  0  0  0  0  0  0  0  0
  -23.7221  -25.1655   18.5143 C   0  0  0  0  0  0  0  0  0  0  0  0
  -20.3166  -26.1325   25.8566 C   0  0  0  0  0  0  0  0  0  0  0  0
  -19.2303  -26.9754   25.3064 C   0  0  0  0  0  0  0  0  0  0  0  0
  -28.4369  -15.6055   20.8826 C   0  0  0  0  0  0  0  0  0  0  0  0
  -29.9582  -18.4616   21.1082 C   0  0  0  0  0  0  0  0  0  0  0  0
  -21.4543  -20.0066   25.5795 C   0  0  0  0  0  0  0  0  0  0  0  0
  -29.8251  -21.7524   22.0026 C   0  0  0  0  0  0  0  0  0  0  0  0
  -29.1097  -11.1971   18.3986 C   0  0  0  0  0  0  0  0  0  0  0  0
  -26.8007  -17.1396   19.7314 C   0  0  0  0  0  0  0  0  0  0  0  0
  -27.7421  -18.2663   22.2983 C   0  0  0  0  0  0  0  0  0  0  0  0
  -30.0144  -12.3298   18.8769 C   0  0  0  0  0  0  0  0  0  0  0  0
  -18.0446  -27.8294   22.0320 C   0  0  0  0  0  0  0  0  0  0  0  0
  -29.7214  -12.6674   20.3353 C   0  0  0  0  0  0  0  0  0  0  0  0
  -19.2817  -27.6544   21.1518 C   0  0  0  0  0  0  0  0  0  0  0  0
  -18.4155  -28.3367   23.4218 C   0  0  0  0  0  0  0  0  0  0  0  0
  -20.6638  -27.3053   23.2478 C   0  0  0  0  0  0  0  0  0  0  0  0
  -28.2767  -13.1506   20.5103 C   0  0  1  0  0  0  0  0  0  0  0  0
  -28.2318  -16.9384   20.2200 C   0  0  1  0  0  0  0  0  0  0  0  0
  -20.3315  -26.7678   21.8449 C   0  0  2  0  0  0  0  0  0  0  0  0
  -31.2369  -23.8245   22.1053 C   0  0  0  0  0  0  0  0  0  0  0  0
  -31.3792  -17.3681   23.5770 C   0  0  0  0  0  0  0  0  0  0  0  0
  -32.0134  -19.7173   24.1667 C   0  0  0  0  0  0  0  0  0  0  0  0
  -32.8340  -18.7019   22.0411 C   0  0  0  0  0  0  0  0  0  0  0  0
  -28.0371  -23.2028   20.1429 C   0  0  0  0  0  0  0  0  0  0  0  0
  -23.6375  -18.8272   25.0838 C   0  0  0  0  0  0  0  0  0  1  0  0
  -30.3991  -19.3511   22.2455 C   0  0  1  0  0  0  0  0  0  0  0  0
  -22.5194  -19.0474   26.0974 C   0  0  2  0  0  0  0  0  0  0  0  0
  -30.2560  -23.0125   21.2739 C   0  0  2  0  0  0  0  0  0  0  0  0
  -31.6291  -18.7774   23.0040 C   0  0  0  0  0  0  0  0  0  0  0  0
  -22.6033  -27.4494   21.1687 N   0  0  0  0  0  0  0  0  0  0  0  0
  -21.2182  -26.8125   26.5398 N   0  0  0  0  0  0  0  0  0  0  0  0
  -21.5769  -26.5997   20.9941 N   0  0  0  0  0  0  0  0  0  0  0  0
  -19.4395  -27.4940   24.0362 N   0  0  0  0  0  0  0  0  0  0  0  0
  -28.6503  -17.9616   21.1803 N   0  0  0  0  0  0  0  0  0  0  0  0
  -22.3778  -24.1232   26.8312 N   0  0  0  0  0  0  0  0  0  0  0  0
  -20.8712  -24.7244   19.7307 N   0  0  0  0  0  0  0  0  0  0  0  0
  -25.0129  -25.5575   18.1343 N   0  0  0  0  0  0  0  0  0  0  0  0
  -21.7260  -21.3160   25.9645 N   0  0  0  0  0  0  0  0  0  0  0  0
  -28.1466  -14.5241   20.0729 N   0  0  0  0  0  0  0  0  0  0  0  0
  -30.6162  -20.6735   21.6688 N   0  0  0  0  0  0  0  0  0  0  0  0
  -21.9111  -17.7286   26.4375 N   0  3  0  0  0  0  0  0  0  0  0  0
  -29.0730  -23.8679   20.9745 N   0  3  0  0  0  0  0  0  0  0  0  0
  -23.1800  -24.1939   17.9349 O   0  0  0  0  0  0  0  0  0  0  0  0
  -18.2586  -27.1256   26.0355 O   0  0  0  0  0  0  0  0  0  0  0  0
  -28.8308  -15.5615   22.0422 O   0  0  0  0  0  0  0  0  0  0  0  0
  -30.7428  -18.2251   20.1862 O   0  0  0  0  0  0  0  0  0  0  0  0
  -20.5034  -19.6106   24.9118 O   0  0  0  0  0  0  0  0  0  0  0  0
  -28.8834  -21.7284   22.7920 O   0  0  0  0  0  0  0  0  0  0  0  0
  -28.4331  -29.6223   19.8120 O   0  0  0  0  0  0  0  0  0  0  0  0
  -23.1100  -18.2861   23.8733 O   0  0  0  0  0  0  0  0  0  1  0  0
  -32.9580  -26.4872   19.4944 F   0  0  0  0  0  0  0  0  0  0  0  0
  -30.4408  -29.8341   21.7006 F   0  0  0  0  0  0  0  0  0  0  0  0
  -19.1096  -23.9846   24.7434 S   0  0  0  0  0  0  0  0  0  0  0  0
  1  2  1  0  0  0  0
  1  5  2  0  0  0  0
  2  6  2  0  0  0  0
  3  8  2  0  0  0  0
  3 16  1  0  0  0  0
  4  9  1  0  0  0  0
  4 16  2  0  0  0  0
  5 18  1  0  0  0  0
  6 20  1  0  0  0  0
  7 10  2  0  0  0  0
  7 19  1  0  0  0  0
  8 24  1  0  0  0  0
  9 24  2  0  0  0  0
 10 25  1  0  0  0  0
 11 12  2  0  0  0  0
 11 26  1  0  0  0  0
 12 27  1  0  0  0  0
 13 21  1  0  0  0  0
 13 25  2  0  0  0  0
 14 27  2  0  0  0  0
 14 28  1  0  0  0  0
 15 22  2  0  0  0  0
 15 84  1  0  0  0  0
 16 29  1  0  0  0  0
 17 29  1  0  0  0  0
 17 31  2  0  0  0  0
 17 32  1  0  0  0  0
 18 20  2  0  0  0  0
 18 39  1  0  0  0  0
 19 21  2  0  0  0  0
 19 40  1  0  0  0  0
 20 48  1  0  0  0  0
 21 41  1  0  0  0  0
 22 23  1  0  0  0  0
 22 69  1  0  0  0  0
 23 30  2  0  0  0  0
 23 66  1  0  0  0  0
 24 80  1  0  0  0  0
 25 81  1  0  0  0  0
 26 28  2  0  0  0  0
 26 80  1  0  0  0  0
 27 82  1  0  0  0  0
 28 83  1  0  0  0  0
 29 61  2  0  0  0  0
 30 33  1  0  0  0  0
 30 84  1  0  0  0  0
 31 63  1  0  0  0  0
 31 67  1  0  0  0  0
 32 68  1  0  0  0  0
 32 74  2  0  0  0  0
 33 34  1  0  0  0  0
 33 62  2  0  0  0  0
 34 64  1  0  0  0  0
 34 75  2  0  0  0  0
 35 49  1  0  0  0  0
 35 70  1  0  0  0  0
 35 76  2  0  0  0  0
 36 57  1  0  0  0  0
 36 65  1  0  0  0  0
 36 77  2  0  0  0  0
 37 58  1  0  0  0  0
 37 69  1  0  0  0  0
 37 78  2  0  0  0  0
 38 59  1  0  0  0  0
 38 71  1  0  0  0  0
 38 79  2  0  0  0  0
 39 42  1  0  0  0  0
 40 49  1  0  0  0  0
 41 65  1  0  0  0  0
 42 44  1  0  0  0  0
 43 45  1  0  0  0  0
 43 46  1  0  0  0  0
 44 48  1  0  0  0  0
 45 50  1  0  0  0  0
 46 64  1  0  0  0  0
 47 50  1  0  0  0  0
 47 64  1  0  0  0  0
 48 70  1  0  0  0  0
 49 65  1  0  0  0  0
 50 63  1  0  0  0  0
 51 59  1  0  0  0  0
 52 60  1  0  0  0  0
 53 60  1  0  0  0  0
 54 60  1  0  0  0  0
 55 73  1  0  0  0  0
 56 58  1  0  0  0  0
 56 81  1  0  0  0  0
 57 60  1  0  0  0  0
 57 71  1  0  0  0  0
 58 72  1  0  0  0  0
 59 73  1  0  0  0  0
 61 63  1  0  0  0  0
M  CHG  2  72   1  73   1
M  ISO  4  33 100  34 100  56 101  81 101
M  END
> <Batch ID>
0156

> <Smiles>
CNC(C)C(=O)NC(C(=O)N1Cc2cc([101O:1][101CH2:1]C(N)C(=O)Nc3csc([100C:0](=N)[100C:0](=O)N4CCCC(n5nc(-c6ccc(Oc7ccc(F)cc7F)cc6)c(C(N)=O)c5N)C4)c3N)ccc2CC1C(=O)NC1CCCc2ccccc21)C(C)(C)C

> <Shape>
0.193

> <Color>
0.055

> <Negative vol penalty>
0.000

$$$$

  -OEChem-04052303393D

 88 97  0     1  0  0  0  0  0999 V2000
  -16.8887  -29.9309   24.2768 C   0  0  0  0  0  0  0  0  0  0  0  0
  -18.1006  -30.2805   24.8638 C   0  0  0  0  0  0  0  0  0  0  0  0
  -25.9453  -14.9072   22.8318 C   0  0  0  0  0  0  0  0  0  0  0  0
  -23.5983  -14.7117   22.2927 C   0  0  0  0  0  0  0  0  0  0  0  0
  -16.8594  -28.9909   23.2476 C   0  0  0  0  0  0  0  0  0  0  0  0
  -19.2839  -29.6893   24.4225 C   0  0  0  0  0  0  0  0  0  0  0  0
  -26.2464  -31.1211   23.5333 C   0  0  0  0  0  0  0  0  0  0  0  0
  -26.2095  -13.7482   22.1021 C   0  0  0  0  0  0  0  0  0  0  0  0
  -23.8625  -13.5527   21.5630 C   0  0  0  0  0  0  0  0  0  0  0  0
  -27.5015  -30.6090   23.8593 C   0  0  0  0  0  0  0  0  0  0  0  0
  -23.8652  -10.3433   19.8573 C   0  0  0  0  0  0  0  0  0  0  0  0
  -23.0136   -9.2538   20.0401 C   0  0  0  0  0  0  0  0  0  0  0  0
  -27.3388  -29.0562   22.0203 C   0  0  0  0  0  0  0  0  0  0  0  0
  -23.5934   -9.1939   22.3847 C   0  0  0  0  0  0  0  0  0  0  0  0
  -25.7938  -25.0264   20.9957 C   0  0  0  0  0  0  0  0  0  0  0  0
  -24.6397  -15.3890   22.9272 C   0  0  0  0  0  0  0  0  0  0  0  0
  -24.6104  -16.8023   25.0507 C   0  0  0  0  0  0  0  0  0  0  0  0
  -18.0441  -28.3951   22.7869 C   0  0  0  0  0  0  0  0  0  0  0  0
  -25.5221  -30.5963   22.4533 C   0  0  0  0  0  0  0  0  0  0  0  0
  -19.2703  -28.7395   23.3870 C   0  0  0  0  0  0  0  0  0  0  0  0
  -26.0758  -29.5651   21.6812 C   0  0  0  0  0  0  0  0  0  0  0  0
  -25.1681  -13.0710   21.4677 C   0  0  0  0  0  0  0  0  0  0  0  0
  -28.0466  -29.5745   23.1045 C   0  0  0  0  0  0  0  0  0  0  0  0
  -24.5811  -10.8580   20.9382 C   0  0  0  0  0  0  0  0  0  0  0  0
  -22.8777   -8.6791   21.3037 C   0  0  0  0  0  0  0  0  0  0  0  0
  -24.4451  -10.2833   22.2019 C   0  0  0  0  0  0  0  0  0  0  0  0
  -24.3661  -16.5859   23.6813 C   0  0  0  0  0  0  0  0  0  0  0  0
  -24.1784  -18.0862   25.2778 C   0  0  0  0  0  0  0  0  0  0  0  0
  -25.9096  -23.6900   21.3163 C   0  0  0  0  0  0  0  0  0  0  0  0
  -27.9720  -24.8342   20.8265 C   0  0  0  0  0  0  0  0  0  0  0  0
  -25.1773  -15.9216   26.0298 C   0  0  0  0  0  0  0  0  0  0  0  0
  -31.6383  -27.4867   19.7074 C   0  0  0  0  0  0  0  0  0  0  0  0
  -22.7254  -29.1197   22.1338 C   0  0  0  0  0  0  0  0  0  0  0  0
  -23.3843  -29.3924   18.9693 C   0  0  0  0  0  0  0  0  0  0  0  0
  -29.6912  -27.0931   22.1872 C   0  0  0  0  0  0  0  0  0  0  0  0
  -25.7332  -29.7471   16.5191 C   0  0  0  0  0  0  0  0  0  0  0  0
  -23.5672  -22.8715   21.7518 C   0  0  0  0  0  0  0  0  0  0  0  0
  -17.9570  -27.3491   21.7038 C   0  0  0  0  0  0  0  0  0  0  0  0
  -24.1811  -31.1778   22.0983 C   0  0  0  0  0  0  0  0  0  0  0  0
  -25.3476  -28.9807   20.4994 C   0  0  0  0  0  0  0  0  0  0  0  0
  -19.2980  -27.0465   21.0401 C   0  0  0  0  0  0  0  0  0  0  0  0
  -21.0164  -21.3104   23.6841 C   0  0  0  0  0  0  0  0  0  0  0  0
  -20.3852  -26.8605   22.0938 C   0  0  0  0  0  0  0  0  0  0  0  0
  -29.8332  -25.0000   19.1261 C   0  0  0  0  0  0  0  0  0  0  0  0
  -29.7472  -26.4070   18.5316 C   0  0  0  0  0  0  0  0  0  0  0  0
  -21.6106  -19.9438   24.0324 C   0  0  0  0  0  0  0  0  0  0  0  0
  -21.4089  -21.7576   22.2770 C   0  0  0  0  0  0  0  0  0  0  0  0
  -23.4449  -20.3723   22.3476 C   0  0  0  0  0  0  0  0  0  0  0  0
  -20.5780  -28.1385   22.9191 C   0  0  1  0  0  0  0  0  0  0  0  0
  -29.4315  -25.1850   20.5946 C   0  0  1  0  0  0  0  0  0  0  0  0
  -30.1482  -27.3146   19.6889 C   0  0  1  0  0  0  0  0  0  0  0  0
  -23.3087  -30.2199   21.2929 C   0  0  1  0  0  0  0  0  0  0  0  0
  -23.1306  -19.9091   23.7795 C   0  0  2  0  0  0  0  0  0  0  0  0
  -32.2261  -28.6771   19.0056 C   0  0  0  0  0  0  0  0  0  0  0  0
  -31.5244  -28.7034   22.6873 C   0  0  0  0  0  0  0  0  0  0  0  0
  -25.9711  -29.9004   14.0257 C   0  0  0  0  0  0  0  0  0  0  0  0
  -22.9306  -26.3835   18.7434 C   0  0  0  0  0  0  0  0  0  0  0  0
  -24.0832  -26.4469   16.5218 C   0  0  0  0  0  0  0  0  0  0  0  0
  -21.9701  -27.7272   16.8656 C   0  0  0  0  0  0  0  0  0  0  0  0
  -26.9201  -32.4533   16.6824 C   0  0  0  0  0  0  0  0  0  0  0  0
  -24.1036  -28.5424   17.9500 C   0  0  1  0  0  0  0  0  0  0  0  0
  -30.0545  -28.5476   22.3497 C   0  0  2  0  0  0  0  0  0  1  0  0
  -25.8077  -30.6781   15.3223 C   0  0  2  0  0  0  0  0  0  0  0  0
  -23.2850  -27.2845   17.5436 C   0  0  0  0  0  0  0  0  0  0  0  0
  -26.9754  -25.6842   20.7149 N   0  0  0  0  0  0  0  0  0  0  0  0
  -23.8209  -17.6471   23.0807 N   0  0  0  0  0  0  0  0  0  0  0  0
  -32.4151  -26.6434   20.3045 N   0  0  0  0  0  0  0  0  0  0  0  0
  -23.7191  -18.5428   24.0775 N   0  0  0  0  0  0  0  0  0  0  0  0
  -24.0369  -29.5787   20.1962 N   0  0  0  0  0  0  0  0  0  0  0  0
  -29.7639  -26.5848   20.8963 N   0  0  0  0  0  0  0  0  0  0  0  0
  -22.8631  -21.7030   22.1120 N   0  0  0  0  0  0  0  0  0  0  0  0
  -24.1504  -18.8577   26.3852 N   0  0  0  0  0  0  0  0  0  0  0  0
  -24.3169  -15.0853   26.7541 N   0  0  0  0  0  0  0  0  0  0  0  0
  -24.9485  -22.7058   21.6561 N   0  0  0  0  0  0  0  0  0  0  0  0
  -21.3441  -29.1123   22.1712 N   0  0  0  0  0  0  0  0  0  0  0  0
  -24.4301  -29.4279   16.8375 N   0  0  0  0  0  0  0  0  0  0  0  0
  -26.9635  -31.6086   15.4611 N   0  3  0  0  0  0  0  0  0  0  0  0
  -26.4086  -15.8894   26.2673 O   0  0  0  0  0  0  0  0  0  0  0  0
  -23.4732  -28.3348   22.7051 O   0  0  0  0  0  0  0  0  0  0  0  0
  -22.2871  -29.8792   18.6848 O   0  0  0  0  0  0  0  0  0  0  0  0
  -29.3496  -26.4304   23.1692 O   0  0  0  0  0  0  0  0  0  0  0  0
  -26.7313  -29.3406   17.1099 O   0  0  0  0  0  0  0  0  0  0  0  0
  -22.9904  -23.9468   21.5702 O   0  0  0  0  0  0  0  0  0  0  0  0
  -25.4256  -11.9401   20.7553 O   0  0  0  0  0  0  0  0  0  0  0  0
  -29.2712  -29.0723   23.4209 O   0  0  0  0  0  0  0  0  0  1  0  0
  -22.0586   -7.6339   21.4794 F   0  0  0  0  0  0  0  0  0  0  0  0
  -25.1293  -10.7742   23.2444 F   0  0  0  0  0  0  0  0  0  0  0  0
  -27.5602  -23.2271   21.2655 S   0  0  0  0  0  0  0  0  0  0  0  0
  1  2  1  0  0  0  0
  1  5  2  0  0  0  0
  2  6  2  0  0  0  0
  3  8  2  0  0  0  0
  3 16  1  0  0  0  0
  4  9  1  0  0  0  0
  4 16  2  0  0  0  0
  5 18  1  0  0  0  0
  6 20  1  0  0  0  0
  7 10  2  0  0  0  0
  7 19  1  0  0  0  0
  8 22  1  0  0  0  0
  9 22  2  0  0  0  0
 10 23  1  0  0  0  0
 11 12  2  0  0  0  0
 11 24  1  0  0  0  0
 12 25  1  0  0  0  0
 13 21  1  0  0  0  0
 13 23  2  0  0  0  0
 14 25  2  0  0  0  0
 14 26  1  0  0  0  0
 15 29  2  0  0  0  0
 15 65  1  0  0  0  0
 16 27  1  0  0  0  0
 17 27  1  0  0  0  0
 17 28  2  0  0  0  0
 17 31  1  0  0  0  0
 18 20  2  0  0  0  0
 18 38  1  0  0  0  0
 19 21  2  0  0  0  0
 19 39  1  0  0  0  0
 20 49  1  0  0  0  0
 21 40  1  0  0  0  0
 22 84  1  0  0  0  0
 23 85  1  0  0  0  0
 24 26  2  0  0  0  0
 24 84  1  0  0  0  0
 25 86  1  0  0  0  0
 26 87  1  0  0  0  0
 27 66  2  0  0  0  0
 28 68  1  0  0  0  0
 28 72  1  0  0  0  0
 29 74  1  0  0  0  0
 29 88  1  0  0  0  0
 30 50  1  0  0  0  0
 30 65  2  0  0  0  0
 30 88  1  0  0  0  0
 31 73  1  0  0  0  0
 31 78  2  0  0  0  0
 32 51  1  0  0  0  0
 32 54  1  0  0  0  0
 32 67  2  0  0  0  0
 33 52  1  0  0  0  0
 33 75  1  0  0  0  0
 33 79  2  0  0  0  0
 34 61  1  0  0  0  0
 34 69  1  0  0  0  0
 34 80  2  0  0  0  0
 35 62  1  0  0  0  0
 35 70  1  0  0  0  0
 35 81  2  0  0  0  0
 36 63  1  0  0  0  0
 36 76  1  0  0  0  0
 36 82  2  0  0  0  0
 37 71  1  0  0  0  0
 37 74  1  0  0  0  0
 37 83  2  0  0  0  0
 38 41  1  0  0  0  0
 39 52  1  0  0  0  0
 40 69  1  0  0  0  0
 41 43  1  0  0  0  0
 42 46  1  0  0  0  0
 42 47  1  0  0  0  0
 43 49  1  0  0  0  0
 44 45  1  0  0  0  0
 44 50  1  0  0  0  0
 45 51  1  0  0  0  0
 46 53  1  0  0  0  0
 47 71  1  0  0  0  0
 48 53  1  0  0  0  0
 48 71  1  0  0  0  0
 49 75  1  0  0  0  0
 50 70  1  0  0  0  0
 51 70  1  0  0  0  0
 52 69  1  0  0  0  0
 53 68  1  0  0  0  0
 55 62  1  0  0  0  0
 56 63  1  0  0  0  0
 57 64  1  0  0  0  0
 58 64  1  0  0  0  0
 59 64  1  0  0  0  0
 60 77  1  0  0  0  0
 61 64  1  0  0  0  0
 61 76  1  0  0  0  0
 62 85  1  0  0  0  0
 63 77  1  0  0  0  0
 66 68  1  0  0  0  0
M  CHG  1  77   1
M  ISO  4  37 100  62 101  74 100  85 101
M  END
> <Batch ID>
0156

> <Smiles>
CNC(C)C(=O)NC(C(=O)N1Cc2cc([101O:1][101CH:1](C)C(=O)N3C(C(C)=N)CCC3c3ncc([100NH:0][100C:0](=O)N4CCCC(n5nc(-c6ccc(Oc7ccc(F)cc7F)cc6)c(C(N)=O)c5N)C4)s3)ccc2CC1C(=O)NC1CCCc2ccccc21)C(C)(C)C

> <Shape>
0.240

> <Color>
0.100

> <Negative vol penalty>
0.000

$$$$

  -OEChem-04052303393D

 84 93  0     1  0  0  0  0  0999 V2000
  -29.9977  -37.2565   23.4245 C   0  0  0  0  0  0  0  0  0  0  0  0
  -30.2525  -36.0331   22.8133 C   0  0  0  0  0  0  0  0  0  0  0  0
  -23.4735   -9.5638   23.0032 C   0  0  0  0  0  0  0  0  0  0  0  0
  -23.8167   -9.7706   20.6206 C   0  0  0  0  0  0  0  0  0  0  0  0
  -29.0238  -37.3487   24.4180 C   0  0  0  0  0  0  0  0  0  0  0  0
  -29.5344  -34.9007   23.1961 C   0  0  0  0  0  0  0  0  0  0  0  0
  -27.7739  -30.2676   19.5988 C   0  0  0  0  0  0  0  0  0  0  0  0
  -22.6504   -8.4584   22.7887 C   0  0  0  0  0  0  0  0  0  0  0  0
  -22.9936   -8.6651   20.4061 C   0  0  0  0  0  0  0  0  0  0  0  0
  -28.3121  -29.0023   19.3682 C   0  0  0  0  0  0  0  0  0  0  0  0
  -23.0258   -5.1688   22.1030 C   0  0  0  0  0  0  0  0  0  0  0  0
  -23.2146   -4.0522   22.9173 C   0  0  0  0  0  0  0  0  0  0  0  0
  -30.5296  -19.1185   19.4989 C   0  0  0  0  0  0  0  0  0  0  0  0
  -29.8066  -17.9209   19.7137 C   0  0  0  0  0  0  0  0  0  0  0  0
  -26.8017  -28.0689   21.0012 C   0  0  0  0  0  0  0  0  0  0  0  0
  -20.9389   -4.2425   23.7060 C   0  0  0  0  0  0  0  0  0  0  0  0
  -24.0567  -10.2200   21.9191 C   0  0  0  0  0  0  0  0  0  0  0  0
  -26.3001  -11.3590   22.3402 C   0  0  0  0  0  0  0  0  0  0  0  0
  -28.2866  -36.2190   24.8064 C   0  0  0  0  0  0  0  0  0  0  0  0
  -26.7514  -30.4451   20.5418 C   0  0  0  0  0  0  0  0  0  0  0  0
  -28.5507  -34.9776   24.1967 C   0  0  0  0  0  0  0  0  0  0  0  0
  -26.2505  -29.3371   21.2400 C   0  0  0  0  0  0  0  0  0  0  0  0
  -22.4104   -8.0090   21.4902 C   0  0  0  0  0  0  0  0  0  0  0  0
  -27.8280  -27.9032   20.0715 C   0  0  0  0  0  0  0  0  0  0  0  0
  -21.7935   -5.8223   22.0902 C   0  0  0  0  0  0  0  0  0  0  0  0
  -22.1712   -3.5890   23.7188 C   0  0  0  0  0  0  0  0  0  0  0  0
  -20.7501   -5.3591   22.8916 C   0  0  0  0  0  0  0  0  0  0  0  0
  -24.9067  -11.3623   22.1400 C   0  0  0  0  0  0  0  0  0  0  0  0
  -29.6770  -20.1447   19.8334 C   0  0  0  0  0  0  0  0  0  0  0  0
  -26.6270  -12.6832   22.5014 C   0  0  0  0  0  0  0  0  0  0  0  0
  -28.5637  -18.3006   20.1644 C   0  0  0  0  0  0  0  0  0  0  0  0
  -27.9191  -24.4347   19.1533 C   0  0  0  0  0  0  0  0  0  0  0  0
  -27.5137  -25.6835   19.4046 C   0  0  0  0  0  0  0  0  0  1  0  0
  -27.2171  -10.2574   22.3771 C   0  0  0  0  0  0  0  0  0  0  0  0
  -30.0115  -21.5783   19.7632 C   0  0  0  0  0  0  0  0  0  0  0  0
  -26.4562  -32.0850   23.2487 C   0  0  0  0  0  0  0  0  0  0  0  0
  -23.3772  -31.0807   23.0654 C   0  0  0  0  0  0  0  0  0  0  0  0
  -21.1423  -28.7914   21.8775 C   0  0  0  0  0  0  0  0  0  0  0  0
  -26.1992  -18.0248   20.9886 C   0  0  0  0  0  0  0  0  0  0  0  0
  -27.2770  -36.3579   25.9182 C   0  0  0  0  0  0  0  0  0  0  0  0
  -26.1631  -31.8122   20.7596 C   0  0  0  0  0  0  0  0  0  0  0  0
  -25.1398  -29.4710   22.2484 C   0  0  0  0  0  0  0  0  0  0  0  0
  -27.0383  -23.3221   18.6652 C   0  0  0  0  0  0  0  0  0  0  0  0
  -29.2935  -23.9068   19.4306 C   0  0  0  0  0  0  0  0  0  0  0  0
  -26.2994  -35.1885   26.0028 C   0  0  0  0  0  0  0  0  0  0  0  0
  -23.6811  -16.7469   23.1573 C   0  0  0  0  0  0  0  0  0  0  0  0
  -27.0454  -33.8613   25.9095 C   0  0  0  0  0  0  0  0  0  0  0  0
  -23.8901  -15.2318   23.1025 C   0  0  0  0  0  0  0  0  0  0  0  0
  -27.6459  -22.0847   19.3148 C   0  0  0  0  0  0  0  0  0  0  0  0
  -23.9346  -17.4038   21.8016 C   0  0  0  0  0  0  0  0  0  0  0  0
  -25.4408  -15.5715   21.1360 C   0  0  0  0  0  0  0  0  0  0  0  0
  -27.7753  -33.7319   24.5671 C   0  0  1  0  0  0  0  0  0  0  0  0
  -25.4783  -31.9590   22.1149 C   0  0  1  0  0  0  0  0  0  0  0  0
  -25.2601  -14.8736   22.4939 C   0  0  2  0  0  0  0  0  0  0  0  0
  -18.7010  -28.2124   21.9269 C   0  0  0  0  0  0  0  0  0  0  0  0
  -23.6955  -29.9904   25.8973 C   0  0  0  0  0  0  0  0  0  0  0  0
  -21.6251  -28.6310   25.5319 C   0  0  0  0  0  0  0  0  0  0  0  0
  -21.5095  -31.1217   25.4546 C   0  0  0  0  0  0  0  0  0  0  0  0
  -20.8920  -29.0955   18.9443 C   0  0  0  0  0  0  0  0  0  0  0  0
  -22.6157  -29.8727   23.5551 C   0  0  1  0  0  0  0  0  0  0  0  0
  -19.8008  -28.9579   21.1868 C   0  0  2  0  0  0  0  0  0  0  0  0
  -22.3837  -29.9014   25.0922 C   0  0  0  0  0  0  0  0  0  0  0  0
  -24.3842  -12.5911   22.1709 N   0  0  0  0  0  0  0  0  0  0  0  0
  -25.4550  -13.3724   22.3925 N   0  0  0  0  0  0  0  0  0  0  0  0
  -29.0554  -22.4566   19.5190 N   0  0  0  0  0  0  0  0  0  0  0  0
  -24.6017  -30.8293   22.4306 N   0  0  0  0  0  0  0  0  0  0  0  0
  -25.2525  -17.0227   21.2890 N   0  0  0  0  0  0  0  0  0  0  0  0
  -27.7996  -13.3138   22.7243 N   0  0  0  0  0  0  0  0  0  0  0  0
  -26.7135   -8.9625   22.1930 N   0  0  0  0  0  0  0  0  0  0  0  0
  -27.4277  -17.5413   20.5395 N   0  0  0  0  0  0  0  0  0  0  0  0
  -26.8430  -33.3843   23.5162 N   0  0  0  0  0  0  0  0  0  0  0  0
  -21.3895  -29.8159   22.7667 N   0  0  0  0  0  0  0  0  0  0  0  0
  -31.2701  -21.9654   19.9486 N   0  3  0  0  0  0  0  0  0  0  0  0
  -19.8673  -28.4346   19.7930 N   0  3  0  0  0  0  0  0  0  0  0  0
  -28.4442  -10.4152   22.5841 O   0  0  0  0  0  0  0  0  0  0  0  0
  -26.8308  -31.0781   23.8381 O   0  0  0  0  0  0  0  0  0  0  0  0
  -22.8995  -32.2056   23.2334 O   0  0  0  0  0  0  0  0  0  0  0  0
  -21.8939  -27.8451   21.6536 O   0  0  0  0  0  0  0  0  0  0  0  0
  -25.9486  -19.2224   21.1460 O   0  0  0  0  0  0  0  0  0  0  0  0
  -28.4766  -19.6546   20.2402 O   0  0  0  0  0  0  0  0  0  0  0  0
  -21.6074   -6.9302   21.2805 O   0  0  0  0  0  0  0  0  0  0  0  0
  -28.3520  -26.6672   19.8488 O   0  0  0  0  0  0  0  0  0  1  0  0
  -22.3522   -2.5158   24.4996 F   0  0  0  0  0  0  0  0  0  0  0  0
  -19.5636   -5.9821   22.8827 F   0  0  0  0  0  0  0  0  0  0  0  0
  1  2  1  0  0  0  0
  1  5  2  0  0  0  0
  2  6  2  0  0  0  0
  3  8  2  0  0  0  0
  3 17  1  0  0  0  0
  4  9  1  0  0  0  0
  4 17  2  0  0  0  0
  5 19  1  0  0  0  0
  6 21  1  0  0  0  0
  7 10  2  0  0  0  0
  7 20  1  0  0  0  0
  8 23  1  0  0  0  0
  9 23  2  0  0  0  0
 10 24  1  0  0  0  0
 11 12  2  0  0  0  0
 11 25  1  0  0  0  0
 12 26  1  0  0  0  0
 13 14  1  0  0  0  0
 13 29  2  0  0  0  0
 14 31  2  0  0  0  0
 15 22  1  0  0  0  0
 15 24  2  0  0  0  0
 16 26  2  0  0  0  0
 16 27  1  0  0  0  0
 17 28  1  0  0  0  0
 18 28  1  0  0  0  0
 18 30  2  0  0  0  0
 18 34  1  0  0  0  0
 19 21  2  0  0  0  0
 19 40  1  0  0  0  0
 20 22  2  0  0  0  0
 20 41  1  0  0  0  0
 21 52  1  0  0  0  0
 22 42  1  0  0  0  0
 23 81  1  0  0  0  0
 24 82  1  0  0  0  0
 25 27  2  0  0  0  0
 25 81  1  0  0  0  0
 26 83  1  0  0  0  0
 27 84  1  0  0  0  0
 28 63  2  0  0  0  0
 29 35  1  0  0  0  0
 29 80  1  0  0  0  0
 30 64  1  0  0  0  0
 30 68  1  0  0  0  0
 31 70  1  0  0  0  0
 31 80  1  0  0  0  0
 32 33  2  0  0  0  0
 32 43  1  0  0  0  0
 32 44  1  0  0  0  0
 33 82  1  0  0  0  0
 34 69  1  0  0  0  0
 34 75  2  0  0  0  0
 35 65  1  0  0  0  0
 35 73  2  0  0  0  0
 36 53  1  0  0  0  0
 36 71  1  0  0  0  0
 36 76  2  0  0  0  0
 37 60  1  0  0  0  0
 37 66  1  0  0  0  0
 37 77  2  0  0  0  0
 38 61  1  0  0  0  0
 38 72  1  0  0  0  0
 38 78  2  0  0  0  0
 39 67  1  0  0  0  0
 39 70  1  0  0  0  0
 39 79  2  0  0  0  0
 40 45  1  0  0  0  0
 41 53  1  0  0  0  0
 42 66  1  0  0  0  0
 43 49  1  0  0  0  0
 44 65  1  0  0  0  0
 45 47  1  0  0  0  0
 46 48  1  0  0  0  0
 46 50  1  0  0  0  0
 47 52  1  0  0  0  0
 48 54  1  0  0  0  0
 49 65  1  0  0  0  0
 50 67  1  0  0  0  0
 51 54  1  0  0  0  0
 51 67  1  0  0  0  0
 52 71  1  0  0  0  0
 53 66  1  0  0  0  0
 54 64  1  0  0  0  0
 55 61  1  0  0  0  0
 56 62  1  0  0  0  0
 57 62  1  0  0  0  0
 58 62  1  0  0  0  0
 59 74  1  0  0  0  0
 60 62  1  0  0  0  0
 60 72  1  0  0  0  0
 61 74  1  0  0  0  0
 63 64  1  0  0  0  0
M  CHG  2  73   1  74   1
M  ISO  4  33 101  39 100  70 100  82 101
M  END
> <Batch ID>
0156

> <Smiles>
CNC(C)C(=O)NC(C(=O)N1Cc2cc([101O:1][101CH:1]=C3CCN(C(=N)c4ccc([100NH:0][100C:0](=O)N5CCCC(n6nc(-c7ccc(Oc8ccc(F)cc8F)cc7)c(C(N)=O)c6N)C5)o4)C3)ccc2CC1C(=O)NC1CCCc2ccccc21)C(C)(C)C

> <Shape>
0.284

> <Color>
0.094

> <Negative vol penalty>
0.000

$$$$

  -OEChem-04052303393D

 85 94  0     1  0  0  0  0  0999 V2000
  -28.0599  -24.7489   16.3944 C   0  0  0  0  0  0  0  0  0  0  0  0
  -26.9295  -24.8456   17.1995 C   0  0  0  0  0  0  0  0  0  0  0  0
  -19.3654  -20.7029   24.8996 C   0  0  0  0  0  0  0  0  0  0  0  0
  -25.0199  -12.9654   19.9713 C   0  0  0  0  0  0  0  0  0  0  0  0
  -24.8932  -13.9322   22.1818 C   0  0  0  0  0  0  0  0  0  0  0  0
  -18.9732  -21.9540   24.4236 C   0  0  0  0  0  0  0  0  0  0  0  0
  -29.2536  -25.3468   16.7960 C   0  0  0  0  0  0  0  0  0  0  0  0
  -26.9925  -25.5394   18.4074 C   0  0  0  0  0  0  0  0  0  0  0  0
  -23.0123  -28.5918   19.1044 C   0  0  0  0  0  0  0  0  0  0  0  0
  -19.3660  -19.6004   24.0451 C   0  0  0  0  0  0  0  0  0  0  0  0
  -26.4110  -12.9287   20.0670 C   0  0  0  0  0  0  0  0  0  0  0  0
  -26.2843  -13.8955   22.2776 C   0  0  0  0  0  0  0  0  0  0  0  0
  -21.8194  -27.9987   19.5156 C   0  0  0  0  0  0  0  0  0  0  0  0
  -28.7561  -10.9885   21.5396 C   0  0  0  0  0  0  0  0  0  0  0  0
  -29.4032   -9.8212   21.1344 C   0  0  0  0  0  0  0  0  0  0  0  0
  -18.5821  -21.0000   22.2386 C   0  0  0  0  0  0  0  0  0  0  0  0
  -22.2703  -28.6797   21.7854 C   0  0  0  0  0  0  0  0  0  0  0  0
  -30.6247  -11.0761   19.4700 C   0  0  0  0  0  0  0  0  0  0  0  0
  -24.2610  -13.4672   21.0287 C   0  0  0  0  0  0  0  0  0  0  0  0
  -18.5815  -22.1025   23.0932 C   0  0  0  0  0  0  0  0  0  0  0  0
  -21.9180  -12.5008   21.3180 C   0  0  0  0  0  0  0  0  0  0  0  0
  -29.3287  -26.0566   18.0048 C   0  0  0  0  0  0  0  0  0  0  0  0
  -23.8499  -29.2248   20.0340 C   0  0  0  0  0  0  0  0  0  0  0  0
  -28.1887  -26.1463   18.8262 C   0  0  0  0  0  0  0  0  0  0  0  0
  -23.4721  -29.2823   21.3831 C   0  0  0  0  0  0  0  0  0  0  0  0
  -18.9743  -19.7489   22.7146 C   0  0  0  0  0  0  0  0  0  0  0  0
  -27.0432  -13.3937   21.2202 C   0  0  0  0  0  0  0  0  0  0  0  0
  -21.4497  -28.0401   20.8568 C   0  0  0  0  0  0  0  0  0  0  0  0
  -29.0433  -12.1996   20.9100 C   0  0  0  0  0  0  0  0  0  0  0  0
  -30.3375   -9.8650   20.0996 C   0  0  0  0  0  0  0  0  0  0  0  0
  -29.9776  -12.2434   19.8753 C   0  0  0  0  0  0  0  0  0  0  0  0
  -22.8240  -13.5059   20.9301 C   0  0  0  0  0  0  0  0  0  0  0  0
  -20.6815  -13.0199   21.0211 C   0  0  0  0  0  0  0  0  0  0  0  0
  -18.8301  -25.5489   21.5409 C   0  0  0  0  0  0  0  0  0  0  0  0
  -18.1674  -23.4242   22.5891 C   0  0  0  0  0  0  0  0  0  0  0  0
  -22.1713  -11.2130   21.8952 C   0  0  0  0  0  0  0  0  0  0  0  0
  -26.8259  -28.7630   21.0507 C   0  0  0  0  0  0  0  0  0  0  0  0
  -26.2920  -31.5305   22.6565 C   0  0  0  0  0  0  0  0  0  0  0  0
  -24.0389  -33.6957   24.0285 C   0  0  0  0  0  0  0  0  0  0  0  0
  -18.6158  -18.6026   20.5002 C   0  0  0  0  0  0  0  0  0  0  0  0
  -30.6537  -26.6459   18.4195 C   0  0  0  0  0  0  0  0  0  0  0  0
  -25.1203  -29.8831   19.5700 C   0  0  0  0  0  0  0  0  0  0  0  0
  -24.3262  -29.9673   22.4173 C   0  0  0  0  0  0  0  0  0  0  0  0
  -30.5373  -27.6816   19.5349 C   0  0  0  0  0  0  0  0  0  0  0  0
  -18.5182  -16.0554   18.0144 C   0  0  0  0  0  0  0  0  0  0  0  0
  -29.6316  -27.1666   20.6491 C   0  0  0  0  0  0  0  0  0  0  0  0
  -19.5244  -15.0182   18.5184 C   0  0  0  0  0  0  0  0  0  0  0  0
  -21.1582  -25.2503   21.8209 C   0  0  0  0  0  0  0  0  0  0  0  0
  -18.9769  -17.4818   18.3120 C   0  0  0  0  0  0  0  0  0  0  0  0
  -20.5003  -23.8841   21.9756 C   0  0  0  0  0  0  0  0  0  0  0  0
  -20.3296  -16.7054   20.2190 C   0  0  0  0  0  0  0  0  0  0  0  0
  -28.2108  -26.9115   20.1316 C   0  0  1  0  0  0  0  0  0  0  0  0
  -20.1461  -26.0834   21.0354 C   0  0  2  0  0  0  0  0  0  1  0  0
  -26.1471  -30.0528   20.6855 C   0  0  1  0  0  0  0  0  0  0  0  0
  -19.8801  -15.2516   19.9998 C   0  0  2  0  0  0  0  0  0  0  0  0
  -23.9048  -35.8511   25.3066 C   0  0  0  0  0  0  0  0  0  0  0  0
  -27.1406  -30.0728   25.1991 C   0  0  0  0  0  0  0  0  0  0  0  0
  -26.0989  -31.9237   26.5247 C   0  0  0  0  0  0  0  0  0  0  0  0
  -28.0099  -32.4090   24.9965 C   0  0  0  0  0  0  0  0  0  0  0  0
  -22.5063  -35.0159   21.8682 C   0  0  0  0  0  0  0  0  0  0  0  0
  -25.7389  -31.8889   24.0146 C   0  0  1  0  0  0  0  0  0  0  0  0
  -23.9032  -35.2044   23.9302 C   0  0  2  0  0  0  0  0  0  0  0  0
  -26.7317  -31.5589   25.1648 C   0  0  0  0  0  0  0  0  0  0  0  0
  -22.2151  -14.5821   20.4251 N   0  0  0  0  0  0  0  0  0  0  0  0
  -20.9131  -14.2561   20.4936 N   0  0  0  0  0  0  0  0  0  0  0  0
  -19.0736  -24.2347   22.0723 N   0  0  0  0  0  0  0  0  0  0  0  0
  -25.5619  -30.5906   21.9153 N   0  0  0  0  0  0  0  0  0  0  0  0
  -19.2923  -17.6295   19.7345 N   0  0  0  0  0  0  0  0  0  0  0  0
  -19.4296  -12.5348   21.1622 N   0  0  0  0  0  0  0  0  0  0  0  0
  -23.5004  -10.8379   22.1346 N   0  0  0  0  0  0  0  0  0  0  0  0
  -18.9753  -18.6284   21.8474 N   0  0  0  0  0  0  0  0  0  0  0  0
  -27.4894  -28.1592   19.9998 N   0  0  0  0  0  0  0  0  0  0  0  0
  -25.3553  -33.2945   23.9412 N   0  0  0  0  0  0  0  0  0  0  0  0
  -16.8879  -23.7793   22.6609 N   0  3  0  0  0  0  0  0  0  0  0  0
  -22.6317  -35.5664   23.2423 N   0  3  0  0  0  0  0  0  0  0  0  0
  -17.7358  -26.0821   21.5233 O   0  0  0  0  0  0  0  0  0  0  0  0
  -21.2475  -10.4119   22.1748 O   0  0  0  0  0  0  0  0  0  0  0  0
  -26.7543  -28.3473   22.2013 O   0  0  0  0  0  0  0  0  0  0  0  0
  -27.3297  -32.0702   22.2646 O   0  0  0  0  0  0  0  0  0  0  0  0
  -23.0741  -32.9480   24.1724 O   0  0  0  0  0  0  0  0  0  0  0  0
  -17.7595  -19.3390   20.0038 O   0  0  0  0  0  0  0  0  0  0  0  0
  -28.4006  -13.3578   21.3140 O   0  0  0  0  0  0  0  0  0  0  0  0
  -20.2862  -27.4615   21.2609 O   0  0  0  0  0  0  0  0  0  1  0  0
  -30.9600   -8.7442   19.7116 F   0  0  0  0  0  0  0  0  0  0  0  0
  -30.2585  -13.4042   19.2674 F   0  0  0  0  0  0  0  0  0  0  0  0
  1  2  1  0  0  0  0
  1  7  2  0  0  0  0
  2  8  2  0  0  0  0
  3  6  2  0  0  0  0
  3 10  1  0  0  0  0
  4 11  2  0  0  0  0
  4 19  1  0  0  0  0
  5 12  1  0  0  0  0
  5 19  2  0  0  0  0
  6 20  1  0  0  0  0
  7 22  1  0  0  0  0
  8 24  1  0  0  0  0
  9 13  2  0  0  0  0
  9 23  1  0  0  0  0
 10 26  2  0  0  0  0
 11 27  1  0  0  0  0
 12 27  2  0  0  0  0
 13 28  1  0  0  0  0
 14 15  2  0  0  0  0
 14 29  1  0  0  0  0
 15 30  1  0  0  0  0
 16 20  2  0  0  0  0
 16 26  1  0  0  0  0
 17 25  1  0  0  0  0
 17 28  2  0  0  0  0
 18 30  2  0  0  0  0
 18 31  1  0  0  0  0
 19 32  1  0  0  0  0
 20 35  1  0  0  0  0
 21 32  1  0  0  0  0
 21 33  2  0  0  0  0
 21 36  1  0  0  0  0
 22 24  2  0  0  0  0
 22 41  1  0  0  0  0
 23 25  2  0  0  0  0
 23 42  1  0  0  0  0
 24 52  1  0  0  0  0
 25 43  1  0  0  0  0
 26 71  1  0  0  0  0
 27 82  1  0  0  0  0
 28 83  1  0  0  0  0
 29 31  2  0  0  0  0
 29 82  1  0  0  0  0
 30 84  1  0  0  0  0
 31 85  1  0  0  0  0
 32 64  2  0  0  0  0
 33 65  1  0  0  0  0
 33 69  1  0  0  0  0
 34 53  1  0  0  0  0
 34 66  1  0  0  0  0
 34 76  2  0  0  0  0
 35 66  1  0  0  0  0
 35 74  2  0  0  0  0
 36 70  1  0  0  0  0
 36 77  2  0  0  0  0
 37 54  1  0  0  0  0
 37 72  1  0  0  0  0
 37 78  2  0  0  0  0
 38 61  1  0  0  0  0
 38 67  1  0  0  0  0
 38 79  2  0  0  0  0
 39 62  1  0  0  0  0
 39 73  1  0  0  0  0
 39 80  2  0  0  0  0
 40 68  1  0  0  0  0
 40 71  1  0  0  0  0
 40 81  2  0  0  0  0
 41 44  1  0  0  0  0
 42 54  1  0  0  0  0
 43 67  1  0  0  0  0
 44 46  1  0  0  0  0
 45 47  1  0  0  0  0
 45 49  1  0  0  0  0
 46 52  1  0  0  0  0
 47 55  1  0  0  0  0
 48 50  1  0  0  0  0
 48 53  1  0  0  0  0
 49 68  1  0  0  0  0
 50 66  1  0  0  0  0
 51 55  1  0  0  0  0
 51 68  1  0  0  0  0
 52 72  1  0  0  0  0
 53 83  1  0  0  0  0
 54 67  1  0  0  0  0
 55 65  1  0  0  0  0
 56 62  1  0  0  0  0
 57 63  1  0  0  0  0
 58 63  1  0  0  0  0
 59 63  1  0  0  0  0
 60 75  1  0  0  0  0
 61 63  1  0  0  0  0
 61 73  1  0  0  0  0
 62 75  1  0  0  0  0
 64 65  1  0  0  0  0
M  CHG  2  74   1  75   1
M  ISO  4  40 100  53 101  71 100  83 101
M  END
> <Batch ID>
0156

> <Smiles>
CNC(C)C(=O)NC(C(=O)N1Cc2cc([101O:1][101CH:1]3CCN(C(=N)c4cccc([100NH:0][100C:0](=O)N5CCCC(n6nc(-c7ccc(Oc8ccc(F)cc8F)cc7)c(C(N)=O)c6N)C5)c4)C3=O)ccc2CC1C(=O)NC1CCCc2ccccc21)C(C)(C)C

> <Shape>
0.278

> <Color>
0.077

> <Negative vol penalty>
0.000

$$$$

  -OEChem-04052303393D

 78 86  0     1  0  0  0  0  0999 V2000
  -20.4193  -21.3276   15.5687 C   0  0  0  0  0  0  0  0  0  0  0  0
  -21.5899  -21.7589   16.1843 C   0  0  0  0  0  0  0  0  0  0  0  0
  -23.4001  -28.2800   23.0776 C   0  0  0  0  0  0  0  0  0  0  0  0
  -22.4323  -29.8727   21.5401 C   0  0  0  0  0  0  0  0  0  0  0  0
  -19.7494  -20.2059   16.0555 C   0  0  0  0  0  0  0  0  0  0  0  0
  -22.0908  -21.0693   17.2879 C   0  0  0  0  0  0  0  0  0  0  0  0
  -27.0911  -20.3196   17.0044 C   0  0  0  0  0  0  0  0  0  0  0  0
  -22.3677  -28.5264   23.9826 C   0  0  0  0  0  0  0  0  0  0  0  0
  -21.3999  -30.1191   22.4451 C   0  0  0  0  0  0  0  0  0  0  0  0
  -27.9155  -21.4003   17.3146 C   0  0  0  0  0  0  0  0  0  0  0  0
  -18.5252  -28.6263   23.4085 C   0  0  0  0  0  0  0  0  0  0  0  0
  -17.2245  -28.6769   22.9074 C   0  0  0  0  0  0  0  0  0  0  0  0
  -28.2763  -20.4851   19.5172 C   0  0  0  0  0  0  0  0  0  0  0  0
  -17.0096  -30.9508   23.6949 C   0  0  0  0  0  0  0  0  0  0  0  0
  -23.4324  -28.9532   21.8563 C   0  0  0  0  0  0  0  0  0  0  0  0
  -24.5225  -27.7296   19.9013 C   0  0  0  0  0  0  0  0  0  0  0  0
  -20.2477  -19.4965   17.1596 C   0  0  0  0  0  0  0  0  0  0  0  0
  -26.8439  -19.3175   17.9537 C   0  0  0  0  0  0  0  0  0  0  0  0
  -21.4263  -19.9378   17.7908 C   0  0  0  0  0  0  0  0  0  0  0  0
  -27.4504  -19.3914   19.2157 C   0  0  0  0  0  0  0  0  0  0  0  0
  -21.3676  -29.4459   23.6664 C   0  0  0  0  0  0  0  0  0  0  0  0
  -28.5060  -21.4846   18.5721 C   0  0  0  0  0  0  0  0  0  0  0  0
  -19.0681  -29.7379   24.0529 C   0  0  0  0  0  0  0  0  0  0  0  0
  -16.4667  -29.8392   23.0506 C   0  0  0  0  0  0  0  0  0  0  0  0
  -18.3103  -30.9002   24.1961 C   0  0  0  0  0  0  0  0  0  0  0  0
  -24.4989  -28.6996   20.9213 C   0  0  0  0  0  0  0  0  0  0  0  0
  -25.7462  -27.8936   19.2997 C   0  0  0  0  0  0  0  0  0  0  0  0
  -23.5271  -26.7664   19.5308 C   0  0  0  0  0  0  0  0  0  0  0  0
  -24.2547  -18.2223   19.4371 C   0  0  0  0  0  0  0  0  0  0  0  0
  -26.3240  -15.9986   20.5752 C   0  0  0  0  0  0  0  0  0  0  0  0
  -29.5451  -15.1493   21.3167 C   0  0  0  0  0  0  0  0  0  0  0  0
  -31.1578  -28.7210   19.4426 C   0  0  0  0  0  0  0  0  0  0  0  0
  -19.4633  -18.3177   17.6791 C   0  0  0  0  0  0  0  0  0  0  0  0
  -25.9736  -18.1445   17.5944 C   0  0  0  0  0  0  0  0  0  0  0  0
  -27.2333  -18.3312   20.2632 C   0  0  0  0  0  0  0  0  0  0  0  0
  -20.2627  -17.4218   18.6218 C   0  0  0  0  0  0  0  0  0  0  0  0
  -29.1967  -31.5527   19.7683 C   0  0  0  0  0  0  0  0  0  0  0  0
  -21.0091  -18.2628   19.6525 C   0  0  0  0  0  0  0  0  0  0  0  0
  -27.7944  -30.9969   20.0150 C   0  0  0  0  0  0  0  0  0  0  0  0
  -30.6936  -25.6921   17.3634 C   0  0  0  0  0  0  0  0  0  0  0  0
  -29.8823  -25.2117   19.7073 C   0  0  0  0  0  0  0  0  0  0  0  0
  -30.2443  -30.7495   20.5308 C   0  0  0  0  0  0  0  0  0  0  0  0
  -31.5581  -26.8217   17.9185 C   0  0  0  0  0  0  0  0  0  0  0  0
  -30.7662  -26.3492   20.2108 C   0  0  0  0  0  0  0  0  0  0  0  0
  -28.8347  -28.7187   20.4575 C   0  0  0  0  0  0  0  0  0  0  0  0
  -22.0146  -19.2016   18.9749 C   0  0  1  0  0  0  0  0  0  0  0  0
  -25.3796  -17.4456   18.8134 C   0  0  1  0  0  0  0  0  0  0  0  0
  -27.7345  -29.4912   19.7021 C   0  0  1  0  0  0  0  0  0  0  0  0
  -30.4335  -24.6077   18.4124 C   0  0  0  0  0  0  0  0  0  0  0  0
  -30.9194  -13.2787   22.2704 C   0  0  0  0  0  0  0  0  0  0  0  0
  -25.3836  -16.7415   23.3812 C   0  0  0  0  0  0  0  0  0  0  0  0
  -27.4045  -15.5771   24.2913 C   0  0  0  0  0  0  0  0  0  0  0  0
  -25.7005  -14.2899   23.0021 C   0  0  0  0  0  0  0  0  0  0  0  0
  -31.0816  -14.8430   18.8059 C   0  0  0  0  0  0  0  0  0  0  0  0
  -29.5108  -23.5230   17.8711 C   0  0  0  0  0  0  0  0  0  1  0  0
  -27.2253  -15.8954   21.7818 C   0  0  1  0  0  0  0  0  0  0  0  0
  -30.3561  -13.9047   21.0041 C   0  0  2  0  0  0  0  0  0  0  0  0
  -26.4312  -15.6471   23.0953 C   0  0  0  0  0  0  0  0  0  0  0  0
  -25.6189  -29.4260   20.9680 N   0  0  0  0  0  0  0  0  0  0  0  0
  -26.3576  -28.9120   19.9700 N   0  0  0  0  0  0  0  0  0  0  0  0
  -26.3691  -17.2074   19.8662 N   0  0  0  0  0  0  0  0  0  0  0  0
  -30.1517  -29.3249   20.2118 N   0  0  0  0  0  0  0  0  0  0  0  0
  -31.0091  -27.3519   19.1654 N   0  0  0  0  0  0  0  0  0  0  0  0
  -26.3483  -27.2646   18.2680 N   0  0  0  0  0  0  0  0  0  0  0  0
  -22.3269  -26.7340   20.2538 N   0  0  0  0  0  0  0  0  0  0  0  0
  -23.2002  -18.4719   18.5796 N   0  0  0  0  0  0  0  0  0  0  0  0
  -28.2058  -14.8605   21.4716 N   0  0  0  0  0  0  0  0  0  0  0  0
  -31.4925  -14.2404   20.1002 N   0  3  0  0  0  0  0  0  0  0  0  0
  -23.7037  -25.9476   18.5971 O   0  0  0  0  0  0  0  0  0  0  0  0
  -24.3367  -18.5682   20.6098 O   0  0  0  0  0  0  0  0  0  0  0  0
  -25.6116  -15.0393   20.2687 O   0  0  0  0  0  0  0  0  0  0  0  0
  -30.0499  -16.2654   21.4174 O   0  0  0  0  0  0  0  0  0  0  0  0
  -32.1282  -29.3641   19.0235 O   0  0  0  0  0  0  0  0  0  0  0  0
  -20.3599  -29.6863   24.5492 O   0  0  0  0  0  0  0  0  0  0  0  0
  -29.3177  -22.5480   18.8804 O   0  0  0  0  0  0  0  0  0  1  0  0
  -15.2181  -29.8881   22.5679 F   0  0  0  0  0  0  0  0  0  0  0  0
  -18.8269  -31.9717   24.8132 F   0  0  0  0  0  0  0  0  0  0  0  0
  -31.6298  -24.0134   18.7041 F   0  0  0  0  0  0  0  0  0  0  0  0
  1  2  1  0  0  0  0
  1  5  2  0  0  0  0
  2  6  2  0  0  0  0
  3  8  2  0  0  0  0
  3 15  1  0  0  0  0
  4  9  1  0  0  0  0
  4 15  2  0  0  0  0
  5 17  1  0  0  0  0
  6 19  1  0  0  0  0
  7 10  2  0  0  0  0
  7 18  1  0  0  0  0
  8 21  1  0  0  0  0
  9 21  2  0  0  0  0
 10 22  1  0  0  0  0
 11 12  2  0  0  0  0
 11 23  1  0  0  0  0
 12 24  1  0  0  0  0
 13 20  1  0  0  0  0
 13 22  2  0  0  0  0
 14 24  2  0  0  0  0
 14 25  1  0  0  0  0
 15 26  1  0  0  0  0
 16 26  1  0  0  0  0
 16 27  2  0  0  0  0
 16 28  1  0  0  0  0
 17 19  2  0  0  0  0
 17 33  1  0  0  0  0
 18 20  2  0  0  0  0
 18 34  1  0  0  0  0
 19 46  1  0  0  0  0
 20 35  1  0  0  0  0
 21 74  1  0  0  0  0
 22 75  1  0  0  0  0
 23 25  2  0  0  0  0
 23 74  1  0  0  0  0
 24 76  1  0  0  0  0
 25 77  1  0  0  0  0
 26 59  2  0  0  0  0
 27 60  1  0  0  0  0
 27 64  1  0  0  0  0
 28 65  1  0  0  0  0
 28 69  2  0  0  0  0
 29 47  1  0  0  0  0
 29 66  1  0  0  0  0
 29 70  2  0  0  0  0
 30 56  1  0  0  0  0
 30 61  1  0  0  0  0
 30 71  2  0  0  0  0
 31 57  1  0  0  0  0
 31 67  1  0  0  0  0
 31 72  2  0  0  0  0
 32 62  1  0  0  0  0
 32 63  1  0  0  0  0
 32 73  2  0  0  0  0
 33 36  1  0  0  0  0
 34 47  1  0  0  0  0
 35 61  1  0  0  0  0
 36 38  1  0  0  0  0
 37 39  1  0  0  0  0
 37 42  1  0  0  0  0
 38 46  1  0  0  0  0
 39 48  1  0  0  0  0
 40 43  1  0  0  0  0
 40 49  1  0  0  0  0
 41 44  1  0  0  0  0
 41 49  1  0  0  0  0
 42 62  1  0  0  0  0
 43 63  1  0  0  0  0
 44 63  1  0  0  0  0
 45 48  1  0  0  0  0
 45 62  1  0  0  0  0
 46 66  1  0  0  0  0
 47 61  1  0  0  0  0
 48 60  1  0  0  0  0
 49 55  1  0  0  0  0
 49 78  1  0  0  0  0
 50 57  1  0  0  0  0
 51 58  1  0  0  0  0
 52 58  1  0  0  0  0
 53 58  1  0  0  0  0
 54 68  1  0  0  0  0
 55 75  1  0  0  0  0
 56 58  1  0  0  0  0
 56 67  1  0  0  0  0
 57 68  1  0  0  0  0
 59 60  1  0  0  0  0
M  CHG  1  68   1
M  ISO  4  32 100  55 101  63 100  75 101
M  END
> <Batch ID>
0156

> <Smiles>
CNC(C)C(=O)NC(C(=O)N1Cc2cc([101O:1][101CH2:1]C3(F)CC[100N:0]([100C:0](=O)N4CCCC(n5nc(-c6ccc(Oc7ccc(F)cc7F)cc6)c(C(N)=O)c5N)C4)CC3)ccc2CC1C(=O)NC1CCCc2ccccc21)C(C)(C)C

> <Shape>
0.223

> <Color>
0.062

> <Negative vol penalty>
0.000

$$$$

  -OEChem-04052303393D

 87 96  0     1  0  0  0  0  0999 V2000
  -21.0560  -20.5353   19.4120 C   0  0  0  0  0  0  0  0  0  0  0  0
  -22.1807  -21.3306   19.2176 C   0  0  0  0  0  0  0  0  0  0  0  0
  -20.8065  -17.0575   22.7454 C   0  0  0  0  0  0  0  0  0  0  0  0
  -22.0779  -16.8515   24.7894 C   0  0  0  0  0  0  0  0  0  0  0  0
  -19.8085  -21.1285   19.6014 C   0  0  0  0  0  0  0  0  0  0  0  0
  -22.0585  -22.7197   19.2115 C   0  0  0  0  0  0  0  0  0  0  0  0
  -25.6760  -25.0004   21.9239 C   0  0  0  0  0  0  0  0  0  0  0  0
  -19.6557  -17.3221   23.4879 C   0  0  0  0  0  0  0  0  0  0  0  0
  -20.9271  -17.1162   25.5319 C   0  0  0  0  0  0  0  0  0  0  0  0
  -26.9350  -25.1158   21.3363 C   0  0  0  0  0  0  0  0  0  0  0  0
  -18.1749  -15.4345   26.5459 C   0  0  0  0  0  0  0  0  0  0  0  0
  -17.9191  -14.6277   27.6545 C   0  0  0  0  0  0  0  0  0  0  0  0
  -26.4459  -27.4046   20.7521 C   0  0  0  0  0  0  0  0  0  0  0  0
  -17.9938  -16.5719   29.0868 C   0  0  0  0  0  0  0  0  0  0  0  0
  -26.6534  -23.1194   16.8933 C   0  0  0  0  0  0  0  0  0  0  0  0
  -22.0176  -16.8221   23.3962 C   0  0  0  0  0  0  0  0  0  0  0  0
  -23.4126  -15.4837   21.7318 C   0  0  0  0  0  0  0  0  0  0  0  0
  -19.6724  -22.5257   19.6072 C   0  0  0  0  0  0  0  0  0  0  0  0
  -24.7867  -26.0846   21.9203 C   0  0  0  0  0  0  0  0  0  0  0  0
  -20.8078  -23.3321   19.3998 C   0  0  0  0  0  0  0  0  0  0  0  0
  -25.1771  -27.3012   21.3425 C   0  0  0  0  0  0  0  0  0  0  0  0
  -19.7160  -17.3515   24.8811 C   0  0  0  0  0  0  0  0  0  0  0  0
  -27.3191  -26.3172   20.7478 C   0  0  0  0  0  0  0  0  0  0  0  0
  -18.3402  -16.8101   26.7077 C   0  0  0  0  0  0  0  0  0  0  0  0
  -17.8285  -15.1963   28.9250 C   0  0  0  0  0  0  0  0  0  0  0  0
  -18.2497  -17.3788   27.9782 C   0  0  0  0  0  0  0  0  0  0  0  0
  -23.2066  -16.5481   22.6298 C   0  0  0  0  0  0  0  0  0  0  0  0
  -27.9676  -23.2123   17.3012 C   0  0  0  0  0  0  0  0  0  0  0  0
  -24.6921  -15.6687   21.2679 C   0  0  0  0  0  0  0  0  0  0  0  0
  -27.2597  -21.7713   18.7953 C   0  0  0  0  0  0  0  0  0  0  0  0
  -22.5267  -14.4226   21.3510 C   0  0  0  0  0  0  0  0  0  0  0  0
  -21.8993  -26.6136   20.7010 C   0  0  0  0  0  0  0  0  0  0  0  0
  -28.3449  -27.3377   17.9824 C   0  0  0  0  0  0  0  0  0  0  0  0
  -30.0147  -25.4993   18.5556 C   0  0  0  0  0  0  0  0  0  0  0  0
  -22.1402  -29.3967   22.3499 C   0  0  0  0  0  0  0  0  0  0  0  0
  -24.6905  -31.8683   22.9859 C   0  0  0  0  0  0  0  0  0  0  0  0
  -28.1905  -20.4852   20.7513 C   0  0  0  0  0  0  0  0  0  0  0  0
  -18.2958  -23.1203   19.7686 C   0  0  0  0  0  0  0  0  0  0  0  0
  -23.4424  -25.9522   22.5818 C   0  0  0  0  0  0  0  0  0  0  0  0
  -24.2672  -28.5013   21.3302 C   0  0  0  0  0  0  0  0  0  0  0  0
  -18.3114  -24.6052   20.1222 C   0  0  0  0  0  0  0  0  0  0  0  0
  -31.0341  -22.7820   16.2677 C   0  0  0  0  0  0  0  0  0  0  0  0
  -28.9172  -17.5105   22.5680 C   0  0  0  0  0  0  0  0  0  0  0  0
  -19.2875  -25.3577   19.2234 C   0  0  0  0  0  0  0  0  0  0  0  0
  -29.7955  -23.3227   15.5594 C   0  0  0  0  0  0  0  0  0  0  0  0
  -27.5550  -16.8263   22.7030 C   0  0  0  0  0  0  0  0  0  0  0  0
  -31.3646  -23.8665   17.2785 C   0  0  0  0  0  0  0  0  0  0  0  0
  -28.8012  -19.0303   22.6710 C   0  0  0  0  0  0  0  0  0  0  0  0
  -26.4648  -18.9576   21.8931 C   0  0  0  0  0  0  0  0  0  0  0  0
  -20.7196  -24.8428   19.4113 C   0  0  1  0  0  0  0  0  0  0  0  0
  -29.0361  -24.0785   16.6588 C   0  0  2  0  0  0  0  0  0  0  0  0
  -22.4209  -26.9614   22.0665 C   0  0  1  0  0  0  0  0  0  0  0  0
  -26.5223  -17.4299   21.7309 C   0  0  2  0  0  0  0  0  0  0  0  0
  -29.2515  -28.5294   18.1402 C   0  0  0  0  0  0  0  0  0  0  0  0
  -24.9909  -33.4431   24.9164 C   0  0  0  0  0  0  0  0  0  0  0  0
  -20.6210  -31.3773   20.5953 C   0  0  0  0  0  0  0  0  0  0  0  0
  -22.1409  -33.1807   21.4356 C   0  0  0  0  0  0  0  0  0  0  0  0
  -20.6616  -31.9564   23.0279 C   0  0  0  0  0  0  0  0  0  0  0  0
  -27.4329  -30.8867   23.5102 C   0  0  0  0  0  0  0  0  0  0  0  0
  -28.6508  -26.0982   18.7896 C   0  0  1  0  0  0  0  0  0  1  0  0
  -22.6707  -30.7769   22.0459 C   0  0  1  0  0  0  0  0  0  0  0  0
  -25.4077  -32.1166   24.3006 C   0  0  2  0  0  0  0  0  0  0  0  0
  -21.5342  -31.7997   21.7635 C   0  0  0  0  0  0  0  0  0  0  0  0
  -24.2700  -17.3498   22.7319 N   0  0  0  0  0  0  0  0  0  0  0  0
  -28.3170  -22.4403   18.3919 N   0  0  0  0  0  0  0  0  0  0  0  0
  -27.3590  -27.3494   17.1448 N   0  0  0  0  0  0  0  0  0  0  0  0
  -25.1567  -16.7888   21.8921 N   0  0  0  0  0  0  0  0  0  0  0  0
  -22.9607  -28.3201   21.9841 N   0  0  0  0  0  0  0  0  0  0  0  0
  -30.0955  -24.5152   17.5822 N   0  0  0  0  0  0  0  0  0  0  0  0
  -27.8083  -19.5314   21.7182 N   0  0  0  0  0  0  0  0  0  0  0  0
  -25.4539  -14.9807   20.3911 N   0  0  0  0  0  0  0  0  0  0  0  0
  -22.5480  -13.2350   22.0949 N   0  0  0  0  0  0  0  0  0  0  0  0
  -27.1701  -20.8630   19.8792 N   0  0  0  0  0  0  0  0  0  0  0  0
  -21.2921  -25.3744   20.6295 N   0  0  0  0  0  0  0  0  0  0  0  0
  -23.5348  -31.1377   23.1646 N   0  0  0  0  0  0  0  0  0  0  0  0
  -26.8828  -32.1391   24.0898 N   0  3  0  0  0  0  0  0  0  0  0  0
  -21.7511  -14.5186   20.3698 O   0  0  0  0  0  0  0  0  0  0  0  0
  -22.0362  -27.4111   19.7807 O   0  0  0  0  0  0  0  0  0  0  0  0
  -30.9801  -25.8877   19.2170 O   0  0  0  0  0  0  0  0  0  0  0  0
  -21.0417  -29.2782   22.8984 O   0  0  0  0  0  0  0  0  0  0  0  0
  -25.1113  -32.2843   21.9087 O   0  0  0  0  0  0  0  0  0  0  0  0
  -29.3455  -20.9135   20.6835 O   0  0  0  0  0  0  0  0  0  0  0  0
  -18.5933  -17.6099   25.6059 O   0  0  0  0  0  0  0  0  0  0  0  0
  -28.5472  -26.4323   20.1730 O   0  0  0  0  0  0  0  0  0  1  0  0
  -17.5814  -14.4216   29.9893 F   0  0  0  0  0  0  0  0  0  0  0  0
  -18.4064  -18.6998   28.1397 F   0  0  0  0  0  0  0  0  0  0  0  0
  -25.8122  -22.0224   17.9084 S   0  0  0  0  0  0  0  0  0  0  0  0
  1  2  1  0  0  0  0
  1  5  2  0  0  0  0
  2  6  2  0  0  0  0
  3  8  2  0  0  0  0
  3 16  1  0  0  0  0
  4  9  1  0  0  0  0
  4 16  2  0  0  0  0
  5 18  1  0  0  0  0
  6 20  1  0  0  0  0
  7 10  2  0  0  0  0
  7 19  1  0  0  0  0
  8 22  1  0  0  0  0
  9 22  2  0  0  0  0
 10 23  1  0  0  0  0
 11 12  2  0  0  0  0
 11 24  1  0  0  0  0
 12 25  1  0  0  0  0
 13 21  1  0  0  0  0
 13 23  2  0  0  0  0
 14 25  2  0  0  0  0
 14 26  1  0  0  0  0
 15 28  2  0  0  0  0
 15 87  1  0  0  0  0
 16 27  1  0  0  0  0
 17 27  1  0  0  0  0
 17 29  2  0  0  0  0
 17 31  1  0  0  0  0
 18 20  2  0  0  0  0
 18 38  1  0  0  0  0
 19 21  2  0  0  0  0
 19 39  1  0  0  0  0
 20 50  1  0  0  0  0
 21 40  1  0  0  0  0
 22 83  1  0  0  0  0
 23 84  1  0  0  0  0
 24 26  2  0  0  0  0
 24 83  1  0  0  0  0
 25 85  1  0  0  0  0
 26 86  1  0  0  0  0
 27 64  2  0  0  0  0
 28 51  1  0  0  0  0
 28 65  1  0  0  0  0
 29 67  1  0  0  0  0
 29 71  1  0  0  0  0
 30 65  2  0  0  0  0
 30 73  1  0  0  0  0
 30 87  1  0  0  0  0
 31 72  1  0  0  0  0
 31 77  2  0  0  0  0
 32 52  1  0  0  0  0
 32 74  1  0  0  0  0
 32 78  2  0  0  0  0
 33 54  1  0  0  0  0
 33 60  1  0  0  0  0
 33 66  2  0  0  0  0
 34 60  1  0  0  0  0
 34 69  1  0  0  0  0
 34 79  2  0  0  0  0
 35 61  1  0  0  0  0
 35 68  1  0  0  0  0
 35 80  2  0  0  0  0
 36 62  1  0  0  0  0
 36 75  1  0  0  0  0
 36 81  2  0  0  0  0
 37 70  1  0  0  0  0
 37 73  1  0  0  0  0
 37 82  2  0  0  0  0
 38 41  1  0  0  0  0
 39 52  1  0  0  0  0
 40 68  1  0  0  0  0
 41 44  1  0  0  0  0
 42 45  1  0  0  0  0
 42 47  1  0  0  0  0
 43 46  1  0  0  0  0
 43 48  1  0  0  0  0
 44 50  1  0  0  0  0
 45 51  1  0  0  0  0
 46 53  1  0  0  0  0
 47 69  1  0  0  0  0
 48 70  1  0  0  0  0
 49 53  1  0  0  0  0
 49 70  1  0  0  0  0
 50 74  1  0  0  0  0
 51 69  1  0  0  0  0
 52 68  1  0  0  0  0
 53 67  1  0  0  0  0
 55 62  1  0  0  0  0
 56 63  1  0  0  0  0
 57 63  1  0  0  0  0
 58 63  1  0  0  0  0
 59 76  1  0  0  0  0
 60 84  1  0  0  0  0
 61 63  1  0  0  0  0
 61 75  1  0  0  0  0
 62 76  1  0  0  0  0
 64 67  1  0  0  0  0
M  CHG  1  76   1
M  ISO  4  37 100  60 101  73 100  84 101
M  END
> <Batch ID>
0156

> <Smiles>
CNC(C)C(=O)NC(C(=O)N1Cc2cc([101O:1][101CH:1](C(C)=N)C(=O)N3CCCC3c3csc([100NH:0][100C:0](=O)N4CCCC(n5nc(-c6ccc(Oc7ccc(F)cc7F)cc6)c(C(N)=O)c5N)C4)n3)ccc2CC1C(=O)NC1CCCc2ccccc21)C(C)(C)C

> <Shape>
0.173

> <Color>
0.104

> <Negative vol penalty>
0.000

$$$$

  -OEChem-04052303393D

 82 91  0     1  0  0  0  0  0999 V2000
  -30.6262  -14.7774   34.4546 C   0  0  0  0  0  0  0  0  0  0  0  0
  -31.2356  -15.1653   33.2656 C   0  0  0  0  0  0  0  0  0  0  0  0
  -23.0751   -9.8684   19.9402 C   0  0  0  0  0  0  0  0  0  0  0  0
  -23.8345   -9.8743   22.2337 C   0  0  0  0  0  0  0  0  0  0  0  0
  -29.6930  -15.6150   35.0639 C   0  0  0  0  0  0  0  0  0  0  0  0
  -30.9112  -16.3907   32.6847 C   0  0  0  0  0  0  0  0  0  0  0  0
  -34.6653  -20.1020   29.5800 C   0  0  0  0  0  0  0  0  0  0  0  0
  -22.3308   -8.7154   20.1895 C   0  0  0  0  0  0  0  0  0  0  0  0
  -23.0902   -8.7213   22.4831 C   0  0  0  0  0  0  0  0  0  0  0  0
  -34.8780  -20.2931   28.2155 C   0  0  0  0  0  0  0  0  0  0  0  0
  -19.8616   -7.9244   23.0847 C   0  0  0  0  0  0  0  0  0  0  0  0
  -19.1044   -7.8842   24.2554 C   0  0  0  0  0  0  0  0  0  0  0  0
  -33.3517  -22.1609   28.2453 C   0  0  0  0  0  0  0  0  0  0  0  0
  -31.8496  -17.5135   21.6668 C   0  0  0  0  0  0  0  0  0  0  0  0
  -20.3450   -5.9461   24.9914 C   0  0  0  0  0  0  0  0  0  0  0  0
  -29.9197  -17.8238   22.7418 C   0  0  0  0  0  0  0  0  0  0  0  0
  -23.8270  -10.4478   20.9623 C   0  0  0  0  0  0  0  0  0  0  0  0
  -24.1698  -12.9729   20.8433 C   0  0  0  0  0  0  0  0  0  0  0  0
  -29.3641  -16.8556   34.4952 C   0  0  0  0  0  0  0  0  0  0  0  0
  -33.7843  -20.9334   30.2864 C   0  0  0  0  0  0  0  0  0  0  0  0
  -29.9716  -17.2451   33.2862 C   0  0  0  0  0  0  0  0  0  0  0  0
  -33.1315  -21.9798   29.6193 C   0  0  0  0  0  0  0  0  0  0  0  0
  -30.5864  -16.9332   21.9328 C   0  0  0  0  0  0  0  0  0  0  0  0
  -22.3383   -8.1419   21.4610 C   0  0  0  0  0  0  0  0  0  0  0  0
  -34.2190  -21.3209   27.5473 C   0  0  0  0  0  0  0  0  0  0  0  0
  -20.8605   -6.9753   22.8672 C   0  0  0  0  0  0  0  0  0  0  0  0
  -19.3461   -6.8951   25.2087 C   0  0  0  0  0  0  0  0  0  0  0  0
  -21.1022   -5.9862   23.8206 C   0  0  0  0  0  0  0  0  0  0  0  0
  -24.5966  -11.6385   20.7051 C   0  0  0  0  0  0  0  0  0  0  0  0
  -31.8647  -18.7174   22.3319 C   0  0  0  0  0  0  0  0  0  0  0  0
  -25.2623  -13.7221   20.4805 C   0  0  0  0  0  0  0  0  0  0  0  0
  -22.8994  -13.4890   21.2621 C   0  0  0  0  0  0  0  0  0  0  0  0
  -31.0807  -20.4842   31.8965 C   0  0  0  0  0  0  0  0  0  0  0  0
  -31.4637  -23.6166   32.6472 C   0  0  0  0  0  0  0  0  0  0  0  0
  -32.8135  -26.6453   31.8397 C   0  0  0  0  0  0  0  0  0  0  0  0
  -30.7287  -14.7659   20.6567 C   0  0  0  0  0  0  0  0  0  0  0  0
  -28.3144  -17.7061   35.1656 C   0  0  0  0  0  0  0  0  0  0  0  0
  -33.5862  -20.7308   31.7636 C   0  0  0  0  0  0  0  0  0  0  0  0
  -32.1912  -22.9128   30.3361 C   0  0  0  0  0  0  0  0  0  0  0  0
  -28.3038  -19.1540   34.6823 C   0  0  0  0  0  0  0  0  0  0  0  0
  -29.6141  -12.3531   18.2874 C   0  0  0  0  0  0  0  0  0  0  0  0
  -28.3676  -19.2090   33.1593 C   0  0  0  0  0  0  0  0  0  0  0  0
  -32.3475  -21.1442   21.9372 C   0  0  0  0  0  0  0  0  0  0  0  0
  -32.3013  -22.0680   23.1501 C   0  0  0  0  0  0  0  0  0  0  0  0
  -28.1742  -12.0619   18.7166 C   0  0  0  0  0  0  0  0  0  0  0  0
  -33.2578  -20.0328   23.9315 C   0  0  0  0  0  0  0  0  0  0  0  0
  -30.5290  -12.5813   19.4893 C   0  0  0  0  0  0  0  0  0  0  0  0
  -28.6220  -13.3060   20.8704 C   0  0  0  0  0  0  0  0  0  0  0  0
  -29.6643  -18.5778   32.6383 C   0  0  1  0  0  0  0  0  0  0  0  0
  -32.8754  -19.7914   22.4592 C   0  0  1  0  0  0  0  0  0  0  0  0
  -32.2735  -21.3153   32.2761 C   0  0  1  0  0  0  0  0  0  0  0  0
  -33.4251  -21.5472   24.0393 C   0  0  2  0  0  0  0  0  0  0  0  0
  -27.6494  -13.1334   19.6923 C   0  0  2  0  0  0  0  0  0  0  0  0
  -32.9202  -29.0266   32.6242 C   0  0  0  0  0  0  0  0  0  0  0  0
  -28.6311  -24.0817   31.6128 C   0  0  0  0  0  0  0  0  0  0  0  0
  -29.1387  -26.5320   31.5294 C   0  0  0  0  0  0  0  0  0  0  0  0
  -29.1926  -25.3224   33.7104 C   0  0  0  0  0  0  0  0  0  0  0  0
  -35.7526  -26.5278   32.1664 C   0  0  0  0  0  0  0  0  0  0  0  0
  -33.3426  -22.0564   25.4624 C   0  0  0  0  0  0  0  0  0  1  0  0
  -31.0361  -24.9247   32.0266 C   0  0  1  0  0  0  0  0  0  0  0  0
  -33.5827  -27.6584   32.6682 C   0  0  2  0  0  0  0  0  0  0  0  0
  -29.5158  -25.1966   32.2056 C   0  0  0  0  0  0  0  0  0  0  0  0
  -25.8615  -11.5424   20.2871 N   0  0  0  0  0  0  0  0  0  0  0  0
  -26.2389  -12.8259   20.1593 N   0  0  0  0  0  0  0  0  0  0  0  0
  -32.0257  -22.6701   31.7788 N   0  0  0  0  0  0  0  0  0  0  0  0
  -29.9702  -13.6120   20.3669 N   0  0  0  0  0  0  0  0  0  0  0  0
  -25.4732  -15.0535   20.4080 N   0  0  0  0  0  0  0  0  0  0  0  0
  -21.8871  -12.5800   21.5988 N   0  0  0  0  0  0  0  0  0  0  0  0
  -30.0815  -15.6909   21.4752 N   0  0  0  0  0  0  0  0  0  0  0  0
  -30.7743  -19.4910   32.8071 N   0  0  0  0  0  0  0  0  0  0  0  0
  -31.8985  -25.9509   32.6025 N   0  0  0  0  0  0  0  0  0  0  0  0
  -34.9761  -27.7943   32.1575 N   0  3  0  0  0  0  0  0  0  0  0  0
  -22.6636  -14.7197   21.3199 O   0  0  0  0  0  0  0  0  0  0  0  0
  -30.4818  -20.7270   30.8553 O   0  0  0  0  0  0  0  0  0  0  0  0
  -31.3115  -23.4438   33.8590 O   0  0  0  0  0  0  0  0  0  0  0  0
  -33.0026  -26.4884   30.6355 O   0  0  0  0  0  0  0  0  0  0  0  0
  -31.8580  -14.9344   20.1893 O   0  0  0  0  0  0  0  0  0  0  0  0
  -30.6920  -18.9141   22.9896 O   0  0  0  0  0  0  0  0  0  0  0  0
  -21.6119   -7.0169   21.7048 O   0  0  0  0  0  0  0  0  0  0  0  0
  -34.4243  -21.5092   26.2153 O   0  0  0  0  0  0  0  0  0  1  0  0
  -18.6199   -6.8577   26.3337 F   0  0  0  0  0  0  0  0  0  0  0  0
  -22.0612   -5.0724   23.6178 F   0  0  0  0  0  0  0  0  0  0  0  0
  1  2  1  0  0  0  0
  1  5  2  0  0  0  0
  2  6  2  0  0  0  0
  3  8  2  0  0  0  0
  3 17  1  0  0  0  0
  4  9  1  0  0  0  0
  4 17  2  0  0  0  0
  5 19  1  0  0  0  0
  6 21  1  0  0  0  0
  7 10  2  0  0  0  0
  7 20  1  0  0  0  0
  8 24  1  0  0  0  0
  9 24  2  0  0  0  0
 10 25  1  0  0  0  0
 11 12  2  0  0  0  0
 11 26  1  0  0  0  0
 12 27  1  0  0  0  0
 13 22  1  0  0  0  0
 13 25  2  0  0  0  0
 14 23  1  0  0  0  0
 14 30  2  0  0  0  0
 15 27  2  0  0  0  0
 15 28  1  0  0  0  0
 16 23  2  0  0  0  0
 16 78  1  0  0  0  0
 17 29  1  0  0  0  0
 18 29  1  0  0  0  0
 18 31  2  0  0  0  0
 18 32  1  0  0  0  0
 19 21  2  0  0  0  0
 19 37  1  0  0  0  0
 20 22  2  0  0  0  0
 20 38  1  0  0  0  0
 21 49  1  0  0  0  0
 22 39  1  0  0  0  0
 23 69  1  0  0  0  0
 24 79  1  0  0  0  0
 25 80  1  0  0  0  0
 26 28  2  0  0  0  0
 26 79  1  0  0  0  0
 27 81  1  0  0  0  0
 28 82  1  0  0  0  0
 29 63  2  0  0  0  0
 30 50  1  0  0  0  0
 30 78  1  0  0  0  0
 31 64  1  0  0  0  0
 31 67  1  0  0  0  0
 32 68  1  0  0  0  0
 32 73  2  0  0  0  0
 33 51  1  0  0  0  0
 33 70  1  0  0  0  0
 33 74  2  0  0  0  0
 34 60  1  0  0  0  0
 34 65  1  0  0  0  0
 34 75  2  0  0  0  0
 35 61  1  0  0  0  0
 35 71  1  0  0  0  0
 35 76  2  0  0  0  0
 36 66  1  0  0  0  0
 36 69  1  0  0  0  0
 36 77  2  0  0  0  0
 37 40  1  0  0  0  0
 38 51  1  0  0  0  0
 39 65  1  0  0  0  0
 40 42  1  0  0  0  0
 41 45  1  0  0  0  0
 41 47  1  0  0  0  0
 42 49  1  0  0  0  0
 43 44  1  0  0  0  0
 43 50  1  0  0  0  0
 44 52  1  0  0  0  0
 45 53  1  0  0  0  0
 46 50  1  0  0  0  0
 46 52  1  0  0  0  0
 47 66  1  0  0  0  0
 48 53  1  0  0  0  0
 48 66  1  0  0  0  0
 49 70  1  0  0  0  0
 51 65  1  0  0  0  0
 52 59  1  0  0  0  0
 53 64  1  0  0  0  0
 54 61  1  0  0  0  0
 55 62  1  0  0  0  0
 56 62  1  0  0  0  0
 57 62  1  0  0  0  0
 58 72  1  0  0  0  0
 59 80  1  0  0  0  0
 60 62  1  0  0  0  0
 60 71  1  0  0  0  0
 61 72  1  0  0  0  0
 63 64  1  0  0  0  0
M  CHG  1  72   1
M  ISO  4  36 100  59 101  69 100  80 101
M  END
> <Batch ID>
0156

> <Smiles>
CNC(C)C(=O)NC(C(=O)N1Cc2cc([101O:1][101CH2:1]C3CCC(c4cc([100NH:0][100C:0](=O)N5CCCC(n6nc(-c7ccc(Oc8ccc(F)cc8F)cc7)c(C(N)=O)c6N)C5)co4)C3)ccc2CC1C(=O)NC1CCCc2ccccc21)C(C)(C)C

> <Shape>
0.169

> <Color>
0.192

> <Negative vol penalty>
0.000

$$$$

  -OEChem-04052303393D

 85 94  0     1  0  0  0  0  0999 V2000
  -31.3862  -34.2103   20.1487 C   0  0  0  0  0  0  0  0  0  0  0  0
  -30.6383  -33.0653   19.8986 C   0  0  0  0  0  0  0  0  0  0  0  0
  -22.8466  -11.7334   22.2666 C   0  0  0  0  0  0  0  0  0  0  0  0
  -24.3366   -9.8755   22.6733 C   0  0  0  0  0  0  0  0  0  0  0  0
  -30.9852  -35.0960   21.1467 C   0  0  0  0  0  0  0  0  0  0  0  0
  -29.4827  -32.8116   20.6383 C   0  0  0  0  0  0  0  0  0  0  0  0
  -26.7220  -28.9906   19.2307 C   0  0  0  0  0  0  0  0  0  0  0  0
  -22.1294  -11.4104   23.4185 C   0  0  0  0  0  0  0  0  0  0  0  0
  -23.6194   -9.5526   23.8253 C   0  0  0  0  0  0  0  0  0  0  0  0
  -27.1126  -27.6664   19.4250 C   0  0  0  0  0  0  0  0  0  0  0  0
  -20.7266   -7.9840   24.6013 C   0  0  0  0  0  0  0  0  0  0  0  0
  -20.4100   -6.6421   24.8126 C   0  0  0  0  0  0  0  0  0  0  0  0
  -25.5784  -27.4922   21.2785 C   0  0  0  0  0  0  0  0  0  0  0  0
  -21.6469   -6.6771   26.8877 C   0  0  0  0  0  0  0  0  0  0  0  0
  -28.7900  -18.0855   18.8940 C   0  0  0  0  0  0  0  0  0  0  0  0
  -23.9501  -10.9659   21.8939 C   0  0  0  0  0  0  0  0  0  0  0  0
  -24.2028  -11.3471   19.3843 C   0  0  0  0  0  0  0  0  0  0  0  0
  -29.8309  -34.8459   21.9070 C   0  0  0  0  0  0  0  0  0  0  0  0
  -25.7630  -29.5799   20.0671 C   0  0  0  0  0  0  0  0  0  0  0  0
  -29.0484  -33.7056   21.6337 C   0  0  0  0  0  0  0  0  0  0  0  0
  -25.1755  -28.8233   21.0911 C   0  0  0  0  0  0  0  0  0  0  0  0
  -22.5158  -10.3201   24.1979 C   0  0  0  0  0  0  0  0  0  0  0  0
  -26.5429  -26.9179   20.4508 C   0  0  0  0  0  0  0  0  0  0  0  0
  -21.5035   -8.6724   25.5331 C   0  0  0  0  0  0  0  0  0  0  0  0
  -20.8700   -5.9886   25.9559 C   0  0  0  0  0  0  0  0  0  0  0  0
  -21.9636   -8.0189   26.6763 C   0  0  0  0  0  0  0  0  0  0  0  0
  -24.6910  -11.2986   20.7038 C   0  0  0  0  0  0  0  0  0  0  0  0
  -29.6293  -19.2128   18.9125 C   0  0  0  0  0  0  0  0  0  0  0  0
  -25.2910  -11.7097   18.6287 C   0  0  0  0  0  0  0  0  0  0  0  0
  -29.6118  -17.0611   19.2834 C   0  0  0  0  0  0  0  0  0  0  0  0
  -22.8836  -11.0877   18.8861 C   0  0  0  0  0  0  0  0  0  0  0  0
  -25.7537  -32.0322   22.0894 C   0  0  0  0  0  0  0  0  0  0  0  0
  -28.1672  -23.6709   20.1637 C   0  0  0  0  0  0  0  0  0  0  0  0
  -22.5803  -31.3804   22.2549 C   0  0  0  0  0  0  0  0  0  0  0  0
  -20.0682  -29.0996   21.8887 C   0  0  0  0  0  0  0  0  0  0  0  0
  -30.3058  -14.7119   19.8711 C   0  0  0  0  0  0  0  0  0  0  0  0
  -29.4385  -35.8419   22.9696 C   0  0  0  0  0  0  0  0  0  0  0  0
  -25.3330  -31.0012   19.8275 C   0  0  0  0  0  0  0  0  0  0  0  0
  -24.1270  -29.4030   22.0037 C   0  0  0  0  0  0  0  0  0  0  0  0
  -28.4608  -35.2683   23.9900 C   0  0  0  0  0  0  0  0  0  0  0  0
  -29.7068  -22.6144   17.0452 C   0  0  0  0  0  0  0  0  0  0  0  0
  -30.0701  -11.4099   18.5602 C   0  0  0  0  0  0  0  0  0  0  0  0
  -27.3055  -34.5836   23.2751 C   0  0  0  0  0  0  0  0  0  0  0  0
  -30.0642  -21.1619   17.3582 C   0  0  0  0  0  0  0  0  0  0  0  0
  -28.6178  -11.0133   18.8356 C   0  0  0  0  0  0  0  0  0  0  0  0
  -29.8594  -23.5075   18.2737 C   0  0  0  0  0  0  0  0  0  0  0  0
  -30.6506  -12.2575   19.6907 C   0  0  0  0  0  0  0  0  0  0  0  0
  -29.4411  -21.5857   19.7752 C   0  0  0  0  0  0  0  0  0  0  0  0
  -28.4038  -13.0418   20.3277 C   0  0  0  0  0  0  0  0  0  0  0  0
  -27.8047  -33.3933   22.4462 C   0  0  1  0  0  0  0  0  0  0  0  0
  -29.2682  -20.6464   18.5698 C   0  0  2  0  0  0  0  0  0  0  0  0
  -24.7230  -31.6571   21.0624 C   0  0  1  0  0  0  0  0  0  0  0  0
  -27.7551  -12.2414   19.1865 C   0  0  2  0  0  0  0  0  0  0  0  0
  -17.5831  -28.8501   22.1328 C   0  0  0  0  0  0  0  0  0  0  0  0
  -22.8947  -31.2400   25.2866 C   0  0  0  0  0  0  0  0  0  0  0  0
  -20.6782  -30.0807   25.3929 C   0  0  0  0  0  0  0  0  0  0  0  0
  -20.8255  -32.4073   24.5053 C   0  0  0  0  0  0  0  0  0  0  0  0
  -19.7336  -28.4612   19.0183 C   0  0  0  0  0  0  0  0  0  0  0  0
  -27.9100  -25.0999   19.7568 C   0  0  0  0  0  0  0  0  0  1  0  0
  -21.7149  -30.4918   23.1153 C   0  0  1  0  0  0  0  0  0  0  0  0
  -18.7252  -29.1844   21.1860 C   0  0  2  0  0  0  0  0  0  0  0  0
  -21.5495  -31.0443   24.5592 C   0  0  0  0  0  0  0  0  0  0  0  0
  -25.9883  -11.6057   20.7852 N   0  0  0  0  0  0  0  0  0  0  0  0
  -30.8763  -18.9108   19.2849 N   0  0  0  0  0  0  0  0  0  0  0  0
  -26.3246  -11.8505   19.5073 N   0  0  0  0  0  0  0  0  0  0  0  0
  -23.7445  -30.7987   21.7332 N   0  0  0  0  0  0  0  0  0  0  0  0
  -29.1086  -22.9665   19.4131 N   0  0  0  0  0  0  0  0  0  0  0  0
  -29.7827  -13.4048   19.9649 N   0  0  0  0  0  0  0  0  0  0  0  0
  -25.4549  -11.9185   17.3051 N   0  0  0  0  0  0  0  0  0  0  0  0
  -22.5596   -9.7791   18.5028 N   0  0  0  0  0  0  0  0  0  0  0  0
  -29.3822  -15.6749   19.4663 N   0  0  0  0  0  0  0  0  0  0  0  0
  -26.7206  -32.9028   21.6241 N   0  0  0  0  0  0  0  0  0  0  0  0
  -20.4588  -30.3221   22.3929 N   0  0  0  0  0  0  0  0  0  0  0  0
  -18.6794  -28.2330   20.0399 N   0  3  0  0  0  0  0  0  0  0  0  0
  -22.0231  -11.9928   18.7685 O   0  0  0  0  0  0  0  0  0  0  0  0
  -25.6764  -31.5674   23.2206 O   0  0  0  0  0  0  0  0  0  0  0  0
  -27.5471  -23.1959   21.1186 O   0  0  0  0  0  0  0  0  0  0  0  0
  -22.2324  -32.5455   22.0471 O   0  0  0  0  0  0  0  0  0  0  0  0
  -20.7050  -28.0529   21.9843 O   0  0  0  0  0  0  0  0  0  0  0  0
  -31.4928  -14.9540   20.1044 O   0  0  0  0  0  0  0  0  0  0  0  0
  -30.8596  -17.5411   19.5195 O   0  0  0  0  0  0  0  0  0  0  0  0
  -21.8164  -10.0048   25.3222 O   0  0  0  0  0  0  0  0  0  0  0  0
  -26.9227  -25.6254   20.6431 O   0  0  0  0  0  0  0  0  0  1  0  0
  -20.5646   -4.7005   26.1595 F   0  0  0  0  0  0  0  0  0  0  0  0
  -22.7093   -8.6754   27.5756 F   0  0  0  0  0  0  0  0  0  0  0  0
  1  2  1  0  0  0  0
  1  5  2  0  0  0  0
  2  6  2  0  0  0  0
  3  8  2  0  0  0  0
  3 16  1  0  0  0  0
  4  9  1  0  0  0  0
  4 16  2  0  0  0  0
  5 18  1  0  0  0  0
  6 20  1  0  0  0  0
  7 10  2  0  0  0  0
  7 19  1  0  0  0  0
  8 22  1  0  0  0  0
  9 22  2  0  0  0  0
 10 23  1  0  0  0  0
 11 12  2  0  0  0  0
 11 24  1  0  0  0  0
 12 25  1  0  0  0  0
 13 21  1  0  0  0  0
 13 23  2  0  0  0  0
 14 25  2  0  0  0  0
 14 26  1  0  0  0  0
 15 28  1  0  0  0  0
 15 30  2  0  0  0  0
 16 27  1  0  0  0  0
 17 27  1  0  0  0  0
 17 29  2  0  0  0  0
 17 31  1  0  0  0  0
 18 20  2  0  0  0  0
 18 37  1  0  0  0  0
 19 21  2  0  0  0  0
 19 38  1  0  0  0  0
 20 50  1  0  0  0  0
 21 39  1  0  0  0  0
 22 82  1  0  0  0  0
 23 83  1  0  0  0  0
 24 26  2  0  0  0  0
 24 82  1  0  0  0  0
 25 84  1  0  0  0  0
 26 85  1  0  0  0  0
 27 63  2  0  0  0  0
 28 51  1  0  0  0  0
 28 64  2  0  0  0  0
 29 65  1  0  0  0  0
 29 69  1  0  0  0  0
 30 71  1  0  0  0  0
 30 81  1  0  0  0  0
 31 70  1  0  0  0  0
 31 75  2  0  0  0  0
 32 52  1  0  0  0  0
 32 72  1  0  0  0  0
 32 76  2  0  0  0  0
 33 59  1  0  0  0  0
 33 67  1  0  0  0  0
 33 77  2  0  0  0  0
 34 60  1  0  0  0  0
 34 66  1  0  0  0  0
 34 78  2  0  0  0  0
 35 61  1  0  0  0  0
 35 73  1  0  0  0  0
 35 79  2  0  0  0  0
 36 68  1  0  0  0  0
 36 71  1  0  0  0  0
 36 80  2  0  0  0  0
 37 40  1  0  0  0  0
 38 52  1  0  0  0  0
 39 66  1  0  0  0  0
 40 43  1  0  0  0  0
 41 44  1  0  0  0  0
 41 46  1  0  0  0  0
 42 45  1  0  0  0  0
 42 47  1  0  0  0  0
 43 50  1  0  0  0  0
 44 51  1  0  0  0  0
 45 53  1  0  0  0  0
 46 67  1  0  0  0  0
 47 68  1  0  0  0  0
 48 51  1  0  0  0  0
 48 67  1  0  0  0  0
 49 53  1  0  0  0  0
 49 68  1  0  0  0  0
 50 72  1  0  0  0  0
 52 66  1  0  0  0  0
 53 65  1  0  0  0  0
 54 61  1  0  0  0  0
 55 62  1  0  0  0  0
 56 62  1  0  0  0  0
 57 62  1  0  0  0  0
 58 74  1  0  0  0  0
 59 83  1  0  0  0  0
 60 62  1  0  0  0  0
 60 73  1  0  0  0  0
 61 74  1  0  0  0  0
 63 65  1  0  0  0  0
 64 81  1  0  0  0  0
M  CHG  1  74   1
M  ISO  4  36 100  59 101  71 100  83 101
M  END
> <Batch ID>
0156

> <Smiles>
CNC(C)C(=O)NC(C(=O)N1Cc2cc([101O:1][101CH2:1]C(=O)N3CCCC(c4cc([100NH:0][100C:0](=O)N5CCCC(n6nc(-c7ccc(Oc8ccc(F)cc8F)cc7)c(C(N)=O)c6N)C5)on4)C3)ccc2CC1C(=O)NC1CCCc2ccccc21)C(C)(C)C

> <Shape>
0.270

> <Color>
0.095

> <Negative vol penalty>
0.000

$$$$

  -OEChem-04052303393D

 82 91  0     1  0  0  0  0  0999 V2000
  -27.0200  -37.0284   20.3364 C   0  0  0  0  0  0  0  0  0  0  0  0
  -27.4832  -35.7978   19.8820 C   0  0  0  0  0  0  0  0  0  0  0  0
  -23.2117  -10.1401   19.8074 C   0  0  0  0  0  0  0  0  0  0  0  0
  -23.8728   -9.7349   22.0956 C   0  0  0  0  0  0  0  0  0  0  0  0
  -26.4216  -37.1264   21.5919 C   0  0  0  0  0  0  0  0  0  0  0  0
  -27.3492  -34.6646   20.6834 C   0  0  0  0  0  0  0  0  0  0  0  0
  -26.2927  -28.9319   18.8057 C   0  0  0  0  0  0  0  0  0  0  0  0
  -22.5010   -8.9400   19.8002 C   0  0  0  0  0  0  0  0  0  0  0  0
  -23.1620   -8.5347   22.0884 C   0  0  0  0  0  0  0  0  0  0  0  0
  -27.1369  -27.8415   18.6003 C   0  0  0  0  0  0  0  0  0  0  0  0
  -23.5988   -5.3876   20.9327 C   0  0  0  0  0  0  0  0  0  0  0  0
  -24.2207   -4.2629   21.4747 C   0  0  0  0  0  0  0  0  0  0  0  0
  -26.6066  -27.0230   20.8067 C   0  0  0  0  0  0  0  0  0  0  0  0
  -28.7378  -20.4217   18.3192 C   0  0  0  0  0  0  0  0  0  0  0  0
  -22.4432   -4.0626   23.0987 C   0  0  0  0  0  0  0  0  0  0  0  0
  -23.8977  -10.5376   20.9551 C   0  0  0  0  0  0  0  0  0  0  0  0
  -24.1509  -13.0485   21.3276 C   0  0  0  0  0  0  0  0  0  0  0  0
  -26.2714  -35.9919   22.4050 C   0  0  0  0  0  0  0  0  0  0  0  0
  -25.6064  -29.0820   20.0193 C   0  0  0  0  0  0  0  0  0  0  0  0
  -26.7494  -34.7477   21.9515 C   0  0  0  0  0  0  0  0  0  0  0  0
  -25.7523  -28.1148   21.0240 C   0  0  0  0  0  0  0  0  0  0  0  0
  -28.7436  -19.0123   18.3135 C   0  0  0  0  0  0  0  0  0  0  0  0
  -22.4761   -8.1373   20.9406 C   0  0  0  0  0  0  0  0  0  0  0  0
  -27.2962  -26.8884   19.6020 C   0  0  0  0  0  0  0  0  0  0  0  0
  -22.3991   -5.8499   21.4737 C   0  0  0  0  0  0  0  0  0  0  0  0
  -23.6429   -3.6003   22.5576 C   0  0  0  0  0  0  0  0  0  0  0  0
  -21.8213   -5.1874   22.5567 C   0  0  0  0  0  0  0  0  0  0  0  0
  -24.6325  -11.7770   20.9630 C   0  0  0  0  0  0  0  0  0  0  0  0
  -28.1568  -18.4884   19.4283 C   0  0  0  0  0  0  0  0  0  0  0  0
  -25.2290  -13.8837   21.1649 C   0  0  0  0  0  0  0  0  0  0  0  0
  -28.1281  -20.9011   19.4681 C   0  0  0  0  0  0  0  0  0  0  0  0
  -22.8456  -13.4397   21.7735 C   0  0  0  0  0  0  0  0  0  0  0  0
  -25.5956  -31.2585   22.3358 C   0  0  0  0  0  0  0  0  0  0  0  0
  -23.1473  -29.4633   23.4783 C   0  0  0  0  0  0  0  0  0  0  0  0
  -28.2345  -23.4065   19.2550 C   0  0  0  0  0  0  0  0  0  0  0  0
  -21.5889  -26.4295   23.5976 C   0  0  0  0  0  0  0  0  0  0  0  0
  -29.4924  -15.5042   17.8605 C   0  0  0  0  0  0  0  0  0  0  0  0
  -25.6607  -36.1559   23.7742 C   0  0  0  0  0  0  0  0  0  0  0  0
  -24.6787  -30.2497   20.2150 C   0  0  0  0  0  0  0  0  0  0  0  0
  -25.0222  -28.2192   22.3372 C   0  0  0  0  0  0  0  0  0  0  0  0
  -29.2296  -17.9493   17.4157 C   0  0  0  0  0  0  0  0  0  0  0  0
  -28.1339  -17.0154   19.4511 C   0  0  0  0  0  0  0  0  0  0  0  0
  -25.2188  -34.8383   24.4059 C   0  0  0  0  0  0  0  0  0  0  0  0
  -30.1116  -12.8564   20.3286 C   0  0  0  0  0  0  0  0  0  0  0  0
  -26.3105  -33.7831   24.2586 C   0  0  0  0  0  0  0  0  0  0  0  0
  -28.6950  -12.4170   20.7053 C   0  0  0  0  0  0  0  0  0  0  0  0
  -30.1895  -13.3721   18.8931 C   0  0  0  0  0  0  0  0  0  0  0  0
  -27.8010  -13.9733   18.9367 C   0  0  0  0  0  0  0  0  0  0  0  0
  -26.5998  -33.4910   22.7813 C   0  0  1  0  0  0  0  0  0  0  0  0
  -24.4276  -30.5735   21.6845 C   0  0  1  0  0  0  0  0  0  0  0  0
  -27.6670  -13.5227   20.3973 C   0  0  1  0  0  0  0  0  0  0  0  0
  -19.6317  -25.2602   24.6461 C   0  0  0  0  0  0  0  0  0  0  0  0
  -24.6586  -29.3117   26.1246 C   0  0  0  0  0  0  0  0  0  0  0  0
  -23.1746  -27.4058   26.7830 C   0  0  0  0  0  0  0  0  0  0  0  0
  -22.1921  -29.6575   26.3503 C   0  0  0  0  0  0  0  0  0  0  0  0
  -20.3779  -25.8444   20.9613 C   0  0  0  0  0  0  0  0  0  0  0  0
  -27.8010  -24.6117   20.0687 C   0  0  0  0  0  0  0  0  0  1  0  0
  -23.0330  -28.2777   24.4058 C   0  0  1  0  0  0  0  0  0  0  0  0
  -20.1305  -26.0394   23.4391 C   0  0  2  0  0  0  0  0  0  0  0  0
  -23.2800  -28.6619   25.8920 C   0  0  0  0  0  0  0  0  0  0  0  0
  -25.9167  -11.7977   20.5962 N   0  0  0  0  0  0  0  0  0  0  0  0
  -26.2510  -13.0925   20.7294 N   0  0  0  0  0  0  0  0  0  0  0  0
  -24.1316  -29.3824   22.4831 N   0  0  0  0  0  0  0  0  0  0  0  0
  -28.8796  -16.7192   18.1863 N   0  0  0  0  0  0  0  0  0  0  0  0
  -29.1752  -14.3974   18.6540 N   0  0  0  0  0  0  0  0  0  0  0  0
  -25.3930  -15.2104   21.3532 N   0  0  0  0  0  0  0  0  0  0  0  0
  -21.8545  -12.4550   21.8846 N   0  0  0  0  0  0  0  0  0  0  0  0
  -27.9010  -22.1816   19.8914 N   0  0  0  0  0  0  0  0  0  0  0  0
  -25.5734  -32.6357   22.2249 N   0  0  0  0  0  0  0  0  0  0  0  0
  -21.7244  -27.6850   24.1514 N   0  0  0  0  0  0  0  0  0  0  0  0
  -19.9496  -25.1930   22.2259 N   0  3  0  0  0  0  0  0  0  0  0  0
  -22.5618  -14.6301   22.0491 O   0  0  0  0  0  0  0  0  0  0  0  0
  -26.4526  -30.5874   22.8986 O   0  0  0  0  0  0  0  0  0  0  0  0
  -22.3864  -30.4228   23.6268 O   0  0  0  0  0  0  0  0  0  0  0  0
  -28.8051  -23.5311   18.1764 O   0  0  0  0  0  0  0  0  0  0  0  0
  -22.5153  -25.6926   23.2670 O   0  0  0  0  0  0  0  0  0  0  0  0
  -30.3211  -15.4247   16.9450 O   0  0  0  0  0  0  0  0  0  0  0  0
  -21.7825   -6.9662   20.9340 O   0  0  0  0  0  0  0  0  0  0  0  0
  -28.1287  -25.8124   19.4023 O   0  0  0  0  0  0  0  0  0  1  0  0
  -24.2394   -2.5193   23.0770 F   0  0  0  0  0  0  0  0  0  0  0  0
  -20.6682   -5.6261   23.0800 F   0  0  0  0  0  0  0  0  0  0  0  0
  -27.5832  -19.6285   20.5075 S   0  0  0  0  0  0  0  0  0  0  0  0
  1  2  1  0  0  0  0
  1  5  2  0  0  0  0
  2  6  2  0  0  0  0
  3  8  2  0  0  0  0
  3 16  1  0  0  0  0
  4  9  1  0  0  0  0
  4 16  2  0  0  0  0
  5 18  1  0  0  0  0
  6 20  1  0  0  0  0
  7 10  2  0  0  0  0
  7 19  1  0  0  0  0
  8 23  1  0  0  0  0
  9 23  2  0  0  0  0
 10 24  1  0  0  0  0
 11 12  2  0  0  0  0
 11 25  1  0  0  0  0
 12 26  1  0  0  0  0
 13 21  1  0  0  0  0
 13 24  2  0  0  0  0
 14 22  1  0  0  0  0
 14 31  2  0  0  0  0
 15 26  2  0  0  0  0
 15 27  1  0  0  0  0
 16 28  1  0  0  0  0
 17 28  1  0  0  0  0
 17 30  2  0  0  0  0
 17 32  1  0  0  0  0
 18 20  2  0  0  0  0
 18 38  1  0  0  0  0
 19 21  2  0  0  0  0
 19 39  1  0  0  0  0
 20 49  1  0  0  0  0
 21 40  1  0  0  0  0
 22 29  2  0  0  0  0
 22 41  1  0  0  0  0
 23 78  1  0  0  0  0
 24 79  1  0  0  0  0
 25 27  2  0  0  0  0
 25 78  1  0  0  0  0
 26 80  1  0  0  0  0
 27 81  1  0  0  0  0
 28 61  2  0  0  0  0
 29 42  1  0  0  0  0
 29 82  1  0  0  0  0
 30 62  1  0  0  0  0
 30 66  1  0  0  0  0
 31 68  1  0  0  0  0
 31 82  1  0  0  0  0
 32 67  1  0  0  0  0
 32 72  2  0  0  0  0
 33 50  1  0  0  0  0
 33 69  1  0  0  0  0
 33 73  2  0  0  0  0
 34 58  1  0  0  0  0
 34 63  1  0  0  0  0
 34 74  2  0  0  0  0
 35 57  1  0  0  0  0
 35 68  1  0  0  0  0
 35 75  2  0  0  0  0
 36 59  1  0  0  0  0
 36 70  1  0  0  0  0
 36 76  2  0  0  0  0
 37 64  1  0  0  0  0
 37 65  1  0  0  0  0
 37 77  2  0  0  0  0
 38 43  1  0  0  0  0
 39 50  1  0  0  0  0
 40 63  1  0  0  0  0
 41 64  1  0  0  0  0
 42 64  1  0  0  0  0
 43 45  1  0  0  0  0
 44 46  1  0  0  0  0
 44 47  1  0  0  0  0
 45 49  1  0  0  0  0
 46 51  1  0  0  0  0
 47 65  1  0  0  0  0
 48 51  1  0  0  0  0
 48 65  1  0  0  0  0
 49 69  1  0  0  0  0
 50 63  1  0  0  0  0
 51 62  1  0  0  0  0
 52 59  1  0  0  0  0
 53 60  1  0  0  0  0
 54 60  1  0  0  0  0
 55 60  1  0  0  0  0
 56 71  1  0  0  0  0
 57 79  1  0  0  0  0
 58 60  1  0  0  0  0
 58 70  1  0  0  0  0
 59 71  1  0  0  0  0
 61 62  1  0  0  0  0
M  CHG  1  71   1
M  ISO  4  37 100  57 101  64 100  79 101
M  END
> <Batch ID>
0156

> <Smiles>
CNC(C)C(=O)NC(C(=O)N1Cc2cc([101O:1][101CH2:1]C(=O)Nc3cc4c(s3)C[100N:0]([100C:0](=O)N3CCCC(n5nc(-c6ccc(Oc7ccc(F)cc7F)cc6)c(C(N)=O)c5N)C3)C4)ccc2CC1C(=O)NC1CCCc2ccccc21)C(C)(C)C

> <Shape>
0.337

> <Color>
0.166

> <Negative vol penalty>
0.000

$$$$

  -OEChem-04052303393D

 86 95  0     1  0  0  0  0  0999 V2000
  -24.4292  -34.0090   25.6811 C   0  0  0  0  0  0  0  0  0  0  0  0
  -24.2050  -33.8322   24.3195 C   0  0  0  0  0  0  0  0  0  0  0  0
  -22.8793  -10.3019   20.2068 C   0  0  0  0  0  0  0  0  0  0  0  0
  -24.5925   -9.1651   21.4756 C   0  0  0  0  0  0  0  0  0  0  0  0
  -25.5743  -33.4773   26.2727 C   0  0  0  0  0  0  0  0  0  0  0  0
  -25.1264  -33.1243   23.5485 C   0  0  0  0  0  0  0  0  0  0  0  0
  -23.1592  -27.2327   19.9001 C   0  0  0  0  0  0  0  0  0  0  0  0
  -21.9068   -9.8041   21.0740 C   0  0  0  0  0  0  0  0  0  0  0  0
  -23.6200   -8.6674   22.3428 C   0  0  0  0  0  0  0  0  0  0  0  0
  -22.8132  -26.2192   19.0061 C   0  0  0  0  0  0  0  0  0  0  0  0
  -21.3303   -6.1798   22.3543 C   0  0  0  0  0  0  0  0  0  0  0  0
  -21.4050   -4.8323   22.7070 C   0  0  0  0  0  0  0  0  0  0  0  0
  -25.1287  -25.9972   18.3450 C   0  0  0  0  0  0  0  0  0  0  0  0
  -21.6258   -5.4530   25.0315 C   0  0  0  0  0  0  0  0  0  0  0  0
  -26.6760  -18.3829   19.2150 C   0  0  0  0  0  0  0  0  0  0  0  0
  -24.2222   -9.9823   20.4076 C   0  0  0  0  0  0  0  0  0  0  0  0
  -25.3202  -10.2782   18.1240 C   0  0  0  0  0  0  0  0  0  0  0  0
  -26.5053  -32.7543   25.5104 C   0  0  0  0  0  0  0  0  0  0  0  0
  -24.4951  -27.6221   20.0313 C   0  0  0  0  0  0  0  0  0  0  0  0
  -26.2856  -32.5835   24.1302 C   0  0  0  0  0  0  0  0  0  0  0  0
  -25.4830  -27.0031   19.2479 C   0  0  0  0  0  0  0  0  0  0  0  0
  -22.2771   -8.9869   22.1420 C   0  0  0  0  0  0  0  0  0  0  0  0
  -23.7955  -25.6032   18.2303 C   0  0  0  0  0  0  0  0  0  0  0  0
  -21.4035   -7.1639   23.3402 C   0  0  0  0  0  0  0  0  0  0  0  0
  -21.5527   -4.4689   24.0456 C   0  0  0  0  0  0  0  0  0  0  0  0
  -21.5512   -6.8005   24.6788 C   0  0  0  0  0  0  0  0  0  0  0  0
  -25.2272  -10.4958   19.5118 C   0  0  0  0  0  0  0  0  0  0  0  0
  -27.1101  -19.7168   19.1245 C   0  0  0  0  0  0  0  0  0  0  0  0
  -26.4400  -10.9755   17.7415 C   0  0  0  0  0  0  0  0  0  0  0  0
  -27.8185  -17.6881   19.5117 C   0  0  0  0  0  0  0  0  0  0  0  0
  -24.4703   -9.5142   17.2582 C   0  0  0  0  0  0  0  0  0  0  0  0
  -26.9808  -29.8551   21.7375 C   0  0  0  0  0  0  0  0  0  0  0  0
  -21.8506  -22.9654   16.8008 C   0  0  0  0  0  0  0  0  0  0  0  0
  -28.2873  -27.0903   21.4930 C   0  0  0  0  0  0  0  0  0  0  0  0
  -30.1351  -24.2556   21.9255 C   0  0  0  0  0  0  0  0  0  0  0  0
  -29.2838  -15.7058   20.0311 C   0  0  0  0  0  0  0  0  0  0  0  0
  -27.7519  -32.2388   26.1850 C   0  0  0  0  0  0  0  0  0  0  0  0
  -24.9053  -28.7515   20.9369 C   0  0  0  0  0  0  0  0  0  0  0  0
  -26.9024  -27.4785   19.3973 C   0  0  0  0  0  0  0  0  0  0  0  0
  -28.4918  -31.1805   25.3709 C   0  0  0  0  0  0  0  0  0  0  0  0
  -30.6663  -12.4830   19.4149 C   0  0  0  0  0  0  0  0  0  0  0  0
  -28.6260  -31.6227   23.9172 C   0  0  0  0  0  0  0  0  0  0  0  0
  -29.4368  -11.5890   19.2375 C   0  0  0  0  0  0  0  0  0  0  0  0
  -25.6482  -20.8797   17.4151 C   0  0  0  0  0  0  0  0  0  0  0  0
  -25.1985  -21.1933   19.8832 C   0  0  0  0  0  0  0  0  0  0  0  0
  -30.4403  -13.5530   20.4816 C   0  0  0  0  0  0  0  0  0  0  0  0
  -28.0049  -13.4759   20.1184 C   0  0  0  0  0  0  0  0  0  0  0  0
  -24.8130  -22.1178   17.1153 C   0  0  0  0  0  0  0  0  0  0  0  0
  -24.3665  -22.4288   19.5650 C   0  0  0  0  0  0  0  0  0  0  0  0
  -27.2494  -31.8004   23.2653 C   0  0  1  0  0  0  0  0  0  0  0  0
  -26.2765  -20.9468   18.8160 C   0  0  0  0  0  0  0  0  0  0  0  0
  -26.2844  -28.5348   21.5852 C   0  0  1  0  0  0  0  0  0  0  0  0
  -28.1615  -12.4236   19.0085 C   0  0  2  0  0  0  0  0  0  0  0  0
  -21.2553  -24.0283   15.9105 C   0  0  0  0  0  0  0  0  0  0  0  0
  -32.1597  -22.8411   22.3698 C   0  0  0  0  0  0  0  0  0  0  0  0
  -28.7966  -27.5283   18.5176 C   0  0  0  0  0  0  0  0  0  0  0  0
  -30.7034  -25.9138   18.6788 C   0  0  0  0  0  0  0  0  0  0  0  0
  -30.7499  -28.0318   19.9959 C   0  0  0  0  0  0  0  0  0  0  0  0
  -29.7012  -24.3487   24.8516 C   0  0  0  0  0  0  0  0  0  0  0  0
  -22.8318  -23.4267   17.8734 C   0  0  1  0  0  0  0  0  0  1  0  0
  -29.1752  -26.1778   20.6853 C   0  0  1  0  0  0  0  0  0  0  0  0
  -31.2249  -23.9057   22.9226 C   0  0  2  0  0  0  0  0  0  0  0  0
  -29.8300  -26.9052   19.4771 C   0  0  0  0  0  0  0  0  0  0  0  0
  -26.2097  -11.2705   19.9792 N   0  0  0  0  0  0  0  0  0  0  0  0
  -28.4215  -19.8397   19.3481 N   0  0  0  0  0  0  0  0  0  0  0  0
  -26.9308  -11.5458   18.8790 N   0  0  0  0  0  0  0  0  0  0  0  0
  -27.2149  -27.6880   20.8196 N   0  0  0  0  0  0  0  0  0  0  0  0
  -29.2170  -14.3062   20.1969 N   0  0  0  0  0  0  0  0  0  0  0  0
  -27.0430  -11.1502   16.5463 N   0  0  0  0  0  0  0  0  0  0  0  0
  -23.3828  -10.1575   16.6517 N   0  0  0  0  0  0  0  0  0  0  0  0
  -28.0631  -16.3098   19.7316 N   0  0  0  0  0  0  0  0  0  0  0  0
  -26.6859  -30.5141   22.9157 N   0  0  0  0  0  0  0  0  0  0  0  0
  -30.1307  -25.6013   21.6250 N   0  0  0  0  0  0  0  0  0  0  0  0
  -23.7644  -22.2893   18.1877 N   0  3  0  0  0  0  0  0  0  0  0  0
  -30.6250  -23.3937   24.1871 N   0  3  0  0  0  0  0  0  0  0  0  0
  -24.6598   -8.2932   17.0420 O   0  0  0  0  0  0  0  0  0  0  0  0
  -27.7321  -30.2475   20.8525 O   0  0  0  0  0  0  0  0  0  0  0  0
  -21.5430  -21.7820   16.6536 O   0  0  0  0  0  0  0  0  0  0  0  0
  -28.5387  -27.2745   22.6872 O   0  0  0  0  0  0  0  0  0  0  0  0
  -29.3671  -23.4182   21.4569 O   0  0  0  0  0  0  0  0  0  0  0  0
  -30.3503  -16.3195   20.1194 O   0  0  0  0  0  0  0  0  0  0  0  0
  -28.8670  -18.5465   19.5938 O   0  0  0  0  0  0  0  0  0  0  0  0
  -21.3284   -8.5012   22.9885 O   0  0  0  0  0  0  0  0  0  0  0  0
  -23.4514  -24.6113   17.3628 O   0  0  0  0  0  0  0  0  0  1  0  0
  -21.6228   -3.1749   24.3843 F   0  0  0  0  0  0  0  0  0  0  0  0
  -21.6209   -7.7414   25.6304 F   0  0  0  0  0  0  0  0  0  0  0  0
  1  2  1  0  0  0  0
  1  5  2  0  0  0  0
  2  6  2  0  0  0  0
  3  8  2  0  0  0  0
  3 16  1  0  0  0  0
  4  9  1  0  0  0  0
  4 16  2  0  0  0  0
  5 18  1  0  0  0  0
  6 20  1  0  0  0  0
  7 10  2  0  0  0  0
  7 19  1  0  0  0  0
  8 22  1  0  0  0  0
  9 22  2  0  0  0  0
 10 23  1  0  0  0  0
 11 12  2  0  0  0  0
 11 24  1  0  0  0  0
 12 25  1  0  0  0  0
 13 21  1  0  0  0  0
 13 23  2  0  0  0  0
 14 25  2  0  0  0  0
 14 26  1  0  0  0  0
 15 28  1  0  0  0  0
 15 30  2  0  0  0  0
 16 27  1  0  0  0  0
 17 27  1  0  0  0  0
 17 29  2  0  0  0  0
 17 31  1  0  0  0  0
 18 20  2  0  0  0  0
 18 37  1  0  0  0  0
 19 21  2  0  0  0  0
 19 38  1  0  0  0  0
 20 50  1  0  0  0  0
 21 39  1  0  0  0  0
 22 83  1  0  0  0  0
 23 84  1  0  0  0  0
 24 26  2  0  0  0  0
 24 83  1  0  0  0  0
 25 85  1  0  0  0  0
 26 86  1  0  0  0  0
 27 64  2  0  0  0  0
 28 51  1  0  0  0  0
 28 65  2  0  0  0  0
 29 66  1  0  0  0  0
 29 69  1  0  0  0  0
 30 71  1  0  0  0  0
 30 82  1  0  0  0  0
 31 70  1  0  0  0  0
 31 76  2  0  0  0  0
 32 52  1  0  0  0  0
 32 72  1  0  0  0  0
 32 77  2  0  0  0  0
 33 54  1  0  0  0  0
 33 60  1  0  0  0  0
 33 78  2  0  0  0  0
 34 61  1  0  0  0  0
 34 67  1  0  0  0  0
 34 79  2  0  0  0  0
 35 62  1  0  0  0  0
 35 73  1  0  0  0  0
 35 80  2  0  0  0  0
 36 68  1  0  0  0  0
 36 71  1  0  0  0  0
 36 81  2  0  0  0  0
 37 40  1  0  0  0  0
 38 52  1  0  0  0  0
 39 67  1  0  0  0  0
 40 42  1  0  0  0  0
 41 43  1  0  0  0  0
 41 46  1  0  0  0  0
 42 50  1  0  0  0  0
 43 53  1  0  0  0  0
 44 48  1  0  0  0  0
 44 51  1  0  0  0  0
 45 49  1  0  0  0  0
 45 51  1  0  0  0  0
 46 68  1  0  0  0  0
 47 53  1  0  0  0  0
 47 68  1  0  0  0  0
 48 74  1  0  0  0  0
 49 74  1  0  0  0  0
 50 72  1  0  0  0  0
 52 67  1  0  0  0  0
 53 66  1  0  0  0  0
 55 62  1  0  0  0  0
 56 63  1  0  0  0  0
 57 63  1  0  0  0  0
 58 63  1  0  0  0  0
 59 75  1  0  0  0  0
 60 74  1  0  0  0  0
 60 84  1  0  0  0  0
 61 63  1  0  0  0  0
 61 73  1  0  0  0  0
 62 75  1  0  0  0  0
 64 66  1  0  0  0  0
 65 82  1  0  0  0  0
M  CHG  2  74   1  75   1
M  ISO  4  36 100  60 101  71 100  84 101
M  END
> <Batch ID>
0156

> <Smiles>
CNC(C)C(=O)NC(C(=O)N1Cc2cc([101O:1][101CH:1](C(C)=O)N3CCC(c4cc([100NH:0][100C:0](=O)N5CCCC(n6nc(-c7ccc(Oc8ccc(F)cc8F)cc7)c(C(N)=O)c6N)C5)on4)CC3)ccc2CC1C(=O)NC1CCCc2ccccc21)C(C)(C)C

> <Shape>
0.297

> <Color>
0.076

> <Negative vol penalty>
0.000

$$$$

  -OEChem-04052303393D

 83 92  0     1  0  0  0  0  0999 V2000
  -29.0687  -36.5281   23.5296 C   0  0  0  0  0  0  0  0  0  0  0  0
  -29.2636  -35.1676   23.3137 C   0  0  0  0  0  0  0  0  0  0  0  0
  -24.5205   -7.6876   19.8829 C   0  0  0  0  0  0  0  0  0  0  0  0
  -22.8794   -9.4359   19.5871 C   0  0  0  0  0  0  0  0  0  0  0  0
  -27.8041  -37.0040   23.8733 C   0  0  0  0  0  0  0  0  0  0  0  0
  -28.1941  -34.2822   23.4425 C   0  0  0  0  0  0  0  0  0  0  0  0
  -27.2006  -29.2076   20.1611 C   0  0  0  0  0  0  0  0  0  0  0  0
  -23.5708   -6.9078   20.5430 C   0  0  0  0  0  0  0  0  0  0  0  0
  -21.9297   -8.6560   20.2471 C   0  0  0  0  0  0  0  0  0  0  0  0
  -27.4512  -27.8604   20.4180 C   0  0  0  0  0  0  0  0  0  0  0  0
  -22.1859   -6.7460   23.6220 C   0  0  0  0  0  0  0  0  0  0  0  0
  -22.5777   -6.1064   24.7980 C   0  0  0  0  0  0  0  0  0  0  0  0
  -25.1801  -27.5904   21.1851 C   0  0  0  0  0  0  0  0  0  0  0  0
  -27.0927  -18.3756   20.3361 C   0  0  0  0  0  0  0  0  0  0  0  0
  -22.0704   -3.9645   23.8021 C   0  0  0  0  0  0  0  0  0  0  0  0
  -25.1165  -17.5827   19.6712 C   0  0  0  0  0  0  0  0  0  0  0  0
  -24.1748   -8.9517   19.4050 C   0  0  0  0  0  0  0  0  0  0  0  0
  -25.4271   -9.7795   17.3425 C   0  0  0  0  0  0  0  0  0  0  0  0
  -26.7164  -36.1251   23.9969 C   0  0  0  0  0  0  0  0  0  0  0  0
  -25.9389  -29.7598   20.4249 C   0  0  0  0  0  0  0  0  0  0  0  0
  -26.9140  -34.7466   23.7894 C   0  0  0  0  0  0  0  0  0  0  0  0
  -24.9153  -28.9443   20.9282 C   0  0  0  0  0  0  0  0  0  0  0  0
  -26.3820  -17.1884   20.0384 C   0  0  0  0  0  0  0  0  0  0  0  0
  -22.2754   -7.3920   20.7251 C   0  0  0  0  0  0  0  0  0  0  0  0
  -26.4417  -27.0522   20.9328 C   0  0  0  0  0  0  0  0  0  0  0  0
  -21.7363   -5.9948   22.5360 C   0  0  0  0  0  0  0  0  0  0  0  0
  -22.5200   -4.7156   24.8880 C   0  0  0  0  0  0  0  0  0  0  0  0
  -21.6786   -4.6041   22.6260 C   0  0  0  0  0  0  0  0  0  0  0  0
  -25.1555   -9.7579   18.7236 C   0  0  0  0  0  0  0  0  0  0  0  0
  -26.2108  -19.4108   20.1293 C   0  0  0  0  0  0  0  0  0  0  0  0
  -26.4344  -10.7030   17.2050 C   0  0  0  0  0  0  0  0  0  0  0  0
  -27.0924  -23.0288   19.0802 C   0  0  0  0  0  0  0  0  0  0  0  0
  -27.3339  -23.6227   20.2617 C   0  0  0  0  0  0  0  0  0  0  0  0
  -24.8228   -9.0316   16.2789 C   0  0  0  0  0  0  0  0  0  0  0  0
  -24.8476  -32.0447   22.3464 C   0  0  0  0  0  0  0  0  0  0  0  0
  -22.0590  -31.4840   20.7871 C   0  0  0  0  0  0  0  0  0  0  0  0
  -20.1333  -29.3208   18.9818 C   0  0  0  0  0  0  0  0  0  0  0  0
  -28.1227  -15.4179   20.4645 C   0  0  0  0  0  0  0  0  0  0  0  0
  -25.3784  -36.6804   24.4166 C   0  0  0  0  0  0  0  0  0  0  0  0
  -25.6768  -31.2086   20.1172 C   0  0  0  0  0  0  0  0  0  0  0  0
  -23.5376  -29.4838   21.2097 C   0  0  0  0  0  0  0  0  0  0  0  0
  -26.7349  -21.5779   18.9320 C   0  0  0  0  0  0  0  0  0  0  0  0
  -27.2982  -22.8597   21.5624 C   0  0  0  0  0  0  0  0  0  0  0  0
  -24.2160  -35.7232   24.1661 C   0  0  0  0  0  0  0  0  0  0  0  0
  -27.2940  -21.3377   21.3830 C   0  0  0  0  0  0  0  0  0  0  0  0
  -30.1235  -12.6040   19.5948 C   0  0  0  0  0  0  0  0  0  0  0  0
  -24.5651  -34.3205   24.6535 C   0  0  0  0  0  0  0  0  0  0  0  0
  -29.1017  -11.5589   19.1412 C   0  0  0  0  0  0  0  0  0  0  0  0
  -29.5994  -13.4412   20.7602 C   0  0  0  0  0  0  0  0  0  0  0  0
  -27.2684  -13.0222   20.0819 C   0  0  0  0  0  0  0  0  0  0  0  0
  -25.7734  -33.7578   23.8953 C   0  0  1  0  0  0  0  0  0  0  0  0
  -26.3289  -20.9175   20.2636 C   0  0  2  0  0  0  0  0  0  0  0  0
  -24.5054  -31.7847   20.9066 C   0  0  1  0  0  0  0  0  0  0  0  0
  -27.7259  -12.1976   18.8676 C   0  0  2  0  0  0  0  0  0  0  0  0
  -17.8865  -29.1326   17.8800 C   0  0  0  0  0  0  0  0  0  0  0  0
  -20.7549  -31.0958   23.5182 C   0  0  0  0  0  0  0  0  0  0  0  0
  -18.8214  -30.0034   22.3621 C   0  0  0  0  0  0  0  0  0  0  0  0
  -19.3770  -32.3867   21.8782 C   0  0  0  0  0  0  0  0  0  0  0  0
  -21.3468  -28.9208   16.3123 C   0  0  0  0  0  0  0  0  0  0  0  0
  -27.6513  -25.0854   20.3631 C   0  0  0  0  0  0  0  0  0  1  0  0
  -20.8846  -30.5587   20.9961 C   0  0  1  0  0  0  0  0  0  0  0  0
  -19.3496  -29.5035   17.6946 C   0  0  2  0  0  0  0  0  0  0  0  0
  -19.9859  -31.0012   22.1853 C   0  0  0  0  0  0  0  0  0  0  0  0
  -25.9280  -10.6007   19.4143 N   0  0  0  0  0  0  0  0  0  0  0  0
  -26.6950  -11.1604   18.4632 N   0  0  0  0  0  0  0  0  0  0  0  0
  -23.3325  -30.9080   20.8981 N   0  0  0  0  0  0  0  0  0  0  0  0
  -28.2950  -14.0180   20.4273 N   0  0  0  0  0  0  0  0  0  0  0  0
  -27.1139  -11.1602   16.1319 N   0  0  0  0  0  0  0  0  0  0  0  0
  -23.8016   -8.1255   16.5955 N   0  0  0  0  0  0  0  0  0  0  0  0
  -26.8495  -15.8521   20.0971 N   0  0  0  0  0  0  0  0  0  0  0  0
  -25.3767  -33.2995   22.5811 N   0  0  0  0  0  0  0  0  0  0  0  0
  -20.1888  -30.4867   19.7158 N   0  0  0  0  0  0  0  0  0  0  0  0
  -19.9185  -28.6470   16.6158 N   0  3  0  0  0  0  0  0  0  0  0  0
  -25.1893   -9.1510   15.0851 O   0  0  0  0  0  0  0  0  0  0  0  0
  -24.6453  -31.1721   23.1826 O   0  0  0  0  0  0  0  0  0  0  0  0
  -21.8539  -32.6723   20.5275 O   0  0  0  0  0  0  0  0  0  0  0  0
  -20.6419  -28.2498   19.3057 O   0  0  0  0  0  0  0  0  0  0  0  0
  -29.0452  -16.1773   20.7714 O   0  0  0  0  0  0  0  0  0  0  0  0
  -25.0039  -18.9358   19.7239 O   0  0  0  0  0  0  0  0  0  0  0  0
  -21.3484   -6.6313   21.3689 O   0  0  0  0  0  0  0  0  0  0  0  0
  -26.6839  -25.7371   21.1851 O   0  0  0  0  0  0  0  0  0  1  0  0
  -22.8977   -4.1015   26.0169 F   0  0  0  0  0  0  0  0  0  0  0  0
  -21.2486   -3.8770   21.5857 F   0  0  0  0  0  0  0  0  0  0  0  0
  1  2  1  0  0  0  0
  1  5  2  0  0  0  0
  2  6  2  0  0  0  0
  3  8  2  0  0  0  0
  3 17  1  0  0  0  0
  4  9  1  0  0  0  0
  4 17  2  0  0  0  0
  5 19  1  0  0  0  0
  6 21  1  0  0  0  0
  7 10  2  0  0  0  0
  7 20  1  0  0  0  0
  8 24  1  0  0  0  0
  9 24  2  0  0  0  0
 10 25  1  0  0  0  0
 11 12  2  0  0  0  0
 11 26  1  0  0  0  0
 12 27  1  0  0  0  0
 13 22  1  0  0  0  0
 13 25  2  0  0  0  0
 14 23  1  0  0  0  0
 14 30  2  0  0  0  0
 15 27  2  0  0  0  0
 15 28  1  0  0  0  0
 16 23  2  0  0  0  0
 16 79  1  0  0  0  0
 17 29  1  0  0  0  0
 18 29  1  0  0  0  0
 18 31  2  0  0  0  0
 18 34  1  0  0  0  0
 19 21  2  0  0  0  0
 19 39  1  0  0  0  0
 20 22  2  0  0  0  0
 20 40  1  0  0  0  0
 21 51  1  0  0  0  0
 22 41  1  0  0  0  0
 23 70  1  0  0  0  0
 24 80  1  0  0  0  0
 25 81  1  0  0  0  0
 26 28  2  0  0  0  0
 26 80  1  0  0  0  0
 27 82  1  0  0  0  0
 28 83  1  0  0  0  0
 29 64  2  0  0  0  0
 30 52  1  0  0  0  0
 30 79  1  0  0  0  0
 31 65  1  0  0  0  0
 31 68  1  0  0  0  0
 32 33  2  0  0  0  0
 32 42  1  0  0  0  0
 33 43  1  0  0  0  0
 33 60  1  0  0  0  0
 34 69  1  0  0  0  0
 34 74  2  0  0  0  0
 35 53  1  0  0  0  0
 35 71  1  0  0  0  0
 35 75  2  0  0  0  0
 36 61  1  0  0  0  0
 36 66  1  0  0  0  0
 36 76  2  0  0  0  0
 37 62  1  0  0  0  0
 37 72  1  0  0  0  0
 37 77  2  0  0  0  0
 38 67  1  0  0  0  0
 38 70  1  0  0  0  0
 38 78  2  0  0  0  0
 39 44  1  0  0  0  0
 40 53  1  0  0  0  0
 41 66  1  0  0  0  0
 42 52  1  0  0  0  0
 43 45  1  0  0  0  0
 44 47  1  0  0  0  0
 45 52  1  0  0  0  0
 46 48  1  0  0  0  0
 46 49  1  0  0  0  0
 47 51  1  0  0  0  0
 48 54  1  0  0  0  0
 49 67  1  0  0  0  0
 50 54  1  0  0  0  0
 50 67  1  0  0  0  0
 51 71  1  0  0  0  0
 53 66  1  0  0  0  0
 54 65  1  0  0  0  0
 55 62  1  0  0  0  0
 56 63  1  0  0  0  0
 57 63  1  0  0  0  0
 58 63  1  0  0  0  0
 59 73  1  0  0  0  0
 60 81  1  0  0  0  0
 61 63  1  0  0  0  0
 61 72  1  0  0  0  0
 62 73  1  0  0  0  0
 64 65  1  0  0  0  0
M  CHG  1  73   1
M  ISO  4  38 100  60 101  70 100  81 101
M  END
> <Batch ID>
0156

> <Smiles>
CNC(C)C(=O)NC(C(=O)N1Cc2cc([101O:1][101CH2:1]C3=CCC(c4cc([100NH:0][100C:0](=O)N5CCCC(n6nc(-c7ccc(Oc8ccc(F)cc8F)cc7)c(C(N)=O)c6N)C5)co4)CC3)ccc2CC1C(=O)NC1CCCc2ccccc21)C(C)(C)C

> <Shape>
0.252

> <Color>
0.086

> <Negative vol penalty>
0.000

$$$$

  -OEChem-04052303393D

 79 87  0     1  0  0  0  0  0999 V2000
  -24.2092  -23.5816   18.0698 C   0  0  0  0  0  0  0  0  0  0  0  0
  -25.2716  -22.7490   18.4066 C   0  0  0  0  0  0  0  0  0  0  0  0
  -23.0786  -28.0370   19.1304 C   0  0  0  0  0  0  0  0  0  0  0  0
  -23.4467  -27.1454   21.3456 C   0  0  0  0  0  0  0  0  0  0  0  0
  -22.9389  -23.3330   18.5879 C   0  0  0  0  0  0  0  0  0  0  0  0
  -25.0645  -21.6680   19.2627 C   0  0  0  0  0  0  0  0  0  0  0  0
  -27.3073  -17.4340   17.6230 C   0  0  0  0  0  0  0  0  0  0  0  0
  -21.7119  -27.7886   19.2576 C   0  0  0  0  0  0  0  0  0  0  0  0
  -22.0801  -26.8971   21.4728 C   0  0  0  0  0  0  0  0  0  0  0  0
  -28.6821  -17.3221   17.8260 C   0  0  0  0  0  0  0  0  0  0  0  0
  -19.2828  -28.6636   22.1625 C   0  0  0  0  0  0  0  0  0  0  0  0
  -18.6691  -29.0240   23.3620 C   0  0  0  0  0  0  0  0  0  0  0  0
  -28.2782  -15.9227   19.7490 C   0  0  0  0  0  0  0  0  0  0  0  0
  -31.9046  -19.9639   18.9782 C   0  0  0  0  0  0  0  0  0  0  0  0
  -18.0271  -26.7233   23.7250 C   0  0  0  0  0  0  0  0  0  0  0  0
  -30.9023  -18.8317   20.7434 C   0  0  0  0  0  0  0  0  0  0  0  0
  -23.9460  -27.7153   20.1744 C   0  0  0  0  0  0  0  0  0  0  0  0
  -26.0460  -29.1457   20.4020 C   0  0  0  0  0  0  0  0  0  0  0  0
  -22.7141  -22.2427   19.4430 C   0  0  0  0  0  0  0  0  0  0  0  0
  -26.4059  -16.7990   18.4894 C   0  0  0  0  0  0  0  0  0  0  0  0
  -23.7903  -21.4054   19.7938 C   0  0  0  0  0  0  0  0  0  0  0  0
  -26.8925  -16.0260   19.5533 C   0  0  0  0  0  0  0  0  0  0  0  0
  -31.3428  -18.7392   19.4415 C   0  0  0  0  0  0  0  0  0  0  0  0
  -21.2126  -27.2188   20.4288 C   0  0  0  0  0  0  0  0  0  0  0  0
  -29.1677  -16.5687   18.8908 C   0  0  0  0  0  0  0  0  0  0  0  0
  -19.2687  -27.3329   21.7441 C   0  0  0  0  0  0  0  0  0  0  0  0
  -18.0413  -28.0539   24.1433 C   0  0  0  0  0  0  0  0  0  0  0  0
  -18.6409  -26.3628   22.5254 C   0  0  0  0  0  0  0  0  0  0  0  0
  -25.3579  -27.9711   20.0434 C   0  0  0  0  0  0  0  0  0  0  0  0
  -31.8718  -20.9460   19.9438 C   0  0  0  0  0  0  0  0  0  0  0  0
  -27.3563  -28.8876   20.0813 C   0  0  0  0  0  0  0  0  0  0  0  0
  -25.5454  -30.3614   20.9740 C   0  0  0  0  0  0  0  0  0  0  0  0
  -24.1162  -17.7858   20.4611 C   0  0  0  0  0  0  0  0  0  0  0  0
  -23.5599  -14.6060   20.7805 C   0  0  0  0  0  0  0  0  0  0  0  0
  -24.7626  -11.4191   20.5719 C   0  0  0  0  0  0  0  0  0  0  0  0
  -30.3811  -23.8350   19.6608 C   0  0  0  0  0  0  0  0  0  0  0  0
  -21.3334  -22.0420   20.0158 C   0  0  0  0  0  0  0  0  0  0  0  0
  -24.9264  -16.9076   18.2410 C   0  0  0  0  0  0  0  0  0  0  0  0
  -25.9670  -15.3080   20.5001 C   0  0  0  0  0  0  0  0  0  0  0  0
  -21.1195  -20.6557   20.6182 C   0  0  0  0  0  0  0  0  0  0  0  0
  -30.0360  -26.3236   17.0560 C   0  0  0  0  0  0  0  0  0  0  0  0
  -22.2982  -20.2723   21.5072 C   0  0  0  0  0  0  0  0  0  0  0  0
  -28.8516  -27.1424   17.5726 C   0  0  0  0  0  0  0  0  0  0  0  0
  -29.8548  -24.8387   17.3569 C   0  0  0  0  0  0  0  0  0  0  0  0
  -28.4444  -25.3421   19.3142 C   0  0  0  0  0  0  0  0  0  0  0  0
  -23.6003  -20.2081   20.6997 C   0  0  1  0  0  0  0  0  0  0  0  0
  -24.0899  -16.6406   19.4886 C   0  0  1  0  0  0  0  0  0  0  0  0
  -28.5781  -26.8547   19.0607 C   0  0  2  0  0  0  0  0  0  0  0  0
  -24.0840   -9.0300   20.9313 C   0  0  0  0  0  0  0  0  0  0  0  0
  -23.7992  -14.9945   23.7975 C   0  0  0  0  0  0  0  0  0  0  0  0
  -24.0657  -12.5155   24.0253 C   0  0  0  0  0  0  0  0  0  0  0  0
  -21.9567  -13.4603   23.0860 C   0  0  0  0  0  0  0  0  0  0  0  0
  -32.2134  -17.2667   17.6196 C   0  0  0  0  0  0  0  0  0  0  0  0
  -25.2403  -10.7348   17.7324 C   0  0  0  0  0  0  0  0  0  0  0  0
  -32.3533  -22.3416   19.8543 C   0  0  0  0  0  0  0  0  0  0  0  0
  -24.0678  -13.5185   21.6961 C   0  0  1  0  0  0  0  0  0  0  0  0
  -24.1933  -10.1677   19.9281 C   0  0  2  0  0  0  0  0  0  0  0  0
  -23.4900  -13.6372   23.1347 C   0  0  0  0  0  0  0  0  0  0  0  0
  -26.1645  -27.0363   19.5337 N   0  0  0  0  0  0  0  0  0  0  0  0
  -27.3728  -27.6234   19.5696 N   0  0  0  0  0  0  0  0  0  0  0  0
  -24.5288  -15.4499   20.2192 N   0  0  0  0  0  0  0  0  0  0  0  0
  -29.6168  -24.6318   18.7924 N   0  0  0  0  0  0  0  0  0  0  0  0
  -28.4845  -29.6210   20.1897 N   0  0  0  0  0  0  0  0  0  0  0  0
  -24.1729  -30.4588   21.2405 N   0  0  0  0  0  0  0  0  0  0  0  0
  -23.6614  -18.9803   19.9360 N   0  0  0  0  0  0  0  0  0  0  0  0
  -23.7672  -12.2539   21.0339 N   0  0  0  0  0  0  0  0  0  0  0  0
  -31.4701  -23.1909   19.0864 N   0  0  0  0  0  0  0  0  0  0  0  0
  -31.2480  -17.5733   18.6644 N   0  0  1  0  0  0  0  0  0  1  0  0
  -25.0643   -9.7213   18.8043 N   0  3  0  0  0  0  0  0  0  0  0  0
  -26.2905  -31.3386   21.2257 O   0  0  0  0  0  0  0  0  0  0  0  0
  -24.5180  -17.5991   21.6036 O   0  0  0  0  0  0  0  0  0  0  0  0
  -22.3488  -14.6988   20.5654 O   0  0  0  0  0  0  0  0  0  0  0  0
  -25.9698  -11.6328   20.6598 O   0  0  0  0  0  0  0  0  0  0  0  0
  -30.1159  -23.7108   20.8614 O   0  0  0  0  0  0  0  0  0  0  0  0
  -19.8791  -26.9765   20.5533 O   0  0  0  0  0  0  0  0  0  0  0  0
  -30.5091  -16.4584   19.0915 O   0  0  0  0  0  0  0  0  0  1  0  0
  -17.4533  -28.4000   25.2960 F   0  0  0  0  0  0  0  0  0  0  0  0
  -18.6250  -25.0828   22.1293 F   0  0  0  0  0  0  0  0  0  0  0  0
  -31.1663  -20.3902   21.4018 S   0  0  0  0  0  0  0  0  0  0  0  0
  1  2  1  0  0  0  0
  1  5  2  0  0  0  0
  2  6  2  0  0  0  0
  3  8  2  0  0  0  0
  3 17  1  0  0  0  0
  4  9  1  0  0  0  0
  4 17  2  0  0  0  0
  5 19  1  0  0  0  0
  6 21  1  0  0  0  0
  7 10  2  0  0  0  0
  7 20  1  0  0  0  0
  8 24  1  0  0  0  0
  9 24  2  0  0  0  0
 10 25  1  0  0  0  0
 11 12  2  0  0  0  0
 11 26  1  0  0  0  0
 12 27  1  0  0  0  0
 13 22  1  0  0  0  0
 13 25  2  0  0  0  0
 14 23  1  0  0  0  0
 14 30  2  0  0  0  0
 15 27  2  0  0  0  0
 15 28  1  0  0  0  0
 16 23  2  0  0  0  0
 16 79  1  0  0  0  0
 17 29  1  0  0  0  0
 18 29  1  0  0  0  0
 18 31  2  0  0  0  0
 18 32  1  0  0  0  0
 19 21  2  0  0  0  0
 19 37  1  0  0  0  0
 20 22  2  0  0  0  0
 20 38  1  0  0  0  0
 21 46  1  0  0  0  0
 22 39  1  0  0  0  0
 23 68  1  0  0  0  0
 24 75  1  0  0  0  0
 25 76  1  0  0  0  0
 26 28  2  0  0  0  0
 26 75  1  0  0  0  0
 27 77  1  0  0  0  0
 28 78  1  0  0  0  0
 29 59  2  0  0  0  0
 30 55  1  0  0  0  0
 30 79  1  0  0  0  0
 31 60  1  0  0  0  0
 31 63  1  0  0  0  0
 32 64  1  0  0  0  0
 32 70  2  0  0  0  0
 33 47  1  0  0  0  0
 33 65  1  0  0  0  0
 33 71  2  0  0  0  0
 34 56  1  0  0  0  0
 34 61  1  0  0  0  0
 34 72  2  0  0  0  0
 35 57  1  0  0  0  0
 35 66  1  0  0  0  0
 35 73  2  0  0  0  0
 36 62  1  0  0  0  0
 36 67  1  0  0  0  0
 36 74  2  0  0  0  0
 37 40  1  0  0  0  0
 38 47  1  0  0  0  0
 39 61  1  0  0  0  0
 40 42  1  0  0  0  0
 41 43  1  0  0  0  0
 41 44  1  0  0  0  0
 42 46  1  0  0  0  0
 43 48  1  0  0  0  0
 44 62  1  0  0  0  0
 45 48  1  0  0  0  0
 45 62  1  0  0  0  0
 46 65  1  0  0  0  0
 47 61  1  0  0  0  0
 48 60  1  0  0  0  0
 49 57  1  0  0  0  0
 50 58  1  0  0  0  0
 51 58  1  0  0  0  0
 52 58  1  0  0  0  0
 53 68  1  0  0  0  0
 54 69  1  0  0  0  0
 55 67  1  0  0  0  0
 56 58  1  0  0  0  0
 56 66  1  0  0  0  0
 57 69  1  0  0  0  0
 59 60  1  0  0  0  0
 68 76  1  0  0  0  0
M  CHG  1  69   1
M  ISO  4  36 100  67 100  68 101  76 101
M  END
> <Batch ID>
0156

> <Smiles>
CNC(C)C(=O)NC(C(=O)N1Cc2cc([101O:1][101N:1](C)c3csc(C[100NH:0][100C:0](=O)N4CCCC(n5nc(-c6ccc(Oc7ccc(F)cc7F)cc6)c(C(N)=O)c5N)C4)c3)ccc2CC1C(=O)NC1CCCc2ccccc21)C(C)(C)C

> <Shape>
0.217

> <Color>
0.067

> <Negative vol penalty>
0.000

$$$$

  -OEChem-04052303393D

 83 92  0     1  0  0  0  0  0999 V2000
  -23.6696  -35.6545   15.4344 C   0  0  0  0  0  0  0  0  0  0  0  0
  -24.2587  -34.3984   15.5364 C   0  0  0  0  0  0  0  0  0  0  0  0
  -24.5722   -8.9190   20.1799 C   0  0  0  0  0  0  0  0  0  0  0  0
  -24.2161   -9.7710   22.4125 C   0  0  0  0  0  0  0  0  0  0  0  0
  -23.7150  -36.5343   16.5151 C   0  0  0  0  0  0  0  0  0  0  0  0
  -24.8946  -34.0217   16.7188 C   0  0  0  0  0  0  0  0  0  0  0  0
  -25.0987  -28.4100   19.1628 C   0  0  0  0  0  0  0  0  0  0  0  0
  -24.1909   -7.6463   20.6048 C   0  0  0  0  0  0  0  0  0  0  0  0
  -23.8348   -8.4984   22.8373 C   0  0  0  0  0  0  0  0  0  0  0  0
  -26.0681  -27.4084   19.1326 C   0  0  0  0  0  0  0  0  0  0  0  0
  -21.0890   -6.5358   22.6661 C   0  0  0  0  0  0  0  0  0  0  0  0
  -19.9521   -6.4355   23.4681 C   0  0  0  0  0  0  0  0  0  0  0  0
  -26.9111  -28.1684   21.2611 C   0  0  0  0  0  0  0  0  0  0  0  0
  -29.4346  -21.0455   20.6403 C   0  0  0  0  0  0  0  0  0  0  0  0
  -21.2812   -5.4506   25.2289 C   0  0  0  0  0  0  0  0  0  0  0  0
  -28.1875  -20.3137   18.9416 C   0  0  0  0  0  0  0  0  0  0  0  0
  -24.5849   -9.9814   21.0838 C   0  0  0  0  0  0  0  0  0  0  0  0
  -24.1454  -12.3052   20.1277 C   0  0  0  0  0  0  0  0  0  0  0  0
  -24.3433  -36.1645   17.7147 C   0  0  0  0  0  0  0  0  0  0  0  0
  -25.0350  -29.3066   20.2391 C   0  0  0  0  0  0  0  0  0  0  0  0
  -24.9496  -34.8978   17.8161 C   0  0  0  0  0  0  0  0  0  0  0  0
  -25.9383  -29.1789   21.3039 C   0  0  0  0  0  0  0  0  0  0  0  0
  -28.5192  -21.4513   19.6401 C   0  0  0  0  0  0  0  0  0  0  0  0
  -23.8222   -7.4360   21.9335 C   0  0  0  0  0  0  0  0  0  0  0  0
  -26.9763  -27.2893   20.1804 C   0  0  0  0  0  0  0  0  0  0  0  0
  -22.3219   -6.0934   23.1455 C   0  0  0  0  0  0  0  0  0  0  0  0
  -20.0483   -5.8930   24.7495 C   0  0  0  0  0  0  0  0  0  0  0  0
  -22.4180   -5.5509   24.4269 C   0  0  0  0  0  0  0  0  0  0  0  0
  -24.9792  -11.2961   20.6456 C   0  0  0  0  0  0  0  0  0  0  0  0
  -29.5969  -19.6888   20.4819 C   0  0  0  0  0  0  0  0  0  0  0  0
  -24.9954  -13.3516   19.8648 C   0  0  0  0  0  0  0  0  0  0  0  0
  -22.7292  -12.2975   19.9043 C   0  0  0  0  0  0  0  0  0  0  0  0
  -25.3482  -32.4537   20.5584 C   0  0  0  0  0  0  0  0  0  0  0  0
  -24.4548  -31.8402   23.6158 C   0  0  0  0  0  0  0  0  0  0  0  0
  -28.3389  -23.9254   20.0649 C   0  0  0  0  0  0  0  0  0  0  0  0
  -24.2459  -29.5959   26.1783 C   0  0  0  0  0  0  0  0  0  0  0  0
  -29.0783  -16.6505   21.4587 C   0  0  0  0  0  0  0  0  0  0  0  0
  -24.4082  -37.1674   18.8393 C   0  0  0  0  0  0  0  0  0  0  0  0
  -23.9665  -30.3648   20.2694 C   0  0  0  0  0  0  0  0  0  0  0  0
  -25.8994  -30.1035   22.4921 C   0  0  0  0  0  0  0  0  0  0  0  0
  -24.7752  -36.5494   20.1860 C   0  0  0  0  0  0  0  0  0  0  0  0
  -30.0512  -13.5561   19.8187 C   0  0  0  0  0  0  0  0  0  0  0  0
  -25.9631  -35.6047   20.0340 C   0  0  0  0  0  0  0  0  0  0  0  0
  -28.7360  -12.7743   19.8433 C   0  0  0  0  0  0  0  0  0  0  0  0
  -31.9255  -18.4114   20.8210 C   0  0  0  0  0  0  0  0  0  0  0  0
  -30.2168  -14.3803   21.0901 C   0  0  0  0  0  0  0  0  0  0  0  0
  -31.6805  -16.9663   21.2517 C   0  0  0  0  0  0  0  0  0  0  0  0
  -27.7888  -14.5469   21.4004 C   0  0  0  0  0  0  0  0  0  0  0  0
  -25.6272  -34.4433   19.0906 C   0  0  1  0  0  0  0  0  0  0  0  0
  -30.5331  -18.7715   21.3753 C   0  0  2  0  0  0  0  0  0  0  0  0
  -24.3195  -31.5448   21.1696 C   0  0  1  0  0  0  0  0  0  0  0  0
  -27.5393  -13.6982   20.1390 C   0  0  2  0  0  0  0  0  0  0  0  0
  -23.5038  -29.3972   28.5672 C   0  0  0  0  0  0  0  0  0  0  0  0
  -26.9564  -33.3379   24.5150 C   0  0  0  0  0  0  0  0  0  0  0  0
  -26.6746  -32.3077   26.7794 C   0  0  0  0  0  0  0  0  0  0  0  0
  -24.9098  -33.8179   25.8697 C   0  0  0  0  0  0  0  0  0  0  0  0
  -22.2444  -27.5223   25.5054 C   0  0  0  0  0  0  0  0  0  0  0  0
  -27.5921  -25.1048   19.4701 C   0  0  0  0  0  0  0  0  0  1  0  0
  -25.1820  -31.5012   24.8945 C   0  0  1  0  0  0  0  0  0  0  0  0
  -23.1030  -29.2337   27.1094 C   0  0  2  0  0  0  0  0  0  0  0  0
  -25.9329  -32.7248   25.4915 C   0  0  0  0  0  0  0  0  0  0  0  0
  -26.2606  -11.6679   20.7086 N   0  0  0  0  0  0  0  0  0  0  0  0
  -26.2383  -12.9223   20.2268 N   0  0  0  0  0  0  0  0  0  0  0  0
  -24.8402  -31.1259   22.4725 N   0  0  0  0  0  0  0  0  0  0  0  0
  -29.0645  -15.2644   21.2850 N   0  0  0  0  0  0  0  0  0  0  0  0
  -30.2813  -17.3173   21.4125 N   0  0  0  0  0  0  0  0  0  0  0  0
  -24.7934  -14.5879   19.3616 N   0  0  0  0  0  0  0  0  0  0  0  0
  -22.0078  -11.1408   20.2299 N   0  0  0  0  0  0  0  0  0  0  0  0
  -28.0271  -22.7532   19.3844 N   0  0  0  0  0  0  0  0  0  0  0  0
  -24.8158  -33.4574   19.7718 N   0  0  0  0  0  0  0  0  0  0  0  0
  -24.1871  -30.9169   25.7873 N   0  0  0  0  0  0  0  0  0  0  0  0
  -22.6864  -27.8194   26.8922 N   0  3  0  0  0  0  0  0  0  0  0  0
  -22.1239  -13.2811   19.4147 O   0  0  0  0  0  0  0  0  0  0  0  0
  -26.5368  -32.2596   20.7848 O   0  0  0  0  0  0  0  0  0  0  0  0
  -23.5722  -32.7018   23.6322 O   0  0  0  0  0  0  0  0  0  0  0  0
  -29.0993  -24.0608   21.0178 O   0  0  0  0  0  0  0  0  0  0  0  0
  -25.1070  -28.7888   25.8353 O   0  0  0  0  0  0  0  0  0  0  0  0
  -28.0259  -17.2856   21.6150 O   0  0  0  0  0  0  0  0  0  0  0  0
  -28.8401  -19.2350   19.4486 O   0  0  0  0  0  0  0  0  0  0  0  0
  -23.4498   -6.1943   22.3484 O   0  0  0  0  0  0  0  0  0  0  0  0
  -27.9239  -26.3130   20.1531 O   0  0  0  0  0  0  0  0  0  1  0  0
  -18.9568   -5.7982   25.5201 F   0  0  0  0  0  0  0  0  0  0  0  0
  -23.6000   -5.1253   24.8934 F   0  0  0  0  0  0  0  0  0  0  0  0
  1  2  1  0  0  0  0
  1  5  2  0  0  0  0
  2  6  2  0  0  0  0
  3  8  2  0  0  0  0
  3 17  1  0  0  0  0
  4  9  1  0  0  0  0
  4 17  2  0  0  0  0
  5 19  1  0  0  0  0
  6 21  1  0  0  0  0
  7 10  2  0  0  0  0
  7 20  1  0  0  0  0
  8 24  1  0  0  0  0
  9 24  2  0  0  0  0
 10 25  1  0  0  0  0
 11 12  2  0  0  0  0
 11 26  1  0  0  0  0
 12 27  1  0  0  0  0
 13 22  1  0  0  0  0
 13 25  2  0  0  0  0
 14 23  1  0  0  0  0
 14 30  2  0  0  0  0
 15 27  2  0  0  0  0
 15 28  1  0  0  0  0
 16 23  2  0  0  0  0
 16 79  1  0  0  0  0
 17 29  1  0  0  0  0
 18 29  1  0  0  0  0
 18 31  2  0  0  0  0
 18 32  1  0  0  0  0
 19 21  2  0  0  0  0
 19 38  1  0  0  0  0
 20 22  2  0  0  0  0
 20 39  1  0  0  0  0
 21 49  1  0  0  0  0
 22 40  1  0  0  0  0
 23 69  1  0  0  0  0
 24 80  1  0  0  0  0
 25 81  1  0  0  0  0
 26 28  2  0  0  0  0
 26 80  1  0  0  0  0
 27 82  1  0  0  0  0
 28 83  1  0  0  0  0
 29 62  2  0  0  0  0
 30 50  1  0  0  0  0
 30 79  1  0  0  0  0
 31 63  1  0  0  0  0
 31 67  1  0  0  0  0
 32 68  1  0  0  0  0
 32 73  2  0  0  0  0
 33 51  1  0  0  0  0
 33 70  1  0  0  0  0
 33 74  2  0  0  0  0
 34 59  1  0  0  0  0
 34 64  1  0  0  0  0
 34 75  2  0  0  0  0
 35 58  1  0  0  0  0
 35 69  1  0  0  0  0
 35 76  2  0  0  0  0
 36 60  1  0  0  0  0
 36 71  1  0  0  0  0
 36 77  2  0  0  0  0
 37 65  1  0  0  0  0
 37 66  1  0  0  0  0
 37 78  2  0  0  0  0
 38 41  1  0  0  0  0
 39 51  1  0  0  0  0
 40 64  1  0  0  0  0
 41 43  1  0  0  0  0
 42 44  1  0  0  0  0
 42 46  1  0  0  0  0
 43 49  1  0  0  0  0
 44 52  1  0  0  0  0
 45 47  1  0  0  0  0
 45 50  1  0  0  0  0
 46 65  1  0  0  0  0
 47 66  1  0  0  0  0
 48 52  1  0  0  0  0
 48 65  1  0  0  0  0
 49 70  1  0  0  0  0
 50 66  1  0  0  0  0
 51 64  1  0  0  0  0
 52 63  1  0  0  0  0
 53 60  1  0  0  0  0
 54 61  1  0  0  0  0
 55 61  1  0  0  0  0
 56 61  1  0  0  0  0
 57 72  1  0  0  0  0
 58 81  1  0  0  0  0
 59 61  1  0  0  0  0
 59 71  1  0  0  0  0
 60 72  1  0  0  0  0
 62 63  1  0  0  0  0
M  CHG  1  72   1
M  ISO  4  37 100  58 101  66 100  81 101
M  END
> <Batch ID>
0156

> <Smiles>
CNC(C)C(=O)NC(C(=O)N1Cc2cc([101O:1][101CH2:1]C(=O)Nc3coc(C4CC[100N:0]4[100C:0](=O)N4CCCC(n5nc(-c6ccc(Oc7ccc(F)cc7F)cc6)c(C(N)=O)c5N)C4)c3)ccc2CC1C(=O)NC1CCCc2ccccc21)C(C)(C)C

> <Shape>
0.313

> <Color>
0.120

> <Negative vol penalty>
0.000

$$$$

  -OEChem-04052303393D

 82 91  0     1  0  0  0  0  0999 V2000
  -29.4619  -36.5527   24.0594 C   0  0  0  0  0  0  0  0  0  0  0  0
  -29.6528  -35.6748   22.9972 C   0  0  0  0  0  0  0  0  0  0  0  0
  -24.6926   -8.7533   21.4194 C   0  0  0  0  0  0  0  0  0  0  0  0
  -23.1735  -10.6089   21.1250 C   0  0  0  0  0  0  0  0  0  0  0  0
  -28.7987  -36.1220   25.2077 C   0  0  0  0  0  0  0  0  0  0  0  0
  -29.1814  -34.3652   23.0832 C   0  0  0  0  0  0  0  0  0  0  0  0
  -26.4925  -29.1210   19.0108 C   0  0  0  0  0  0  0  0  0  0  0  0
  -23.8408   -8.2085   22.3802 C   0  0  0  0  0  0  0  0  0  0  0  0
  -22.3217  -10.0640   22.0858 C   0  0  0  0  0  0  0  0  0  0  0  0
  -26.6956  -27.7732   18.7177 C   0  0  0  0  0  0  0  0  0  0  0  0
  -20.9585   -6.4416   22.4393 C   0  0  0  0  0  0  0  0  0  0  0  0
  -20.6896   -5.0749   22.3669 C   0  0  0  0  0  0  0  0  0  0  0  0
  -25.4945  -27.1633   20.7188 C   0  0  0  0  0  0  0  0  0  0  0  0
  -28.0860  -19.0053   19.3919 C   0  0  0  0  0  0  0  0  0  0  0  0
  -21.6201   -4.7748   24.5763 C   0  0  0  0  0  0  0  0  0  0  0  0
  -25.9577  -19.8824   19.0703 C   0  0  0  0  0  0  0  0  0  0  0  0
  -24.3590   -9.9536   20.7918 C   0  0  0  0  0  0  0  0  0  0  0  0
  -25.2179  -10.2803   18.4121 C   0  0  0  0  0  0  0  0  0  0  0  0
  -28.3104  -34.8094   25.3039 C   0  0  0  0  0  0  0  0  0  0  0  0
  -25.7971  -29.5009   20.1677 C   0  0  0  0  0  0  0  0  0  0  0  0
  -28.5122  -33.9162   24.2344 C   0  0  0  0  0  0  0  0  0  0  0  0
  -25.2817  -28.5165   21.0230 C   0  0  0  0  0  0  0  0  0  0  0  0
  -27.3013  -20.1722   19.1622 C   0  0  0  0  0  0  0  0  0  0  0  0
  -22.6554   -8.8638   22.7134 C   0  0  0  0  0  0  0  0  0  0  0  0
  -26.1991  -26.7941   19.5733 C   0  0  0  0  0  0  0  0  0  0  0  0
  -21.5583   -6.9750   23.5801 C   0  0  0  0  0  0  0  0  0  0  0  0
  -21.0203   -4.2415   23.4354 C   0  0  0  0  0  0  0  0  0  0  0  0
  -21.8890   -6.1416   24.6486 C   0  0  0  0  0  0  0  0  0  0  0  0
  -25.2387  -10.5172   19.7996 C   0  0  0  0  0  0  0  0  0  0  0  0
  -26.2463  -11.0448   17.9178 C   0  0  0  0  0  0  0  0  0  0  0  0
  -27.3122  -17.8680   19.4672 C   0  0  0  0  0  0  0  0  0  0  0  0
  -27.9939  -23.7546   18.9211 C   0  0  0  0  0  0  0  0  0  0  0  0
  -27.6828  -25.0261   19.1946 C   0  0  0  0  0  0  0  0  0  1  0  0
  -24.3468   -9.4439   17.6391 C   0  0  0  0  0  0  0  0  0  0  0  0
  -26.5240  -31.1635   22.7775 C   0  0  0  0  0  0  0  0  0  0  0  0
  -23.3636  -30.8041   23.4138 C   0  0  0  0  0  0  0  0  0  0  0  0
  -20.4964  -29.0165   22.9334 C   0  0  0  0  0  0  0  0  0  0  0  0
  -28.9536  -16.0003   19.8721 C   0  0  0  0  0  0  0  0  0  0  0  0
  -27.6414  -34.3758   26.5841 C   0  0  0  0  0  0  0  0  0  0  0  0
  -25.5633  -30.9586   20.4557 C   0  0  0  0  0  0  0  0  0  0  0  0
  -24.5107  -28.8716   22.2672 C   0  0  0  0  0  0  0  0  0  0  0  0
  -29.3842  -23.2162   18.7984 C   0  0  0  0  0  0  0  0  0  0  0  0
  -27.0059  -22.6326   18.8091 C   0  0  0  0  0  0  0  0  0  0  0  0
  -26.8427  -33.0822   26.4461 C   0  0  0  0  0  0  0  0  0  0  0  0
  -30.4940  -12.8681   19.1696 C   0  0  0  0  0  0  0  0  0  0  0  0
  -27.6569  -32.0289   25.7015 C   0  0  0  0  0  0  0  0  0  0  0  0
  -29.3186  -11.8893   19.1192 C   0  0  0  0  0  0  0  0  0  0  0  0
  -29.2310  -21.7708   19.2635 C   0  0  0  0  0  0  0  0  0  0  0  0
  -30.2937  -13.9402   20.2393 C   0  0  0  0  0  0  0  0  0  0  0  0
  -27.8464  -13.6906   20.1064 C   0  0  0  0  0  0  0  0  0  0  0  0
  -27.9936  -32.4953   24.2800 C   0  0  1  0  0  0  0  0  0  0  0  0
  -25.2861  -31.2395   21.9293 C   0  0  1  0  0  0  0  0  0  0  0  0
  -27.9726  -12.6306   19.0000 C   0  0  2  0  0  0  0  0  0  0  0  0
  -18.0825  -28.9442   23.6153 C   0  0  0  0  0  0  0  0  0  0  0  0
  -24.1673  -29.6687   26.1295 C   0  0  0  0  0  0  0  0  0  0  0  0
  -21.8466  -28.7574   26.3573 C   0  0  0  0  0  0  0  0  0  0  0  0
  -22.2065  -31.2199   26.1863 C   0  0  0  0  0  0  0  0  0  0  0  0
  -19.5772  -29.3684   20.1423 C   0  0  0  0  0  0  0  0  0  0  0  0
  -22.5289  -29.7749   24.1369 C   0  0  1  0  0  0  0  0  0  0  0  0
  -19.0835  -29.4521   22.5893 C   0  0  2  0  0  0  0  0  0  0  0  0
  -22.7035  -29.8482   25.6801 C   0  0  0  0  0  0  0  0  0  0  0  0
  -26.2039  -11.3658   20.1634 N   0  0  0  0  0  0  0  0  0  0  0  0
  -26.7993  -11.6686   18.9972 N   0  0  0  0  0  0  0  0  0  0  0  0
  -27.8236  -21.4453   19.0448 N   0  0  3  0  0  0  0  0  0  0  0  0
  -24.3138  -30.3105   22.5087 N   0  0  0  0  0  0  0  0  0  0  0  0
  -28.9999  -14.6028   20.0608 N   0  0  0  0  0  0  0  0  0  0  0  0
  -26.7226  -11.2375   16.6694 N   0  0  0  0  0  0  0  0  0  0  0  0
  -23.3436   -8.7274   18.3057 N   0  0  0  0  0  0  0  0  0  0  0  0
  -27.6714  -16.5141   19.6805 N   0  0  0  0  0  0  0  0  0  0  0  0
  -26.8436  -32.3477   23.4140 N   0  0  0  0  0  0  0  0  0  0  0  0
  -21.1567  -29.9686   23.6809 N   0  0  0  0  0  0  0  0  0  0  0  0
  -18.6913  -28.9279   21.2505 N   0  3  0  0  0  0  0  0  0  0  0  0
  -24.4654   -9.3225   16.3963 O   0  0  0  0  0  0  0  0  0  0  0  0
  -27.1425  -30.1081   22.8505 O   0  0  0  0  0  0  0  0  0  0  0  0
  -23.1744  -32.0022   23.6384 O   0  0  0  0  0  0  0  0  0  0  0  0
  -20.9661  -27.9378   22.5779 O   0  0  0  0  0  0  0  0  0  0  0  0
  -29.9784  -16.6869   19.8526 O   0  0  0  0  0  0  0  0  0  0  0  0
  -21.8239   -8.3323   23.6508 O   0  0  0  0  0  0  0  0  0  0  0  0
  -26.3965  -25.4778   19.2900 O   0  0  0  0  0  0  0  0  0  1  0  0
  -20.7606   -2.9292   23.3664 F   0  0  0  0  0  0  0  0  0  0  0  0
  -22.4642   -6.6484   25.7478 F   0  0  0  0  0  0  0  0  0  0  0  0
  -25.6469  -18.2092   19.2610 S   0  0  0  0  0  0  0  0  0  0  0  0
  1  2  1  0  0  0  0
  1  5  2  0  0  0  0
  2  6  2  0  0  0  0
  3  8  2  0  0  0  0
  3 17  1  0  0  0  0
  4  9  1  0  0  0  0
  4 17  2  0  0  0  0
  5 19  1  0  0  0  0
  6 21  1  0  0  0  0
  7 10  2  0  0  0  0
  7 20  1  0  0  0  0
  8 24  1  0  0  0  0
  9 24  2  0  0  0  0
 10 25  1  0  0  0  0
 11 12  2  0  0  0  0
 11 26  1  0  0  0  0
 12 27  1  0  0  0  0
 13 22  1  0  0  0  0
 13 25  2  0  0  0  0
 14 23  1  0  0  0  0
 14 31  2  0  0  0  0
 15 27  2  0  0  0  0
 15 28  1  0  0  0  0
 16 23  2  0  0  0  0
 16 82  1  0  0  0  0
 17 29  1  0  0  0  0
 18 29  1  0  0  0  0
 18 30  2  0  0  0  0
 18 34  1  0  0  0  0
 19 21  2  0  0  0  0
 19 39  1  0  0  0  0
 20 22  2  0  0  0  0
 20 40  1  0  0  0  0
 21 51  1  0  0  0  0
 22 41  1  0  0  0  0
 23 64  1  0  0  0  0
 24 78  1  0  0  0  0
 25 79  1  0  0  0  0
 26 28  2  0  0  0  0
 26 78  1  0  0  0  0
 27 80  1  0  0  0  0
 28 81  1  0  0  0  0
 29 62  2  0  0  0  0
 30 63  1  0  0  0  0
 30 67  1  0  0  0  0
 31 69  1  0  0  0  0
 31 82  1  0  0  0  0
 32 33  2  0  0  0  0
 32 42  1  0  0  0  0
 32 43  1  0  0  0  0
 33 79  1  0  0  0  0
 34 68  1  0  0  0  0
 34 73  2  0  0  0  0
 35 52  1  0  0  0  0
 35 70  1  0  0  0  0
 35 74  2  0  0  0  0
 36 59  1  0  0  0  0
 36 65  1  0  0  0  0
 36 75  2  0  0  0  0
 37 60  1  0  0  0  0
 37 71  1  0  0  0  0
 37 76  2  0  0  0  0
 38 66  1  0  0  0  0
 38 69  1  0  0  0  0
 38 77  2  0  0  0  0
 39 44  1  0  0  0  0
 40 52  1  0  0  0  0
 41 65  1  0  0  0  0
 42 48  1  0  0  0  0
 43 64  1  0  0  0  0
 44 46  1  0  0  0  0
 45 47  1  0  0  0  0
 45 49  1  0  0  0  0
 46 51  1  0  0  0  0
 47 53  1  0  0  0  0
 48 64  1  0  0  0  0
 49 66  1  0  0  0  0
 50 53  1  0  0  0  0
 50 66  1  0  0  0  0
 51 70  1  0  0  0  0
 52 65  1  0  0  0  0
 53 63  1  0  0  0  0
 54 60  1  0  0  0  0
 55 61  1  0  0  0  0
 56 61  1  0  0  0  0
 57 61  1  0  0  0  0
 58 72  1  0  0  0  0
 59 61  1  0  0  0  0
 59 71  1  0  0  0  0
 60 72  1  0  0  0  0
 62 63  1  0  0  0  0
M  CHG  1  72   1
M  ISO  4  33 101  38 100  69 100  79 101
M  END
> <Batch ID>
0156

> <Smiles>
CNC(C)C(=O)NC(C(=O)N1Cc2cc([101O:1][101CH:1]=C3CCN(c4csc([100NH:0][100C:0](=O)N5CCCC(n6nc(-c7ccc(Oc8ccc(F)cc8F)cc7)c(C(N)=O)c6N)C5)c4)C3)ccc2CC1C(=O)NC1CCCc2ccccc21)C(C)(C)C

> <Shape>
0.309

> <Color>
0.117

> <Negative vol penalty>
0.000

$$$$

  -OEChem-04052303393D

 84 92  0     1  0  0  0  0  0999 V2000
  -20.8568  -27.3081   23.5220 C   0  0  0  0  0  0  0  0  0  0  0  0
  -22.1473  -26.8852   23.2198 C   0  0  0  0  0  0  0  0  0  0  0  0
  -23.0926   -9.8726   19.9066 C   0  0  0  0  0  0  0  0  0  0  0  0
  -23.8691   -9.8339   22.1941 C   0  0  0  0  0  0  0  0  0  0  0  0
  -20.3978  -28.5360   23.0471 C   0  0  0  0  0  0  0  0  0  0  0  0
  -22.9791  -27.6894   22.4415 C   0  0  0  0  0  0  0  0  0  0  0  0
  -27.6736  -28.0131   24.3127 C   0  0  0  0  0  0  0  0  0  0  0  0
  -22.3632   -8.7058   20.1344 C   0  0  0  0  0  0  0  0  0  0  0  0
  -23.1395   -8.6670   22.4220 C   0  0  0  0  0  0  0  0  0  0  0  0
  -28.5238  -26.9308   24.0901 C   0  0  0  0  0  0  0  0  0  0  0  0
  -19.9247   -7.8197   23.0281 C   0  0  0  0  0  0  0  0  0  0  0  0
  -19.1768   -7.7439   24.2030 C   0  0  0  0  0  0  0  0  0  0  0  0
  -29.5631  -28.1288   22.2725 C   0  0  0  0  0  0  0  0  0  0  0  0
  -29.6480  -19.3069   22.4926 C   0  0  0  0  0  0  0  0  0  0  0  0
  -31.0923  -17.7516   20.6821 C   0  0  0  0  0  0  0  0  0  0  0  0
  -20.4445   -5.8034   24.8847 C   0  0  0  0  0  0  0  0  0  0  0  0
  -23.8456  -10.4367   20.9365 C   0  0  0  0  0  0  0  0  0  0  0  0
  -24.1591  -12.9676   20.8738 C   0  0  0  0  0  0  0  0  0  0  0  0
  -21.2277  -29.3600   22.2706 C   0  0  0  0  0  0  0  0  0  0  0  0
  -27.7546  -29.1590   23.5085 C   0  0  0  0  0  0  0  0  0  0  0  0
  -22.5302  -28.9288   21.9546 C   0  0  0  0  0  0  0  0  0  0  0  0
  -28.7145  -29.2253   22.4885 C   0  0  0  0  0  0  0  0  0  0  0  0
  -29.4778  -17.9226   22.4712 C   0  0  0  0  0  0  0  0  0  0  0  0
  -30.5404  -19.9135   21.6086 C   0  0  0  0  0  0  0  0  0  0  0  0
  -30.2000  -17.1450   21.5660 C   0  0  0  0  0  0  0  0  0  0  0  0
  -22.3866   -8.1030   21.3921 C   0  0  0  0  0  0  0  0  0  0  0  0
  -29.4668  -26.9874   23.0680 C   0  0  0  0  0  0  0  0  0  0  0  0
  -20.9325   -6.8874   22.7814 C   0  0  0  0  0  0  0  0  0  0  0  0
  -19.4366   -6.7357   25.1313 C   0  0  0  0  0  0  0  0  0  0  0  0
  -31.2625  -19.1359   20.7034 C   0  0  0  0  0  0  0  0  0  0  0  0
  -21.1924   -5.8792   23.7097 C   0  0  0  0  0  0  0  0  0  0  0  0
  -24.5998  -11.6417   20.7016 C   0  0  0  0  0  0  0  0  0  0  0  0
  -25.2404  -13.7374   20.5207 C   0  0  0  0  0  0  0  0  0  0  0  0
  -22.8862  -13.4593   21.3137 C   0  0  0  0  0  0  0  0  0  0  0  0
  -25.7711  -30.6501   21.5221 C   0  0  0  0  0  0  0  0  0  0  0  0
  -30.4321  -23.5794   22.2857 C   0  0  0  0  0  0  0  0  0  0  0  0
  -28.1481  -32.8552   21.4250 C   0  0  0  0  0  0  0  0  0  0  0  0
  -31.4637  -33.5604   21.8200 C   0  0  0  0  0  0  0  0  0  0  0  0
  -30.6961  -14.8388   20.6818 C   0  0  0  0  0  0  0  0  0  0  0  0
  -20.6711  -30.6575   21.7402 C   0  0  0  0  0  0  0  0  0  0  0  0
  -26.8482  -30.3286   23.7787 C   0  0  0  0  0  0  0  0  0  0  0  0
  -28.8556  -30.4406   21.6101 C   0  0  0  0  0  0  0  0  0  0  0  0
  -21.7436  -31.6193   21.2353 C   0  0  0  0  0  0  0  0  0  0  0  0
  -29.5908  -12.4694   18.2650 C   0  0  0  0  0  0  0  0  0  0  0  0
  -22.7455  -30.8847   20.3502 C   0  0  0  0  0  0  0  0  0  0  0  0
  -28.1575  -12.1519   18.6976 C   0  0  0  0  0  0  0  0  0  0  0  0
  -30.5120  -12.6799   19.4653 C   0  0  0  0  0  0  0  0  0  0  0  0
  -28.6074  -13.3505   20.8766 C   0  0  0  0  0  0  0  0  0  0  0  0
  -23.4709  -29.7842   21.1340 C   0  0  1  0  0  0  0  0  0  0  0  0
  -26.6731  -31.2408   22.5685 C   0  0  1  0  0  0  0  0  0  0  0  0
  -27.6280  -13.1943   19.7018 C   0  0  2  0  0  0  0  0  0  0  0  0
  -33.1134  -35.4422   21.6332 C   0  0  0  0  0  0  0  0  0  0  0  0
  -28.0875  -32.6034   18.3848 C   0  0  0  0  0  0  0  0  0  0  0  0
  -30.3203  -33.7338   18.3163 C   0  0  0  0  0  0  0  0  0  0  0  0
  -28.3400  -34.9424   19.2330 C   0  0  0  0  0  0  0  0  0  0  0  0
  -32.1700  -33.3801   24.6884 C   0  0  0  0  0  0  0  0  0  0  0  0
  -29.9924  -22.1617   22.5419 C   0  0  0  0  0  0  0  0  0  0  0  0
  -29.7983  -24.6346   23.1701 C   0  0  0  0  0  0  0  0  0  1  0  0
  -29.3766  -33.0661   20.5734 C   0  0  1  0  0  0  0  0  0  0  0  0
  -32.1743  -34.6816   22.5565 C   0  0  2  0  0  0  0  0  0  0  0  0
  -29.0274  -33.5626   19.1420 C   0  0  0  0  0  0  0  0  0  0  0  0
  -25.8626  -11.5697   20.2723 N   0  0  0  0  0  0  0  0  0  0  0  0
  -26.2246  -12.8600   20.1717 N   0  0  0  0  0  0  0  0  0  0  0  0
  -27.9423  -31.5558   21.9097 N   0  0  0  0  0  0  0  0  0  0  0  0
  -29.9483  -13.6835   20.3707 N   0  0  0  0  0  0  0  0  0  0  0  0
  -28.5678  -17.3290   23.3747 N   0  0  0  0  0  0  0  0  0  0  0  0
  -25.4358  -15.0725   20.4777 N   0  0  0  0  0  0  0  0  0  0  0  0
  -21.8867  -12.5313   21.6364 N   0  0  0  0  0  0  0  0  0  0  0  0
  -30.0446  -15.7371   21.5264 N   0  0  0  0  0  0  0  0  0  0  0  0
  -30.7071  -21.2838   21.6307 N   0  0  0  0  0  0  0  0  0  0  0  0
  -24.4991  -30.3574   21.9759 N   0  0  0  0  0  0  0  0  0  0  0  0
  -30.2436  -33.9681   21.3238 N   0  0  0  0  0  0  0  0  0  0  0  0
  -32.9717  -34.1331   23.6898 N   0  3  0  0  0  0  0  0  0  0  0  0
  -22.6370  -14.6856   21.4018 O   0  0  0  0  0  0  0  0  0  0  0  0
  -26.1970  -30.4743   20.3866 O   0  0  0  0  0  0  0  0  0  0  0  0
  -31.2522  -23.8704   21.4161 O   0  0  0  0  0  0  0  0  0  0  0  0
  -27.4024  -33.8099   21.6577 O   0  0  0  0  0  0  0  0  0  0  0  0
  -31.9447  -32.4364   21.6940 O   0  0  0  0  0  0  0  0  0  0  0  0
  -31.8198  -15.0310   20.2104 O   0  0  0  0  0  0  0  0  0  0  0  0
  -21.6747   -6.9645   21.6149 O   0  0  0  0  0  0  0  0  0  0  0  0
  -30.2974  -25.9321   22.8482 O   0  0  0  0  0  0  0  0  0  1  0  0
  -18.7193   -6.6639   26.2602 F   0  0  0  0  0  0  0  0  0  0  0  0
  -32.1231  -19.7084   19.8495 F   0  0  0  0  0  0  0  0  0  0  0  0
  -22.1601   -4.9814   23.4789 F   0  0  0  0  0  0  0  0  0  0  0  0
  1  2  1  0  0  0  0
  1  5  2  0  0  0  0
  2  6  2  0  0  0  0
  3  8  2  0  0  0  0
  3 17  1  0  0  0  0
  4  9  1  0  0  0  0
  4 17  2  0  0  0  0
  5 19  1  0  0  0  0
  6 21  1  0  0  0  0
  7 10  2  0  0  0  0
  7 20  1  0  0  0  0
  8 26  1  0  0  0  0
  9 26  2  0  0  0  0
 10 27  1  0  0  0  0
 11 12  2  0  0  0  0
 11 28  1  0  0  0  0
 12 29  1  0  0  0  0
 13 22  1  0  0  0  0
 13 27  2  0  0  0  0
 14 23  2  0  0  0  0
 14 24  1  0  0  0  0
 15 25  2  0  0  0  0
 15 30  1  0  0  0  0
 16 29  2  0  0  0  0
 16 31  1  0  0  0  0
 17 32  1  0  0  0  0
 18 32  1  0  0  0  0
 18 33  2  0  0  0  0
 18 34  1  0  0  0  0
 19 21  2  0  0  0  0
 19 40  1  0  0  0  0
 20 22  2  0  0  0  0
 20 41  1  0  0  0  0
 21 49  1  0  0  0  0
 22 42  1  0  0  0  0
 23 25  1  0  0  0  0
 23 66  1  0  0  0  0
 24 30  2  0  0  0  0
 24 70  1  0  0  0  0
 25 69  1  0  0  0  0
 26 80  1  0  0  0  0
 27 81  1  0  0  0  0
 28 31  2  0  0  0  0
 28 80  1  0  0  0  0
 29 82  1  0  0  0  0
 30 83  1  0  0  0  0
 31 84  1  0  0  0  0
 32 62  2  0  0  0  0
 33 63  1  0  0  0  0
 33 67  1  0  0  0  0
 34 68  1  0  0  0  0
 34 74  2  0  0  0  0
 35 50  1  0  0  0  0
 35 71  1  0  0  0  0
 35 75  2  0  0  0  0
 36 57  1  0  0  0  0
 36 58  1  0  0  0  0
 36 76  2  0  0  0  0
 37 59  1  0  0  0  0
 37 64  1  0  0  0  0
 37 77  2  0  0  0  0
 38 60  1  0  0  0  0
 38 72  1  0  0  0  0
 38 78  2  0  0  0  0
 39 65  1  0  0  0  0
 39 69  1  0  0  0  0
 39 79  2  0  0  0  0
 40 43  1  0  0  0  0
 41 50  1  0  0  0  0
 42 64  1  0  0  0  0
 43 45  1  0  0  0  0
 44 46  1  0  0  0  0
 44 47  1  0  0  0  0
 45 49  1  0  0  0  0
 46 51  1  0  0  0  0
 47 65  1  0  0  0  0
 48 51  1  0  0  0  0
 48 65  1  0  0  0  0
 49 71  1  0  0  0  0
 50 64  1  0  0  0  0
 51 63  1  0  0  0  0
 52 60  1  0  0  0  0
 53 61  1  0  0  0  0
 54 61  1  0  0  0  0
 55 61  1  0  0  0  0
 56 73  1  0  0  0  0
 57 70  1  0  0  0  0
 58 81  1  0  0  0  0
 59 61  1  0  0  0  0
 59 72  1  0  0  0  0
 60 73  1  0  0  0  0
 62 63  1  0  0  0  0
M  CHG  1  73   1
M  ISO  4  39 100  58 101  69 100  81 101
M  END
> <Batch ID>
0156

> <Smiles>
CNC(C)C(=O)NC(C(=O)N1Cc2cc([101O:1][101CH2:1]C(=O)CNc3cc(N)c([100NH:0][100C:0](=O)N4CCCC(n5nc(-c6ccc(Oc7ccc(F)cc7F)cc6)c(C(N)=O)c5N)C4)cc3F)ccc2CC1C(=O)NC1CCCc2ccccc21)C(C)(C)C

> <Shape>
0.299

> <Color>
0.185

> <Negative vol penalty>
0.000

$$$$

  -OEChem-04052303393D

 84 92  0     1  0  0  0  0  0999 V2000
  -28.8711  -33.7953   15.6904 C   0  0  0  0  0  0  0  0  0  0  0  0
  -29.0272  -32.7256   16.5660 C   0  0  0  0  0  0  0  0  0  0  0  0
  -22.6055  -10.4650   21.8270 C   0  0  0  0  0  0  0  0  0  0  0  0
  -24.6478   -9.6080   20.8617 C   0  0  0  0  0  0  0  0  0  0  0  0
  -28.0632  -34.8743   16.0468 C   0  0  0  0  0  0  0  0  0  0  0  0
  -28.3763  -32.7348   17.7992 C   0  0  0  0  0  0  0  0  0  0  0  0
  -26.1960  -28.2933   18.8782 C   0  0  0  0  0  0  0  0  0  0  0  0
  -22.0334   -9.1956   21.7436 C   0  0  0  0  0  0  0  0  0  0  0  0
  -24.0757   -8.3385   20.7784 C   0  0  0  0  0  0  0  0  0  0  0  0
  -27.0267  -27.2699   19.3325 C   0  0  0  0  0  0  0  0  0  0  0  0
  -22.1581   -6.2890   23.4667 C   0  0  0  0  0  0  0  0  0  0  0  0
  -21.4548   -5.8208   24.5765 C   0  0  0  0  0  0  0  0  0  0  0  0
  -29.0730  -20.5994   21.7558 C   0  0  0  0  0  0  0  0  0  0  0  0
  -26.3482  -27.7339   21.6004 C   0  0  0  0  0  0  0  0  0  0  0  0
  -19.4569   -5.6329   23.2311 C   0  0  0  0  0  0  0  0  0  0  0  0
  -23.9127  -10.6712   21.3860 C   0  0  0  0  0  0  0  0  0  0  0  0
  -29.3686  -19.2426   21.4823 C   0  0  0  0  0  0  0  0  0  0  0  0
  -25.2372  -12.5157   22.5483 C   0  0  0  0  0  0  0  0  0  0  0  0
  -27.3944  -34.8923   17.2809 C   0  0  0  0  0  0  0  0  0  0  0  0
  -25.4422  -29.0532   19.7842 C   0  0  0  0  0  0  0  0  0  0  0  0
  -27.5598  -33.8157   18.1730 C   0  0  0  0  0  0  0  0  0  0  0  0
  -25.5068  -28.7647   21.1549 C   0  0  0  0  0  0  0  0  0  0  0  0
  -22.7685   -8.1324   21.2193 C   0  0  0  0  0  0  0  0  0  0  0  0
  -27.1052  -26.9920   20.6940 C   0  0  0  0  0  0  0  0  0  0  0  0
  -21.5108   -6.4293   22.2391 C   0  0  0  0  0  0  0  0  0  0  0  0
  -20.1042   -5.4927   24.4587 C   0  0  0  0  0  0  0  0  0  0  0  0
  -20.1602   -6.1012   22.1213 C   0  0  0  0  0  0  0  0  0  0  0  0
  -24.5041  -11.9823   21.4714 C   0  0  0  0  0  0  0  0  0  0  0  0
  -29.3885  -19.1246   20.1121 C   0  0  0  0  0  0  0  0  0  0  0  0
  -25.5762  -13.7822   22.1391 C   0  0  0  0  0  0  0  0  0  0  0  0
  -28.9336  -21.2139   20.5331 C   0  0  0  0  0  0  0  0  0  0  0  0
  -29.6054  -18.1789   22.4132 C   0  0  0  0  0  0  0  0  0  0  0  0
  -25.5811  -11.9197   23.8062 C   0  0  0  0  0  0  0  0  0  0  0  0
  -25.3416  -32.1246   20.5964 C   0  0  0  0  0  0  0  0  0  0  0  0
  -22.7907  -31.1730   22.3599 C   0  0  0  0  0  0  0  0  0  0  0  0
  -28.4118  -23.6222   21.0450 C   0  0  0  0  0  0  0  0  0  0  0  0
  -21.1616  -28.6405   23.9659 C   0  0  0  0  0  0  0  0  0  0  0  0
  -27.4576  -17.2933   18.2304 C   0  0  0  0  0  0  0  0  0  0  0  0
  -26.5695  -36.1022   17.6420 C   0  0  0  0  0  0  0  0  0  0  0  0
  -24.5305  -30.1361   19.2758 C   0  0  0  0  0  0  0  0  0  0  0  0
  -24.7023  -29.5378   22.1667 C   0  0  0  0  0  0  0  0  0  0  0  0
  -25.6161  -35.8629   18.8099 C   0  0  0  0  0  0  0  0  0  0  0  0
  -23.9876  -16.4979   18.1783 C   0  0  0  0  0  0  0  0  0  0  0  0
  -26.3376  -35.1535   19.9513 C   0  0  0  0  0  0  0  0  0  0  0  0
  -23.8744  -15.2930   19.1139 C   0  0  0  0  0  0  0  0  0  0  0  0
  -25.2850  -16.4676   17.3734 C   0  0  0  0  0  0  0  0  0  0  0  0
  -26.3986  -15.1278   19.1166 C   0  0  0  0  0  0  0  0  0  0  0  0
  -26.8505  -33.7776   19.5093 C   0  0  1  0  0  0  0  0  0  0  0  0
  -24.1996  -31.1841   20.3339 C   0  0  1  0  0  0  0  0  0  0  0  0
  -25.1326  -15.1434   19.9902 C   0  0  2  0  0  0  0  0  0  0  0  0
  -29.5430  -18.4943   23.8896 C   0  0  0  0  0  0  0  0  0  0  0  0
  -19.1202  -28.1767   25.3497 C   0  0  0  0  0  0  0  0  0  0  0  0
  -24.1383  -32.4615   24.7752 C   0  0  0  0  0  0  0  0  0  0  0  0
  -22.5761  -31.1723   26.2469 C   0  0  0  0  0  0  0  0  0  0  0  0
  -21.6709  -32.8428   24.6305 C   0  0  0  0  0  0  0  0  0  0  0  0
  -20.0970  -26.7356   21.9666 C   0  0  0  0  0  0  0  0  0  0  0  0
  -29.6316  -17.9986   19.1976 C   0  0  0  0  0  0  0  0  0  0  0  0
  -28.1316  -24.8908   20.2611 C   0  0  0  0  0  0  0  0  0  1  0  0
  -22.5954  -30.6549   23.7643 C   0  0  1  0  0  0  0  0  0  0  0  0
  -19.7069  -28.2069   23.9470 C   0  0  2  0  0  0  0  0  0  0  0  0
  -22.7619  -31.7694   24.8356 C   0  0  0  0  0  0  0  0  0  0  0  0
  -24.3839  -12.8399   20.4544 N   0  0  0  0  0  0  0  0  0  0  0  0
  -25.0460  -13.9250   20.8906 N   0  0  0  0  0  0  0  0  0  0  0  0
  -23.8304  -30.5910   21.6208 N   0  0  0  0  0  0  0  0  0  0  0  0
  -26.4398  -16.3259   18.2635 N   0  0  0  0  0  0  0  0  0  0  0  0
  -26.2732  -14.7766   22.7289 N   0  0  0  0  0  0  0  0  0  0  0  0
  -25.1528  -10.6104   24.0644 N   0  0  0  0  0  0  0  0  0  0  0  0
  -28.6401  -22.5537   20.1846 N   0  0  0  0  0  0  0  0  0  0  0  0
  -25.7661  -32.8195   19.4800 N   0  0  0  0  0  0  0  0  0  0  0  0
  -21.2915  -30.0006   23.7804 N   0  0  0  0  0  0  0  0  0  0  0  0
  -28.5128  -17.0868   19.1105 N   0  0  0  0  0  0  0  0  0  0  0  0
  -19.5799  -26.8452   23.3550 N   0  3  0  0  0  0  0  0  0  0  0  0
  -29.8673  -16.9981   22.1176 O   0  0  0  0  0  0  0  0  0  0  0  0
  -26.2343  -12.5359   24.6820 O   0  0  0  0  0  0  0  0  0  0  0  0
  -25.8024  -32.2144   21.7283 O   0  0  0  0  0  0  0  0  0  0  0  0
  -22.0436  -32.0562   21.9318 O   0  0  0  0  0  0  0  0  0  0  0  0
  -28.4197  -23.6134   22.2716 O   0  0  0  0  0  0  0  0  0  0  0  0
  -22.0895  -27.8520   24.1325 O   0  0  0  0  0  0  0  0  0  0  0  0
  -27.4256  -18.2717   17.4762 O   0  0  0  0  0  0  0  0  0  0  0  0
  -29.1245  -20.3218   19.5260 O   0  0  0  0  0  0  0  0  0  0  0  0
  -22.2106   -6.8936   21.1380 O   0  0  0  0  0  0  0  0  0  0  0  0
  -27.9157  -25.9940   21.1400 O   0  0  0  0  0  0  0  0  0  1  0  0
  -19.4293   -5.0416   25.5242 F   0  0  0  0  0  0  0  0  0  0  0  0
  -19.5332   -6.2327   20.9442 F   0  0  0  0  0  0  0  0  0  0  0  0
  1  2  1  0  0  0  0
  1  5  2  0  0  0  0
  2  6  2  0  0  0  0
  3  8  2  0  0  0  0
  3 16  1  0  0  0  0
  4  9  1  0  0  0  0
  4 16  2  0  0  0  0
  5 19  1  0  0  0  0
  6 21  1  0  0  0  0
  7 10  2  0  0  0  0
  7 20  1  0  0  0  0
  8 23  1  0  0  0  0
  9 23  2  0  0  0  0
 10 24  1  0  0  0  0
 11 12  2  0  0  0  0
 11 25  1  0  0  0  0
 12 26  1  0  0  0  0
 13 17  1  0  0  0  0
 13 31  2  0  0  0  0
 14 22  1  0  0  0  0
 14 24  2  0  0  0  0
 15 26  2  0  0  0  0
 15 27  1  0  0  0  0
 16 28  1  0  0  0  0
 17 29  2  0  0  0  0
 17 32  1  0  0  0  0
 18 28  1  0  0  0  0
 18 30  2  0  0  0  0
 18 33  1  0  0  0  0
 19 21  2  0  0  0  0
 19 39  1  0  0  0  0
 20 22  2  0  0  0  0
 20 40  1  0  0  0  0
 21 48  1  0  0  0  0
 22 41  1  0  0  0  0
 23 81  1  0  0  0  0
 24 82  1  0  0  0  0
 25 27  2  0  0  0  0
 25 81  1  0  0  0  0
 26 83  1  0  0  0  0
 27 84  1  0  0  0  0
 28 62  2  0  0  0  0
 29 57  1  0  0  0  0
 29 80  1  0  0  0  0
 30 63  1  0  0  0  0
 30 66  1  0  0  0  0
 31 68  1  0  0  0  0
 31 80  1  0  0  0  0
 32 51  1  0  0  0  0
 32 73  2  0  0  0  0
 33 67  1  0  0  0  0
 33 74  2  0  0  0  0
 34 49  1  0  0  0  0
 34 69  1  0  0  0  0
 34 75  2  0  0  0  0
 35 59  1  0  0  0  0
 35 64  1  0  0  0  0
 35 76  2  0  0  0  0
 36 58  1  0  0  0  0
 36 68  1  0  0  0  0
 36 77  2  0  0  0  0
 37 60  1  0  0  0  0
 37 70  1  0  0  0  0
 37 78  2  0  0  0  0
 38 65  1  0  0  0  0
 38 71  1  0  0  0  0
 38 79  2  0  0  0  0
 39 42  1  0  0  0  0
 40 49  1  0  0  0  0
 41 64  1  0  0  0  0
 42 44  1  0  0  0  0
 43 45  1  0  0  0  0
 43 46  1  0  0  0  0
 44 48  1  0  0  0  0
 45 50  1  0  0  0  0
 46 65  1  0  0  0  0
 47 50  1  0  0  0  0
 47 65  1  0  0  0  0
 48 69  1  0  0  0  0
 49 64  1  0  0  0  0
 50 63  1  0  0  0  0
 52 60  1  0  0  0  0
 53 61  1  0  0  0  0
 54 61  1  0  0  0  0
 55 61  1  0  0  0  0
 56 72  1  0  0  0  0
 57 71  1  0  0  0  0
 58 82  1  0  0  0  0
 59 61  1  0  0  0  0
 59 70  1  0  0  0  0
 60 72  1  0  0  0  0
 62 63  1  0  0  0  0
M  CHG  1  72   1
M  ISO  4  38 100  58 101  71 100  82 101
M  END
> <Batch ID>
0156

> <Smiles>
CNC(C)C(=O)NC(C(=O)N1Cc2cc([101O:1][101CH2:1]C(=O)Nc3cc(C(C)=O)c(C[100NH:0][100C:0](=O)N4CCCC(n5nc(-c6ccc(Oc7ccc(F)cc7F)cc6)c(C(N)=O)c5N)C4)o3)ccc2CC1C(=O)NC1CCCc2ccccc21)C(C)(C)C

> <Shape>
0.259

> <Color>
0.096

> <Negative vol penalty>
0.000

$$$$

  -OEChem-04052303393D

 82 90  0     1  0  0  0  0  0999 V2000
  -31.4439  -11.1771   38.0598 C   0  0  0  0  0  0  0  0  0  0  0  0
  -31.8642  -11.7364   36.8573 C   0  0  0  0  0  0  0  0  0  0  0  0
  -23.0739   -9.8690   19.9415 C   0  0  0  0  0  0  0  0  0  0  0  0
  -23.8386   -9.8744   22.2333 C   0  0  0  0  0  0  0  0  0  0  0  0
  -30.2606  -11.6134   38.6543 C   0  0  0  0  0  0  0  0  0  0  0  0
  -31.1009  -12.7317   36.2481 C   0  0  0  0  0  0  0  0  0  0  0  0
  -33.1758  -17.5085   33.0259 C   0  0  0  0  0  0  0  0  0  0  0  0
  -22.3313   -8.7152   20.1920 C   0  0  0  0  0  0  0  0  0  0  0  0
  -23.0959   -8.7206   22.4838 C   0  0  0  0  0  0  0  0  0  0  0  0
  -33.3045  -17.7308   31.6555 C   0  0  0  0  0  0  0  0  0  0  0  0
  -19.8694   -7.9203   23.0923 C   0  0  0  0  0  0  0  0  0  0  0  0
  -19.1149   -7.8789   24.2647 C   0  0  0  0  0  0  0  0  0  0  0  0
  -31.1835  -18.8800   31.6490 C   0  0  0  0  0  0  0  0  0  0  0  0
  -31.0529  -17.5274   24.4174 C   0  0  0  0  0  0  0  0  0  0  0  0
  -20.3590   -5.9415   24.9969 C   0  0  0  0  0  0  0  0  0  0  0  0
  -28.9164  -18.1306   24.6356 C   0  0  0  0  0  0  0  0  0  0  0  0
  -23.8276  -10.4486   20.9622 C   0  0  0  0  0  0  0  0  0  0  0  0
  -24.1677  -12.9741   20.8437 C   0  0  0  0  0  0  0  0  0  0  0  0
  -29.4874  -12.6214   38.0569 C   0  0  0  0  0  0  0  0  0  0  0  0
  -32.0430  -17.9615   33.7172 C   0  0  0  0  0  0  0  0  0  0  0  0
  -29.9055  -13.1810   36.8345 C   0  0  0  0  0  0  0  0  0  0  0  0
  -31.0441  -18.6644   33.0286 C   0  0  0  0  0  0  0  0  0  0  0  0
  -30.0958  -18.0227   25.3349 C   0  0  0  0  0  0  0  0  0  0  0  0
  -22.3422   -8.1410   21.4631 C   0  0  0  0  0  0  0  0  0  0  0  0
  -32.3068  -18.4141   30.9664 C   0  0  0  0  0  0  0  0  0  0  0  0
  -20.8687   -6.9723   22.8721 C   0  0  0  0  0  0  0  0  0  0  0  0
  -19.3597   -6.8895   25.2170 C   0  0  0  0  0  0  0  0  0  0  0  0
  -21.1135   -5.9830   23.8244 C   0  0  0  0  0  0  0  0  0  0  0  0
  -24.5955  -11.6402   20.7039 C   0  0  0  0  0  0  0  0  0  0  0  0
  -30.3900  -17.3677   23.2228 C   0  0  0  0  0  0  0  0  0  0  0  0
  -25.2586  -13.7246   20.4788 C   0  0  0  0  0  0  0  0  0  0  0  0
  -22.8978  -13.4888   21.2657 C   0  0  0  0  0  0  0  0  0  0  0  0
  -29.7070  -16.5617   35.3565 C   0  0  0  0  0  0  0  0  0  0  0  0
  -28.8704  -19.6234   36.0258 C   0  0  0  0  0  0  0  0  0  0  0  0
  -31.4555  -18.2565   27.4398 C   0  0  0  0  0  0  0  0  0  0  0  0
  -28.9725  -22.9159   35.1336 C   0  0  0  0  0  0  0  0  0  0  0  0
  -30.7421  -14.7468   20.6568 C   0  0  0  0  0  0  0  0  0  0  0  0
  -28.1913  -13.0270   38.7130 C   0  0  0  0  0  0  0  0  0  0  0  0
  -31.9319  -17.7370   35.2003 C   0  0  0  0  0  0  0  0  0  0  0  0
  -29.8178  -19.1890   33.7282 C   0  0  0  0  0  0  0  0  0  0  0  0
  -27.6336  -14.3497   38.1937 C   0  0  0  0  0  0  0  0  0  0  0  0
  -29.6011  -12.3637   18.2703 C   0  0  0  0  0  0  0  0  0  0  0  0
  -27.6766  -14.3854   36.6693 C   0  0  0  0  0  0  0  0  0  0  0  0
  -28.1647  -12.0687   18.7059 C   0  0  0  0  0  0  0  0  0  0  0  0
  -30.5205  -12.5840   19.4695 C   0  0  0  0  0  0  0  0  0  0  0  0
  -28.6212  -13.3127   20.8606 C   0  0  0  0  0  0  0  0  0  0  0  0
  -29.1176  -14.2802   36.1555 C   0  0  1  0  0  0  0  0  0  0  0  0
  -30.4940  -17.7927   35.7070 C   0  0  1  0  0  0  0  0  0  0  0  0
  -27.6447  -13.1386   19.6849 C   0  0  2  0  0  0  0  0  0  0  0  0
  -30.6311  -17.9497   20.7805 C   0  0  0  0  0  0  0  0  0  0  0  0
  -28.1651  -25.1790   35.8574 C   0  0  0  0  0  0  0  0  0  0  0  0
  -26.0764  -18.9522   34.9995 C   0  0  0  0  0  0  0  0  0  0  0  0
  -25.6165  -21.4088   34.8513 C   0  0  0  0  0  0  0  0  0  0  0  0
  -26.1184  -20.3668   37.0615 C   0  0  0  0  0  0  0  0  0  0  0  0
  -31.7353  -23.9308   35.4430 C   0  0  0  0  0  0  0  0  0  0  0  0
  -31.2235  -18.7082   28.8697 C   0  0  0  0  0  0  0  0  0  1  0  0
  -30.8092  -16.8963   21.8955 C   0  0  2  0  0  0  0  0  0  0  0  0
  -27.9804  -20.6550   35.3757 C   0  0  1  0  0  0  0  0  0  0  0  0
  -29.2971  -24.1661   35.9312 C   0  0  2  0  0  0  0  0  0  0  0  0
  -26.4700  -20.3343   35.5582 C   0  0  0  0  0  0  0  0  0  0  0  0
  -25.8595  -11.5455   20.2830 N   0  0  0  0  0  0  0  0  0  0  0  0
  -26.2354  -12.8294   20.1550 N   0  0  0  0  0  0  0  0  0  0  0  0
  -29.7522  -18.9389   35.1776 N   0  0  0  0  0  0  0  0  0  0  0  0
  -29.9712  -13.6114   20.3575 N   0  0  0  0  0  0  0  0  0  0  0  0
  -25.4681  -15.0562   20.4066 N   0  0  0  0  0  0  0  0  0  0  0  0
  -21.8871  -12.5787   21.6042 N   0  0  0  0  0  0  0  0  0  0  0  0
  -30.2824  -18.3502   26.6989 N   0  0  0  0  0  0  0  0  0  0  0  0
  -29.7975  -15.5503   36.2937 N   0  0  0  0  0  0  0  0  0  0  0  0
  -28.3870  -21.9461   35.9198 N   0  0  0  0  0  0  0  0  0  0  0  0
  -30.1441  -15.6745   21.5009 N   0  0  0  0  0  0  0  0  0  0  0  0
  -30.5363  -24.8073   35.4077 N   0  3  0  0  0  0  0  0  0  0  0  0
  -22.6609  -14.7192   21.3246 O   0  0  0  0  0  0  0  0  0  0  0  0
  -29.0641  -16.5322   34.3137 O   0  0  0  0  0  0  0  0  0  0  0  0
  -28.7912  -19.4371   37.2427 O   0  0  0  0  0  0  0  0  0  0  0  0
  -32.5561  -17.8725   27.0579 O   0  0  0  0  0  0  0  0  0  0  0  0
  -29.2108  -22.8115   33.9324 O   0  0  0  0  0  0  0  0  0  0  0  0
  -31.8770  -14.9233   20.2010 O   0  0  0  0  0  0  0  0  0  0  0  0
  -29.0871  -17.7331   23.3474 O   0  0  0  0  0  0  0  0  0  0  0  0
  -21.6175   -7.0152   21.7080 O   0  0  0  0  0  0  0  0  0  0  0  0
  -32.4296  -18.6319   29.6287 O   0  0  0  0  0  0  0  0  0  1  0  0
  -18.6361   -6.8508   26.3435 F   0  0  0  0  0  0  0  0  0  0  0  0
  -22.0730   -5.0702   23.6190 F   0  0  0  0  0  0  0  0  0  0  0  0
  1  2  1  0  0  0  0
  1  5  2  0  0  0  0
  2  6  2  0  0  0  0
  3  8  2  0  0  0  0
  3 17  1  0  0  0  0
  4  9  1  0  0  0  0
  4 17  2  0  0  0  0
  5 19  1  0  0  0  0
  6 21  1  0  0  0  0
  7 10  2  0  0  0  0
  7 20  1  0  0  0  0
  8 24  1  0  0  0  0
  9 24  2  0  0  0  0
 10 25  1  0  0  0  0
 11 12  2  0  0  0  0
 11 26  1  0  0  0  0
 12 27  1  0  0  0  0
 13 22  1  0  0  0  0
 13 25  2  0  0  0  0
 14 23  1  0  0  0  0
 14 30  2  0  0  0  0
 15 27  2  0  0  0  0
 15 28  1  0  0  0  0
 16 23  2  0  0  0  0
 16 78  1  0  0  0  0
 17 29  1  0  0  0  0
 18 29  1  0  0  0  0
 18 31  2  0  0  0  0
 18 32  1  0  0  0  0
 19 21  2  0  0  0  0
 19 38  1  0  0  0  0
 20 22  2  0  0  0  0
 20 39  1  0  0  0  0
 21 47  1  0  0  0  0
 22 40  1  0  0  0  0
 23 67  1  0  0  0  0
 24 79  1  0  0  0  0
 25 80  1  0  0  0  0
 26 28  2  0  0  0  0
 26 79  1  0  0  0  0
 27 81  1  0  0  0  0
 28 82  1  0  0  0  0
 29 61  2  0  0  0  0
 30 57  1  0  0  0  0
 30 78  1  0  0  0  0
 31 62  1  0  0  0  0
 31 65  1  0  0  0  0
 32 66  1  0  0  0  0
 32 72  2  0  0  0  0
 33 48  1  0  0  0  0
 33 68  1  0  0  0  0
 33 73  2  0  0  0  0
 34 58  1  0  0  0  0
 34 63  1  0  0  0  0
 34 74  2  0  0  0  0
 35 56  1  0  0  0  0
 35 67  1  0  0  0  0
 35 75  2  0  0  0  0
 36 59  1  0  0  0  0
 36 69  1  0  0  0  0
 36 76  2  0  0  0  0
 37 64  1  0  0  0  0
 37 70  1  0  0  0  0
 37 77  2  0  0  0  0
 38 41  1  0  0  0  0
 39 48  1  0  0  0  0
 40 63  1  0  0  0  0
 41 43  1  0  0  0  0
 42 44  1  0  0  0  0
 42 45  1  0  0  0  0
 43 47  1  0  0  0  0
 44 49  1  0  0  0  0
 45 64  1  0  0  0  0
 46 49  1  0  0  0  0
 46 64  1  0  0  0  0
 47 68  1  0  0  0  0
 48 63  1  0  0  0  0
 49 62  1  0  0  0  0
 50 57  1  0  0  0  0
 51 59  1  0  0  0  0
 52 60  1  0  0  0  0
 53 60  1  0  0  0  0
 54 60  1  0  0  0  0
 55 71  1  0  0  0  0
 56 80  1  0  0  0  0
 57 70  1  0  0  0  0
 58 60  1  0  0  0  0
 58 69  1  0  0  0  0
 59 71  1  0  0  0  0
 61 62  1  0  0  0  0
M  CHG  1  71   1
M  ISO  4  37 100  56 101  70 100  80 101
M  END
> <Batch ID>
0156

> <Smiles>
CNC(C)C(=O)NC(C(=O)N1Cc2cc([101O:1][101CH2:1]C(=O)Nc3coc(C(C)[100NH:0][100C:0](=O)N4CCCC(n5nc(-c6ccc(Oc7ccc(F)cc7F)cc6)c(C(N)=O)c5N)C4)c3)ccc2CC1C(=O)NC1CCCc2ccccc21)C(C)(C)C

> <Shape>
0.171

> <Color>
0.187

> <Negative vol penalty>
0.000

$$$$

  -OEChem-04052303393D

 86 95  0     1  0  0  0  0  0999 V2000
  -26.7200  -37.9988   21.7324 C   0  0  0  0  0  0  0  0  0  0  0  0
  -27.3591  -36.8336   21.3212 C   0  0  0  0  0  0  0  0  0  0  0  0
  -23.0813  -10.9767   22.8947 C   0  0  0  0  0  0  0  0  0  0  0  0
  -22.5341  -13.2562   22.3103 C   0  0  0  0  0  0  0  0  0  0  0  0
  -25.7393  -37.9427   22.7218 C   0  0  0  0  0  0  0  0  0  0  0  0
  -27.0186  -35.6115   21.9000 C   0  0  0  0  0  0  0  0  0  0  0  0
  -26.8840  -30.1435   19.1451 C   0  0  0  0  0  0  0  0  0  0  0  0
  -21.9738  -10.9279   23.7414 C   0  0  0  0  0  0  0  0  0  0  0  0
  -21.4266  -13.2074   23.1569 C   0  0  0  0  0  0  0  0  0  0  0  0
  -27.7950  -29.0887   19.1091 C   0  0  0  0  0  0  0  0  0  0  0  0
  -18.6296  -10.5246   23.4475 C   0  0  0  0  0  0  0  0  0  0  0  0
  -17.8188   -9.3911   23.3895 C   0  0  0  0  0  0  0  0  0  0  0  0
  -28.4802  -19.5743   18.1389 C   0  0  0  0  0  0  0  0  0  0  0  0
  -26.6062  -28.0084   20.9087 C   0  0  0  0  0  0  0  0  0  0  0  0
  -18.2718   -8.9479   25.7210 C   0  0  0  0  0  0  0  0  0  0  0  0
  -26.6125  -20.2747   16.9458 C   0  0  0  0  0  0  0  0  0  0  0  0
  -23.3614  -12.1409   22.1792 C   0  0  0  0  0  0  0  0  0  0  0  0
  -27.9291  -20.5421   17.2502 C   0  0  0  0  0  0  0  0  0  0  0  0
  -24.7601  -11.3726   20.1890 C   0  0  0  0  0  0  0  0  0  0  0  0
  -25.3798  -36.7180   23.3062 C   0  0  0  0  0  0  0  0  0  0  0  0
  -25.8319  -30.1439   20.0722 C   0  0  0  0  0  0  0  0  0  0  0  0
  -26.0331  -35.5391   22.8991 C   0  0  0  0  0  0  0  0  0  0  0  0
  -25.6817  -29.0632   20.9528 C   0  0  0  0  0  0  0  0  0  0  0  0
  -21.1464  -12.0432   23.8724 C   0  0  0  0  0  0  0  0  0  0  0  0
  -27.6579  -28.0224   19.9929 C   0  0  0  0  0  0  0  0  0  0  0  0
  -19.2616  -10.8698   24.6421 C   0  0  0  0  0  0  0  0  0  0  0  0
  -17.6399   -8.6028   24.5263 C   0  0  0  0  0  0  0  0  0  0  0  0
  -19.0826  -10.0814   25.7789 C   0  0  0  0  0  0  0  0  0  0  0  0
  -24.5056  -12.1921   21.3050 C   0  0  0  0  0  0  0  0  0  0  0  0
  -25.9648  -11.8186   19.7030 C   0  0  0  0  0  0  0  0  0  0  0  0
  -27.5636  -18.6040   18.4801 C   0  0  0  0  0  0  0  0  0  0  0  0
  -28.6808  -21.6935   16.7198 C   0  0  0  0  0  0  0  0  0  0  0  0
  -23.9774  -10.3039   19.6405 C   0  0  0  0  0  0  0  0  0  0  0  0
  -24.9684  -32.0252   22.4844 C   0  0  0  0  0  0  0  0  0  0  0  0
  -22.3604  -30.0971   22.5429 C   0  0  0  0  0  0  0  0  0  0  0  0
  -20.9812  -27.0658   21.7974 C   0  0  0  0  0  0  0  0  0  0  0  0
  -28.8108  -17.0624   20.0338 C   0  0  0  0  0  0  0  0  0  0  0  0
  -24.3474  -36.7136   24.4056 C   0  0  0  0  0  0  0  0  0  0  0  0
  -24.8420  -31.2764   20.0804 C   0  0  0  0  0  0  0  0  0  0  0  0
  -24.5576  -29.0060   21.9536 C   0  0  0  0  0  0  0  0  0  0  0  0
  -23.7800  -35.3279   24.7028 C   0  0  0  0  0  0  0  0  0  0  0  0
  -30.0360  -13.9021   21.1241 C   0  0  0  0  0  0  0  0  0  0  0  0
  -24.9039  -34.3019   24.8070 C   0  0  0  0  0  0  0  0  0  0  0  0
  -28.7808  -13.0287   21.1868 C   0  0  0  0  0  0  0  0  0  0  0  0
  -30.1140  -24.8225   17.3107 C   0  0  0  0  0  0  0  0  0  0  0  0
  -28.2358  -24.3500   18.9427 C   0  0  0  0  0  0  0  0  0  0  0  0
  -29.7495  -15.3386   21.5578 C   0  0  0  0  0  0  0  0  0  0  0  0
  -30.4173  -23.3302   17.2380 C   0  0  0  0  0  0  0  0  0  0  0  0
  -28.5483  -22.8601   18.8609 C   0  0  0  0  0  0  0  0  0  0  0  0
  -27.3810  -15.1156   20.9178 C   0  0  0  0  0  0  0  0  0  0  0  0
  -25.6739  -34.1910   23.4855 C   0  0  1  0  0  0  0  0  0  0  0  0
  -24.1091  -31.4198   21.4107 C   0  0  1  0  0  0  0  0  0  0  0  0
  -27.6056  -13.6756   20.4280 C   0  0  2  0  0  0  0  0  0  0  0  0
  -29.4769  -25.2031   18.6527 C   0  0  0  0  0  0  0  0  0  0  0  0
  -18.8406  -25.7720   22.0007 C   0  0  0  0  0  0  0  0  0  0  0  0
  -22.9254  -29.6325   25.5052 C   0  0  0  0  0  0  0  0  0  0  0  0
  -21.3910  -27.6562   25.4164 C   0  0  0  0  0  0  0  0  0  0  0  0
  -20.5088  -29.9403   24.9398 C   0  0  0  0  0  0  0  0  0  0  0  0
  -20.7281  -26.7989   18.8608 C   0  0  0  0  0  0  0  0  0  0  0  0
  -29.1441  -26.6896   18.7004 C   0  0  0  0  0  0  0  0  0  1  0  0
  -21.9995  -28.8079   23.2405 C   0  0  1  0  0  0  0  0  0  0  0  0
  -19.6736  -26.6927   21.1225 C   0  0  2  0  0  0  0  0  0  0  0  0
  -21.7286  -29.0109   24.7580 C   0  0  0  0  0  0  0  0  0  0  0  0
  -25.4712  -13.0906   21.5158 N   0  0  0  0  0  0  0  0  0  0  0  0
  -26.3441  -12.8382   20.5257 N   0  0  0  0  0  0  0  0  0  0  0  0
  -29.1874  -22.5840   17.5612 N   0  0  0  0  0  0  0  0  0  0  0  0
  -23.6192  -30.1401   21.9268 N   0  0  0  0  0  0  0  0  0  0  0  0
  -28.6273  -15.8876   20.7935 N   0  0  0  0  0  0  0  0  0  0  0  0
  -26.7262  -11.4342   18.6567 N   0  0  0  0  0  0  0  0  0  0  0  0
  -23.0231  -10.6093   18.6605 N   0  0  0  0  0  0  0  0  0  0  0  0
  -27.6829  -17.4715   19.3233 N   0  0  0  0  0  0  0  0  0  0  0  0
  -24.9246  -33.4057   22.5284 N   0  0  0  0  0  0  0  0  0  0  0  0
  -20.8735  -28.2458   22.5025 N   0  0  0  0  0  0  0  0  0  0  0  0
  -28.8407  -21.8201   15.4058 N   0  3  0  0  0  0  0  0  0  0  0  0
  -19.9372  -25.9982   19.8306 N   0  3  0  0  0  0  0  0  0  0  0  0
  -24.1086   -9.1156   20.0204 O   0  0  0  0  0  0  0  0  0  0  0  0
  -25.6215  -31.2940   23.2196 O   0  0  0  0  0  0  0  0  0  0  0  0
  -21.5523  -31.0291   22.5385 O   0  0  0  0  0  0  0  0  0  0  0  0
  -21.9956  -26.3773   21.7110 O   0  0  0  0  0  0  0  0  0  0  0  0
  -29.8969  -17.6461   19.9935 O   0  0  0  0  0  0  0  0  0  0  0  0
  -20.0656  -11.9959   24.6983 O   0  0  0  0  0  0  0  0  0  0  0  0
  -28.5460  -26.9918   19.9602 O   0  0  0  0  0  0  0  0  0  1  0  0
  -16.8600   -7.5152   24.4709 F   0  0  0  0  0  0  0  0  0  0  0  0
  -19.6862  -10.4086   26.9297 F   0  0  0  0  0  0  0  0  0  0  0  0
  -30.3933  -24.9615   19.6373 F   0  0  0  0  0  0  0  0  0  0  0  0
  -26.0460  -18.8617   17.7300 S   0  0  0  0  0  0  0  0  0  0  0  0
  1  2  1  0  0  0  0
  1  5  2  0  0  0  0
  2  6  2  0  0  0  0
  3  8  2  0  0  0  0
  3 17  1  0  0  0  0
  4  9  1  0  0  0  0
  4 17  2  0  0  0  0
  5 20  1  0  0  0  0
  6 22  1  0  0  0  0
  7 10  2  0  0  0  0
  7 21  1  0  0  0  0
  8 24  1  0  0  0  0
  9 24  2  0  0  0  0
 10 25  1  0  0  0  0
 11 12  2  0  0  0  0
 11 26  1  0  0  0  0
 12 27  1  0  0  0  0
 13 18  1  0  0  0  0
 13 31  2  0  0  0  0
 14 23  1  0  0  0  0
 14 25  2  0  0  0  0
 15 27  2  0  0  0  0
 15 28  1  0  0  0  0
 16 18  2  0  0  0  0
 16 86  1  0  0  0  0
 17 29  1  0  0  0  0
 18 32  1  0  0  0  0
 19 29  1  0  0  0  0
 19 30  2  0  0  0  0
 19 33  1  0  0  0  0
 20 22  2  0  0  0  0
 20 38  1  0  0  0  0
 21 23  2  0  0  0  0
 21 39  1  0  0  0  0
 22 51  1  0  0  0  0
 23 40  1  0  0  0  0
 24 81  1  0  0  0  0
 25 82  1  0  0  0  0
 26 28  2  0  0  0  0
 26 81  1  0  0  0  0
 27 83  1  0  0  0  0
 28 84  1  0  0  0  0
 29 64  2  0  0  0  0
 30 65  1  0  0  0  0
 30 69  1  0  0  0  0
 31 71  1  0  0  0  0
 31 86  1  0  0  0  0
 32 66  1  0  0  0  0
 32 74  2  0  0  0  0
 33 70  1  0  0  0  0
 33 76  2  0  0  0  0
 34 52  1  0  0  0  0
 34 72  1  0  0  0  0
 34 77  2  0  0  0  0
 35 61  1  0  0  0  0
 35 67  1  0  0  0  0
 35 78  2  0  0  0  0
 36 62  1  0  0  0  0
 36 73  1  0  0  0  0
 36 79  2  0  0  0  0
 37 68  1  0  0  0  0
 37 71  1  0  0  0  0
 37 80  2  0  0  0  0
 38 41  1  0  0  0  0
 39 52  1  0  0  0  0
 40 67  1  0  0  0  0
 41 43  1  0  0  0  0
 42 44  1  0  0  0  0
 42 47  1  0  0  0  0
 43 51  1  0  0  0  0
 44 53  1  0  0  0  0
 45 48  1  0  0  0  0
 45 54  1  0  0  0  0
 46 49  1  0  0  0  0
 46 54  1  0  0  0  0
 47 68  1  0  0  0  0
 48 66  1  0  0  0  0
 49 66  1  0  0  0  0
 50 53  1  0  0  0  0
 50 68  1  0  0  0  0
 51 72  1  0  0  0  0
 52 67  1  0  0  0  0
 53 65  1  0  0  0  0
 54 60  1  0  0  0  0
 54 85  1  0  0  0  0
 55 62  1  0  0  0  0
 56 63  1  0  0  0  0
 57 63  1  0  0  0  0
 58 63  1  0  0  0  0
 59 75  1  0  0  0  0
 60 82  1  0  0  0  0
 61 63  1  0  0  0  0
 61 73  1  0  0  0  0
 62 75  1  0  0  0  0
 64 65  1  0  0  0  0
M  CHG  2  74   1  75   1
M  ISO  4  37 100  60 101  71 100  82 101
M  END
> <Batch ID>
0156

> <Smiles>
CNC(C)C(=O)NC(C(=O)N1Cc2cc([101O:1][101CH2:1]C3(F)CCN(C(=N)c4csc([100NH:0][100C:0](=O)N5CCCC(n6nc(-c7ccc(Oc8ccc(F)cc8F)cc7)c(C(N)=O)c6N)C5)c4)CC3)ccc2CC1C(=O)NC1CCCc2ccccc21)C(C)(C)C

> <Shape>
0.313

> <Color>
0.079

> <Negative vol penalty>
0.000

$$$$

  -OEChem-04052303393D

 86 95  0     1  0  0  0  0  0999 V2000
  -27.1380  -27.3939   19.3578 C   0  0  0  0  0  0  0  0  0  0  0  0
  -26.5684  -26.5742   20.3268 C   0  0  0  0  0  0  0  0  0  0  0  0
  -28.6928  -12.9283   21.0677 C   0  0  0  0  0  0  0  0  0  0  0  0
  -28.1529  -13.1279   18.7213 C   0  0  0  0  0  0  0  0  0  0  0  0
  -26.6999  -28.7096   19.2140 C   0  0  0  0  0  0  0  0  0  0  0  0
  -25.5609  -27.0703   21.1535 C   0  0  0  0  0  0  0  0  0  0  0  0
  -21.7030  -23.8312   21.6725 C   0  0  0  0  0  0  0  0  0  0  0  0
  -30.0511  -13.0149   20.7625 C   0  0  0  0  0  0  0  0  0  0  0  0
  -29.5112  -13.2146   18.4161 C   0  0  0  0  0  0  0  0  0  0  0  0
  -21.8836  -22.7607   22.5472 C   0  0  0  0  0  0  0  0  0  0  0  0
  -33.6451  -13.5460   20.6359 C   0  0  0  0  0  0  0  0  0  0  0  0
  -34.4351  -14.3815   21.4254 C   0  0  0  0  0  0  0  0  0  0  0  0
  -20.6362  -23.9418   24.2408 C   0  0  0  0  0  0  0  0  0  0  0  0
  -33.0740  -16.2725   20.7864 C   0  0  0  0  0  0  0  0  0  0  0  0
  -27.7437  -12.9847   20.0470 C   0  0  0  0  0  0  0  0  0  0  0  0
  -25.4647  -13.9576   20.6533 C   0  0  0  0  0  0  0  0  0  0  0  0
  -25.6798  -29.2191   20.0329 C   0  0  0  0  0  0  0  0  0  0  0  0
  -20.9957  -24.9715   22.0797 C   0  0  0  0  0  0  0  0  0  0  0  0
  -25.1096  -28.3945   21.0214 C   0  0  0  0  0  0  0  0  0  0  0  0
  -20.4457  -25.0243   23.3684 C   0  0  0  0  0  0  0  0  0  0  0  0
  -30.4603  -13.1581   19.4368 C   0  0  0  0  0  0  0  0  0  0  0  0
  -21.3527  -22.8171   23.8325 C   0  0  0  0  0  0  0  0  0  0  0  0
  -32.5695  -14.0738   19.9215 C   0  0  0  0  0  0  0  0  0  0  0  0
  -34.1496  -15.7447   21.5007 C   0  0  0  0  0  0  0  0  0  0  0  0
  -32.2840  -15.4370   19.9968 C   0  0  0  0  0  0  0  0  0  0  0  0
  -26.3404  -12.8947   20.3615 C   0  0  0  0  0  0  0  0  0  0  0  0
  -20.5808  -14.5431   25.4322 C   0  0  0  0  0  0  0  0  0  0  0  0
  -20.1992  -15.3464   26.4863 C   0  0  0  0  0  0  0  0  0  0  0  0
  -24.2530  -13.3519   20.8797 C   0  0  0  0  0  0  0  0  0  0  0  0
  -20.9142  -16.9086   25.1231 C   0  0  0  0  0  0  0  0  0  0  0  0
  -25.7235  -15.3665   20.7141 C   0  0  0  0  0  0  0  0  0  0  0  0
  -21.7113  -28.0486   22.4303 C   0  0  0  0  0  0  0  0  0  0  0  0
  -18.5338  -28.3189   23.0240 C   0  0  0  0  0  0  0  0  0  0  0  0
  -21.1407  -19.4149   25.0928 C   0  0  0  0  0  0  0  0  0  0  0  0
  -15.6396  -26.8252   24.0435 C   0  0  0  0  0  0  0  0  0  0  0  0
  -21.1133   -9.4189   23.0212 C   0  0  0  0  0  0  0  0  0  0  0  0
  -25.2722  -30.6623   19.8717 C   0  0  0  0  0  0  0  0  0  0  0  0
  -20.7866  -26.1066   21.1152 C   0  0  0  0  0  0  0  0  0  0  0  0
  -19.6609  -26.2173   23.8475 C   0  0  0  0  0  0  0  0  0  0  0  0
  -23.9399  -30.9969   20.5374 C   0  0  0  0  0  0  0  0  0  0  0  0
  -22.7266   -8.6045   20.0740 C   0  0  0  0  0  0  0  0  0  0  0  0
  -23.8874  -30.4179   21.9476 C   0  0  0  0  0  0  0  0  0  0  0  0
  -23.7453   -9.7304   19.8963 C   0  0  0  0  0  0  0  0  0  0  0  0
  -19.5966  -12.6090   24.1247 C   0  0  0  0  0  0  0  0  0  0  0  0
  -21.9174  -12.4149   25.1131 C   0  0  0  0  0  0  0  0  0  0  0  0
  -22.6455   -8.1659   21.5319 C   0  0  0  0  0  0  0  0  0  0  0  0
  -19.5625  -11.0909   23.9653 C   0  0  0  0  0  0  0  0  0  0  0  0
  -21.8303  -10.9021   24.9333 C   0  0  0  0  0  0  0  0  0  0  0  0
  -23.3362  -10.4083   22.3124 C   0  0  0  0  0  0  0  0  0  0  0  0
  -23.9972  -28.8886   21.9207 C   0  0  1  0  0  0  0  0  0  0  0  0
  -20.5188  -13.0347   25.2801 C   0  0  0  0  0  0  0  0  0  0  0  0
  -20.4899  -27.4328   21.8084 C   0  0  1  0  0  0  0  0  0  0  0  0
  -23.4507  -10.8977   20.8548 C   0  0  1  0  0  0  0  0  0  0  0  0
  -19.6151  -14.8869   27.7628 C   0  0  0  0  0  0  0  0  0  0  0  0
  -13.2133  -27.3109   24.4616 C   0  0  0  0  0  0  0  0  0  0  0  0
  -19.2676  -29.7312   25.6273 C   0  0  0  0  0  0  0  0  0  0  0  0
  -16.9253  -29.3385   26.4193 C   0  0  0  0  0  0  0  0  0  0  0  0
  -17.3380  -30.7430   24.3995 C   0  0  0  0  0  0  0  0  0  0  0  0
  -14.7757  -24.8645   22.0019 C   0  0  0  0  0  0  0  0  0  0  0  0
  -21.6414  -20.4752   24.1297 C   0  0  0  0  0  0  0  0  0  1  0  0
  -17.6661  -28.2402   24.2569 C   0  0  1  0  0  0  0  0  0  0  0  0
  -14.2419  -26.8276   23.4511 C   0  0  2  0  0  0  0  0  0  0  0  0
  -17.8156  -29.4914   25.1677 C   0  0  0  0  0  0  0  0  0  0  0  0
  -25.7364  -11.7040   20.3987 N   0  0  0  0  0  0  0  0  0  0  0  0
  -20.3900  -16.7031   26.3110 N   0  0  0  0  0  0  0  0  0  0  0  0
  -24.4682  -12.0151   20.7165 N   0  0  0  0  0  0  0  0  0  0  0  0
  -19.4891  -27.3044   22.8696 N   0  0  0  0  0  0  0  0  0  0  0  0
  -22.3710   -9.3032   22.4099 N   0  0  0  0  0  0  0  0  0  0  0  0
  -20.9106  -10.5366   23.8474 N   0  0  0  0  0  0  0  0  0  0  0  0
  -23.0350  -13.8378   21.2005 N   0  0  0  0  0  0  0  0  0  0  0  0
  -27.0243  -15.8188   20.4540 N   0  0  0  0  0  0  0  0  0  0  0  0
  -21.2583  -18.1069   24.5559 N   0  0  0  0  0  0  0  0  0  0  0  0
  -22.7337  -28.2979   21.5347 N   0  0  0  0  0  0  0  0  0  0  0  0
  -16.3061  -28.0042   23.7845 N   0  0  0  0  0  0  0  0  0  0  0  0
  -13.8622  -25.4543   23.0142 N   0  3  0  0  0  0  0  0  0  0  0  0
  -24.8314  -16.1984   21.0069 O   0  0  0  0  0  0  0  0  0  0  0  0
  -21.7246  -28.2817   23.6333 O   0  0  0  0  0  0  0  0  0  0  0  0
  -18.3652  -29.2424   22.2238 O   0  0  0  0  0  0  0  0  0  0  0  0
  -20.6947  -19.7091   26.1970 O   0  0  0  0  0  0  0  0  0  0  0  0
  -16.0933  -25.8742   24.6763 O   0  0  0  0  0  0  0  0  0  0  0  0
  -20.2228   -8.5798   22.8375 O   0  0  0  0  0  0  0  0  0  0  0  0
  -31.7856  -13.2429   19.1387 O   0  0  0  0  0  0  0  0  0  0  0  0
  -21.5300  -21.7630   24.6975 O   0  0  0  0  0  0  0  0  0  1  0  0
  -34.9074  -16.5466   22.2602 F   0  0  0  0  0  0  0  0  0  0  0  0
  -31.2513  -15.9496   19.3137 F   0  0  0  0  0  0  0  0  0  0  0  0
  -21.2035  -15.5153   24.1640 S   0  0  0  0  0  0  0  0  0  0  0  0
  1  2  1  0  0  0  0
  1  5  2  0  0  0  0
  2  6  2  0  0  0  0
  3  8  2  0  0  0  0
  3 15  1  0  0  0  0
  4  9  1  0  0  0  0
  4 15  2  0  0  0  0
  5 17  1  0  0  0  0
  6 19  1  0  0  0  0
  7 10  2  0  0  0  0
  7 18  1  0  0  0  0
  8 21  1  0  0  0  0
  9 21  2  0  0  0  0
 10 22  1  0  0  0  0
 11 12  2  0  0  0  0
 11 23  1  0  0  0  0
 12 24  1  0  0  0  0
 13 20  1  0  0  0  0
 13 22  2  0  0  0  0
 14 24  2  0  0  0  0
 14 25  1  0  0  0  0
 15 26  1  0  0  0  0
 16 26  1  0  0  0  0
 16 29  2  0  0  0  0
 16 31  1  0  0  0  0
 17 19  2  0  0  0  0
 17 37  1  0  0  0  0
 18 20  2  0  0  0  0
 18 38  1  0  0  0  0
 19 50  1  0  0  0  0
 20 39  1  0  0  0  0
 21 82  1  0  0  0  0
 22 83  1  0  0  0  0
 23 25  2  0  0  0  0
 23 82  1  0  0  0  0
 24 84  1  0  0  0  0
 25 85  1  0  0  0  0
 26 64  2  0  0  0  0
 27 28  2  0  0  0  0
 27 51  1  0  0  0  0
 27 86  1  0  0  0  0
 28 54  1  0  0  0  0
 28 65  1  0  0  0  0
 29 66  1  0  0  0  0
 29 70  1  0  0  0  0
 30 65  2  0  0  0  0
 30 72  1  0  0  0  0
 30 86  1  0  0  0  0
 31 71  1  0  0  0  0
 31 76  2  0  0  0  0
 32 52  1  0  0  0  0
 32 73  1  0  0  0  0
 32 77  2  0  0  0  0
 33 61  1  0  0  0  0
 33 67  1  0  0  0  0
 33 78  2  0  0  0  0
 34 60  1  0  0  0  0
 34 72  1  0  0  0  0
 34 79  2  0  0  0  0
 35 62  1  0  0  0  0
 35 74  1  0  0  0  0
 35 80  2  0  0  0  0
 36 68  1  0  0  0  0
 36 69  1  0  0  0  0
 36 81  2  0  0  0  0
 37 40  1  0  0  0  0
 38 52  1  0  0  0  0
 39 67  1  0  0  0  0
 40 42  1  0  0  0  0
 41 43  1  0  0  0  0
 41 46  1  0  0  0  0
 42 50  1  0  0  0  0
 43 53  1  0  0  0  0
 44 47  1  0  0  0  0
 44 51  1  0  0  0  0
 45 48  1  0  0  0  0
 45 51  1  0  0  0  0
 46 68  1  0  0  0  0
 47 69  1  0  0  0  0
 48 69  1  0  0  0  0
 49 53  1  0  0  0  0
 49 68  1  0  0  0  0
 50 73  1  0  0  0  0
 52 67  1  0  0  0  0
 53 66  1  0  0  0  0
 55 62  1  0  0  0  0
 56 63  1  0  0  0  0
 57 63  1  0  0  0  0
 58 63  1  0  0  0  0
 59 75  1  0  0  0  0
 60 83  1  0  0  0  0
 61 63  1  0  0  0  0
 61 74  1  0  0  0  0
 62 75  1  0  0  0  0
 64 66  1  0  0  0  0
M  CHG  1  75   1
M  ISO  4  36 100  60 101  69 100  83 101
M  END
> <Batch ID>
0156

> <Smiles>
CNC(C)C(=O)NC(C(=O)N1Cc2cc([101O:1][101CH2:1]C(=O)Nc3nc(C)c(C4CC[100N:0]([100C:0](=O)N5CCCC(n6nc(-c7ccc(Oc8ccc(F)cc8F)cc7)c(C(N)=O)c6N)C5)CC4)s3)ccc2CC1C(=O)NC1CCCc2ccccc21)C(C)(C)C

> <Shape>
0.235

> <Color>
0.122

> <Negative vol penalty>
0.000

$$$$

  -OEChem-04052303393D

 84 93  0     1  0  0  0  0  0999 V2000
  -17.3589  -32.3830   23.8436 C   0  0  0  0  0  0  0  0  0  0  0  0
  -18.6962  -32.7623   23.9004 C   0  0  0  0  0  0  0  0  0  0  0  0
  -24.4668  -14.0349   20.3905 C   0  0  0  0  0  0  0  0  0  0  0  0
  -26.7321  -13.7743   21.1889 C   0  0  0  0  0  0  0  0  0  0  0  0
  -17.0216  -31.0332   23.7533 C   0  0  0  0  0  0  0  0  0  0  0  0
  -19.6970  -31.7918   23.8680 C   0  0  0  0  0  0  0  0  0  0  0  0
  -26.3865  -30.7464   21.5284 C   0  0  0  0  0  0  0  0  0  0  0  0
  -24.3728  -12.6554   20.2068 C   0  0  0  0  0  0  0  0  0  0  0  0
  -26.6382  -12.3948   21.0052 C   0  0  0  0  0  0  0  0  0  0  0  0
  -27.6337  -30.3232   21.9857 C   0  0  0  0  0  0  0  0  0  0  0  0
  -23.4122   -9.1658   19.8681 C   0  0  0  0  0  0  0  0  0  0  0  0
  -22.2513   -8.5304   20.3088 C   0  0  0  0  0  0  0  0  0  0  0  0
  -26.9346  -28.0266   21.7486 C   0  0  0  0  0  0  0  0  0  0  0  0
  -30.0591  -24.3371   21.3499 C   0  0  0  0  0  0  0  0  0  0  0  0
  -22.6964   -9.2801   22.5620 C   0  0  0  0  0  0  0  0  0  0  0  0
  -30.1472  -24.1423   23.5704 C   0  0  0  0  0  0  0  0  0  0  0  0
  -25.6465  -14.5944   20.8816 C   0  0  0  0  0  0  0  0  0  0  0  0
  -25.4193  -16.7469   22.2316 C   0  0  0  0  0  0  0  0  0  0  0  0
  -18.0189  -30.0463   23.7100 C   0  0  0  0  0  0  0  0  0  0  0  0
  -25.3986  -29.8114   21.1875 C   0  0  0  0  0  0  0  0  0  0  0  0
  -19.3726  -30.4274   23.7784 C   0  0  0  0  0  0  0  0  0  0  0  0
  -25.6766  -28.4405   21.2848 C   0  0  0  0  0  0  0  0  0  0  0  0
  -30.4214  -25.0116   22.5403 C   0  0  0  0  0  0  0  0  0  0  0  0
  -25.4585  -11.8353   20.5141 C   0  0  0  0  0  0  0  0  0  0  0  0
  -27.9069  -28.9632   22.0987 C   0  0  0  0  0  0  0  0  0  0  0  0
  -24.2153   -9.8582   20.7744 C   0  0  0  0  0  0  0  0  0  0  0  0
  -21.8934   -8.5876   21.6558 C   0  0  0  0  0  0  0  0  0  0  0  0
  -23.8574   -9.9154   22.1213 C   0  0  0  0  0  0  0  0  0  0  0  0
  -25.7443  -16.0194   21.0711 C   0  0  0  0  0  0  0  0  0  0  0  0
  -25.6861  -18.0537   21.9036 C   0  0  0  0  0  0  0  0  0  0  0  0
  -29.5896  -23.1037   21.7374 C   0  0  0  0  0  0  0  0  0  0  0  0
  -24.9208  -16.2830   23.4933 C   0  0  0  0  0  0  0  0  0  0  0  0
  -22.4840  -29.1354   22.2609 C   0  0  0  0  0  0  0  0  0  0  0  0
  -22.4467  -27.1051   19.7313 C   0  0  0  0  0  0  0  0  0  0  0  0
  -24.2163  -25.2427   17.4848 C   0  0  0  0  0  0  0  0  0  0  0  0
  -28.9568  -21.9275   19.6015 C   0  0  0  0  0  0  0  0  0  0  0  0
  -17.6044  -28.5970   23.6598 C   0  0  0  0  0  0  0  0  0  0  0  0
  -24.0675  -30.2839   20.6704 C   0  0  0  0  0  0  0  0  0  0  0  0
  -24.6572  -27.3962   20.9122 C   0  0  0  0  0  0  0  0  0  0  0  0
  -18.7339  -27.6542   23.2530 C   0  0  0  0  0  0  0  0  0  0  0  0
  -26.7411  -20.1780   17.4319 C   0  0  0  0  0  0  0  0  0  0  0  0
  -20.0073  -27.9817   24.0264 C   0  0  0  0  0  0  0  0  0  0  0  0
  -26.2575  -18.9999   18.2807 C   0  0  0  0  0  0  0  0  0  0  0  0
  -32.0747  -28.1577   23.5148 C   0  0  0  0  0  0  0  0  0  0  0  0
  -28.2075  -20.5088   17.7039 C   0  0  0  0  0  0  0  0  0  0  0  0
  -31.2933  -26.9119   23.9227 C   0  0  0  0  0  0  0  0  0  0  0  0
  -28.0603  -19.5444   19.9661 C   0  0  0  0  0  0  0  0  0  0  0  0
  -31.2123  -27.1603   21.5140 C   0  0  0  0  0  0  0  0  0  0  0  0
  -20.4874  -29.4057   23.7209 C   0  0  1  0  0  0  0  0  0  0  0  0
  -22.9592  -29.2493   20.8400 C   0  0  1  0  0  0  0  0  0  0  0  0
  -26.5708  -19.2155   19.7743 C   0  0  2  0  0  0  0  0  0  0  0  0
  -31.4971  -28.5293   22.1493 C   0  0  1  0  0  0  0  0  0  0  0  0
  -23.9085  -23.6589   15.5628 C   0  0  0  0  0  0  0  0  0  0  0  0
  -21.6967  -24.8843   21.6847 C   0  0  0  0  0  0  0  0  0  0  0  0
  -22.3298  -23.2188   19.9258 C   0  0  0  0  0  0  0  0  0  0  0  0
  -20.4637  -24.8211   19.5098 C   0  0  0  0  0  0  0  0  0  0  0  0
  -25.6386  -27.0471   15.6192 C   0  0  0  0  0  0  0  0  0  0  0  0
  -32.8699  -30.4272   22.0628 C   0  0  0  0  0  0  0  0  0  0  0  0
  -30.2403  -29.3907   22.2674 C   0  0  0  0  0  0  0  0  0  1  0  0
  -22.8465  -25.6664   19.5092 C   0  0  1  0  0  0  0  0  0  0  0  0
  -24.1039  -25.1091   15.9768 C   0  0  2  0  0  0  0  0  0  0  0  0
  -21.8529  -24.6671   20.1663 C   0  0  0  0  0  0  0  0  0  0  0  0
  -26.1839  -16.7992   20.0798 N   0  0  0  0  0  0  0  0  0  0  0  0
  -26.1369  -18.0304   20.6165 N   0  0  0  0  0  0  0  0  0  0  0  0
  -30.9434  -26.2832   22.6522 N   0  0  3  0  0  0  0  0  0  0  0  0
  -23.3684  -27.9083   20.4178 N   0  0  0  0  0  0  0  0  0  0  0  0
  -28.4284  -20.7039   19.1384 N   0  0  0  0  0  0  0  0  0  0  0  0
  -25.5767  -19.2090   22.5933 N   0  0  0  0  0  0  0  0  0  0  0  0
  -24.7027  -14.9087   23.6611 N   0  0  0  0  0  0  0  0  0  0  0  0
  -29.0922  -22.0096   20.9869 N   0  0  0  0  0  0  0  0  0  0  0  0
  -21.1499  -29.4507   22.4350 N   0  0  0  0  0  0  0  0  0  0  0  0
  -22.9936  -25.5016   18.0672 N   0  0  0  0  0  0  0  0  0  0  0  0
  -25.3375  -25.6238   15.3178 N   0  3  0  0  0  0  0  0  0  0  0  0
  -24.6604  -17.0657   24.4383 O   0  0  0  0  0  0  0  0  0  0  0  0
  -23.2692  -28.7859   23.1344 O   0  0  0  0  0  0  0  0  0  0  0  0
  -21.3600  -27.5035   19.3049 O   0  0  0  0  0  0  0  0  0  0  0  0
  -25.2816  -25.1253   18.0864 O   0  0  0  0  0  0  0  0  0  0  0  0
  -29.2408  -22.8458   18.8281 O   0  0  0  0  0  0  0  0  0  0  0  0
  -29.6400  -22.9770   23.0895 O   0  0  0  0  0  0  0  0  0  0  0  0
  -25.3671  -10.4892   20.3351 O   0  0  0  0  0  0  0  0  0  0  0  0
  -29.1232  -28.5474   22.5454 O   0  0  0  0  0  0  0  0  0  1  0  0
  -32.4747  -29.2368   21.3998 O   0  0  0  0  0  0  0  0  0  0  0  0
  -20.7778   -7.9787   22.0786 F   0  0  0  0  0  0  0  0  0  0  0  0
  -24.6243  -10.5801   22.9964 F   0  0  0  0  0  0  0  0  0  0  0  0
  1  2  1  0  0  0  0
  1  5  2  0  0  0  0
  2  6  2  0  0  0  0
  3  8  2  0  0  0  0
  3 17  1  0  0  0  0
  4  9  1  0  0  0  0
  4 17  2  0  0  0  0
  5 19  1  0  0  0  0
  6 21  1  0  0  0  0
  7 10  2  0  0  0  0
  7 20  1  0  0  0  0
  8 24  1  0  0  0  0
  9 24  2  0  0  0  0
 10 25  1  0  0  0  0
 11 12  2  0  0  0  0
 11 26  1  0  0  0  0
 12 27  1  0  0  0  0
 13 22  1  0  0  0  0
 13 25  2  0  0  0  0
 14 23  1  0  0  0  0
 14 31  2  0  0  0  0
 15 27  2  0  0  0  0
 15 28  1  0  0  0  0
 16 23  2  0  0  0  0
 16 79  1  0  0  0  0
 17 29  1  0  0  0  0
 18 29  1  0  0  0  0
 18 30  2  0  0  0  0
 18 32  1  0  0  0  0
 19 21  2  0  0  0  0
 19 37  1  0  0  0  0
 20 22  2  0  0  0  0
 20 38  1  0  0  0  0
 21 49  1  0  0  0  0
 22 39  1  0  0  0  0
 23 65  1  0  0  0  0
 24 80  1  0  0  0  0
 25 81  1  0  0  0  0
 26 28  2  0  0  0  0
 26 80  1  0  0  0  0
 27 83  1  0  0  0  0
 28 84  1  0  0  0  0
 29 63  2  0  0  0  0
 30 64  1  0  0  0  0
 30 68  1  0  0  0  0
 31 70  1  0  0  0  0
 31 79  1  0  0  0  0
 32 69  1  0  0  0  0
 32 74  2  0  0  0  0
 33 50  1  0  0  0  0
 33 71  1  0  0  0  0
 33 75  2  0  0  0  0
 34 60  1  0  0  0  0
 34 66  1  0  0  0  0
 34 76  2  0  0  0  0
 35 61  1  0  0  0  0
 35 72  1  0  0  0  0
 35 77  2  0  0  0  0
 36 67  1  0  0  0  0
 36 70  1  0  0  0  0
 36 78  2  0  0  0  0
 37 40  1  0  0  0  0
 38 50  1  0  0  0  0
 39 66  1  0  0  0  0
 40 42  1  0  0  0  0
 41 43  1  0  0  0  0
 41 45  1  0  0  0  0
 42 49  1  0  0  0  0
 43 51  1  0  0  0  0
 44 46  1  0  0  0  0
 44 52  1  0  0  0  0
 45 67  1  0  0  0  0
 46 65  1  0  0  0  0
 47 51  1  0  0  0  0
 47 67  1  0  0  0  0
 48 52  1  0  0  0  0
 48 65  1  0  0  0  0
 49 71  1  0  0  0  0
 50 66  1  0  0  0  0
 51 64  1  0  0  0  0
 52 59  1  0  0  0  0
 52 82  1  0  0  0  0
 53 61  1  0  0  0  0
 54 62  1  0  0  0  0
 55 62  1  0  0  0  0
 56 62  1  0  0  0  0
 57 73  1  0  0  0  0
 58 82  1  0  0  0  0
 59 81  1  0  0  0  0
 60 62  1  0  0  0  0
 60 72  1  0  0  0  0
 61 73  1  0  0  0  0
 63 64  1  0  0  0  0
M  CHG  1  73   1
M  ISO  4  36 100  59 101  70 100  81 101
M  END
> <Batch ID>
0156

> <Smiles>
CNC(C)C(=O)NC(C(=O)N1Cc2cc([101O:1][101CH2:1]C3(OC)CCN(c4coc([100NH:0][100C:0](=O)N5CCCC(n6nc(-c7ccc(Oc8ccc(F)cc8F)cc7)c(C(N)=O)c6N)C5)c4)C3)ccc2CC1C(=O)NC1CCCc2ccccc21)C(C)(C)C

> <Shape>
0.231

> <Color>
0.098

> <Negative vol penalty>
0.000

$$$$

  -OEChem-04052303393D

 85 95  0     1  0  0  0  0  0999 V2000
  -24.0509  -32.8696   26.7185 C   0  0  0  0  0  0  0  0  0  0  0  0
  -24.4537  -31.5416   26.8165 C   0  0  0  0  0  0  0  0  0  0  0  0
  -23.0736   -9.8657   19.9436 C   0  0  0  0  0  0  0  0  0  0  0  0
  -23.8336   -9.8744   22.2369 C   0  0  0  0  0  0  0  0  0  0  0  0
  -24.0438  -33.5049   25.4775 C   0  0  0  0  0  0  0  0  0  0  0  0
  -24.8487  -30.8478   25.6732 C   0  0  0  0  0  0  0  0  0  0  0  0
  -29.1973  -26.5525   25.2919 C   0  0  0  0  0  0  0  0  0  0  0  0
  -22.3292   -8.7131   20.1946 C   0  0  0  0  0  0  0  0  0  0  0  0
  -23.0891   -8.7218   22.4880 C   0  0  0  0  0  0  0  0  0  0  0  0
  -29.1413  -25.1595   25.2800 C   0  0  0  0  0  0  0  0  0  0  0  0
  -19.8606   -7.9261   23.0914 C   0  0  0  0  0  0  0  0  0  0  0  0
  -19.1037   -7.8876   24.2624 C   0  0  0  0  0  0  0  0  0  0  0  0
  -29.2087  -25.1835   22.8687 C   0  0  0  0  0  0  0  0  0  0  0  0
  -31.7980  -17.5490   21.7038 C   0  0  0  0  0  0  0  0  0  0  0  0
  -20.3442   -5.9502   25.0005 C   0  0  0  0  0  0  0  0  0  0  0  0
  -23.8259  -10.4463   20.9647 C   0  0  0  0  0  0  0  0  0  0  0  0
  -24.1689  -12.9712   20.8424 C   0  0  0  0  0  0  0  0  0  0  0  0
  -24.4481  -32.8215   24.3199 C   0  0  0  0  0  0  0  0  0  0  0  0
  -29.2485  -27.2731   24.0901 C   0  0  0  0  0  0  0  0  0  0  0  0
  -24.8458  -31.4743   24.4153 C   0  0  0  0  0  0  0  0  0  0  0  0
  -29.2679  -26.5855   22.8682 C   0  0  0  0  0  0  0  0  0  0  0  0
  -31.8854  -18.8086   22.3642 C   0  0  0  0  0  0  0  0  0  0  0  0
  -22.3369   -8.1412   21.4668 C   0  0  0  0  0  0  0  0  0  0  0  0
  -29.1441  -24.4749   24.0682 C   0  0  0  0  0  0  0  0  0  0  0  0
  -20.8593   -6.9766   22.8749 C   0  0  0  0  0  0  0  0  0  0  0  0
  -19.3455   -6.8997   25.2169 C   0  0  0  0  0  0  0  0  0  0  0  0
  -21.1011   -5.9887   23.8295 C   0  0  0  0  0  0  0  0  0  0  0  0
  -24.5955  -11.6365   20.7059 C   0  0  0  0  0  0  0  0  0  0  0  0
  -25.2614  -13.7198   20.4784 C   0  0  0  0  0  0  0  0  0  0  0  0
  -30.7376  -19.1060   23.0653 C   0  0  0  0  0  0  0  0  0  0  0  0
  -30.5865  -16.9316   21.9257 C   0  0  0  0  0  0  0  0  0  0  0  0
  -30.8440  -21.5592   23.6815 C   0  0  0  0  0  0  0  0  0  0  0  0
  -22.8987  -13.4880   21.2609 C   0  0  0  0  0  0  0  0  0  0  0  0
  -27.3707  -29.4125   22.6756 C   0  0  0  0  0  0  0  0  0  0  0  0
  -29.8174  -29.5794   20.5523 C   0  0  0  0  0  0  0  0  0  0  0  0
  -32.5284  -28.0699   19.1314 C   0  0  0  0  0  0  0  0  0  0  0  0
  -30.7282  -14.7627   20.6519 C   0  0  0  0  0  0  0  0  0  0  0  0
  -24.3786  -33.5360   22.9935 C   0  0  0  0  0  0  0  0  0  0  0  0
  -29.3356  -28.7744   24.1207 C   0  0  0  0  0  0  0  0  0  0  0  0
  -29.3423  -27.3116   21.5507 C   0  0  0  0  0  0  0  0  0  0  0  0
  -25.1689  -32.8433   21.8863 C   0  0  0  0  0  0  0  0  0  0  0  0
  -29.6124  -12.3475   18.2858 C   0  0  0  0  0  0  0  0  0  0  0  0
  -34.4610  -19.1549   22.7081 C   0  0  0  0  0  0  0  0  0  0  0  0
  -33.7749  -20.1544   23.5859 C   0  0  0  0  0  0  0  0  0  0  0  0
  -24.8785  -31.3458   21.8799 C   0  0  0  0  0  0  0  0  0  0  0  0
  -28.1726  -12.0570   18.7157 C   0  0  0  0  0  0  0  0  0  0  0  0
  -29.6093  -21.4329   25.7283 C   0  0  0  0  0  0  0  0  0  0  0  0
  -30.5277  -12.5768   19.4872 C   0  0  0  0  0  0  0  0  0  0  0  0
  -29.4142  -20.1561   24.9316 C   0  0  0  0  0  0  0  0  0  0  0  0
  -28.6212  -13.3034   20.8679 C   0  0  0  0  0  0  0  0  0  0  0  0
  -33.1149  -19.7146   22.2947 C   0  0  0  0  0  0  0  0  0  0  0  0
  -25.3049  -30.6956   23.2016 C   0  0  1  0  0  0  0  0  0  0  0  0
  -30.1350  -22.4219   24.7034 C   0  0  2  0  0  0  0  0  0  1  0  0
  -28.8659  -29.4268   22.8241 C   0  0  1  0  0  0  0  0  0  0  0  0
  -27.6482  -13.1297   19.6903 C   0  0  2  0  0  0  0  0  0  0  0  0
  -34.3050  -28.4388   17.3979 C   0  0  0  0  0  0  0  0  0  0  0  0
  -27.7774  -29.0358   18.3494 C   0  0  0  0  0  0  0  0  0  0  0  0
  -29.6803  -28.4770   16.8213 C   0  0  0  0  0  0  0  0  0  0  0  0
  -29.4873  -30.7707   17.7829 C   0  0  0  0  0  0  0  0  0  0  0  0
  -34.6937  -27.8529   21.1372 C   0  0  0  0  0  0  0  0  0  0  0  0
  -30.1793  -28.8537   19.2790 C   0  0  1  0  0  0  0  0  0  0  0  0
  -33.9370  -28.5706   18.8676 C   0  0  2  0  0  0  0  0  0  0  0  0
  -29.2777  -29.2704   18.0827 C   0  0  0  0  0  0  0  0  0  0  0  0
  -25.8603  -11.5397   20.2876 N   0  0  0  0  0  0  0  0  0  0  0  0
  -26.2378  -12.8230   20.1581 N   0  0  0  0  0  0  0  0  0  0  0  0
  -30.3877  -20.2392   23.8593 N   0  0  0  0  0  0  0  0  0  0  0  0
  -29.4194  -28.7795   21.6329 N   0  0  0  0  0  0  0  0  0  0  0  0
  -29.9693  -13.6087   20.3637 N   0  0  0  0  0  0  0  0  0  0  0  0
  -25.4725  -15.0511   20.4041 N   0  0  0  0  0  0  0  0  0  0  0  0
  -21.8863  -12.5796   21.5990 N   0  0  0  0  0  0  0  0  0  0  0  0
  -30.0813  -15.6888   21.4696 N   0  0  0  0  0  0  0  0  0  0  0  0
  -26.7396  -30.5081   23.2330 N   0  0  0  0  0  0  0  0  0  0  0  0
  -31.6029  -29.0899   19.0650 N   0  0  0  0  0  0  0  0  0  0  0  0
  -34.9222  -27.7924   19.6705 N   0  3  0  0  0  0  0  0  0  0  0  0
  -31.6093  -22.0214   22.8475 O   0  0  0  0  0  0  0  0  0  0  0  0
  -22.6630  -14.7188   21.3171 O   0  0  0  0  0  0  0  0  0  0  0  0
  -26.8299  -28.4775   22.0969 O   0  0  0  0  0  0  0  0  0  0  0  0
  -29.8922  -30.8101   20.5892 O   0  0  0  0  0  0  0  0  0  0  0  0
  -32.2740  -26.8911   19.3687 O   0  0  0  0  0  0  0  0  0  0  0  0
  -31.8573  -14.9305   20.1841 O   0  0  0  0  0  0  0  0  0  0  0  0
  -21.6104   -7.0167   21.7122 O   0  0  0  0  0  0  0  0  0  0  0  0
  -29.0888  -23.1152   24.0536 O   0  0  0  0  0  0  0  0  0  1  0  0
  -18.6196   -6.8638   26.3421 F   0  0  0  0  0  0  0  0  0  0  0  0
  -22.0599   -5.0746   23.6277 F   0  0  0  0  0  0  0  0  0  0  0  0
  -29.5611  -17.8695   22.9262 S   0  0  0  0  0  0  0  0  0  0  0  0
  1  2  1  0  0  0  0
  1  5  2  0  0  0  0
  2  6  2  0  0  0  0
  3  8  2  0  0  0  0
  3 16  1  0  0  0  0
  4  9  1  0  0  0  0
  4 16  2  0  0  0  0
  5 18  1  0  0  0  0
  6 20  1  0  0  0  0
  7 10  2  0  0  0  0
  7 19  1  0  0  0  0
  8 23  1  0  0  0  0
  9 23  2  0  0  0  0
 10 24  1  0  0  0  0
 11 12  2  0  0  0  0
 11 25  1  0  0  0  0
 12 26  1  0  0  0  0
 13 21  1  0  0  0  0
 13 24  2  0  0  0  0
 14 22  1  0  0  0  0
 14 31  2  0  0  0  0
 15 26  2  0  0  0  0
 15 27  1  0  0  0  0
 16 28  1  0  0  0  0
 17 28  1  0  0  0  0
 17 29  2  0  0  0  0
 17 33  1  0  0  0  0
 18 20  2  0  0  0  0
 18 38  1  0  0  0  0
 19 21  2  0  0  0  0
 19 39  1  0  0  0  0
 20 52  1  0  0  0  0
 21 40  1  0  0  0  0
 22 30  2  0  0  0  0
 22 51  1  0  0  0  0
 23 81  1  0  0  0  0
 24 82  1  0  0  0  0
 25 27  2  0  0  0  0
 25 81  1  0  0  0  0
 26 83  1  0  0  0  0
 27 84  1  0  0  0  0
 28 64  2  0  0  0  0
 29 65  1  0  0  0  0
 29 69  1  0  0  0  0
 30 66  1  0  0  0  0
 30 85  1  0  0  0  0
 31 71  1  0  0  0  0
 31 85  1  0  0  0  0
 32 53  1  0  0  0  0
 32 66  1  0  0  0  0
 32 75  2  0  0  0  0
 33 70  1  0  0  0  0
 33 76  2  0  0  0  0
 34 54  1  0  0  0  0
 34 72  1  0  0  0  0
 34 77  2  0  0  0  0
 35 61  1  0  0  0  0
 35 67  1  0  0  0  0
 35 78  2  0  0  0  0
 36 62  1  0  0  0  0
 36 73  1  0  0  0  0
 36 79  2  0  0  0  0
 37 68  1  0  0  0  0
 37 71  1  0  0  0  0
 37 80  2  0  0  0  0
 38 41  1  0  0  0  0
 39 54  1  0  0  0  0
 40 67  1  0  0  0  0
 41 45  1  0  0  0  0
 42 46  1  0  0  0  0
 42 48  1  0  0  0  0
 43 44  1  0  0  0  0
 43 51  1  0  0  0  0
 44 51  1  0  0  0  0
 45 52  1  0  0  0  0
 46 55  1  0  0  0  0
 47 49  1  0  0  0  0
 47 53  1  0  0  0  0
 48 68  1  0  0  0  0
 49 66  1  0  0  0  0
 50 55  1  0  0  0  0
 50 68  1  0  0  0  0
 52 72  1  0  0  0  0
 53 82  1  0  0  0  0
 54 67  1  0  0  0  0
 55 65  1  0  0  0  0
 56 62  1  0  0  0  0
 57 63  1  0  0  0  0
 58 63  1  0  0  0  0
 59 63  1  0  0  0  0
 60 74  1  0  0  0  0
 61 63  1  0  0  0  0
 61 73  1  0  0  0  0
 62 74  1  0  0  0  0
 64 65  1  0  0  0  0
M  CHG  1  74   1
M  ISO  4  37 100  53 101  71 100  82 101
M  END
> <Batch ID>
0156

> <Smiles>
CNC(C)C(=O)NC(C(=O)N1Cc2cc([101O:1][101CH:1]3CCN(c4sc([100NH:0][100C:0](=O)N5CCCC(n6nc(-c7ccc(Oc8ccc(F)cc8F)cc7)c(C(N)=O)c6N)C5)cc4C4CC4)C3=O)ccc2CC1C(=O)NC1CCCc2ccccc21)C(C)(C)C

> <Shape>
0.258

> <Color>
0.192

> <Negative vol penalty>
0.000

$$$$

  -OEChem-04052303393D

 89 97  0     1  0  0  0  0  0999 V2000
  -31.9713  -32.4056   25.5274 C   0  0  0  0  0  0  0  0  0  0  0  0
  -31.6720  -31.6154   24.4223 C   0  0  0  0  0  0  0  0  0  0  0  0
  -24.7331   -8.5666   21.6010 C   0  0  0  0  0  0  0  0  0  0  0  0
  -23.4546  -10.3879   22.5420 C   0  0  0  0  0  0  0  0  0  0  0  0
  -31.0272  -32.5729   26.5396 C   0  0  0  0  0  0  0  0  0  0  0  0
  -30.4286  -30.9910   24.3293 C   0  0  0  0  0  0  0  0  0  0  0  0
  -27.1994  -29.9593   19.2289 C   0  0  0  0  0  0  0  0  0  0  0  0
  -27.8092  -20.6071   18.8223 C   0  0  0  0  0  0  0  0  0  0  0  0
  -28.1662  -19.2995   19.1517 C   0  0  0  0  0  0  0  0  0  0  0  0
  -24.1173   -7.6786   22.4829 C   0  0  0  0  0  0  0  0  0  0  0  0
  -22.8387   -9.4999   23.4239 C   0  0  0  0  0  0  0  0  0  0  0  0
  -27.0556  -28.8317   18.4218 C   0  0  0  0  0  0  0  0  0  0  0  0
  -21.1557   -6.0660   22.7308 C   0  0  0  0  0  0  0  0  0  0  0  0
  -20.6970   -4.8538   22.2152 C   0  0  0  0  0  0  0  0  0  0  0  0
  -25.0331  -28.2522   19.6020 C   0  0  0  0  0  0  0  0  0  0  0  0
  -22.1564   -3.6592   23.7252 C   0  0  0  0  0  0  0  0  0  0  0  0
  -24.4018   -9.9213   21.6306 C   0  0  0  0  0  0  0  0  0  0  0  0
  -25.9238  -19.7747   17.5615 C   0  0  0  0  0  0  0  0  0  0  0  0
  -24.6006  -11.1984   19.4312 C   0  0  0  0  0  0  0  0  0  0  0  0
  -29.7681  -31.9580   26.4544 C   0  0  0  0  0  0  0  0  0  0  0  0
  -26.2655  -30.2365   20.2375 C   0  0  0  0  0  0  0  0  0  0  0  0
  -29.4673  -31.1491   25.3420 C   0  0  0  0  0  0  0  0  0  0  0  0
  -25.1659  -29.3854   20.4189 C   0  0  0  0  0  0  0  0  0  0  0  0
  -26.6880  -20.8447   18.0272 C   0  0  0  0  0  0  0  0  0  0  0  0
  -27.4021  -18.2296   18.6860 C   0  0  0  0  0  0  0  0  0  0  0  0
  -23.1701   -8.1452   23.3944 C   0  0  0  0  0  0  0  0  0  0  0  0
  -25.9739  -27.9763   18.6102 C   0  0  0  0  0  0  0  0  0  0  0  0
  -22.1149   -6.0748   23.7436 C   0  0  0  0  0  0  0  0  0  0  0  0
  -21.1973   -3.6504   22.7124 C   0  0  0  0  0  0  0  0  0  0  0  0
  -22.6152   -4.8714   24.2408 C   0  0  0  0  0  0  0  0  0  0  0  0
  -26.2809  -18.4672   17.8908 C   0  0  0  0  0  0  0  0  0  0  0  0
  -25.0380  -10.8392   20.7202 C   0  0  0  0  0  0  0  0  0  0  0  0
  -25.5436  -12.0919   18.9852 C   0  0  0  0  0  0  0  0  0  0  0  0
  -26.4112  -25.7087   18.2394 C   0  0  0  0  0  0  0  0  0  1  0  0
  -24.7482  -19.9939   16.7277 C   0  0  0  0  0  0  0  0  0  0  0  0
  -23.4452  -10.7633   18.7023 C   0  0  0  0  0  0  0  0  0  0  0  0
  -26.3349  -24.5664   17.5461 C   0  0  0  0  0  0  0  0  0  0  0  0
  -27.0053  -23.3399   18.0887 C   0  0  0  0  0  0  0  0  0  0  0  0
  -26.3916  -30.4887   23.4036 C   0  0  0  0  0  0  0  0  0  0  0  0
  -23.3069  -31.4320   23.0616 C   0  0  0  0  0  0  0  0  0  0  0  0
  -20.4565  -31.3934   21.1853 C   0  0  0  0  0  0  0  0  0  0  0  0
  -28.8507  -16.4965   19.8013 C   0  0  0  0  0  0  0  0  0  0  0  0
  -28.7976  -32.1298   27.5960 C   0  0  0  0  0  0  0  0  0  0  0  0
  -26.4203  -31.4714   21.0821 C   0  0  0  0  0  0  0  0  0  0  0  0
  -24.1245  -29.6494   21.4744 C   0  0  0  0  0  0  0  0  0  0  0  0
  -27.3654  -31.7375   27.2422 C   0  0  0  0  0  0  0  0  0  0  0  0
  -30.0669  -13.3318   20.8890 C   0  0  0  0  0  0  0  0  0  0  0  0
  -27.3436  -30.3978   26.5129 C   0  0  0  0  0  0  0  0  0  0  0  0
  -28.8310  -12.4308   20.8360 C   0  0  0  0  0  0  0  0  0  0  0  0
  -29.7169  -14.7486   21.3407 C   0  0  0  0  0  0  0  0  0  0  0  0
  -27.4064  -14.4948   20.5244 C   0  0  0  0  0  0  0  0  0  0  0  0
  -28.1204  -30.4754   25.1931 C   0  0  1  0  0  0  0  0  0  0  0  0
  -25.6884  -31.3778   22.4174 C   0  0  1  0  0  0  0  0  0  0  0  0
  -27.6988  -13.0750   20.0123 C   0  0  2  0  0  0  0  0  0  0  0  0
  -22.7848  -18.5215   16.1989 C   0  0  0  0  0  0  0  0  0  0  0  0
  -22.4094  -20.6873   17.4074 C   0  0  0  0  0  0  0  0  0  0  0  0
  -18.0879  -32.2222   21.1836 C   0  0  0  0  0  0  0  0  0  0  0  0
  -22.5550  -29.2800   25.0898 C   0  0  0  0  0  0  0  0  0  0  0  0
  -20.1760  -29.5059   24.3431 C   0  0  0  0  0  0  0  0  0  0  0  0
  -21.3472  -31.4511   25.3762 C   0  0  0  0  0  0  0  0  0  0  0  0
  -20.8864  -32.9669   18.7158 C   0  0  0  0  0  0  0  0  0  0  0  0
  -23.3649  -19.5085   17.2078 C   0  0  0  0  0  0  0  0  0  0  0  0
  -21.9709  -30.7297   23.0347 C   0  0  1  0  0  0  0  0  0  0  0  0
  -19.5189  -32.5069   20.7547 C   0  0  2  0  0  0  0  0  0  0  0  0
  -21.5328  -30.2354   24.4423 C   0  0  0  0  0  0  0  0  0  0  0  0
  -26.1708  -11.4542   21.0703 N   0  0  0  0  0  0  0  0  0  0  0  0
  -26.4533  -12.2087   19.9947 N   0  0  0  0  0  0  0  0  0  0  0  0
  -24.3233  -30.8662   22.2790 N   0  0  0  0  0  0  0  0  0  0  0  0
  -28.6403  -15.2962   20.5125 N   0  0  0  0  0  0  0  0  0  0  0  0
  -25.6752  -12.7811   17.8319 N   0  0  0  0  0  0  0  0  0  0  0  0
  -22.5805   -9.8420   19.3086 N   0  0  0  0  0  0  0  0  0  0  0  0
  -26.3458  -22.1802   17.7052 N   0  0  0  0  0  0  0  0  0  0  0  0
  -27.7677  -16.9026   19.0224 N   0  0  0  0  0  0  0  0  0  0  0  0
  -27.3301  -31.1414   24.1799 N   0  0  0  0  0  0  0  0  0  0  0  0
  -21.0346  -31.6572   22.4090 N   0  0  0  0  0  0  0  0  0  0  0  0
  -19.5435  -32.6607   19.2726 N   0  3  0  0  0  0  0  0  0  0  0  0
  -24.8116  -20.5556   15.6206 O   0  0  0  0  0  0  0  0  0  0  0  0
  -23.1960  -11.1668   17.5409 O   0  0  0  0  0  0  0  0  0  0  0  0
  -28.0133  -23.4272   18.7816 O   0  0  0  0  0  0  0  0  0  0  0  0
  -26.1030  -29.2990   23.4574 O   0  0  0  0  0  0  0  0  0  0  0  0
  -23.4416  -32.4494   23.7460 O   0  0  0  0  0  0  0  0  0  0  0  0
  -20.6534  -30.3884   20.5058 O   0  0  0  0  0  0  0  0  0  0  0  0
  -29.9232  -17.1038   19.8562 O   0  0  0  0  0  0  0  0  0  0  0  0
  -25.6595  -24.4701   16.3464 O   0  0  0  0  0  0  0  0  0  0  0  0
  -22.5687   -7.2790   24.2549 O   0  0  0  0  0  0  0  0  0  0  0  0
  -25.8315  -26.8746   17.8242 O   0  0  0  0  0  0  0  0  0  1  0  0
  -20.7555   -2.4865   22.2183 F   0  0  0  0  0  0  0  0  0  0  0  0
  -23.5358   -4.8734   25.2145 F   0  0  0  0  0  0  0  0  0  0  0  0
  -25.5470  -17.4366   17.4432 F   0  0  0  0  0  0  0  0  0  0  0  0
  1  2  1  0  0  0  0
  1  5  2  0  0  0  0
  2  6  2  0  0  0  0
  3 10  2  0  0  0  0
  3 17  1  0  0  0  0
  4 11  1  0  0  0  0
  4 17  2  0  0  0  0
  5 20  1  0  0  0  0
  6 22  1  0  0  0  0
  7 12  2  0  0  0  0
  7 21  1  0  0  0  0
  8  9  2  0  0  0  0
  8 24  1  0  0  0  0
  9 25  1  0  0  0  0
 10 26  1  0  0  0  0
 11 26  2  0  0  0  0
 12 27  1  0  0  0  0
 13 14  2  0  0  0  0
 13 28  1  0  0  0  0
 14 29  1  0  0  0  0
 15 23  1  0  0  0  0
 15 27  2  0  0  0  0
 16 29  2  0  0  0  0
 16 30  1  0  0  0  0
 17 32  1  0  0  0  0
 18 24  2  0  0  0  0
 18 31  1  0  0  0  0
 18 35  1  0  0  0  0
 19 32  1  0  0  0  0
 19 33  2  0  0  0  0
 19 36  1  0  0  0  0
 20 22  2  0  0  0  0
 20 43  1  0  0  0  0
 21 23  2  0  0  0  0
 21 44  1  0  0  0  0
 22 52  1  0  0  0  0
 23 45  1  0  0  0  0
 24 72  1  0  0  0  0
 25 31  2  0  0  0  0
 25 73  1  0  0  0  0
 26 85  1  0  0  0  0
 27 86  1  0  0  0  0
 28 30  2  0  0  0  0
 28 85  1  0  0  0  0
 29 87  1  0  0  0  0
 30 88  1  0  0  0  0
 31 89  1  0  0  0  0
 32 66  2  0  0  0  0
 33 67  1  0  0  0  0
 33 70  1  0  0  0  0
 34 37  2  0  0  0  0
 34 86  1  0  0  0  0
 35 62  1  0  0  0  0
 35 77  2  0  0  0  0
 36 71  1  0  0  0  0
 36 78  2  0  0  0  0
 37 38  1  0  0  0  0
 37 84  1  0  0  0  0
 38 72  1  0  0  0  0
 38 79  2  0  0  0  0
 39 53  1  0  0  0  0
 39 74  1  0  0  0  0
 39 80  2  0  0  0  0
 40 63  1  0  0  0  0
 40 68  1  0  0  0  0
 40 81  2  0  0  0  0
 41 64  1  0  0  0  0
 41 75  1  0  0  0  0
 41 82  2  0  0  0  0
 42 69  1  0  0  0  0
 42 73  1  0  0  0  0
 42 83  2  0  0  0  0
 43 46  1  0  0  0  0
 44 53  1  0  0  0  0
 45 68  1  0  0  0  0
 46 48  1  0  0  0  0
 47 49  1  0  0  0  0
 47 50  1  0  0  0  0
 48 52  1  0  0  0  0
 49 54  1  0  0  0  0
 50 69  1  0  0  0  0
 51 54  1  0  0  0  0
 51 69  1  0  0  0  0
 52 74  1  0  0  0  0
 53 68  1  0  0  0  0
 54 67  1  0  0  0  0
 55 62  1  0  0  0  0
 56 62  1  0  0  0  0
 57 64  1  0  0  0  0
 58 65  1  0  0  0  0
 59 65  1  0  0  0  0
 60 65  1  0  0  0  0
 61 76  1  0  0  0  0
 63 65  1  0  0  0  0
 63 75  1  0  0  0  0
 64 76  1  0  0  0  0
 66 67  1  0  0  0  0
M  CHG  1  76   1
M  ISO  4  34 101  42 100  73 100  86 101
M  END
> <Batch ID>
0156

> <Smiles>
CNC(C)C(=O)NC(C(=O)N1Cc2cc([101O:1][101CH2:1]C(=O)C(=O)Nc3ccc([100NH:0][100C:0](=O)N4CCCC(n5nc(-c6ccc(Oc7ccc(F)cc7F)cc6)c(C(N)=O)c5N)C4)c(F)c3C(=O)C(C)C)ccc2CC1C(=O)NC1CCCc2ccccc21)C(C)(C)C

> <Shape>
0.245

> <Color>
0.083

> <Negative vol penalty>
0.000

$$$$

  -OEChem-04052303393D

 83 92  0     1  0  0  0  0  0999 V2000
  -26.4679  -34.7608   19.4026 C   0  0  0  0  0  0  0  0  0  0  0  0
  -26.6640  -33.5850   18.6854 C   0  0  0  0  0  0  0  0  0  0  0  0
  -22.9931   -9.9039   19.9841 C   0  0  0  0  0  0  0  0  0  0  0  0
  -23.7234   -9.9526   22.2866 C   0  0  0  0  0  0  0  0  0  0  0  0
  -26.1397  -34.7036   20.7565 C   0  0  0  0  0  0  0  0  0  0  0  0
  -26.5332  -32.3512   19.3219 C   0  0  0  0  0  0  0  0  0  0  0  0
  -24.4516  -25.6131   18.0643 C   0  0  0  0  0  0  0  0  0  0  0  0
  -22.2243   -8.7713   20.2519 C   0  0  0  0  0  0  0  0  0  0  0  0
  -22.9545   -8.8200   22.5544 C   0  0  0  0  0  0  0  0  0  0  0  0
  -24.9065  -24.3022   18.1999 C   0  0  0  0  0  0  0  0  0  0  0  0
  -23.1893   -5.4805   22.0814 C   0  0  0  0  0  0  0  0  0  0  0  0
  -23.7759   -4.4617   22.8320 C   0  0  0  0  0  0  0  0  0  0  0  0
  -24.2587  -24.3241   20.5234 C   0  0  0  0  0  0  0  0  0  0  0  0
  -28.9727  -18.7141   21.4248 C   0  0  0  0  0  0  0  0  0  0  0  0
  -22.0562   -4.7087   24.5110 C   0  0  0  0  0  0  0  0  0  0  0  0
  -23.7427  -10.4945   21.0015 C   0  0  0  0  0  0  0  0  0  0  0  0
  -24.1341  -13.0091   20.8251 C   0  0  0  0  0  0  0  0  0  0  0  0
  -25.9953  -33.4684   21.4077 C   0  0  0  0  0  0  0  0  0  0  0  0
  -23.9059  -26.2942   19.1619 C   0  0  0  0  0  0  0  0  0  0  0  0
  -26.2041  -32.2775   20.6861 C   0  0  0  0  0  0  0  0  0  0  0  0
  -23.7952  -25.6427   20.3986 C   0  0  0  0  0  0  0  0  0  0  0  0
  -29.8311  -17.8818   22.1730 C   0  0  0  0  0  0  0  0  0  0  0  0
  -22.2049   -8.2293   21.5371 C   0  0  0  0  0  0  0  0  0  0  0  0
  -24.8128  -23.6585   19.4303 C   0  0  0  0  0  0  0  0  0  0  0  0
  -22.0362   -6.1135   22.5456 C   0  0  0  0  0  0  0  0  0  0  0  0
  -23.2093   -4.0757   24.0468 C   0  0  0  0  0  0  0  0  0  0  0  0
  -21.4697   -5.7276   23.7604 C   0  0  0  0  0  0  0  0  0  0  0  0
  -24.5376  -11.6641   20.7254 C   0  0  0  0  0  0  0  0  0  0  0  0
  -29.7242  -18.1052   23.5192 C   0  0  0  0  0  0  0  0  0  0  0  0
  -25.2449  -13.7289   20.4584 C   0  0  0  0  0  0  0  0  0  0  0  0
  -28.2383  -19.5368   22.2645 C   0  0  0  0  0  0  0  0  0  0  0  0
  -22.8683  -13.5587   21.2145 C   0  0  0  0  0  0  0  0  0  0  0  0
  -24.6821  -28.9121   20.7892 C   0  0  0  0  0  0  0  0  0  0  0  0
  -21.8585  -28.3492   22.2832 C   0  0  0  0  0  0  0  0  0  0  0  0
  -26.7981  -20.9045   20.7187 C   0  0  0  0  0  0  0  0  0  0  0  0
  -19.4470  -26.1029   23.1696 C   0  0  0  0  0  0  0  0  0  0  0  0
  -30.7441  -14.6495   20.6953 C   0  0  0  0  0  0  0  0  0  0  0  0
  -25.6860  -33.4577   22.8838 C   0  0  0  0  0  0  0  0  0  0  0  0
  -23.3952  -27.6988   18.9925 C   0  0  0  0  0  0  0  0  0  0  0  0
  -23.1987  -26.3229   21.6027 C   0  0  0  0  0  0  0  0  0  0  0  0
  -30.6135  -17.2551   24.3451 C   0  0  0  0  0  0  0  0  0  0  0  0
  -25.1984  -32.1041   23.3942 C   0  0  0  0  0  0  0  0  0  0  0  0
  -31.5746  -16.6876   23.2522 C   0  0  0  0  0  0  0  0  0  0  0  0
  -29.5922  -12.2292   18.3518 C   0  0  0  0  0  0  0  0  0  0  0  0
  -26.0881  -30.9828   22.8670 C   0  0  0  0  0  0  0  0  0  0  0  0
  -28.1440  -11.9731   18.7725 C   0  0  0  0  0  0  0  0  0  0  0  0
  -30.4978  -12.4620   19.5591 C   0  0  0  0  0  0  0  0  0  0  0  0
  -28.5926  -13.2622   20.9022 C   0  0  0  0  0  0  0  0  0  0  0  0
  -26.0468  -30.9196   21.3354 C   0  0  1  0  0  0  0  0  0  0  0  0
  -30.8349  -16.8280   21.8807 C   0  0  1  0  0  0  0  0  0  0  0  0
  -23.3291  -28.4729   20.3055 C   0  0  1  0  0  0  0  0  0  0  0  0
  -27.6306  -13.0772   19.7162 C   0  0  2  0  0  0  0  0  0  0  0  0
  -17.2784  -25.9318   24.4208 C   0  0  0  0  0  0  0  0  0  0  0  0
  -23.3775  -28.4648   24.9270 C   0  0  0  0  0  0  0  0  0  0  0  0
  -21.4116  -27.3697   26.0243 C   0  0  0  0  0  0  0  0  0  0  0  0
  -21.1527  -29.6067   24.9513 C   0  0  0  0  0  0  0  0  0  0  0  0
  -17.9862  -25.2260   20.7497 C   0  0  0  0  0  0  0  0  0  0  0  0
  -25.7515  -21.9955   20.8478 C   0  0  0  0  0  0  0  0  0  1  0  0
  -21.4294  -27.5583   23.4954 C   0  0  1  0  0  0  0  0  0  0  0  0
  -17.9334  -26.1569   23.0669 C   0  0  2  0  0  0  0  0  0  0  0  0
  -21.8558  -28.2375   24.8275 C   0  0  0  0  0  0  0  0  0  0  0  0
  -25.8057  -11.5345   20.3264 N   0  0  0  0  0  0  0  0  0  0  0  0
  -26.2086  -12.8073   20.1722 N   0  0  0  0  0  0  0  0  0  0  0  0
  -22.7193  -27.6983   21.3882 N   0  0  0  0  0  0  0  0  0  0  0  0
  -29.9556  -13.5220   20.4126 N   0  0  0  0  0  0  0  0  0  0  0  0
  -25.4815  -15.0541   20.3561 N   0  0  0  0  0  0  0  0  0  0  0  0
  -21.8350  -12.6771   21.5601 N   0  0  0  0  0  0  0  0  0  0  0  0
  -27.2640  -20.5204   21.9715 N   0  0  0  0  0  0  0  0  0  0  0  0
  -24.8265  -30.2828   20.8886 N   0  0  0  0  0  0  0  0  0  0  0  0
  -19.9908  -27.3553   23.3621 N   0  0  0  0  0  0  0  0  0  0  0  0
  -30.1520  -15.6096   21.5066 N   0  0  0  0  0  0  0  0  0  0  0  0
  -17.4404  -25.1110   22.1266 N   0  3  0  0  0  0  0  0  0  0  0  0
  -22.6548  -14.7945   21.2389 O   0  0  0  0  0  0  0  0  0  0  0  0
  -25.5318  -28.0697   21.0540 O   0  0  0  0  0  0  0  0  0  0  0  0
  -21.4394  -29.4995   22.1323 O   0  0  0  0  0  0  0  0  0  0  0  0
  -27.1393  -20.4676   19.6244 O   0  0  0  0  0  0  0  0  0  0  0  0
  -20.0830  -25.0541   23.0910 O   0  0  0  0  0  0  0  0  0  0  0  0
  -31.8890  -14.7926   20.2528 O   0  0  0  0  0  0  0  0  0  0  0  0
  -21.4546   -7.1243   21.7988 O   0  0  0  0  0  0  0  0  0  0  0  0
  -25.2566  -22.3792   19.5655 O   0  0  0  0  0  0  0  0  0  1  0  0
  -23.7719   -3.0963   24.7668 F   0  0  0  0  0  0  0  0  0  0  0  0
  -20.3613   -6.3312   24.2109 F   0  0  0  0  0  0  0  0  0  0  0  0
  -28.6125  -19.2828   23.9350 S   0  0  0  0  0  0  0  0  0  0  0  0
  1  2  1  0  0  0  0
  1  5  2  0  0  0  0
  2  6  2  0  0  0  0
  3  8  2  0  0  0  0
  3 16  1  0  0  0  0
  4  9  1  0  0  0  0
  4 16  2  0  0  0  0
  5 18  1  0  0  0  0
  6 20  1  0  0  0  0
  7 10  2  0  0  0  0
  7 19  1  0  0  0  0
  8 23  1  0  0  0  0
  9 23  2  0  0  0  0
 10 24  1  0  0  0  0
 11 12  2  0  0  0  0
 11 25  1  0  0  0  0
 12 26  1  0  0  0  0
 13 21  1  0  0  0  0
 13 24  2  0  0  0  0
 14 22  1  0  0  0  0
 14 31  2  0  0  0  0
 15 26  2  0  0  0  0
 15 27  1  0  0  0  0
 16 28  1  0  0  0  0
 17 28  1  0  0  0  0
 17 30  2  0  0  0  0
 17 32  1  0  0  0  0
 18 20  2  0  0  0  0
 18 38  1  0  0  0  0
 19 21  2  0  0  0  0
 19 39  1  0  0  0  0
 20 49  1  0  0  0  0
 21 40  1  0  0  0  0
 22 29  2  0  0  0  0
 22 50  1  0  0  0  0
 23 79  1  0  0  0  0
 24 80  1  0  0  0  0
 25 27  2  0  0  0  0
 25 79  1  0  0  0  0
 26 81  1  0  0  0  0
 27 82  1  0  0  0  0
 28 62  2  0  0  0  0
 29 41  1  0  0  0  0
 29 83  1  0  0  0  0
 30 63  1  0  0  0  0
 30 66  1  0  0  0  0
 31 68  1  0  0  0  0
 31 83  1  0  0  0  0
 32 67  1  0  0  0  0
 32 73  2  0  0  0  0
 33 51  1  0  0  0  0
 33 69  1  0  0  0  0
 33 74  2  0  0  0  0
 34 59  1  0  0  0  0
 34 64  1  0  0  0  0
 34 75  2  0  0  0  0
 35 58  1  0  0  0  0
 35 68  1  0  0  0  0
 35 76  2  0  0  0  0
 36 60  1  0  0  0  0
 36 70  1  0  0  0  0
 36 77  2  0  0  0  0
 37 65  1  0  0  0  0
 37 71  1  0  0  0  0
 37 78  2  0  0  0  0
 38 42  1  0  0  0  0
 39 51  1  0  0  0  0
 40 64  1  0  0  0  0
 41 43  1  0  0  0  0
 42 45  1  0  0  0  0
 43 50  1  0  0  0  0
 44 46  1  0  0  0  0
 44 47  1  0  0  0  0
 45 49  1  0  0  0  0
 46 52  1  0  0  0  0
 47 65  1  0  0  0  0
 48 52  1  0  0  0  0
 48 65  1  0  0  0  0
 49 69  1  0  0  0  0
 50 71  1  0  0  0  0
 51 64  1  0  0  0  0
 52 63  1  0  0  0  0
 53 60  1  0  0  0  0
 54 61  1  0  0  0  0
 55 61  1  0  0  0  0
 56 61  1  0  0  0  0
 57 72  1  0  0  0  0
 58 80  1  0  0  0  0
 59 61  1  0  0  0  0
 59 70  1  0  0  0  0
 60 72  1  0  0  0  0
 62 63  1  0  0  0  0
M  CHG  1  72   1
M  ISO  4  37 100  58 101  71 100  80 101
M  END
> <Batch ID>
0156

> <Smiles>
CNC(C)C(=O)NC(C(=O)N1Cc2cc([101O:1][101CH2:1]C(=O)Nc3cc4c(s3)CCC4[100NH:0][100C:0](=O)N3CCCC(n4nc(-c5ccc(Oc6ccc(F)cc6F)cc5)c(C(N)=O)c4N)C3)ccc2CC1C(=O)NC1CCCc2ccccc21)C(C)(C)C

> <Shape>
0.330

> <Color>
0.193

> <Negative vol penalty>
0.000

$$$$

  -OEChem-04052303393D

 87 95  0     1  0  0  0  0  0999 V2000
  -26.0362  -35.5966   22.3917 C   0  0  0  0  0  0  0  0  0  0  0  0
  -26.5864  -34.3203   22.3285 C   0  0  0  0  0  0  0  0  0  0  0  0
  -23.8558  -12.8272   20.0915 C   0  0  0  0  0  0  0  0  0  0  0  0
  -25.5974  -14.3988   20.6693 C   0  0  0  0  0  0  0  0  0  0  0  0
  -24.7263  -35.7684   22.8371 C   0  0  0  0  0  0  0  0  0  0  0  0
  -25.8272  -33.2153   22.7117 C   0  0  0  0  0  0  0  0  0  0  0  0
  -26.2347  -29.3557   19.4587 C   0  0  0  0  0  0  0  0  0  0  0  0
  -25.3562  -21.7823   14.7355 C   0  0  0  0  0  0  0  0  0  0  0  0
  -26.4295  -22.6016   14.3858 C   0  0  0  0  0  0  0  0  0  0  0  0
  -24.7510  -11.7716   20.2640 C   0  0  0  0  0  0  0  0  0  0  0  0
  -26.4927  -13.3432   20.8419 C   0  0  0  0  0  0  0  0  0  0  0  0
  -27.3900  -28.5789   19.5338 C   0  0  0  0  0  0  0  0  0  0  0  0
  -28.3555  -11.3112   18.8844 C   0  0  0  0  0  0  0  0  0  0  0  0
  -29.6288  -11.4444   18.3309 C   0  0  0  0  0  0  0  0  0  0  0  0
  -26.1798  -26.9109   20.7877 C   0  0  0  0  0  0  0  0  0  0  0  0
  -26.2069  -21.6305   16.9917 C   0  0  0  0  0  0  0  0  0  0  0  0
  -30.6076  -11.2202   20.5284 C   0  0  0  0  0  0  0  0  0  0  0  0
  -24.2789  -14.1409   20.2941 C   0  0  0  0  0  0  0  0  0  0  0  0
  -22.5157  -15.8034   21.0907 C   0  0  0  0  0  0  0  0  0  0  0  0
  -23.9474  -34.6640   23.2169 C   0  0  0  0  0  0  0  0  0  0  0  0
  -25.0440  -28.9202   20.0579 C   0  0  0  0  0  0  0  0  0  0  0  0
  -24.5061  -33.3727   23.1640 C   0  0  0  0  0  0  0  0  0  0  0  0
  -25.0101  -27.6828   20.7165 C   0  0  0  0  0  0  0  0  0  0  0  0
  -25.2448  -21.2968   16.0384 C   0  0  0  0  0  0  0  0  0  0  0  0
  -27.3916  -22.9353   15.3391 C   0  0  0  0  0  0  0  0  0  0  0  0
  -27.2804  -22.4498   16.6420 C   0  0  0  0  0  0  0  0  0  0  0  0
  -26.0695  -12.0296   20.6392 C   0  0  0  0  0  0  0  0  0  0  0  0
  -27.3635  -27.3577   20.2008 C   0  0  0  0  0  0  0  0  0  0  0  0
  -28.2081  -11.1326   20.2600 C   0  0  0  0  0  0  0  0  0  0  0  0
  -30.7549  -11.3988   19.1528 C   0  0  0  0  0  0  0  0  0  0  0  0
  -29.3342  -11.0871   21.0819 C   0  0  0  0  0  0  0  0  0  0  0  0
  -23.3547  -15.2318   20.1155 C   0  0  0  0  0  0  0  0  0  0  0  0
  -21.8415  -16.7970   20.4238 C   0  0  0  0  0  0  0  0  0  0  0  0
  -22.3597  -15.4664   22.4755 C   0  0  0  0  0  0  0  0  0  0  0  0
  -23.1619  -30.0238   22.3695 C   0  0  0  0  0  0  0  0  0  0  0  0
  -29.5114  -24.4724   19.7298 C   0  0  0  0  0  0  0  0  0  0  0  0
  -21.2621  -27.5539   21.4680 C   0  0  0  0  0  0  0  0  0  0  0  0
  -21.0013  -24.4894   19.9889 C   0  0  0  0  0  0  0  0  0  0  0  0
  -28.2779  -22.3599   18.9551 C   0  0  0  0  0  0  0  0  0  0  0  0
  -23.1103  -20.0435   15.5704 C   0  0  0  0  0  0  0  0  0  0  0  0
  -22.5521  -34.9040   23.7367 C   0  0  0  0  0  0  0  0  0  0  0  0
  -23.7995  -29.7574   19.9449 C   0  0  0  0  0  0  0  0  0  0  0  0
  -23.7519  -27.1607   21.3591 C   0  0  0  0  0  0  0  0  0  0  0  0
  -21.6893  -33.6452   23.7690 C   0  0  0  0  0  0  0  0  0  0  0  0
  -20.2578  -17.9695   16.0590 C   0  0  0  0  0  0  0  0  0  0  0  0
  -22.4638  -32.4826   24.3817 C   0  0  0  0  0  0  0  0  0  0  0  0
  -20.6495  -17.0882   17.2473 C   0  0  0  0  0  0  0  0  0  0  0  0
  -21.4477  -18.2470   15.1421 C   0  0  0  0  0  0  0  0  0  0  0  0
  -23.0274  -17.9082   17.0019 C   0  0  0  0  0  0  0  0  0  0  0  0
  -23.7060  -32.1468   23.5475 C   0  0  1  0  0  0  0  0  0  0  0  0
  -22.7749  -29.4546   21.0339 C   0  0  1  0  0  0  0  0  0  0  0  0
  -21.8762  -17.6548   17.9889 C   0  0  2  0  0  0  0  0  0  0  0  0
  -19.3252  -22.7059   19.4346 C   0  0  0  0  0  0  0  0  0  0  0  0
  -29.4618  -22.3893   21.1614 C   0  0  0  0  0  0  0  0  0  0  0  0
  -30.8022  -22.4483   19.0649 C   0  0  0  0  0  0  0  0  0  0  0  0
  -21.2499  -26.6620   24.3859 C   0  0  0  0  0  0  0  0  0  0  0  0
  -20.3979  -24.4330   23.6285 C   0  0  0  0  0  0  0  0  0  0  0  0
  -19.0380  -26.4864   23.2321 C   0  0  0  0  0  0  0  0  0  0  0  0
  -21.5051  -24.7558   17.0847 C   0  0  0  0  0  0  0  0  0  0  0  0
  -28.3157  -25.1832   20.3453 C   0  0  0  0  0  0  0  0  0  1  0  0
  -21.1320  -26.1040   21.8678 C   0  0  1  0  0  0  0  0  0  0  0  0
  -20.0403  -23.9545   18.9425 C   0  0  2  0  0  0  0  0  0  0  0  0
  -29.4945  -22.9294   19.7183 C   0  0  0  0  0  0  0  0  0  0  0  0
  -20.4788  -25.9318   23.2683 C   0  0  0  0  0  0  0  0  0  0  0  0
  -23.2269  -15.8137   18.9201 N   0  0  0  0  0  0  0  0  0  0  0  0
  -22.2996  -16.7613   19.1397 N   0  0  0  0  0  0  0  0  0  0  0  0
  -22.5628  -28.0186   21.2269 N   0  0  0  0  0  0  0  0  0  0  0  0
  -22.5704  -18.7857   15.9130 N   0  0  0  0  0  0  0  0  0  0  0  0
  -28.4717  -23.7648   14.9623 N   0  0  0  0  0  0  0  0  0  0  0  0
  -20.9073  -17.6889   20.8165 N   0  0  0  0  0  0  0  0  0  0  0  0
  -23.1299  -14.4191   22.9992 N   0  0  0  0  0  0  0  0  0  0  0  0
  -28.2440  -22.7755   17.6263 N   0  0  0  0  0  0  0  0  0  0  0  0
  -24.1527  -20.4671   16.3941 N   0  0  0  0  0  0  0  0  0  0  0  0
  -23.3346  -31.3948   22.3681 N   0  0  0  0  0  0  0  0  0  0  0  0
  -20.4080  -25.4456   20.7858 N   0  0  0  0  0  0  0  0  0  0  0  0
  -20.7745  -23.6133   17.6913 N   0  3  0  0  0  0  0  0  0  0  0  0
  -21.5489  -16.0651   23.2224 O   0  0  0  0  0  0  0  0  0  0  0  0
  -23.2927  -29.2748   23.3305 O   0  0  0  0  0  0  0  0  0  0  0  0
  -30.4452  -25.1134   19.2437 O   0  0  0  0  0  0  0  0  0  0  0  0
  -20.2466  -28.2466   21.3661 O   0  0  0  0  0  0  0  0  0  0  0  0
  -22.1609  -24.0955   20.0916 O   0  0  0  0  0  0  0  0  0  0  0  0
  -27.4568  -21.6362   19.5137 O   0  0  0  0  0  0  0  0  0  0  0  0
  -22.6616  -20.7088   14.6334 O   0  0  0  0  0  0  0  0  0  0  0  0
  -26.9433  -10.9998   20.8079 O   0  0  0  0  0  0  0  0  0  0  0  0
  -28.4899  -26.5979   20.2762 O   0  0  0  0  0  0  0  0  0  1  0  0
  -31.9777  -11.5252   18.6209 F   0  0  0  0  0  0  0  0  0  0  0  0
  -29.1990  -10.9145   22.4039 F   0  0  0  0  0  0  0  0  0  0  0  0
  1  2  1  0  0  0  0
  1  5  2  0  0  0  0
  2  6  2  0  0  0  0
  3 10  2  0  0  0  0
  3 18  1  0  0  0  0
  4 11  1  0  0  0  0
  4 18  2  0  0  0  0
  5 20  1  0  0  0  0
  6 22  1  0  0  0  0
  7 12  2  0  0  0  0
  7 21  1  0  0  0  0
  8  9  2  0  0  0  0
  8 24  1  0  0  0  0
  9 25  1  0  0  0  0
 10 27  1  0  0  0  0
 11 27  2  0  0  0  0
 12 28  1  0  0  0  0
 13 14  2  0  0  0  0
 13 29  1  0  0  0  0
 14 30  1  0  0  0  0
 15 23  1  0  0  0  0
 15 28  2  0  0  0  0
 16 24  2  0  0  0  0
 16 26  1  0  0  0  0
 17 30  2  0  0  0  0
 17 31  1  0  0  0  0
 18 32  1  0  0  0  0
 19 32  1  0  0  0  0
 19 33  2  0  0  0  0
 19 34  1  0  0  0  0
 20 22  2  0  0  0  0
 20 41  1  0  0  0  0
 21 23  2  0  0  0  0
 21 42  1  0  0  0  0
 22 50  1  0  0  0  0
 23 43  1  0  0  0  0
 24 73  1  0  0  0  0
 25 26  2  0  0  0  0
 25 69  1  0  0  0  0
 26 72  1  0  0  0  0
 27 84  1  0  0  0  0
 28 85  1  0  0  0  0
 29 31  2  0  0  0  0
 29 84  1  0  0  0  0
 30 86  1  0  0  0  0
 31 87  1  0  0  0  0
 32 65  2  0  0  0  0
 33 66  1  0  0  0  0
 33 70  1  0  0  0  0
 34 71  1  0  0  0  0
 34 77  2  0  0  0  0
 35 51  1  0  0  0  0
 35 74  1  0  0  0  0
 35 78  2  0  0  0  0
 36 60  1  0  0  0  0
 36 63  1  0  0  0  0
 36 79  2  0  0  0  0
 37 61  1  0  0  0  0
 37 67  1  0  0  0  0
 37 80  2  0  0  0  0
 38 62  1  0  0  0  0
 38 75  1  0  0  0  0
 38 81  2  0  0  0  0
 39 63  1  0  0  0  0
 39 72  1  0  0  0  0
 39 82  2  0  0  0  0
 40 68  1  0  0  0  0
 40 73  1  0  0  0  0
 40 83  2  0  0  0  0
 41 44  1  0  0  0  0
 42 51  1  0  0  0  0
 43 67  1  0  0  0  0
 44 46  1  0  0  0  0
 45 47  1  0  0  0  0
 45 48  1  0  0  0  0
 46 50  1  0  0  0  0
 47 52  1  0  0  0  0
 48 68  1  0  0  0  0
 49 52  1  0  0  0  0
 49 68  1  0  0  0  0
 50 74  1  0  0  0  0
 51 67  1  0  0  0  0
 52 66  1  0  0  0  0
 53 62  1  0  0  0  0
 54 63  1  0  0  0  0
 55 63  1  0  0  0  0
 56 64  1  0  0  0  0
 57 64  1  0  0  0  0
 58 64  1  0  0  0  0
 59 76  1  0  0  0  0
 60 85  1  0  0  0  0
 61 64  1  0  0  0  0
 61 75  1  0  0  0  0
 62 76  1  0  0  0  0
 65 66  1  0  0  0  0
M  CHG  1  76   1
M  ISO  4  40 100  60 101  73 100  85 101
M  END
> <Batch ID>
0156

> <Smiles>
CNC(C)C(=O)NC(C(=O)N1Cc2cc([101O:1][101CH2:1]C(=O)C(C)(C)C(=O)Nc3cc([100NH:0][100C:0](=O)N4CCCC(n5nc(-c6ccc(Oc7ccc(F)cc7F)cc6)c(C(N)=O)c5N)C4)ccc3N)ccc2CC1C(=O)NC1CCCc2ccccc21)C(C)(C)C

> <Shape>
0.231

> <Color>
0.084

> <Negative vol penalty>
0.000

$$$$

  -OEChem-04052303393D

 82 91  0     1  0  0  0  0  0999 V2000
  -26.9088  -31.2498   24.0266 C   0  0  0  0  0  0  0  0  0  0  0  0
  -27.5257  -30.0580   23.6601 C   0  0  0  0  0  0  0  0  0  0  0  0
  -23.8417   -9.4923   19.7972 C   0  0  0  0  0  0  0  0  0  0  0  0
  -24.4980   -9.5939   22.1202 C   0  0  0  0  0  0  0  0  0  0  0  0
  -25.8681  -31.7615   23.2525 C   0  0  0  0  0  0  0  0  0  0  0  0
  -27.1015  -29.3765   22.5198 C   0  0  0  0  0  0  0  0  0  0  0  0
  -30.9651  -27.7580   19.6741 C   0  0  0  0  0  0  0  0  0  0  0  0
  -23.4002   -8.1817   19.9793 C   0  0  0  0  0  0  0  0  0  0  0  0
  -24.0564   -8.2834   22.3023 C   0  0  0  0  0  0  0  0  0  0  0  0
  -31.6342  -26.6119   20.1014 C   0  0  0  0  0  0  0  0  0  0  0  0
  -21.1099   -6.6878   22.7410 C   0  0  0  0  0  0  0  0  0  0  0  0
  -20.3476   -6.4143   23.8766 C   0  0  0  0  0  0  0  0  0  0  0  0
  -30.3910  -25.2983   18.5050 C   0  0  0  0  0  0  0  0  0  0  0  0
  -30.3711  -18.9975   22.1291 C   0  0  0  0  0  0  0  0  0  0  0  0
  -22.0064   -4.8160   24.6052 C   0  0  0  0  0  0  0  0  0  0  0  0
  -28.3896  -18.7765   23.1298 C   0  0  0  0  0  0  0  0  0  0  0  0
  -24.3907  -10.1984   20.8677 C   0  0  0  0  0  0  0  0  0  0  0  0
  -24.0972  -12.7323   20.8406 C   0  0  0  0  0  0  0  0  0  0  0  0
  -25.4374  -31.0910   22.0969 C   0  0  0  0  0  0  0  0  0  0  0  0
  -29.9945  -27.6809   18.6650 C   0  0  0  0  0  0  0  0  0  0  0  0
  -26.0532  -29.8790   21.7304 C   0  0  0  0  0  0  0  0  0  0  0  0
  -29.7129  -26.4453   18.0650 C   0  0  0  0  0  0  0  0  0  0  0  0
  -29.2841  -18.1121   22.3232 C   0  0  0  0  0  0  0  0  0  0  0  0
  -23.5075   -7.5773   21.2318 C   0  0  0  0  0  0  0  0  0  0  0  0
  -31.3452  -25.3814   19.5188 C   0  0  0  0  0  0  0  0  0  0  0  0
  -22.3205   -6.0254   22.5374 C   0  0  0  0  0  0  0  0  0  0  0  0
  -20.7958   -5.4784   24.8087 C   0  0  0  0  0  0  0  0  0  0  0  0
  -22.7688   -5.0895   23.4696 C   0  0  0  0  0  0  0  0  0  0  0  0
  -24.8475  -11.5520   20.6801 C   0  0  0  0  0  0  0  0  0  0  0  0
  -30.0633  -20.1399   22.8307 C   0  0  0  0  0  0  0  0  0  0  0  0
  -24.9802  -13.7428   20.5478 C   0  0  0  0  0  0  0  0  0  0  0  0
  -22.7249  -12.9002   21.2204 C   0  0  0  0  0  0  0  0  0  0  0  0
  -26.8800  -28.2937   18.4968 C   0  0  0  0  0  0  0  0  0  0  0  0
  -27.3255  -27.6784   15.3432 C   0  0  0  0  0  0  0  0  0  0  0  0
  -29.1799  -26.1425   12.9247 C   0  0  0  0  0  0  0  0  0  0  0  0
  -30.0050  -16.1007   20.9887 C   0  0  0  0  0  0  0  0  0  0  0  0
  -24.2771  -31.6585   21.3182 C   0  0  0  0  0  0  0  0  0  0  0  0
  -29.3007  -28.9307   18.1968 C   0  0  0  0  0  0  0  0  0  0  0  0
  -28.6939  -26.3123   16.9638 C   0  0  0  0  0  0  0  0  0  0  0  0
  -24.1374  -31.0691   19.9170 C   0  0  0  0  0  0  0  0  0  0  0  0
  -29.6072  -13.5842   18.5015 C   0  0  0  0  0  0  0  0  0  0  0  0
  -24.2613  -29.5494   19.9623 C   0  0  0  0  0  0  0  0  0  0  0  0
  -32.1845  -21.3153   23.6320 C   0  0  0  0  0  0  0  0  0  0  0  0
  -28.2717  -12.9283   18.8598 C   0  0  0  0  0  0  0  0  0  0  0  0
  -32.8576  -22.6143   23.2226 C   0  0  0  0  0  0  0  0  0  0  0  0
  -30.3953  -13.9835   19.7477 C   0  0  0  0  0  0  0  0  0  0  0  0
  -28.3225  -14.1569   21.0677 C   0  0  0  0  0  0  0  0  0  0  0  0
  -25.6379  -29.1235   20.4866 C   0  0  1  0  0  0  0  0  0  0  0  0
  -30.7818  -21.4469   23.0373 C   0  0  1  0  0  0  0  0  0  0  0  0
  -27.9626  -28.6531   17.5188 C   0  0  1  0  0  0  0  0  0  0  0  0
  -27.4638  -13.7961   19.8445 C   0  0  2  0  0  0  0  0  0  0  0  0
  -32.4088  -22.7908   21.7805 C   0  0  2  0  0  0  0  0  0  0  0  0
  -29.2751  -25.7896   10.4420 C   0  0  0  0  0  0  0  0  0  0  0  0
  -25.0578  -25.6471   15.5474 C   0  0  0  0  0  0  0  0  0  0  0  0
  -25.8221  -24.6791   13.3686 C   0  0  0  0  0  0  0  0  0  0  0  0
  -25.0260  -27.0409   13.4711 C   0  0  0  0  0  0  0  0  0  0  0  0
  -31.8175  -27.4692   12.7205 C   0  0  0  0  0  0  0  0  0  0  0  0
  -32.4246  -24.2258   21.2952 C   0  0  0  0  0  0  0  0  0  1  0  0
  -27.2677  -26.4438   14.4762 C   0  0  1  0  0  0  0  0  0  0  0  0
  -29.7366  -26.6511   11.6072 C   0  0  2  0  0  0  0  0  0  0  0  0
  -25.8113  -25.9546   14.2379 C   0  0  0  0  0  0  0  0  0  0  0  0
  -26.1098  -11.7892   20.3136 N   0  0  0  0  0  0  0  0  0  0  0  0
  -26.1595  -13.1302   20.2413 N   0  0  0  0  0  0  0  0  0  0  0  0
  -28.0379  -27.5620   16.5452 N   0  0  0  0  0  0  0  0  0  0  0  0
  -29.5680  -14.8075   20.6317 N   0  0  0  0  0  0  0  0  0  0  0  0
  -24.8549  -15.0868   20.5251 N   0  0  0  0  0  0  0  0  0  0  0  0
  -21.9603  -11.7560   21.4857 N   0  0  0  0  0  0  0  0  0  0  0  0
  -29.1204  -16.8028   21.8067 N   0  0  0  0  0  0  0  0  0  0  0  0
  -26.6389  -29.2638   19.4508 N   0  0  0  0  0  0  0  0  0  0  0  0
  -27.9965  -26.7684   13.2548 N   0  0  0  0  0  0  0  0  0  0  0  0
  -31.0004  -22.2551   21.7710 N   0  3  0  0  0  0  0  0  0  0  0  0
  -31.2266  -26.6426   11.6367 N   0  3  0  0  0  0  0  0  0  0  0  0
  -22.1881  -14.0307   21.3056 O   0  0  0  0  0  0  0  0  0  0  0  0
  -26.3049  -27.2166   18.3926 O   0  0  0  0  0  0  0  0  0  0  0  0
  -26.7653  -28.7100   14.9644 O   0  0  0  0  0  0  0  0  0  0  0  0
  -29.7371  -25.2740   13.5924 O   0  0  0  0  0  0  0  0  0  0  0  0
  -31.0717  -16.5625   20.5753 O   0  0  0  0  0  0  0  0  0  0  0  0
  -28.8571  -20.0133   23.4435 O   0  0  0  0  0  0  0  0  0  0  0  0
  -23.0766   -6.2986   21.4099 O   0  0  0  0  0  0  0  0  0  0  0  0
  -31.9963  -24.2610   19.9344 O   0  0  0  0  0  0  0  0  0  1  0  0
  -20.0644   -5.2170   25.9000 F   0  0  0  0  0  0  0  0  0  0  0  0
  -23.9315   -4.4508   23.2801 F   0  0  0  0  0  0  0  0  0  0  0  0
  1  2  1  0  0  0  0
  1  5  2  0  0  0  0
  2  6  2  0  0  0  0
  3  8  2  0  0  0  0
  3 17  1  0  0  0  0
  4  9  1  0  0  0  0
  4 17  2  0  0  0  0
  5 19  1  0  0  0  0
  6 21  1  0  0  0  0
  7 10  2  0  0  0  0
  7 20  1  0  0  0  0
  8 24  1  0  0  0  0
  9 24  2  0  0  0  0
 10 25  1  0  0  0  0
 11 12  2  0  0  0  0
 11 26  1  0  0  0  0
 12 27  1  0  0  0  0
 13 22  1  0  0  0  0
 13 25  2  0  0  0  0
 14 23  1  0  0  0  0
 14 30  2  0  0  0  0
 15 27  2  0  0  0  0
 15 28  1  0  0  0  0
 16 23  2  0  0  0  0
 16 78  1  0  0  0  0
 17 29  1  0  0  0  0
 18 29  1  0  0  0  0
 18 31  2  0  0  0  0
 18 32  1  0  0  0  0
 19 21  2  0  0  0  0
 19 37  1  0  0  0  0
 20 22  2  0  0  0  0
 20 38  1  0  0  0  0
 21 48  1  0  0  0  0
 22 39  1  0  0  0  0
 23 68  1  0  0  0  0
 24 79  1  0  0  0  0
 25 80  1  0  0  0  0
 26 28  2  0  0  0  0
 26 79  1  0  0  0  0
 27 81  1  0  0  0  0
 28 82  1  0  0  0  0
 29 62  2  0  0  0  0
 30 49  1  0  0  0  0
 30 78  1  0  0  0  0
 31 63  1  0  0  0  0
 31 66  1  0  0  0  0
 32 67  1  0  0  0  0
 32 73  2  0  0  0  0
 33 50  1  0  0  0  0
 33 69  1  0  0  0  0
 33 74  2  0  0  0  0
 34 59  1  0  0  0  0
 34 64  1  0  0  0  0
 34 75  2  0  0  0  0
 35 60  1  0  0  0  0
 35 70  1  0  0  0  0
 35 76  2  0  0  0  0
 36 65  1  0  0  0  0
 36 68  1  0  0  0  0
 36 77  2  0  0  0  0
 37 40  1  0  0  0  0
 38 50  1  0  0  0  0
 39 64  1  0  0  0  0
 40 42  1  0  0  0  0
 41 44  1  0  0  0  0
 41 46  1  0  0  0  0
 42 48  1  0  0  0  0
 43 45  1  0  0  0  0
 43 49  1  0  0  0  0
 44 51  1  0  0  0  0
 45 52  1  0  0  0  0
 46 65  1  0  0  0  0
 47 51  1  0  0  0  0
 47 65  1  0  0  0  0
 48 69  1  0  0  0  0
 49 71  1  0  0  0  0
 50 64  1  0  0  0  0
 51 63  1  0  0  0  0
 52 58  1  0  0  0  0
 52 71  1  0  0  0  0
 53 60  1  0  0  0  0
 54 61  1  0  0  0  0
 55 61  1  0  0  0  0
 56 61  1  0  0  0  0
 57 72  1  0  0  0  0
 58 80  1  0  0  0  0
 59 61  1  0  0  0  0
 59 70  1  0  0  0  0
 60 72  1  0  0  0  0
 62 63  1  0  0  0  0
M  CHG  2  71   1  72   1
M  ISO  4  36 100  58 101  68 100  80 101
M  END
> <Batch ID>
0156

> <Smiles>
CNC(C)C(=O)NC(C(=O)N1Cc2cc([101O:1][101CH2:1]C3CCC(c4cc([100NH:0][100C:0](=O)N5CCCC(n6nc(-c7ccc(Oc8ccc(F)cc8F)cc7)c(C(N)=O)c6N)C5)co4)N3)ccc2CC1C(=O)NC1CCCc2ccccc21)C(C)(C)C

> <Shape>
0.273

> <Color>
0.130

> <Negative vol penalty>
0.000

$$$$

  -OEChem-04052303393D

 82 91  0     1  0  0  0  0  0999 V2000
  -27.0200  -37.0284   20.3364 C   0  0  0  0  0  0  0  0  0  0  0  0
  -27.4832  -35.7978   19.8820 C   0  0  0  0  0  0  0  0  0  0  0  0
  -23.2117  -10.1401   19.8074 C   0  0  0  0  0  0  0  0  0  0  0  0
  -23.8728   -9.7349   22.0956 C   0  0  0  0  0  0  0  0  0  0  0  0
  -26.4216  -37.1264   21.5919 C   0  0  0  0  0  0  0  0  0  0  0  0
  -27.3492  -34.6646   20.6834 C   0  0  0  0  0  0  0  0  0  0  0  0
  -26.2927  -28.9319   18.8057 C   0  0  0  0  0  0  0  0  0  0  0  0
  -22.5010   -8.9400   19.8002 C   0  0  0  0  0  0  0  0  0  0  0  0
  -23.1620   -8.5347   22.0884 C   0  0  0  0  0  0  0  0  0  0  0  0
  -27.1369  -27.8415   18.6003 C   0  0  0  0  0  0  0  0  0  0  0  0
  -23.5988   -5.3876   20.9327 C   0  0  0  0  0  0  0  0  0  0  0  0
  -24.2207   -4.2629   21.4747 C   0  0  0  0  0  0  0  0  0  0  0  0
  -26.6066  -27.0230   20.8067 C   0  0  0  0  0  0  0  0  0  0  0  0
  -28.7378  -20.4217   18.3192 C   0  0  0  0  0  0  0  0  0  0  0  0
  -22.4432   -4.0626   23.0987 C   0  0  0  0  0  0  0  0  0  0  0  0
  -23.8977  -10.5376   20.9551 C   0  0  0  0  0  0  0  0  0  0  0  0
  -24.1509  -13.0485   21.3276 C   0  0  0  0  0  0  0  0  0  0  0  0
  -26.2714  -35.9919   22.4050 C   0  0  0  0  0  0  0  0  0  0  0  0
  -25.6064  -29.0820   20.0193 C   0  0  0  0  0  0  0  0  0  0  0  0
  -26.7494  -34.7477   21.9515 C   0  0  0  0  0  0  0  0  0  0  0  0
  -25.7523  -28.1148   21.0240 C   0  0  0  0  0  0  0  0  0  0  0  0
  -28.7436  -19.0123   18.3135 C   0  0  0  0  0  0  0  0  0  0  0  0
  -22.4761   -8.1373   20.9406 C   0  0  0  0  0  0  0  0  0  0  0  0
  -27.2962  -26.8884   19.6020 C   0  0  0  0  0  0  0  0  0  0  0  0
  -22.3991   -5.8499   21.4737 C   0  0  0  0  0  0  0  0  0  0  0  0
  -23.6429   -3.6003   22.5576 C   0  0  0  0  0  0  0  0  0  0  0  0
  -21.8213   -5.1874   22.5567 C   0  0  0  0  0  0  0  0  0  0  0  0
  -24.6325  -11.7770   20.9630 C   0  0  0  0  0  0  0  0  0  0  0  0
  -28.1568  -18.4884   19.4283 C   0  0  0  0  0  0  0  0  0  0  0  0
  -25.2290  -13.8837   21.1649 C   0  0  0  0  0  0  0  0  0  0  0  0
  -28.1281  -20.9011   19.4681 C   0  0  0  0  0  0  0  0  0  0  0  0
  -22.8456  -13.4397   21.7735 C   0  0  0  0  0  0  0  0  0  0  0  0
  -25.5956  -31.2585   22.3358 C   0  0  0  0  0  0  0  0  0  0  0  0
  -23.1473  -29.4633   23.4783 C   0  0  0  0  0  0  0  0  0  0  0  0
  -28.2345  -23.4065   19.2550 C   0  0  0  0  0  0  0  0  0  0  0  0
  -21.5889  -26.4295   23.5976 C   0  0  0  0  0  0  0  0  0  0  0  0
  -29.4924  -15.5042   17.8605 C   0  0  0  0  0  0  0  0  0  0  0  0
  -25.6607  -36.1559   23.7742 C   0  0  0  0  0  0  0  0  0  0  0  0
  -24.6787  -30.2497   20.2150 C   0  0  0  0  0  0  0  0  0  0  0  0
  -25.0222  -28.2192   22.3372 C   0  0  0  0  0  0  0  0  0  0  0  0
  -29.2296  -17.9493   17.4157 C   0  0  0  0  0  0  0  0  0  0  0  0
  -28.1339  -17.0154   19.4511 C   0  0  0  0  0  0  0  0  0  0  0  0
  -25.2188  -34.8383   24.4059 C   0  0  0  0  0  0  0  0  0  0  0  0
  -30.1116  -12.8564   20.3286 C   0  0  0  0  0  0  0  0  0  0  0  0
  -26.3105  -33.7831   24.2586 C   0  0  0  0  0  0  0  0  0  0  0  0
  -28.6950  -12.4170   20.7053 C   0  0  0  0  0  0  0  0  0  0  0  0
  -30.1895  -13.3721   18.8931 C   0  0  0  0  0  0  0  0  0  0  0  0
  -27.8010  -13.9733   18.9367 C   0  0  0  0  0  0  0  0  0  0  0  0
  -26.5998  -33.4910   22.7813 C   0  0  1  0  0  0  0  0  0  0  0  0
  -24.4276  -30.5735   21.6845 C   0  0  1  0  0  0  0  0  0  0  0  0
  -27.6670  -13.5227   20.3973 C   0  0  1  0  0  0  0  0  0  0  0  0
  -19.6317  -25.2602   24.6461 C   0  0  0  0  0  0  0  0  0  0  0  0
  -24.6586  -29.3117   26.1246 C   0  0  0  0  0  0  0  0  0  0  0  0
  -23.1746  -27.4058   26.7830 C   0  0  0  0  0  0  0  0  0  0  0  0
  -22.1921  -29.6575   26.3503 C   0  0  0  0  0  0  0  0  0  0  0  0
  -20.3779  -25.8444   20.9613 C   0  0  0  0  0  0  0  0  0  0  0  0
  -27.8010  -24.6117   20.0687 C   0  0  0  0  0  0  0  0  0  1  0  0
  -23.0330  -28.2777   24.4058 C   0  0  1  0  0  0  0  0  0  0  0  0
  -20.1305  -26.0394   23.4391 C   0  0  2  0  0  0  0  0  0  0  0  0
  -23.2800  -28.6619   25.8920 C   0  0  0  0  0  0  0  0  0  0  0  0
  -25.9167  -11.7977   20.5962 N   0  0  0  0  0  0  0  0  0  0  0  0
  -26.2510  -13.0925   20.7294 N   0  0  0  0  0  0  0  0  0  0  0  0
  -24.1316  -29.3824   22.4831 N   0  0  0  0  0  0  0  0  0  0  0  0
  -28.8796  -16.7192   18.1863 N   0  0  0  0  0  0  0  0  0  0  0  0
  -29.1752  -14.3974   18.6540 N   0  0  0  0  0  0  0  0  0  0  0  0
  -25.3930  -15.2104   21.3532 N   0  0  0  0  0  0  0  0  0  0  0  0
  -21.8545  -12.4550   21.8846 N   0  0  0  0  0  0  0  0  0  0  0  0
  -27.9010  -22.1816   19.8914 N   0  0  0  0  0  0  0  0  0  0  0  0
  -25.5734  -32.6357   22.2249 N   0  0  0  0  0  0  0  0  0  0  0  0
  -21.7244  -27.6850   24.1514 N   0  0  0  0  0  0  0  0  0  0  0  0
  -19.9496  -25.1930   22.2259 N   0  3  0  0  0  0  0  0  0  0  0  0
  -22.5618  -14.6301   22.0491 O   0  0  0  0  0  0  0  0  0  0  0  0
  -26.4526  -30.5874   22.8986 O   0  0  0  0  0  0  0  0  0  0  0  0
  -22.3864  -30.4228   23.6268 O   0  0  0  0  0  0  0  0  0  0  0  0
  -28.8051  -23.5311   18.1764 O   0  0  0  0  0  0  0  0  0  0  0  0
  -22.5153  -25.6926   23.2670 O   0  0  0  0  0  0  0  0  0  0  0  0
  -30.3211  -15.4247   16.9450 O   0  0  0  0  0  0  0  0  0  0  0  0
  -21.7825   -6.9662   20.9340 O   0  0  0  0  0  0  0  0  0  0  0  0
  -28.1287  -25.8124   19.4023 O   0  0  0  0  0  0  0  0  0  1  0  0
  -24.2394   -2.5193   23.0770 F   0  0  0  0  0  0  0  0  0  0  0  0
  -20.6682   -5.6261   23.0800 F   0  0  0  0  0  0  0  0  0  0  0  0
  -27.5832  -19.6285   20.5075 S   0  0  0  0  0  0  0  0  0  0  0  0
  1  2  1  0  0  0  0
  1  5  2  0  0  0  0
  2  6  2  0  0  0  0
  3  8  2  0  0  0  0
  3 16  1  0  0  0  0
  4  9  1  0  0  0  0
  4 16  2  0  0  0  0
  5 18  1  0  0  0  0
  6 20  1  0  0  0  0
  7 10  2  0  0  0  0
  7 19  1  0  0  0  0
  8 23  1  0  0  0  0
  9 23  2  0  0  0  0
 10 24  1  0  0  0  0
 11 12  2  0  0  0  0
 11 25  1  0  0  0  0
 12 26  1  0  0  0  0
 13 21  1  0  0  0  0
 13 24  2  0  0  0  0
 14 22  1  0  0  0  0
 14 31  2  0  0  0  0
 15 26  2  0  0  0  0
 15 27  1  0  0  0  0
 16 28  1  0  0  0  0
 17 28  1  0  0  0  0
 17 30  2  0  0  0  0
 17 32  1  0  0  0  0
 18 20  2  0  0  0  0
 18 38  1  0  0  0  0
 19 21  2  0  0  0  0
 19 39  1  0  0  0  0
 20 49  1  0  0  0  0
 21 40  1  0  0  0  0
 22 29  2  0  0  0  0
 22 41  1  0  0  0  0
 23 78  1  0  0  0  0
 24 79  1  0  0  0  0
 25 27  2  0  0  0  0
 25 78  1  0  0  0  0
 26 80  1  0  0  0  0
 27 81  1  0  0  0  0
 28 61  2  0  0  0  0
 29 42  1  0  0  0  0
 29 82  1  0  0  0  0
 30 62  1  0  0  0  0
 30 66  1  0  0  0  0
 31 68  1  0  0  0  0
 31 82  1  0  0  0  0
 32 67  1  0  0  0  0
 32 72  2  0  0  0  0
 33 50  1  0  0  0  0
 33 69  1  0  0  0  0
 33 73  2  0  0  0  0
 34 58  1  0  0  0  0
 34 63  1  0  0  0  0
 34 74  2  0  0  0  0
 35 57  1  0  0  0  0
 35 68  1  0  0  0  0
 35 75  2  0  0  0  0
 36 59  1  0  0  0  0
 36 70  1  0  0  0  0
 36 76  2  0  0  0  0
 37 64  1  0  0  0  0
 37 65  1  0  0  0  0
 37 77  2  0  0  0  0
 38 43  1  0  0  0  0
 39 50  1  0  0  0  0
 40 63  1  0  0  0  0
 41 64  1  0  0  0  0
 42 64  1  0  0  0  0
 43 45  1  0  0  0  0
 44 46  1  0  0  0  0
 44 47  1  0  0  0  0
 45 49  1  0  0  0  0
 46 51  1  0  0  0  0
 47 65  1  0  0  0  0
 48 51  1  0  0  0  0
 48 65  1  0  0  0  0
 49 69  1  0  0  0  0
 50 63  1  0  0  0  0
 51 62  1  0  0  0  0
 52 59  1  0  0  0  0
 53 60  1  0  0  0  0
 54 60  1  0  0  0  0
 55 60  1  0  0  0  0
 56 71  1  0  0  0  0
 57 79  1  0  0  0  0
 58 60  1  0  0  0  0
 58 70  1  0  0  0  0
 59 71  1  0  0  0  0
 61 62  1  0  0  0  0
M  CHG  1  71   1
M  ISO  4  37 100  57 101  64 100  79 101
M  END
> <Batch ID>
0156

> <Smiles>
CNC(C)C(=O)NC(C(=O)N1Cc2cc([101O:1][101CH2:1]C(=O)Nc3cc4c(s3)C[100N:0]([100C:0](=O)N3CCCC(n5nc(-c6ccc(Oc7ccc(F)cc7F)cc6)c(C(N)=O)c5N)C3)C4)ccc2CC1C(=O)NC1CCCc2ccccc21)C(C)(C)C

> <Shape>
0.337

> <Color>
0.166

> <Negative vol penalty>
0.000

$$$$

  -OEChem-04052303393D

 84 92  0     1  0  0  0  0  0999 V2000
  -21.5973  -11.5883   21.7410 C   0  0  0  0  0  0  0  0  0  0  0  0
  -22.0255  -12.5361   22.6650 C   0  0  0  0  0  0  0  0  0  0  0  0
  -23.6630  -28.6957   19.0872 C   0  0  0  0  0  0  0  0  0  0  0  0
  -24.0155  -27.6903   21.2556 C   0  0  0  0  0  0  0  0  0  0  0  0
  -22.4360  -11.2085   20.6941 C   0  0  0  0  0  0  0  0  0  0  0  0
  -23.2933  -13.1039   22.5432 C   0  0  0  0  0  0  0  0  0  0  0  0
  -24.9048  -18.8459   23.9351 C   0  0  0  0  0  0  0  0  0  0  0  0
  -22.3272  -28.2956   19.1188 C   0  0  0  0  0  0  0  0  0  0  0  0
  -22.6796  -27.2903   21.2873 C   0  0  0  0  0  0  0  0  0  0  0  0
  -25.5191  -19.4021   25.0563 C   0  0  0  0  0  0  0  0  0  0  0  0
  -19.6748  -28.6963   21.9311 C   0  0  0  0  0  0  0  0  0  0  0  0
  -18.9661  -28.9022   23.1147 C   0  0  0  0  0  0  0  0  0  0  0  0
  -27.6563  -19.2647   23.9460 C   0  0  0  0  0  0  0  0  0  0  0  0
  -30.3325  -23.3254   23.5356 C   0  0  0  0  0  0  0  0  0  0  0  0
  -30.4924  -24.0909   25.8142 C   0  0  0  0  0  0  0  0  0  0  0  0
  -18.5628  -26.5262   23.2864 C   0  0  0  0  0  0  0  0  0  0  0  0
  -24.5072  -28.3930   20.1555 C   0  0  0  0  0  0  0  0  0  0  0  0
  -26.4238  -30.0174   20.5980 C   0  0  0  0  0  0  0  0  0  0  0  0
  -23.7110  -11.7790   20.5538 C   0  0  0  0  0  0  0  0  0  0  0  0
  -25.6644  -18.4842   22.8133 C   0  0  0  0  0  0  0  0  0  0  0  0
  -24.1504  -12.7304   21.4941 C   0  0  0  0  0  0  0  0  0  0  0  0
  -27.0489  -18.7064   22.8109 C   0  0  0  0  0  0  0  0  0  0  0  0
  -29.8741  -23.3015   24.8492 C   0  0  0  0  0  0  0  0  0  0  0  0
  -21.8354  -27.5929   20.2189 C   0  0  0  0  0  0  0  0  0  0  0  0
  -26.8954  -19.6089   25.0630 C   0  0  0  0  0  0  0  0  0  0  0  0
  -19.8274  -27.4054   21.4251 C   0  0  0  0  0  0  0  0  0  0  0  0
  -18.4101  -27.8171   23.7924 C   0  0  0  0  0  0  0  0  0  0  0  0
  -19.2714  -26.3204   22.1027 C   0  0  0  0  0  0  0  0  0  0  0  0
  -25.8874  -28.8055   20.1232 C   0  0  0  0  0  0  0  0  0  0  0  0
  -31.4064  -24.1446   23.2174 C   0  0  0  0  0  0  0  0  0  0  0  0
  -27.7689  -29.9232   20.3366 C   0  0  0  0  0  0  0  0  0  0  0  0
  -31.5623  -24.8906   25.4384 C   0  0  0  0  0  0  0  0  0  0  0  0
  -25.7651  -31.1287   21.2199 C   0  0  0  0  0  0  0  0  0  0  0  0
  -26.2588  -15.7579   21.2909 C   0  0  0  0  0  0  0  0  0  0  0  0
  -27.7666  -17.7137   19.1877 C   0  0  0  0  0  0  0  0  0  0  0  0
  -29.3293  -20.6920   18.6091 C   0  0  0  0  0  0  0  0  0  0  0  0
  -31.4711  -25.2694   19.6385 C   0  0  0  0  0  0  0  0  0  0  0  0
  -24.6004  -11.3020   19.4330 C   0  0  0  0  0  0  0  0  0  0  0  0
  -24.9830  -17.9101   21.6015 C   0  0  0  0  0  0  0  0  0  0  0  0
  -27.9065  -18.3542   21.6240 C   0  0  0  0  0  0  0  0  0  0  0  0
  -25.7838  -12.2265   19.1589 C   0  0  0  0  0  0  0  0  0  0  0  0
  -30.8609  -27.8885   17.3050 C   0  0  0  0  0  0  0  0  0  0  0  0
  -26.4684  -12.6186   20.4645 C   0  0  0  0  0  0  0  0  0  0  0  0
  -29.5655  -28.5298   17.8055 C   0  0  0  0  0  0  0  0  0  0  0  0
  -30.8566  -26.3750   17.5086 C   0  0  0  0  0  0  0  0  0  0  0  0
  -29.2752  -26.5777   19.3878 C   0  0  0  0  0  0  0  0  0  0  0  0
  -25.5091  -13.3871   21.3813 C   0  0  1  0  0  0  0  0  0  0  0  0
  -25.9247  -17.1037   20.7124 C   0  0  1  0  0  0  0  0  0  0  0  0
  -29.2556  -28.1101   19.2550 C   0  0  2  0  0  0  0  0  0  0  0  0
  -30.4894  -21.9893   16.8013 C   0  0  0  0  0  0  0  0  0  0  0  0
  -26.4791  -21.3411   27.9492 C   0  0  0  0  0  0  0  0  0  0  0  0
  -30.2358  -15.9505   19.5103 C   0  0  0  0  0  0  0  0  0  0  0  0
  -31.5929  -17.7814   18.4739 C   0  0  0  0  0  0  0  0  0  0  0  0
  -29.7764  -16.6831   17.1637 C   0  0  0  0  0  0  0  0  0  0  0  0
  -31.8573  -25.7789   27.7513 C   0  0  0  0  0  0  0  0  0  0  0  0
  -27.3456  -22.8840   18.7486 C   0  0  0  0  0  0  0  0  0  0  0  0
  -31.9535  -24.2289   21.8393 C   0  0  0  0  0  0  0  0  0  0  0  0
  -28.2640  -22.4093   26.5337 C   0  0  0  0  0  0  0  0  0  0  0  0
  -29.1686  -18.2556   19.0478 C   0  0  1  0  0  0  0  0  0  0  0  0
  -29.1668  -21.7161   17.5004 C   0  0  2  0  0  0  0  0  0  0  0  0
  -27.0726  -21.4544   26.5526 C   0  0  1  0  0  0  0  0  0  1  0  0
  -30.1778  -17.1726   18.5722 C   0  0  0  0  0  0  0  0  0  0  0  0
  -26.8159  -28.0007   19.5996 N   0  0  0  0  0  0  0  0  0  0  0  0
  -27.9493  -28.7082   19.7439 N   0  0  0  0  0  0  0  0  0  0  0  0
  -31.9835  -24.8945   24.1663 N   0  3  0  0  0  0  0  0  0  0  0  0
  -27.1946  -17.7897   20.4655 N   0  0  0  0  0  0  0  0  0  0  0  0
  -30.5581  -26.0441   18.9040 N   0  0  0  0  0  0  0  0  0  0  0  0
  -28.8031  -30.7621   20.5582 N   0  0  0  0  0  0  0  0  0  0  0  0
  -24.3786  -31.0608   21.4130 N   0  0  0  0  0  0  0  0  0  0  0  0
  -28.8032  -22.4945   25.1954 N   0  0  0  0  0  0  0  0  0  0  0  0
  -32.2251  -25.7056   26.3661 N   0  0  0  0  0  0  0  0  0  0  0  0
  -25.3739  -14.7576   20.9364 N   0  0  0  0  0  0  0  0  0  0  0  0
  -29.0729  -19.4124   18.1640 N   0  0  0  0  0  0  0  0  0  0  0  0
  -31.1143  -25.0070   20.9555 N   0  0  0  0  0  0  0  0  0  0  0  0
  -28.6532  -23.0012   18.0534 N   0  3  0  0  0  0  0  0  0  0  0  0
  -26.3852  -32.1585   21.5783 O   0  0  0  0  0  0  0  0  0  0  0  0
  -27.2473  -15.6357   22.0049 O   0  0  0  0  0  0  0  0  0  0  0  0
  -27.1971  -17.2471   18.1980 O   0  0  0  0  0  0  0  0  0  0  0  0
  -29.6549  -20.9963   19.7545 O   0  0  0  0  0  0  0  0  0  0  0  0
  -32.5285  -24.8478   19.1579 O   0  0  0  0  0  0  0  0  0  0  0  0
  -20.5319  -27.2026   20.2502 O   0  0  0  0  0  0  0  0  0  0  0  0
  -27.4977  -20.1511   26.1563 O   0  0  0  0  0  0  0  0  0  1  0  0
  -17.7310  -28.0148   24.9299 F   0  0  0  0  0  0  0  0  0  0  0  0
  -19.4157  -25.0778   21.6221 F   0  0  0  0  0  0  0  0  0  0  0  0
  1  2  1  0  0  0  0
  1  5  2  0  0  0  0
  2  6  2  0  0  0  0
  3  8  2  0  0  0  0
  3 17  1  0  0  0  0
  4  9  1  0  0  0  0
  4 17  2  0  0  0  0
  5 19  1  0  0  0  0
  6 21  1  0  0  0  0
  7 10  2  0  0  0  0
  7 20  1  0  0  0  0
  8 24  1  0  0  0  0
  9 24  2  0  0  0  0
 10 25  1  0  0  0  0
 11 12  2  0  0  0  0
 11 26  1  0  0  0  0
 12 27  1  0  0  0  0
 13 22  1  0  0  0  0
 13 25  2  0  0  0  0
 14 23  1  0  0  0  0
 14 30  2  0  0  0  0
 15 23  2  0  0  0  0
 15 32  1  0  0  0  0
 16 27  2  0  0  0  0
 16 28  1  0  0  0  0
 17 29  1  0  0  0  0
 18 29  1  0  0  0  0
 18 31  2  0  0  0  0
 18 33  1  0  0  0  0
 19 21  2  0  0  0  0
 19 38  1  0  0  0  0
 20 22  2  0  0  0  0
 20 39  1  0  0  0  0
 21 47  1  0  0  0  0
 22 40  1  0  0  0  0
 23 70  1  0  0  0  0
 24 81  1  0  0  0  0
 25 82  1  0  0  0  0
 26 28  2  0  0  0  0
 26 81  1  0  0  0  0
 27 83  1  0  0  0  0
 28 84  1  0  0  0  0
 29 63  2  0  0  0  0
 30 57  1  0  0  0  0
 30 65  1  0  0  0  0
 31 64  1  0  0  0  0
 31 68  1  0  0  0  0
 32 65  2  0  0  0  0
 32 71  1  0  0  0  0
 33 69  1  0  0  0  0
 33 76  2  0  0  0  0
 34 48  1  0  0  0  0
 34 72  1  0  0  0  0
 34 77  2  0  0  0  0
 35 59  1  0  0  0  0
 35 66  1  0  0  0  0
 35 78  2  0  0  0  0
 36 60  1  0  0  0  0
 36 73  1  0  0  0  0
 36 79  2  0  0  0  0
 37 67  1  0  0  0  0
 37 74  1  0  0  0  0
 37 80  2  0  0  0  0
 38 41  1  0  0  0  0
 39 48  1  0  0  0  0
 40 66  1  0  0  0  0
 41 43  1  0  0  0  0
 42 44  1  0  0  0  0
 42 45  1  0  0  0  0
 43 47  1  0  0  0  0
 44 49  1  0  0  0  0
 45 67  1  0  0  0  0
 46 49  1  0  0  0  0
 46 67  1  0  0  0  0
 47 72  1  0  0  0  0
 48 66  1  0  0  0  0
 49 64  1  0  0  0  0
 50 60  1  0  0  0  0
 51 61  1  0  0  0  0
 52 62  1  0  0  0  0
 53 62  1  0  0  0  0
 54 62  1  0  0  0  0
 55 71  1  0  0  0  0
 56 75  1  0  0  0  0
 57 74  1  0  0  0  0
 58 61  1  0  0  0  0
 58 70  1  0  0  0  0
 59 62  1  0  0  0  0
 59 73  1  0  0  0  0
 60 75  1  0  0  0  0
 61 82  1  0  0  0  0
 63 64  1  0  0  0  0
M  CHG  2  65   1  75   1
M  ISO  4  37 100  61 101  74 100  82 101
M  END
> <Batch ID>
0156

> <Smiles>
CNc1cc(NC[101CH:1](C)[101O:1]c2ccc3c(c2)CN(C(=O)C(NC(=O)C(C)NC)C(C)(C)C)C(C(=O)NC2CCCc4ccccc42)C3)cc(C[100NH:0][100C:0](=O)N2CCCC(n3nc(-c4ccc(Oc5ccc(F)cc5F)cc4)c(C(N)=O)c3N)C2)n1

> <Shape>
0.229

> <Color>
0.061

> <Negative vol penalty>
0.000

$$$$

  -OEChem-04052303393D

 82 90  0     1  0  0  0  0  0999 V2000
  -26.9277  -36.0880   22.2675 C   0  0  0  0  0  0  0  0  0  0  0  0
  -27.3451  -34.7614   22.2324 C   0  0  0  0  0  0  0  0  0  0  0  0
  -21.1486  -11.8955   21.4525 C   0  0  0  0  0  0  0  0  0  0  0  0
  -23.5308  -11.5134   21.3238 C   0  0  0  0  0  0  0  0  0  0  0  0
  -25.6405  -36.4013   22.7023 C   0  0  0  0  0  0  0  0  0  0  0  0
  -26.4759  -33.7473   22.6331 C   0  0  0  0  0  0  0  0  0  0  0  0
  -26.4992  -29.8016   19.4588 C   0  0  0  0  0  0  0  0  0  0  0  0
  -20.9194  -10.5343   21.2524 C   0  0  0  0  0  0  0  0  0  0  0  0
  -23.3016  -10.1522   21.1238 C   0  0  0  0  0  0  0  0  0  0  0  0
  -27.5691  -28.9129   19.5555 C   0  0  0  0  0  0  0  0  0  0  0  0
  -22.5188   -7.4567   23.0059 C   0  0  0  0  0  0  0  0  0  0  0  0
  -23.2992   -6.5563   23.7310 C   0  0  0  0  0  0  0  0  0  0  0  0
  -26.1908  -27.4024   20.8353 C   0  0  0  0  0  0  0  0  0  0  0  0
  -24.1370   -5.6205   21.6671 C   0  0  0  0  0  0  0  0  0  0  0  0
  -28.8229  -19.1112   19.5508 C   0  0  0  0  0  0  0  0  0  0  0  0
  -22.4543  -12.3852   21.4882 C   0  0  0  0  0  0  0  0  0  0  0  0
  -22.8644  -14.4529   22.9248 C   0  0  0  0  0  0  0  0  0  0  0  0
  -24.7519  -35.3898   23.0994 C   0  0  0  0  0  0  0  0  0  0  0  0
  -25.2683  -29.5018   20.0599 C   0  0  0  0  0  0  0  0  0  0  0  0
  -25.1761  -34.0475   23.0749 C   0  0  0  0  0  0  0  0  0  0  0  0
  -25.1061  -28.2878   20.7425 C   0  0  0  0  0  0  0  0  0  0  0  0
  -21.9959   -9.6626   21.0881 C   0  0  0  0  0  0  0  0  0  0  0  0
  -27.4159  -27.7144   20.2463 C   0  0  0  0  0  0  0  0  0  0  0  0
  -22.5474   -7.4390   21.6114 C   0  0  0  0  0  0  0  0  0  0  0  0
  -24.1084   -5.6382   23.0616 C   0  0  0  0  0  0  0  0  0  0  0  0
  -23.3565   -6.5210   20.9420 C   0  0  0  0  0  0  0  0  0  0  0  0
  -22.6917  -13.7913   21.6943 C   0  0  0  0  0  0  0  0  0  0  0  0
  -28.1910  -19.1556   18.3328 C   0  0  0  0  0  0  0  0  0  0  0  0
  -23.0579  -15.7690   22.5829 C   0  0  0  0  0  0  0  0  0  0  0  0
  -28.8401  -21.1123   18.9039 C   0  0  0  0  0  0  0  0  0  0  0  0
  -29.0581  -23.1550   19.8898 C   0  0  0  0  0  0  0  0  0  0  0  0
  -22.8513  -13.9249   24.2578 C   0  0  0  0  0  0  0  0  0  0  0  0
  -29.2472  -24.6361   19.8355 C   0  0  0  0  0  0  0  0  0  0  0  0
  -23.5005  -30.8376   22.3390 C   0  0  0  0  0  0  0  0  0  0  0  0
  -21.3620  -28.5563   21.4758 C   0  0  0  0  0  0  0  0  0  0  0  0
  -20.7953  -25.5052   20.0558 C   0  0  0  0  0  0  0  0  0  0  0  0
  -25.0945  -18.4366   17.6244 C   0  0  0  0  0  0  0  0  0  0  0  0
  -23.3865  -35.7810   23.6066 C   0  0  0  0  0  0  0  0  0  0  0  0
  -24.1160  -30.4589   19.9237 C   0  0  0  0  0  0  0  0  0  0  0  0
  -23.7991  -27.9095   21.3883 C   0  0  0  0  0  0  0  0  0  0  0  0
  -22.3997  -34.6175   23.6590 C   0  0  0  0  0  0  0  0  0  0  0  0
  -21.9438  -18.9610   19.1976 C   0  0  0  0  0  0  0  0  0  0  0  0
  -23.0496  -33.3947   24.2986 C   0  0  0  0  0  0  0  0  0  0  0  0
  -21.7938  -17.7552   20.1269 C   0  0  0  0  0  0  0  0  0  0  0  0
  -22.6359  -18.5830   17.8898 C   0  0  0  0  0  0  0  0  0  0  0  0
  -23.7828  -16.6935   18.9800 C   0  0  0  0  0  0  0  0  0  0  0  0
  -24.2540  -32.9174   23.4781 C   0  0  1  0  0  0  0  0  0  0  0  0
  -23.0620  -30.2840   21.0127 C   0  0  1  0  0  0  0  0  0  0  0  0
  -23.1405  -17.0367   20.3350 C   0  0  2  0  0  0  0  0  0  0  0  0
  -18.9481  -23.8908   19.5274 C   0  0  0  0  0  0  0  0  0  0  0  0
  -21.2488  -27.7291   24.4106 C   0  0  0  0  0  0  0  0  0  0  0  0
  -20.1767  -25.5837   23.6924 C   0  0  0  0  0  0  0  0  0  0  0  0
  -19.0346  -27.7565   23.2483 C   0  0  0  0  0  0  0  0  0  0  0  0
  -21.3337  -25.6605   17.1497 C   0  0  0  0  0  0  0  0  0  0  0  0
  -27.5557  -18.1626   17.4609 C   0  0  0  0  0  0  0  0  0  0  0  0
  -28.1410  -25.4576   20.4386 C   0  0  0  0  0  0  0  0  0  1  0  0
  -21.0834  -27.1355   21.9033 C   0  0  1  0  0  0  0  0  0  0  0  0
  -19.7885  -25.0500   19.0148 C   0  0  2  0  0  0  0  0  0  0  0  0
  -20.4112  -27.0589   23.3032 C   0  0  0  0  0  0  0  0  0  0  0  0
  -29.2368  -20.3680   19.9113 N   0  0  0  0  0  0  0  0  0  0  0  0
  -22.7685  -14.6189   20.6487 N   0  0  0  0  0  0  0  0  0  0  0  0
  -29.0233  -22.4999   18.7817 N   0  0  0  0  0  0  0  0  0  0  0  0
  -22.9915  -15.8140   21.2214 N   0  0  0  0  0  0  0  0  0  0  0  0
  -22.7041  -28.8813   21.2328 N   0  0  0  0  0  0  0  0  0  0  0  0
  -23.9077  -17.9069   18.1572 N   0  0  0  0  0  0  0  0  0  0  0  0
  -23.2766  -16.8805   23.3171 N   0  0  0  0  0  0  0  0  0  0  0  0
  -22.6393  -12.5502   24.4299 N   0  0  0  0  0  0  0  0  0  0  0  0
  -23.8119  -32.1835   22.3116 N   0  0  0  0  0  0  0  0  0  0  0  0
  -20.2998  -26.5326   20.8305 N   0  0  0  0  0  0  0  0  0  0  0  0
  -26.2559  -17.7380   17.9310 N   0  0  0  0  0  0  0  0  0  0  0  0
  -20.4884  -24.6107   17.7746 N   0  3  0  0  0  0  0  0  0  0  0  0
  -23.0061  -14.6533   25.2672 O   0  0  0  0  0  0  0  0  0  0  0  0
  -30.2699  -25.0698   19.3291 O   0  0  0  0  0  0  0  0  0  0  0  0
  -23.5509  -30.0986   23.3152 O   0  0  0  0  0  0  0  0  0  0  0  0
  -20.4227  -29.3467   21.3547 O   0  0  0  0  0  0  0  0  0  0  0  0
  -21.9084  -24.9974   20.1726 O   0  0  0  0  0  0  0  0  0  0  0  0
  -25.1181  -19.4594   16.9314 O   0  0  0  0  0  0  0  0  0  0  0  0
  -28.1967  -20.4487   17.9046 O   0  0  0  0  0  0  0  0  0  0  0  0
  -21.7726   -8.3342   20.8930 O   0  0  0  0  0  0  0  0  0  0  0  0
  -28.4588  -26.8455   20.3427 O   0  0  0  0  0  0  0  0  0  1  0  0
  -24.8589   -4.7746   23.7580 F   0  0  0  0  0  0  0  0  0  0  0  0
  -23.3891   -6.5000   19.6025 F   0  0  0  0  0  0  0  0  0  0  0  0
  1  2  1  0  0  0  0
  1  5  2  0  0  0  0
  2  6  2  0  0  0  0
  3  8  2  0  0  0  0
  3 16  1  0  0  0  0
  4  9  1  0  0  0  0
  4 16  2  0  0  0  0
  5 18  1  0  0  0  0
  6 20  1  0  0  0  0
  7 10  2  0  0  0  0
  7 19  1  0  0  0  0
  8 22  1  0  0  0  0
  9 22  2  0  0  0  0
 10 23  1  0  0  0  0
 11 12  2  0  0  0  0
 11 24  1  0  0  0  0
 12 25  1  0  0  0  0
 13 21  1  0  0  0  0
 13 23  2  0  0  0  0
 14 25  2  0  0  0  0
 14 26  1  0  0  0  0
 15 28  2  0  0  0  0
 15 60  1  0  0  0  0
 16 27  1  0  0  0  0
 17 27  1  0  0  0  0
 17 29  2  0  0  0  0
 17 32  1  0  0  0  0
 18 20  2  0  0  0  0
 18 38  1  0  0  0  0
 19 21  2  0  0  0  0
 19 39  1  0  0  0  0
 20 47  1  0  0  0  0
 21 40  1  0  0  0  0
 22 79  1  0  0  0  0
 23 80  1  0  0  0  0
 24 26  2  0  0  0  0
 24 79  1  0  0  0  0
 25 81  1  0  0  0  0
 26 82  1  0  0  0  0
 27 61  2  0  0  0  0
 28 55  1  0  0  0  0
 28 78  1  0  0  0  0
 29 63  1  0  0  0  0
 29 66  1  0  0  0  0
 30 60  2  0  0  0  0
 30 62  1  0  0  0  0
 30 78  1  0  0  0  0
 31 33  1  0  0  0  0
 31 62  2  0  0  0  0
 32 67  1  0  0  0  0
 32 72  2  0  0  0  0
 33 56  1  0  0  0  0
 33 73  2  0  0  0  0
 34 48  1  0  0  0  0
 34 68  1  0  0  0  0
 34 74  2  0  0  0  0
 35 57  1  0  0  0  0
 35 64  1  0  0  0  0
 35 75  2  0  0  0  0
 36 58  1  0  0  0  0
 36 69  1  0  0  0  0
 36 76  2  0  0  0  0
 37 65  1  0  0  0  0
 37 70  1  0  0  0  0
 37 77  2  0  0  0  0
 38 41  1  0  0  0  0
 39 48  1  0  0  0  0
 40 64  1  0  0  0  0
 41 43  1  0  0  0  0
 42 44  1  0  0  0  0
 42 45  1  0  0  0  0
 43 47  1  0  0  0  0
 44 49  1  0  0  0  0
 45 65  1  0  0  0  0
 46 49  1  0  0  0  0
 46 65  1  0  0  0  0
 47 68  1  0  0  0  0
 48 64  1  0  0  0  0
 49 63  1  0  0  0  0
 50 58  1  0  0  0  0
 51 59  1  0  0  0  0
 52 59  1  0  0  0  0
 53 59  1  0  0  0  0
 54 71  1  0  0  0  0
 55 70  1  0  0  0  0
 56 80  1  0  0  0  0
 57 59  1  0  0  0  0
 57 69  1  0  0  0  0
 58 71  1  0  0  0  0
 61 63  1  0  0  0  0
M  CHG  1  71   1
M  ISO  4  37 100  56 101  70 100  80 101
M  END
> <Batch ID>
0156

> <Smiles>
CNC(C)C(=O)NC(C(=O)N1Cc2cc([101O:1][101CH2:1]C(=O)CNc3ncc(C=[100N:0][100C:0](=O)N4CCCC(n5nc(-c6ccc(Oc7ccc(F)cc7F)cc6)c(C(N)=O)c5N)C4)o3)ccc2CC1C(=O)NC1CCCc2ccccc21)C(C)(C)C

> <Shape>
0.260

> <Color>
0.109

> <Negative vol penalty>
0.000

$$$$
