
  -OEChem-04052303413D

 87 96  0     1  0  0  0  0  0999 V2000
  -21.8802  -11.2714   20.1500 C   0  0  0  0  0  0  0  0  0  0  0  0
  -21.7295  -12.3678   20.9930 C   0  0  0  0  0  0  0  0  0  0  0  0
  -21.4523  -28.8500   20.6168 C   0  0  0  0  0  0  0  0  0  0  0  0
  -22.6514  -27.5131   22.2329 C   0  0  0  0  0  0  0  0  0  0  0  0
  -23.1438  -10.9329   19.6676 C   0  0  0  0  0  0  0  0  0  0  0  0
  -22.8426  -13.1258   21.3549 C   0  0  0  0  0  0  0  0  0  0  0  0
  -26.7293  -26.8161   23.4336 C   0  0  0  0  0  0  0  0  0  0  0  0
  -27.5965  -24.8297   22.3662 C   0  0  0  0  0  0  0  0  0  0  0  0
  -23.0232  -19.1697   22.3266 C   0  0  0  0  0  0  0  0  0  0  0  0
  -25.6847  -26.0683   23.9767 C   0  0  0  0  0  0  0  0  0  0  0  0
  -26.5518  -24.0818   22.9093 C   0  0  0  0  0  0  0  0  0  0  0  0
  -20.3466  -28.0089   20.7415 C   0  0  0  0  0  0  0  0  0  0  0  0
  -21.5457  -26.6720   22.3577 C   0  0  0  0  0  0  0  0  0  0  0  0
  -22.9844  -19.9339   23.4921 C   0  0  0  0  0  0  0  0  0  0  0  0
  -18.9098  -24.3820   23.3707 C   0  0  0  0  0  0  0  0  0  0  0  0
  -18.5202  -24.0082   24.6567 C   0  0  0  0  0  0  0  0  0  0  0  0
  -25.3942  -20.0455   23.4917 C   0  0  0  0  0  0  0  0  0  0  0  0
  -18.1668  -26.3298   25.2245 C   0  0  0  0  0  0  0  0  0  0  0  0
  -22.6048  -28.6020   21.3625 C   0  0  0  0  0  0  0  0  0  0  0  0
  -24.0249  -30.6275   21.9856 C   0  0  0  0  0  0  0  0  0  0  0  0
  -27.6853  -26.1969   22.6283 C   0  0  0  0  0  0  0  0  0  0  0  0
  -24.2715  -11.6928   20.0161 C   0  0  0  0  0  0  0  0  0  0  0  0
  -24.2502  -18.8279   21.7401 C   0  0  0  0  0  0  0  0  0  0  0  0
  -24.1227  -12.7963   20.8778 C   0  0  0  0  0  0  0  0  0  0  0  0
  -25.4456  -19.2790   22.3174 C   0  0  0  0  0  0  0  0  0  0  0  0
  -25.5959  -24.7012   23.7146 C   0  0  0  0  0  0  0  0  0  0  0  0
  -20.3932  -26.9200   21.6119 C   0  0  0  0  0  0  0  0  0  0  0  0
  -24.1701  -20.3695   24.0764 C   0  0  0  0  0  0  0  0  0  0  0  0
  -18.9280  -25.7297   23.0115 C   0  0  0  0  0  0  0  0  0  0  0  0
  -18.1487  -24.9820   25.5837 C   0  0  0  0  0  0  0  0  0  0  0  0
  -18.5565  -26.7036   23.9384 C   0  0  0  0  0  0  0  0  0  0  0  0
  -23.7475  -29.4701   21.2337 C   0  0  0  0  0  0  0  0  0  0  0  0
  -25.2174  -31.0866   21.4818 C   0  0  0  0  0  0  0  0  0  0  0  0
  -24.4783  -23.9329   25.5545 C   0  0  0  0  0  0  0  0  0  0  0  0
  -23.2720  -31.2334   23.0447 C   0  0  0  0  0  0  0  0  0  0  0  0
  -25.7606  -16.0990   21.1273 C   0  0  0  0  0  0  0  0  0  0  0  0
  -27.8646  -18.0543   19.6198 C   0  0  0  0  0  0  0  0  0  0  0  0
  -29.2025  -21.1780   19.3044 C   0  0  0  0  0  0  0  0  0  0  0  0
  -29.7686  -28.5504   18.7589 C   0  0  0  0  0  0  0  0  0  0  0  0
  -25.6239  -11.2600   19.5077 C   0  0  0  0  0  0  0  0  0  0  0  0
  -24.2739  -18.0254   20.4681 C   0  0  0  0  0  0  0  0  0  0  0  0
  -26.7881  -18.9563   21.7158 C   0  0  0  0  0  0  0  0  0  0  0  0
  -26.6971  -12.3378   19.6380 C   0  0  0  0  0  0  0  0  0  0  0  0
  -31.3173  -27.3646   21.9068 C   0  0  0  0  0  0  0  0  0  0  0  0
  -27.8363  -31.1325   17.4837 C   0  0  0  0  0  0  0  0  0  0  0  0
  -30.1973  -26.5366   22.5353 C   0  0  0  0  0  0  0  0  0  0  0  0
  -26.6512  -12.9719   21.0246 C   0  0  0  0  0  0  0  0  0  0  0  0
  -26.5876  -31.1229   18.3652 C   0  0  0  0  0  0  0  0  0  0  0  0
  -31.2199  -27.3886   20.3842 C   0  0  0  0  0  0  0  0  0  0  0  0
  -28.2832  -29.7128   17.1538 C   0  0  0  0  0  0  0  0  0  0  0  0
  -28.7782  -27.0106   20.5011 C   0  0  0  0  0  0  0  0  0  0  0  0
  -27.2980  -28.8480   19.2511 C   0  0  0  0  0  0  0  0  0  0  0  0
  -28.8210  -27.0101   22.0366 C   0  0  1  0  0  0  0  0  0  0  0  0
  -25.3023  -13.6578   21.2732 C   0  0  1  0  0  0  0  0  0  0  0  0
  -25.5982  -17.3024   20.2424 C   0  0  1  0  0  0  0  0  0  0  0  0
  -26.8063  -30.2614   19.6212 C   0  0  2  0  0  0  0  0  0  0  0  0
  -22.1991  -24.0872   26.4759 C   0  0  0  0  0  0  0  0  0  0  0  0
  -30.9308  -22.4595   18.0130 C   0  0  0  0  0  0  0  0  0  0  0  0
  -30.0659  -16.7756   21.3018 C   0  0  0  0  0  0  0  0  0  0  0  0
  -31.5537  -18.6928   20.6862 C   0  0  0  0  0  0  0  0  0  0  0  0
  -30.6791  -17.1748   18.9104 C   0  0  0  0  0  0  0  0  0  0  0  0
  -27.1690  -23.0063   18.1726 C   0  0  0  0  0  0  0  0  0  0  0  0
  -22.9956  -21.9524   25.4071 C   0  0  0  0  0  0  0  0  0  1  0  0
  -23.3867  -23.1578   26.2580 C   0  0  1  0  0  0  0  0  0  0  0  0
  -29.1068  -18.8076   20.0302 C   0  0  1  0  0  0  0  0  0  0  0  0
  -29.4707  -22.0404   18.0843 C   0  0  2  0  0  0  0  0  0  0  0  0
  -30.3263  -17.8673   20.2448 C   0  0  0  0  0  0  0  0  0  0  0  0
  -24.6880  -29.2101   20.3216 N   0  0  0  0  0  0  0  0  0  0  0  0
  -24.5492  -23.9513   24.2605 N   0  0  0  0  0  0  0  0  0  0  0  0
  -25.5679  -30.2107   20.4970 N   0  0  0  0  0  0  0  0  0  0  0  0
  -26.7592  -18.1637   20.4755 N   0  0  0  0  0  0  0  0  0  0  0  0
  -29.8873  -27.7954   19.9374 N   0  0  0  0  0  0  0  0  0  0  0  0
  -28.4728  -28.9221   18.3699 N   0  0  0  0  0  0  0  0  0  0  0  0
  -25.9897  -32.1502   21.7896 N   0  0  0  0  0  0  0  0  0  0  0  0
  -22.0690  -30.6315   23.4383 N   0  0  0  0  0  0  0  0  0  0  0  0
  -25.2501  -14.9326   20.5902 N   0  0  0  0  0  0  0  0  0  0  0  0
  -29.3154  -19.8345   19.0151 N   0  0  0  0  0  0  0  0  0  0  0  0
  -28.6301  -23.2703   18.1244 N   0  3  0  0  0  0  0  0  0  0  0  0
  -23.6465  -32.2867   23.6138 O   0  0  0  0  0  0  0  0  0  0  0  0
  -26.3098  -16.2194   22.2162 O   0  0  0  0  0  0  0  0  0  0  0  0
  -27.8723  -17.3989   18.5748 O   0  0  0  0  0  0  0  0  0  0  0  0
  -28.9245  -21.6490   20.4050 O   0  0  0  0  0  0  0  0  0  0  0  0
  -30.7622  -28.8753   18.0969 O   0  0  0  0  0  0  0  0  0  0  0  0
  -19.3143  -26.0992   21.7340 O   0  0  0  0  0  0  0  0  0  0  0  0
  -24.1350  -21.1200   25.2218 O   0  0  0  0  0  0  0  0  0  1  0  0
  -17.7731  -24.6228   26.8182 F   0  0  0  0  0  0  0  0  0  0  0  0
  -18.5708  -27.9999   23.5988 F   0  0  0  0  0  0  0  0  0  0  0  0
  1  2  1  0  0  0  0
  1  5  2  0  0  0  0
  2  6  2  0  0  0  0
  3 12  2  0  0  0  0
  3 19  1  0  0  0  0
  4 13  1  0  0  0  0
  4 19  2  0  0  0  0
  5 22  1  0  0  0  0
  6 24  1  0  0  0  0
  7 10  2  0  0  0  0
  7 21  1  0  0  0  0
  8 11  1  0  0  0  0
  8 21  2  0  0  0  0
  9 14  2  0  0  0  0
  9 23  1  0  0  0  0
 10 26  1  0  0  0  0
 11 26  2  0  0  0  0
 12 27  1  0  0  0  0
 13 27  2  0  0  0  0
 14 28  1  0  0  0  0
 15 16  2  0  0  0  0
 15 29  1  0  0  0  0
 16 30  1  0  0  0  0
 17 25  1  0  0  0  0
 17 28  2  0  0  0  0
 18 30  2  0  0  0  0
 18 31  1  0  0  0  0
 19 32  1  0  0  0  0
 20 32  1  0  0  0  0
 20 33  2  0  0  0  0
 20 35  1  0  0  0  0
 21 53  1  0  0  0  0
 22 24  2  0  0  0  0
 22 40  1  0  0  0  0
 23 25  2  0  0  0  0
 23 41  1  0  0  0  0
 24 54  1  0  0  0  0
 25 42  1  0  0  0  0
 26 69  1  0  0  0  0
 27 84  1  0  0  0  0
 28 85  1  0  0  0  0
 29 31  2  0  0  0  0
 29 84  1  0  0  0  0
 30 86  1  0  0  0  0
 31 87  1  0  0  0  0
 32 68  2  0  0  0  0
 33 70  1  0  0  0  0
 33 74  1  0  0  0  0
 34 64  1  0  0  0  0
 34 69  2  0  0  0  0
 35 75  1  0  0  0  0
 35 79  2  0  0  0  0
 36 55  1  0  0  0  0
 36 76  1  0  0  0  0
 36 80  2  0  0  0  0
 37 65  1  0  0  0  0
 37 71  1  0  0  0  0
 37 81  2  0  0  0  0
 38 66  1  0  0  0  0
 38 77  1  0  0  0  0
 38 82  2  0  0  0  0
 39 72  1  0  0  0  0
 39 73  1  0  0  0  0
 39 83  2  0  0  0  0
 40 43  1  0  0  0  0
 41 55  1  0  0  0  0
 42 71  1  0  0  0  0
 43 47  1  0  0  0  0
 44 46  1  0  0  0  0
 44 49  1  0  0  0  0
 45 48  1  0  0  0  0
 45 50  1  0  0  0  0
 46 53  1  0  0  0  0
 47 54  1  0  0  0  0
 48 56  1  0  0  0  0
 49 72  1  0  0  0  0
 50 73  1  0  0  0  0
 51 53  1  0  0  0  0
 51 72  1  0  0  0  0
 52 56  1  0  0  0  0
 52 73  1  0  0  0  0
 54 76  1  0  0  0  0
 55 71  1  0  0  0  0
 56 70  1  0  0  0  0
 57 64  1  0  0  0  0
 58 66  1  0  0  0  0
 59 67  1  0  0  0  0
 60 67  1  0  0  0  0
 61 67  1  0  0  0  0
 62 78  1  0  0  0  0
 63 64  1  0  0  0  0
 63 85  1  0  0  0  0
 65 67  1  0  0  0  0
 65 77  1  0  0  0  0
 66 78  1  0  0  0  0
 68 70  1  0  0  0  0
M  CHG  1  78   1
M  ISO  4  39 100  63 101  72 100  85 101
M  END
> <Batch ID>
0157

> <Smiles>
CNC(C)C(=O)NC(C(=O)N1Cc2cc([101O:1][101CH2:1]C(C)=CNc3ccc(C4CCC[100N:0]([100C:0](=O)N5CCCC(n6nc(-c7ccc(Oc8ccc(F)cc8F)cc7)c(C(N)=O)c6N)C5)C4)cc3)ccc2CC1C(=O)NC1CCCc2ccccc21)C(C)(C)C

> <Shape>
0.248

> <Color>
0.075

> <Negative vol penalty>
0.000

$$$$

  -OEChem-04052303413D

 86 95  0     1  0  0  0  0  0999 V2000
  -31.7237  -12.7722   21.5092 C   0  0  0  0  0  0  0  0  0  0  0  0
  -31.1378  -13.9028   22.0694 C   0  0  0  0  0  0  0  0  0  0  0  0
  -22.6373  -30.6442   20.5627 C   0  0  0  0  0  0  0  0  0  0  0  0
  -22.5401  -28.8674   22.1970 C   0  0  0  0  0  0  0  0  0  0  0  0
  -31.1026  -12.1219   20.4437 C   0  0  0  0  0  0  0  0  0  0  0  0
  -29.9309  -14.3845   21.5635 C   0  0  0  0  0  0  0  0  0  0  0  0
  -26.6438  -15.6082   25.2163 C   0  0  0  0  0  0  0  0  0  0  0  0
  -21.2509  -30.5886   20.4198 C   0  0  0  0  0  0  0  0  0  0  0  0
  -21.1536  -28.8119   22.0541 C   0  0  0  0  0  0  0  0  0  0  0  0
  -26.8445  -16.8215   25.8731 C   0  0  0  0  0  0  0  0  0  0  0  0
  -18.4682  -30.5571   23.1328 C   0  0  0  0  0  0  0  0  0  0  0  0
  -17.7010  -30.4807   24.2952 C   0  0  0  0  0  0  0  0  0  0  0  0
  -28.8719  -20.8457   22.0875 C   0  0  0  0  0  0  0  0  0  0  0  0
  -28.2948  -23.1332   22.6081 C   0  0  0  0  0  0  0  0  0  0  0  0
  -25.1359  -17.8372   24.5062 C   0  0  0  0  0  0  0  0  0  0  0  0
  -29.4750  -22.6205   20.5632 C   0  0  0  0  0  0  0  0  0  0  0  0
  -16.7839  -28.3729   23.5514 C   0  0  0  0  0  0  0  0  0  0  0  0
  -23.2819  -29.7835   21.4513 C   0  0  0  0  0  0  0  0  0  0  0  0
  -28.2862  -21.7791   22.9427 C   0  0  0  0  0  0  0  0  0  0  0  0
  -25.4447  -30.6326   22.5043 C   0  0  0  0  0  0  0  0  0  0  0  0
  -29.8826  -12.5902   19.9309 C   0  0  0  0  0  0  0  0  0  0  0  0
  -25.6937  -15.5029   24.1903 C   0  0  0  0  0  0  0  0  0  0  0  0
  -29.2936  -13.7407   20.4893 C   0  0  0  0  0  0  0  0  0  0  0  0
  -24.9234  -16.6208   23.8396 C   0  0  0  0  0  0  0  0  0  0  0  0
  -29.4663  -21.2663   20.8978 C   0  0  0  0  0  0  0  0  0  0  0  0
  -28.8892  -23.5539   21.4184 C   0  0  0  0  0  0  0  0  0  0  0  0
  -20.5091  -29.6725   21.1655 C   0  0  0  0  0  0  0  0  0  0  0  0
  -26.0925  -17.9369   25.5161 C   0  0  0  0  0  0  0  0  0  0  0  0
  -18.3933  -29.5414   22.1797 C   0  0  0  0  0  0  0  0  0  0  0  0
  -16.8589  -29.3887   24.5045 C   0  0  0  0  0  0  0  0  0  0  0  0
  -17.5511  -28.4493   22.3890 C   0  0  0  0  0  0  0  0  0  0  0  0
  -24.7141  -29.8400   21.5989 C   0  0  0  0  0  0  0  0  0  0  0  0
  -26.7584  -30.3240   22.2482 C   0  0  0  0  0  0  0  0  0  0  0  0
  -27.6582  -21.3347   24.1998 C   0  0  0  0  0  0  0  0  0  0  0  0
  -24.9777  -31.5644   23.4889 C   0  0  0  0  0  0  0  0  0  0  0  0
  -25.8072  -14.8064   21.0910 C   0  0  0  0  0  0  0  0  0  0  0  0
  -22.5753  -14.9195   21.3454 C   0  0  0  0  0  0  0  0  0  0  0  0
  -19.8400  -16.0879   23.0187 C   0  0  0  0  0  0  0  0  0  0  0  0
  -29.4458  -25.5137   19.9366 C   0  0  0  0  0  0  0  0  0  0  0  0
  -29.2728  -11.8816   18.7473 C   0  0  0  0  0  0  0  0  0  0  0  0
  -25.4706  -14.1802   23.5098 C   0  0  0  0  0  0  0  0  0  0  0  0
  -23.8766  -16.5550   22.7587 C   0  0  0  0  0  0  0  0  0  0  0  0
  -27.8066  -12.2367   18.5140 C   0  0  0  0  0  0  0  0  0  0  0  0
  -29.6398  -28.8533   18.7172 C   0  0  0  0  0  0  0  0  0  0  0  0
  -30.2426  -21.1692   26.7307 C   0  0  0  0  0  0  0  0  0  0  0  0
  -27.6036  -13.7463   18.5947 C   0  0  0  0  0  0  0  0  0  0  0  0
  -28.4688  -29.5589   19.4049 C   0  0  0  0  0  0  0  0  0  0  0  0
  -28.9755  -21.3227   27.5656 C   0  0  0  0  0  0  0  0  0  0  0  0
  -29.8161  -21.6197   25.3393 C   0  0  0  0  0  0  0  0  0  0  0  0
  -29.2931  -27.4135   18.3421 C   0  0  0  0  0  0  0  0  0  0  0  0
  -27.6038  -27.2982   20.1315 C   0  0  0  0  0  0  0  0  0  0  0  0
  -27.9725  -14.2791   19.9845 C   0  0  1  0  0  0  0  0  0  0  0  0
  -24.8367  -14.3181   22.1290 C   0  0  1  0  0  0  0  0  0  0  0  0
  -27.9272  -28.7307   20.5865 C   0  0  2  0  0  0  0  0  0  0  0  0
  -27.8508  -20.8833   26.6233 C   0  0  2  0  0  0  0  0  0  0  0  0
  -17.3315  -16.0418   22.9680 C   0  0  0  0  0  0  0  0  0  0  0  0
  -22.5880  -16.9095   19.0325 C   0  0  0  0  0  0  0  0  0  0  0  0
  -20.2426  -17.5331   19.6478 C   0  0  0  0  0  0  0  0  0  0  0  0
  -20.7638  -15.2018   18.9294 C   0  0  0  0  0  0  0  0  0  0  0  0
  -19.6942  -14.8008   25.6797 C   0  0  0  0  0  0  0  0  0  0  0  0
  -27.5975  -19.3835   26.6557 C   0  0  0  0  0  0  0  0  0  1  0  0
  -21.5289  -15.9983   21.2037 C   0  0  1  0  0  0  0  0  0  0  0  0
  -18.5893  -15.3872   23.5178 C   0  0  2  0  0  0  0  0  0  0  0  0
  -21.3018  -16.4128   19.7225 C   0  0  0  0  0  0  0  0  0  0  0  0
  -25.4984  -29.0848   20.8253 N   0  0  0  0  0  0  0  0  0  0  0  0
  -26.7356  -29.4015   21.2439 N   0  0  0  0  0  0  0  0  0  0  0  0
  -28.3861  -21.2678   25.3010 N   0  0  0  0  0  0  0  0  0  0  0  0
  -23.7000  -15.2411   22.1185 N   0  0  0  0  0  0  0  0  0  0  0  0
  -28.7909  -26.6889   19.5115 N   0  0  0  0  0  0  0  0  0  0  0  0
  -30.0590  -20.3226   20.0334 N   0  0  0  0  0  0  0  0  0  0  0  0
  -27.9192  -30.7545   22.7864 N   0  0  0  0  0  0  0  0  0  0  0  0
  -23.5963  -31.7616   23.6200 N   0  0  0  0  0  0  0  0  0  0  0  0
  -28.8985  -24.9294   21.0783 N   0  0  0  0  0  0  0  0  0  0  0  0
  -26.9151  -13.9962   20.9313 N   0  0  0  0  0  0  0  0  0  0  0  0
  -20.3336  -15.4982   21.8742 N   0  0  0  0  0  0  0  0  0  0  0  0
  -26.3687  -21.0099   24.2068 N   0  3  0  0  0  0  0  0  0  0  0  0
  -18.5298  -15.4313   25.0062 N   0  3  0  0  0  0  0  0  0  0  0  0
  -25.7629  -32.2153   24.2192 O   0  0  0  0  0  0  0  0  0  0  0  0
  -25.5677  -15.8408   20.4791 O   0  0  0  0  0  0  0  0  0  0  0  0
  -22.3980  -13.8291   20.7966 O   0  0  0  0  0  0  0  0  0  0  0  0
  -20.3281  -17.0633   23.5852 O   0  0  0  0  0  0  0  0  0  0  0  0
  -30.4370  -25.0741   19.3481 O   0  0  0  0  0  0  0  0  0  0  0  0
  -19.1562  -29.6182   21.0265 O   0  0  0  0  0  0  0  0  0  0  0  0
  -26.2868  -19.1226   26.1552 O   0  0  0  0  0  0  0  0  0  1  0  0
  -16.1233  -29.3147   25.6215 F   0  0  0  0  0  0  0  0  0  0  0  0
  -17.4758  -27.4698   21.4775 F   0  0  0  0  0  0  0  0  0  0  0  0
  1  2  1  0  0  0  0
  1  5  2  0  0  0  0
  2  6  2  0  0  0  0
  3  8  2  0  0  0  0
  3 18  1  0  0  0  0
  4  9  1  0  0  0  0
  4 18  2  0  0  0  0
  5 21  1  0  0  0  0
  6 23  1  0  0  0  0
  7 10  2  0  0  0  0
  7 22  1  0  0  0  0
  8 27  1  0  0  0  0
  9 27  2  0  0  0  0
 10 28  1  0  0  0  0
 11 12  2  0  0  0  0
 11 29  1  0  0  0  0
 12 30  1  0  0  0  0
 13 19  1  0  0  0  0
 13 25  2  0  0  0  0
 14 19  2  0  0  0  0
 14 26  1  0  0  0  0
 15 24  1  0  0  0  0
 15 28  2  0  0  0  0
 16 25  1  0  0  0  0
 16 26  2  0  0  0  0
 17 30  2  0  0  0  0
 17 31  1  0  0  0  0
 18 32  1  0  0  0  0
 19 34  1  0  0  0  0
 20 32  1  0  0  0  0
 20 33  2  0  0  0  0
 20 35  1  0  0  0  0
 21 23  2  0  0  0  0
 21 40  1  0  0  0  0
 22 24  2  0  0  0  0
 22 41  1  0  0  0  0
 23 52  1  0  0  0  0
 24 42  1  0  0  0  0
 25 70  1  0  0  0  0
 26 73  1  0  0  0  0
 27 83  1  0  0  0  0
 28 84  1  0  0  0  0
 29 31  2  0  0  0  0
 29 83  1  0  0  0  0
 30 85  1  0  0  0  0
 31 86  1  0  0  0  0
 32 65  2  0  0  0  0
 33 66  1  0  0  0  0
 33 71  1  0  0  0  0
 34 67  1  0  0  0  0
 34 76  2  0  0  0  0
 35 72  1  0  0  0  0
 35 78  2  0  0  0  0
 36 53  1  0  0  0  0
 36 74  1  0  0  0  0
 36 79  2  0  0  0  0
 37 62  1  0  0  0  0
 37 68  1  0  0  0  0
 37 80  2  0  0  0  0
 38 63  1  0  0  0  0
 38 75  1  0  0  0  0
 38 81  2  0  0  0  0
 39 69  1  0  0  0  0
 39 73  1  0  0  0  0
 39 82  2  0  0  0  0
 40 43  1  0  0  0  0
 41 53  1  0  0  0  0
 42 68  1  0  0  0  0
 43 46  1  0  0  0  0
 44 47  1  0  0  0  0
 44 50  1  0  0  0  0
 45 48  1  0  0  0  0
 45 49  1  0  0  0  0
 46 52  1  0  0  0  0
 47 54  1  0  0  0  0
 48 55  1  0  0  0  0
 49 67  1  0  0  0  0
 50 69  1  0  0  0  0
 51 54  1  0  0  0  0
 51 69  1  0  0  0  0
 52 74  1  0  0  0  0
 53 68  1  0  0  0  0
 54 66  1  0  0  0  0
 55 61  1  0  0  0  0
 55 67  1  0  0  0  0
 56 63  1  0  0  0  0
 57 64  1  0  0  0  0
 58 64  1  0  0  0  0
 59 64  1  0  0  0  0
 60 77  1  0  0  0  0
 61 84  1  0  0  0  0
 62 64  1  0  0  0  0
 62 75  1  0  0  0  0
 63 77  1  0  0  0  0
 65 66  1  0  0  0  0
M  CHG  2  76   1  77   1
M  ISO  4  39 100  61 101  73 100  84 101
M  END
> <Batch ID>
0157

> <Smiles>
CNC(C)C(=O)NC(C(=O)N1Cc2cc([101O:1][101CH2:1]C3CCCN3C(=N)c3cc(N)cc([100NH:0][100C:0](=O)N4CCCC(n5nc(-c6ccc(Oc7ccc(F)cc7F)cc6)c(C(N)=O)c5N)C4)c3)ccc2CC1C(=O)NC1CCCc2ccccc21)C(C)(C)C

> <Shape>
0.250

> <Color>
0.083

> <Negative vol penalty>
0.000

$$$$

  -OEChem-04052303413D

 84 93  0     1  0  0  0  0  0999 V2000
  -20.1202  -24.2726   23.8763 C   0  0  0  0  0  0  0  0  0  0  0  0
  -21.0987  -24.4395   22.9015 C   0  0  0  0  0  0  0  0  0  0  0  0
  -23.6957   -9.2137   20.3330 C   0  0  0  0  0  0  0  0  0  0  0  0
  -22.7850  -11.1386   21.4742 C   0  0  0  0  0  0  0  0  0  0  0  0
  -19.2022  -25.2927   24.1226 C   0  0  0  0  0  0  0  0  0  0  0  0
  -21.1590  -25.6262   22.1717 C   0  0  0  0  0  0  0  0  0  0  0  0
  -25.8837  -27.3926   21.7225 C   0  0  0  0  0  0  0  0  0  0  0  0
  -27.8810  -18.8757   18.4102 C   0  0  0  0  0  0  0  0  0  0  0  0
  -22.8036   -8.3868   21.0156 C   0  0  0  0  0  0  0  0  0  0  0  0
  -21.8928  -10.3117   22.1568 C   0  0  0  0  0  0  0  0  0  0  0  0
  -26.7059  -26.7787   20.7786 C   0  0  0  0  0  0  0  0  0  0  0  0
  -22.5439   -7.0027   24.0882 C   0  0  0  0  0  0  0  0  0  0  0  0
  -23.0447   -5.8206   24.6336 C   0  0  0  0  0  0  0  0  0  0  0  0
  -27.8949  -20.2611   18.2934 C   0  0  0  0  0  0  0  0  0  0  0  0
  -26.2786  -28.5866   19.2396 C   0  0  0  0  0  0  0  0  0  0  0  0
  -21.5117   -4.5428   23.2719 C   0  0  0  0  0  0  0  0  0  0  0  0
  -29.7399  -19.0335   19.8854 C   0  0  0  0  0  0  0  0  0  0  0  0
  -23.6864  -10.5896   20.5623 C   0  0  0  0  0  0  0  0  0  0  0  0
  -24.4006  -12.0805   18.6194 C   0  0  0  0  0  0  0  0  0  0  0  0
  -19.2573  -26.4962   23.4022 C   0  0  0  0  0  0  0  0  0  0  0  0
  -25.2430  -28.6046   21.4276 C   0  0  0  0  0  0  0  0  0  0  0  0
  -20.2400  -26.6627   22.4077 C   0  0  0  0  0  0  0  0  0  0  0  0
  -25.4508  -29.2150   20.1825 C   0  0  0  0  0  0  0  0  0  0  0  0
  -28.8177  -18.2424   19.2194 C   0  0  0  0  0  0  0  0  0  0  0  0
  -21.9021   -8.9358   21.9275 C   0  0  0  0  0  0  0  0  0  0  0  0
  -26.9012  -27.3743   19.5359 C   0  0  0  0  0  0  0  0  0  0  0  0
  -21.5269   -6.9549   23.1347 C   0  0  0  0  0  0  0  0  0  0  0  0
  -22.5286   -4.5907   24.2255 C   0  0  0  0  0  0  0  0  0  0  0  0
  -21.0108   -5.7250   22.7266 C   0  0  0  0  0  0  0  0  0  0  0  0
  -24.6081  -11.4442   19.8579 C   0  0  0  0  0  0  0  0  0  0  0  0
  -28.8582  -20.9619   19.0010 C   0  0  0  0  0  0  0  0  0  0  0  0
  -25.5657  -12.7700   18.3881 C   0  0  0  0  0  0  0  0  0  0  0  0
  -28.2123  -24.5035   18.3596 C   0  0  0  0  0  0  0  0  0  0  0  0
  -23.2568  -12.0510   17.7554 C   0  0  0  0  0  0  0  0  0  0  0  0
  -27.3663  -25.5239   18.1829 C   0  0  0  0  0  0  0  0  0  1  0  0
  -22.2148  -29.5452   21.2060 C   0  0  0  0  0  0  0  0  0  0  0  0
  -23.5592  -32.4742   20.8369 C   0  0  0  0  0  0  0  0  0  0  0  0
  -26.2825  -34.3180   19.9251 C   0  0  0  0  0  0  0  0  0  0  0  0
  -29.7027  -16.0657   20.1278 C   0  0  0  0  0  0  0  0  0  0  0  0
  -18.2140  -27.5517   23.6711 C   0  0  0  0  0  0  0  0  0  0  0  0
  -24.3805  -29.2674   22.4664 C   0  0  0  0  0  0  0  0  0  0  0  0
  -24.8021  -30.5262   19.8240 C   0  0  0  0  0  0  0  0  0  0  0  0
  -29.5550  -24.6022   19.0117 C   0  0  0  0  0  0  0  0  0  0  0  0
  -27.9091  -23.0701   18.0417 C   0  0  0  0  0  0  0  0  0  0  0  0
  -18.5792  -28.9251   23.1137 C   0  0  0  0  0  0  0  0  0  0  0  0
  -30.0335  -12.5774   20.7595 C   0  0  0  0  0  0  0  0  0  0  0  0
  -19.0834  -28.8022   21.6793 C   0  0  0  0  0  0  0  0  0  0  0  0
  -28.6344  -12.0239   20.4794 C   0  0  0  0  0  0  0  0  0  0  0  0
  -29.7268  -23.2246   19.6456 C   0  0  0  0  0  0  0  0  0  0  0  0
  -29.9772  -13.9569   21.4133 C   0  0  0  0  0  0  0  0  0  0  0  0
  -27.7671  -14.3969   20.4179 C   0  0  0  0  0  0  0  0  0  0  0  0
  -20.3532  -27.9452   21.6124 C   0  0  1  0  0  0  0  0  0  0  0  0
  -23.3689  -30.2414   21.8702 C   0  0  1  0  0  0  0  0  0  0  0  0
  -27.7731  -13.0372   19.7003 C   0  0  2  0  0  0  0  0  0  0  0  0
  -26.0306  -25.3874   17.5259 C   0  0  0  0  0  0  0  0  0  0  0  0
  -27.0677  -36.6902   19.6942 C   0  0  0  0  0  0  0  0  0  0  0  0
  -21.9263  -32.7628   18.2756 C   0  0  0  0  0  0  0  0  0  0  0  0
  -23.4241  -34.6578   17.6169 C   0  0  0  0  0  0  0  0  0  0  0  0
  -22.0350  -34.8280   19.6818 C   0  0  0  0  0  0  0  0  0  0  0  0
  -28.4460  -33.9168   21.9043 C   0  0  0  0  0  0  0  0  0  0  0  0
  -24.0407  -33.2890   19.6607 C   0  0  1  0  0  0  0  0  0  0  0  0
  -26.9888  -35.4760   20.6066 C   0  0  2  0  0  0  0  0  0  0  0  0
  -22.8673  -33.8587   18.8145 C   0  0  0  0  0  0  0  0  0  0  0  0
  -29.7844  -20.3818   19.7968 N   0  0  0  0  0  0  0  0  0  0  0  0
  -25.8107  -11.7060   20.3769 N   0  0  0  0  0  0  0  0  0  0  0  0
  -26.3692  -12.5144   19.4601 N   0  0  0  0  0  0  0  0  0  0  0  0
  -28.8601  -22.3371   18.8738 N   0  0  3  0  0  0  0  0  0  0  0  0
  -23.9628  -31.1319   20.8710 N   0  0  0  0  0  0  0  0  0  0  0  0
  -29.1477  -14.8645   20.6177 N   0  0  0  0  0  0  0  0  0  0  0  0
  -25.9711  -13.5638   17.3742 N   0  0  0  0  0  0  0  0  0  0  0  0
  -22.1444  -11.2927   18.1451 N   0  0  0  0  0  0  0  0  0  0  0  0
  -28.8291  -16.8322   19.3571 N   0  0  0  0  0  0  0  0  0  0  0  0
  -21.5027  -28.7102   22.0458 N   0  0  0  0  0  0  0  0  0  0  0  0
  -24.9327  -34.3062   20.2066 N   0  0  0  0  0  0  0  0  0  0  0  0
  -28.3751  -35.0846   20.9888 N   0  3  0  0  0  0  0  0  0  0  0  0
  -23.2284  -12.6653   16.6621 O   0  0  0  0  0  0  0  0  0  0  0  0
  -21.9864  -29.7516   20.0199 O   0  0  0  0  0  0  0  0  0  0  0  0
  -22.8571  -33.0108   21.6974 O   0  0  0  0  0  0  0  0  0  0  0  0
  -26.8687  -33.5072   19.2113 O   0  0  0  0  0  0  0  0  0  0  0  0
  -30.8753  -16.3773   20.3511 O   0  0  0  0  0  0  0  0  0  0  0  0
  -21.0313   -8.1293   22.5936 O   0  0  0  0  0  0  0  0  0  0  0  0
  -27.7027  -26.7769   18.6125 O   0  0  0  0  0  0  0  0  0  1  0  0
  -23.0107   -3.4556   24.7482 F   0  0  0  0  0  0  0  0  0  0  0  0
  -20.0346   -5.6726   21.8100 F   0  0  0  0  0  0  0  0  0  0  0  0
  1  2  1  0  0  0  0
  1  5  2  0  0  0  0
  2  6  2  0  0  0  0
  3  9  2  0  0  0  0
  3 18  1  0  0  0  0
  4 10  1  0  0  0  0
  4 18  2  0  0  0  0
  5 20  1  0  0  0  0
  6 22  1  0  0  0  0
  7 11  2  0  0  0  0
  7 21  1  0  0  0  0
  8 14  2  0  0  0  0
  8 24  1  0  0  0  0
  9 25  1  0  0  0  0
 10 25  2  0  0  0  0
 11 26  1  0  0  0  0
 12 13  2  0  0  0  0
 12 27  1  0  0  0  0
 13 28  1  0  0  0  0
 14 31  1  0  0  0  0
 15 23  1  0  0  0  0
 15 26  2  0  0  0  0
 16 28  2  0  0  0  0
 16 29  1  0  0  0  0
 17 24  2  0  0  0  0
 17 64  1  0  0  0  0
 18 30  1  0  0  0  0
 19 30  1  0  0  0  0
 19 32  2  0  0  0  0
 19 34  1  0  0  0  0
 20 22  2  0  0  0  0
 20 40  1  0  0  0  0
 21 23  2  0  0  0  0
 21 41  1  0  0  0  0
 22 52  1  0  0  0  0
 23 42  1  0  0  0  0
 24 72  1  0  0  0  0
 25 81  1  0  0  0  0
 26 82  1  0  0  0  0
 27 29  2  0  0  0  0
 27 81  1  0  0  0  0
 28 83  1  0  0  0  0
 29 84  1  0  0  0  0
 30 65  2  0  0  0  0
 31 64  2  0  0  0  0
 31 67  1  0  0  0  0
 32 66  1  0  0  0  0
 32 70  1  0  0  0  0
 33 35  2  0  0  0  0
 33 43  1  0  0  0  0
 33 44  1  0  0  0  0
 34 71  1  0  0  0  0
 34 76  2  0  0  0  0
 35 55  1  0  0  0  0
 35 82  1  0  0  0  0
 36 53  1  0  0  0  0
 36 73  1  0  0  0  0
 36 77  2  0  0  0  0
 37 61  1  0  0  0  0
 37 68  1  0  0  0  0
 37 78  2  0  0  0  0
 38 62  1  0  0  0  0
 38 74  1  0  0  0  0
 38 79  2  0  0  0  0
 39 69  1  0  0  0  0
 39 72  1  0  0  0  0
 39 80  2  0  0  0  0
 40 45  1  0  0  0  0
 41 53  1  0  0  0  0
 42 68  1  0  0  0  0
 43 49  1  0  0  0  0
 44 67  1  0  0  0  0
 45 47  1  0  0  0  0
 46 48  1  0  0  0  0
 46 50  1  0  0  0  0
 47 52  1  0  0  0  0
 48 54  1  0  0  0  0
 49 67  1  0  0  0  0
 50 69  1  0  0  0  0
 51 54  1  0  0  0  0
 51 69  1  0  0  0  0
 52 73  1  0  0  0  0
 53 68  1  0  0  0  0
 54 66  1  0  0  0  0
 56 62  1  0  0  0  0
 57 63  1  0  0  0  0
 58 63  1  0  0  0  0
 59 63  1  0  0  0  0
 60 75  1  0  0  0  0
 61 63  1  0  0  0  0
 61 74  1  0  0  0  0
 62 75  1  0  0  0  0
 65 66  1  0  0  0  0
M  CHG  1  75   1
M  ISO  4  35 101  39 100  72 100  82 101
M  END
> <Batch ID>
0157

> <Smiles>
CNC(C)C(=O)NC(C(=O)N1Cc2cc([101O:1][101C:1](C)=C3CCN(c4ccc([100NH:0][100C:0](=O)N5CCCC(n6nc(-c7ccc(Oc8ccc(F)cc8F)cc7)c(C(N)=O)c6N)C5)cn4)C3)ccc2CC1C(=O)NC1CCCc2ccccc21)C(C)(C)C

> <Shape>
0.290

> <Color>
0.141

> <Negative vol penalty>
0.000

$$$$

  -OEChem-04052303413D

 82 90  0     1  0  0  0  0  0999 V2000
  -28.1238  -28.9700   27.8880 C   0  0  0  0  0  0  0  0  0  0  0  0
  -28.0170  -28.2272   26.7165 C   0  0  0  0  0  0  0  0  0  0  0  0
  -23.0709  -10.2657   19.9737 C   0  0  0  0  0  0  0  0  0  0  0  0
  -24.0160   -9.6066   22.0973 C   0  0  0  0  0  0  0  0  0  0  0  0
  -27.0510  -29.7498   28.3178 C   0  0  0  0  0  0  0  0  0  0  0  0
  -26.8367  -28.2629   25.9748 C   0  0  0  0  0  0  0  0  0  0  0  0
  -27.6788  -28.7667   21.0067 C   0  0  0  0  0  0  0  0  0  0  0  0
  -22.3051   -9.1001   19.9528 C   0  0  0  0  0  0  0  0  0  0  0  0
  -23.2501   -8.4410   22.0764 C   0  0  0  0  0  0  0  0  0  0  0  0
  -28.0742  -27.6262   20.3091 C   0  0  0  0  0  0  0  0  0  0  0  0
  -20.0532   -7.5514   22.7159 C   0  0  0  0  0  0  0  0  0  0  0  0
  -19.3938   -7.1899   23.8907 C   0  0  0  0  0  0  0  0  0  0  0  0
  -25.8134  -27.3322   19.5205 C   0  0  0  0  0  0  0  0  0  0  0  0
  -26.2566  -18.7243   17.9981 C   0  0  0  0  0  0  0  0  0  0  0  0
  -20.6139   -5.1050   23.9339 C   0  0  0  0  0  0  0  0  0  0  0  0
  -23.9265  -10.5189   21.0459 C   0  0  0  0  0  0  0  0  0  0  0  0
  -24.3569  -12.9680   21.6155 C   0  0  0  0  0  0  0  0  0  0  0  0
  -25.8604  -29.8027   27.5759 C   0  0  0  0  0  0  0  0  0  0  0  0
  -26.3433  -29.1930   20.9753 C   0  0  0  0  0  0  0  0  0  0  0  0
  -25.7464  -29.0431   26.3959 C   0  0  0  0  0  0  0  0  0  0  0  0
  -25.4042  -28.4799   20.2165 C   0  0  0  0  0  0  0  0  0  0  0  0
  -25.5863  -19.9784   18.0879 C   0  0  0  0  0  0  0  0  0  0  0  0
  -22.3946   -8.1878   21.0041 C   0  0  0  0  0  0  0  0  0  0  0  0
  -27.1409  -26.9071   19.5682 C   0  0  0  0  0  0  0  0  0  0  0  0
  -20.9929   -6.6897   22.1500 C   0  0  0  0  0  0  0  0  0  0  0  0
  -19.6742   -5.9667   24.4997 C   0  0  0  0  0  0  0  0  0  0  0  0
  -21.2732   -5.4665   22.7590 C   0  0  0  0  0  0  0  0  0  0  0  0
  -24.7183  -11.7225   21.0679 C   0  0  0  0  0  0  0  0  0  0  0  0
  -27.6222  -18.8575   18.1210 C   0  0  0  0  0  0  0  0  0  0  0  0
  -25.4443  -13.7740   21.3826 C   0  0  0  0  0  0  0  0  0  0  0  0
  -26.4652  -21.0224   18.2764 C   0  0  0  0  0  0  0  0  0  0  0  0
  -28.6601  -17.8119   18.0849 C   0  0  0  0  0  0  0  0  0  0  0  0
  -23.1464  -13.3612   22.2757 C   0  0  0  0  0  0  0  0  0  0  0  0
  -24.0589  -29.5755   23.1522 C   0  0  0  0  0  0  0  0  0  0  0  0
  -22.4274  -30.8417   20.6507 C   0  0  0  0  0  0  0  0  0  0  0  0
  -27.2027  -23.4058   18.6073 C   0  0  0  0  0  0  0  0  0  0  0  0
  -22.0009  -31.0362   17.2703 C   0  0  0  0  0  0  0  0  0  0  0  0
  -29.3886  -15.6378   17.9011 C   0  0  0  0  0  0  0  0  0  0  0  0
  -24.7109  -30.6230   28.1055 C   0  0  0  0  0  0  0  0  0  0  0  0
  -25.9383  -30.4405   21.7116 C   0  0  0  0  0  0  0  0  0  0  0  0
  -23.9624  -28.9073   20.1338 C   0  0  0  0  0  0  0  0  0  0  0  0
  -23.6295  -30.8996   27.0642 C   0  0  0  0  0  0  0  0  0  0  0  0
  -30.1081  -12.6560   19.7974 C   0  0  0  0  0  0  0  0  0  0  0  0
  -23.2760  -29.6222   26.3092 C   0  0  0  0  0  0  0  0  0  0  0  0
  -28.7328  -12.2317   20.3120 C   0  0  0  0  0  0  0  0  0  0  0  0
  -30.0185  -13.2775   18.4070 C   0  0  0  0  0  0  0  0  0  0  0  0
  -27.6865  -14.0041   18.8344 C   0  0  0  0  0  0  0  0  0  0  0  0
  -24.4915  -29.0753   25.5508 C   0  0  1  0  0  0  0  0  0  0  0  0
  -24.4463  -30.4912   22.0257 C   0  0  1  0  0  0  0  0  0  0  0  0
  -27.7339  -13.4008   20.2486 C   0  0  1  0  0  0  0  0  0  0  0  0
  -20.5622  -32.1243   15.5257 C   0  0  0  0  0  0  0  0  0  0  0  0
  -20.1763  -28.8835   21.2893 C   0  0  0  0  0  0  0  0  0  0  0  0
  -19.2288  -29.3398   19.0172 C   0  0  0  0  0  0  0  0  0  0  0  0
  -19.4144  -31.1871   20.6833 C   0  0  0  0  0  0  0  0  0  0  0  0
  -24.3151  -32.4359   16.0686 C   0  0  0  0  0  0  0  0  0  0  0  0
  -26.5453  -24.7693   18.7132 C   0  0  0  0  0  0  0  0  0  1  0  0
  -21.5091  -30.2930   19.5855 C   0  0  1  0  0  0  0  0  0  0  0  0
  -21.8412  -32.2267   16.3421 C   0  0  2  0  0  0  0  0  0  0  0  0
  -20.1088  -29.9164   20.1468 C   0  0  0  0  0  0  0  0  0  0  0  0
  -25.9398  -11.7317   20.5276 N   0  0  0  0  0  0  0  0  0  0  0  0
  -28.3634  -16.5640   17.9237 N   0  0  0  0  0  0  0  0  0  0  0  0
  -26.3554  -12.9929   20.7346 N   0  0  0  0  0  0  0  0  0  0  0  0
  -23.6141  -30.1300   20.8763 N   0  0  0  0  0  0  0  0  0  0  0  0
  -29.0360  -14.3619   18.3778 N   0  0  0  0  0  0  0  0  0  0  0  0
  -24.2426  -20.1197   17.9987 N   0  0  0  0  0  0  0  0  0  0  0  0
  -25.7005  -15.0677   21.6709 N   0  0  0  0  0  0  0  0  0  0  0  0
  -22.1304  -12.4084   22.4313 N   0  0  0  0  0  0  0  0  0  0  0  0
  -26.2469  -22.4132   18.4194 N   0  0  0  0  0  0  0  0  0  0  0  0
  -24.7155  -29.8355   24.3399 N   0  0  0  0  0  0  0  0  0  0  0  0
  -21.4777  -31.2897   18.5207 N   0  0  0  0  0  0  0  0  0  0  0  0
  -22.9940  -32.3082   15.4012 N   0  3  0  0  0  0  0  0  0  0  0  0
  -22.9645  -14.5275   22.7001 O   0  0  0  0  0  0  0  0  0  0  0  0
  -23.2248  -28.6988   22.9585 O   0  0  0  0  0  0  0  0  0  0  0  0
  -22.1070  -31.8681   21.2553 O   0  0  0  0  0  0  0  0  0  0  0  0
  -28.4193  -23.2713   18.6860 O   0  0  0  0  0  0  0  0  0  0  0  0
  -22.5329  -29.9851   16.9201 O   0  0  0  0  0  0  0  0  0  0  0  0
  -30.5273  -15.8825   17.4955 O   0  0  0  0  0  0  0  0  0  0  0  0
  -21.6472   -7.0504   20.9841 O   0  0  0  0  0  0  0  0  0  0  0  0
  -27.5240  -25.7932   18.8868 O   0  0  0  0  0  0  0  0  0  1  0  0
  -19.0420   -5.6204   25.6287 F   0  0  0  0  0  0  0  0  0  0  0  0
  -22.1758   -4.6351   22.2207 F   0  0  0  0  0  0  0  0  0  0  0  0
  -28.0911  -20.4893   18.3439 S   0  0  0  0  0  0  0  0  0  0  0  0
  1  2  1  0  0  0  0
  1  5  2  0  0  0  0
  2  6  2  0  0  0  0
  3  8  2  0  0  0  0
  3 16  1  0  0  0  0
  4  9  1  0  0  0  0
  4 16  2  0  0  0  0
  5 18  1  0  0  0  0
  6 20  1  0  0  0  0
  7 10  2  0  0  0  0
  7 19  1  0  0  0  0
  8 23  1  0  0  0  0
  9 23  2  0  0  0  0
 10 24  1  0  0  0  0
 11 12  2  0  0  0  0
 11 25  1  0  0  0  0
 12 26  1  0  0  0  0
 13 21  1  0  0  0  0
 13 24  2  0  0  0  0
 14 22  1  0  0  0  0
 14 29  2  0  0  0  0
 15 26  2  0  0  0  0
 15 27  1  0  0  0  0
 16 28  1  0  0  0  0
 17 28  1  0  0  0  0
 17 30  2  0  0  0  0
 17 33  1  0  0  0  0
 18 20  2  0  0  0  0
 18 39  1  0  0  0  0
 19 21  2  0  0  0  0
 19 40  1  0  0  0  0
 20 48  1  0  0  0  0
 21 41  1  0  0  0  0
 22 31  2  0  0  0  0
 22 65  1  0  0  0  0
 23 78  1  0  0  0  0
 24 79  1  0  0  0  0
 25 27  2  0  0  0  0
 25 78  1  0  0  0  0
 26 80  1  0  0  0  0
 27 81  1  0  0  0  0
 28 60  2  0  0  0  0
 29 32  1  0  0  0  0
 29 82  1  0  0  0  0
 30 62  1  0  0  0  0
 30 66  1  0  0  0  0
 31 68  1  0  0  0  0
 31 82  1  0  0  0  0
 32 61  2  0  0  0  0
 33 67  1  0  0  0  0
 33 72  2  0  0  0  0
 34 49  1  0  0  0  0
 34 69  1  0  0  0  0
 34 73  2  0  0  0  0
 35 57  1  0  0  0  0
 35 63  1  0  0  0  0
 35 74  2  0  0  0  0
 36 56  1  0  0  0  0
 36 68  1  0  0  0  0
 36 75  2  0  0  0  0
 37 58  1  0  0  0  0
 37 70  1  0  0  0  0
 37 76  2  0  0  0  0
 38 61  1  0  0  0  0
 38 64  1  0  0  0  0
 38 77  2  0  0  0  0
 39 42  1  0  0  0  0
 40 49  1  0  0  0  0
 41 63  1  0  0  0  0
 42 44  1  0  0  0  0
 43 45  1  0  0  0  0
 43 46  1  0  0  0  0
 44 48  1  0  0  0  0
 45 50  1  0  0  0  0
 46 64  1  0  0  0  0
 47 50  1  0  0  0  0
 47 64  1  0  0  0  0
 48 69  1  0  0  0  0
 49 63  1  0  0  0  0
 50 62  1  0  0  0  0
 51 58  1  0  0  0  0
 52 59  1  0  0  0  0
 53 59  1  0  0  0  0
 54 59  1  0  0  0  0
 55 71  1  0  0  0  0
 56 79  1  0  0  0  0
 57 59  1  0  0  0  0
 57 70  1  0  0  0  0
 58 71  1  0  0  0  0
 60 62  1  0  0  0  0
M  CHG  1  71   1
M  ISO  4  38 100  56 101  61 100  79 101
M  END
> <Batch ID>
0157

> <Smiles>
CNC(C)C(=O)NC(C(=O)N1Cc2cc([101O:1][101CH2:1]C(=O)Nc3sc(C=[100N:0][100C:0](=O)N4CCCC(n5nc(-c6ccc(Oc7ccc(F)cc7F)cc6)c(C(N)=O)c5N)C4)cc3N)ccc2CC1C(=O)NC1CCCc2ccccc21)C(C)(C)C

> <Shape>
0.260

> <Color>
0.163

> <Negative vol penalty>
0.000

$$$$

  -OEChem-04052303413D

 85 94  0     1  0  0  0  0  0999 V2000
  -17.9607  -23.3727   19.9763 C   0  0  0  0  0  0  0  0  0  0  0  0
  -18.7958  -22.2635   20.0641 C   0  0  0  0  0  0  0  0  0  0  0  0
  -27.9590  -23.6154   20.7855 C   0  0  0  0  0  0  0  0  0  0  0  0
  -28.3998  -23.3038   18.4306 C   0  0  0  0  0  0  0  0  0  0  0  0
  -18.3519  -24.5850   20.5431 C   0  0  0  0  0  0  0  0  0  0  0  0
  -20.0232  -22.3663   20.7179 C   0  0  0  0  0  0  0  0  0  0  0  0
  -20.9135  -18.4526   23.8057 C   0  0  0  0  0  0  0  0  0  0  0  0
  -27.9538  -24.9980   20.6017 C   0  0  0  0  0  0  0  0  0  0  0  0
  -28.3946  -24.6865   18.2467 C   0  0  0  0  0  0  0  0  0  0  0  0
  -21.3347  -17.2607   23.2178 C   0  0  0  0  0  0  0  0  0  0  0  0
  -25.8218  -27.3474   19.4321 C   0  0  0  0  0  0  0  0  0  0  0  0
  -24.8002  -28.0782   20.0386 C   0  0  0  0  0  0  0  0  0  0  0  0
  -23.6133  -17.7764   23.8187 C   0  0  0  0  0  0  0  0  0  0  0  0
  -28.4098  -13.7422   19.0808 C   0  0  0  0  0  0  0  0  0  0  0  0
  -26.4414  -29.3315   21.2928 C   0  0  0  0  0  0  0  0  0  0  0  0
  -27.9398  -11.5949   19.8361 C   0  0  0  0  0  0  0  0  0  0  0  0
  -28.1820  -22.7682   19.7000 C   0  0  0  0  0  0  0  0  0  0  0  0
  -27.0882  -20.4657   19.7990 C   0  0  0  0  0  0  0  0  0  0  0  0
  -19.5804  -24.7002   21.2125 C   0  0  0  0  0  0  0  0  0  0  0  0
  -21.8420  -19.3221   24.3960 C   0  0  0  0  0  0  0  0  0  0  0  0
  -20.4318  -23.5817   21.2930 C   0  0  0  0  0  0  0  0  0  0  0  0
  -23.2011  -18.9775   24.4158 C   0  0  0  0  0  0  0  0  0  0  0  0
  -27.4911  -12.8954   19.7655 C   0  0  0  0  0  0  0  0  0  0  0  0
  -28.1716  -25.5336   19.3323 C   0  0  0  0  0  0  0  0  0  0  0  0
  -22.6851  -16.9238   23.2217 C   0  0  0  0  0  0  0  0  0  0  0  0
  -27.1532  -27.6086   19.7560 C   0  0  0  0  0  0  0  0  0  0  0  0
  -25.1100  -29.0703   20.9690 C   0  0  0  0  0  0  0  0  0  0  0  0
  -27.4630  -28.6007   20.6863 C   0  0  0  0  0  0  0  0  0  0  0  0
  -28.1880  -21.3399   19.8894 C   0  0  0  0  0  0  0  0  0  0  0  0
  -29.5261  -13.0566   18.6542 C   0  0  0  0  0  0  0  0  0  0  0  0
  -27.6141  -19.2242   20.0608 C   0  0  0  0  0  0  0  0  0  0  0  0
  -25.7142  -20.7505   19.5046 C   0  0  0  0  0  0  0  0  0  0  0  0
  -22.7707  -22.3139   23.8571 C   0  0  0  0  0  0  0  0  0  0  0  0
  -24.4722  -14.7844   20.9073 C   0  0  0  0  0  0  0  0  0  0  0  0
  -24.4760  -21.8623   26.5793 C   0  0  0  0  0  0  0  0  0  0  0  0
  -25.9706  -19.6771   28.7330 C   0  0  0  0  0  0  0  0  0  0  0  0
  -31.5345  -15.3866   19.4307 C   0  0  0  0  0  0  0  0  0  0  0  0
  -19.9811  -26.0438   21.7682 C   0  0  0  0  0  0  0  0  0  0  0  0
  -21.3683  -20.5913   25.0496 C   0  0  0  0  0  0  0  0  0  0  0  0
  -24.2354  -19.8668   25.0543 C   0  0  0  0  0  0  0  0  0  0  0  0
  -21.1313  -25.9704   22.7692 C   0  0  0  0  0  0  0  0  0  0  0  0
  -31.3573  -14.7048   15.8735 C   0  0  0  0  0  0  0  0  0  0  0  0
  -32.1305  -17.8491   21.8411 C   0  0  0  0  0  0  0  0  0  0  0  0
  -22.2504  -25.0836   22.2324 C   0  0  0  0  0  0  0  0  0  0  0  0
  -30.5279  -13.5303   16.3770 C   0  0  0  0  0  0  0  0  0  0  0  0
  -31.0856  -18.9219   21.5408 C   0  0  0  0  0  0  0  0  0  0  0  0
  -32.6922  -17.2627   20.5519 C   0  0  0  0  0  0  0  0  0  0  0  0
  -31.1313  -15.7610   16.9442 C   0  0  0  0  0  0  0  0  0  0  0  0
  -30.5836  -17.7380   19.3433 C   0  0  0  0  0  0  0  0  0  0  0  0
  -21.7599  -23.6470   22.0155 C   0  0  1  0  0  0  0  0  0  0  0  0
  -30.7235  -13.5857   17.8979 C   0  0  1  0  0  0  0  0  0  0  0  0
  -22.4632  -21.6470   25.1680 C   0  0  1  0  0  0  0  0  0  0  0  0
  -29.9867  -18.3705   20.6172 C   0  0  2  0  0  0  0  0  0  0  0  0
  -27.3193  -19.6076   30.8480 C   0  0  0  0  0  0  0  0  0  0  0  0
  -26.9497  -22.7482   25.0282 C   0  0  0  0  0  0  0  0  0  0  0  0
  -28.3583  -21.7678   26.8511 C   0  0  0  0  0  0  0  0  0  0  0  0
  -26.8001  -23.6492   27.3564 C   0  0  0  0  0  0  0  0  0  0  0  0
  -23.8912  -18.1143   30.1447 C   0  0  0  0  0  0  0  0  0  0  0  0
  -25.8196  -14.6904   20.2234 C   0  0  0  0  0  0  0  0  0  0  0  0
  -24.4031  -15.7295   22.0911 C   0  0  0  0  0  0  0  0  0  1  0  0
  -25.8579  -21.3475   26.9022 C   0  0  1  0  0  0  0  0  0  0  0  0
  -25.9235  -19.5629   30.2460 C   0  0  2  0  0  0  0  0  0  0  0  0
  -26.9725  -22.3621   26.5206 C   0  0  0  0  0  0  0  0  0  0  0  0
  -29.3265  -20.7073   20.1857 N   0  0  0  0  0  0  0  0  0  0  0  0
  -28.9449  -19.4225   20.2838 N   0  0  0  0  0  0  0  0  0  0  0  0
  -23.7234  -21.0999   25.6747 N   0  0  0  0  0  0  0  0  0  0  0  0
  -31.6270  -16.7612   19.6829 N   0  0  0  0  0  0  0  0  0  0  0  0
  -31.0275  -14.9955   18.1880 N   0  0  0  0  0  0  0  0  0  0  0  0
  -27.0632  -17.9931   20.1199 N   0  0  0  0  0  0  0  0  0  0  0  0
  -25.3450  -22.0803   19.2603 N   0  0  0  0  0  0  0  0  0  0  0  0
  -26.3154  -13.3163   20.2864 N   0  0  0  0  0  0  0  0  0  0  0  0
  -21.6853  -22.9425   23.2774 N   0  0  0  0  0  0  0  0  0  0  0  0
  -25.8385  -20.9845   28.3151 N   0  0  0  0  0  0  0  0  0  0  0  0
  -25.2786  -18.2812   30.6489 N   0  3  0  0  0  0  0  0  0  0  0  0
  -24.8368  -19.8545   19.4757 O   0  0  0  0  0  0  0  0  0  0  0  0
  -23.9089  -22.2632   23.4058 O   0  0  0  0  0  0  0  0  0  0  0  0
  -23.4913  -14.1411   20.5361 O   0  0  0  0  0  0  0  0  0  0  0  0
  -24.0762  -22.8987   27.1157 O   0  0  0  0  0  0  0  0  0  0  0  0
  -26.1141  -18.7043   27.9957 O   0  0  0  0  0  0  0  0  0  0  0  0
  -31.9059  -14.5500   20.2637 O   0  0  0  0  0  0  0  0  0  0  0  0
  -28.1664  -26.8827   19.1524 O   0  0  0  0  0  0  0  0  0  0  0  0
  -23.1032  -15.7492   22.6420 O   0  0  0  0  0  0  0  0  0  1  0  0
  -24.1289  -29.7731   21.5502 F   0  0  0  0  0  0  0  0  0  0  0  0
  -28.7402  -28.8569   21.0007 F   0  0  0  0  0  0  0  0  0  0  0  0
  -29.4632  -11.3989   19.0789 S   0  0  0  0  0  0  0  0  0  0  0  0
  1  2  1  0  0  0  0
  1  5  2  0  0  0  0
  2  6  2  0  0  0  0
  3  8  2  0  0  0  0
  3 17  1  0  0  0  0
  4  9  1  0  0  0  0
  4 17  2  0  0  0  0
  5 19  1  0  0  0  0
  6 21  1  0  0  0  0
  7 10  2  0  0  0  0
  7 20  1  0  0  0  0
  8 24  1  0  0  0  0
  9 24  2  0  0  0  0
 10 25  1  0  0  0  0
 11 12  2  0  0  0  0
 11 26  1  0  0  0  0
 12 27  1  0  0  0  0
 13 22  1  0  0  0  0
 13 25  2  0  0  0  0
 14 23  1  0  0  0  0
 14 30  2  0  0  0  0
 15 27  2  0  0  0  0
 15 28  1  0  0  0  0
 16 23  2  0  0  0  0
 16 85  1  0  0  0  0
 17 29  1  0  0  0  0
 18 29  1  0  0  0  0
 18 31  2  0  0  0  0
 18 32  1  0  0  0  0
 19 21  2  0  0  0  0
 19 38  1  0  0  0  0
 20 22  2  0  0  0  0
 20 39  1  0  0  0  0
 21 50  1  0  0  0  0
 22 40  1  0  0  0  0
 23 71  1  0  0  0  0
 24 81  1  0  0  0  0
 25 82  1  0  0  0  0
 26 28  2  0  0  0  0
 26 81  1  0  0  0  0
 27 83  1  0  0  0  0
 28 84  1  0  0  0  0
 29 64  2  0  0  0  0
 30 51  1  0  0  0  0
 30 85  1  0  0  0  0
 31 65  1  0  0  0  0
 31 69  1  0  0  0  0
 32 70  1  0  0  0  0
 32 75  2  0  0  0  0
 33 52  1  0  0  0  0
 33 72  1  0  0  0  0
 33 76  2  0  0  0  0
 34 59  1  0  0  0  0
 34 60  1  0  0  0  0
 34 77  2  0  0  0  0
 35 61  1  0  0  0  0
 35 66  1  0  0  0  0
 35 78  2  0  0  0  0
 36 62  1  0  0  0  0
 36 73  1  0  0  0  0
 36 79  2  0  0  0  0
 37 67  1  0  0  0  0
 37 68  1  0  0  0  0
 37 80  2  0  0  0  0
 38 41  1  0  0  0  0
 39 52  1  0  0  0  0
 40 66  1  0  0  0  0
 41 44  1  0  0  0  0
 42 45  1  0  0  0  0
 42 48  1  0  0  0  0
 43 46  1  0  0  0  0
 43 47  1  0  0  0  0
 44 50  1  0  0  0  0
 45 51  1  0  0  0  0
 46 53  1  0  0  0  0
 47 67  1  0  0  0  0
 48 68  1  0  0  0  0
 49 53  1  0  0  0  0
 49 67  1  0  0  0  0
 50 72  1  0  0  0  0
 51 68  1  0  0  0  0
 52 66  1  0  0  0  0
 53 65  1  0  0  0  0
 54 62  1  0  0  0  0
 55 63  1  0  0  0  0
 56 63  1  0  0  0  0
 57 63  1  0  0  0  0
 58 74  1  0  0  0  0
 59 71  1  0  0  0  0
 60 82  1  0  0  0  0
 61 63  1  0  0  0  0
 61 73  1  0  0  0  0
 62 74  1  0  0  0  0
 64 65  1  0  0  0  0
M  CHG  1  74   1
M  ISO  4  37 100  60 101  68 100  82 101
M  END
> <Batch ID>
0157

> <Smiles>
CNC(C)C(=O)NC(C(=O)N1Cc2cc([101O:1][101CH2:1]C(=O)CNc3csc(C4CCC[100N:0]4[100C:0](=O)N4CCCC(n5nc(-c6ccc(Oc7ccc(F)cc7F)cc6)c(C(N)=O)c5N)C4)c3)ccc2CC1C(=O)NC1CCCc2ccccc21)C(C)(C)C

> <Shape>
0.187

> <Color>
0.080

> <Negative vol penalty>
0.000

$$$$

  -OEChem-04052303413D

 90 99  0     1  0  0  0  0  0999 V2000
  -20.8195  -34.8354   20.1354 C   0  0  0  0  0  0  0  0  0  0  0  0
  -21.9717  -34.1087   19.8529 C   0  0  0  0  0  0  0  0  0  0  0  0
  -24.5873   -8.8309   21.3196 C   0  0  0  0  0  0  0  0  0  0  0  0
  -23.5030  -10.7007   22.3990 C   0  0  0  0  0  0  0  0  0  0  0  0
  -20.0648  -34.5309   21.2675 C   0  0  0  0  0  0  0  0  0  0  0  0
  -22.3705  -33.0778   20.7029 C   0  0  0  0  0  0  0  0  0  0  0  0
  -25.1148  -27.8415   19.1042 C   0  0  0  0  0  0  0  0  0  0  0  0
  -24.1593   -7.9897   22.3466 C   0  0  0  0  0  0  0  0  0  0  0  0
  -23.0749   -9.8595   23.4260 C   0  0  0  0  0  0  0  0  0  0  0  0
  -26.4498  -27.4400   19.1179 C   0  0  0  0  0  0  0  0  0  0  0  0
  -21.3119   -6.4008   23.2414 C   0  0  0  0  0  0  0  0  0  0  0  0
  -20.7700   -5.1660   22.8847 C   0  0  0  0  0  0  0  0  0  0  0  0
  -28.2741  -18.8631   20.0241 C   0  0  0  0  0  0  0  0  0  0  0  0
  -26.7260  -20.6122   20.6411 C   0  0  0  0  0  0  0  0  0  0  0  0
  -26.1066  -26.3931   21.2639 C   0  0  0  0  0  0  0  0  0  0  0  0
  -26.4250  -18.3743   21.5002 C   0  0  0  0  0  0  0  0  0  0  0  0
  -22.5014   -4.0432   24.1411 C   0  0  0  0  0  0  0  0  0  0  0  0
  -24.2593  -10.1864   21.3458 C   0  0  0  0  0  0  0  0  0  0  0  0
  -27.8583  -20.1921   19.9433 C   0  0  0  0  0  0  0  0  0  0  0  0
  -24.0211  -11.3521   19.0893 C   0  0  0  0  0  0  0  0  0  0  0  0
  -20.4492  -33.4893   22.1266 C   0  0  0  0  0  0  0  0  0  0  0  0
  -24.2670  -27.5307   20.1770 C   0  0  0  0  0  0  0  0  0  0  0  0
  -21.6209  -32.7600   21.8483 C   0  0  0  0  0  0  0  0  0  0  0  0
  -24.7606  -26.7896   21.2602 C   0  0  0  0  0  0  0  0  0  0  0  0
  -27.5574  -17.9541   20.8025 C   0  0  0  0  0  0  0  0  0  0  0  0
  -23.4030   -8.5040   23.3998 C   0  0  0  0  0  0  0  0  0  0  0  0
  -26.9467  -26.7182   20.1991 C   0  0  0  0  0  0  0  0  0  0  0  0
  -22.4486   -6.4568   24.0480 C   0  0  0  0  0  0  0  0  0  0  0  0
  -21.3647   -3.9872   23.3345 C   0  0  0  0  0  0  0  0  0  0  0  0
  -26.0093  -19.7033   21.4195 C   0  0  0  0  0  0  0  0  0  0  0  0
  -23.0433   -5.2780   24.4979 C   0  0  0  0  0  0  0  0  0  0  0  0
  -24.7017  -11.0559   20.2855 C   0  0  0  0  0  0  0  0  0  0  0  0
  -24.8544  -12.2194   18.4259 C   0  0  0  0  0  0  0  0  0  0  0  0
  -28.6144  -21.1526   19.1200 C   0  0  0  0  0  0  0  0  0  0  0  0
  -22.7495  -10.8851   18.6197 C   0  0  0  0  0  0  0  0  0  0  0  0
  -22.6154  -29.2296   22.2960 C   0  0  0  0  0  0  0  0  0  0  0  0
  -21.4732  -26.3183   23.1575 C   0  0  0  0  0  0  0  0  0  0  0  0
  -21.9295  -22.9374   23.2458 C   0  0  0  0  0  0  0  0  0  0  0  0
  -29.0820  -16.0240   20.2581 C   0  0  0  0  0  0  0  0  0  0  0  0
  -19.6272  -33.2281   23.3638 C   0  0  0  0  0  0  0  0  0  0  0  0
  -22.8225  -27.9481   20.1348 C   0  0  0  0  0  0  0  0  0  0  0  0
  -23.8864  -26.4129   22.4274 C   0  0  0  0  0  0  0  0  0  0  0  0
  -19.9133  -31.8753   24.0107 C   0  0  0  0  0  0  0  0  0  0  0  0
  -29.4868  -13.3391   17.9549 C   0  0  0  0  0  0  0  0  0  0  0  0
  -21.4169  -31.6426   24.1189 C   0  0  0  0  0  0  0  0  0  0  0  0
  -28.2407  -12.4791   18.1781 C   0  0  0  0  0  0  0  0  0  0  0  0
  -30.4252  -23.4644   21.2227 C   0  0  0  0  0  0  0  0  0  0  0  0
  -30.0012  -13.9417   19.2610 C   0  0  0  0  0  0  0  0  0  0  0  0
  -29.5947  -22.1955   21.0993 C   0  0  0  0  0  0  0  0  0  0  0  0
  -27.7540  -13.8213   20.2634 C   0  0  0  0  0  0  0  0  0  0  0  0
  -22.0725  -31.6182   22.7329 C   0  0  1  0  0  0  0  0  0  0  0  0
  -22.1808  -28.0205   21.5169 C   0  0  1  0  0  0  0  0  0  0  0  0
  -27.1610  -13.2454   18.9672 C   0  0  2  0  0  0  0  0  0  0  0  0
  -29.7591  -24.4453   20.2433 C   0  0  1  0  0  0  0  0  0  0  0  0
  -29.4001  -23.5326   19.0228 C   0  0  0  0  0  0  0  0  0  0  0  0
  -30.5702  -23.3381   18.0449 C   0  0  0  0  0  0  0  0  0  0  0  0
  -28.1611  -23.9949   18.2516 C   0  0  0  0  0  0  0  0  0  0  0  0
  -20.8414  -20.8231   24.0480 C   0  0  0  0  0  0  0  0  0  0  0  0
  -22.3135  -26.9736   26.0166 C   0  0  0  0  0  0  0  0  0  0  0  0
  -22.0931  -24.5407   26.5649 C   0  0  0  0  0  0  0  0  0  0  0  0
  -20.0961  -25.8346   25.8160 C   0  0  0  0  0  0  0  0  0  0  0  0
  -21.7485  -21.8510   20.4988 C   0  0  0  0  0  0  0  0  0  0  0  0
  -31.0724  -26.2133   21.0406 C   0  0  0  0  0  0  0  0  0  0  0  0
  -28.5559  -25.1197   20.9142 C   0  0  0  0  0  0  0  0  0  1  0  0
  -21.8958  -25.2517   24.1387 C   0  0  1  0  0  0  0  0  0  0  0  0
  -21.0079  -21.7868   22.8834 C   0  0  2  0  0  0  0  0  0  0  0  0
  -21.6168  -25.6587   25.6131 C   0  0  0  0  0  0  0  0  0  0  0  0
  -25.8768  -11.6839   20.3793 N   0  0  0  0  0  0  0  0  0  0  0  0
  -25.9412  -12.3833   19.2335 N   0  0  0  0  0  0  0  0  0  0  0  0
  -29.1491  -22.2202   19.6922 N   0  0  0  0  0  0  0  0  0  0  0  0
  -22.4829  -26.8494   22.3424 N   0  0  0  0  0  0  0  0  0  0  0  0
  -28.9251  -14.6557   19.9517 N   0  0  0  0  0  0  0  0  0  0  0  0
  -24.7562  -12.8501   17.2364 N   0  0  0  0  0  0  0  0  0  0  0  0
  -22.0242   -9.9978   19.4265 N   0  0  0  0  0  0  0  0  0  0  0  0
  -27.9803  -16.6043   20.8858 N   0  0  0  0  0  0  0  0  0  0  0  0
  -21.8322  -30.3478   22.0825 N   0  0  0  0  0  0  0  0  0  0  0  0
  -21.2267  -24.0245   23.7208 N   0  0  0  0  0  0  0  0  0  0  0  0
  -28.7493  -20.9310   17.8158 N   0  3  0  0  0  0  0  0  0  0  0  0
  -21.5558  -21.0303   21.7221 N   0  3  0  0  0  0  0  0  0  0  0  0
  -22.2780  -11.2313   17.5100 O   0  0  0  0  0  0  0  0  0  0  0  0
  -23.5883  -29.1532   23.0371 O   0  0  0  0  0  0  0  0  0  0  0  0
  -20.2896  -26.6623   23.1108 O   0  0  0  0  0  0  0  0  0  0  0  0
  -23.1509  -22.8764   23.1236 O   0  0  0  0  0  0  0  0  0  0  0  0
  -30.1068  -16.6425   19.9595 O   0  0  0  0  0  0  0  0  0  0  0  0
  -22.9849   -7.6834   24.4020 O   0  0  0  0  0  0  0  0  0  0  0  0
  -28.2496  -26.3256   20.2153 O   0  0  0  0  0  0  0  0  0  1  0  0
  -30.6647  -25.4864   19.8946 O   0  0  0  0  0  0  0  0  0  0  0  0
  -20.8433   -2.8016   22.9931 F   0  0  0  0  0  0  0  0  0  0  0  0
  -24.9218  -20.1068   22.0894 F   0  0  0  0  0  0  0  0  0  0  0  0
  -24.1347   -5.3254   25.2740 F   0  0  0  0  0  0  0  0  0  0  0  0
  1  2  1  0  0  0  0
  1  5  2  0  0  0  0
  2  6  2  0  0  0  0
  3  8  2  0  0  0  0
  3 18  1  0  0  0  0
  4  9  1  0  0  0  0
  4 18  2  0  0  0  0
  5 21  1  0  0  0  0
  6 23  1  0  0  0  0
  7 10  2  0  0  0  0
  7 22  1  0  0  0  0
  8 26  1  0  0  0  0
  9 26  2  0  0  0  0
 10 27  1  0  0  0  0
 11 12  2  0  0  0  0
 11 28  1  0  0  0  0
 12 29  1  0  0  0  0
 13 19  2  0  0  0  0
 13 25  1  0  0  0  0
 14 19  1  0  0  0  0
 14 30  2  0  0  0  0
 15 24  1  0  0  0  0
 15 27  2  0  0  0  0
 16 25  2  0  0  0  0
 16 30  1  0  0  0  0
 17 29  2  0  0  0  0
 17 31  1  0  0  0  0
 18 32  1  0  0  0  0
 19 34  1  0  0  0  0
 20 32  1  0  0  0  0
 20 33  2  0  0  0  0
 20 35  1  0  0  0  0
 21 23  2  0  0  0  0
 21 40  1  0  0  0  0
 22 24  2  0  0  0  0
 22 41  1  0  0  0  0
 23 51  1  0  0  0  0
 24 42  1  0  0  0  0
 25 75  1  0  0  0  0
 26 85  1  0  0  0  0
 27 86  1  0  0  0  0
 28 31  2  0  0  0  0
 28 85  1  0  0  0  0
 29 88  1  0  0  0  0
 30 89  1  0  0  0  0
 31 90  1  0  0  0  0
 32 68  2  0  0  0  0
 33 69  1  0  0  0  0
 33 73  1  0  0  0  0
 34 70  1  0  0  0  0
 34 78  2  0  0  0  0
 35 74  1  0  0  0  0
 35 80  2  0  0  0  0
 36 52  1  0  0  0  0
 36 76  1  0  0  0  0
 36 81  2  0  0  0  0
 37 65  1  0  0  0  0
 37 71  1  0  0  0  0
 37 82  2  0  0  0  0
 38 66  1  0  0  0  0
 38 77  1  0  0  0  0
 38 83  2  0  0  0  0
 39 72  1  0  0  0  0
 39 75  1  0  0  0  0
 39 84  2  0  0  0  0
 40 43  1  0  0  0  0
 41 52  1  0  0  0  0
 42 71  1  0  0  0  0
 43 45  1  0  0  0  0
 44 46  1  0  0  0  0
 44 48  1  0  0  0  0
 45 51  1  0  0  0  0
 46 53  1  0  0  0  0
 47 49  1  0  0  0  0
 47 54  1  0  0  0  0
 48 72  1  0  0  0  0
 49 70  1  0  0  0  0
 50 53  1  0  0  0  0
 50 72  1  0  0  0  0
 51 76  1  0  0  0  0
 52 71  1  0  0  0  0
 53 69  1  0  0  0  0
 54 55  1  0  0  0  0
 54 64  1  0  0  0  0
 54 87  1  0  0  0  0
 55 56  1  0  0  0  0
 55 57  1  0  0  0  0
 55 70  1  0  0  0  0
 58 66  1  0  0  0  0
 59 67  1  0  0  0  0
 60 67  1  0  0  0  0
 61 67  1  0  0  0  0
 62 79  1  0  0  0  0
 63 87  1  0  0  0  0
 64 86  1  0  0  0  0
 65 67  1  0  0  0  0
 65 77  1  0  0  0  0
 66 79  1  0  0  0  0
 68 69  1  0  0  0  0
M  CHG  2  78   1  79   1
M  ISO  4  39 100  64 101  75 100  86 101
M  END
> <Batch ID>
0157

> <Smiles>
CNC(C)C(=O)NC(C(=O)N1Cc2cc([101O:1][101CH2:1]C3(OC)CCN(C(=N)c4cc(F)cc([100NH:0][100C:0](=O)N5CCCC(n6nc(-c7ccc(Oc8ccc(F)cc8F)cc7)c(C(N)=O)c6N)C5)c4)C3(C)C)ccc2CC1C(=O)NC1CCCc2ccccc21)C(C)(C)C

> <Shape>
0.258

> <Color>
0.107

> <Negative vol penalty>
0.000

$$$$

  -OEChem-04052303413D

 85 94  0     1  0  0  0  0  0999 V2000
  -26.6378  -37.0379   25.3970 C   0  0  0  0  0  0  0  0  0  0  0  0
  -27.4203  -36.1230   24.6997 C   0  0  0  0  0  0  0  0  0  0  0  0
  -24.3093   -8.4197   21.2105 C   0  0  0  0  0  0  0  0  0  0  0  0
  -23.2229  -10.4733   20.5475 C   0  0  0  0  0  0  0  0  0  0  0  0
  -25.4146  -36.6399   25.9349 C   0  0  0  0  0  0  0  0  0  0  0  0
  -26.9806  -34.8093   24.5410 C   0  0  0  0  0  0  0  0  0  0  0  0
  -27.2048  -18.6119   19.2415 C   0  0  0  0  0  0  0  0  0  0  0  0
  -27.2285  -29.3618   19.8956 C   0  0  0  0  0  0  0  0  0  0  0  0
  -27.4643  -17.2534   19.0611 C   0  0  0  0  0  0  0  0  0  0  0  0
  -23.2465   -8.1340   22.0674 C   0  0  0  0  0  0  0  0  0  0  0  0
  -22.1600  -10.1876   21.4044 C   0  0  0  0  0  0  0  0  0  0  0  0
  -27.5554  -28.0076   19.8401 C   0  0  0  0  0  0  0  0  0  0  0  0
  -20.1021   -6.9164   21.8160 C   0  0  0  0  0  0  0  0  0  0  0  0
  -19.5925   -5.6180   21.8063 C   0  0  0  0  0  0  0  0  0  0  0  0
  -25.3887  -27.4538   20.7444 C   0  0  0  0  0  0  0  0  0  0  0  0
  -29.5686  -17.5012   20.2220 C   0  0  0  0  0  0  0  0  0  0  0  0
  -20.1377   -5.3866   24.1486 C   0  0  0  0  0  0  0  0  0  0  0  0
  -24.2976   -9.5894   20.4506 C   0  0  0  0  0  0  0  0  0  0  0  0
  -25.5208   -9.5152   18.2132 C   0  0  0  0  0  0  0  0  0  0  0  0
  -24.9552  -35.3232   25.7744 C   0  0  0  0  0  0  0  0  0  0  0  0
  -25.9813  -29.7734   20.3869 C   0  0  0  0  0  0  0  0  0  0  0  0
  -25.7507  -34.3930   25.0785 C   0  0  0  0  0  0  0  0  0  0  0  0
  -28.1273  -19.4152   19.9121 C   0  0  0  0  0  0  0  0  0  0  0  0
  -25.0474  -28.8136   20.8027 C   0  0  0  0  0  0  0  0  0  0  0  0
  -29.3091  -18.8598   20.4023 C   0  0  0  0  0  0  0  0  0  0  0  0
  -28.6462  -16.6980   19.5514 C   0  0  0  0  0  0  0  0  0  0  0  0
  -22.1718   -9.0179   22.1644 C   0  0  0  0  0  0  0  0  0  0  0  0
  -26.6366  -27.0535   20.2673 C   0  0  0  0  0  0  0  0  0  0  0  0
  -20.6296   -7.4499   22.9920 C   0  0  0  0  0  0  0  0  0  0  0  0
  -19.6103   -4.8531   22.9726 C   0  0  0  0  0  0  0  0  0  0  0  0
  -20.6473   -6.6850   24.1583 C   0  0  0  0  0  0  0  0  0  0  0  0
  -25.3955   -9.8853   19.5656 C   0  0  0  0  0  0  0  0  0  0  0  0
  -26.7329  -10.0326   17.8265 C   0  0  0  0  0  0  0  0  0  0  0  0
  -26.5863  -22.5650   21.5467 C   0  0  0  0  0  0  0  0  0  0  0  0
  -26.4625  -23.4026   20.5025 C   0  0  0  0  0  0  0  0  0  0  0  0
  -24.6218   -8.7703   17.3808 C   0  0  0  0  0  0  0  0  0  0  0  0
  -25.0110  -31.5494   22.8381 C   0  0  0  0  0  0  0  0  0  0  0  0
  -22.0979  -31.1564   21.4661 C   0  0  0  0  0  0  0  0  0  0  0  0
  -20.0775  -29.2986   19.4381 C   0  0  0  0  0  0  0  0  0  0  0  0
  -30.0329  -14.6089   19.7945 C   0  0  0  0  0  0  0  0  0  0  0  0
  -23.6481  -34.9273   26.4144 C   0  0  0  0  0  0  0  0  0  0  0  0
  -25.6338  -31.2366   20.4152 C   0  0  0  0  0  0  0  0  0  0  0  0
  -23.6872  -29.2024   21.3195 C   0  0  0  0  0  0  0  0  0  0  0  0
  -27.1142  -21.1636   21.4357 C   0  0  0  0  0  0  0  0  0  0  0  0
  -26.8191  -22.9867   19.0971 C   0  0  0  0  0  0  0  0  0  0  0  0
  -23.0810  -33.6147   25.8797 C   0  0  0  0  0  0  0  0  0  0  0  0
  -27.0068  -21.4747   18.9318 C   0  0  0  0  0  0  0  0  0  0  0  0
  -31.0358  -11.1996   19.5749 C   0  0  0  0  0  0  0  0  0  0  0  0
  -24.1702  -32.5486   25.8175 C   0  0  0  0  0  0  0  0  0  0  0  0
  -29.7151  -10.4425   19.4184 C   0  0  0  0  0  0  0  0  0  0  0  0
  -30.8967  -12.3939   20.5173 C   0  0  0  0  0  0  0  0  0  0  0  0
  -28.4881  -12.5658   20.0294 C   0  0  0  0  0  0  0  0  0  0  0  0
  -27.8230  -20.8904   20.0952 C   0  0  2  0  0  0  0  0  0  0  0  0
  -25.2964  -32.9655   24.8639 C   0  0  1  0  0  0  0  0  0  0  0  0
  -24.5303  -31.5694   21.4146 C   0  0  1  0  0  0  0  0  0  0  0  0
  -28.5625  -11.3926   19.0385 C   0  0  2  0  0  0  0  0  0  0  0  0
  -30.3102  -19.6999   21.1252 C   0  0  0  0  0  0  0  0  0  0  0  0
  -17.7367  -29.2080   18.5382 C   0  0  0  0  0  0  0  0  0  0  0  0
  -21.1019  -30.1424   24.1661 C   0  0  0  0  0  0  0  0  0  0  0  0
  -19.1010  -29.1978   22.9947 C   0  0  0  0  0  0  0  0  0  0  0  0
  -19.5124  -31.6581   22.9700 C   0  0  0  0  0  0  0  0  0  0  0  0
  -21.0198  -29.5246   16.6416 C   0  0  0  0  0  0  0  0  0  0  0  0
  -25.9644  -24.8079   20.6687 C   0  0  0  0  0  0  0  0  0  1  0  0
  -20.9876  -30.1407   21.5868 C   0  0  1  0  0  0  0  0  0  0  0  0
  -19.1573  -29.6942   18.2973 C   0  0  2  0  0  0  0  0  0  0  0  0
  -20.2020  -30.2772   22.9215 C   0  0  0  0  0  0  0  0  0  0  0  0
  -26.4443  -10.5838   20.0084 N   0  0  0  0  0  0  0  0  0  0  0  0
  -27.2403  -10.6566   18.9280 N   0  0  0  0  0  0  0  0  0  0  0  0
  -23.3970  -30.6457   21.3336 N   0  0  0  0  0  0  0  0  0  0  0  0
  -29.7882  -13.2517   20.0929 N   0  0  0  0  0  0  0  0  0  0  0  0
  -27.4035  -10.0101   16.6551 N   0  0  0  0  0  0  0  0  0  0  0  0
  -23.4196   -8.3131   17.9375 N   0  0  0  0  0  0  0  0  0  0  0  0
  -28.9093  -15.3175   19.3701 N   0  0  0  0  0  0  0  0  0  0  0  0
  -24.8948  -32.7631   23.4883 N   0  0  0  0  0  0  0  0  0  0  0  0
  -20.1652  -30.2911   20.3912 N   0  0  0  0  0  0  0  0  0  0  0  0
  -19.6424  -29.1112   17.0145 N   0  3  0  0  0  0  0  0  0  0  0  0
  -24.8846   -8.5036   16.1836 O   0  0  0  0  0  0  0  0  0  0  0  0
  -25.4531  -30.5093   23.3119 O   0  0  0  0  0  0  0  0  0  0  0  0
  -21.8221  -32.3586   21.4815 O   0  0  0  0  0  0  0  0  0  0  0  0
  -20.6573  -28.2158   19.4812 O   0  0  0  0  0  0  0  0  0  0  0  0
  -31.1617  -15.0991   19.8810 O   0  0  0  0  0  0  0  0  0  0  0  0
  -21.1343   -8.7394   23.0002 O   0  0  0  0  0  0  0  0  0  0  0  0
  -26.9533  -25.7311   20.2149 O   0  0  0  0  0  0  0  0  0  1  0  0
  -19.1196   -3.6068   22.9635 F   0  0  0  0  0  0  0  0  0  0  0  0
  -21.1517   -7.1925   25.2914 F   0  0  0  0  0  0  0  0  0  0  0  0
  1  2  1  0  0  0  0
  1  5  2  0  0  0  0
  2  6  2  0  0  0  0
  3 10  2  0  0  0  0
  3 18  1  0  0  0  0
  4 11  1  0  0  0  0
  4 18  2  0  0  0  0
  5 20  1  0  0  0  0
  6 22  1  0  0  0  0
  7  9  2  0  0  0  0
  7 23  1  0  0  0  0
  8 12  2  0  0  0  0
  8 21  1  0  0  0  0
  9 26  1  0  0  0  0
 10 27  1  0  0  0  0
 11 27  2  0  0  0  0
 12 28  1  0  0  0  0
 13 14  2  0  0  0  0
 13 29  1  0  0  0  0
 14 30  1  0  0  0  0
 15 24  1  0  0  0  0
 15 28  2  0  0  0  0
 16 25  1  0  0  0  0
 16 26  2  0  0  0  0
 17 30  2  0  0  0  0
 17 31  1  0  0  0  0
 18 32  1  0  0  0  0
 19 32  1  0  0  0  0
 19 33  2  0  0  0  0
 19 36  1  0  0  0  0
 20 22  2  0  0  0  0
 20 41  1  0  0  0  0
 21 24  2  0  0  0  0
 21 42  1  0  0  0  0
 22 54  1  0  0  0  0
 23 25  2  0  0  0  0
 23 53  1  0  0  0  0
 24 43  1  0  0  0  0
 25 57  1  0  0  0  0
 26 73  1  0  0  0  0
 27 82  1  0  0  0  0
 28 83  1  0  0  0  0
 29 31  2  0  0  0  0
 29 82  1  0  0  0  0
 30 84  1  0  0  0  0
 31 85  1  0  0  0  0
 32 67  2  0  0  0  0
 33 68  1  0  0  0  0
 33 71  1  0  0  0  0
 34 35  2  0  0  0  0
 34 44  1  0  0  0  0
 35 45  1  0  0  0  0
 35 63  1  0  0  0  0
 36 72  1  0  0  0  0
 36 77  2  0  0  0  0
 37 55  1  0  0  0  0
 37 74  1  0  0  0  0
 37 78  2  0  0  0  0
 38 64  1  0  0  0  0
 38 69  1  0  0  0  0
 38 79  2  0  0  0  0
 39 65  1  0  0  0  0
 39 75  1  0  0  0  0
 39 80  2  0  0  0  0
 40 70  1  0  0  0  0
 40 73  1  0  0  0  0
 40 81  2  0  0  0  0
 41 46  1  0  0  0  0
 42 55  1  0  0  0  0
 43 69  1  0  0  0  0
 44 53  1  0  0  0  0
 45 47  1  0  0  0  0
 46 49  1  0  0  0  0
 47 53  1  0  0  0  0
 48 50  1  0  0  0  0
 48 51  1  0  0  0  0
 49 54  1  0  0  0  0
 50 56  1  0  0  0  0
 51 70  1  0  0  0  0
 52 56  1  0  0  0  0
 52 70  1  0  0  0  0
 54 74  1  0  0  0  0
 55 69  1  0  0  0  0
 56 68  1  0  0  0  0
 58 65  1  0  0  0  0
 59 66  1  0  0  0  0
 60 66  1  0  0  0  0
 61 66  1  0  0  0  0
 62 76  1  0  0  0  0
 63 83  1  0  0  0  0
 64 66  1  0  0  0  0
 64 75  1  0  0  0  0
 65 76  1  0  0  0  0
 67 68  1  0  0  0  0
M  CHG  1  76   1
M  ISO  4  40 100  63 101  73 100  83 101
M  END
> <Batch ID>
0157

> <Smiles>
CNC(C)C(=O)NC(C(=O)N1Cc2cc([101O:1][101CH2:1]C3=CCC(c4ccc([100NH:0][100C:0](=O)N5CCCC(n6nc(-c7ccc(Oc8ccc(F)cc8F)cc7)c(C(N)=O)c6N)C5)cc4C)CC3)ccc2CC1C(=O)NC1CCCc2ccccc21)C(C)(C)C

> <Shape>
0.279

> <Color>
0.079

> <Negative vol penalty>
0.000

$$$$

  -OEChem-04052303413D

 86 95  0     1  0  0  0  0  0999 V2000
  -26.1477  -38.0946   20.8621 C   0  0  0  0  0  0  0  0  0  0  0  0
  -26.8757  -37.0558   20.2909 C   0  0  0  0  0  0  0  0  0  0  0  0
  -23.8342   -9.7044   20.8132 C   0  0  0  0  0  0  0  0  0  0  0  0
  -24.6767  -10.3677   22.9782 C   0  0  0  0  0  0  0  0  0  0  0  0
  -25.3815  -37.8620   22.0035 C   0  0  0  0  0  0  0  0  0  0  0  0
  -26.8388  -35.7840   20.8615 C   0  0  0  0  0  0  0  0  0  0  0  0
  -27.1054  -28.8526   19.0723 C   0  0  0  0  0  0  0  0  0  0  0  0
  -23.4107   -8.4888   21.3504 C   0  0  0  0  0  0  0  0  0  0  0  0
  -24.2531   -9.1521   23.5155 C   0  0  0  0  0  0  0  0  0  0  0  0
  -27.7941  -27.6834   19.3921 C   0  0  0  0  0  0  0  0  0  0  0  0
  -20.8224   -7.3522   23.2057 C   0  0  0  0  0  0  0  0  0  0  0  0
  -19.5459   -6.9035   22.8670 C   0  0  0  0  0  0  0  0  0  0  0  0
  -26.3729  -27.3800   21.3175 C   0  0  0  0  0  0  0  0  0  0  0  0
  -20.5045   -4.9107   21.8941 C   0  0  0  0  0  0  0  0  0  0  0  0
  -30.4483  -19.4241   20.2358 C   0  0  0  0  0  0  0  0  0  0  0  0
  -24.4673  -10.6438   21.6271 C   0  0  0  0  0  0  0  0  0  0  0  0
  -24.1692  -13.0966   20.9926 C   0  0  0  0  0  0  0  0  0  0  0  0
  -25.3275  -36.5844   22.5827 C   0  0  0  0  0  0  0  0  0  0  0  0
  -26.0505  -29.3009   19.8801 C   0  0  0  0  0  0  0  0  0  0  0  0
  -26.0722  -35.5344   22.0125 C   0  0  0  0  0  0  0  0  0  0  0  0
  -25.6707  -28.5538   21.0043 C   0  0  0  0  0  0  0  0  0  0  0  0
  -23.6201   -8.2127   22.7015 C   0  0  0  0  0  0  0  0  0  0  0  0
  -27.4299  -26.9484   20.5165 C   0  0  0  0  0  0  0  0  0  0  0  0
  -21.9401   -6.5802   22.8885 C   0  0  0  0  0  0  0  0  0  0  0  0
  -19.3869   -5.6827   22.2113 C   0  0  0  0  0  0  0  0  0  0  0  0
  -21.7811   -5.3594   22.2328 C   0  0  0  0  0  0  0  0  0  0  0  0
  -24.9055  -11.8994   21.0727 C   0  0  0  0  0  0  0  0  0  0  0  0
  -25.0241  -13.9858   20.3885 C   0  0  0  0  0  0  0  0  0  0  0  0
  -29.4525  -18.5766   20.6741 C   0  0  0  0  0  0  0  0  0  0  0  0
  -29.2063  -20.8923   21.2901 C   0  0  0  0  0  0  0  0  0  0  0  0
  -22.8321  -13.3796   21.4257 C   0  0  0  0  0  0  0  0  0  0  0  0
  -29.3763  -24.2853   23.9659 C   0  0  0  0  0  0  0  0  0  0  0  0
  -25.5094  -31.9033   21.6231 C   0  0  0  0  0  0  0  0  0  0  0  0
  -22.5754  -30.5707   21.9942 C   0  0  0  0  0  0  0  0  0  0  0  0
  -20.6515  -27.7519   21.9855 C   0  0  0  0  0  0  0  0  0  0  0  0
  -30.0652  -16.2834   19.8301 C   0  0  0  0  0  0  0  0  0  0  0  0
  -24.5227  -36.3925   23.8438 C   0  0  0  0  0  0  0  0  0  0  0  0
  -25.3001  -30.5498   19.5065 C   0  0  0  0  0  0  0  0  0  0  0  0
  -24.5321  -28.9813   21.8929 C   0  0  0  0  0  0  0  0  0  0  0  0
  -24.2402  -34.9281   24.1691 C   0  0  0  0  0  0  0  0  0  0  0  0
  -29.4699  -13.2361   18.0875 C   0  0  0  0  0  0  0  0  0  0  0  0
  -25.5102  -34.0951   24.0270 C   0  0  0  0  0  0  0  0  0  0  0  0
  -28.1688  -12.7151   18.7022 C   0  0  0  0  0  0  0  0  0  0  0  0
  -27.3252  -23.7492   22.6783 C   0  0  0  0  0  0  0  0  0  0  0  0
  -30.3562  -13.9173   19.1288 C   0  0  0  0  0  0  0  0  0  0  0  0
  -27.5331  -22.2374   22.5820 C   0  0  0  0  0  0  0  0  0  0  0  0
  -28.3971  -14.4525   20.5234 C   0  0  0  0  0  0  0  0  0  0  0  0
  -29.4602  -23.3657   21.6363 C   0  0  0  0  0  0  0  0  0  0  0  0
  -26.0380  -34.1351   22.5878 C   0  0  1  0  0  0  0  0  0  0  0  0
  -24.5760  -31.1878   20.6880 C   0  0  1  0  0  0  0  0  0  0  0  0
  -27.4424  -13.8156   19.5004 C   0  0  2  0  0  0  0  0  0  0  0  0
  -28.7405  -24.3249   22.5980 C   0  0  2  0  0  0  0  0  0  0  0  0
  -28.6815  -25.0533   25.0576 C   0  0  0  0  0  0  0  0  0  0  0  0
  -18.2956  -26.9737   22.3615 C   0  0  0  0  0  0  0  0  0  0  0  0
  -30.1727  -26.2945   21.9524 C   0  0  0  0  0  0  0  0  0  0  0  0
  -22.9645  -30.8562   25.0070 C   0  0  0  0  0  0  0  0  0  0  0  0
  -21.0774  -29.2435   25.3332 C   0  0  0  0  0  0  0  0  0  0  0  0
  -20.6690  -31.4243   24.1931 C   0  0  0  0  0  0  0  0  0  0  0  0
  -20.4251  -26.7273   19.2182 C   0  0  0  0  0  0  0  0  0  0  0  0
  -21.9529  -29.6140   22.9822 C   0  0  1  0  0  0  0  0  0  0  0  0
  -19.3137  -27.4474   21.3359 C   0  0  2  0  0  0  0  0  0  0  0  0
  -28.7538  -25.7665   22.0995 C   0  0  1  0  0  0  0  0  0  1  0  0
  -21.6887  -30.2772   24.3634 C   0  0  0  0  0  0  0  0  0  0  0  0
  -30.3086  -20.7524   20.5877 N   0  0  0  0  0  0  0  0  0  0  0  0
  -26.1336  -12.0142   20.5602 N   0  0  0  0  0  0  0  0  0  0  0  0
  -26.1756  -13.2940   20.1523 N   0  0  0  0  0  0  0  0  0  0  0  0
  -28.7585  -22.0920   21.8032 N   0  0  3  0  0  0  0  0  0  0  0  0
  -23.8334  -30.2127   21.4893 N   0  0  0  0  0  0  0  0  0  0  0  0
  -29.6024  -14.9506   19.8422 N   0  0  0  0  0  0  0  0  0  0  0  0
  -24.8957  -15.2841   20.0415 N   0  0  0  0  0  0  0  0  0  0  0  0
  -22.0930  -12.3519   22.0273 N   0  0  0  0  0  0  0  0  0  0  0  0
  -29.2491  -17.1834   20.5147 N   0  0  0  0  0  0  0  0  0  0  0  0
  -25.2603  -33.2575   21.7396 N   0  0  0  0  0  0  0  0  0  0  0  0
  -20.7579  -29.0809   22.3370 N   0  0  0  0  0  0  0  0  0  0  0  0
  -19.4694  -26.3848   20.3027 N   0  3  0  0  0  0  0  0  0  0  0  0
  -22.3024  -14.5058   21.2686 O   0  0  0  0  0  0  0  0  0  0  0  0
  -30.4106  -23.6544   24.1786 O   0  0  0  0  0  0  0  0  0  0  0  0
  -26.3895  -31.2732   22.1977 O   0  0  0  0  0  0  0  0  0  0  0  0
  -21.9646  -31.5942   21.6765 O   0  0  0  0  0  0  0  0  0  0  0  0
  -21.5143  -26.8955   22.1666 O   0  0  0  0  0  0  0  0  0  0  0  0
  -31.0942  -16.6077   19.2318 O   0  0  0  0  0  0  0  0  0  0  0  0
  -23.2067   -7.0267   23.2261 O   0  0  0  0  0  0  0  0  0  0  0  0
  -28.1009  -25.8072   20.8313 O   0  0  0  0  0  0  0  0  0  1  0  0
  -18.1609   -5.2512   21.8875 F   0  0  0  0  0  0  0  0  0  0  0  0
  -22.8509   -4.6128   21.9265 F   0  0  0  0  0  0  0  0  0  0  0  0
  -28.2897  -19.4679   21.5657 S   0  0  0  0  0  0  0  0  0  0  0  0
  1  2  1  0  0  0  0
  1  5  2  0  0  0  0
  2  6  2  0  0  0  0
  3  8  2  0  0  0  0
  3 16  1  0  0  0  0
  4  9  1  0  0  0  0
  4 16  2  0  0  0  0
  5 18  1  0  0  0  0
  6 20  1  0  0  0  0
  7 10  2  0  0  0  0
  7 19  1  0  0  0  0
  8 22  1  0  0  0  0
  9 22  2  0  0  0  0
 10 23  1  0  0  0  0
 11 12  2  0  0  0  0
 11 24  1  0  0  0  0
 12 25  1  0  0  0  0
 13 21  1  0  0  0  0
 13 23  2  0  0  0  0
 14 25  2  0  0  0  0
 14 26  1  0  0  0  0
 15 29  2  0  0  0  0
 15 64  1  0  0  0  0
 16 27  1  0  0  0  0
 17 27  1  0  0  0  0
 17 28  2  0  0  0  0
 17 31  1  0  0  0  0
 18 20  2  0  0  0  0
 18 37  1  0  0  0  0
 19 21  2  0  0  0  0
 19 38  1  0  0  0  0
 20 49  1  0  0  0  0
 21 39  1  0  0  0  0
 22 82  1  0  0  0  0
 23 83  1  0  0  0  0
 24 26  2  0  0  0  0
 24 82  1  0  0  0  0
 25 84  1  0  0  0  0
 26 85  1  0  0  0  0
 27 65  2  0  0  0  0
 28 66  1  0  0  0  0
 28 70  1  0  0  0  0
 29 72  1  0  0  0  0
 29 86  1  0  0  0  0
 30 64  2  0  0  0  0
 30 67  1  0  0  0  0
 30 86  1  0  0  0  0
 31 71  1  0  0  0  0
 31 76  2  0  0  0  0
 32 52  1  0  0  0  0
 32 53  1  0  0  0  0
 32 77  2  0  0  0  0
 33 50  1  0  0  0  0
 33 73  1  0  0  0  0
 33 78  2  0  0  0  0
 34 60  1  0  0  0  0
 34 68  1  0  0  0  0
 34 79  2  0  0  0  0
 35 61  1  0  0  0  0
 35 74  1  0  0  0  0
 35 80  2  0  0  0  0
 36 69  1  0  0  0  0
 36 72  1  0  0  0  0
 36 81  2  0  0  0  0
 37 40  1  0  0  0  0
 38 50  1  0  0  0  0
 39 68  1  0  0  0  0
 40 42  1  0  0  0  0
 41 43  1  0  0  0  0
 41 45  1  0  0  0  0
 42 49  1  0  0  0  0
 43 51  1  0  0  0  0
 44 46  1  0  0  0  0
 44 52  1  0  0  0  0
 45 69  1  0  0  0  0
 46 67  1  0  0  0  0
 47 51  1  0  0  0  0
 47 69  1  0  0  0  0
 48 52  1  0  0  0  0
 48 67  1  0  0  0  0
 49 73  1  0  0  0  0
 50 68  1  0  0  0  0
 51 66  1  0  0  0  0
 52 62  1  0  0  0  0
 54 61  1  0  0  0  0
 55 62  1  0  0  0  0
 56 63  1  0  0  0  0
 57 63  1  0  0  0  0
 58 63  1  0  0  0  0
 59 75  1  0  0  0  0
 60 63  1  0  0  0  0
 60 74  1  0  0  0  0
 61 75  1  0  0  0  0
 62 83  1  0  0  0  0
 65 66  1  0  0  0  0
M  CHG  1  75   1
M  ISO  4  36 100  62 101  72 100  83 101
M  END
> <Batch ID>
0157

> <Smiles>
CNC(C)C(=O)NC(C(=O)N1Cc2cc([101O:1][101CH:1](C)C3(C(C)=O)CCN(c4ncc([100NH:0][100C:0](=O)N5CCCC(n6nc(-c7ccc(Oc8ccc(F)cc8F)cc7)c(C(N)=O)c6N)C5)s4)C3)ccc2CC1C(=O)NC1CCCc2ccccc21)C(C)(C)C

> <Shape>
0.358

> <Color>
0.156

> <Negative vol penalty>
0.000

$$$$

  -OEChem-04052303413D

 86 95  0     1  0  0  0  0  0999 V2000
  -19.2879  -22.9352   23.9822 C   0  0  0  0  0  0  0  0  0  0  0  0
  -20.6784  -22.9442   23.9372 C   0  0  0  0  0  0  0  0  0  0  0  0
  -23.1515   -9.8484   19.9949 C   0  0  0  0  0  0  0  0  0  0  0  0
  -23.8232   -9.9952   22.3110 C   0  0  0  0  0  0  0  0  0  0  0  0
  -18.5688  -24.0255   23.4943 C   0  0  0  0  0  0  0  0  0  0  0  0
  -21.3505  -24.0431   23.4032 C   0  0  0  0  0  0  0  0  0  0  0  0
  -25.2850  -25.4841   26.2471 C   0  0  0  0  0  0  0  0  0  0  0  0
  -22.4343   -8.6857   20.2766 C   0  0  0  0  0  0  0  0  0  0  0  0
  -23.1060   -8.8326   22.5928 C   0  0  0  0  0  0  0  0  0  0  0  0
  -26.4533  -24.7299   26.1468 C   0  0  0  0  0  0  0  0  0  0  0  0
  -19.8832   -7.9616   23.1177 C   0  0  0  0  0  0  0  0  0  0  0  0
  -19.0839   -7.9560   24.2608 C   0  0  0  0  0  0  0  0  0  0  0  0
  -27.3898  -26.3886   24.6667 C   0  0  0  0  0  0  0  0  0  0  0  0
  -29.7458  -18.2386   22.6186 C   0  0  0  0  0  0  0  0  0  0  0  0
  -20.3551   -6.0994   25.1406 C   0  0  0  0  0  0  0  0  0  0  0  0
  -23.8460  -10.5031   21.0121 C   0  0  0  0  0  0  0  0  0  0  0  0
  -24.1148  -13.0288   20.7749 C   0  0  0  0  0  0  0  0  0  0  0  0
  -19.2327  -25.1424   22.9628 C   0  0  0  0  0  0  0  0  0  0  0  0
  -25.1559  -26.6929   25.5481 C   0  0  0  0  0  0  0  0  0  0  0  0
  -20.6395  -25.1487   22.9064 C   0  0  0  0  0  0  0  0  0  0  0  0
  -26.2198  -27.1576   24.7618 C   0  0  0  0  0  0  0  0  0  0  0  0
  -30.6823  -19.2956   22.7123 C   0  0  0  0  0  0  0  0  0  0  0  0
  -22.4115   -8.1778   21.5755 C   0  0  0  0  0  0  0  0  0  0  0  0
  -27.5048  -25.1807   25.3542 C   0  0  0  0  0  0  0  0  0  0  0  0
  -20.9184   -7.0361   22.9860 C   0  0  0  0  0  0  0  0  0  0  0  0
  -19.3199   -7.0249   25.2723 C   0  0  0  0  0  0  0  0  0  0  0  0
  -21.1544   -6.1050   23.9974 C   0  0  0  0  0  0  0  0  0  0  0  0
  -24.5875  -11.7039   20.7216 C   0  0  0  0  0  0  0  0  0  0  0  0
  -31.8025  -18.8748   22.0339 C   0  0  0  0  0  0  0  0  0  0  0  0
  -25.1965  -13.7942   20.4135 C   0  0  0  0  0  0  0  0  0  0  0  0
  -30.3603  -17.2473   21.8894 C   0  0  0  0  0  0  0  0  0  0  0  0
  -28.5522  -23.1761   24.7580 C   0  0  0  0  0  0  0  0  0  1  0  0
  -22.8141  -13.5235   21.1203 C   0  0  0  0  0  0  0  0  0  0  0  0
  -29.6085  -22.3664   24.6160 C   0  0  0  0  0  0  0  0  0  0  0  0
  -29.4001  -20.9894   24.0604 C   0  0  0  0  0  0  0  0  0  0  0  0
  -23.2127  -27.7744   23.2771 C   0  0  0  0  0  0  0  0  0  0  0  0
  -24.7685  -30.5685   23.8197 C   0  0  0  0  0  0  0  0  0  0  0  0
  -27.5718  -32.1509   24.9531 C   0  0  0  0  0  0  0  0  0  0  0  0
  -30.6176  -15.0241   20.7329 C   0  0  0  0  0  0  0  0  0  0  0  0
  -18.4112  -26.2771   22.4040 C   0  0  0  0  0  0  0  0  0  0  0  0
  -23.8995  -27.5079   25.6881 C   0  0  0  0  0  0  0  0  0  0  0  0
  -26.1392  -28.4587   24.0075 C   0  0  0  0  0  0  0  0  0  0  0  0
  -19.2088  -27.5622   22.1973 C   0  0  0  0  0  0  0  0  0  0  0  0
  -35.2505  -19.8994   22.1468 C   0  0  0  0  0  0  0  0  0  0  0  0
  -29.6682  -12.4596   18.4528 C   0  0  0  0  0  0  0  0  0  0  0  0
  -20.5340  -27.2623   21.5038 C   0  0  0  0  0  0  0  0  0  0  0  0
  -34.0389  -19.9705   23.0955 C   0  0  0  0  0  0  0  0  0  0  0  0
  -34.3856  -19.0075   21.2355 C   0  0  0  0  0  0  0  0  0  0  0  0
  -28.2228  -12.1433   18.8441 C   0  0  0  0  0  0  0  0  0  0  0  0
  -30.5296  -12.7780   19.6735 C   0  0  0  0  0  0  0  0  0  0  0  0
  -28.5504  -13.5086   20.9455 C   0  0  0  0  0  0  0  0  0  0  0  0
  -21.4053  -26.3328   22.3573 C   0  0  1  0  0  0  0  0  0  0  0  0
  -33.1370  -19.7081   21.8516 C   0  0  0  0  0  0  0  0  0  0  0  0
  -23.6786  -28.4699   24.5248 C   0  0  1  0  0  0  0  0  0  0  0  0
  -27.6287  -13.2449   19.7436 C   0  0  2  0  0  0  0  0  0  0  0  0
  -28.5653  -34.4381   25.2341 C   0  0  0  0  0  0  0  0  0  0  0  0
  -25.3520  -30.6801   20.8269 C   0  0  0  0  0  0  0  0  0  0  0  0
  -27.0995  -32.4087   21.3028 C   0  0  0  0  0  0  0  0  0  0  0  0
  -24.7094  -32.8713   21.8469 C   0  0  0  0  0  0  0  0  0  0  0  0
  -27.7558  -31.8370   27.8902 C   0  0  0  0  0  0  0  0  0  0  0  0
  -26.0074  -31.2279   23.2634 C   0  0  1  0  0  0  0  0  0  0  0  0
  -27.7528  -33.3321   25.8893 C   0  0  2  0  0  0  0  0  0  0  0  0
  -25.7932  -31.7715   21.8226 C   0  0  0  0  0  0  0  0  0  0  0  0
  -25.8697  -11.6283   20.3550 N   0  0  0  0  0  0  0  0  0  0  0  0
  -26.2118  -12.9154   20.1747 N   0  0  0  0  0  0  0  0  0  0  0  0
  -24.8876  -29.2165   24.1714 N   0  0  0  0  0  0  0  0  0  0  0  0
  -29.9065  -13.8328   20.4759 N   0  0  0  0  0  0  0  0  0  0  0  0
  -25.3687  -15.1264   20.2798 N   0  0  0  0  0  0  0  0  0  0  0  0
  -21.8184  -12.6000   21.4668 N   0  0  0  0  0  0  0  0  0  0  0  0
  -30.5157  -20.5395   23.3675 N   0  0  0  0  0  0  0  0  0  0  0  0
  -29.9117  -15.9676   21.4786 N   0  0  0  0  0  0  0  0  0  0  0  0
  -22.0322  -27.0729   23.4314 N   0  0  0  0  0  0  0  0  0  0  0  0
  -26.3993  -32.2446   24.2335 N   0  0  0  0  0  0  0  0  0  0  0  0
  -28.4564  -32.9051   27.1318 N   0  3  0  0  0  0  0  0  0  0  0  0
  -22.5383  -14.7471   21.1056 O   0  0  0  0  0  0  0  0  0  0  0  0
  -28.3438  -20.3921   24.2367 O   0  0  0  0  0  0  0  0  0  0  0  0
  -23.8744  -27.8685   22.2499 O   0  0  0  0  0  0  0  0  0  0  0  0
  -23.7353  -31.2306   23.9446 O   0  0  0  0  0  0  0  0  0  0  0  0
  -28.3906  -31.2385   24.8658 O   0  0  0  0  0  0  0  0  0  0  0  0
  -31.7579  -15.2057   20.2985 O   0  0  0  0  0  0  0  0  0  0  0  0
  -31.6143  -17.6273   21.5291 O   0  0  0  0  0  0  0  0  0  0  0  0
  -30.8888  -22.7494   24.9607 O   0  0  0  0  0  0  0  0  0  0  0  0
  -21.7115   -7.0434   21.8509 O   0  0  0  0  0  0  0  0  0  0  0  0
  -28.6460  -24.4461   25.2540 O   0  0  0  0  0  0  0  0  0  1  0  0
  -18.5532   -7.0207   26.3707 F   0  0  0  0  0  0  0  0  0  0  0  0
  -22.1482   -5.2141   23.8771 F   0  0  0  0  0  0  0  0  0  0  0  0
  1  2  1  0  0  0  0
  1  5  2  0  0  0  0
  2  6  2  0  0  0  0
  3  8  2  0  0  0  0
  3 16  1  0  0  0  0
  4  9  1  0  0  0  0
  4 16  2  0  0  0  0
  5 18  1  0  0  0  0
  6 20  1  0  0  0  0
  7 10  2  0  0  0  0
  7 19  1  0  0  0  0
  8 23  1  0  0  0  0
  9 23  2  0  0  0  0
 10 24  1  0  0  0  0
 11 12  2  0  0  0  0
 11 25  1  0  0  0  0
 12 26  1  0  0  0  0
 13 21  1  0  0  0  0
 13 24  2  0  0  0  0
 14 22  1  0  0  0  0
 14 31  2  0  0  0  0
 15 26  2  0  0  0  0
 15 27  1  0  0  0  0
 16 28  1  0  0  0  0
 17 28  1  0  0  0  0
 17 30  2  0  0  0  0
 17 33  1  0  0  0  0
 18 20  2  0  0  0  0
 18 40  1  0  0  0  0
 19 21  2  0  0  0  0
 19 41  1  0  0  0  0
 20 52  1  0  0  0  0
 21 42  1  0  0  0  0
 22 29  2  0  0  0  0
 22 70  1  0  0  0  0
 23 83  1  0  0  0  0
 24 84  1  0  0  0  0
 25 27  2  0  0  0  0
 25 83  1  0  0  0  0
 26 85  1  0  0  0  0
 27 86  1  0  0  0  0
 28 64  2  0  0  0  0
 29 53  1  0  0  0  0
 29 81  1  0  0  0  0
 30 65  1  0  0  0  0
 30 68  1  0  0  0  0
 31 71  1  0  0  0  0
 31 81  1  0  0  0  0
 32 34  2  0  0  0  0
 32 84  1  0  0  0  0
 33 69  1  0  0  0  0
 33 75  2  0  0  0  0
 34 35  1  0  0  0  0
 34 82  1  0  0  0  0
 35 70  1  0  0  0  0
 35 76  2  0  0  0  0
 36 54  1  0  0  0  0
 36 72  1  0  0  0  0
 36 77  2  0  0  0  0
 37 61  1  0  0  0  0
 37 66  1  0  0  0  0
 37 78  2  0  0  0  0
 38 62  1  0  0  0  0
 38 73  1  0  0  0  0
 38 79  2  0  0  0  0
 39 67  1  0  0  0  0
 39 71  1  0  0  0  0
 39 80  2  0  0  0  0
 40 43  1  0  0  0  0
 41 54  1  0  0  0  0
 42 66  1  0  0  0  0
 43 46  1  0  0  0  0
 44 47  1  0  0  0  0
 44 48  1  0  0  0  0
 45 49  1  0  0  0  0
 45 50  1  0  0  0  0
 46 52  1  0  0  0  0
 47 53  1  0  0  0  0
 48 53  1  0  0  0  0
 49 55  1  0  0  0  0
 50 67  1  0  0  0  0
 51 55  1  0  0  0  0
 51 67  1  0  0  0  0
 52 72  1  0  0  0  0
 54 66  1  0  0  0  0
 55 65  1  0  0  0  0
 56 62  1  0  0  0  0
 57 63  1  0  0  0  0
 58 63  1  0  0  0  0
 59 63  1  0  0  0  0
 60 74  1  0  0  0  0
 61 63  1  0  0  0  0
 61 73  1  0  0  0  0
 62 74  1  0  0  0  0
 64 65  1  0  0  0  0
M  CHG  1  74   1
M  ISO  4  32 101  39 100  71 100  84 101
M  END
> <Batch ID>
0157

> <Smiles>
CNC(C)C(=O)NC(C(=O)N1Cc2cc([101O:1][101CH2:1]C(=O)C(=O)Nc3cc([100NH:0][100C:0](=O)N4CCCC(n5nc(-c6ccc(Oc7ccc(F)cc7F)cc6)c(C(N)=O)c5N)C4)oc3C3CCC3)ccc2CC1C(=O)NC1CCCc2ccccc21)C(C)(C)C

> <Shape>
0.293

> <Color>
0.191

> <Negative vol penalty>
0.000

$$$$

  -OEChem-04052303413D

 87 96  0     1  0  0  0  0  0999 V2000
  -24.6378   -2.0371   26.1754 C   0  0  0  0  0  0  0  0  0  0  0  0
  -25.4816   -3.0689   26.5741 C   0  0  0  0  0  0  0  0  0  0  0  0
  -22.8454  -10.1063   20.1108 C   0  0  0  0  0  0  0  0  0  0  0  0
  -24.2788   -9.5476   21.9737 C   0  0  0  0  0  0  0  0  0  0  0  0
  -23.7562   -1.4655   27.0919 C   0  0  0  0  0  0  0  0  0  0  0  0
  -25.4433   -3.5305   27.8894 C   0  0  0  0  0  0  0  0  0  0  0  0
  -30.0648   -4.1826   29.8544 C   0  0  0  0  0  0  0  0  0  0  0  0
  -22.1371   -8.9197   20.3000 C   0  0  0  0  0  0  0  0  0  0  0  0
  -23.5704   -8.3610   22.1629 C   0  0  0  0  0  0  0  0  0  0  0  0
  -30.7600   -5.3313   29.4791 C   0  0  0  0  0  0  0  0  0  0  0  0
  -20.6417   -7.4047   23.5516 C   0  0  0  0  0  0  0  0  0  0  0  0
  -20.2852   -7.0656   24.8567 C   0  0  0  0  0  0  0  0  0  0  0  0
  -30.9663  -12.5445   25.0072 C   0  0  0  0  0  0  0  0  0  0  0  0
  -33.1115  -11.9168   25.9241 C   0  0  0  0  0  0  0  0  0  0  0  0
  -30.1318   -6.3831   31.5571 C   0  0  0  0  0  0  0  0  0  0  0  0
  -32.8737  -12.2823   23.5478 C   0  0  0  0  0  0  0  0  0  0  0  0
  -21.5548   -5.0184   24.6716 C   0  0  0  0  0  0  0  0  0  0  0  0
  -23.9164  -10.4202   20.9477 C   0  0  0  0  0  0  0  0  0  0  0  0
  -31.7606  -12.2135   26.1049 C   0  0  0  0  0  0  0  0  0  0  0  0
  -24.1415  -12.9575   20.8090 C   0  0  0  0  0  0  0  0  0  0  0  0
  -23.7140   -1.9138   28.4215 C   0  0  0  0  0  0  0  0  0  0  0  0
  -29.3876   -4.1293   31.0812 C   0  0  0  0  0  0  0  0  0  0  0  0
  -24.5594   -2.9652   28.8242 C   0  0  0  0  0  0  0  0  0  0  0  0
  -29.4309   -5.2316   31.9468 C   0  0  0  0  0  0  0  0  0  0  0  0
  -31.5228  -12.5789   23.7286 C   0  0  0  0  0  0  0  0  0  0  0  0
  -22.4995   -8.0470   21.3260 C   0  0  0  0  0  0  0  0  0  0  0  0
  -30.7912   -6.4329   30.3292 C   0  0  0  0  0  0  0  0  0  0  0  0
  -21.4547   -6.5507   22.8063 C   0  0  0  0  0  0  0  0  0  0  0  0
  -20.7418   -5.8724   25.4168 C   0  0  0  0  0  0  0  0  0  0  0  0
  -33.6681  -11.9513   24.6455 C   0  0  0  0  0  0  0  0  0  0  0  0
  -21.9113   -5.3576   23.3664 C   0  0  0  0  0  0  0  0  0  0  0  0
  -24.6489  -11.6456   20.7525 C   0  0  0  0  0  0  0  0  0  0  0  0
  -25.2290  -13.7574   20.5564 C   0  0  0  0  0  0  0  0  0  0  0  0
  -31.1728  -12.1757   27.4559 C   0  0  0  0  0  0  0  0  0  0  0  0
  -22.8065  -13.4124   21.0669 C   0  0  0  0  0  0  0  0  0  0  0  0
  -26.3533   -3.7629   31.9544 C   0  0  0  0  0  0  0  0  0  0  0  0
  -27.6296   -3.6648   34.9350 C   0  0  0  0  0  0  0  0  0  0  0  0
  -30.1937   -5.4280   36.7609 C   0  0  0  0  0  0  0  0  0  0  0  0
  -31.1116  -12.9967   21.2785 C   0  0  0  0  0  0  0  0  0  0  0  0
  -22.7109   -1.2971   29.3640 C   0  0  0  0  0  0  0  0  0  0  0  0
  -28.6646   -2.8731   31.4831 C   0  0  0  0  0  0  0  0  0  0  0  0
  -28.7372   -5.2178   33.2836 C   0  0  0  0  0  0  0  0  0  0  0  0
  -22.9968   -1.5901   30.8346 C   0  0  0  0  0  0  0  0  0  0  0  0
  -29.4201  -13.7575   18.2393 C   0  0  0  0  0  0  0  0  0  0  0  0
  -23.3117   -3.0694   31.0328 C   0  0  0  0  0  0  0  0  0  0  0  0
  -27.9575  -13.4274   18.5459 C   0  0  0  0  0  0  0  0  0  0  0  0
  -30.7481   -9.8501   30.0271 C   0  0  0  0  0  0  0  0  0  0  0  0
  -31.3347   -8.7078   27.8460 C   0  0  0  0  0  0  0  0  0  0  0  0
  -30.3766  -12.7766   18.9150 C   0  0  0  0  0  0  0  0  0  0  0  0
  -30.0507  -10.9611   29.2536 C   0  0  0  0  0  0  0  0  0  0  0  0
  -30.6367   -9.8227   27.0786 C   0  0  0  0  0  0  0  0  0  0  0  0
  -28.7171  -12.2837   20.6677 C   0  0  0  0  0  0  0  0  0  0  0  0
  -24.5649   -3.4766   30.2485 C   0  0  1  0  0  0  0  0  0  0  0  0
  -27.5814   -3.1159   32.5296 C   0  0  1  0  0  0  0  0  0  0  0  0
  -27.7183  -13.2830   20.0617 C   0  0  2  0  0  0  0  0  0  0  0  0
  -30.7454   -8.5406   29.2445 C   0  0  0  0  0  0  0  0  0  1  0  0
  -31.6239   -4.6919   38.6871 C   0  0  0  0  0  0  0  0  0  0  0  0
  -25.4723   -4.9644   36.6575 C   0  0  0  0  0  0  0  0  0  0  0  0
  -27.2814   -5.7848   38.1814 C   0  0  0  0  0  0  0  0  0  0  0  0
  -26.9327   -3.3347   37.8681 C   0  0  0  0  0  0  0  0  0  0  0  0
  -32.6883   -6.0831   35.3095 C   0  0  0  0  0  0  0  0  0  0  0  0
  -27.9524   -4.6911   35.9940 C   0  0  1  0  0  0  0  0  0  0  0  0
  -31.5475   -4.8843   37.1804 C   0  0  2  0  0  0  0  0  0  0  0  0
  -26.9100   -4.7003   37.1476 C   0  0  0  0  0  0  0  0  0  0  0  0
  -25.9569  -11.6097   20.4848 N   0  0  0  0  0  0  0  0  0  0  0  0
  -26.2807  -12.9090   20.3708 N   0  0  0  0  0  0  0  0  0  0  0  0
  -30.6498  -11.0442   27.9072 N   0  0  0  0  0  0  0  0  0  0  0  0
  -28.0384   -3.9688   33.6287 N   0  0  0  0  0  0  0  0  0  0  0  0
  -30.0935  -12.6949   20.3496 N   0  0  0  0  0  0  0  0  0  0  0  0
  -25.3788  -15.0967   20.4771 N   0  0  0  0  0  0  0  0  0  0  0  0
  -21.8096  -12.4568   21.3066 N   0  0  0  0  0  0  0  0  0  0  0  0
  -30.7165  -12.9166   22.6135 N   0  0  0  0  0  0  0  0  0  0  0  0
  -25.7584   -3.0379   30.9396 N   0  0  0  0  0  0  0  0  0  0  0  0
  -29.3187   -4.4164   36.4255 N   0  0  0  0  0  0  0  0  0  0  0  0
  -31.1780  -13.2766   28.2017 N   0  3  0  0  0  0  0  0  0  0  0  0
  -32.6316   -5.8213   36.7708 N   0  3  0  0  0  0  0  0  0  0  0  0
  -22.5031  -14.6296   21.0680 O   0  0  0  0  0  0  0  0  0  0  0  0
  -25.9729   -4.8394   32.3994 O   0  0  0  0  0  0  0  0  0  0  0  0
  -27.0429   -2.6283   35.2561 O   0  0  0  0  0  0  0  0  0  0  0  0
  -29.9367   -6.6296   36.7370 O   0  0  0  0  0  0  0  0  0  0  0  0
  -32.2428  -13.3302   20.9161 O   0  0  0  0  0  0  0  0  0  0  0  0
  -21.8084   -6.8892   21.5110 O   0  0  0  0  0  0  0  0  0  0  0  0
  -31.4684   -7.5556   29.9651 O   0  0  0  0  0  0  0  0  0  1  0  0
  -20.4006   -5.5476   26.6707 F   0  0  0  0  0  0  0  0  0  0  0  0
  -34.9653  -11.6664   24.4720 F   0  0  0  0  0  0  0  0  0  0  0  0
  -22.6936   -4.5336   22.6557 F   0  0  0  0  0  0  0  0  0  0  0  0
  -29.4659   -8.0930   29.1356 F   0  0  0  0  0  0  0  0  0  0  0  0
  1  2  1  0  0  0  0
  1  5  2  0  0  0  0
  2  6  2  0  0  0  0
  3  8  2  0  0  0  0
  3 18  1  0  0  0  0
  4  9  1  0  0  0  0
  4 18  2  0  0  0  0
  5 21  1  0  0  0  0
  6 23  1  0  0  0  0
  7 10  2  0  0  0  0
  7 22  1  0  0  0  0
  8 26  1  0  0  0  0
  9 26  2  0  0  0  0
 10 27  1  0  0  0  0
 11 12  2  0  0  0  0
 11 28  1  0  0  0  0
 12 29  1  0  0  0  0
 13 19  2  0  0  0  0
 13 25  1  0  0  0  0
 14 19  1  0  0  0  0
 14 30  2  0  0  0  0
 15 24  1  0  0  0  0
 15 27  2  0  0  0  0
 16 25  2  0  0  0  0
 16 30  1  0  0  0  0
 17 29  2  0  0  0  0
 17 31  1  0  0  0  0
 18 32  1  0  0  0  0
 19 34  1  0  0  0  0
 20 32  1  0  0  0  0
 20 33  2  0  0  0  0
 20 35  1  0  0  0  0
 21 23  2  0  0  0  0
 21 40  1  0  0  0  0
 22 24  2  0  0  0  0
 22 41  1  0  0  0  0
 23 53  1  0  0  0  0
 24 42  1  0  0  0  0
 25 72  1  0  0  0  0
 26 82  1  0  0  0  0
 27 83  1  0  0  0  0
 28 31  2  0  0  0  0
 28 82  1  0  0  0  0
 29 84  1  0  0  0  0
 30 85  1  0  0  0  0
 31 86  1  0  0  0  0
 32 65  2  0  0  0  0
 33 66  1  0  0  0  0
 33 70  1  0  0  0  0
 34 67  1  0  0  0  0
 34 75  2  0  0  0  0
 35 71  1  0  0  0  0
 35 77  2  0  0  0  0
 36 54  1  0  0  0  0
 36 73  1  0  0  0  0
 36 78  2  0  0  0  0
 37 62  1  0  0  0  0
 37 68  1  0  0  0  0
 37 79  2  0  0  0  0
 38 63  1  0  0  0  0
 38 74  1  0  0  0  0
 38 80  2  0  0  0  0
 39 69  1  0  0  0  0
 39 72  1  0  0  0  0
 39 81  2  0  0  0  0
 40 43  1  0  0  0  0
 41 54  1  0  0  0  0
 42 68  1  0  0  0  0
 43 45  1  0  0  0  0
 44 46  1  0  0  0  0
 44 49  1  0  0  0  0
 45 53  1  0  0  0  0
 46 55  1  0  0  0  0
 47 50  1  0  0  0  0
 47 56  1  0  0  0  0
 48 51  1  0  0  0  0
 48 56  1  0  0  0  0
 49 69  1  0  0  0  0
 50 67  1  0  0  0  0
 51 67  1  0  0  0  0
 52 55  1  0  0  0  0
 52 69  1  0  0  0  0
 53 73  1  0  0  0  0
 54 68  1  0  0  0  0
 55 66  1  0  0  0  0
 56 83  1  0  0  0  0
 56 87  1  0  0  0  0
 57 63  1  0  0  0  0
 58 64  1  0  0  0  0
 59 64  1  0  0  0  0
 60 64  1  0  0  0  0
 61 76  1  0  0  0  0
 62 64  1  0  0  0  0
 62 74  1  0  0  0  0
 63 76  1  0  0  0  0
 65 66  1  0  0  0  0
M  CHG  2  75   1  76   1
M  ISO  4  39 100  56 101  72 100  83 101
M  END
> <Batch ID>
0157

> <Smiles>
CNC(C)C(=O)NC(C(=O)N1Cc2cc([101O:1][101C:1]3(F)CCN(C(=N)c4cc(F)cc([100NH:0][100C:0](=O)N5CCCC(n6nc(-c7ccc(Oc8ccc(F)cc8F)cc7)c(C(N)=O)c6N)C5)c4)CC3)ccc2CC1C(=O)NC1CCCc2ccccc21)C(C)(C)C

> <Shape>
0.150

> <Color>
0.174

> <Negative vol penalty>
0.000

$$$$

  -OEChem-04052303413D

 86 95  0     1  0  0  0  0  0999 V2000
  -16.5822  -30.4974   22.9210 C   0  0  0  0  0  0  0  0  0  0  0  0
  -17.6893  -31.2901   23.2065 C   0  0  0  0  0  0  0  0  0  0  0  0
  -29.9567  -13.4541   18.5915 C   0  0  0  0  0  0  0  0  0  0  0  0
  -28.0526  -13.0929   20.0342 C   0  0  0  0  0  0  0  0  0  0  0  0
  -16.7301  -29.1174   22.7881 C   0  0  0  0  0  0  0  0  0  0  0  0
  -18.9447  -30.7031   23.3604 C   0  0  0  0  0  0  0  0  0  0  0  0
  -25.8969  -32.0157   22.2380 C   0  0  0  0  0  0  0  0  0  0  0  0
  -30.4660  -12.2064   18.9513 C   0  0  0  0  0  0  0  0  0  0  0  0
  -28.5619  -11.8451   20.3939 C   0  0  0  0  0  0  0  0  0  0  0  0
  -27.1179  -32.0026   22.9110 C   0  0  0  0  0  0  0  0  0  0  0  0
  -28.7108   -8.7407   19.0668 C   0  0  0  0  0  0  0  0  0  0  0  0
  -27.8252   -7.6634   19.0907 C   0  0  0  0  0  0  0  0  0  0  0  0
  -30.4636  -26.1248   22.5699 C   0  0  0  0  0  0  0  0  0  0  0  0
  -27.2673  -29.6176   22.5808 C   0  0  0  0  0  0  0  0  0  0  0  0
  -30.5472  -27.3402   20.4869 C   0  0  0  0  0  0  0  0  0  0  0  0
  -28.2912   -7.3324   21.4381 C   0  0  0  0  0  0  0  0  0  0  0  0
  -28.7500  -13.8974   19.1330 C   0  0  0  0  0  0  0  0  0  0  0  0
  -27.3571  -15.4747   17.6910 C   0  0  0  0  0  0  0  0  0  0  0  0
  -17.9896  -28.5142   22.9309 C   0  0  0  0  0  0  0  0  0  0  0  0
  -25.3458  -30.8263   21.7400 C   0  0  0  0  0  0  0  0  0  0  0  0
  -19.1093  -29.3135   23.2306 C   0  0  0  0  0  0  0  0  0  0  0  0
  -30.6053  -24.9112   21.8822 C   0  0  0  0  0  0  0  0  0  0  0  0
  -26.0405  -29.6187   21.8996 C   0  0  0  0  0  0  0  0  0  0  0  0
  -30.6960  -24.9157   20.4790 C   0  0  0  0  0  0  0  0  0  0  0  0
  -30.4378  -27.3334   21.8748 C   0  0  0  0  0  0  0  0  0  0  0  0
  -29.7686  -11.4019   19.8524 C   0  0  0  0  0  0  0  0  0  0  0  0
  -27.8019  -30.8030   23.0850 C   0  0  0  0  0  0  0  0  0  0  0  0
  -29.3867   -9.1139   20.2286 C   0  0  0  0  0  0  0  0  0  0  0  0
  -27.6154   -6.9592   20.2763 C   0  0  0  0  0  0  0  0  0  0  0  0
  -30.6772  -26.1381   19.7920 C   0  0  0  0  0  0  0  0  0  0  0  0
  -29.1769   -8.4097   21.4142 C   0  0  0  0  0  0  0  0  0  0  0  0
  -28.2237  -15.1865   18.7623 C   0  0  0  0  0  0  0  0  0  0  0  0
  -27.1564  -16.8313   17.7671 C   0  0  0  0  0  0  0  0  0  0  0  0
  -26.7846  -14.5948   16.7143 C   0  0  0  0  0  0  0  0  0  0  0  0
  -22.6815  -29.1840   22.2948 C   0  0  0  0  0  0  0  0  0  0  0  0
  -23.7441  -27.3756   19.8204 C   0  0  0  0  0  0  0  0  0  0  0  0
  -26.3816  -26.3033   17.9387 C   0  0  0  0  0  0  0  0  0  0  0  0
  -30.3043  -21.2384   19.8085 C   0  0  0  0  0  0  0  0  0  0  0  0
  -18.0919  -27.0132   22.8251 C   0  0  0  0  0  0  0  0  0  0  0  0
  -24.0408  -30.8613   20.9930 C   0  0  0  0  0  0  0  0  0  0  0  0
  -30.6034  -23.6163   22.6532 C   0  0  0  0  0  0  0  0  0  0  0  0
  -25.5016  -28.3174   21.3663 C   0  0  0  0  0  0  0  0  0  0  0  0
  -30.8544  -23.6368   19.6981 C   0  0  0  0  0  0  0  0  0  0  0  0
  -19.5209  -26.5122   22.6325 C   0  0  0  0  0  0  0  0  0  0  0  0
  -27.0557  -20.4396   20.8968 C   0  0  0  0  0  0  0  0  0  0  0  0
  -20.4649  -27.2012   23.6129 C   0  0  0  0  0  0  0  0  0  0  0  0
  -26.8994  -19.0148   20.3671 C   0  0  0  0  0  0  0  0  0  0  0  0
  -31.1739  -22.4560   21.8444 C   0  0  0  0  0  0  0  0  0  0  0  0
  -28.4571  -20.6934   21.4547 C   0  0  0  0  0  0  0  0  0  0  0  0
  -29.3914  -18.9426   19.9785 C   0  0  0  0  0  0  0  0  0  0  0  0
  -20.4919  -28.7166   23.3802 C   0  0  1  0  0  0  0  0  0  0  0  0
  -23.3247  -29.5143   20.9777 C   0  0  1  0  0  0  0  0  0  0  0  0
  -28.0111  -18.6764   19.3582 C   0  0  1  0  0  0  0  0  0  0  0  0
  -26.9430  -24.7989   16.0102 C   0  0  0  0  0  0  0  0  0  0  0  0
  -23.4519  -24.9416   21.6371 C   0  0  0  0  0  0  0  0  0  0  0  0
  -24.8866  -23.6603   20.0347 C   0  0  0  0  0  0  0  0  0  0  0  0
  -22.6945  -24.5817   19.2811 C   0  0  0  0  0  0  0  0  0  0  0  0
  -31.3677  -30.9130   23.8987 C   0  0  0  0  0  0  0  0  0  0  0  0
  -30.1019  -32.3461   22.2816 C   0  0  0  0  0  0  0  0  0  0  0  0
  -27.4209  -28.5599   16.3305 C   0  0  0  0  0  0  0  0  0  0  0  0
  -30.2679  -29.8219   21.9282 C   0  0  0  0  0  0  0  0  0  0  0  0
  -24.6281  -26.1590   19.6876 C   0  0  1  0  0  0  0  0  0  0  0  0
  -26.5756  -26.2119   16.4359 C   0  0  2  0  0  0  0  0  0  0  0  0
  -23.9248  -24.8597   20.1720 C   0  0  0  0  0  0  0  0  0  0  0  0
  -30.1702  -30.9687   22.9463 C   0  0  0  0  0  0  0  0  0  1  0  0
  -28.5512  -16.2727   19.4672 N   0  0  0  0  0  0  0  0  0  0  0  0
  -27.8869  -17.2567   18.8375 N   0  0  0  0  0  0  0  0  0  0  0  0
  -24.2190  -28.4025   20.6485 N   0  0  0  0  0  0  0  0  0  0  0  0
  -30.6141  -22.4288   20.4887 N   0  0  0  0  0  0  0  0  0  0  0  0
  -29.4849  -20.3169   20.4759 N   0  0  0  0  0  0  0  0  0  0  0  0
  -26.4282  -17.6900   17.0222 N   0  0  0  0  0  0  0  0  0  0  0  0
  -27.0952  -13.2298   16.7812 N   0  0  0  0  0  0  0  0  0  0  0  0
  -30.3016  -28.5482   22.5778 N   0  0  0  0  0  0  0  0  0  0  0  0
  -21.3091  -29.0368   22.2295 N   0  0  0  0  0  0  0  0  0  0  0  0
  -25.0623  -26.1200   18.2954 N   0  0  0  0  0  0  0  0  0  0  0  0
  -27.6623  -27.1325   15.9970 N   0  3  0  0  0  0  0  0  0  0  0  0
  -26.0334  -15.0094   15.7993 O   0  0  0  0  0  0  0  0  0  0  0  0
  -23.3788  -29.0695   23.2960 O   0  0  0  0  0  0  0  0  0  0  0  0
  -22.6752  -27.4163   19.2062 O   0  0  0  0  0  0  0  0  0  0  0  0
  -27.3083  -26.5124   18.7185 O   0  0  0  0  0  0  0  0  0  0  0  0
  -30.7386  -21.0144   18.6714 O   0  0  0  0  0  0  0  0  0  0  0  0
  -30.2651  -10.1842   20.2035 O   0  0  0  0  0  0  0  0  0  0  0  0
  -28.9989  -30.7872   23.7451 O   0  0  0  0  0  0  0  0  0  1  0  0
  -26.7637   -5.9256   20.2995 F   0  0  0  0  0  0  0  0  0  0  0  0
  -30.7881  -26.1621   18.4556 F   0  0  0  0  0  0  0  0  0  0  0  0
  -29.8224   -8.7642   22.5338 F   0  0  0  0  0  0  0  0  0  0  0  0
  1  2  1  0  0  0  0
  1  5  2  0  0  0  0
  2  6  2  0  0  0  0
  3  8  2  0  0  0  0
  3 17  1  0  0  0  0
  4  9  1  0  0  0  0
  4 17  2  0  0  0  0
  5 19  1  0  0  0  0
  6 21  1  0  0  0  0
  7 10  2  0  0  0  0
  7 20  1  0  0  0  0
  8 26  1  0  0  0  0
  9 26  2  0  0  0  0
 10 27  1  0  0  0  0
 11 12  2  0  0  0  0
 11 28  1  0  0  0  0
 12 29  1  0  0  0  0
 13 22  1  0  0  0  0
 13 25  2  0  0  0  0
 14 23  1  0  0  0  0
 14 27  2  0  0  0  0
 15 25  1  0  0  0  0
 15 30  2  0  0  0  0
 16 29  2  0  0  0  0
 16 31  1  0  0  0  0
 17 32  1  0  0  0  0
 18 32  1  0  0  0  0
 18 33  2  0  0  0  0
 18 34  1  0  0  0  0
 19 21  2  0  0  0  0
 19 39  1  0  0  0  0
 20 23  2  0  0  0  0
 20 40  1  0  0  0  0
 21 51  1  0  0  0  0
 22 24  2  0  0  0  0
 22 41  1  0  0  0  0
 23 42  1  0  0  0  0
 24 30  1  0  0  0  0
 24 43  1  0  0  0  0
 25 73  1  0  0  0  0
 26 82  1  0  0  0  0
 27 83  1  0  0  0  0
 28 31  2  0  0  0  0
 28 82  1  0  0  0  0
 29 84  1  0  0  0  0
 30 85  1  0  0  0  0
 31 86  1  0  0  0  0
 32 66  2  0  0  0  0
 33 67  1  0  0  0  0
 33 71  1  0  0  0  0
 34 72  1  0  0  0  0
 34 77  2  0  0  0  0
 35 52  1  0  0  0  0
 35 74  1  0  0  0  0
 35 78  2  0  0  0  0
 36 62  1  0  0  0  0
 36 68  1  0  0  0  0
 36 79  2  0  0  0  0
 37 63  1  0  0  0  0
 37 75  1  0  0  0  0
 37 80  2  0  0  0  0
 38 69  1  0  0  0  0
 38 70  1  0  0  0  0
 38 81  2  0  0  0  0
 39 44  1  0  0  0  0
 40 52  1  0  0  0  0
 41 48  1  0  0  0  0
 42 68  1  0  0  0  0
 43 69  1  0  0  0  0
 44 46  1  0  0  0  0
 45 47  1  0  0  0  0
 45 49  1  0  0  0  0
 46 51  1  0  0  0  0
 47 53  1  0  0  0  0
 48 69  1  0  0  0  0
 49 70  1  0  0  0  0
 50 53  1  0  0  0  0
 50 70  1  0  0  0  0
 51 74  1  0  0  0  0
 52 68  1  0  0  0  0
 53 67  1  0  0  0  0
 54 63  1  0  0  0  0
 55 64  1  0  0  0  0
 56 64  1  0  0  0  0
 57 64  1  0  0  0  0
 58 65  1  0  0  0  0
 59 65  1  0  0  0  0
 60 76  1  0  0  0  0
 61 65  1  0  0  0  0
 61 73  1  0  0  0  0
 62 64  1  0  0  0  0
 62 75  1  0  0  0  0
 63 76  1  0  0  0  0
 65 83  1  0  0  0  0
 66 67  1  0  0  0  0
M  CHG  1  76   1
M  ISO  4  38 100  65 101  69 100  83 101
M  END
> <Batch ID>
0157

> <Smiles>
CNC(C)C(=O)NC(C(=O)N1Cc2cc([101O:1][101C:1](C)(C)CNc3cc(F)c4c(c3)CC[100N:0]([100C:0](=O)N3CCCC(n5nc(-c6ccc(Oc7ccc(F)cc7F)cc6)c(C(N)=O)c5N)C3)C4)ccc2CC1C(=O)NC1CCCc2ccccc21)C(C)(C)C

> <Shape>
0.265

> <Color>
0.097

> <Negative vol penalty>
0.000

$$$$

  -OEChem-04052303413D

 87 96  0     1  0  0  0  0  0999 V2000
  -30.3304  -26.0379   15.4782 C   0  0  0  0  0  0  0  0  0  0  0  0
  -29.0615  -26.5073   15.8022 C   0  0  0  0  0  0  0  0  0  0  0  0
  -27.0598  -15.5976   22.1342 C   0  0  0  0  0  0  0  0  0  0  0  0
  -25.4560  -15.9908   20.3707 C   0  0  0  0  0  0  0  0  0  0  0  0
  -31.1588  -25.5259   16.4759 C   0  0  0  0  0  0  0  0  0  0  0  0
  -28.6198  -26.4638   17.1241 C   0  0  0  0  0  0  0  0  0  0  0  0
  -24.9908  -30.5224   19.9285 C   0  0  0  0  0  0  0  0  0  0  0  0
  -26.9695  -14.2238   21.9101 C   0  0  0  0  0  0  0  0  0  0  0  0
  -25.3657  -14.6171   20.1465 C   0  0  0  0  0  0  0  0  0  0  0  0
  -23.6226  -30.5293   20.1962 C   0  0  0  0  0  0  0  0  0  0  0  0
  -27.4327  -10.6352   21.5602 C   0  0  0  0  0  0  0  0  0  0  0  0
  -28.6209   -9.9060   21.5148 C   0  0  0  0  0  0  0  0  0  0  0  0
  -20.4611  -22.5684   20.5947 C   0  0  0  0  0  0  0  0  0  0  0  0
  -24.0568  -29.6641   22.4058 C   0  0  0  0  0  0  0  0  0  0  0  0
  -20.6534  -24.2466   22.3067 C   0  0  0  0  0  0  0  0  0  0  0  0
  -29.3718  -11.2456   19.6496 C   0  0  0  0  0  0  0  0  0  0  0  0
  -19.8342  -23.5206   19.8072 C   0  0  0  0  0  0  0  0  0  0  0  0
  -26.3030  -16.4811   21.3645 C   0  0  0  0  0  0  0  0  0  0  0  0
  -27.2863  -18.8046   20.9873 C   0  0  0  0  0  0  0  0  0  0  0  0
  -30.7307  -25.4850   17.8122 C   0  0  0  0  0  0  0  0  0  0  0  0
  -25.9030  -30.0752   20.8951 C   0  0  0  0  0  0  0  0  0  0  0  0
  -29.4428  -25.9495   18.1405 C   0  0  0  0  0  0  0  0  0  0  0  0
  -25.4362  -29.6549   22.1487 C   0  0  0  0  0  0  0  0  0  0  0  0
  -20.8754  -22.9463   21.8670 C   0  0  0  0  0  0  0  0  0  0  0  0
  -26.1224  -13.7336   20.9162 C   0  0  0  0  0  0  0  0  0  0  0  0
  -23.1551  -30.0974   21.4340 C   0  0  0  0  0  0  0  0  0  0  0  0
  -27.2140  -11.6696   20.6502 C   0  0  0  0  0  0  0  0  0  0  0  0
  -29.5904  -10.2112   20.5595 C   0  0  0  0  0  0  0  0  0  0  0  0
  -28.1836  -11.9748   19.6950 C   0  0  0  0  0  0  0  0  0  0  0  0
  -26.3955  -17.9002   21.5960 C   0  0  0  0  0  0  0  0  0  0  0  0
  -20.0182  -25.1237   21.4425 C   0  0  0  0  0  0  0  0  0  0  0  0
  -26.9730  -20.0212   21.5424 C   0  0  0  0  0  0  0  0  0  0  0  0
  -28.3057  -18.5662   20.0077 C   0  0  0  0  0  0  0  0  0  0  0  0
  -28.0124  -27.7032   21.0613 C   0  0  0  0  0  0  0  0  0  0  0  0
  -28.8184  -29.1362   23.8576 C   0  0  0  0  0  0  0  0  0  0  0  0
  -27.8973  -31.1588   26.4475 C   0  0  0  0  0  0  0  0  0  0  0  0
  -21.9944  -22.2240   24.0053 C   0  0  0  0  0  0  0  0  0  0  0  0
  -31.6435  -24.8790   18.8486 C   0  0  0  0  0  0  0  0  0  0  0  0
  -27.3777  -30.0991   20.6002 C   0  0  0  0  0  0  0  0  0  0  0  0
  -26.3758  -29.1845   23.2278 C   0  0  0  0  0  0  0  0  0  0  0  0
  -31.2434  -25.2138   20.2832 C   0  0  0  0  0  0  0  0  0  0  0  0
  -25.1962  -21.9668   25.5414 C   0  0  0  0  0  0  0  0  0  0  0  0
  -29.7444  -25.0116   20.4804 C   0  0  0  0  0  0  0  0  0  0  0  0
  -25.9502  -20.9818   24.6451 C   0  0  0  0  0  0  0  0  0  0  0  0
  -19.1841  -28.1192   23.4393 C   0  0  0  0  0  0  0  0  0  0  0  0
  -23.7209  -21.5944   25.6780 C   0  0  0  0  0  0  0  0  0  0  0  0
  -19.6096  -26.6615   23.3339 C   0  0  0  0  0  0  0  0  0  0  0  0
  -23.7618  -20.4218   23.5118 C   0  0  0  0  0  0  0  0  0  0  0  0
  -28.9373  -25.9420   19.5668 C   0  0  1  0  0  0  0  0  0  0  0  0
  -28.1776  -29.1383   21.4746 C   0  0  1  0  0  0  0  0  0  0  0  0
  -25.2376  -20.7923   23.2916 C   0  0  2  0  0  0  0  0  0  0  0  0
  -19.8795  -28.7753   22.2445 C   0  0  2  0  0  0  0  0  0  0  0  0
  -19.7149  -27.6845   21.1157 C   0  0  0  0  0  0  0  0  0  0  0  0
  -20.8170  -27.8359   20.0560 C   0  0  0  0  0  0  0  0  0  0  0  0
  -18.3285  -27.7877   20.4438 C   0  0  0  0  0  0  0  0  0  0  0  0
  -28.7571  -32.1146   28.6026 C   0  0  0  0  0  0  0  0  0  0  0  0
  -28.4141  -26.4335   25.2147 C   0  0  0  0  0  0  0  0  0  0  0  0
  -28.3463  -27.6266   27.4147 C   0  0  0  0  0  0  0  0  0  0  0  0
  -30.4083  -27.7139   26.0134 C   0  0  0  0  0  0  0  0  0  0  0  0
  -27.6048  -33.9359   25.4672 C   0  0  0  0  0  0  0  0  0  0  0  0
  -19.2992  -30.9120   23.0088 C   0  0  0  0  0  0  0  0  0  0  0  0
  -21.3338  -29.1156   22.6065 C   0  0  0  0  0  0  0  0  0  1  0  0
  -28.3633  -29.0137   25.2918 C   0  0  1  0  0  0  0  0  0  0  0  0
  -28.5973  -32.3337   27.1062 C   0  0  2  0  0  0  0  0  0  0  0  0
  -28.8649  -27.7039   25.9628 C   0  0  0  0  0  0  0  0  0  0  0  0
  -19.6013  -24.7931   20.1997 N   0  0  0  0  0  0  0  0  0  0  0  0
  -25.5778  -18.4918   22.4709 N   0  0  0  0  0  0  0  0  0  0  0  0
  -25.9536  -19.7810   22.4160 N   0  0  0  0  0  0  0  0  0  0  0  0
  -19.8051  -26.4163   21.8945 N   0  0  3  0  0  0  0  0  0  0  0  0
  -27.8081  -29.2206   22.8891 N   0  0  0  0  0  0  0  0  0  0  0  0
  -23.1108  -21.4357   24.3561 N   0  0  0  0  0  0  0  0  0  0  0  0
  -27.4729  -21.2624   21.3635 N   0  0  0  0  0  0  0  0  0  0  0  0
  -28.4945  -17.2567   19.5450 N   0  0  0  0  0  0  0  0  0  0  0  0
  -21.5204  -22.0091   22.7116 N   0  0  0  0  0  0  0  0  0  0  0  0
  -28.9175  -27.2855   20.1044 N   0  0  0  0  0  0  0  0  0  0  0  0
  -28.7979  -30.2336   25.9636 N   0  0  0  0  0  0  0  0  0  0  0  0
  -27.8174  -33.5860   26.8953 N   0  3  0  0  0  0  0  0  0  0  0  0
  -29.0387  -19.4843   19.5681 O   0  0  0  0  0  0  0  0  0  0  0  0
  -27.1301  -27.0246   21.5739 O   0  0  0  0  0  0  0  0  0  0  0  0
  -30.0258  -29.1635   23.6065 O   0  0  0  0  0  0  0  0  0  0  0  0
  -26.6738  -31.0689   26.3732 O   0  0  0  0  0  0  0  0  0  0  0  0
  -21.5125  -23.0499   24.7849 O   0  0  0  0  0  0  0  0  0  0  0  0
  -26.0342  -12.3931   20.6970 O   0  0  0  0  0  0  0  0  0  0  0  0
  -21.8201  -30.1026   21.6978 O   0  0  0  0  0  0  0  0  0  1  0  0
  -19.2486  -30.0086   21.9182 O   0  0  0  0  0  0  0  0  0  0  0  0
  -30.7321   -9.5119   20.5171 F   0  0  0  0  0  0  0  0  0  0  0  0
  -27.9796  -12.9681   18.8189 F   0  0  0  0  0  0  0  0  0  0  0  0
  1  2  1  0  0  0  0
  1  5  2  0  0  0  0
  2  6  2  0  0  0  0
  3  8  2  0  0  0  0
  3 18  1  0  0  0  0
  4  9  1  0  0  0  0
  4 18  2  0  0  0  0
  5 20  1  0  0  0  0
  6 22  1  0  0  0  0
  7 10  2  0  0  0  0
  7 21  1  0  0  0  0
  8 25  1  0  0  0  0
  9 25  2  0  0  0  0
 10 26  1  0  0  0  0
 11 12  2  0  0  0  0
 11 27  1  0  0  0  0
 12 28  1  0  0  0  0
 13 17  2  0  0  0  0
 13 24  1  0  0  0  0
 14 23  1  0  0  0  0
 14 26  2  0  0  0  0
 15 24  2  0  0  0  0
 15 31  1  0  0  0  0
 16 28  2  0  0  0  0
 16 29  1  0  0  0  0
 17 66  1  0  0  0  0
 18 30  1  0  0  0  0
 19 30  1  0  0  0  0
 19 32  2  0  0  0  0
 19 33  1  0  0  0  0
 20 22  2  0  0  0  0
 20 38  1  0  0  0  0
 21 23  2  0  0  0  0
 21 39  1  0  0  0  0
 22 49  1  0  0  0  0
 23 40  1  0  0  0  0
 24 74  1  0  0  0  0
 25 83  1  0  0  0  0
 26 84  1  0  0  0  0
 27 29  2  0  0  0  0
 27 83  1  0  0  0  0
 28 86  1  0  0  0  0
 29 87  1  0  0  0  0
 30 67  2  0  0  0  0
 31 66  2  0  0  0  0
 31 69  1  0  0  0  0
 32 68  1  0  0  0  0
 32 72  1  0  0  0  0
 33 73  1  0  0  0  0
 33 78  2  0  0  0  0
 34 50  1  0  0  0  0
 34 75  1  0  0  0  0
 34 79  2  0  0  0  0
 35 63  1  0  0  0  0
 35 70  1  0  0  0  0
 35 80  2  0  0  0  0
 36 64  1  0  0  0  0
 36 76  1  0  0  0  0
 36 81  2  0  0  0  0
 37 71  1  0  0  0  0
 37 74  1  0  0  0  0
 37 82  2  0  0  0  0
 38 41  1  0  0  0  0
 39 50  1  0  0  0  0
 40 70  1  0  0  0  0
 41 43  1  0  0  0  0
 42 44  1  0  0  0  0
 42 46  1  0  0  0  0
 43 49  1  0  0  0  0
 44 51  1  0  0  0  0
 45 47  1  0  0  0  0
 45 52  1  0  0  0  0
 46 71  1  0  0  0  0
 47 69  1  0  0  0  0
 48 51  1  0  0  0  0
 48 71  1  0  0  0  0
 49 75  1  0  0  0  0
 50 70  1  0  0  0  0
 51 68  1  0  0  0  0
 52 53  1  0  0  0  0
 52 62  1  0  0  0  0
 52 85  1  0  0  0  0
 53 54  1  0  0  0  0
 53 55  1  0  0  0  0
 53 69  1  0  0  0  0
 56 64  1  0  0  0  0
 57 65  1  0  0  0  0
 58 65  1  0  0  0  0
 59 65  1  0  0  0  0
 60 77  1  0  0  0  0
 61 85  1  0  0  0  0
 62 84  1  0  0  0  0
 63 65  1  0  0  0  0
 63 76  1  0  0  0  0
 64 77  1  0  0  0  0
 67 68  1  0  0  0  0
M  CHG  1  77   1
M  ISO  4  37 100  62 101  74 100  84 101
M  END
> <Batch ID>
0157

> <Smiles>
CNC(C)C(=O)NC(C(=O)N1Cc2cc([101O:1][101CH2:1]C3(OC)CCN(c4cc([100NH:0][100C:0](=O)N5CCCC(n6nc(-c7ccc(Oc8ccc(F)cc8F)cc7)c(C(N)=O)c6N)C5)ccn4)C3(C)C)ccc2CC1C(=O)NC1CCCc2ccccc21)C(C)(C)C

> <Shape>
0.254

> <Color>
0.050

> <Negative vol penalty>
0.000

$$$$

  -OEChem-04052303413D

 81 89  0     1  0  0  0  0  0999 V2000
  -28.3606  -30.6966   27.5374 C   0  0  0  0  0  0  0  0  0  0  0  0
  -28.3057  -29.7725   26.4989 C   0  0  0  0  0  0  0  0  0  0  0  0
  -24.6231   -8.6397   21.3883 C   0  0  0  0  0  0  0  0  0  0  0  0
  -23.1964  -10.5895   21.3794 C   0  0  0  0  0  0  0  0  0  0  0  0
  -27.1955  -31.3297   27.9680 C   0  0  0  0  0  0  0  0  0  0  0  0
  -27.0852  -29.4803   25.8910 C   0  0  0  0  0  0  0  0  0  0  0  0
  -27.4145  -29.3424   20.8395 C   0  0  0  0  0  0  0  0  0  0  0  0
  -23.8470   -8.0764   22.4012 C   0  0  0  0  0  0  0  0  0  0  0  0
  -22.4202  -10.0261   22.3923 C   0  0  0  0  0  0  0  0  0  0  0  0
  -27.9652  -28.1959   20.2684 C   0  0  0  0  0  0  0  0  0  0  0  0
  -22.0284   -5.9681   24.7385 C   0  0  0  0  0  0  0  0  0  0  0  0
  -21.6740   -4.6248   24.6130 C   0  0  0  0  0  0  0  0  0  0  0  0
  -25.7479  -27.3830   19.7767 C   0  0  0  0  0  0  0  0  0  0  0  0
  -28.4742  -18.7966   19.6425 C   0  0  0  0  0  0  0  0  0  0  0  0
  -20.5322   -5.1195   22.5421 C   0  0  0  0  0  0  0  0  0  0  0  0
  -26.3081  -18.2687   19.7180 C   0  0  0  0  0  0  0  0  0  0  0  0
  -24.2978   -9.8963   20.8774 C   0  0  0  0  0  0  0  0  0  0  0  0
  -24.9169  -10.3392   18.4427 C   0  0  0  0  0  0  0  0  0  0  0  0
  -25.9616  -31.0522   27.3587 C   0  0  0  0  0  0  0  0  0  0  0  0
  -26.0237  -29.5130   20.8934 C   0  0  0  0  0  0  0  0  0  0  0  0
  -25.9022  -30.1093   26.3148 C   0  0  0  0  0  0  0  0  0  0  0  0
  -25.1821  -28.5337   20.3467 C   0  0  0  0  0  0  0  0  0  0  0  0
  -27.5667  -17.7141   19.7319 C   0  0  0  0  0  0  0  0  0  0  0  0
  -22.7455   -8.7696   22.9032 C   0  0  0  0  0  0  0  0  0  0  0  0
  -27.1318  -27.2147   19.7395 C   0  0  0  0  0  0  0  0  0  0  0  0
  -21.6346   -6.8870   23.7658 C   0  0  0  0  0  0  0  0  0  0  0  0
  -20.9260   -4.2005   23.5148 C   0  0  0  0  0  0  0  0  0  0  0  0
  -20.8865   -6.4627   22.6676 C   0  0  0  0  0  0  0  0  0  0  0  0
  -25.0995  -10.4789   19.8315 C   0  0  0  0  0  0  0  0  0  0  0  0
  -25.9313  -11.0799   17.8868 C   0  0  0  0  0  0  0  0  0  0  0  0
  -27.7054  -19.9354   19.5801 C   0  0  0  0  0  0  0  0  0  0  0  0
  -23.9196   -9.6056   17.7196 C   0  0  0  0  0  0  0  0  0  0  0  0
  -23.8899  -29.8171   23.2297 C   0  0  0  0  0  0  0  0  0  0  0  0
  -27.7920  -23.6788   19.3305 C   0  0  0  0  0  0  0  0  0  0  0  0
  -21.8502  -30.3640   20.7673 C   0  0  0  0  0  0  0  0  0  0  0  0
  -21.1254  -29.9476   17.4586 C   0  0  0  0  0  0  0  0  0  0  0  0
  -29.1258  -15.7381   19.8364 C   0  0  0  0  0  0  0  0  0  0  0  0
  -24.7216  -31.7266   27.8901 C   0  0  0  0  0  0  0  0  0  0  0  0
  -25.4460  -30.7677   21.4888 C   0  0  0  0  0  0  0  0  0  0  0  0
  -23.6830  -28.6783   20.3614 C   0  0  0  0  0  0  0  0  0  0  0  0
  -23.5274  -31.6391   26.9433 C   0  0  0  0  0  0  0  0  0  0  0  0
  -30.3905  -12.5836   18.7749 C   0  0  0  0  0  0  0  0  0  0  0  0
  -23.3676  -30.2169   26.4155 C   0  0  0  0  0  0  0  0  0  0  0  0
  -29.1594  -11.6747   18.7931 C   0  0  0  0  0  0  0  0  0  0  0  0
  -30.3703  -13.5891   19.9248 C   0  0  0  0  0  0  0  0  0  0  0  0
  -27.9121  -13.4802   20.0468 C   0  0  0  0  0  0  0  0  0  0  0  0
  -24.6011  -29.7841   25.6138 C   0  0  1  0  0  0  0  0  0  0  0  0
  -24.0022  -30.5995   21.9518 C   0  0  1  0  0  0  0  0  0  0  0  0
  -27.8556  -12.4932   18.8693 C   0  0  2  0  0  0  0  0  0  0  0  0
  -19.3691  -30.4744   15.7452 C   0  0  0  0  0  0  0  0  0  0  0  0
  -20.0772  -28.1597   21.9106 C   0  0  0  0  0  0  0  0  0  0  0  0
  -18.8810  -28.0780   19.7127 C   0  0  0  0  0  0  0  0  0  0  0  0
  -18.8396  -30.1664   21.0763 C   0  0  0  0  0  0  0  0  0  0  0  0
  -23.0227  -31.5326   15.8317 C   0  0  0  0  0  0  0  0  0  0  0  0
  -27.0801  -22.3462   19.4294 C   0  0  0  0  0  0  0  0  0  0  0  0
  -26.8931  -24.8978   19.2589 C   0  0  0  0  0  0  0  0  0  1  0  0
  -20.9727  -29.5002   19.8939 C   0  0  1  0  0  0  0  0  0  0  0  0
  -20.6655  -30.9302   16.3967 C   0  0  2  0  0  0  0  0  0  0  0  0
  -19.7208  -28.9721   20.6497 C   0  0  0  0  0  0  0  0  0  0  0  0
  -26.1475  -11.2477   20.1391 N   0  0  0  0  0  0  0  0  0  0  0  0
  -26.6326  -11.5978   18.9357 N   0  0  0  0  0  0  0  0  0  0  0  0
  -23.1661  -29.9200   20.9602 N   0  0  0  0  0  0  0  0  0  0  0  0
  -29.1073  -14.3305   19.9315 N   0  0  0  0  0  0  0  0  0  0  0  0
  -26.2828  -11.3322   16.6081 N   0  0  0  0  0  0  0  0  0  0  0  0
  -22.9514   -8.8996   18.4466 N   0  0  0  0  0  0  0  0  0  0  0  0
  -27.8640  -16.3315   19.8195 N   0  0  0  0  0  0  0  0  0  0  0  0
  -28.0444  -21.2774   19.4834 N   0  0  0  0  0  0  0  0  0  0  0  0
  -24.5769  -30.3730   24.2920 N   0  0  0  0  0  0  0  0  0  0  0  0
  -20.6648  -30.2961   18.7106 N   0  0  0  0  0  0  0  0  0  0  0  0
  -21.7020  -31.0680   15.3348 N   0  3  0  0  0  0  0  0  0  0  0  0
  -23.8977   -9.5636   16.4661 O   0  0  0  0  0  0  0  0  0  0  0  0
  -23.2276  -28.7862   23.2507 O   0  0  0  0  0  0  0  0  0  0  0  0
  -29.0181  -23.7780   19.3085 O   0  0  0  0  0  0  0  0  0  0  0  0
  -21.3874  -31.3985   21.2545 O   0  0  0  0  0  0  0  0  0  0  0  0
  -21.8203  -28.9668   17.2023 O   0  0  0  0  0  0  0  0  0  0  0  0
  -30.1824  -16.3687   19.7471 O   0  0  0  0  0  0  0  0  0  0  0  0
  -26.3839  -19.6223   19.6255 O   0  0  0  0  0  0  0  0  0  0  0  0
  -21.9878   -8.2201   23.8913 O   0  0  0  0  0  0  0  0  0  0  0  0
  -27.6668  -26.0944   19.1821 O   0  0  0  0  0  0  0  0  0  1  0  0
  -20.5871   -2.9103   23.3937 F   0  0  0  0  0  0  0  0  0  0  0  0
  -20.5063   -7.3407   21.7293 F   0  0  0  0  0  0  0  0  0  0  0  0
  1  2  1  0  0  0  0
  1  5  2  0  0  0  0
  2  6  2  0  0  0  0
  3  8  2  0  0  0  0
  3 17  1  0  0  0  0
  4  9  1  0  0  0  0
  4 17  2  0  0  0  0
  5 19  1  0  0  0  0
  6 21  1  0  0  0  0
  7 10  2  0  0  0  0
  7 20  1  0  0  0  0
  8 24  1  0  0  0  0
  9 24  2  0  0  0  0
 10 25  1  0  0  0  0
 11 12  2  0  0  0  0
 11 26  1  0  0  0  0
 12 27  1  0  0  0  0
 13 22  1  0  0  0  0
 13 25  2  0  0  0  0
 14 23  1  0  0  0  0
 14 31  2  0  0  0  0
 15 27  2  0  0  0  0
 15 28  1  0  0  0  0
 16 23  2  0  0  0  0
 16 77  1  0  0  0  0
 17 29  1  0  0  0  0
 18 29  1  0  0  0  0
 18 30  2  0  0  0  0
 18 32  1  0  0  0  0
 19 21  2  0  0  0  0
 19 38  1  0  0  0  0
 20 22  2  0  0  0  0
 20 39  1  0  0  0  0
 21 47  1  0  0  0  0
 22 40  1  0  0  0  0
 23 66  1  0  0  0  0
 24 78  1  0  0  0  0
 25 79  1  0  0  0  0
 26 28  2  0  0  0  0
 26 78  1  0  0  0  0
 27 80  1  0  0  0  0
 28 81  1  0  0  0  0
 29 60  2  0  0  0  0
 30 61  1  0  0  0  0
 30 64  1  0  0  0  0
 31 67  1  0  0  0  0
 31 77  1  0  0  0  0
 32 65  1  0  0  0  0
 32 71  2  0  0  0  0
 33 48  1  0  0  0  0
 33 68  1  0  0  0  0
 33 72  2  0  0  0  0
 34 55  1  0  0  0  0
 34 56  1  0  0  0  0
 34 73  2  0  0  0  0
 35 57  1  0  0  0  0
 35 62  1  0  0  0  0
 35 74  2  0  0  0  0
 36 58  1  0  0  0  0
 36 69  1  0  0  0  0
 36 75  2  0  0  0  0
 37 63  1  0  0  0  0
 37 66  1  0  0  0  0
 37 76  2  0  0  0  0
 38 41  1  0  0  0  0
 39 48  1  0  0  0  0
 40 62  1  0  0  0  0
 41 43  1  0  0  0  0
 42 44  1  0  0  0  0
 42 45  1  0  0  0  0
 43 47  1  0  0  0  0
 44 49  1  0  0  0  0
 45 63  1  0  0  0  0
 46 49  1  0  0  0  0
 46 63  1  0  0  0  0
 47 68  1  0  0  0  0
 48 62  1  0  0  0  0
 49 61  1  0  0  0  0
 50 58  1  0  0  0  0
 51 59  1  0  0  0  0
 52 59  1  0  0  0  0
 53 59  1  0  0  0  0
 54 70  1  0  0  0  0
 55 67  1  0  0  0  0
 56 79  1  0  0  0  0
 57 59  1  0  0  0  0
 57 69  1  0  0  0  0
 58 70  1  0  0  0  0
 60 61  1  0  0  0  0
M  CHG  1  70   1
M  ISO  4  37 100  56 101  66 100  79 101
M  END
> <Batch ID>
0157

> <Smiles>
CNC(C)C(=O)NC(C(=O)N1Cc2cc([101O:1][101CH2:1]C(=O)CNc3cc([100NH:0][100C:0](=O)N4CCCC(n5nc(-c6ccc(Oc7ccc(F)cc7F)cc6)c(C(N)=O)c5N)C4)co3)ccc2CC1C(=O)NC1CCCc2ccccc21)C(C)(C)C

> <Shape>
0.283

> <Color>
0.121

> <Negative vol penalty>
0.000

$$$$

  -OEChem-04052303413D

 82 91  0     1  0  0  0  0  0999 V2000
  -26.7467  -33.0996   25.8844 C   0  0  0  0  0  0  0  0  0  0  0  0
  -27.5173  -31.9423   25.8371 C   0  0  0  0  0  0  0  0  0  0  0  0
  -22.6696  -10.1975   20.1668 C   0  0  0  0  0  0  0  0  0  0  0  0
  -24.3188   -9.4209   21.7524 C   0  0  0  0  0  0  0  0  0  0  0  0
  -25.5031  -33.1339   25.2548 C   0  0  0  0  0  0  0  0  0  0  0  0
  -27.0443  -30.8182   25.1611 C   0  0  0  0  0  0  0  0  0  0  0  0
  -30.3646  -26.7475   22.0129 C   0  0  0  0  0  0  0  0  0  0  0  0
  -21.9342   -9.0279   20.3589 C   0  0  0  0  0  0  0  0  0  0  0  0
  -23.5834   -8.2513   21.9445 C   0  0  0  0  0  0  0  0  0  0  0  0
  -30.8626  -25.4877   22.3424 C   0  0  0  0  0  0  0  0  0  0  0  0
  -20.8324   -7.2941   23.6580 C   0  0  0  0  0  0  0  0  0  0  0  0
  -20.6451   -6.8561   24.9690 C   0  0  0  0  0  0  0  0  0  0  0  0
  -28.9467  -24.4630   21.2943 C   0  0  0  0  0  0  0  0  0  0  0  0
  -31.8335  -17.4603   21.8729 C   0  0  0  0  0  0  0  0  0  0  0  0
  -21.7684   -4.7843   24.4374 C   0  0  0  0  0  0  0  0  0  0  0  0
  -23.8620  -10.3939   20.8635 C   0  0  0  0  0  0  0  0  0  0  0  0
  -24.1966  -12.9226   20.9004 C   0  0  0  0  0  0  0  0  0  0  0  0
  -25.0189  -32.0127   24.5626 C   0  0  0  0  0  0  0  0  0  0  0  0
  -29.1465  -26.8751   21.3300 C   0  0  0  0  0  0  0  0  0  0  0  0
  -25.7925  -30.8370   24.5228 C   0  0  0  0  0  0  0  0  0  0  0  0
  -28.4367  -25.7255   20.9551 C   0  0  0  0  0  0  0  0  0  0  0  0
  -31.9536  -18.6850   22.6095 C   0  0  0  0  0  0  0  0  0  0  0  0
  -22.3910   -8.0549   21.2478 C   0  0  0  0  0  0  0  0  0  0  0  0
  -30.1522  -24.3452   21.9857 C   0  0  0  0  0  0  0  0  0  0  0  0
  -21.4876   -6.4771   22.7367 C   0  0  0  0  0  0  0  0  0  0  0  0
  -21.1131   -5.6013   25.3587 C   0  0  0  0  0  0  0  0  0  0  0  0
  -21.9557   -5.2222   23.1264 C   0  0  0  0  0  0  0  0  0  0  0  0
  -24.6224  -11.6016   20.6650 C   0  0  0  0  0  0  0  0  0  0  0  0
  -30.8148  -18.9241   23.3659 C   0  0  0  0  0  0  0  0  0  0  0  0
  -25.2781  -13.6978   20.5597 C   0  0  0  0  0  0  0  0  0  0  0  0
  -30.6312  -16.8265   22.0835 C   0  0  0  0  0  0  0  0  0  0  0  0
  -32.2018  -21.6160   23.2536 C   0  0  0  0  0  0  0  0  0  0  0  0
  -22.9362  -13.4058   21.3838 C   0  0  0  0  0  0  0  0  0  0  0  0
  -26.3350  -28.2044   21.9875 C   0  0  0  0  0  0  0  0  0  0  0  0
  -25.6806  -27.4140   18.9102 C   0  0  0  0  0  0  0  0  0  0  0  0
  -26.3527  -25.4158   16.2266 C   0  0  0  0  0  0  0  0  0  0  0  0
  -30.7453  -14.7474   20.6656 C   0  0  0  0  0  0  0  0  0  0  0  0
  -23.6479  -32.0818   23.9377 C   0  0  0  0  0  0  0  0  0  0  0  0
  -28.6362  -28.2404   20.9584 C   0  0  0  0  0  0  0  0  0  0  0  0
  -33.1708  -19.5611   22.5721 C   0  0  0  0  0  0  0  0  0  0  0  0
  -27.1341  -25.8076   20.2034 C   0  0  0  0  0  0  0  0  0  0  0  0
  -30.4966  -20.0889   24.2638 C   0  0  0  0  0  0  0  0  0  0  0  0
  -31.6941  -20.9934   24.5407 C   0  0  0  0  0  0  0  0  0  0  0  0
  -23.3838  -30.9710   22.9245 C   0  0  0  0  0  0  0  0  0  0  0  0
  -29.5754  -12.4900   18.1731 C   0  0  0  0  0  0  0  0  0  0  0  0
  -23.8194  -29.6214   23.4862 C   0  0  0  0  0  0  0  0  0  0  0  0
  -28.1475  -12.1663   18.6185 C   0  0  0  0  0  0  0  0  0  0  0  0
  -30.5201  -12.6427   19.3638 C   0  0  0  0  0  0  0  0  0  0  0  0
  -28.6474  -13.2691   20.8369 C   0  0  0  0  0  0  0  0  0  0  0  0
  -25.3246  -29.6053   23.7784 C   0  0  1  0  0  0  0  0  0  0  0  0
  -27.1305  -28.2696   20.7145 C   0  0  1  0  0  0  0  0  0  0  0  0
  -27.6455  -13.1701   19.6749 C   0  0  2  0  0  0  0  0  0  0  0  0
  -25.6288  -24.9819   13.8633 C   0  0  0  0  0  0  0  0  0  0  0  0
  -23.1884  -25.9853   19.9385 C   0  0  0  0  0  0  0  0  0  0  0  0
  -23.0421  -24.8037   17.7361 C   0  0  0  0  0  0  0  0  0  0  0  0
  -22.8489  -27.2889   17.8314 C   0  0  0  0  0  0  0  0  0  0  0  0
  -29.0347  -26.0727   15.1616 C   0  0  0  0  0  0  0  0  0  0  0  0
  -31.8767  -23.0670   23.0094 C   0  0  0  0  0  0  0  0  0  1  0  0
  -25.1002  -26.2050   18.2172 C   0  0  1  0  0  0  0  0  0  0  0  0
  -26.5914  -25.7412   14.7631 C   0  0  2  0  0  0  0  0  0  0  0  0
  -23.5684  -26.0689   18.4467 C   0  0  0  0  0  0  0  0  0  0  0  0
  -25.8765  -11.5374   20.2099 N   0  0  0  0  0  0  0  0  0  0  0  0
  -32.8511  -20.9717   22.3435 N   0  0  0  0  0  0  0  0  0  0  0  0
  -26.2480  -12.8278   20.1564 N   0  0  0  0  0  0  0  0  0  0  0  0
  -26.6735  -27.1653   19.8684 N   0  0  0  0  0  0  0  0  0  0  0  0
  -29.9818  -13.6121   20.3205 N   0  0  0  0  0  0  0  0  0  0  0  0
  -25.4844  -15.0319   20.5687 N   0  0  0  0  0  0  0  0  0  0  0  0
  -22.7652  -13.5590   22.7664 N   0  0  0  0  0  0  0  0  0  0  0  0
  -30.1173  -15.6148   21.5588 N   0  0  0  0  0  0  0  0  0  0  0  0
  -26.0757  -29.4384   22.5527 N   0  0  0  0  0  0  0  0  0  0  0  0
  -25.4870  -26.3135   16.8147 N   0  0  0  0  0  0  0  0  0  0  0  0
  -27.9836  -25.3802   14.3726 N   0  3  0  0  0  0  0  0  0  0  0  0
  -21.9842  -13.6777   20.6136 O   0  0  0  0  0  0  0  0  0  0  0  0
  -25.9812  -27.1153   22.4238 O   0  0  0  0  0  0  0  0  0  0  0  0
  -25.2733  -28.5383   18.6073 O   0  0  0  0  0  0  0  0  0  0  0  0
  -26.8785  -24.4587   16.7905 O   0  0  0  0  0  0  0  0  0  0  0  0
  -31.8620  -14.9500   20.1819 O   0  0  0  0  0  0  0  0  0  0  0  0
  -21.6735   -6.9136   21.4357 O   0  0  0  0  0  0  0  0  0  0  0  0
  -30.6356  -23.1143   22.3066 O   0  0  0  0  0  0  0  0  0  1  0  0
  -20.9345   -5.1815   26.6181 F   0  0  0  0  0  0  0  0  0  0  0  0
  -22.5870   -4.4334   22.2460 F   0  0  0  0  0  0  0  0  0  0  0  0
  -29.6378  -17.6915   23.1664 S   0  0  0  0  0  0  0  0  0  0  0  0
  1  2  1  0  0  0  0
  1  5  2  0  0  0  0
  2  6  2  0  0  0  0
  3  8  2  0  0  0  0
  3 16  1  0  0  0  0
  4  9  1  0  0  0  0
  4 16  2  0  0  0  0
  5 18  1  0  0  0  0
  6 20  1  0  0  0  0
  7 10  2  0  0  0  0
  7 19  1  0  0  0  0
  8 23  1  0  0  0  0
  9 23  2  0  0  0  0
 10 24  1  0  0  0  0
 11 12  2  0  0  0  0
 11 25  1  0  0  0  0
 12 26  1  0  0  0  0
 13 21  1  0  0  0  0
 13 24  2  0  0  0  0
 14 22  1  0  0  0  0
 14 31  2  0  0  0  0
 15 26  2  0  0  0  0
 15 27  1  0  0  0  0
 16 28  1  0  0  0  0
 17 28  1  0  0  0  0
 17 30  2  0  0  0  0
 17 33  1  0  0  0  0
 18 20  2  0  0  0  0
 18 38  1  0  0  0  0
 19 21  2  0  0  0  0
 19 39  1  0  0  0  0
 20 50  1  0  0  0  0
 21 41  1  0  0  0  0
 22 29  2  0  0  0  0
 22 40  1  0  0  0  0
 23 78  1  0  0  0  0
 24 79  1  0  0  0  0
 25 27  2  0  0  0  0
 25 78  1  0  0  0  0
 26 80  1  0  0  0  0
 27 81  1  0  0  0  0
 28 62  2  0  0  0  0
 29 42  1  0  0  0  0
 29 82  1  0  0  0  0
 30 64  1  0  0  0  0
 30 67  1  0  0  0  0
 31 69  1  0  0  0  0
 31 82  1  0  0  0  0
 32 43  1  0  0  0  0
 32 58  1  0  0  0  0
 32 63  2  0  0  0  0
 33 68  1  0  0  0  0
 33 73  2  0  0  0  0
 34 51  1  0  0  0  0
 34 70  1  0  0  0  0
 34 74  2  0  0  0  0
 35 59  1  0  0  0  0
 35 65  1  0  0  0  0
 35 75  2  0  0  0  0
 36 60  1  0  0  0  0
 36 71  1  0  0  0  0
 36 76  2  0  0  0  0
 37 66  1  0  0  0  0
 37 69  1  0  0  0  0
 37 77  2  0  0  0  0
 38 44  1  0  0  0  0
 39 51  1  0  0  0  0
 40 63  1  0  0  0  0
 41 65  1  0  0  0  0
 42 43  1  0  0  0  0
 44 46  1  0  0  0  0
 45 47  1  0  0  0  0
 45 48  1  0  0  0  0
 46 50  1  0  0  0  0
 47 52  1  0  0  0  0
 48 66  1  0  0  0  0
 49 52  1  0  0  0  0
 49 66  1  0  0  0  0
 50 70  1  0  0  0  0
 51 65  1  0  0  0  0
 52 64  1  0  0  0  0
 53 60  1  0  0  0  0
 54 61  1  0  0  0  0
 55 61  1  0  0  0  0
 56 61  1  0  0  0  0
 57 72  1  0  0  0  0
 58 79  1  0  0  0  0
 59 61  1  0  0  0  0
 59 71  1  0  0  0  0
 60 72  1  0  0  0  0
 62 64  1  0  0  0  0
M  CHG  1  72   1
M  ISO  4  37 100  58 101  69 100  79 101
M  END
> <Batch ID>
0157

> <Smiles>
CNC(C)C(=O)NC(C(=O)N1Cc2cc([101O:1][101CH2:1]C3=NCc4cc([100NH:0][100C:0](=O)N5CCCC(n6nc(-c7ccc(Oc8ccc(F)cc8F)cc7)c(C(N)=O)c6N)C5)sc4CC3)ccc2CC1C(=O)NC1CCCc2ccccc21)C(C)(C)C

> <Shape>
0.327

> <Color>
0.179

> <Negative vol penalty>
0.000

$$$$

  -OEChem-04052303413D

 82 90  0     1  0  0  0  0  0999 V2000
  -22.0892  -20.1024   36.7211 C   0  0  0  0  0  0  0  0  0  0  0  0
  -22.9218  -19.8261   35.6414 C   0  0  0  0  0  0  0  0  0  0  0  0
  -23.1899   -9.8191   19.9324 C   0  0  0  0  0  0  0  0  0  0  0  0
  -23.5680   -9.9995   22.3118 C   0  0  0  0  0  0  0  0  0  0  0  0
  -21.1311  -19.1703   37.1175 C   0  0  0  0  0  0  0  0  0  0  0  0
  -22.7976  -18.6169   34.9582 C   0  0  0  0  0  0  0  0  0  0  0  0
  -22.9051  -19.2069   29.9297 C   0  0  0  0  0  0  0  0  0  0  0  0
  -22.4236   -8.6725   20.1410 C   0  0  0  0  0  0  0  0  0  0  0  0
  -22.8015   -8.8529   22.5205 C   0  0  0  0  0  0  0  0  0  0  0  0
  -24.1520  -19.4046   29.3383 C   0  0  0  0  0  0  0  0  0  0  0  0
  -23.2024   -5.5062   22.2565 C   0  0  0  0  0  0  0  0  0  0  0  0
  -23.7006   -4.5448   23.1358 C   0  0  0  0  0  0  0  0  0  0  0  0
  -32.6336  -15.3711   24.0402 C   0  0  0  0  0  0  0  0  0  0  0  0
  -32.1599  -16.5892   24.5835 C   0  0  0  0  0  0  0  0  0  0  0  0
  -24.2093  -17.0802   28.6958 C   0  0  0  0  0  0  0  0  0  0  0  0
  -21.7439   -4.8050   24.5289 C   0  0  0  0  0  0  0  0  0  0  0  0
  -23.7622  -10.4826   21.0177 C   0  0  0  0  0  0  0  0  0  0  0  0
  -24.1012  -12.9992   20.7740 C   0  0  0  0  0  0  0  0  0  0  0  0
  -20.9886  -17.9531   36.4327 C   0  0  0  0  0  0  0  0  0  0  0  0
  -22.3048  -17.9396   29.9181 C   0  0  0  0  0  0  0  0  0  0  0  0
  -21.8377  -17.6670   35.3466 C   0  0  0  0  0  0  0  0  0  0  0  0
  -22.9535  -16.8695   29.2855 C   0  0  0  0  0  0  0  0  0  0  0  0
  -22.2293   -8.1894   21.4351 C   0  0  0  0  0  0  0  0  0  0  0  0
  -24.8056  -18.3406   28.7238 C   0  0  0  0  0  0  0  0  0  0  0  0
  -21.9749   -6.1171   22.5134 C   0  0  0  0  0  0  0  0  0  0  0  0
  -22.9713   -4.1942   24.2720 C   0  0  0  0  0  0  0  0  0  0  0  0
  -21.2457   -5.7664   23.6496 C   0  0  0  0  0  0  0  0  0  0  0  0
  -24.5545  -11.6667   20.8028 C   0  0  0  0  0  0  0  0  0  0  0  0
  -31.6569  -14.4357   24.2908 C   0  0  0  0  0  0  0  0  0  0  0  0
  -25.2324  -13.7418   20.5388 C   0  0  0  0  0  0  0  0  0  0  0  0
  -30.9272  -16.3113   25.1270 C   0  0  0  0  0  0  0  0  0  0  0  0
  -22.7760  -13.5192   20.9446 C   0  0  0  0  0  0  0  0  0  0  0  0
  -21.4004  -15.8654   32.1504 C   0  0  0  0  0  0  0  0  0  0  0  0
  -27.9908  -17.7613   26.9591 C   0  0  0  0  0  0  0  0  0  0  0  0
  -20.1745  -14.2619   29.6111 C   0  0  0  0  0  0  0  0  0  0  0  0
  -20.2566  -13.6550   26.2537 C   0  0  0  0  0  0  0  0  0  0  0  0
  -31.0470  -12.7514   21.5687 C   0  0  0  0  0  0  0  0  0  0  0  0
  -19.9703  -16.9567   36.9276 C   0  0  0  0  0  0  0  0  0  0  0  0
  -20.9472  -17.7488   30.5370 C   0  0  0  0  0  0  0  0  0  0  0  0
  -22.3425  -15.4941   29.2279 C   0  0  0  0  0  0  0  0  0  0  0  0
  -19.6517  -15.8583   35.9165 C   0  0  0  0  0  0  0  0  0  0  0  0
  -29.5200  -13.4688   18.4334 C   0  0  0  0  0  0  0  0  0  0  0  0
  -20.9366  -15.2936   35.3190 C   0  0  0  0  0  0  0  0  0  0  0  0
  -28.0334  -13.2085   18.6825 C   0  0  0  0  0  0  0  0  0  0  0  0
  -30.4012  -12.4793   19.1927 C   0  0  0  0  0  0  0  0  0  0  0  0
  -28.6474  -12.1368   20.8900 C   0  0  0  0  0  0  0  0  0  0  0  0
  -21.7169  -16.3770   34.5647 C   0  0  1  0  0  0  0  0  0  0  0  0
  -20.6617  -16.2989   30.9159 C   0  0  1  0  0  0  0  0  0  0  0  0
  -27.7201  -13.1446   20.1895 C   0  0  2  0  0  0  0  0  0  0  0  0
  -19.1584  -12.2660   24.4756 C   0  0  0  0  0  0  0  0  0  0  0  0
  -21.7331  -11.8171   30.5616 C   0  0  0  0  0  0  0  0  0  0  0  0
  -21.3767  -10.7982   28.3026 C   0  0  0  0  0  0  0  0  0  0  0  0
  -19.4176  -11.3284   29.7528 C   0  0  0  0  0  0  0  0  0  0  0  0
  -19.3126  -16.0537   24.7999 C   0  0  0  0  0  0  0  0  0  0  0  0
  -31.5369  -13.0025   23.9886 C   0  0  0  0  0  0  0  0  0  0  0  0
  -28.7448  -16.6296   26.2937 C   0  0  0  0  0  0  0  0  0  0  0  0
  -26.6360  -17.3966   27.5345 C   0  0  0  0  0  0  0  0  0  1  0  0
  -20.6941  -13.2149   28.6557 C   0  0  1  0  0  0  0  0  0  0  0  0
  -19.1526  -13.5957   25.2135 C   0  0  2  0  0  0  0  0  0  0  0  0
  -20.8180  -11.8150   29.3208 C   0  0  0  0  0  0  0  0  0  0  0  0
  -25.8711  -11.5655   20.6018 N   0  0  0  0  0  0  0  0  0  0  0  0
  -26.2547  -12.8439   20.4444 N   0  0  0  0  0  0  0  0  0  0  0  0
  -21.0166  -15.3565   29.8529 N   0  0  0  0  0  0  0  0  0  0  0  0
  -30.0545  -12.4683   20.6159 N   0  0  0  0  0  0  0  0  0  0  0  0
  -25.4425  -15.0686   20.4056 N   0  0  0  0  0  0  0  0  0  0  0  0
  -21.7292  -12.6171   21.1786 N   0  0  0  0  0  0  0  0  0  0  0  0
  -30.0049  -17.1102   25.7876 N   0  0  0  0  0  0  0  0  0  0  0  0
  -21.1174  -16.6232   33.2707 N   0  0  0  0  0  0  0  0  0  0  0  0
  -19.8121  -13.2486   27.4941 N   0  0  0  0  0  0  0  0  0  0  0  0
  -30.6326  -12.7260   22.8947 N   0  0  0  0  0  0  0  0  0  0  0  0
  -19.3229  -14.6884   24.2145 N   0  3  0  0  0  0  0  0  0  0  0  0
  -22.5249  -14.7463   20.8749 O   0  0  0  0  0  0  0  0  0  0  0  0
  -22.1691  -14.9128   32.0913 O   0  0  0  0  0  0  0  0  0  0  0  0
  -28.4376  -18.9052   27.0337 O   0  0  0  0  0  0  0  0  0  0  0  0
  -19.0594  -14.1175   30.1184 O   0  0  0  0  0  0  0  0  0  0  0  0
  -21.4001  -14.0214   25.9913 O   0  0  0  0  0  0  0  0  0  0  0  0
  -32.2147  -13.0129   21.2602 O   0  0  0  0  0  0  0  0  0  0  0  0
  -30.6133  -15.0007   24.9528 O   0  0  0  0  0  0  0  0  0  0  0  0
  -21.4813   -7.0707   21.6391 O   0  0  0  0  0  0  0  0  0  0  0  0
  -26.0231  -18.5307   28.1464 O   0  0  0  0  0  0  0  0  0  1  0  0
  -23.4491   -3.2699   25.1155 F   0  0  0  0  0  0  0  0  0  0  0  0
  -20.0653   -6.3490   23.9011 F   0  0  0  0  0  0  0  0  0  0  0  0
  1  2  1  0  0  0  0
  1  5  2  0  0  0  0
  2  6  2  0  0  0  0
  3  8  2  0  0  0  0
  3 17  1  0  0  0  0
  4  9  1  0  0  0  0
  4 17  2  0  0  0  0
  5 19  1  0  0  0  0
  6 21  1  0  0  0  0
  7 10  2  0  0  0  0
  7 20  1  0  0  0  0
  8 23  1  0  0  0  0
  9 23  2  0  0  0  0
 10 24  1  0  0  0  0
 11 12  2  0  0  0  0
 11 25  1  0  0  0  0
 12 26  1  0  0  0  0
 13 14  1  0  0  0  0
 13 29  2  0  0  0  0
 14 31  2  0  0  0  0
 15 22  1  0  0  0  0
 15 24  2  0  0  0  0
 16 26  2  0  0  0  0
 16 27  1  0  0  0  0
 17 28  1  0  0  0  0
 18 28  1  0  0  0  0
 18 30  2  0  0  0  0
 18 32  1  0  0  0  0
 19 21  2  0  0  0  0
 19 38  1  0  0  0  0
 20 22  2  0  0  0  0
 20 39  1  0  0  0  0
 21 47  1  0  0  0  0
 22 40  1  0  0  0  0
 23 79  1  0  0  0  0
 24 80  1  0  0  0  0
 25 27  2  0  0  0  0
 25 79  1  0  0  0  0
 26 81  1  0  0  0  0
 27 82  1  0  0  0  0
 28 61  2  0  0  0  0
 29 55  1  0  0  0  0
 29 78  1  0  0  0  0
 30 62  1  0  0  0  0
 30 65  1  0  0  0  0
 31 67  1  0  0  0  0
 31 78  1  0  0  0  0
 32 66  1  0  0  0  0
 32 72  2  0  0  0  0
 33 48  1  0  0  0  0
 33 68  1  0  0  0  0
 33 73  2  0  0  0  0
 34 56  1  0  0  0  0
 34 57  1  0  0  0  0
 34 74  2  0  0  0  0
 35 58  1  0  0  0  0
 35 63  1  0  0  0  0
 35 75  2  0  0  0  0
 36 59  1  0  0  0  0
 36 69  1  0  0  0  0
 36 76  2  0  0  0  0
 37 64  1  0  0  0  0
 37 70  1  0  0  0  0
 37 77  2  0  0  0  0
 38 41  1  0  0  0  0
 39 48  1  0  0  0  0
 40 63  1  0  0  0  0
 41 43  1  0  0  0  0
 42 44  1  0  0  0  0
 42 45  1  0  0  0  0
 43 47  1  0  0  0  0
 44 49  1  0  0  0  0
 45 64  1  0  0  0  0
 46 49  1  0  0  0  0
 46 64  1  0  0  0  0
 47 68  1  0  0  0  0
 48 63  1  0  0  0  0
 49 62  1  0  0  0  0
 50 59  1  0  0  0  0
 51 60  1  0  0  0  0
 52 60  1  0  0  0  0
 53 60  1  0  0  0  0
 54 71  1  0  0  0  0
 55 70  1  0  0  0  0
 56 67  1  0  0  0  0
 57 80  1  0  0  0  0
 58 60  1  0  0  0  0
 58 69  1  0  0  0  0
 59 71  1  0  0  0  0
 61 62  1  0  0  0  0
M  CHG  1  71   1
M  ISO  4  37 100  57 101  70 100  80 101
M  END
> <Batch ID>
0157

> <Smiles>
CNC(C)C(=O)NC(C(=O)N1Cc2cc([101O:1][101CH2:1]C(=O)CNc3ccc(C[100NH:0][100C:0](=O)N4CCCC(n5nc(-c6ccc(Oc7ccc(F)cc7F)cc6)c(C(N)=O)c5N)C4)o3)ccc2CC1C(=O)NC1CCCc2ccccc21)C(C)(C)C

> <Shape>
0.143

> <Color>
0.178

> <Negative vol penalty>
0.000

$$$$

  -OEChem-04052303413D

 83 91  0     1  0  0  0  0  0999 V2000
  -26.3611  -24.2121   16.9638 C   0  0  0  0  0  0  0  0  0  0  0  0
  -25.2414  -24.7359   17.6021 C   0  0  0  0  0  0  0  0  0  0  0  0
  -28.2554  -15.8555   22.1542 C   0  0  0  0  0  0  0  0  0  0  0  0
  -26.3329  -16.3128   20.7644 C   0  0  0  0  0  0  0  0  0  0  0  0
  -27.6273  -24.3944   17.5183 C   0  0  0  0  0  0  0  0  0  0  0  0
  -25.3872  -25.4414   18.7960 C   0  0  0  0  0  0  0  0  0  0  0  0
  -22.6456  -29.6983   18.8841 C   0  0  0  0  0  0  0  0  0  0  0  0
  -28.2405  -14.5246   21.7370 C   0  0  0  0  0  0  0  0  0  0  0  0
  -26.3179  -14.9819   20.3471 C   0  0  0  0  0  0  0  0  0  0  0  0
  -21.2800  -29.5711   19.1344 C   0  0  0  0  0  0  0  0  0  0  0  0
  -28.0034  -13.0423   18.1522 C   0  0  0  0  0  0  0  0  0  0  0  0
  -27.8311  -12.7935   16.7906 C   0  0  0  0  0  0  0  0  0  0  0  0
  -20.9363  -25.7737   23.2992 C   0  0  0  0  0  0  0  0  0  0  0  0
  -21.5414  -24.9369   24.2670 C   0  0  0  0  0  0  0  0  0  0  0  0
  -21.6491  -30.1994   21.4340 C   0  0  0  0  0  0  0  0  0  0  0  0
  -25.8220  -11.5415   17.2736 C   0  0  0  0  0  0  0  0  0  0  0  0
  -27.3016  -16.7496   21.6679 C   0  0  0  0  0  0  0  0  0  0  0  0
  -28.0045  -19.1961   21.4993 C   0  0  0  0  0  0  0  0  0  0  0  0
  -27.7896  -25.1108   18.7146 C   0  0  0  0  0  0  0  0  0  0  0  0
  -23.5262  -30.0671   19.9113 C   0  0  0  0  0  0  0  0  0  0  0  0
  -26.6566  -25.6323   19.3678 C   0  0  0  0  0  0  0  0  0  0  0  0
  -23.0251  -30.3331   21.1936 C   0  0  0  0  0  0  0  0  0  0  0  0
  -27.2717  -14.0878   20.8335 C   0  0  0  0  0  0  0  0  0  0  0  0
  -20.7819  -29.8188   20.4102 C   0  0  0  0  0  0  0  0  0  0  0  0
  -27.0850  -12.5407   19.0745 C   0  0  0  0  0  0  0  0  0  0  0  0
  -26.7405  -12.0431   16.3513 C   0  0  0  0  0  0  0  0  0  0  0  0
  -25.9943  -11.7903   18.6352 C   0  0  0  0  0  0  0  0  0  0  0  0
  -27.3162  -18.1244   22.0990 C   0  0  0  0  0  0  0  0  0  0  0  0
  -21.3209  -25.2809   22.0739 C   0  0  0  0  0  0  0  0  0  0  0  0
  -27.6965  -20.2825   22.2812 C   0  0  0  0  0  0  0  0  0  0  0  0
  -22.2525  -23.9922   23.5642 C   0  0  0  0  0  0  0  0  0  0  0  0
  -28.8467  -19.2084   20.3390 C   0  0  0  0  0  0  0  0  0  0  0  0
  -20.9217  -25.8474   20.7701 C   0  0  0  0  0  0  0  0  0  0  0  0
  -26.0092  -28.6894   21.3397 C   0  0  0  0  0  0  0  0  0  0  0  0
  -26.2627  -31.5686   22.8120 C   0  0  0  0  0  0  0  0  0  0  0  0
  -24.7386  -34.4499   23.8230 C   0  0  0  0  0  0  0  0  0  0  0  0
  -23.3164  -22.5195   25.3094 C   0  0  0  0  0  0  0  0  0  0  0  0
  -29.1732  -25.2414   19.3005 C   0  0  0  0  0  0  0  0  0  0  0  0
  -24.9930  -30.2260   19.6186 C   0  0  0  0  0  0  0  0  0  0  0  0
  -23.9257  -30.7517   22.3259 C   0  0  0  0  0  0  0  0  0  0  0  0
  -29.2812  -26.3228   20.3725 C   0  0  0  0  0  0  0  0  0  0  0  0
  -26.0503  -20.8920   26.9074 C   0  0  0  0  0  0  0  0  0  0  0  0
  -28.1215  -26.2155   21.3577 C   0  0  0  0  0  0  0  0  0  0  0  0
  -26.7240  -20.1166   25.7729 C   0  0  0  0  0  0  0  0  0  0  0  0
  -24.5300  -20.9071   26.7593 C   0  0  0  0  0  0  0  0  0  0  0  0
  -24.7113  -20.5974   24.3220 C   0  0  0  0  0  0  0  0  0  0  0  0
  -26.7765  -26.4248   20.6514 C   0  0  1  0  0  0  0  0  0  0  0  0
  -25.8670  -30.1073   20.8633 C   0  0  1  0  0  0  0  0  0  0  0  0
  -26.2471  -20.6095   24.3926 C   0  0  2  0  0  0  0  0  0  0  0  0
  -25.1947  -36.5988   25.0361 C   0  0  0  0  0  0  0  0  0  0  0  0
  -26.2321  -30.0715   25.4705 C   0  0  0  0  0  0  0  0  0  0  0  0
  -25.7329  -32.2447   26.6090 C   0  0  0  0  0  0  0  0  0  0  0  0
  -27.8699  -31.9579   25.3544 C   0  0  0  0  0  0  0  0  0  0  0  0
  -18.2153  -29.4535   18.6268 C   0  0  0  0  0  0  0  0  0  0  0  0
  -17.5513  -28.2396   20.7161 C   0  0  0  0  0  0  0  0  0  0  0  0
  -24.0374  -36.0735   21.4499 C   0  0  0  0  0  0  0  0  0  0  0  0
  -19.6607  -27.5727   19.5331 C   0  0  0  0  0  0  0  0  0  0  0  0
  -25.7008  -32.1772   24.0741 C   0  0  1  0  0  0  0  0  0  0  0  0
  -25.1435  -35.9063   23.6831 C   0  0  2  0  0  0  0  0  0  0  0  0
  -26.3669  -31.6031   25.3564 C   0  0  0  0  0  0  0  0  0  0  0  0
  -18.7304  -28.7402   19.8776 C   0  0  0  0  0  0  0  0  0  1  0  0
  -26.6234  -18.4962   23.1787 N   0  0  0  0  0  0  0  0  0  0  0  0
  -26.8749  -19.8137   23.2637 N   0  0  0  0  0  0  0  0  0  0  0  0
  -25.3530  -30.8871   21.9912 N   0  0  0  0  0  0  0  0  0  0  0  0
  -24.1522  -21.3891   25.4290 N   0  0  0  0  0  0  0  0  0  0  0  0
  -28.0513  -21.5834   22.2174 N   0  0  0  0  0  0  0  0  0  0  0  0
  -29.0570  -18.0044   19.6532 N   0  0  0  0  0  0  0  0  0  0  0  0
  -21.3758  -25.2585   19.6637 N   0  0  0  0  0  0  0  0  0  0  0  0
  -23.0518  -22.9046   23.9955 N   0  0  0  0  0  0  0  0  0  0  0  0
  -26.5508  -27.8322   20.4009 N   0  0  0  0  0  0  0  0  0  0  0  0
  -25.8365  -33.6222   23.9261 N   0  0  0  0  0  0  0  0  0  0  0  0
  -20.1271  -26.9234   20.7624 N   0  3  0  0  0  0  0  0  0  0  0  0
  -24.1711  -36.6337   22.8193 N   0  3  0  0  0  0  0  0  0  0  0  0
  -29.4097  -20.2530   19.9324 O   0  0  0  0  0  0  0  0  0  0  0  0
  -25.6552  -28.3951   22.4754 O   0  0  0  0  0  0  0  0  0  0  0  0
  -27.4632  -31.6995   22.5600 O   0  0  0  0  0  0  0  0  0  0  0  0
  -23.5656  -34.0837   23.8427 O   0  0  0  0  0  0  0  0  0  0  0  0
  -22.8905  -23.1193   26.2998 O   0  0  0  0  0  0  0  0  0  0  0  0
  -22.1233  -24.1949   22.2267 O   0  0  0  0  0  0  0  0  0  0  0  0
  -27.2570  -12.7892   20.4260 O   0  0  0  0  0  0  0  0  0  0  0  0
  -19.4495  -29.6947   20.6574 O   0  0  0  0  0  0  0  0  0  1  0  0
  -26.5743  -11.8056   15.0435 F   0  0  0  0  0  0  0  0  0  0  0  0
  -25.1081  -11.3068   19.5164 F   0  0  0  0  0  0  0  0  0  0  0  0
  1  2  1  0  0  0  0
  1  5  2  0  0  0  0
  2  6  2  0  0  0  0
  3  8  2  0  0  0  0
  3 17  1  0  0  0  0
  4  9  1  0  0  0  0
  4 17  2  0  0  0  0
  5 19  1  0  0  0  0
  6 21  1  0  0  0  0
  7 10  2  0  0  0  0
  7 20  1  0  0  0  0
  8 23  1  0  0  0  0
  9 23  2  0  0  0  0
 10 24  1  0  0  0  0
 11 12  2  0  0  0  0
 11 25  1  0  0  0  0
 12 26  1  0  0  0  0
 13 14  1  0  0  0  0
 13 29  2  0  0  0  0
 14 31  2  0  0  0  0
 15 22  1  0  0  0  0
 15 24  2  0  0  0  0
 16 26  2  0  0  0  0
 16 27  1  0  0  0  0
 17 28  1  0  0  0  0
 18 28  1  0  0  0  0
 18 30  2  0  0  0  0
 18 32  1  0  0  0  0
 19 21  2  0  0  0  0
 19 38  1  0  0  0  0
 20 22  2  0  0  0  0
 20 39  1  0  0  0  0
 21 47  1  0  0  0  0
 22 40  1  0  0  0  0
 23 80  1  0  0  0  0
 24 81  1  0  0  0  0
 25 27  2  0  0  0  0
 25 80  1  0  0  0  0
 26 82  1  0  0  0  0
 27 83  1  0  0  0  0
 28 62  2  0  0  0  0
 29 33  1  0  0  0  0
 29 79  1  0  0  0  0
 30 63  1  0  0  0  0
 30 66  1  0  0  0  0
 31 69  1  0  0  0  0
 31 79  1  0  0  0  0
 32 67  1  0  0  0  0
 32 74  2  0  0  0  0
 33 68  1  0  0  0  0
 33 72  2  0  0  0  0
 34 48  1  0  0  0  0
 34 70  1  0  0  0  0
 34 75  2  0  0  0  0
 35 58  1  0  0  0  0
 35 64  1  0  0  0  0
 35 76  2  0  0  0  0
 36 59  1  0  0  0  0
 36 71  1  0  0  0  0
 36 77  2  0  0  0  0
 37 65  1  0  0  0  0
 37 69  1  0  0  0  0
 37 78  2  0  0  0  0
 38 41  1  0  0  0  0
 39 48  1  0  0  0  0
 40 64  1  0  0  0  0
 41 43  1  0  0  0  0
 42 44  1  0  0  0  0
 42 45  1  0  0  0  0
 43 47  1  0  0  0  0
 44 49  1  0  0  0  0
 45 65  1  0  0  0  0
 46 49  1  0  0  0  0
 46 65  1  0  0  0  0
 47 70  1  0  0  0  0
 48 64  1  0  0  0  0
 49 63  1  0  0  0  0
 50 59  1  0  0  0  0
 51 60  1  0  0  0  0
 52 60  1  0  0  0  0
 53 60  1  0  0  0  0
 54 61  1  0  0  0  0
 55 61  1  0  0  0  0
 56 73  1  0  0  0  0
 57 61  1  0  0  0  0
 57 72  1  0  0  0  0
 58 60  1  0  0  0  0
 58 71  1  0  0  0  0
 59 73  1  0  0  0  0
 61 81  1  0  0  0  0
 62 63  1  0  0  0  0
M  CHG  2  72   1  73   1
M  ISO  4  37 100  61 101  69 100  81 101
M  END
> <Batch ID>
0157

> <Smiles>
CNC(C)C(=O)NC(C(=O)N1Cc2cc([101O:1][101C:1](C)(C)CNC(=N)c3ccc([100NH:0][100C:0](=O)N4CCCC(n5nc(-c6ccc(Oc7ccc(F)cc7F)cc6)c(C(N)=O)c5N)C4)o3)ccc2CC1C(=O)NC1CCCc2ccccc21)C(C)(C)C

> <Shape>
0.263

> <Color>
0.065

> <Negative vol penalty>
0.000

$$$$

  -OEChem-04052303413D

 89 98  0     1  0  0  0  0  0999 V2000
  -15.3586  -28.7870   23.7917 C   0  0  0  0  0  0  0  0  0  0  0  0
  -16.4327  -27.9180   23.9540 C   0  0  0  0  0  0  0  0  0  0  0  0
  -22.9577   -9.9960   20.7696 C   0  0  0  0  0  0  0  0  0  0  0  0
  -23.7479  -10.4833   23.0001 C   0  0  0  0  0  0  0  0  0  0  0  0
  -15.5390  -30.0005   23.1292 C   0  0  0  0  0  0  0  0  0  0  0  0
  -17.6879  -28.2614   23.4529 C   0  0  0  0  0  0  0  0  0  0  0  0
  -23.1303  -26.9120   25.9155 C   0  0  0  0  0  0  0  0  0  0  0  0
  -22.1676   -8.9636   21.2750 C   0  0  0  0  0  0  0  0  0  0  0  0
  -22.9578   -9.4509   23.5055 C   0  0  0  0  0  0  0  0  0  0  0  0
  -24.0598  -25.9089   25.6443 C   0  0  0  0  0  0  0  0  0  0  0  0
  -19.7062   -8.9568   24.2826 C   0  0  0  0  0  0  0  0  0  0  0  0
  -18.9640   -9.2154   25.4349 C   0  0  0  0  0  0  0  0  0  0  0  0
  -25.2820  -27.4324   24.2285 C   0  0  0  0  0  0  0  0  0  0  0  0
  -26.8188  -21.7652   24.0743 C   0  0  0  0  0  0  0  0  0  0  0  0
  -30.1287  -17.7923   22.1555 C   0  0  0  0  0  0  0  0  0  0  0  0
  -32.2651  -16.7343   21.7638 C   0  0  0  0  0  0  0  0  0  0  0  0
  -20.1294   -7.4384   26.5844 C   0  0  0  0  0  0  0  0  0  0  0  0
  -23.7479  -10.7558   21.6321 C   0  0  0  0  0  0  0  0  0  0  0  0
  -24.1981  -13.1712   20.9458 C   0  0  0  0  0  0  0  0  0  0  0  0
  -16.7992  -30.3633   22.6282 C   0  0  0  0  0  0  0  0  0  0  0  0
  -23.2639  -28.1818   25.3356 C   0  0  0  0  0  0  0  0  0  0  0  0
  -17.8851  -29.4803   22.7819 C   0  0  0  0  0  0  0  0  0  0  0  0
  -24.3543  -28.4507   24.4960 C   0  0  0  0  0  0  0  0  0  0  0  0
  -26.9470  -22.9965   24.7604 C   0  0  0  0  0  0  0  0  0  0  0  0
  -30.8777  -16.7446   21.6198 C   0  0  0  0  0  0  0  0  0  0  0  0
  -30.7671  -18.8298   22.8350 C   0  0  0  0  0  0  0  0  0  0  0  0
  -32.1545  -18.8195   22.9790 C   0  0  0  0  0  0  0  0  0  0  0  0
  -22.1676   -8.6911   22.6430 C   0  0  0  0  0  0  0  0  0  0  0  0
  -25.1342  -26.1681   24.7984 C   0  0  0  0  0  0  0  0  0  0  0  0
  -20.6600   -7.9389   24.2811 C   0  0  0  0  0  0  0  0  0  0  0  0
  -19.1756   -8.4563   26.5858 C   0  0  0  0  0  0  0  0  0  0  0  0
  -32.9035  -17.7718   22.4434 C   0  0  0  0  0  0  0  0  0  0  0  0
  -20.8716   -7.1798   25.4320 C   0  0  0  0  0  0  0  0  0  0  0  0
  -24.5648  -11.8221   21.1105 C   0  0  0  0  0  0  0  0  0  0  0  0
  -28.0948  -21.2709   23.9350 C   0  0  0  0  0  0  0  0  0  0  0  0
  -25.3170  -13.7694   20.4197 C   0  0  0  0  0  0  0  0  0  0  0  0
  -28.2922  -23.1666   24.9917 C   0  0  0  0  0  0  0  0  0  0  0  0
  -22.9571  -13.8253   21.2421 C   0  0  0  0  0  0  0  0  0  0  0  0
  -28.5821  -20.0776   23.3318 C   0  0  0  0  0  0  0  0  0  0  0  0
  -21.5067  -29.9387   23.3534 C   0  0  0  0  0  0  0  0  0  0  0  0
  -23.7529  -32.1928   23.9825 C   0  0  0  0  0  0  0  0  0  0  0  0
  -26.9365  -32.9111   24.9803 C   0  0  0  0  0  0  0  0  0  0  0  0
  -30.8255  -14.5772   20.3369 C   0  0  0  0  0  0  0  0  0  0  0  0
  -16.9349  -31.6644   21.8776 C   0  0  0  0  0  0  0  0  0  0  0  0
  -22.2675  -29.2610   25.6594 C   0  0  0  0  0  0  0  0  0  0  0  0
  -24.5541  -29.8033   23.8644 C   0  0  0  0  0  0  0  0  0  0  0  0
  -18.3815  -32.1203   21.7055 C   0  0  0  0  0  0  0  0  0  0  0  0
  -29.5750  -11.7465   18.5761 C   0  0  0  0  0  0  0  0  0  0  0  0
  -19.2551  -30.9599   21.2393 C   0  0  0  0  0  0  0  0  0  0  0  0
  -28.1299  -11.6248   19.0649 C   0  0  0  0  0  0  0  0  0  0  0  0
  -30.5153  -12.1974   19.6925 C   0  0  0  0  0  0  0  0  0  0  0  0
  -28.6605  -13.2998   20.8815 C   0  0  0  0  0  0  0  0  0  0  0  0
  -19.2675  -29.8283   22.2741 C   0  0  1  0  0  0  0  0  0  0  0  0
  -22.2181  -30.3640   24.6066 C   0  0  1  0  0  0  0  0  0  0  0  0
  -27.6653  -12.9109   19.7760 C   0  0  2  0  0  0  0  0  0  0  0  0
  -28.4936  -34.8422   25.3594 C   0  0  0  0  0  0  0  0  0  0  0  0
  -24.1388  -32.4702   20.9686 C   0  0  0  0  0  0  0  0  0  0  0  0
  -26.2955  -33.6573   21.4242 C   0  0  0  0  0  0  0  0  0  0  0  0
  -24.1435  -34.6329   22.2243 C   0  0  0  0  0  0  0  0  0  0  0  0
  -27.2361  -32.2562   27.8509 C   0  0  0  0  0  0  0  0  0  0  0  0
  -25.8334  -23.9227   25.1520 C   0  0  0  0  0  0  0  0  0  1  0  0
  -25.0771  -32.5823   23.3713 C   0  0  1  0  0  0  0  0  0  0  0  0
  -27.4746  -33.9071   25.9917 C   0  0  2  0  0  0  0  0  0  0  0  0
  -24.9092  -33.3095   22.0073 C   0  0  0  0  0  0  0  0  0  0  0  0
  -25.8185  -11.5772   20.7204 N   0  0  0  0  0  0  0  0  0  0  0  0
  -26.2494  -12.7806   20.3053 N   0  0  0  0  0  0  0  0  0  0  0  0
  -23.5496  -30.8237   24.2067 N   0  0  0  0  0  0  0  0  0  0  0  0
  -30.0137  -13.4233   20.3172 N   0  0  0  0  0  0  0  0  0  0  0  0
  -32.8199  -19.8617   23.6633 N   0  0  0  0  0  0  0  0  0  0  0  0
  -25.5843  -15.0394   20.0483 N   0  0  0  0  0  0  0  0  0  0  0  0
  -28.9879  -24.1499   25.6006 N   0  0  0  0  0  0  0  0  0  0  0  0
  -21.9110  -13.0622   21.7786 N   0  0  0  0  0  0  0  0  0  0  0  0
  -29.9854  -19.8844   23.3705 N   0  0  0  0  0  0  0  0  0  0  0  0
  -30.2302  -15.6910   20.9282 N   0  0  0  0  0  0  0  0  0  0  0  0
  -20.1432  -30.1617   23.3771 N   0  0  0  0  0  0  0  0  0  0  0  0
  -25.7794  -33.3645   24.3829 N   0  0  0  0  0  0  0  0  0  0  0  0
  -28.1306  -33.1929   27.1234 N   0  3  0  0  0  0  0  0  0  0  0  0
  -22.7756  -15.0468   21.0218 O   0  0  0  0  0  0  0  0  0  0  0  0
  -27.8337  -19.2462   22.7616 O   0  0  0  0  0  0  0  0  0  0  0  0
  -22.1476  -29.4460   22.4324 O   0  0  0  0  0  0  0  0  0  0  0  0
  -22.9321  -33.0715   24.2578 O   0  0  0  0  0  0  0  0  0  0  0  0
  -27.4895  -31.8399   24.7412 O   0  0  0  0  0  0  0  0  0  0  0  0
  -31.9545  -14.5849   19.8396 O   0  0  0  0  0  0  0  0  0  0  0  0
  -28.9988  -22.1191   24.4917 O   0  0  0  0  0  0  0  0  0  0  0  0
  -21.3966   -7.6839   23.1366 O   0  0  0  0  0  0  0  0  0  0  0  0
  -26.0425  -25.1906   24.5315 O   0  0  0  0  0  0  0  0  0  1  0  0
  -18.4639   -8.7058   27.6928 F   0  0  0  0  0  0  0  0  0  0  0  0
  -34.2376  -17.7515   22.5745 F   0  0  0  0  0  0  0  0  0  0  0  0
  -21.7873   -6.2014   25.4370 F   0  0  0  0  0  0  0  0  0  0  0  0
  1  2  1  0  0  0  0
  1  5  2  0  0  0  0
  2  6  2  0  0  0  0
  3  8  2  0  0  0  0
  3 18  1  0  0  0  0
  4  9  1  0  0  0  0
  4 18  2  0  0  0  0
  5 20  1  0  0  0  0
  6 22  1  0  0  0  0
  7 10  2  0  0  0  0
  7 21  1  0  0  0  0
  8 28  1  0  0  0  0
  9 28  2  0  0  0  0
 10 29  1  0  0  0  0
 11 12  2  0  0  0  0
 11 30  1  0  0  0  0
 12 31  1  0  0  0  0
 13 23  1  0  0  0  0
 13 29  2  0  0  0  0
 14 24  1  0  0  0  0
 14 35  2  0  0  0  0
 15 25  2  0  0  0  0
 15 26  1  0  0  0  0
 16 25  1  0  0  0  0
 16 32  2  0  0  0  0
 17 31  2  0  0  0  0
 17 33  1  0  0  0  0
 18 34  1  0  0  0  0
 19 34  1  0  0  0  0
 19 36  2  0  0  0  0
 19 38  1  0  0  0  0
 20 22  2  0  0  0  0
 20 44  1  0  0  0  0
 21 23  2  0  0  0  0
 21 45  1  0  0  0  0
 22 53  1  0  0  0  0
 23 46  1  0  0  0  0
 24 37  2  0  0  0  0
 24 61  1  0  0  0  0
 25 74  1  0  0  0  0
 26 27  2  0  0  0  0
 26 73  1  0  0  0  0
 27 32  1  0  0  0  0
 27 69  1  0  0  0  0
 28 85  1  0  0  0  0
 29 86  1  0  0  0  0
 30 33  2  0  0  0  0
 30 85  1  0  0  0  0
 31 87  1  0  0  0  0
 32 88  1  0  0  0  0
 33 89  1  0  0  0  0
 34 65  2  0  0  0  0
 35 39  1  0  0  0  0
 35 84  1  0  0  0  0
 36 66  1  0  0  0  0
 36 70  1  0  0  0  0
 37 71  1  0  0  0  0
 37 84  1  0  0  0  0
 38 72  1  0  0  0  0
 38 78  2  0  0  0  0
 39 73  1  0  0  0  0
 39 79  2  0  0  0  0
 40 54  1  0  0  0  0
 40 75  1  0  0  0  0
 40 80  2  0  0  0  0
 41 62  1  0  0  0  0
 41 67  1  0  0  0  0
 41 81  2  0  0  0  0
 42 63  1  0  0  0  0
 42 76  1  0  0  0  0
 42 82  2  0  0  0  0
 43 68  1  0  0  0  0
 43 74  1  0  0  0  0
 43 83  2  0  0  0  0
 44 47  1  0  0  0  0
 45 54  1  0  0  0  0
 46 67  1  0  0  0  0
 47 49  1  0  0  0  0
 48 50  1  0  0  0  0
 48 51  1  0  0  0  0
 49 53  1  0  0  0  0
 50 55  1  0  0  0  0
 51 68  1  0  0  0  0
 52 55  1  0  0  0  0
 52 68  1  0  0  0  0
 53 75  1  0  0  0  0
 54 67  1  0  0  0  0
 55 66  1  0  0  0  0
 56 63  1  0  0  0  0
 57 64  1  0  0  0  0
 58 64  1  0  0  0  0
 59 64  1  0  0  0  0
 60 77  1  0  0  0  0
 61 86  1  0  0  0  0
 62 64  1  0  0  0  0
 62 76  1  0  0  0  0
 63 77  1  0  0  0  0
 65 66  1  0  0  0  0
M  CHG  1  77   1
M  ISO  4  43 100  61 101  74 100  86 101
M  END
> <Batch ID>
0157

> <Smiles>
CNC(C)C(=O)NC(C(=O)N1Cc2cc([101O:1][101CH2:1]c3cc(C(=O)Nc4cc([100NH:0][100C:0](=O)N5CCCC(n6nc(-c7ccc(Oc8ccc(F)cc8F)cc7)c(C(N)=O)c6N)C5)cc(F)c4N)oc3N)ccc2CC1C(=O)NC1CCCc2ccccc21)C(C)(C)C

> <Shape>
0.264

> <Color>
0.160

> <Negative vol penalty>
0.000

$$$$

  -OEChem-04052303413D

 86 95  0     1  0  0  0  0  0999 V2000
  -33.6899  -28.7537   29.3719 C   0  0  0  0  0  0  0  0  0  0  0  0
  -33.7415  -27.3800   29.5860 C   0  0  0  0  0  0  0  0  0  0  0  0
  -23.2883   -9.8001   19.9137 C   0  0  0  0  0  0  0  0  0  0  0  0
  -23.7427   -9.9400   22.2825 C   0  0  0  0  0  0  0  0  0  0  0  0
  -32.4892  -29.3549   28.9967 C   0  0  0  0  0  0  0  0  0  0  0  0
  -32.5921  -26.6069   29.4260 C   0  0  0  0  0  0  0  0  0  0  0  0
  -32.2810  -20.8659   27.3166 C   0  0  0  0  0  0  0  0  0  0  0  0
  -22.5626   -8.6273   20.1222 C   0  0  0  0  0  0  0  0  0  0  0  0
  -23.0170   -8.7672   22.4910 C   0  0  0  0  0  0  0  0  0  0  0  0
  -32.1868  -19.6334   27.9615 C   0  0  0  0  0  0  0  0  0  0  0  0
  -19.7706   -7.8550   22.7131 C   0  0  0  0  0  0  0  0  0  0  0  0
  -18.8700   -7.8327   23.7779 C   0  0  0  0  0  0  0  0  0  0  0  0
  -30.8953  -12.5969   25.1017 C   0  0  0  0  0  0  0  0  0  0  0  0
  -33.0194  -11.9667   26.0650 C   0  0  0  0  0  0  0  0  0  0  0  0
  -29.7916  -19.6745   27.6771 C   0  0  0  0  0  0  0  0  0  0  0  0
  -32.8200  -12.2756   23.6772 C   0  0  0  0  0  0  0  0  0  0  0  0
  -20.0779   -5.9855   24.7609 C   0  0  0  0  0  0  0  0  0  0  0  0
  -23.8784  -10.4565   20.9939 C   0  0  0  0  0  0  0  0  0  0  0  0
  -31.6698  -12.2838   26.2187 C   0  0  0  0  0  0  0  0  0  0  0  0
  -24.1367  -12.9866   20.7957 C   0  0  0  0  0  0  0  0  0  0  0  0
  -31.3267  -28.5874   28.8227 C   0  0  0  0  0  0  0  0  0  0  0  0
  -31.1282  -21.5182   26.8560 C   0  0  0  0  0  0  0  0  0  0  0  0
  -31.3744  -27.1986   29.0494 C   0  0  0  0  0  0  0  0  0  0  0  0
  -29.8742  -20.9140   27.0244 C   0  0  0  0  0  0  0  0  0  0  0  0
  -31.4704  -12.5927   23.8309 C   0  0  0  0  0  0  0  0  0  0  0  0
  -22.4270   -8.1108   21.4108 C   0  0  0  0  0  0  0  0  0  0  0  0
  -30.9417  -19.0389   28.1445 C   0  0  0  0  0  0  0  0  0  0  0  0
  -20.8249   -6.9426   22.6721 C   0  0  0  0  0  0  0  0  0  0  0  0
  -19.0236   -6.8979   24.8018 C   0  0  0  0  0  0  0  0  0  0  0  0
  -33.5945  -11.9626   24.7942 C   0  0  0  0  0  0  0  0  0  0  0  0
  -20.9785   -6.0078   23.6960 C   0  0  0  0  0  0  0  0  0  0  0  0
  -24.6286  -11.6677   20.7791 C   0  0  0  0  0  0  0  0  0  0  0  0
  -25.2375  -13.7670   20.5393 C   0  0  0  0  0  0  0  0  0  0  0  0
  -31.6173  -14.5768   27.8335 C   0  0  0  0  0  0  0  0  0  0  0  0
  -31.4882  -15.5397   28.7516 C   0  0  0  0  0  0  0  0  0  0  0  0
  -31.0624  -12.2867   27.5616 C   0  0  0  0  0  0  0  0  0  0  0  0
  -22.8038  -13.4637   21.0228 C   0  0  0  0  0  0  0  0  0  0  0  0
  -29.7060  -24.2857   27.5054 C   0  0  0  0  0  0  0  0  0  0  0  0
  -27.7753  -23.4249   25.0449 C   0  0  0  0  0  0  0  0  0  0  0  0
  -26.4687  -20.9238   23.1256 C   0  0  0  0  0  0  0  0  0  0  0  0
  -31.0994  -12.9543   21.3655 C   0  0  0  0  0  0  0  0  0  0  0  0
  -30.0410  -29.2887   28.4623 C   0  0  0  0  0  0  0  0  0  0  0  0
  -31.2494  -22.8346   26.1385 C   0  0  0  0  0  0  0  0  0  0  0  0
  -28.6082  -21.5634   26.5303 C   0  0  0  0  0  0  0  0  0  0  0  0
  -30.7823  -15.0170   29.9707 C   0  0  0  0  0  0  0  0  0  0  0  0
  -28.9558  -28.3455   27.9495 C   0  0  0  0  0  0  0  0  0  0  0  0
  -29.4608  -13.6592   18.2841 C   0  0  0  0  0  0  0  0  0  0  0  0
  -28.8446  -27.1196   28.8504 C   0  0  0  0  0  0  0  0  0  0  0  0
  -27.9901  -13.3544   18.5775 C   0  0  0  0  0  0  0  0  0  0  0  0
  -30.5020  -13.5454   29.6249 C   0  0  0  0  0  0  0  0  0  0  0  0
  -30.3955  -12.6841   18.9977 C   0  0  0  0  0  0  0  0  0  0  0  0
  -28.7051  -12.2549   20.7378 C   0  0  0  0  0  0  0  0  0  0  0  0
  -30.1547  -26.3227   28.8619 C   0  0  1  0  0  0  0  0  0  0  0  0
  -29.9613  -23.6515   26.1673 C   0  0  1  0  0  0  0  0  0  0  0  0
  -27.7275  -13.2507   20.0927 C   0  0  2  0  0  0  0  0  0  0  0  0
  -24.8898  -20.5261   21.2161 C   0  0  0  0  0  0  0  0  0  0  0  0
  -25.4055  -23.8575   26.9175 C   0  0  0  0  0  0  0  0  0  0  0  0
  -23.9880  -22.5644   25.3092 C   0  0  0  0  0  0  0  0  0  0  0  0
  -25.0607  -24.6976   24.5873 C   0  0  0  0  0  0  0  0  0  0  0  0
  -28.6083  -19.7549   21.4480 C   0  0  0  0  0  0  0  0  0  0  0  0
  -31.9542  -16.9458   28.6439 C   0  0  0  0  0  0  0  0  0  1  0  0
  -26.4922  -22.6399   24.9169 C   0  0  1  0  0  0  0  0  0  0  0  0
  -26.3345  -20.7741   21.6209 C   0  0  2  0  0  0  0  0  0  0  0  0
  -25.2601  -23.4283   25.4439 C   0  0  0  0  0  0  0  0  0  0  0  0
  -25.9398  -11.6096   20.5314 N   0  0  0  0  0  0  0  0  0  0  0  0
  -26.2811  -12.9017   20.3901 N   0  0  0  0  0  0  0  0  0  0  0  0
  -31.0688  -13.3968   28.2729 N   0  0  0  0  0  0  0  0  0  0  0  0
  -28.7781  -22.8530   25.8406 N   0  0  0  0  0  0  0  0  0  0  0  0
  -30.0909  -12.6416   20.4296 N   0  0  0  0  0  0  0  0  0  0  0  0
  -25.4048  -15.1020   20.4291 N   0  0  0  0  0  0  0  0  0  0  0  0
  -21.7919  -12.5264   21.2716 N   0  0  0  0  0  0  0  0  0  0  0  0
  -30.6842  -12.9121   22.6961 N   0  0  0  0  0  0  0  0  0  0  0  0
  -30.2777  -25.5349   27.6541 N   0  0  0  0  0  0  0  0  0  0  0  0
  -26.3939  -22.2440   23.5162 N   0  0  0  0  0  0  0  0  0  0  0  0
  -30.5158  -11.1703   28.0339 N   0  3  0  0  0  0  0  0  0  0  0  0
  -27.1606  -19.6314   21.1384 N   0  3  0  0  0  0  0  0  0  0  0  0
  -22.5155  -14.6841   20.9894 O   0  0  0  0  0  0  0  0  0  0  0  0
  -29.0385  -23.6867   28.3404 O   0  0  0  0  0  0  0  0  0  0  0  0
  -27.8865  -24.5024   24.4547 O   0  0  0  0  0  0  0  0  0  0  0  0
  -26.6206  -19.9651   23.8795 O   0  0  0  0  0  0  0  0  0  0  0  0
  -32.2396  -13.2650   21.0115 O   0  0  0  0  0  0  0  0  0  0  0  0
  -21.7187   -6.9665   21.6147 O   0  0  0  0  0  0  0  0  0  0  0  0
  -30.8468  -17.8363   28.7742 O   0  0  0  0  0  0  0  0  0  1  0  0
  -18.1595   -6.8776   25.8251 F   0  0  0  0  0  0  0  0  0  0  0  0
  -34.8905  -11.6579   24.6467 F   0  0  0  0  0  0  0  0  0  0  0  0
  -21.9901   -5.1295   23.6627 F   0  0  0  0  0  0  0  0  0  0  0  0
  1  2  1  0  0  0  0
  1  5  2  0  0  0  0
  2  6  2  0  0  0  0
  3  8  2  0  0  0  0
  3 18  1  0  0  0  0
  4  9  1  0  0  0  0
  4 18  2  0  0  0  0
  5 21  1  0  0  0  0
  6 23  1  0  0  0  0
  7 10  2  0  0  0  0
  7 22  1  0  0  0  0
  8 26  1  0  0  0  0
  9 26  2  0  0  0  0
 10 27  1  0  0  0  0
 11 12  2  0  0  0  0
 11 28  1  0  0  0  0
 12 29  1  0  0  0  0
 13 19  2  0  0  0  0
 13 25  1  0  0  0  0
 14 19  1  0  0  0  0
 14 30  2  0  0  0  0
 15 24  1  0  0  0  0
 15 27  2  0  0  0  0
 16 25  2  0  0  0  0
 16 30  1  0  0  0  0
 17 29  2  0  0  0  0
 17 31  1  0  0  0  0
 18 32  1  0  0  0  0
 19 36  1  0  0  0  0
 20 32  1  0  0  0  0
 20 33  2  0  0  0  0
 20 37  1  0  0  0  0
 21 23  2  0  0  0  0
 21 42  1  0  0  0  0
 22 24  2  0  0  0  0
 22 43  1  0  0  0  0
 23 53  1  0  0  0  0
 24 44  1  0  0  0  0
 25 72  1  0  0  0  0
 26 82  1  0  0  0  0
 27 83  1  0  0  0  0
 28 31  2  0  0  0  0
 28 82  1  0  0  0  0
 29 84  1  0  0  0  0
 30 85  1  0  0  0  0
 31 86  1  0  0  0  0
 32 65  2  0  0  0  0
 33 66  1  0  0  0  0
 33 70  1  0  0  0  0
 34 35  2  0  0  0  0
 34 67  1  0  0  0  0
 35 45  1  0  0  0  0
 35 61  1  0  0  0  0
 36 67  1  0  0  0  0
 36 75  2  0  0  0  0
 37 71  1  0  0  0  0
 37 77  2  0  0  0  0
 38 54  1  0  0  0  0
 38 73  1  0  0  0  0
 38 78  2  0  0  0  0
 39 62  1  0  0  0  0
 39 68  1  0  0  0  0
 39 79  2  0  0  0  0
 40 63  1  0  0  0  0
 40 74  1  0  0  0  0
 40 80  2  0  0  0  0
 41 69  1  0  0  0  0
 41 72  1  0  0  0  0
 41 81  2  0  0  0  0
 42 46  1  0  0  0  0
 43 54  1  0  0  0  0
 44 68  1  0  0  0  0
 45 50  1  0  0  0  0
 46 48  1  0  0  0  0
 47 49  1  0  0  0  0
 47 51  1  0  0  0  0
 48 53  1  0  0  0  0
 49 55  1  0  0  0  0
 50 67  1  0  0  0  0
 51 69  1  0  0  0  0
 52 55  1  0  0  0  0
 52 69  1  0  0  0  0
 53 73  1  0  0  0  0
 54 68  1  0  0  0  0
 55 66  1  0  0  0  0
 56 63  1  0  0  0  0
 57 64  1  0  0  0  0
 58 64  1  0  0  0  0
 59 64  1  0  0  0  0
 60 76  1  0  0  0  0
 61 83  1  0  0  0  0
 62 64  1  0  0  0  0
 62 74  1  0  0  0  0
 63 76  1  0  0  0  0
 65 66  1  0  0  0  0
M  CHG  2  75   1  76   1
M  ISO  4  41 100  61 101  72 100  83 101
M  END
> <Batch ID>
0157

> <Smiles>
CNC(C)C(=O)NC(C(=O)N1Cc2cc([101O:1][101CH2:1]C3=CN(C(=N)c4cc(F)cc([100NH:0][100C:0](=O)N5CCCC(n6nc(-c7ccc(Oc8ccc(F)cc8F)cc7)c(C(N)=O)c6N)C5)c4)CC3)ccc2CC1C(=O)NC1CCCc2ccccc21)C(C)(C)C

> <Shape>
0.140

> <Color>
0.171

> <Negative vol penalty>
0.000

$$$$

  -OEChem-04052303413D

 78 86  0     1  0  0  0  0  0999 V2000
  -29.3513   -2.8609   35.5880 C   0  0  0  0  0  0  0  0  0  0  0  0
  -29.8211   -4.0846   35.1218 C   0  0  0  0  0  0  0  0  0  0  0  0
  -23.2885   -9.7996   19.9123 C   0  0  0  0  0  0  0  0  0  0  0  0
  -23.7385   -9.9396   22.2819 C   0  0  0  0  0  0  0  0  0  0  0  0
  -28.4184   -2.1431   34.8407 C   0  0  0  0  0  0  0  0  0  0  0  0
  -29.3590   -4.5907   33.9074 C   0  0  0  0  0  0  0  0  0  0  0  0
  -28.4190  -10.4740   32.4900 C   0  0  0  0  0  0  0  0  0  0  0  0
  -22.5620   -8.6271   20.1195 C   0  0  0  0  0  0  0  0  0  0  0  0
  -23.0119   -8.7671   22.4891 C   0  0  0  0  0  0  0  0  0  0  0  0
  -29.1895  -11.4064   31.7966 C   0  0  0  0  0  0  0  0  0  0  0  0
  -19.7648   -7.8562   22.7052 C   0  0  0  0  0  0  0  0  0  0  0  0
  -18.8621   -7.8343   23.7683 C   0  0  0  0  0  0  0  0  0  0  0  0
  -29.9910  -13.8413   25.5881 C   0  0  0  0  0  0  0  0  0  0  0  0
  -29.6621  -13.5043   26.9329 C   0  0  0  0  0  0  0  0  0  0  0  0
  -27.9609  -10.9129   29.7801 C   0  0  0  0  0  0  0  0  0  0  0  0
  -20.0674   -5.9868   24.7538 C   0  0  0  0  0  0  0  0  0  0  0  0
  -23.8768  -10.4559   20.9935 C   0  0  0  0  0  0  0  0  0  0  0  0
  -24.1364  -12.9859   20.7956 C   0  0  0  0  0  0  0  0  0  0  0  0
  -27.9373   -2.6453   33.6213 C   0  0  0  0  0  0  0  0  0  0  0  0
  -27.4194   -9.7450   31.8301 C   0  0  0  0  0  0  0  0  0  0  0  0
  -28.4197   -3.8784   33.1425 C   0  0  0  0  0  0  0  0  0  0  0  0
  -27.1775   -9.9737   30.4680 C   0  0  0  0  0  0  0  0  0  0  0  0
  -22.4237   -8.1108   21.4079 C   0  0  0  0  0  0  0  0  0  0  0  0
  -28.9624  -11.6239   30.4408 C   0  0  0  0  0  0  0  0  0  0  0  0
  -20.8188   -6.9433   22.6663 C   0  0  0  0  0  0  0  0  0  0  0  0
  -19.0134   -6.8997   24.7926 C   0  0  0  0  0  0  0  0  0  0  0  0
  -20.9701   -6.0087   23.6906 C   0  0  0  0  0  0  0  0  0  0  0  0
  -24.6279  -11.6668   20.7800 C   0  0  0  0  0  0  0  0  0  0  0  0
  -31.0382  -13.0869   25.1069 C   0  0  0  0  0  0  0  0  0  0  0  0
  -25.2380  -13.7658   20.5411 C   0  0  0  0  0  0  0  0  0  0  0  0
  -30.4705  -12.5047   27.4282 C   0  0  0  0  0  0  0  0  0  0  0  0
  -22.8033  -13.4636   21.0201 C   0  0  0  0  0  0  0  0  0  0  0  0
  -26.9092   -6.6633   31.2411 C   0  0  0  0  0  0  0  0  0  0  0  0
  -24.0878   -7.7547   30.0702 C   0  0  0  0  0  0  0  0  0  0  0  0
  -22.3100  -10.3497   28.7464 C   0  0  0  0  0  0  0  0  0  0  0  0
  -31.1087  -12.9222   21.3624 C   0  0  0  0  0  0  0  0  0  0  0  0
  -26.9646   -1.8112   32.8258 C   0  0  0  0  0  0  0  0  0  0  0  0
  -26.5791   -8.7621   32.5984 C   0  0  0  0  0  0  0  0  0  0  0  0
  -26.1028   -9.2316   29.7178 C   0  0  0  0  0  0  0  0  0  0  0  0
  -26.2442   -2.5940   31.7311 C   0  0  0  0  0  0  0  0  0  0  0  0
  -29.4608  -13.6624   18.2943 C   0  0  0  0  0  0  0  0  0  0  0  0
  -27.2358   -3.4408   30.9396 C   0  0  0  0  0  0  0  0  0  0  0  0
  -27.9910  -13.3539   18.5849 C   0  0  0  0  0  0  0  0  0  0  0  0
  -30.3938  -12.6828   19.0027 C   0  0  0  0  0  0  0  0  0  0  0  0
  -28.7066  -12.2531   20.7470 C   0  0  0  0  0  0  0  0  0  0  0  0
  -27.9237   -4.4723   31.8420 C   0  0  1  0  0  0  0  0  0  0  0  0
  -25.9324   -7.7050   31.7086 C   0  0  1  0  0  0  0  0  0  0  0  0
  -27.7289  -13.2486   20.0993 C   0  0  2  0  0  0  0  0  0  0  0  0
  -20.0372  -10.9276   27.8531 C   0  0  0  0  0  0  0  0  0  0  0  0
  -24.7281   -6.2659   27.4849 C   0  0  0  0  0  0  0  0  0  0  0  0
  -22.9580   -7.6225   26.3472 C   0  0  0  0  0  0  0  0  0  0  0  0
  -22.3446   -6.0970   28.2231 C   0  0  0  0  0  0  0  0  0  0  0  0
  -21.8893  -12.4126   30.8264 C   0  0  0  0  0  0  0  0  0  0  0  0
  -31.6698  -13.1353   23.7705 C   0  0  0  0  0  0  0  0  0  0  0  0
  -23.6026   -8.2324   28.7228 C   0  0  1  0  0  0  0  0  0  0  0  0
  -20.9362  -10.9031   29.0795 C   0  0  2  0  0  0  0  0  0  0  0  0
  -23.4299   -7.0672   27.7079 C   0  0  0  0  0  0  0  0  0  0  0  0
  -25.9396  -11.6081   20.5348 N   0  0  0  0  0  0  0  0  0  0  0  0
  -26.2816  -12.9001   20.3940 N   0  0  0  0  0  0  0  0  0  0  0  0
  -25.3121   -8.2764   30.5116 N   0  0  0  0  0  0  0  0  0  0  0  0
  -30.0941  -12.6311   20.4357 N   0  0  0  0  0  0  0  0  0  0  0  0
  -25.4061  -15.1007   20.4311 N   0  0  0  0  0  0  0  0  0  0  0  0
  -21.7906  -12.5267   21.2670 N   0  0  0  0  0  0  0  0  0  0  0  0
  -30.4107  -11.9439   28.7107 N   0  0  0  0  0  0  0  0  0  1  0  0
  -27.0390   -5.5883   32.0996 N   0  0  0  0  0  0  0  0  0  0  0  0
  -22.3824   -8.9917   28.9740 N   0  0  0  0  0  0  0  0  0  0  0  0
  -30.7386  -12.8563   22.7001 N   0  0  0  0  0  0  0  0  0  0  0  0
  -21.0512  -12.2926   29.6057 N   0  3  0  0  0  0  0  0  0  0  0  0
  -22.5156  -14.6840   20.9860 O   0  0  0  0  0  0  0  0  0  0  0  0
  -27.5000   -6.8223   30.1794 O   0  0  0  0  0  0  0  0  0  0  0  0
  -23.4022   -6.9539   30.7107 O   0  0  0  0  0  0  0  0  0  0  0  0
  -23.2260  -11.0512   28.3230 O   0  0  0  0  0  0  0  0  0  0  0  0
  -32.2578  -13.2240   21.0227 O   0  0  0  0  0  0  0  0  0  0  0  0
  -21.7146   -6.9668   21.6106 O   0  0  0  0  0  0  0  0  0  0  0  0
  -29.7134  -12.5330   29.7614 O   0  0  0  0  0  0  0  0  0  1  0  0
  -18.1473   -6.8798   25.8143 F   0  0  0  0  0  0  0  0  0  0  0  0
  -21.9814   -5.1299   23.6593 F   0  0  0  0  0  0  0  0  0  0  0  0
  -31.6204  -11.9774   26.2741 S   0  0  0  0  0  0  0  0  0  0  0  0
  1  2  1  0  0  0  0
  1  5  2  0  0  0  0
  2  6  2  0  0  0  0
  3  8  2  0  0  0  0
  3 17  1  0  0  0  0
  4  9  1  0  0  0  0
  4 17  2  0  0  0  0
  5 19  1  0  0  0  0
  6 21  1  0  0  0  0
  7 10  2  0  0  0  0
  7 20  1  0  0  0  0
  8 23  1  0  0  0  0
  9 23  2  0  0  0  0
 10 24  1  0  0  0  0
 11 12  2  0  0  0  0
 11 25  1  0  0  0  0
 12 26  1  0  0  0  0
 13 14  1  0  0  0  0
 13 29  2  0  0  0  0
 14 31  2  0  0  0  0
 15 22  1  0  0  0  0
 15 24  2  0  0  0  0
 16 26  2  0  0  0  0
 16 27  1  0  0  0  0
 17 28  1  0  0  0  0
 18 28  1  0  0  0  0
 18 30  2  0  0  0  0
 18 32  1  0  0  0  0
 19 21  2  0  0  0  0
 19 37  1  0  0  0  0
 20 22  2  0  0  0  0
 20 38  1  0  0  0  0
 21 46  1  0  0  0  0
 22 39  1  0  0  0  0
 23 74  1  0  0  0  0
 24 75  1  0  0  0  0
 25 27  2  0  0  0  0
 25 74  1  0  0  0  0
 26 76  1  0  0  0  0
 27 77  1  0  0  0  0
 28 58  2  0  0  0  0
 29 54  1  0  0  0  0
 29 78  1  0  0  0  0
 30 59  1  0  0  0  0
 30 62  1  0  0  0  0
 31 64  1  0  0  0  0
 31 78  1  0  0  0  0
 32 63  1  0  0  0  0
 32 69  2  0  0  0  0
 33 47  1  0  0  0  0
 33 65  1  0  0  0  0
 33 70  2  0  0  0  0
 34 55  1  0  0  0  0
 34 60  1  0  0  0  0
 34 71  2  0  0  0  0
 35 56  1  0  0  0  0
 35 66  1  0  0  0  0
 35 72  2  0  0  0  0
 36 61  1  0  0  0  0
 36 67  1  0  0  0  0
 36 73  2  0  0  0  0
 37 40  1  0  0  0  0
 38 47  1  0  0  0  0
 39 60  1  0  0  0  0
 40 42  1  0  0  0  0
 41 43  1  0  0  0  0
 41 44  1  0  0  0  0
 42 46  1  0  0  0  0
 43 48  1  0  0  0  0
 44 61  1  0  0  0  0
 45 48  1  0  0  0  0
 45 61  1  0  0  0  0
 46 65  1  0  0  0  0
 47 60  1  0  0  0  0
 48 59  1  0  0  0  0
 49 56  1  0  0  0  0
 50 57  1  0  0  0  0
 51 57  1  0  0  0  0
 52 57  1  0  0  0  0
 53 68  1  0  0  0  0
 54 67  1  0  0  0  0
 55 57  1  0  0  0  0
 55 66  1  0  0  0  0
 56 68  1  0  0  0  0
 58 59  1  0  0  0  0
 64 75  1  0  0  0  0
M  CHG  1  68   1
M  ISO  4  36 100  64 101  67 100  75 101
M  END
> <Batch ID>
0157

> <Smiles>
CNC(C)C(=O)NC(C(=O)N1Cc2cc([101O:1][101NH:1]c3ccc(C[100NH:0][100C:0](=O)N4CCCC(n5nc(-c6ccc(Oc7ccc(F)cc7F)cc6)c(C(N)=O)c5N)C4)s3)ccc2CC1C(=O)NC1CCCc2ccccc21)C(C)(C)C

> <Shape>
0.137

> <Color>
0.182

> <Negative vol penalty>
0.000

$$$$

  -OEChem-04052303413D

 81 89  0     1  0  0  0  0  0999 V2000
  -18.8657  -23.2094   22.4055 C   0  0  0  0  0  0  0  0  0  0  0  0
  -20.2524  -23.2676   22.4996 C   0  0  0  0  0  0  0  0  0  0  0  0
  -25.1966  -15.0432   20.9674 C   0  0  0  0  0  0  0  0  0  0  0  0
  -26.3494  -13.1354   20.0357 C   0  0  0  0  0  0  0  0  0  0  0  0
  -18.1203  -24.3872   22.3722 C   0  0  0  0  0  0  0  0  0  0  0  0
  -20.8948  -24.5038   22.5593 C   0  0  0  0  0  0  0  0  0  0  0  0
  -24.5104  -24.6452   26.1023 C   0  0  0  0  0  0  0  0  0  0  0  0
  -24.0028  -14.3218   20.9676 C   0  0  0  0  0  0  0  0  0  0  0  0
  -25.1556  -12.4139   20.0358 C   0  0  0  0  0  0  0  0  0  0  0  0
  -25.7265  -24.0363   25.7957 C   0  0  0  0  0  0  0  0  0  0  0  0
  -23.2600  -10.7386   22.2764 C   0  0  0  0  0  0  0  0  0  0  0  0
  -23.2979   -9.4259   22.7466 C   0  0  0  0  0  0  0  0  0  0  0  0
  -29.0221  -24.6353   22.3008 C   0  0  0  0  0  0  0  0  0  0  0  0
  -26.6690  -26.1947   25.2743 C   0  0  0  0  0  0  0  0  0  0  0  0
  -22.5239   -8.6343   20.5992 C   0  0  0  0  0  0  0  0  0  0  0  0
  -26.3699  -14.4501   20.5014 C   0  0  0  0  0  0  0  0  0  0  0  0
  -29.5633  -24.4625   20.9941 C   0  0  0  0  0  0  0  0  0  0  0  0
  -28.5551  -15.2645   21.5354 C   0  0  0  0  0  0  0  0  0  0  0  0
  -18.7532  -25.6383   22.4413 C   0  0  0  0  0  0  0  0  0  0  0  0
  -24.3610  -26.0347   25.9865 C   0  0  0  0  0  0  0  0  0  0  0  0
  -20.1573  -25.6995   22.5255 C   0  0  0  0  0  0  0  0  0  0  0  0
  -25.4507  -26.8192   25.5825 C   0  0  0  0  0  0  0  0  0  0  0  0
  -23.9823  -13.0072   20.5018 C   0  0  0  0  0  0  0  0  0  0  0  0
  -26.8052  -24.8107   25.3788 C   0  0  0  0  0  0  0  0  0  0  0  0
  -22.8540  -10.9991   20.9676 C   0  0  0  0  0  0  0  0  0  0  0  0
  -22.9299   -8.3738   21.9080 C   0  0  0  0  0  0  0  0  0  0  0  0
  -22.4860   -9.9470   20.1290 C   0  0  0  0  0  0  0  0  0  0  0  0
  -27.6033  -15.1950   20.5005 C   0  0  0  0  0  0  0  0  0  0  0  0
  -29.4096  -23.1722   20.5368 C   0  0  0  0  0  0  0  0  0  0  0  0
  -29.5343  -16.0942   21.0460 C   0  0  0  0  0  0  0  0  0  0  0  0
  -28.4750  -23.4704   22.7923 C   0  0  0  0  0  0  0  0  0  0  0  0
  -29.8230  -22.5782   19.2531 C   0  0  0  0  0  0  0  0  0  0  0  0
  -30.2006  -25.4991   20.2230 C   0  0  0  0  0  0  0  0  0  0  0  0
  -28.5544  -14.6354   22.8237 C   0  0  0  0  0  0  0  0  0  0  0  0
  -22.5315  -27.9560   24.2357 C   0  0  0  0  0  0  0  0  0  0  0  0
  -23.8700  -30.2666   26.0774 C   0  0  0  0  0  0  0  0  0  0  0  0
  -26.4792  -31.2568   28.0416 C   0  0  0  0  0  0  0  0  0  0  0  0
  -30.0206  -20.8447   17.7539 C   0  0  0  0  0  0  0  0  0  0  0  0
  -17.9087  -26.8849   22.3542 C   0  0  0  0  0  0  0  0  0  0  0  0
  -23.0505  -26.6792   26.3467 C   0  0  0  0  0  0  0  0  0  0  0  0
  -25.3481  -28.3169   25.4615 C   0  0  0  0  0  0  0  0  0  0  0  0
  -18.6401  -28.1485   22.7997 C   0  0  0  0  0  0  0  0  0  0  0  0
  -30.9421  -17.5721   16.5515 C   0  0  0  0  0  0  0  0  0  0  0  0
  -20.0293  -28.2104   22.1726 C   0  0  0  0  0  0  0  0  0  0  0  0
  -30.2359  -16.6320   17.5282 C   0  0  0  0  0  0  0  0  0  0  0  0
  -30.1175  -18.8284   16.2881 C   0  0  0  0  0  0  0  0  0  0  0  0
  -29.0310  -18.6338   18.5085 C   0  0  0  0  0  0  0  0  0  0  0  0
  -20.8889  -27.0211   22.6175 C   0  0  1  0  0  0  0  0  0  0  0  0
  -22.8595  -28.0473   25.6992 C   0  0  1  0  0  0  0  0  0  0  0  0
  -29.8483  -17.3690   18.8226 C   0  0  1  0  0  0  0  0  0  0  0  0
  -29.7469  -26.9206   20.4379 C   0  0  0  0  0  0  0  0  0  0  0  0
  -27.3083  -33.2133   29.3765 C   0  0  0  0  0  0  0  0  0  0  0  0
  -24.6684  -31.6858   23.4971 C   0  0  0  0  0  0  0  0  0  0  0  0
  -26.2672  -33.0713   24.8359 C   0  0  0  0  0  0  0  0  0  0  0  0
  -23.8194  -33.1975   25.2994 C   0  0  0  0  0  0  0  0  0  0  0  0
  -26.4612  -29.6968   30.5565 C   0  0  0  0  0  0  0  0  0  0  0  0
  -25.1048  -31.1296   25.9802 C   0  0  1  0  0  0  0  0  0  0  0  0
  -26.5176  -31.9147   29.4091 C   0  0  2  0  0  0  0  0  0  0  0  0
  -24.9666  -32.2427   24.9035 C   0  0  0  0  0  0  0  0  0  0  0  0
  -27.9466  -15.9226   19.4343 N   0  0  0  0  0  0  0  0  0  0  0  0
  -29.6041  -21.3343   18.9771 N   0  0  0  0  0  0  0  0  0  0  0  0
  -29.1252  -16.4572   19.7966 N   0  0  0  0  0  0  0  0  0  0  0  0
  -24.0442  -28.8996   25.8189 N   0  0  0  0  0  0  0  0  0  0  0  0
  -29.7401  -19.4824   17.5418 N   0  0  0  0  0  0  0  0  0  0  0  0
  -30.6967  -16.5413   21.5669 N   0  0  0  0  0  0  0  0  0  0  0  0
  -27.4710  -13.8146   23.1658 N   0  0  0  0  0  0  0  0  0  0  0  0
  -27.8636  -23.2995   24.0412 N   0  0  0  0  0  0  0  0  0  1  0  0
  -21.3875  -27.2318   23.9597 N   0  0  0  0  0  0  0  0  0  0  0  0
  -25.3605  -31.6294   27.3268 N   0  0  0  0  0  0  0  0  0  0  0  0
  -27.1506  -31.0039   30.4045 N   0  3  0  0  0  0  0  0  0  0  0  0
  -31.0976  -25.3243   19.3838 O   0  0  0  0  0  0  0  0  0  0  0  0
  -29.4788  -14.8094   23.6536 O   0  0  0  0  0  0  0  0  0  0  0  0
  -23.2614  -28.5034   23.4176 O   0  0  0  0  0  0  0  0  0  0  0  0
  -22.7920  -30.7850   26.3788 O   0  0  0  0  0  0  0  0  0  0  0  0
  -27.3561  -30.4921   27.6454 O   0  0  0  0  0  0  0  0  0  0  0  0
  -30.5888  -21.5269   16.8978 O   0  0  0  0  0  0  0  0  0  0  0  0
  -22.8176  -12.3028   20.5020 O   0  0  0  0  0  0  0  0  0  0  0  0
  -27.9931  -24.2187   25.0783 O   0  0  0  0  0  0  0  0  0  1  0  0
  -22.9678   -7.1132   22.3592 F   0  0  0  0  0  0  0  0  0  0  0  0
  -22.0962  -10.1910   18.8703 F   0  0  0  0  0  0  0  0  0  0  0  0
  -28.6153  -22.1756   21.6806 S   0  0  0  0  0  0  0  0  0  0  0  0
  1  2  1  0  0  0  0
  1  5  2  0  0  0  0
  2  6  2  0  0  0  0
  3  8  2  0  0  0  0
  3 16  1  0  0  0  0
  4  9  1  0  0  0  0
  4 16  2  0  0  0  0
  5 19  1  0  0  0  0
  6 21  1  0  0  0  0
  7 10  2  0  0  0  0
  7 20  1  0  0  0  0
  8 23  1  0  0  0  0
  9 23  2  0  0  0  0
 10 24  1  0  0  0  0
 11 12  2  0  0  0  0
 11 25  1  0  0  0  0
 12 26  1  0  0  0  0
 13 17  1  0  0  0  0
 13 31  2  0  0  0  0
 14 22  1  0  0  0  0
 14 24  2  0  0  0  0
 15 26  2  0  0  0  0
 15 27  1  0  0  0  0
 16 28  1  0  0  0  0
 17 29  2  0  0  0  0
 17 33  1  0  0  0  0
 18 28  1  0  0  0  0
 18 30  2  0  0  0  0
 18 34  1  0  0  0  0
 19 21  2  0  0  0  0
 19 39  1  0  0  0  0
 20 22  2  0  0  0  0
 20 40  1  0  0  0  0
 21 48  1  0  0  0  0
 22 41  1  0  0  0  0
 23 77  1  0  0  0  0
 24 78  1  0  0  0  0
 25 27  2  0  0  0  0
 25 77  1  0  0  0  0
 26 79  1  0  0  0  0
 27 80  1  0  0  0  0
 28 60  2  0  0  0  0
 29 32  1  0  0  0  0
 29 81  1  0  0  0  0
 30 62  1  0  0  0  0
 30 65  1  0  0  0  0
 31 67  1  0  0  0  0
 31 81  1  0  0  0  0
 32 61  2  0  0  0  0
 33 51  1  0  0  0  0
 33 71  2  0  0  0  0
 34 66  1  0  0  0  0
 34 72  2  0  0  0  0
 35 49  1  0  0  0  0
 35 68  1  0  0  0  0
 35 73  2  0  0  0  0
 36 57  1  0  0  0  0
 36 63  1  0  0  0  0
 36 74  2  0  0  0  0
 37 58  1  0  0  0  0
 37 69  1  0  0  0  0
 37 75  2  0  0  0  0
 38 61  1  0  0  0  0
 38 64  1  0  0  0  0
 38 76  2  0  0  0  0
 39 42  1  0  0  0  0
 40 49  1  0  0  0  0
 41 63  1  0  0  0  0
 42 44  1  0  0  0  0
 43 45  1  0  0  0  0
 43 46  1  0  0  0  0
 44 48  1  0  0  0  0
 45 50  1  0  0  0  0
 46 64  1  0  0  0  0
 47 50  1  0  0  0  0
 47 64  1  0  0  0  0
 48 68  1  0  0  0  0
 49 63  1  0  0  0  0
 50 62  1  0  0  0  0
 52 58  1  0  0  0  0
 53 59  1  0  0  0  0
 54 59  1  0  0  0  0
 55 59  1  0  0  0  0
 56 70  1  0  0  0  0
 57 59  1  0  0  0  0
 57 69  1  0  0  0  0
 58 70  1  0  0  0  0
 60 62  1  0  0  0  0
 67 78  1  0  0  0  0
M  CHG  1  70   1
M  ISO  4  38 100  61 100  67 101  78 101
M  END
> <Batch ID>
0157

> <Smiles>
CNC(C)C(=O)NC(C(=O)N1Cc2cc([101O:1][101NH:1]c3cc(C(C)=O)c(C=[100N:0][100C:0](=O)N4CCCC(n5nc(-c6ccc(Oc7ccc(F)cc7F)cc6)c(C(N)=O)c5N)C4)s3)ccc2CC1C(=O)NC1CCCc2ccccc21)C(C)(C)C

> <Shape>
0.252

> <Color>
0.069

> <Negative vol penalty>
0.000

$$$$

  -OEChem-04052303413D

 84 92  0     1  0  0  0  0  0999 V2000
  -20.9016  -31.2991   22.7761 C   0  0  0  0  0  0  0  0  0  0  0  0
  -21.6085  -30.2097   23.2751 C   0  0  0  0  0  0  0  0  0  0  0  0
  -23.1983   -9.7148   20.2033 C   0  0  0  0  0  0  0  0  0  0  0  0
  -23.7059  -10.1753   22.5201 C   0  0  0  0  0  0  0  0  0  0  0  0
  -19.5077  -31.2744   22.7565 C   0  0  0  0  0  0  0  0  0  0  0  0
  -20.9217  -29.0954   23.7558 C   0  0  0  0  0  0  0  0  0  0  0  0
  -22.9202  -24.7336   22.1353 C   0  0  0  0  0  0  0  0  0  0  0  0
  -22.4621   -8.5941   20.5874 C   0  0  0  0  0  0  0  0  0  0  0  0
  -22.9696   -9.0546   22.9042 C   0  0  0  0  0  0  0  0  0  0  0  0
  -24.0767  -24.2872   22.7733 C   0  0  0  0  0  0  0  0  0  0  0  0
  -19.7171   -8.2342   23.3150 C   0  0  0  0  0  0  0  0  0  0  0  0
  -18.8395   -8.3745   24.3901 C   0  0  0  0  0  0  0  0  0  0  0  0
  -22.7528  -22.7625   24.0931 C   0  0  0  0  0  0  0  0  0  0  0  0
  -29.4171  -18.0631   22.6011 C   0  0  0  0  0  0  0  0  0  0  0  0
  -31.2402  -19.2325   23.6714 C   0  0  0  0  0  0  0  0  0  0  0  0
  -31.6732  -17.2213   22.4048 C   0  0  0  0  0  0  0  0  0  0  0  0
  -20.0442   -6.6628   25.5968 C   0  0  0  0  0  0  0  0  0  0  0  0
  -23.8203  -10.5054   21.1697 C   0  0  0  0  0  0  0  0  0  0  0  0
  -24.1073  -12.9790   20.6160 C   0  0  0  0  0  0  0  0  0  0  0  0
  -18.8037  -30.1553   23.2283 C   0  0  0  0  0  0  0  0  0  0  0  0
  -21.6680  -24.2047   22.4797 C   0  0  0  0  0  0  0  0  0  0  0  0
  -19.5171  -29.0563   23.7438 C   0  0  0  0  0  0  0  0  0  0  0  0
  -21.5822  -23.2021   23.4561 C   0  0  0  0  0  0  0  0  0  0  0  0
  -29.8805  -19.1233   23.3801 C   0  0  0  0  0  0  0  0  0  0  0  0
  -30.3134  -17.1121   22.1135 C   0  0  0  0  0  0  0  0  0  0  0  0
  -22.3477   -8.2640   21.9378 C   0  0  0  0  0  0  0  0  0  0  0  0
  -23.9928  -23.3036   23.7544 C   0  0  0  0  0  0  0  0  0  0  0  0
  -20.7582   -7.3081   23.3808 C   0  0  0  0  0  0  0  0  0  0  0  0
  -19.0031   -7.5888   25.5309 C   0  0  0  0  0  0  0  0  0  0  0  0
  -32.1366  -18.2815   23.1838 C   0  0  0  0  0  0  0  0  0  0  0  0
  -20.9218   -6.5225   24.5217 C   0  0  0  0  0  0  0  0  0  0  0  0
  -24.5815  -11.6629   20.7735 C   0  0  0  0  0  0  0  0  0  0  0  0
  -25.2124  -13.6984   20.2317 C   0  0  0  0  0  0  0  0  0  0  0  0
  -25.7894  -21.8081   23.8323 C   0  0  0  0  0  0  0  0  0  1  0  0
  -22.7861  -13.5043   20.8005 C   0  0  0  0  0  0  0  0  0  0  0  0
  -26.9067  -21.2841   24.3473 C   0  0  0  0  0  0  0  0  0  0  0  0
  -27.5933  -20.1252   23.6912 C   0  0  0  0  0  0  0  0  0  0  0  0
  -18.9861  -25.3999   23.6974 C   0  0  0  0  0  0  0  0  0  0  0  0
  -17.8544  -22.4151   23.1211 C   0  0  0  0  0  0  0  0  0  0  0  0
  -18.5248  -19.0994   22.6702 C   0  0  0  0  0  0  0  0  0  0  0  0
  -30.5988  -15.0061   20.7607 C   0  0  0  0  0  0  0  0  0  0  0  0
  -17.2960  -30.1940   23.2306 C   0  0  0  0  0  0  0  0  0  0  0  0
  -20.4330  -24.6779   21.7632 C   0  0  0  0  0  0  0  0  0  0  0  0
  -20.2642  -22.5874   23.8480 C   0  0  0  0  0  0  0  0  0  0  0  0
  -16.6518  -28.8221   23.4123 C   0  0  0  0  0  0  0  0  0  0  0  0
  -29.8096  -12.1520   18.7838 C   0  0  0  0  0  0  0  0  0  0  0  0
  -17.3247  -28.0630   24.5516 C   0  0  0  0  0  0  0  0  0  0  0  0
  -28.3401  -11.8786   19.1123 C   0  0  0  0  0  0  0  0  0  0  0  0
  -30.5834  -12.6380   20.0080 C   0  0  0  0  0  0  0  0  0  0  0  0
  -28.5204  -13.5150   21.0297 C   0  0  0  0  0  0  0  0  0  0  0  0
  -18.8085  -27.8191   24.2513 C   0  0  1  0  0  0  0  0  0  0  0  0
  -19.1525  -24.4364   22.5566 C   0  0  1  0  0  0  0  0  0  0  0  0
  -27.6852  -13.0853   19.8125 C   0  0  2  0  0  0  0  0  0  0  0  0
  -17.3916  -16.8990   22.2559 C   0  0  0  0  0  0  0  0  0  0  0  0
  -16.9810  -22.3175   26.0430 C   0  0  0  0  0  0  0  0  0  0  0  0
  -16.7443  -19.8353   25.8169 C   0  0  0  0  0  0  0  0  0  0  0  0
  -15.3325  -21.3527   24.4287 C   0  0  0  0  0  0  0  0  0  0  0  0
  -19.9363  -18.7252   20.0960 C   0  0  0  0  0  0  0  0  0  0  0  0
  -17.7949  -21.1249   23.9026 C   0  0  1  0  0  0  0  0  0  0  0  0
  -18.0544  -18.1105   21.6189 C   0  0  2  0  0  0  0  0  0  0  0  0
  -16.7380  -21.1704   25.0420 C   0  0  0  0  0  0  0  0  0  0  0  0
  -25.8861  -11.5499   20.5107 N   0  0  0  0  0  0  0  0  0  0  0  0
  -26.2412  -12.8042   20.1840 N   0  0  0  0  0  0  0  0  0  0  0  0
  -19.0845  -23.0879   23.1232 N   0  0  0  0  0  0  0  0  0  0  0  0
  -29.9064  -13.7852   20.6166 N   0  0  0  0  0  0  0  0  0  0  0  0
  -25.3948  -15.0023   19.9333 N   0  0  0  0  0  0  0  0  0  0  0  0
  -21.7676  -12.6269   21.1973 N   0  0  0  0  0  0  0  0  0  0  0  0
  -28.9692  -20.0907   23.8766 N   0  0  0  0  0  0  0  0  0  0  0  0
  -29.8431  -16.0347   21.3224 N   0  0  0  0  0  0  0  0  0  0  0  0
  -18.9617  -26.7272   23.3139 N   0  0  0  0  0  0  0  0  0  0  0  0
  -17.5741  -20.0650   22.9247 N   0  0  0  0  0  0  0  0  0  0  0  0
  -27.4606  -21.8361   25.5246 N   0  3  0  0  0  0  0  0  0  0  0  0
  -19.2062  -17.6391   20.7990 N   0  3  0  0  0  0  0  0  0  0  0  0
  -22.5131  -14.7126   20.6031 O   0  0  0  0  0  0  0  0  0  0  0  0
  -26.9241  -19.3089   23.0613 O   0  0  0  0  0  0  0  0  0  0  0  0
  -18.8858  -24.9708   24.8409 O   0  0  0  0  0  0  0  0  0  0  0  0
  -16.8485  -22.8077   22.5246 O   0  0  0  0  0  0  0  0  0  0  0  0
  -19.6241  -19.0207   23.2141 O   0  0  0  0  0  0  0  0  0  0  0  0
  -31.7670  -15.1378   20.3865 O   0  0  0  0  0  0  0  0  0  0  0  0
  -21.6291   -7.1706   22.3129 O   0  0  0  0  0  0  0  0  0  0  0  0
  -25.1199  -22.8665   24.3792 O   0  0  0  0  0  0  0  0  0  1  0  0
  -18.1612   -7.7247   26.5639 F   0  0  0  0  0  0  0  0  0  0  0  0
  -33.4423  -18.3858   23.4640 F   0  0  0  0  0  0  0  0  0  0  0  0
  -21.9208   -5.6320   24.5911 F   0  0  0  0  0  0  0  0  0  0  0  0
  1  2  1  0  0  0  0
  1  5  2  0  0  0  0
  2  6  2  0  0  0  0
  3  8  2  0  0  0  0
  3 18  1  0  0  0  0
  4  9  1  0  0  0  0
  4 18  2  0  0  0  0
  5 20  1  0  0  0  0
  6 22  1  0  0  0  0
  7 10  2  0  0  0  0
  7 21  1  0  0  0  0
  8 26  1  0  0  0  0
  9 26  2  0  0  0  0
 10 27  1  0  0  0  0
 11 12  2  0  0  0  0
 11 28  1  0  0  0  0
 12 29  1  0  0  0  0
 13 23  1  0  0  0  0
 13 27  2  0  0  0  0
 14 24  2  0  0  0  0
 14 25  1  0  0  0  0
 15 24  1  0  0  0  0
 15 30  2  0  0  0  0
 16 25  2  0  0  0  0
 16 30  1  0  0  0  0
 17 29  2  0  0  0  0
 17 31  1  0  0  0  0
 18 32  1  0  0  0  0
 19 32  1  0  0  0  0
 19 33  2  0  0  0  0
 19 35  1  0  0  0  0
 20 22  2  0  0  0  0
 20 42  1  0  0  0  0
 21 23  2  0  0  0  0
 21 43  1  0  0  0  0
 22 51  1  0  0  0  0
 23 44  1  0  0  0  0
 24 68  1  0  0  0  0
 25 69  1  0  0  0  0
 26 80  1  0  0  0  0
 27 81  1  0  0  0  0
 28 31  2  0  0  0  0
 28 80  1  0  0  0  0
 29 82  1  0  0  0  0
 30 83  1  0  0  0  0
 31 84  1  0  0  0  0
 32 62  2  0  0  0  0
 33 63  1  0  0  0  0
 33 66  1  0  0  0  0
 34 36  2  0  0  0  0
 34 81  1  0  0  0  0
 35 67  1  0  0  0  0
 35 74  2  0  0  0  0
 36 37  1  0  0  0  0
 36 72  1  0  0  0  0
 37 68  1  0  0  0  0
 37 75  2  0  0  0  0
 38 52  1  0  0  0  0
 38 70  1  0  0  0  0
 38 76  2  0  0  0  0
 39 59  1  0  0  0  0
 39 64  1  0  0  0  0
 39 77  2  0  0  0  0
 40 60  1  0  0  0  0
 40 71  1  0  0  0  0
 40 78  2  0  0  0  0
 41 65  1  0  0  0  0
 41 69  1  0  0  0  0
 41 79  2  0  0  0  0
 42 45  1  0  0  0  0
 43 52  1  0  0  0  0
 44 64  1  0  0  0  0
 45 47  1  0  0  0  0
 46 48  1  0  0  0  0
 46 49  1  0  0  0  0
 47 51  1  0  0  0  0
 48 53  1  0  0  0  0
 49 65  1  0  0  0  0
 50 53  1  0  0  0  0
 50 65  1  0  0  0  0
 51 70  1  0  0  0  0
 52 64  1  0  0  0  0
 53 63  1  0  0  0  0
 54 60  1  0  0  0  0
 55 61  1  0  0  0  0
 56 61  1  0  0  0  0
 57 61  1  0  0  0  0
 58 73  1  0  0  0  0
 59 61  1  0  0  0  0
 59 71  1  0  0  0  0
 60 73  1  0  0  0  0
 62 63  1  0  0  0  0
M  CHG  2  72   1  73   1
M  ISO  4  34 101  41 100  69 100  81 101
M  END
> <Batch ID>
0157

> <Smiles>
CNC(C)C(=O)NC(C(=O)N1Cc2cc([101O:1][101CH2:1]C(=N)C(=O)Nc3cc(F)cc([100NH:0][100C:0](=O)N4CCCC(n5nc(-c6ccc(Oc7ccc(F)cc7F)cc6)c(C(N)=O)c5N)C4)c3)ccc2CC1C(=O)NC1CCCc2ccccc21)C(C)(C)C

> <Shape>
0.216

> <Color>
0.173

> <Negative vol penalty>
0.000

$$$$

  -OEChem-04052303413D

 83 92  0     1  0  0  0  0  0999 V2000
  -29.6961  -36.4113   24.2979 C   0  0  0  0  0  0  0  0  0  0  0  0
  -29.7729  -35.0670   23.9483 C   0  0  0  0  0  0  0  0  0  0  0  0
  -25.9759  -13.6718   19.8025 C   0  0  0  0  0  0  0  0  0  0  0  0
  -26.3753  -12.6492   21.9547 C   0  0  0  0  0  0  0  0  0  0  0  0
  -28.5689  -36.8948   24.9608 C   0  0  0  0  0  0  0  0  0  0  0  0
  -28.7227  -34.2050   24.2624 C   0  0  0  0  0  0  0  0  0  0  0  0
  -27.4967  -31.1526   20.4121 C   0  0  0  0  0  0  0  0  0  0  0  0
  -24.6622  -13.2036   19.8239 C   0  0  0  0  0  0  0  0  0  0  0  0
  -25.0615  -12.1811   21.9761 C   0  0  0  0  0  0  0  0  0  0  0  0
  -28.3220  -30.0524   20.1841 C   0  0  0  0  0  0  0  0  0  0  0  0
  -21.9876  -13.4210   22.6353 C   0  0  0  0  0  0  0  0  0  0  0  0
  -21.2672  -13.5704   23.8203 C   0  0  0  0  0  0  0  0  0  0  0  0
  -26.7389  -28.6356   21.3268 C   0  0  0  0  0  0  0  0  0  0  0  0
  -20.9853  -11.1745   23.9510 C   0  0  0  0  0  0  0  0  0  0  0  0
  -30.9097  -22.2323   22.6602 C   0  0  0  0  0  0  0  0  0  0  0  0
  -26.8325  -13.3945   20.8680 C   0  0  0  0  0  0  0  0  0  0  0  0
  -29.1822  -13.5817   19.8924 C   0  0  0  0  0  0  0  0  0  0  0  0
  -27.5002  -36.0403   25.2747 C   0  0  0  0  0  0  0  0  0  0  0  0
  -26.2894  -31.0043   21.1099 C   0  0  0  0  0  0  0  0  0  0  0  0
  -27.5807  -34.6772   24.9314 C   0  0  0  0  0  0  0  0  0  0  0  0
  -25.8988  -29.7351   21.5601 C   0  0  0  0  0  0  0  0  0  0  0  0
  -24.2049  -12.4583   20.9107 C   0  0  0  0  0  0  0  0  0  0  0  0
  -27.9446  -28.7941   20.6440 C   0  0  0  0  0  0  0  0  0  0  0  0
  -22.2068  -12.1483   22.1081 C   0  0  0  0  0  0  0  0  0  0  0  0
  -20.7661  -12.4472   24.4782 C   0  0  0  0  0  0  0  0  0  0  0  0
  -21.7057  -11.0251   22.7660 C   0  0  0  0  0  0  0  0  0  0  0  0
  -28.1899  -13.8774   20.8462 C   0  0  0  0  0  0  0  0  0  0  0  0
  -30.2858  -14.2804   20.3172 C   0  0  0  0  0  0  0  0  0  0  0  0
  -30.2761  -21.1136   22.1610 C   0  0  0  0  0  0  0  0  0  0  0  0
  -29.8455  -23.1739   20.9896 C   0  0  0  0  0  0  0  0  0  0  0  0
  -29.1126  -12.7499   18.7267 C   0  0  0  0  0  0  0  0  0  0  0  0
  -25.1140  -32.1567   23.8291 C   0  0  0  0  0  0  0  0  0  0  0  0
  -22.4151  -30.6482   22.8479 C   0  0  0  0  0  0  0  0  0  0  0  0
  -20.9960  -28.1871   20.9569 C   0  0  0  0  0  0  0  0  0  0  0  0
  -30.9735  -19.1981   23.6411 C   0  0  0  0  0  0  0  0  0  0  0  0
  -26.3230  -36.5990   26.0341 C   0  0  0  0  0  0  0  0  0  0  0  0
  -25.3975  -32.1964   21.3243 C   0  0  0  0  0  0  0  0  0  0  0  0
  -24.6029  -29.5191   22.2966 C   0  0  0  0  0  0  0  0  0  0  0  0
  -25.0914  -35.6978   25.9974 C   0  0  0  0  0  0  0  0  0  0  0  0
  -32.3411  -15.9766   24.2962 C   0  0  0  0  0  0  0  0  0  0  0  0
  -25.4789  -34.2519   26.2906 C   0  0  0  0  0  0  0  0  0  0  0  0
  -30.3883  -25.3265   19.7750 C   0  0  0  0  0  0  0  0  0  0  0  0
  -28.0032  -24.8307   20.4744 C   0  0  0  0  0  0  0  0  0  0  0  0
  -31.5261  -15.0466   23.3945 C   0  0  0  0  0  0  0  0  0  0  0  0
  -29.8775  -26.3764   18.7844 C   0  0  0  0  0  0  0  0  0  0  0  0
  -27.4958  -25.8788   19.4806 C   0  0  0  0  0  0  0  0  0  0  0  0
  -31.4837  -17.1014   24.8735 C   0  0  0  0  0  0  0  0  0  0  0  0
  -29.9149  -16.9491   22.9801 C   0  0  0  0  0  0  0  0  0  0  0  0
  -26.4513  -33.7161   25.2328 C   0  0  1  0  0  0  0  0  0  0  0  0
  -29.3418  -24.2266   20.0188 C   0  0  0  0  0  0  0  0  0  0  0  0
  -24.4357  -32.0201   22.4953 C   0  0  1  0  0  0  0  0  0  0  0  0
  -30.7501  -15.8378   22.3234 C   0  0  2  0  0  0  0  0  0  0  0  0
  -28.5334  -26.9814   19.2162 C   0  0  0  0  0  0  0  0  0  1  0  0
  -28.0240  -27.9600   18.1565 C   0  0  0  0  0  0  0  0  0  0  0  0
  -18.7712  -27.1744   20.3894 C   0  0  0  0  0  0  0  0  0  0  0  0
  -22.3698  -29.2376   25.5531 C   0  0  0  0  0  0  0  0  0  0  0  0
  -20.7467  -27.5926   24.5898 C   0  0  0  0  0  0  0  0  0  0  0  0
  -20.1331  -30.0058   24.7395 C   0  0  0  0  0  0  0  0  0  0  0  0
  -21.2908  -28.8596   18.0899 C   0  0  0  0  0  0  0  0  0  0  0  0
  -21.8385  -29.2645   23.0266 C   0  0  1  0  0  0  0  0  0  0  0  0
  -19.8187  -28.2053   19.9987 C   0  0  2  0  0  0  0  0  0  0  0  0
  -21.2974  -29.0292   24.4651 C   0  0  0  0  0  0  0  0  0  0  0  0
  -30.6643  -23.4146   21.9895 N   0  0  0  0  0  0  0  0  0  0  0  0
  -28.6247  -14.6997   21.8047 N   0  0  0  0  0  0  0  0  0  0  0  0
  -29.9025  -14.9266   21.4554 N   0  0  0  0  0  0  0  0  0  0  0  0
  -23.7682  -30.7168   22.4872 N   0  0  0  0  0  0  0  0  0  0  0  0
  -30.7818  -17.8093   23.8007 N   0  0  0  0  0  0  0  0  0  0  0  0
  -31.5370  -14.3988   19.8244 N   0  0  0  0  0  0  0  0  0  0  0  0
  -29.4360  -11.3921   18.8544 N   0  0  0  0  0  0  0  0  0  0  0  0
  -30.2801  -19.7563   22.5677 N   0  0  0  0  0  0  0  0  0  0  0  0
  -25.7402  -33.3736   24.0198 N   0  0  0  0  0  0  0  0  0  0  0  0
  -20.8380  -29.1006   21.9776 N   0  0  0  0  0  0  0  0  0  0  0  0
  -20.2753  -27.9090   18.6114 N   0  3  0  0  0  0  0  0  0  0  0  0
  -28.7895  -13.2008   17.6016 O   0  0  0  0  0  0  0  0  0  0  0  0
  -25.0710  -31.2274   24.6267 O   0  0  0  0  0  0  0  0  0  0  0  0
  -21.6896  -31.6318   23.0149 O   0  0  0  0  0  0  0  0  0  0  0  0
  -21.9577  -27.4349   20.8162 O   0  0  0  0  0  0  0  0  0  0  0  0
  -31.7207  -19.8396   24.3841 O   0  0  0  0  0  0  0  0  0  0  0  0
  -22.9229  -12.0016   20.9319 O   0  0  0  0  0  0  0  0  0  0  0  0
  -28.7486  -27.7186   20.4233 O   0  0  0  0  0  0  0  0  0  1  0  0
  -20.0756  -12.5908   25.6170 F   0  0  0  0  0  0  0  0  0  0  0  0
  -21.9141   -9.7998   22.2650 F   0  0  0  0  0  0  0  0  0  0  0  0
  -29.3305  -21.5482   20.7978 S   0  0  0  0  0  0  0  0  0  0  0  0
  1  2  1  0  0  0  0
  1  5  2  0  0  0  0
  2  6  2  0  0  0  0
  3  8  2  0  0  0  0
  3 16  1  0  0  0  0
  4  9  1  0  0  0  0
  4 16  2  0  0  0  0
  5 18  1  0  0  0  0
  6 20  1  0  0  0  0
  7 10  2  0  0  0  0
  7 19  1  0  0  0  0
  8 22  1  0  0  0  0
  9 22  2  0  0  0  0
 10 23  1  0  0  0  0
 11 12  2  0  0  0  0
 11 24  1  0  0  0  0
 12 25  1  0  0  0  0
 13 21  1  0  0  0  0
 13 23  2  0  0  0  0
 14 25  2  0  0  0  0
 14 26  1  0  0  0  0
 15 29  2  0  0  0  0
 15 63  1  0  0  0  0
 16 27  1  0  0  0  0
 17 27  1  0  0  0  0
 17 28  2  0  0  0  0
 17 31  1  0  0  0  0
 18 20  2  0  0  0  0
 18 36  1  0  0  0  0
 19 21  2  0  0  0  0
 19 37  1  0  0  0  0
 20 49  1  0  0  0  0
 21 38  1  0  0  0  0
 22 79  1  0  0  0  0
 23 80  1  0  0  0  0
 24 26  2  0  0  0  0
 24 79  1  0  0  0  0
 25 81  1  0  0  0  0
 26 82  1  0  0  0  0
 27 64  2  0  0  0  0
 28 65  1  0  0  0  0
 28 68  1  0  0  0  0
 29 70  1  0  0  0  0
 29 83  1  0  0  0  0
 30 50  1  0  0  0  0
 30 63  2  0  0  0  0
 30 83  1  0  0  0  0
 31 69  1  0  0  0  0
 31 74  2  0  0  0  0
 32 51  1  0  0  0  0
 32 71  1  0  0  0  0
 32 75  2  0  0  0  0
 33 60  1  0  0  0  0
 33 66  1  0  0  0  0
 33 76  2  0  0  0  0
 34 61  1  0  0  0  0
 34 72  1  0  0  0  0
 34 77  2  0  0  0  0
 35 67  1  0  0  0  0
 35 70  1  0  0  0  0
 35 78  2  0  0  0  0
 36 39  1  0  0  0  0
 37 51  1  0  0  0  0
 38 66  1  0  0  0  0
 39 41  1  0  0  0  0
 40 44  1  0  0  0  0
 40 47  1  0  0  0  0
 41 49  1  0  0  0  0
 42 45  1  0  0  0  0
 42 50  1  0  0  0  0
 43 46  1  0  0  0  0
 43 50  1  0  0  0  0
 44 52  1  0  0  0  0
 45 53  1  0  0  0  0
 46 53  1  0  0  0  0
 47 67  1  0  0  0  0
 48 52  1  0  0  0  0
 48 67  1  0  0  0  0
 49 71  1  0  0  0  0
 51 66  1  0  0  0  0
 52 65  1  0  0  0  0
 53 54  1  0  0  0  0
 53 80  1  0  0  0  0
 55 61  1  0  0  0  0
 56 62  1  0  0  0  0
 57 62  1  0  0  0  0
 58 62  1  0  0  0  0
 59 73  1  0  0  0  0
 60 62  1  0  0  0  0
 60 72  1  0  0  0  0
 61 73  1  0  0  0  0
 64 65  1  0  0  0  0
M  CHG  1  73   1
M  ISO  4  35 100  53 101  70 100  80 101
M  END
> <Batch ID>
0157

> <Smiles>
CNC(C)C(=O)NC(C(=O)N1Cc2cc([101O:1][101C:1]3(C)CCC(c4ncc([100NH:0][100C:0](=O)N5CCCC(n6nc(-c7ccc(Oc8ccc(F)cc8F)cc7)c(C(N)=O)c6N)C5)s4)CC3)ccc2CC1C(=O)NC1CCCc2ccccc21)C(C)(C)C

> <Shape>
0.308

> <Color>
0.067

> <Negative vol penalty>
0.000

$$$$

  -OEChem-04052303413D

 84 93  0     1  0  0  0  0  0999 V2000
  -19.3820  -27.3937   26.5910 C   0  0  0  0  0  0  0  0  0  0  0  0
  -20.6360  -27.0039   26.1317 C   0  0  0  0  0  0  0  0  0  0  0  0
  -24.5858   -9.3753   21.5535 C   0  0  0  0  0  0  0  0  0  0  0  0
  -23.0063  -10.7540   20.3529 C   0  0  0  0  0  0  0  0  0  0  0  0
  -18.4378  -27.8945   25.6957 C   0  0  0  0  0  0  0  0  0  0  0  0
  -20.9462  -27.1136   24.7766 C   0  0  0  0  0  0  0  0  0  0  0  0
  -26.3982  -28.4840   22.3470 C   0  0  0  0  0  0  0  0  0  0  0  0
  -23.5948   -8.4143   21.7536 C   0  0  0  0  0  0  0  0  0  0  0  0
  -22.0153   -9.7929   20.5530 C   0  0  0  0  0  0  0  0  0  0  0  0
  -27.4106  -27.6917   21.8076 C   0  0  0  0  0  0  0  0  0  0  0  0
  -22.1163   -5.9519   19.9693 C   0  0  0  0  0  0  0  0  0  0  0  0
  -22.4537   -4.6169   19.7468 C   0  0  0  0  0  0  0  0  0  0  0  0
  -26.5302  -28.0830   19.5960 C   0  0  0  0  0  0  0  0  0  0  0  0
  -28.7244  -20.2091   19.7354 C   0  0  0  0  0  0  0  0  0  0  0  0
  -21.9137   -4.0976   22.0437 C   0  0  0  0  0  0  0  0  0  0  0  0
  -28.2653  -18.8518   17.9053 C   0  0  0  0  0  0  0  0  0  0  0  0
  -24.2915  -10.5452   20.8532 C   0  0  0  0  0  0  0  0  0  0  0  0
  -26.2109  -11.6235   19.5644 C   0  0  0  0  0  0  0  0  0  0  0  0
  -18.7398  -28.0195   24.3305 C   0  0  0  0  0  0  0  0  0  0  0  0
  -25.4362  -29.0739   21.5146 C   0  0  0  0  0  0  0  0  0  0  0  0
  -20.0046  -27.6154   23.8621 C   0  0  0  0  0  0  0  0  0  0  0  0
  -25.5081  -28.8845   20.1272 C   0  0  0  0  0  0  0  0  0  0  0  0
  -28.1713  -18.9799   19.2736 C   0  0  0  0  0  0  0  0  0  0  0  0
  -22.3096   -8.6231   21.2533 C   0  0  0  0  0  0  0  0  0  0  0  0
  -27.4750  -27.4887   20.4322 C   0  0  0  0  0  0  0  0  0  0  0  0
  -21.6778   -6.3598   21.2291 C   0  0  0  0  0  0  0  0  0  0  0  0
  -22.3523   -3.6897   20.7839 C   0  0  0  0  0  0  0  0  0  0  0  0
  -21.5764   -5.4326   22.2662 C   0  0  0  0  0  0  0  0  0  0  0  0
  -25.3145  -11.5386   20.6466 C   0  0  0  0  0  0  0  0  0  0  0  0
  -29.2203  -20.9737   18.7023 C   0  0  0  0  0  0  0  0  0  0  0  0
  -26.9725  -12.7338   19.8357 C   0  0  0  0  0  0  0  0  0  0  0  0
  -29.6385  -24.6144   19.6613 C   0  0  0  0  0  0  0  0  0  0  0  0
  -26.3431  -10.7747   18.4165 C   0  0  0  0  0  0  0  0  0  0  0  0
  -29.8548  -22.2924   18.8778 C   0  0  0  0  0  0  0  0  0  0  0  0
  -22.2792  -28.8459   21.2229 C   0  0  0  0  0  0  0  0  0  0  0  0
  -22.6926  -31.2580   19.0938 C   0  0  0  0  0  0  0  0  0  0  0  0
  -24.7719  -32.8971   16.9405 C   0  0  0  0  0  0  0  0  0  0  0  0
  -27.4480  -18.0286   21.4914 C   0  0  0  0  0  0  0  0  0  0  0  0
  -17.6703  -28.5222   23.3934 C   0  0  0  0  0  0  0  0  0  0  0  0
  -24.3662  -29.9477   22.1097 C   0  0  0  0  0  0  0  0  0  0  0  0
  -24.5115  -29.5121   19.1884 C   0  0  0  0  0  0  0  0  0  0  0  0
  -18.2081  -28.9571   22.0326 C   0  0  0  0  0  0  0  0  0  0  0  0
  -27.3274  -15.5392   24.0340 C   0  0  0  0  0  0  0  0  0  0  0  0
  -19.1736  -27.9126   21.4815 C   0  0  0  0  0  0  0  0  0  0  0  0
  -26.8667  -14.2834   23.2904 C   0  0  0  0  0  0  0  0  0  0  0  0
  -27.2891  -24.5732   19.9192 C   0  0  0  0  0  0  0  0  0  0  0  0
  -26.6485  -16.7977   23.4965 C   0  0  0  0  0  0  0  0  0  0  0  0
  -27.7687  -23.1273   19.8684 C   0  0  0  0  0  0  0  0  0  0  0  0
  -26.2987  -15.7355   21.3015 C   0  0  0  0  0  0  0  0  0  0  0  0
  -20.3872  -27.7424   22.4034 C   0  0  1  0  0  0  0  0  0  0  0  0
  -28.5222  -25.3786   20.3268 C   0  0  2  0  0  0  0  0  0  1  0  0
  -23.1369  -30.0796   21.2159 C   0  0  1  0  0  0  0  0  0  0  0  0
  -27.0038  -14.4501   21.7643 C   0  0  2  0  0  0  0  0  0  0  0  0
  -24.8144  -34.8071   15.3134 C   0  0  0  0  0  0  0  0  0  0  0  0
  -21.1705  -29.5610   17.0656 C   0  0  0  0  0  0  0  0  0  0  0  0
  -22.0557  -31.0511   15.2589 C   0  0  0  0  0  0  0  0  0  0  0  0
  -20.5848  -31.9922   17.0403 C   0  0  0  0  0  0  0  0  0  0  0  0
  -26.8605  -34.3170   18.4836 C   0  0  0  0  0  0  0  0  0  0  0  0
  -22.9602  -31.3404   17.6103 C   0  0  1  0  0  0  0  0  0  0  0  0
  -25.0631  -34.3748   16.7501 C   0  0  2  0  0  0  0  0  0  0  0  0
  -21.7106  -30.9726   16.7614 C   0  0  0  0  0  0  0  0  0  0  0  0
  -25.4894  -12.5169   21.5390 N   0  0  0  0  0  0  0  0  0  0  0  0
  -26.5045  -13.2270   21.0181 N   0  0  0  0  0  0  0  0  0  0  0  0
  -29.1641  -23.2775   19.4233 N   0  0  0  0  0  0  0  0  0  0  0  0
  -23.4804  -30.3528   19.8189 N   0  0  0  0  0  0  0  0  0  0  0  0
  -26.8236  -16.8912   22.0455 N   0  0  0  0  0  0  0  0  0  0  0  0
  -27.9903  -13.3265   19.1760 N   0  0  0  0  0  0  0  0  0  0  0  0
  -25.4798   -9.6774   18.2939 N   0  0  0  0  0  0  0  0  0  0  0  0
  -27.5885  -17.9910   20.1045 N   0  0  0  0  0  0  0  0  0  0  0  0
  -21.3200  -28.8332   22.2176 N   0  0  0  0  0  0  0  0  0  0  0  0
  -23.4770  -32.6820   17.3627 N   0  0  0  0  0  0  0  0  0  0  0  0
  -31.1132  -22.4692   18.4861 N   0  3  0  0  0  0  0  0  0  0  0  0
  -26.4833  -34.6709   17.0909 N   0  3  0  0  0  0  0  0  0  0  0  0
  -30.7532  -25.0024   19.3632 O   0  0  0  0  0  0  0  0  0  0  0  0
  -27.2123  -10.9735   17.5342 O   0  0  0  0  0  0  0  0  0  0  0  0
  -22.4722  -27.9710   20.3869 O   0  0  0  0  0  0  0  0  0  0  0  0
  -21.8217  -31.9756   19.5920 O   0  0  0  0  0  0  0  0  0  0  0  0
  -25.6083  -32.0211   16.7318 O   0  0  0  0  0  0  0  0  0  0  0  0
  -27.8544  -18.9548   22.1979 O   0  0  0  0  0  0  0  0  0  0  0  0
  -21.3425   -7.6854   21.4482 O   0  0  0  0  0  0  0  0  0  0  0  0
  -28.4617  -26.7152   19.9031 O   0  0  0  0  0  0  0  0  0  1  0  0
  -22.6748   -2.4074   20.5697 F   0  0  0  0  0  0  0  0  0  0  0  0
  -21.1545   -5.8183   23.4783 F   0  0  0  0  0  0  0  0  0  0  0  0
  -29.0180  -20.2099   17.1832 S   0  0  0  0  0  0  0  0  0  0  0  0
  1  2  1  0  0  0  0
  1  5  2  0  0  0  0
  2  6  2  0  0  0  0
  3  8  2  0  0  0  0
  3 17  1  0  0  0  0
  4  9  1  0  0  0  0
  4 17  2  0  0  0  0
  5 19  1  0  0  0  0
  6 21  1  0  0  0  0
  7 10  2  0  0  0  0
  7 20  1  0  0  0  0
  8 24  1  0  0  0  0
  9 24  2  0  0  0  0
 10 25  1  0  0  0  0
 11 12  2  0  0  0  0
 11 26  1  0  0  0  0
 12 27  1  0  0  0  0
 13 22  1  0  0  0  0
 13 25  2  0  0  0  0
 14 23  1  0  0  0  0
 14 30  2  0  0  0  0
 15 27  2  0  0  0  0
 15 28  1  0  0  0  0
 16 23  2  0  0  0  0
 16 84  1  0  0  0  0
 17 29  1  0  0  0  0
 18 29  1  0  0  0  0
 18 31  2  0  0  0  0
 18 33  1  0  0  0  0
 19 21  2  0  0  0  0
 19 39  1  0  0  0  0
 20 22  2  0  0  0  0
 20 40  1  0  0  0  0
 21 50  1  0  0  0  0
 22 41  1  0  0  0  0
 23 69  1  0  0  0  0
 24 80  1  0  0  0  0
 25 81  1  0  0  0  0
 26 28  2  0  0  0  0
 26 80  1  0  0  0  0
 27 82  1  0  0  0  0
 28 83  1  0  0  0  0
 29 62  2  0  0  0  0
 30 34  1  0  0  0  0
 30 84  1  0  0  0  0
 31 63  1  0  0  0  0
 31 67  1  0  0  0  0
 32 51  1  0  0  0  0
 32 64  1  0  0  0  0
 32 74  2  0  0  0  0
 33 68  1  0  0  0  0
 33 75  2  0  0  0  0
 34 64  1  0  0  0  0
 34 72  2  0  0  0  0
 35 52  1  0  0  0  0
 35 70  1  0  0  0  0
 35 76  2  0  0  0  0
 36 59  1  0  0  0  0
 36 65  1  0  0  0  0
 36 77  2  0  0  0  0
 37 60  1  0  0  0  0
 37 71  1  0  0  0  0
 37 78  2  0  0  0  0
 38 66  1  0  0  0  0
 38 69  1  0  0  0  0
 38 79  2  0  0  0  0
 39 42  1  0  0  0  0
 40 52  1  0  0  0  0
 41 65  1  0  0  0  0
 42 44  1  0  0  0  0
 43 45  1  0  0  0  0
 43 47  1  0  0  0  0
 44 50  1  0  0  0  0
 45 53  1  0  0  0  0
 46 48  1  0  0  0  0
 46 51  1  0  0  0  0
 47 66  1  0  0  0  0
 48 64  1  0  0  0  0
 49 53  1  0  0  0  0
 49 66  1  0  0  0  0
 50 70  1  0  0  0  0
 51 81  1  0  0  0  0
 52 65  1  0  0  0  0
 53 63  1  0  0  0  0
 54 60  1  0  0  0  0
 55 61  1  0  0  0  0
 56 61  1  0  0  0  0
 57 61  1  0  0  0  0
 58 73  1  0  0  0  0
 59 61  1  0  0  0  0
 59 71  1  0  0  0  0
 60 73  1  0  0  0  0
 62 63  1  0  0  0  0
M  CHG  2  72   1  73   1
M  ISO  4  38 100  51 101  69 100  81 101
M  END
> <Batch ID>
0157

> <Smiles>
CNC(C)C(=O)NC(C(=O)N1Cc2cc([101O:1][101CH:1]3CCN(C(=N)c4cc([100NH:0][100C:0](=O)N5CCCC(n6nc(-c7ccc(Oc8ccc(F)cc8F)cc7)c(C(N)=O)c6N)C5)cs4)C3=O)ccc2CC1C(=O)NC1CCCc2ccccc21)C(C)(C)C

> <Shape>
0.276

> <Color>
0.124

> <Negative vol penalty>
0.000

$$$$

  -OEChem-04052303413D

 88 97  0     1  0  0  0  0  0999 V2000
  -20.6882   -7.5525   18.7025 C   0  0  0  0  0  0  0  0  0  0  0  0
  -21.3485   -8.5934   18.0574 C   0  0  0  0  0  0  0  0  0  0  0  0
  -25.2927  -35.1385   26.4841 C   0  0  0  0  0  0  0  0  0  0  0  0
  -27.4134  -34.3616   25.6261 C   0  0  0  0  0  0  0  0  0  0  0  0
  -20.9902   -7.2539   20.0305 C   0  0  0  0  0  0  0  0  0  0  0  0
  -22.3103   -9.3369   18.7403 C   0  0  0  0  0  0  0  0  0  0  0  0
  -28.4575  -12.8513   17.6552 C   0  0  0  0  0  0  0  0  0  0  0  0
  -25.8959  -35.4355   27.7062 C   0  0  0  0  0  0  0  0  0  0  0  0
  -28.0166  -34.6587   26.8482 C   0  0  0  0  0  0  0  0  0  0  0  0
  -29.0413  -14.0964   17.8847 C   0  0  0  0  0  0  0  0  0  0  0  0
  -27.8285  -37.8907   28.9984 C   0  0  0  0  0  0  0  0  0  0  0  0
  -27.5239  -39.1163   29.5907 C   0  0  0  0  0  0  0  0  0  0  0  0
  -28.3790  -23.5144   18.0631 C   0  0  0  0  0  0  0  0  0  0  0  0
  -28.5976  -22.1066   18.0820 C   0  0  0  0  0  0  0  0  0  0  0  0
  -29.5374  -13.4392   20.1521 C   0  0  0  0  0  0  0  0  0  0  0  0
  -26.6486  -37.9637   31.5253 C   0  0  0  0  0  0  0  0  0  0  0  0
  -26.0514  -34.6014   25.4441 C   0  0  0  0  0  0  0  0  0  0  0  0
  -25.2922  -35.1475   23.0707 C   0  0  0  0  0  0  0  0  0  0  0  0
  -21.9631   -7.9879   20.7271 C   0  0  0  0  0  0  0  0  0  0  0  0
  -28.3994  -11.8932   18.6774 C   0  0  0  0  0  0  0  0  0  0  0  0
  -22.6246   -9.0487   20.0793 C   0  0  0  0  0  0  0  0  0  0  0  0
  -28.9546  -12.1817   19.9323 C   0  0  0  0  0  0  0  0  0  0  0  0
  -27.2579  -35.1957   27.8882 C   0  0  0  0  0  0  0  0  0  0  0  0
  -29.5788  -14.3916   19.1341 C   0  0  0  0  0  0  0  0  0  0  0  0
  -27.5431  -36.7016   29.6695 C   0  0  0  0  0  0  0  0  0  0  0  0
  -26.9340  -39.1528   30.8542 C   0  0  0  0  0  0  0  0  0  0  0  0
  -26.9532  -36.7382   30.9330 C   0  0  0  0  0  0  0  0  0  0  0  0
  -25.4288  -34.2937   24.1817 C   0  0  0  0  0  0  0  0  0  0  0  0
  -28.8038  -24.1197   19.2253 C   0  0  0  0  0  0  0  0  0  0  0  0
  -24.6358  -34.3884   22.1330 C   0  0  0  0  0  0  0  0  0  0  0  0
  -29.1815  -21.6895   19.2580 C   0  0  0  0  0  0  0  0  0  0  0  0
  -25.7206  -36.5053   22.9014 C   0  0  0  0  0  0  0  0  0  0  0  0
  -28.7565  -25.5374   19.5939 C   0  0  0  0  0  0  0  0  0  0  0  0
  -26.0563  -10.4100   20.2311 C   0  0  0  0  0  0  0  0  0  0  0  0
  -29.8074  -18.0045   19.4153 C   0  0  0  0  0  0  0  0  0  0  0  0
  -28.5093   -8.7416   21.5434 C   0  0  0  0  0  0  0  0  0  0  0  0
  -31.8208   -8.6190   22.3590 C   0  0  0  0  0  0  0  0  0  0  0  0
  -24.3093  -28.3379   21.5915 C   0  0  0  0  0  0  0  0  0  0  0  0
  -22.2216   -7.6586   22.1760 C   0  0  0  0  0  0  0  0  0  0  0  0
  -27.7901  -10.5450   18.4059 C   0  0  0  0  0  0  0  0  0  0  0  0
  -28.9357  -11.1803   21.0571 C   0  0  0  0  0  0  0  0  0  0  0  0
  -23.5211   -8.2528   22.7132 C   0  0  0  0  0  0  0  0  0  0  0  0
  -21.5481  -30.7519   21.7415 C   0  0  0  0  0  0  0  0  0  0  0  0
  -23.6476   -9.7170   22.3047 C   0  0  0  0  0  0  0  0  0  0  0  0
  -22.2157  -31.9940   22.3333 C   0  0  0  0  0  0  0  0  0  0  0  0
  -26.5320  -28.9520   18.7286 C   0  0  0  0  0  0  0  0  0  0  0  0
  -22.2065  -29.4626   22.2272 C   0  0  0  0  0  0  0  0  0  0  0  0
  -25.6971  -29.5868   19.8360 C   0  0  0  0  0  0  0  0  0  0  0  0
  -24.3294  -30.6495   22.6238 C   0  0  0  0  0  0  0  0  0  0  0  0
  -26.2849  -27.3456   20.4703 C   0  0  0  0  0  0  0  0  0  0  0  0
  -23.6918   -9.8622   20.7788 C   0  0  1  0  0  0  0  0  0  0  0  0
  -27.3262   -9.8328   19.6727 C   0  0  1  0  0  0  0  0  0  0  0  0
  -23.7386  -31.9679   22.1052 C   0  0  2  0  0  0  0  0  0  0  0  0
  -27.3175  -27.8853   19.4883 C   0  0  1  0  0  0  0  0  0  0  0  0
  -33.5255   -7.1412   23.4579 C   0  0  0  0  0  0  0  0  0  0  0  0
  -27.3855   -9.4851   24.2810 C   0  0  0  0  0  0  0  0  0  0  0  0
  -29.5820   -8.8244   25.2846 C   0  0  0  0  0  0  0  0  0  0  0  0
  -28.1969   -7.1270   24.0917 C   0  0  0  0  0  0  0  0  0  0  0  0
  -33.4348   -8.4444   19.8844 C   0  0  0  0  0  0  0  0  0  0  0  0
  -29.3090  -19.2556   18.7237 C   0  0  0  0  0  0  0  0  0  0  0  0
  -29.6467  -16.7154   18.6331 C   0  0  0  0  0  0  0  0  0  1  0  0
  -29.3899   -8.9128   22.7575 C   0  0  1  0  0  0  0  0  0  0  0  0
  -32.8717   -7.5445   22.1454 C   0  0  2  0  0  0  0  0  0  0  0  0
  -28.6374   -8.6071   24.0833 C   0  0  0  0  0  0  0  0  0  0  0  0
  -24.9012  -33.0849   23.9709 N   0  0  0  0  0  0  0  0  0  0  0  0
  -24.4268  -33.1736   22.7167 N   0  0  0  0  0  0  0  0  0  0  0  0
  -28.3233   -9.8785   20.7442 N   0  0  0  0  0  0  0  0  0  0  0  0
  -23.6534  -29.4997   22.0134 N   0  0  0  0  0  0  0  0  0  0  0  0
  -25.4221  -28.4881   20.7647 N   0  0  0  0  0  0  0  0  0  0  0  0
  -24.2226  -34.6483   20.8743 N   0  0  0  0  0  0  0  0  0  0  0  0
  -26.3809  -37.1351   23.9652 N   0  0  0  0  0  0  0  0  0  0  0  0
  -29.5169  -20.4165   19.5847 N   0  0  0  0  0  0  0  0  0  0  0  0
  -25.0039   -9.5157   20.2760 N   0  0  0  0  0  0  0  0  0  0  0  0
  -30.5644   -8.0775   22.5309 N   0  0  0  0  0  0  0  0  0  0  0  0
  -33.9340   -8.0352   21.2225 N   0  3  0  0  0  0  0  0  0  0  0  0
  -25.5092  -37.1464   21.8442 O   0  0  0  0  0  0  0  0  0  0  0  0
  -29.1644  -25.9788   20.6630 O   0  0  0  0  0  0  0  0  0  0  0  0
  -26.0334  -11.5797   20.5958 O   0  0  0  0  0  0  0  0  0  0  0  0
  -30.3110  -18.0205   20.5378 O   0  0  0  0  0  0  0  0  0  0  0  0
  -28.0106   -7.6380   21.3087 O   0  0  0  0  0  0  0  0  0  0  0  0
  -32.0883   -9.8184   22.3758 O   0  0  0  0  0  0  0  0  0  0  0  0
  -23.8917  -27.2140   21.9007 O   0  0  0  0  0  0  0  0  0  0  0  0
  -27.8469  -35.4857   29.0805 O   0  0  0  0  0  0  0  0  0  0  0  0
  -30.1545  -15.6189   19.3634 O   0  0  0  0  0  0  0  0  0  1  0  0
  -26.6429  -40.3298   31.4235 F   0  0  0  0  0  0  0  0  0  0  0  0
  -26.6778  -35.5992   31.5831 F   0  0  0  0  0  0  0  0  0  0  0  0
  -29.4633  -22.9924   20.3328 S   0  0  0  0  0  0  0  0  0  0  0  0
  -27.9903  -26.6023   18.4043 S   0  0  0  0  0  0  0  0  0  0  0  0
  1  2  1  0  0  0  0
  1  5  2  0  0  0  0
  2  6  2  0  0  0  0
  3  8  2  0  0  0  0
  3 17  1  0  0  0  0
  4  9  1  0  0  0  0
  4 17  2  0  0  0  0
  5 19  1  0  0  0  0
  6 21  1  0  0  0  0
  7 10  2  0  0  0  0
  7 20  1  0  0  0  0
  8 23  1  0  0  0  0
  9 23  2  0  0  0  0
 10 24  1  0  0  0  0
 11 12  2  0  0  0  0
 11 25  1  0  0  0  0
 12 26  1  0  0  0  0
 13 14  1  0  0  0  0
 13 29  2  0  0  0  0
 14 31  2  0  0  0  0
 15 22  1  0  0  0  0
 15 24  2  0  0  0  0
 16 26  2  0  0  0  0
 16 27  1  0  0  0  0
 17 28  1  0  0  0  0
 18 28  1  0  0  0  0
 18 30  2  0  0  0  0
 18 32  1  0  0  0  0
 19 21  2  0  0  0  0
 19 39  1  0  0  0  0
 20 22  2  0  0  0  0
 20 40  1  0  0  0  0
 21 51  1  0  0  0  0
 22 41  1  0  0  0  0
 23 83  1  0  0  0  0
 24 84  1  0  0  0  0
 25 27  2  0  0  0  0
 25 83  1  0  0  0  0
 26 85  1  0  0  0  0
 27 86  1  0  0  0  0
 28 65  2  0  0  0  0
 29 33  1  0  0  0  0
 29 87  1  0  0  0  0
 30 66  1  0  0  0  0
 30 70  1  0  0  0  0
 31 72  1  0  0  0  0
 31 87  1  0  0  0  0
 32 71  1  0  0  0  0
 32 76  2  0  0  0  0
 33 77  2  0  0  0  0
 33 88  1  0  0  0  0
 34 52  1  0  0  0  0
 34 73  1  0  0  0  0
 34 78  2  0  0  0  0
 35 60  1  0  0  0  0
 35 61  1  0  0  0  0
 35 79  2  0  0  0  0
 36 62  1  0  0  0  0
 36 67  1  0  0  0  0
 36 80  2  0  0  0  0
 37 63  1  0  0  0  0
 37 74  1  0  0  0  0
 37 81  2  0  0  0  0
 38 68  1  0  0  0  0
 38 69  1  0  0  0  0
 38 82  2  0  0  0  0
 39 42  1  0  0  0  0
 40 52  1  0  0  0  0
 41 67  1  0  0  0  0
 42 44  1  0  0  0  0
 43 45  1  0  0  0  0
 43 47  1  0  0  0  0
 44 51  1  0  0  0  0
 45 53  1  0  0  0  0
 46 48  1  0  0  0  0
 46 54  1  0  0  0  0
 47 68  1  0  0  0  0
 48 69  1  0  0  0  0
 49 53  1  0  0  0  0
 49 68  1  0  0  0  0
 50 54  1  0  0  0  0
 50 69  1  0  0  0  0
 51 73  1  0  0  0  0
 52 67  1  0  0  0  0
 53 66  1  0  0  0  0
 54 88  1  0  0  0  0
 55 63  1  0  0  0  0
 56 64  1  0  0  0  0
 57 64  1  0  0  0  0
 58 64  1  0  0  0  0
 59 75  1  0  0  0  0
 60 72  1  0  0  0  0
 61 84  1  0  0  0  0
 62 64  1  0  0  0  0
 62 74  1  0  0  0  0
 63 75  1  0  0  0  0
 65 66  1  0  0  0  0
M  CHG  1  75   1
M  ISO  4  38 100  61 101  69 100  84 101
M  END
> <Batch ID>
0157

> <Smiles>
CNC(C)C(=O)NC(C(=O)N1Cc2cc([101O:1][101CH2:1]C(=O)CNc3ccc(C(=O)SC4CC[100N:0]([100C:0](=O)N5CCCC(n6nc(-c7ccc(Oc8ccc(F)cc8F)cc7)c(C(N)=O)c6N)C5)C4)s3)ccc2CC1C(=O)NC1CCCc2ccccc21)C(C)(C)C

> <Shape>
0.247

> <Color>
0.094

> <Negative vol penalty>
0.000

$$$$

  -OEChem-04052303413D

 88 97  0     1  0  0  0  0  0999 V2000
  -28.5068  -36.6331   24.4776 C   0  0  0  0  0  0  0  0  0  0  0  0
  -28.8868  -35.4160   23.9211 C   0  0  0  0  0  0  0  0  0  0  0  0
  -21.9960  -12.6608   22.1619 C   0  0  0  0  0  0  0  0  0  0  0  0
  -22.0795  -14.4686   20.5613 C   0  0  0  0  0  0  0  0  0  0  0  0
  -27.2769  -36.7490   25.1241 C   0  0  0  0  0  0  0  0  0  0  0  0
  -28.0375  -34.3137   24.0117 C   0  0  0  0  0  0  0  0  0  0  0  0
  -27.2883  -29.8909   19.8425 C   0  0  0  0  0  0  0  0  0  0  0  0
  -20.6613  -12.9623   22.4328 C   0  0  0  0  0  0  0  0  0  0  0  0
  -20.7449  -14.7701   20.8321 C   0  0  0  0  0  0  0  0  0  0  0  0
  -27.8170  -28.6054   19.7333 C   0  0  0  0  0  0  0  0  0  0  0  0
  -17.6464  -12.4297   20.9977 C   0  0  0  0  0  0  0  0  0  0  0  0
  -16.7436  -11.3688   21.0683 C   0  0  0  0  0  0  0  0  0  0  0  0
  -29.3669  -19.2627   17.7812 C   0  0  0  0  0  0  0  0  0  0  0  0
  -28.6101  -20.1882   15.6819 C   0  0  0  0  0  0  0  0  0  0  0  0
  -25.8350  -27.7082   20.7752 C   0  0  0  0  0  0  0  0  0  0  0  0
  -27.8203  -18.0213   16.4013 C   0  0  0  0  0  0  0  0  0  0  0  0
  -16.2222  -11.9644   23.3509 C   0  0  0  0  0  0  0  0  0  0  0  0
  -22.7051  -13.4140   21.2262 C   0  0  0  0  0  0  0  0  0  0  0  0
  -29.3779  -20.2935   16.8416 C   0  0  0  0  0  0  0  0  0  0  0  0
  -24.5984  -11.8905   20.4500 C   0  0  0  0  0  0  0  0  0  0  0  0
  -26.4080  -35.6502   25.2142 C   0  0  0  0  0  0  0  0  0  0  0  0
  -26.0316  -30.0960   20.4297 C   0  0  0  0  0  0  0  0  0  0  0  0
  -26.7955  -34.4147   24.6612 C   0  0  0  0  0  0  0  0  0  0  0  0
  -25.2914  -28.9970   20.8883 C   0  0  0  0  0  0  0  0  0  0  0  0
  -28.5882  -18.1265   17.5611 C   0  0  0  0  0  0  0  0  0  0  0  0
  -20.0358  -14.0169   21.7679 C   0  0  0  0  0  0  0  0  0  0  0  0
  -27.0916  -27.5142   20.2023 C   0  0  0  0  0  0  0  0  0  0  0  0
  -17.8372  -13.2580   22.1037 C   0  0  0  0  0  0  0  0  0  0  0  0
  -16.0315  -11.1362   22.2449 C   0  0  0  0  0  0  0  0  0  0  0  0
  -27.8313  -19.0521   15.4617 C   0  0  0  0  0  0  0  0  0  0  0  0
  -17.1251  -13.0253   23.2803 C   0  0  0  0  0  0  0  0  0  0  0  0
  -24.0840  -13.1033   20.9464 C   0  0  0  0  0  0  0  0  0  0  0  0
  -25.9523  -12.1031   20.3600 C   0  0  0  0  0  0  0  0  0  0  0  0
  -30.2015  -21.4936   17.0731 C   0  0  0  0  0  0  0  0  0  0  0  0
  -23.9135  -10.6801   20.1014 C   0  0  0  0  0  0  0  0  0  0  0  0
  -24.9787  -31.6695   22.9830 C   0  0  0  0  0  0  0  0  0  0  0  0
  -22.0698  -30.8403   21.8112 C   0  0  0  0  0  0  0  0  0  0  0  0
  -20.2202  -28.7120   19.8887 C   0  0  0  0  0  0  0  0  0  0  0  0
  -29.2780  -17.0260   19.7196 C   0  0  0  0  0  0  0  0  0  0  0  0
  -25.1093  -35.8113   25.9640 C   0  0  0  0  0  0  0  0  0  0  0  0
  -25.4637  -31.4862   20.5158 C   0  0  0  0  0  0  0  0  0  0  0  0
  -23.9288  -29.1616   21.5084 C   0  0  0  0  0  0  0  0  0  0  0  0
  -24.1050  -34.6949   25.6896 C   0  0  0  0  0  0  0  0  0  0  0  0
  -29.4850  -14.6448   22.3586 C   0  0  0  0  0  0  0  0  0  0  0  0
  -24.7856  -33.3323   25.7723 C   0  0  0  0  0  0  0  0  0  0  0  0
  -28.1730  -13.8649   22.2470 C   0  0  0  0  0  0  0  0  0  0  0  0
  -30.6714  -24.4691   18.8392 C   0  0  0  0  0  0  0  0  0  0  0  0
  -28.2283  -23.8028   18.7964 C   0  0  0  0  0  0  0  0  0  0  0  0
  -29.2938  -16.1256   22.0357 C   0  0  0  0  0  0  0  0  0  0  0  0
  -31.0667  -22.9974   18.7914 C   0  0  0  0  0  0  0  0  0  0  0  0
  -28.6363  -22.3347   18.7480 C   0  0  0  0  0  0  0  0  0  0  0  0
  -27.3288  -15.6214   20.6379 C   0  0  0  0  0  0  0  0  0  0  0  0
  -25.8909  -33.2028   24.7173 C   0  0  1  0  0  0  0  0  0  0  0  0
  -24.3979  -31.6303   21.5978 C   0  0  1  0  0  0  0  0  0  0  0  0
  -27.4836  -14.1129   20.8909 C   0  0  2  0  0  0  0  0  0  0  0  0
  -29.2948  -24.6617   19.4871 C   0  0  0  0  0  0  0  0  0  0  0  0
  -17.8625  -28.2657   19.1542 C   0  0  0  0  0  0  0  0  0  0  0  0
  -21.4440  -29.6517   24.5508 C   0  0  0  0  0  0  0  0  0  0  0  0
  -19.5341  -28.4184   23.5021 C   0  0  0  0  0  0  0  0  0  0  0  0
  -19.5547  -30.9129   23.5045 C   0  0  0  0  0  0  0  0  0  0  0  0
  -20.9087  -29.1151   17.0387 C   0  0  0  0  0  0  0  0  0  0  0  0
  -28.8936  -26.1320   19.4963 C   0  0  0  0  0  0  0  0  0  1  0  0
  -21.1430  -29.6617   21.9865 C   0  0  1  0  0  0  0  0  0  0  0  0
  -19.1687  -28.9714   18.8250 C   0  0  2  0  0  0  0  0  0  0  0  0
  -20.4454  -29.6579   23.3761 C   0  0  0  0  0  0  0  0  0  0  0  0
  -25.0338  -14.0185   21.1571 N   0  0  0  0  0  0  0  0  0  0  0  0
  -26.1586  -13.3804   20.7914 N   0  0  0  0  0  0  0  0  0  0  0  0
  -29.9791  -22.2390   18.1465 N   0  0  0  0  0  0  0  0  0  0  0  0
  -23.4193  -30.5413   21.5758 N   0  0  0  0  0  0  0  0  0  0  0  0
  -28.6392  -16.2833   20.7351 N   0  0  0  0  0  0  0  0  0  0  0  0
  -26.9747  -11.3201   19.9548 N   0  0  0  0  0  0  0  0  0  0  0  0
  -22.5212  -10.6323   20.2549 N   0  0  0  0  0  0  0  0  0  0  0  0
  -28.5758  -17.0798   18.5161 N   0  0  0  0  0  0  0  0  0  0  0  0
  -25.3181  -32.9375   23.4151 N   0  0  0  0  0  0  0  0  0  0  0  0
  -20.2219  -29.6949   20.8557 N   0  0  0  0  0  0  0  0  0  0  0  0
  -31.1560  -21.8088   16.2025 N   0  3  0  0  0  0  0  0  0  0  0  0
  -19.6435  -28.4865   17.4982 N   0  3  0  0  0  0  0  0  0  0  0  0
  -24.5202   -9.6653   19.6823 O   0  0  0  0  0  0  0  0  0  0  0  0
  -25.1079  -30.6269   23.6137 O   0  0  0  0  0  0  0  0  0  0  0  0
  -21.6121  -31.9841   21.8733 O   0  0  0  0  0  0  0  0  0  0  0  0
  -20.9631  -27.7331   19.8662 O   0  0  0  0  0  0  0  0  0  0  0  0
  -30.3805  -17.5510   19.8954 O   0  0  0  0  0  0  0  0  0  0  0  0
  -18.7333  -14.3113   22.0318 O   0  0  0  0  0  0  0  0  0  0  0  0
  -27.6056  -26.2585   20.0975 O   0  0  0  0  0  0  0  0  0  1  0  0
  -15.1634  -10.1183   22.3120 F   0  0  0  0  0  0  0  0  0  0  0  0
  -27.0941  -18.9511   14.3480 F   0  0  0  0  0  0  0  0  0  0  0  0
  -17.3033  -13.8183   24.3458 F   0  0  0  0  0  0  0  0  0  0  0  0
  -29.3823  -24.2577   20.7896 F   0  0  0  0  0  0  0  0  0  0  0  0
  1  2  1  0  0  0  0
  1  5  2  0  0  0  0
  2  6  2  0  0  0  0
  3  8  2  0  0  0  0
  3 18  1  0  0  0  0
  4  9  1  0  0  0  0
  4 18  2  0  0  0  0
  5 21  1  0  0  0  0
  6 23  1  0  0  0  0
  7 10  2  0  0  0  0
  7 22  1  0  0  0  0
  8 26  1  0  0  0  0
  9 26  2  0  0  0  0
 10 27  1  0  0  0  0
 11 12  2  0  0  0  0
 11 28  1  0  0  0  0
 12 29  1  0  0  0  0
 13 19  2  0  0  0  0
 13 25  1  0  0  0  0
 14 19  1  0  0  0  0
 14 30  2  0  0  0  0
 15 24  1  0  0  0  0
 15 27  2  0  0  0  0
 16 25  2  0  0  0  0
 16 30  1  0  0  0  0
 17 29  2  0  0  0  0
 17 31  1  0  0  0  0
 18 32  1  0  0  0  0
 19 34  1  0  0  0  0
 20 32  1  0  0  0  0
 20 33  2  0  0  0  0
 20 35  1  0  0  0  0
 21 23  2  0  0  0  0
 21 40  1  0  0  0  0
 22 24  2  0  0  0  0
 22 41  1  0  0  0  0
 23 53  1  0  0  0  0
 24 42  1  0  0  0  0
 25 73  1  0  0  0  0
 26 83  1  0  0  0  0
 27 84  1  0  0  0  0
 28 31  2  0  0  0  0
 28 83  1  0  0  0  0
 29 85  1  0  0  0  0
 30 86  1  0  0  0  0
 31 87  1  0  0  0  0
 32 66  2  0  0  0  0
 33 67  1  0  0  0  0
 33 71  1  0  0  0  0
 34 68  1  0  0  0  0
 34 76  2  0  0  0  0
 35 72  1  0  0  0  0
 35 78  2  0  0  0  0
 36 54  1  0  0  0  0
 36 74  1  0  0  0  0
 36 79  2  0  0  0  0
 37 63  1  0  0  0  0
 37 69  1  0  0  0  0
 37 80  2  0  0  0  0
 38 64  1  0  0  0  0
 38 75  1  0  0  0  0
 38 81  2  0  0  0  0
 39 70  1  0  0  0  0
 39 73  1  0  0  0  0
 39 82  2  0  0  0  0
 40 43  1  0  0  0  0
 41 54  1  0  0  0  0
 42 69  1  0  0  0  0
 43 45  1  0  0  0  0
 44 46  1  0  0  0  0
 44 49  1  0  0  0  0
 45 53  1  0  0  0  0
 46 55  1  0  0  0  0
 47 50  1  0  0  0  0
 47 56  1  0  0  0  0
 48 51  1  0  0  0  0
 48 56  1  0  0  0  0
 49 70  1  0  0  0  0
 50 68  1  0  0  0  0
 51 68  1  0  0  0  0
 52 55  1  0  0  0  0
 52 70  1  0  0  0  0
 53 74  1  0  0  0  0
 54 69  1  0  0  0  0
 55 67  1  0  0  0  0
 56 62  1  0  0  0  0
 56 88  1  0  0  0  0
 57 64  1  0  0  0  0
 58 65  1  0  0  0  0
 59 65  1  0  0  0  0
 60 65  1  0  0  0  0
 61 77  1  0  0  0  0
 62 84  1  0  0  0  0
 63 65  1  0  0  0  0
 63 75  1  0  0  0  0
 64 77  1  0  0  0  0
 66 67  1  0  0  0  0
M  CHG  2  76   1  77   1
M  ISO  4  39 100  62 101  73 100  84 101
M  END
> <Batch ID>
0157

> <Smiles>
CNC(C)C(=O)NC(C(=O)N1Cc2cc([101O:1][101CH2:1]C3(F)CCN(C(=N)c4cc(F)cc([100NH:0][100C:0](=O)N5CCCC(n6nc(-c7ccc(Oc8ccc(F)cc8F)cc7)c(C(N)=O)c6N)C5)c4)CC3)ccc2CC1C(=O)NC1CCCc2ccccc21)C(C)(C)C

> <Shape>
0.295

> <Color>
0.083

> <Negative vol penalty>
0.000

$$$$

  -OEChem-04052303413D

 89 98  0     1  0  0  0  0  0999 V2000
  -17.6163  -28.3762   26.2347 C   0  0  0  0  0  0  0  0  0  0  0  0
  -18.8969  -27.9222   26.5337 C   0  0  0  0  0  0  0  0  0  0  0  0
  -23.0370  -10.0548   21.5424 C   0  0  0  0  0  0  0  0  0  0  0  0
  -23.7729  -11.0787   23.6033 C   0  0  0  0  0  0  0  0  0  0  0  0
  -17.1790  -28.4037   24.9111 C   0  0  0  0  0  0  0  0  0  0  0  0
  -19.7407  -27.4944   25.5092 C   0  0  0  0  0  0  0  0  0  0  0  0
  -26.6682  -27.3025   23.6959 C   0  0  0  0  0  0  0  0  0  0  0  0
  -22.2592   -9.1527   22.2683 C   0  0  0  0  0  0  0  0  0  0  0  0
  -22.9951  -10.1766   24.3292 C   0  0  0  0  0  0  0  0  0  0  0  0
  -27.6461  -26.4038   23.2717 C   0  0  0  0  0  0  0  0  0  0  0  0
  -20.3601   -6.3495   23.5945 C   0  0  0  0  0  0  0  0  0  0  0  0
  -20.4049   -5.0061   23.2220 C   0  0  0  0  0  0  0  0  0  0  0  0
  -31.9462  -17.5378   19.8511 C   0  0  0  0  0  0  0  0  0  0  0  0
  -26.8114  -26.5705   21.0145 C   0  0  0  0  0  0  0  0  0  0  0  0
  -22.7804   -4.9636   23.6605 C   0  0  0  0  0  0  0  0  0  0  0  0
  -23.7939  -11.0178   22.2099 C   0  0  0  0  0  0  0  0  0  0  0  0
  -32.0619  -18.9577   19.8755 C   0  0  0  0  0  0  0  0  0  0  0  0
  -24.2060  -13.2111   20.9741 C   0  0  0  0  0  0  0  0  0  0  0  0
  -18.0213  -27.9851   23.8689 C   0  0  0  0  0  0  0  0  0  0  0  0
  -25.7462  -27.8345   22.7830 C   0  0  0  0  0  0  0  0  0  0  0  0
  -19.3137  -27.5150   24.1705 C   0  0  0  0  0  0  0  0  0  0  0  0
  -25.8245  -27.4777   21.4292 C   0  0  0  0  0  0  0  0  0  0  0  0
  -22.2383   -9.2136   23.6616 C   0  0  0  0  0  0  0  0  0  0  0  0
  -27.7160  -26.0354   21.9313 C   0  0  0  0  0  0  0  0  0  0  0  0
  -21.5255   -7.0000   24.0000 C   0  0  0  0  0  0  0  0  0  0  0  0
  -21.6150   -4.3131   23.2550 C   0  0  0  0  0  0  0  0  0  0  0  0
  -22.7356   -6.3071   24.0330 C   0  0  0  0  0  0  0  0  0  0  0  0
  -24.5979  -11.9496   21.4607 C   0  0  0  0  0  0  0  0  0  0  0  0
  -25.3220  -13.6950   20.3362 C   0  0  0  0  0  0  0  0  0  0  0  0
  -30.7161  -17.1110   20.3008 C   0  0  0  0  0  0  0  0  0  0  0  0
  -30.9155  -19.5622   20.3428 C   0  0  0  0  0  0  0  0  0  0  0  0
  -33.2311  -19.6916   19.4611 C   0  0  0  0  0  0  0  0  0  0  0  0
  -22.9458  -13.8853   21.0887 C   0  0  0  0  0  0  0  0  0  0  0  0
  -22.5853  -27.7251   22.4660 C   0  0  0  0  0  0  0  0  0  0  0  0
  -29.5528  -22.9921   21.0313 C   0  0  0  0  0  0  0  0  0  0  0  0
  -23.1424  -29.8434   20.0734 C   0  0  0  0  0  0  0  0  0  0  0  0
  -25.3251  -31.1124   17.7772 C   0  0  0  0  0  0  0  0  0  0  0  0
  -30.8127  -14.5988   20.1400 C   0  0  0  0  0  0  0  0  0  0  0  0
  -17.4875  -27.9885   22.4584 C   0  0  0  0  0  0  0  0  0  0  0  0
  -24.7143  -28.8233   23.2517 C   0  0  0  0  0  0  0  0  0  0  0  0
  -24.8711  -28.0360   20.4056 C   0  0  0  0  0  0  0  0  0  0  0  0
  -18.5762  -27.8705   21.3948 C   0  0  0  0  0  0  0  0  0  0  0  0
  -29.6571  -11.3998   19.0872 C   0  0  0  0  0  0  0  0  0  0  0  0
  -19.5597  -26.7626   21.7583 C   0  0  0  0  0  0  0  0  0  0  0  0
  -28.2057  -11.3615   19.5708 C   0  0  0  0  0  0  0  0  0  0  0  0
  -35.3733  -19.5909   18.0507 C   0  0  0  0  0  0  0  0  0  0  0  0
  -30.5657  -12.1269   20.0769 C   0  0  0  0  0  0  0  0  0  0  0  0
  -28.6651  -13.4333   20.9431 C   0  0  0  0  0  0  0  0  0  0  0  0
  -20.2672  -27.0660   23.0845 C   0  0  1  0  0  0  0  0  0  0  0  0
  -34.4189  -18.9071   18.9658 C   0  0  2  0  0  0  0  0  0  0  0  0
  -23.5034  -28.9065   22.3276 C   0  0  1  0  0  0  0  0  0  0  0  0
  -34.4506  -18.5278   17.5257 C   0  0  2  0  0  0  0  0  0  0  0  0
  -27.7001  -12.7676   19.9484 C   0  0  2  0  0  0  0  0  0  0  0  0
  -34.9888  -17.1937   17.1391 C   0  0  0  0  0  0  0  0  0  0  0  0
  -25.4810  -32.8105   15.9361 C   0  0  0  0  0  0  0  0  0  0  0  0
  -27.9735  -23.3938   22.9745 C   0  0  0  0  0  0  0  0  0  0  0  0
  -27.1435  -23.5856   20.6021 C   0  0  0  0  0  0  0  0  0  0  0  0
  -21.5611  -27.9917   18.2348 C   0  0  0  0  0  0  0  0  0  0  0  0
  -22.5398  -29.2115   16.2797 C   0  0  0  0  0  0  0  0  0  0  0  0
  -21.0973  -30.4279   17.9114 C   0  0  0  0  0  0  0  0  0  0  0  0
  -27.4639  -32.6042   19.1767 C   0  0  0  0  0  0  0  0  0  0  0  0
  -29.4541  -21.4770   20.9936 C   0  0  0  0  0  0  0  0  0  0  0  0
  -23.4307  -29.7354   18.5954 C   0  0  1  0  0  0  0  0  0  0  0  0
  -25.6915  -32.5411   17.4179 C   0  0  2  0  0  0  0  0  0  0  0  0
  -28.3312  -23.7717   21.5405 C   0  0  0  0  0  0  0  0  0  1  0  0
  -22.1741  -29.3294   17.7747 C   0  0  0  0  0  0  0  0  0  0  0  0
  -25.8639  -11.6507   21.1576 N   0  0  0  0  0  0  0  0  0  0  0  0
  -26.2772  -12.7312   20.4738 N   0  0  0  0  0  0  0  0  0  0  0  0
  -23.8760  -28.9944   20.9142 N   0  0  0  0  0  0  0  0  0  0  0  0
  -30.0261  -13.4532   20.3846 N   0  0  0  0  0  0  0  0  0  0  0  0
  -25.5695  -14.8465   19.6766 N   0  0  0  0  0  0  0  0  0  0  0  0
  -21.9059  -13.2456   21.7769 N   0  0  0  0  0  0  0  0  0  0  0  0
  -30.1824  -15.8059   20.4407 N   0  0  0  0  0  0  0  0  0  0  0  0
  -30.6883  -20.9215   20.4952 N   0  0  0  0  0  0  0  0  0  0  0  0
  -21.3100  -28.0499   22.8874 N   0  0  0  0  0  0  0  0  0  0  0  0
  -24.0164  -31.0116   18.1995 N   0  0  0  0  0  0  0  0  0  0  0  0
  -27.1208  -32.8073   17.7457 N   0  3  0  0  0  0  0  0  0  0  0  0
  -33.3500  -20.9261   19.4804 O   0  0  0  0  0  0  0  0  0  0  0  0
  -22.7428  -15.0144   20.5812 O   0  0  0  0  0  0  0  0  0  0  0  0
  -23.0027  -26.6022   22.2081 O   0  0  0  0  0  0  0  0  0  0  0  0
  -30.5742  -23.5814   20.6701 O   0  0  0  0  0  0  0  0  0  0  0  0
  -22.3027  -30.6563   20.4679 O   0  0  0  0  0  0  0  0  0  0  0  0
  -26.1192  -30.1786   17.6882 O   0  0  0  0  0  0  0  0  0  0  0  0
  -31.9507  -14.5165   19.6710 O   0  0  0  0  0  0  0  0  0  0  0  0
  -21.4793   -8.3336   24.3703 O   0  0  0  0  0  0  0  0  0  0  0  0
  -28.6690  -25.1579   21.5147 O   0  0  0  0  0  0  0  0  0  1  0  0
  -21.6576   -3.0226   22.8987 F   0  0  0  0  0  0  0  0  0  0  0  0
  -23.8583   -6.9264   24.4228 F   0  0  0  0  0  0  0  0  0  0  0  0
  -29.7068  -18.4195   20.7498 S   0  0  0  0  0  0  0  0  0  0  0  0
  1  2  1  0  0  0  0
  1  5  2  0  0  0  0
  2  6  2  0  0  0  0
  3  8  2  0  0  0  0
  3 16  1  0  0  0  0
  4  9  1  0  0  0  0
  4 16  2  0  0  0  0
  5 19  1  0  0  0  0
  6 21  1  0  0  0  0
  7 10  2  0  0  0  0
  7 20  1  0  0  0  0
  8 23  1  0  0  0  0
  9 23  2  0  0  0  0
 10 24  1  0  0  0  0
 11 12  2  0  0  0  0
 11 25  1  0  0  0  0
 12 26  1  0  0  0  0
 13 17  1  0  0  0  0
 13 30  2  0  0  0  0
 14 22  1  0  0  0  0
 14 24  2  0  0  0  0
 15 26  2  0  0  0  0
 15 27  1  0  0  0  0
 16 28  1  0  0  0  0
 17 31  2  0  0  0  0
 17 32  1  0  0  0  0
 18 28  1  0  0  0  0
 18 29  2  0  0  0  0
 18 33  1  0  0  0  0
 19 21  2  0  0  0  0
 19 39  1  0  0  0  0
 20 22  2  0  0  0  0
 20 40  1  0  0  0  0
 21 49  1  0  0  0  0
 22 41  1  0  0  0  0
 23 85  1  0  0  0  0
 24 86  1  0  0  0  0
 25 27  2  0  0  0  0
 25 85  1  0  0  0  0
 26 87  1  0  0  0  0
 27 88  1  0  0  0  0
 28 67  2  0  0  0  0
 29 68  1  0  0  0  0
 29 71  1  0  0  0  0
 30 73  1  0  0  0  0
 30 89  1  0  0  0  0
 31 74  1  0  0  0  0
 31 89  1  0  0  0  0
 32 50  1  0  0  0  0
 32 78  2  0  0  0  0
 33 72  1  0  0  0  0
 33 79  2  0  0  0  0
 34 51  1  0  0  0  0
 34 75  1  0  0  0  0
 34 80  2  0  0  0  0
 35 62  1  0  0  0  0
 35 65  1  0  0  0  0
 35 81  2  0  0  0  0
 36 63  1  0  0  0  0
 36 69  1  0  0  0  0
 36 82  2  0  0  0  0
 37 64  1  0  0  0  0
 37 76  1  0  0  0  0
 37 83  2  0  0  0  0
 38 70  1  0  0  0  0
 38 73  1  0  0  0  0
 38 84  2  0  0  0  0
 39 42  1  0  0  0  0
 40 51  1  0  0  0  0
 41 69  1  0  0  0  0
 42 44  1  0  0  0  0
 43 45  1  0  0  0  0
 43 47  1  0  0  0  0
 44 49  1  0  0  0  0
 45 53  1  0  0  0  0
 46 50  1  0  0  0  0
 46 52  1  0  0  0  0
 47 70  1  0  0  0  0
 48 53  1  0  0  0  0
 48 70  1  0  0  0  0
 49 75  1  0  0  0  0
 50 52  1  0  0  0  0
 51 69  1  0  0  0  0
 52 54  1  0  0  0  0
 53 68  1  0  0  0  0
 55 64  1  0  0  0  0
 56 65  1  0  0  0  0
 57 65  1  0  0  0  0
 58 66  1  0  0  0  0
 59 66  1  0  0  0  0
 60 66  1  0  0  0  0
 61 77  1  0  0  0  0
 62 74  1  0  0  0  0
 63 66  1  0  0  0  0
 63 76  1  0  0  0  0
 64 77  1  0  0  0  0
 65 86  1  0  0  0  0
 67 68  1  0  0  0  0
M  CHG  1  77   1
M  ISO  4  38 100  65 101  73 100  86 101
M  END
> <Batch ID>
0157

> <Smiles>
CNC(C)C(=O)NC(C(=O)N1Cc2cc([101O:1][101C:1](C)(C)C(=O)CNc3sc([100NH:0][100C:0](=O)N4CCCC(n5nc(-c6ccc(Oc7ccc(F)cc7F)cc6)c(C(N)=O)c5N)C4)cc3C(=O)C3CC3C)ccc2CC1C(=O)NC1CCCc2ccccc21)C(C)(C)C

> <Shape>
0.269

> <Color>
0.149

> <Negative vol penalty>
0.000

$$$$

  -OEChem-04052303413D

 81 89  0     1  0  0  0  0  0999 V2000
  -31.1877  -11.3903   22.7860 C   0  0  0  0  0  0  0  0  0  0  0  0
  -31.1005  -12.6156   22.1330 C   0  0  0  0  0  0  0  0  0  0  0  0
  -21.6010  -28.5441   22.4848 C   0  0  0  0  0  0  0  0  0  0  0  0
  -23.5686  -27.8285   23.6905 C   0  0  0  0  0  0  0  0  0  0  0  0
  -30.1664  -10.4518   22.6441 C   0  0  0  0  0  0  0  0  0  0  0  0
  -29.9924  -12.9027   21.3367 C   0  0  0  0  0  0  0  0  0  0  0  0
  -28.1871  -17.5673   22.1288 C   0  0  0  0  0  0  0  0  0  0  0  0
  -20.8140  -27.7001   23.2682 C   0  0  0  0  0  0  0  0  0  0  0  0
  -22.7815  -26.9844   24.4739 C   0  0  0  0  0  0  0  0  0  0  0  0
  -28.8764  -18.6256   21.5385 C   0  0  0  0  0  0  0  0  0  0  0  0
  -18.3361  -25.4643   24.7122 C   0  0  0  0  0  0  0  0  0  0  0  0
  -17.3762  -24.6854   24.0660 C   0  0  0  0  0  0  0  0  0  0  0  0
  -31.5613  -26.8330   20.7413 C   0  0  0  0  0  0  0  0  0  0  0  0
  -31.5901  -25.6114   21.4553 C   0  0  0  0  0  0  0  0  0  0  0  0
  -27.2415  -18.6938   19.7660 C   0  0  0  0  0  0  0  0  0  0  0  0
  -19.1134  -23.6242   22.7648 C   0  0  0  0  0  0  0  0  0  0  0  0
  -22.9784  -28.6083   22.6959 C   0  0  0  0  0  0  0  0  0  0  0  0
  -24.1200  -30.8231   22.1493 C   0  0  0  0  0  0  0  0  0  0  0  0
  -29.0406  -10.7314   21.8534 C   0  0  0  0  0  0  0  0  0  0  0  0
  -27.0238  -17.0563   21.5354 C   0  0  0  0  0  0  0  0  0  0  0  0
  -28.9557  -11.9666   21.1830 C   0  0  0  0  0  0  0  0  0  0  0  0
  -26.5378  -17.6307   20.3522 C   0  0  0  0  0  0  0  0  0  0  0  0
  -21.4042  -26.9203   24.2628 C   0  0  0  0  0  0  0  0  0  0  0  0
  -28.4053  -19.1871   20.3553 C   0  0  0  0  0  0  0  0  0  0  0  0
  -19.6846  -25.3232   24.3846 C   0  0  0  0  0  0  0  0  0  0  0  0
  -17.7648  -23.7653   23.0923 C   0  0  0  0  0  0  0  0  0  0  0  0
  -20.0732  -24.4032   23.4109 C   0  0  0  0  0  0  0  0  0  0  0  0
  -23.7920  -29.4796   21.8866 C   0  0  0  0  0  0  0  0  0  0  0  0
  -30.8520  -26.5854   19.5891 C   0  0  0  0  0  0  0  0  0  0  0  0
  -24.9076  -31.1981   21.0884 C   0  0  0  0  0  0  0  0  0  0  0  0
  -30.8961  -24.7044   20.6887 C   0  0  0  0  0  0  0  0  0  0  0  0
  -23.7463  -31.6576   23.2537 C   0  0  0  0  0  0  0  0  0  0  0  0
  -26.1703  -14.2406   20.3324 C   0  0  0  0  0  0  0  0  0  0  0  0
  -23.2674  -15.6662   20.0812 C   0  0  0  0  0  0  0  0  0  0  0  0
  -29.8837  -22.4899   20.0520 C   0  0  0  0  0  0  0  0  0  0  0  0
  -21.4713  -18.5574   19.8335 C   0  0  0  0  0  0  0  0  0  0  0  0
  -28.3814  -28.1243   17.3021 C   0  0  0  0  0  0  0  0  0  0  0  0
  -27.9844   -9.6670   21.6922 C   0  0  0  0  0  0  0  0  0  0  0  0
  -26.2770  -15.9319   22.1990 C   0  0  0  0  0  0  0  0  0  0  0  0
  -25.2825  -17.1320   19.6859 C   0  0  0  0  0  0  0  0  0  0  0  0
  -26.6671  -10.1962   21.1309 C   0  0  0  0  0  0  0  0  0  0  0  0
  -25.6521  -30.2494   16.4584 C   0  0  0  0  0  0  0  0  0  0  0  0
  -26.9237  -11.1016   19.9305 C   0  0  0  0  0  0  0  0  0  0  0  0
  -24.8955  -30.4143   17.7776 C   0  0  0  0  0  0  0  0  0  0  0  0
  -26.2282  -28.8430   16.3102 C   0  0  0  0  0  0  0  0  0  0  0  0
  -26.3102  -28.5601   18.7570 C   0  0  0  0  0  0  0  0  0  0  0  0
  -27.7578  -12.3247   20.3304 C   0  0  1  0  0  0  0  0  0  0  0  0
  -25.3882  -15.1534   21.2339 C   0  0  1  0  0  0  0  0  0  0  0  0
  -25.7586  -29.9791   18.9772 C   0  0  2  0  0  0  0  0  0  0  0  0
  -19.1193  -19.4019   19.6048 C   0  0  0  0  0  0  0  0  0  0  0  0
  -23.2704  -14.8695   17.1358 C   0  0  0  0  0  0  0  0  0  0  0  0
  -21.4222  -16.5161   16.7604 C   0  0  0  0  0  0  0  0  0  0  0  0
  -21.0724  -14.5790   18.2928 C   0  0  0  0  0  0  0  0  0  0  0  0
  -21.6283  -20.0322   22.3947 C   0  0  0  0  0  0  0  0  0  0  0  0
  -30.4706  -27.4231   18.4434 C   0  0  0  0  0  0  0  0  0  0  0  0
  -29.7938  -21.0961   20.6450 C   0  0  0  0  0  0  0  0  0  1  0  0
  -22.5658  -16.4837   19.0236 C   0  0  1  0  0  0  0  0  0  0  0  0
  -20.2367  -19.0427   20.5717 C   0  0  2  0  0  0  0  0  0  0  0  0
  -22.1075  -15.6204   17.8144 C   0  0  0  0  0  0  0  0  0  0  0  0
  -24.3273  -29.0313   20.7480 N   0  0  0  0  0  0  0  0  0  0  0  0
  -24.9995  -30.0992   20.2857 N   0  0  0  0  0  0  0  0  0  0  0  0
  -24.5912  -16.0266   20.3700 N   0  0  0  0  0  0  0  0  0  0  0  0
  -27.0374  -28.4922   17.4798 N   0  0  0  0  0  0  0  0  0  0  0  0
  -25.5233  -32.3573   20.7730 N   0  0  0  0  0  0  0  0  0  0  0  0
  -22.9327  -31.1135   24.2569 N   0  0  0  0  0  0  0  0  0  0  0  0
  -30.5994  -23.3358   20.8925 N   0  0  0  0  0  0  0  0  0  0  0  0
  -26.9305  -13.3023   21.0043 N   0  0  0  0  0  0  0  0  0  0  0  0
  -21.4814  -17.1849   19.7024 N   0  0  0  0  0  0  0  0  0  0  0  0
  -29.0785  -27.8134   18.4632 N   0  0  0  0  0  0  0  0  0  0  0  0
  -20.5602  -20.2488   21.3851 N   0  3  0  0  0  0  0  0  0  0  0  0
  -24.1091  -32.8553   23.3398 O   0  0  0  0  0  0  0  0  0  0  0  0
  -26.0890  -14.3765   19.1173 O   0  0  0  0  0  0  0  0  0  0  0  0
  -22.6608  -14.7463   20.6358 O   0  0  0  0  0  0  0  0  0  0  0  0
  -29.3703  -22.7630   18.9720 O   0  0  0  0  0  0  0  0  0  0  0  0
  -22.3380  -19.3200   19.4119 O   0  0  0  0  0  0  0  0  0  0  0  0
  -28.9215  -28.0816   16.1916 O   0  0  0  0  0  0  0  0  0  0  0  0
  -30.4429  -25.2902   19.5494 O   0  0  0  0  0  0  0  0  0  0  0  0
  -20.6365  -26.0967   25.0276 O   0  0  0  0  0  0  0  0  0  0  0  0
  -29.0766  -20.2198   19.7766 O   0  0  0  0  0  0  0  0  0  1  0  0
  -16.8431  -23.0163   22.4730 F   0  0  0  0  0  0  0  0  0  0  0  0
  -21.3674  -24.2623   23.0928 F   0  0  0  0  0  0  0  0  0  0  0  0
  1  2  1  0  0  0  0
  1  5  2  0  0  0  0
  2  6  2  0  0  0  0
  3  8  2  0  0  0  0
  3 17  1  0  0  0  0
  4  9  1  0  0  0  0
  4 17  2  0  0  0  0
  5 19  1  0  0  0  0
  6 21  1  0  0  0  0
  7 10  2  0  0  0  0
  7 20  1  0  0  0  0
  8 23  1  0  0  0  0
  9 23  2  0  0  0  0
 10 24  1  0  0  0  0
 11 12  2  0  0  0  0
 11 25  1  0  0  0  0
 12 26  1  0  0  0  0
 13 14  1  0  0  0  0
 13 29  2  0  0  0  0
 14 31  2  0  0  0  0
 15 22  1  0  0  0  0
 15 24  2  0  0  0  0
 16 26  2  0  0  0  0
 16 27  1  0  0  0  0
 17 28  1  0  0  0  0
 18 28  1  0  0  0  0
 18 30  2  0  0  0  0
 18 32  1  0  0  0  0
 19 21  2  0  0  0  0
 19 38  1  0  0  0  0
 20 22  2  0  0  0  0
 20 39  1  0  0  0  0
 21 47  1  0  0  0  0
 22 40  1  0  0  0  0
 23 78  1  0  0  0  0
 24 79  1  0  0  0  0
 25 27  2  0  0  0  0
 25 78  1  0  0  0  0
 26 80  1  0  0  0  0
 27 81  1  0  0  0  0
 28 60  2  0  0  0  0
 29 55  1  0  0  0  0
 29 77  1  0  0  0  0
 30 61  1  0  0  0  0
 30 64  1  0  0  0  0
 31 66  1  0  0  0  0
 31 77  1  0  0  0  0
 32 65  1  0  0  0  0
 32 71  2  0  0  0  0
 33 48  1  0  0  0  0
 33 67  1  0  0  0  0
 33 72  2  0  0  0  0
 34 57  1  0  0  0  0
 34 62  1  0  0  0  0
 34 73  2  0  0  0  0
 35 56  1  0  0  0  0
 35 66  1  0  0  0  0
 35 74  2  0  0  0  0
 36 58  1  0  0  0  0
 36 68  1  0  0  0  0
 36 75  2  0  0  0  0
 37 63  1  0  0  0  0
 37 69  1  0  0  0  0
 37 76  2  0  0  0  0
 38 41  1  0  0  0  0
 39 48  1  0  0  0  0
 40 62  1  0  0  0  0
 41 43  1  0  0  0  0
 42 44  1  0  0  0  0
 42 45  1  0  0  0  0
 43 47  1  0  0  0  0
 44 49  1  0  0  0  0
 45 63  1  0  0  0  0
 46 49  1  0  0  0  0
 46 63  1  0  0  0  0
 47 67  1  0  0  0  0
 48 62  1  0  0  0  0
 49 61  1  0  0  0  0
 50 58  1  0  0  0  0
 51 59  1  0  0  0  0
 52 59  1  0  0  0  0
 53 59  1  0  0  0  0
 54 70  1  0  0  0  0
 55 69  1  0  0  0  0
 56 79  1  0  0  0  0
 57 59  1  0  0  0  0
 57 68  1  0  0  0  0
 58 70  1  0  0  0  0
 60 61  1  0  0  0  0
M  CHG  1  70   1
M  ISO  4  37 100  56 101  69 100  79 101
M  END
> <Batch ID>
0157

> <Smiles>
CNC(C)C(=O)NC(C(=O)N1Cc2cc([101O:1][101CH2:1]C(=O)Nc3ccc(C[100NH:0][100C:0](=O)N4CCCC(n5nc(-c6ccc(Oc7ccc(F)cc7F)cc6)c(C(N)=O)c5N)C4)o3)ccc2CC1C(=O)NC1CCCc2ccccc21)C(C)(C)C

> <Shape>
0.203

> <Color>
0.091

> <Negative vol penalty>
0.000

$$$$

  -OEChem-04052303413D

 87 96  0     1  0  0  0  0  0999 V2000
  -28.8348  -37.5639   20.7123 C   0  0  0  0  0  0  0  0  0  0  0  0
  -29.1721  -36.2502   20.4030 C   0  0  0  0  0  0  0  0  0  0  0  0
  -22.4130  -10.0287   22.6935 C   0  0  0  0  0  0  0  0  0  0  0  0
  -23.7695   -9.7964   20.7079 C   0  0  0  0  0  0  0  0  0  0  0  0
  -27.9172  -37.8260   21.7288 C   0  0  0  0  0  0  0  0  0  0  0  0
  -28.5928  -35.1977   21.1108 C   0  0  0  0  0  0  0  0  0  0  0  0
  -27.0865  -29.6790   18.9242 C   0  0  0  0  0  0  0  0  0  0  0  0
  -21.9215   -8.7364   22.5089 C   0  0  0  0  0  0  0  0  0  0  0  0
  -23.2781   -8.5041   20.5233 C   0  0  0  0  0  0  0  0  0  0  0  0
  -27.7319  -28.4440   18.9695 C   0  0  0  0  0  0  0  0  0  0  0  0
  -20.5826   -5.3663   22.7625 C   0  0  0  0  0  0  0  0  0  0  0  0
  -20.5161   -4.5321   23.8784 C   0  0  0  0  0  0  0  0  0  0  0  0
  -26.4200  -27.8360   20.9004 C   0  0  0  0  0  0  0  0  0  0  0  0
  -26.9661  -20.2901   19.2814 C   0  0  0  0  0  0  0  0  0  0  0  0
  -22.9057   -4.7344   24.1719 C   0  0  0  0  0  0  0  0  0  0  0  0
  -23.3370  -10.5587   21.7930 C   0  0  0  0  0  0  0  0  0  0  0  0
  -24.9843  -12.2735   22.7168 C   0  0  0  0  0  0  0  0  0  0  0  0
  -27.3190  -36.7758   22.4429 C   0  0  0  0  0  0  0  0  0  0  0  0
  -26.1091  -30.0066   19.8749 C   0  0  0  0  0  0  0  0  0  0  0  0
  -27.6673  -35.4459   22.1386 C   0  0  0  0  0  0  0  0  0  0  0  0
  -25.7619  -29.0748   20.8635 C   0  0  0  0  0  0  0  0  0  0  0  0
  -27.1020  -18.9237   19.6615 C   0  0  0  0  0  0  0  0  0  0  0  0
  -22.3540   -7.9741   21.4238 C   0  0  0  0  0  0  0  0  0  0  0  0
  -27.4007  -27.5234   19.9594 C   0  0  0  0  0  0  0  0  0  0  0  0
  -21.8106   -5.8844   22.3512 C   0  0  0  0  0  0  0  0  0  0  0  0
  -21.6776   -4.2162   24.5832 C   0  0  0  0  0  0  0  0  0  0  0  0
  -22.9721   -5.5685   23.0559 C   0  0  0  0  0  0  0  0  0  0  0  0
  -23.8446  -11.8938   21.9828 C   0  0  0  0  0  0  0  0  0  0  0  0
  -28.4113  -18.5885   19.9280 C   0  0  0  0  0  0  0  0  0  0  0  0
  -25.0346  -13.6402   22.5902 C   0  0  0  0  0  0  0  0  0  0  0  0
  -28.1768  -20.9474   19.2720 C   0  0  0  0  0  0  0  0  0  0  0  0
  -27.5868  -23.1973   18.5979 C   0  0  0  0  0  0  0  0  0  0  0  0
  -28.4691  -24.1910   18.8601 C   0  0  0  0  0  0  0  0  0  0  0  0
  -25.9145  -11.4633   23.4475 C   0  0  0  0  0  0  0  0  0  0  0  0
  -28.9626  -17.3344   20.3339 C   0  0  0  0  0  0  0  0  0  0  0  0
  -26.2212  -23.3282   18.1011 C   0  0  0  0  0  0  0  0  0  0  0  0
  -25.8149  -32.2490   22.1084 C   0  0  0  0  0  0  0  0  0  0  0  0
  -22.8442  -30.9869   22.4316 C   0  0  0  0  0  0  0  0  0  0  0  0
  -20.7789  -28.2996   22.0325 C   0  0  0  0  0  0  0  0  0  0  0  0
  -24.6759  -18.2630   19.5073 C   0  0  0  0  0  0  0  0  0  0  0  0
  -26.3683  -37.1100   23.5649 C   0  0  0  0  0  0  0  0  0  0  0  0
  -25.4032  -31.3324   19.7962 C   0  0  0  0  0  0  0  0  0  0  0  0
  -24.7050  -29.3699   21.8952 C   0  0  0  0  0  0  0  0  0  0  0  0
  -29.4451  -23.1287   19.3005 C   0  0  0  0  0  0  0  0  0  0  0  0
  -25.5171  -35.9255   24.0153 C   0  0  0  0  0  0  0  0  0  0  0  0
  -21.6299  -16.9057   20.7552 C   0  0  0  0  0  0  0  0  0  0  0  0
  -26.3832  -34.6822   24.1913 C   0  0  0  0  0  0  0  0  0  0  0  0
  -22.0284  -15.5120   21.2462 C   0  0  0  0  0  0  0  0  0  0  0  0
  -22.3861  -17.2978   19.4870 C   0  0  0  0  0  0  0  0  0  0  0  0
  -24.2458  -15.7894   20.0660 C   0  0  0  0  0  0  0  0  0  0  0  0
  -27.0415  -34.2764   22.8672 C   0  0  1  0  0  0  0  0  0  0  0  0
  -24.7887  -31.7619   21.1249 C   0  0  1  0  0  0  0  0  0  0  0  0
  -23.5581  -15.3768   21.3776 C   0  0  2  0  0  0  0  0  0  0  0  0
  -30.3798  -17.0041   19.9193 C   0  0  0  0  0  0  0  0  0  0  0  0
  -25.4447  -24.5726   18.4627 C   0  0  0  0  0  0  0  0  0  0  0  0
  -18.4136  -27.5577   22.4232 C   0  0  0  0  0  0  0  0  0  0  0  0
  -23.4354  -30.6781   25.4090 C   0  0  0  0  0  0  0  0  0  0  0  0
  -21.4907  -29.1086   25.5613 C   0  0  0  0  0  0  0  0  0  0  0  0
  -21.1264  -31.4810   24.8818 C   0  0  0  0  0  0  0  0  0  0  0  0
  -20.3266  -27.8303   19.1456 C   0  0  0  0  0  0  0  0  0  0  0  0
  -28.4805  -25.7715   18.7673 C   0  0  0  0  0  0  0  0  0  1  0  0
  -22.2356  -29.8850   23.2649 C   0  0  1  0  0  0  0  0  0  0  0  0
  -19.3889  -28.1775   21.4345 C   0  0  2  0  0  0  0  0  0  0  0  0
  -22.0934  -30.2831   24.7611 C   0  0  0  0  0  0  0  0  0  0  0  0
  -23.2161  -12.9351   21.4310 N   0  0  0  0  0  0  0  0  0  0  0  0
  -23.9634  -13.9827   21.8185 N   0  0  0  0  0  0  0  0  0  0  0  0
  -28.3818  -22.2294   18.9613 N   0  0  0  0  0  0  0  0  0  0  0  0
  -24.0478  -30.6823   21.7802 N   0  0  0  0  0  0  0  0  0  0  0  0
  -23.8292  -17.1488   19.6874 N   0  0  0  0  0  0  0  0  0  0  0  0
  -25.8900  -14.5704   23.0649 N   0  0  0  0  0  0  0  0  0  0  0  0
  -25.7150  -10.0762   23.4744 N   0  0  0  0  0  0  0  0  0  0  0  0
  -26.0241  -18.0090   19.7574 N   0  0  0  0  0  0  0  0  0  0  0  0
  -26.0873  -33.6004   22.0146 N   0  0  0  0  0  0  0  0  0  0  0  0
  -20.9764  -29.5322   22.6181 N   0  0  0  0  0  0  0  0  0  0  0  0
  -19.4239  -27.3256   20.2122 N   0  3  0  0  0  0  0  0  0  0  0  0
  -26.8842  -11.9563   24.0722 O   0  0  0  0  0  0  0  0  0  0  0  0
  -28.3785  -16.4616   21.0074 O   0  0  0  0  0  0  0  0  0  0  0  0
  -25.7105  -22.4405   17.4087 O   0  0  0  0  0  0  0  0  0  0  0  0
  -26.3210  -31.4575   22.8953 O   0  0  0  0  0  0  0  0  0  0  0  0
  -22.2691  -32.0756   22.3556 O   0  0  0  0  0  0  0  0  0  0  0  0
  -21.6053  -27.3910   21.9881 O   0  0  0  0  0  0  0  0  0  0  0  0
  -24.2339  -19.3683   19.1835 O   0  0  0  0  0  0  0  0  0  0  0  0
  -21.8748   -6.7130   21.2435 O   0  0  0  0  0  0  0  0  0  0  0  0
  -28.0296  -26.3175   20.0063 O   0  0  0  0  0  0  0  0  0  1  0  0
  -21.6134   -3.4164   25.6558 F   0  0  0  0  0  0  0  0  0  0  0  0
  -24.1546   -6.0642   22.6663 F   0  0  0  0  0  0  0  0  0  0  0  0
  -29.4700  -19.9182   19.7199 S   0  0  0  0  0  0  0  0  0  0  0  0
  1  2  1  0  0  0  0
  1  5  2  0  0  0  0
  2  6  2  0  0  0  0
  3  8  2  0  0  0  0
  3 16  1  0  0  0  0
  4  9  1  0  0  0  0
  4 16  2  0  0  0  0
  5 18  1  0  0  0  0
  6 20  1  0  0  0  0
  7 10  2  0  0  0  0
  7 19  1  0  0  0  0
  8 23  1  0  0  0  0
  9 23  2  0  0  0  0
 10 24  1  0  0  0  0
 11 12  2  0  0  0  0
 11 25  1  0  0  0  0
 12 26  1  0  0  0  0
 13 21  1  0  0  0  0
 13 24  2  0  0  0  0
 14 22  1  0  0  0  0
 14 31  2  0  0  0  0
 15 26  2  0  0  0  0
 15 27  1  0  0  0  0
 16 28  1  0  0  0  0
 17 28  1  0  0  0  0
 17 30  2  0  0  0  0
 17 34  1  0  0  0  0
 18 20  2  0  0  0  0
 18 41  1  0  0  0  0
 19 21  2  0  0  0  0
 19 42  1  0  0  0  0
 20 51  1  0  0  0  0
 21 43  1  0  0  0  0
 22 29  2  0  0  0  0
 22 72  1  0  0  0  0
 23 83  1  0  0  0  0
 24 84  1  0  0  0  0
 25 27  2  0  0  0  0
 25 83  1  0  0  0  0
 26 85  1  0  0  0  0
 27 86  1  0  0  0  0
 28 65  2  0  0  0  0
 29 35  1  0  0  0  0
 29 87  1  0  0  0  0
 30 66  1  0  0  0  0
 30 70  1  0  0  0  0
 31 67  1  0  0  0  0
 31 87  1  0  0  0  0
 32 33  2  0  0  0  0
 32 36  1  0  0  0  0
 32 67  1  0  0  0  0
 33 44  1  0  0  0  0
 33 61  1  0  0  0  0
 34 71  1  0  0  0  0
 34 76  2  0  0  0  0
 35 54  1  0  0  0  0
 35 77  2  0  0  0  0
 36 55  1  0  0  0  0
 36 78  2  0  0  0  0
 37 52  1  0  0  0  0
 37 73  1  0  0  0  0
 37 79  2  0  0  0  0
 38 62  1  0  0  0  0
 38 68  1  0  0  0  0
 38 80  2  0  0  0  0
 39 63  1  0  0  0  0
 39 74  1  0  0  0  0
 39 81  2  0  0  0  0
 40 69  1  0  0  0  0
 40 72  1  0  0  0  0
 40 82  2  0  0  0  0
 41 45  1  0  0  0  0
 42 52  1  0  0  0  0
 43 68  1  0  0  0  0
 44 67  1  0  0  0  0
 45 47  1  0  0  0  0
 46 48  1  0  0  0  0
 46 49  1  0  0  0  0
 47 51  1  0  0  0  0
 48 53  1  0  0  0  0
 49 69  1  0  0  0  0
 50 53  1  0  0  0  0
 50 69  1  0  0  0  0
 51 73  1  0  0  0  0
 52 68  1  0  0  0  0
 53 66  1  0  0  0  0
 56 63  1  0  0  0  0
 57 64  1  0  0  0  0
 58 64  1  0  0  0  0
 59 64  1  0  0  0  0
 60 75  1  0  0  0  0
 61 84  1  0  0  0  0
 62 64  1  0  0  0  0
 62 74  1  0  0  0  0
 63 75  1  0  0  0  0
 65 66  1  0  0  0  0
M  CHG  1  75   1
M  ISO  4  40 100  61 101  72 100  84 101
M  END
> <Batch ID>
0157

> <Smiles>
CNC(C)C(=O)NC(C(=O)N1Cc2cc([101O:1][101CH2:1]C3=C(C(C)=O)N(c4cc([100NH:0][100C:0](=O)N5CCCC(n6nc(-c7ccc(Oc8ccc(F)cc8F)cc7)c(C(N)=O)c6N)C5)c(C(C)=O)s4)C3)ccc2CC1C(=O)NC1CCCc2ccccc21)C(C)(C)C

> <Shape>
0.291

> <Color>
0.105

> <Negative vol penalty>
0.000

$$$$

  -OEChem-04052303413D

 83 92  0     1  0  0  0  0  0999 V2000
  -28.2696  -24.7775   17.0855 C   0  0  0  0  0  0  0  0  0  0  0  0
  -27.0885  -24.9691   17.7953 C   0  0  0  0  0  0  0  0  0  0  0  0
  -25.3403  -13.6331   18.5863 C   0  0  0  0  0  0  0  0  0  0  0  0
  -23.1790  -13.5733   19.6643 C   0  0  0  0  0  0  0  0  0  0  0  0
  -29.4585  -25.3403   17.5478 C   0  0  0  0  0  0  0  0  0  0  0  0
  -27.0960  -25.7226   18.9686 C   0  0  0  0  0  0  0  0  0  0  0  0
  -23.2327  -28.9883   19.2044 C   0  0  0  0  0  0  0  0  0  0  0  0
  -25.7328  -12.5076   19.3108 C   0  0  0  0  0  0  0  0  0  0  0  0
  -23.5715  -12.4478   20.3888 C   0  0  0  0  0  0  0  0  0  0  0  0
  -21.9842  -28.4737   19.5514 C   0  0  0  0  0  0  0  0  0  0  0  0
  -23.8922   -9.1273   19.8490 C   0  0  0  0  0  0  0  0  0  0  0  0
  -22.9893   -8.0678   19.9371 C   0  0  0  0  0  0  0  0  0  0  0  0
  -22.2982  -29.2531   21.8126 C   0  0  0  0  0  0  0  0  0  0  0  0
  -22.9719   -8.2826   22.3434 C   0  0  0  0  0  0  0  0  0  0  0  0
  -18.8949  -20.8451   21.4309 C   0  0  0  0  0  0  0  0  0  0  0  0
  -24.0634  -14.1660   18.7631 C   0  0  0  0  0  0  0  0  0  0  0  0
  -23.0286  -15.3531   16.7562 C   0  0  0  0  0  0  0  0  0  0  0  0
  -29.4787  -26.1092   18.7221 C   0  0  0  0  0  0  0  0  0  0  0  0
  -24.0293  -29.6306   20.1632 C   0  0  0  0  0  0  0  0  0  0  0  0
  -28.2865  -26.2951   19.4477 C   0  0  0  0  0  0  0  0  0  0  0  0
  -23.5552  -29.7772   21.4747 C   0  0  0  0  0  0  0  0  0  0  0  0
  -24.8484  -11.9150   20.2120 C   0  0  0  0  0  0  0  0  0  0  0  0
  -21.5180  -28.6035   20.8563 C   0  0  0  0  0  0  0  0  0  0  0  0
  -24.3351   -9.7644   21.0081 C   0  0  0  0  0  0  0  0  0  0  0  0
  -22.5291   -7.6455   21.1843 C   0  0  0  0  0  0  0  0  0  0  0  0
  -23.8749   -9.3421   22.2553 C   0  0  0  0  0  0  0  0  0  0  0  0
  -23.6576  -15.3289   18.0154 C   0  0  0  0  0  0  0  0  0  0  0  0
  -22.8553  -16.6883   16.4846 C   0  0  0  0  0  0  0  0  0  0  0  0
  -20.0679  -21.3946   20.9761 C   0  0  0  0  0  0  0  0  0  0  0  0
  -18.7927  -22.9184   21.7687 C   0  0  0  0  0  0  0  0  0  0  0  0
  -17.9752  -26.7050   23.3209 C   0  0  0  0  0  0  0  0  0  0  0  0
  -19.1029  -26.5717   22.6031 C   0  0  0  0  0  0  0  0  0  0  0  0
  -22.6361  -14.2659   15.9080 C   0  0  0  0  0  0  0  0  0  0  0  0
  -26.8943  -29.0867   21.4280 C   0  0  0  0  0  0  0  0  0  0  0  0
  -26.3814  -31.9575   22.8485 C   0  0  0  0  0  0  0  0  0  0  0  0
  -24.1435  -34.2944   23.9337 C   0  0  0  0  0  0  0  0  0  0  0  0
  -22.3658  -21.5296   19.9527 C   0  0  0  0  0  0  0  0  0  0  0  0
  -30.7968  -26.6580   19.2079 C   0  0  0  0  0  0  0  0  0  0  0  0
  -25.3621  -30.2038   19.7665 C   0  0  0  0  0  0  0  0  0  0  0  0
  -24.3630  -30.4762   22.5364 C   0  0  0  0  0  0  0  0  0  0  0  0
  -16.9191  -25.6460   23.3712 C   0  0  0  0  0  0  0  0  0  0  0  0
  -19.4224  -25.3185   21.8202 C   0  0  0  0  0  0  0  0  0  0  0  0
  -30.6496  -27.7559   20.2583 C   0  0  0  0  0  0  0  0  0  0  0  0
  -24.7824  -20.9764   17.3970 C   0  0  0  0  0  0  0  0  0  0  0  0
  -29.6387  -27.3433   21.3235 C   0  0  0  0  0  0  0  0  0  0  0  0
  -24.7067  -19.4685   17.1467 C   0  0  0  0  0  0  0  0  0  0  0  0
  -17.0623  -24.6201   22.2482 C   0  0  0  0  0  0  0  0  0  0  0  0
  -24.5945  -21.3161   18.8745 C   0  0  0  0  0  0  0  0  0  0  0  0
  -23.3112  -19.2456   19.2420 C   0  0  0  0  0  0  0  0  0  0  0  0
  -28.2494  -27.1269   20.7114 C   0  0  1  0  0  0  0  0  0  0  0  0
  -26.3101  -30.3852   20.9480 C   0  0  1  0  0  0  0  0  0  0  0  0
  -23.4301  -18.8591   17.7587 C   0  0  2  0  0  0  0  0  0  0  0  0
  -24.0224  -36.5187   25.0892 C   0  0  0  0  0  0  0  0  0  0  0  0
  -26.9638  -30.5997   25.5182 C   0  0  0  0  0  0  0  0  0  0  0  0
  -25.9201  -32.5647   26.6660 C   0  0  0  0  0  0  0  0  0  0  0  0
  -27.9617  -32.8791   25.2675 C   0  0  0  0  0  0  0  0  0  0  0  0
  -22.8442  -35.5670   21.5989 C   0  0  0  0  0  0  0  0  0  0  0  0
  -20.1337  -27.6611   22.5449 C   0  0  0  0  0  0  0  0  0  1  0  0
  -25.7471  -32.4128   24.1406 C   0  0  1  0  0  0  0  0  0  0  0  0
  -24.0912  -35.8004   23.7505 C   0  0  2  0  0  0  0  0  0  0  0  0
  -26.6335  -32.0992   25.3788 C   0  0  0  0  0  0  0  0  0  0  0  0
  -18.0819  -21.8264   21.9378 N   0  0  0  0  0  0  0  0  0  0  0  0
  -23.8696  -16.5516   18.5095 N   0  0  0  0  0  0  0  0  0  0  0  0
  -23.3712  -17.3566   17.5557 N   0  0  0  0  0  0  0  0  0  0  0  0
  -18.4690  -24.2360   22.1008 N   0  0  1  0  0  0  0  0  0  0  0  0
  -25.6624  -31.0141   22.1009 N   0  0  0  0  0  0  0  0  0  0  0  0
  -23.3632  -20.7090   19.3846 N   0  0  0  0  0  0  0  0  0  0  0  0
  -22.3135  -17.3440   15.4363 N   0  0  0  0  0  0  0  0  0  0  0  0
  -22.8885  -12.9567   16.3398 N   0  0  0  0  0  0  0  0  0  0  0  0
  -21.2262  -20.8447   20.3731 N   0  0  0  0  0  0  0  0  0  0  0  0
  -27.6033  -28.3978   20.4625 N   0  0  0  0  0  0  0  0  0  0  0  0
  -25.4409  -33.8288   23.9682 N   0  0  0  0  0  0  0  0  0  0  0  0
  -22.8942  -36.1835   22.9496 N   0  3  0  0  0  0  0  0  0  0  0  0
  -22.0928  -14.4503   14.7924 O   0  0  0  0  0  0  0  0  0  0  0  0
  -26.7163  -28.7366   22.5888 O   0  0  0  0  0  0  0  0  0  0  0  0
  -27.4711  -32.4270   22.5115 O   0  0  0  0  0  0  0  0  0  0  0  0
  -23.1344  -33.6008   24.0397 O   0  0  0  0  0  0  0  0  0  0  0  0
  -22.5005  -22.7532   20.0335 O   0  0  0  0  0  0  0  0  0  0  0  0
  -20.0119  -22.7386   21.1905 O   0  0  0  0  0  0  0  0  0  0  0  0
  -25.2310  -10.8166   20.9190 O   0  0  0  0  0  0  0  0  0  0  0  0
  -20.3001  -28.1015   21.1978 O   0  0  0  0  0  0  0  0  0  1  0  0
  -21.6608   -6.6291   21.2686 F   0  0  0  0  0  0  0  0  0  0  0  0
  -24.2959   -9.9511   23.3724 F   0  0  0  0  0  0  0  0  0  0  0  0
  1  2  1  0  0  0  0
  1  5  2  0  0  0  0
  2  6  2  0  0  0  0
  3  8  2  0  0  0  0
  3 16  1  0  0  0  0
  4  9  1  0  0  0  0
  4 16  2  0  0  0  0
  5 18  1  0  0  0  0
  6 20  1  0  0  0  0
  7 10  2  0  0  0  0
  7 19  1  0  0  0  0
  8 22  1  0  0  0  0
  9 22  2  0  0  0  0
 10 23  1  0  0  0  0
 11 12  2  0  0  0  0
 11 24  1  0  0  0  0
 12 25  1  0  0  0  0
 13 21  1  0  0  0  0
 13 23  2  0  0  0  0
 14 25  2  0  0  0  0
 14 26  1  0  0  0  0
 15 29  2  0  0  0  0
 15 62  1  0  0  0  0
 16 27  1  0  0  0  0
 17 27  1  0  0  0  0
 17 28  2  0  0  0  0
 17 33  1  0  0  0  0
 18 20  2  0  0  0  0
 18 38  1  0  0  0  0
 19 21  2  0  0  0  0
 19 39  1  0  0  0  0
 20 50  1  0  0  0  0
 21 40  1  0  0  0  0
 22 80  1  0  0  0  0
 23 81  1  0  0  0  0
 24 26  2  0  0  0  0
 24 80  1  0  0  0  0
 25 82  1  0  0  0  0
 26 83  1  0  0  0  0
 27 63  2  0  0  0  0
 28 64  1  0  0  0  0
 28 68  1  0  0  0  0
 29 70  1  0  0  0  0
 29 79  1  0  0  0  0
 30 62  2  0  0  0  0
 30 65  1  0  0  0  0
 30 79  1  0  0  0  0
 31 32  2  0  0  0  0
 31 41  1  0  0  0  0
 32 42  1  0  0  0  0
 32 58  1  0  0  0  0
 33 69  1  0  0  0  0
 33 74  2  0  0  0  0
 34 51  1  0  0  0  0
 34 71  1  0  0  0  0
 34 75  2  0  0  0  0
 35 59  1  0  0  0  0
 35 66  1  0  0  0  0
 35 76  2  0  0  0  0
 36 60  1  0  0  0  0
 36 72  1  0  0  0  0
 36 77  2  0  0  0  0
 37 67  1  0  0  0  0
 37 70  1  0  0  0  0
 37 78  2  0  0  0  0
 38 43  1  0  0  0  0
 39 51  1  0  0  0  0
 40 66  1  0  0  0  0
 41 47  1  0  0  0  0
 42 65  1  0  0  0  0
 43 45  1  0  0  0  0
 44 46  1  0  0  0  0
 44 48  1  0  0  0  0
 45 50  1  0  0  0  0
 46 52  1  0  0  0  0
 47 65  1  0  0  0  0
 48 67  1  0  0  0  0
 49 52  1  0  0  0  0
 49 67  1  0  0  0  0
 50 71  1  0  0  0  0
 51 66  1  0  0  0  0
 52 64  1  0  0  0  0
 53 60  1  0  0  0  0
 54 61  1  0  0  0  0
 55 61  1  0  0  0  0
 56 61  1  0  0  0  0
 57 73  1  0  0  0  0
 58 81  1  0  0  0  0
 59 61  1  0  0  0  0
 59 72  1  0  0  0  0
 60 73  1  0  0  0  0
 63 64  1  0  0  0  0
M  CHG  1  73   1
M  ISO  4  37 100  58 101  70 100  81 101
M  END
> <Batch ID>
0157

> <Smiles>
CNC(C)C(=O)NC(C(=O)N1Cc2cc([101O:1][101CH2:1]C3=CCCN(c4ncc([100NH:0][100C:0](=O)N5CCCC(n6nc(-c7ccc(Oc8ccc(F)cc8F)cc7)c(C(N)=O)c6N)C5)o4)C3)ccc2CC1C(=O)NC1CCCc2ccccc21)C(C)(C)C

> <Shape>
0.268

> <Color>
0.069

> <Negative vol penalty>
0.000

$$$$

  -OEChem-04052303413D

 84 92  0     1  0  0  0  0  0999 V2000
  -28.3878  -16.8281   17.5206 C   0  0  0  0  0  0  0  0  0  0  0  0
  -28.6282  -17.5218   18.7023 C   0  0  0  0  0  0  0  0  0  0  0  0
  -23.0750   -9.8668   19.9429 C   0  0  0  0  0  0  0  0  0  0  0  0
  -23.8321   -9.8780   22.2372 C   0  0  0  0  0  0  0  0  0  0  0  0
  -29.2753  -16.9456   16.4518 C   0  0  0  0  0  0  0  0  0  0  0  0
  -29.7569  -18.3326   18.8162 C   0  0  0  0  0  0  0  0  0  0  0  0
  -28.7216  -22.8186   20.9253 C   0  0  0  0  0  0  0  0  0  0  0  0
  -22.3310   -8.7140   20.1940 C   0  0  0  0  0  0  0  0  0  0  0  0
  -23.0880   -8.7252   22.4883 C   0  0  0  0  0  0  0  0  0  0  0  0
  -28.5677  -22.8506   22.3107 C   0  0  0  0  0  0  0  0  0  0  0  0
  -19.3810   -7.9197   21.6430 C   0  0  0  0  0  0  0  0  0  0  0  0
  -18.0748   -7.8724   21.1562 C   0  0  0  0  0  0  0  0  0  0  0  0
  -29.8733  -17.4633   23.1354 C   0  0  0  0  0  0  0  0  0  0  0  0
  -31.8454  -18.3694   24.1967 C   0  0  0  0  0  0  0  0  0  0  0  0
  -30.8215  -23.6808   22.5357 C   0  0  0  0  0  0  0  0  0  0  0  0
  -32.0582  -16.6150   22.5494 C   0  0  0  0  0  0  0  0  0  0  0  0
  -18.6364   -5.9270   19.8381 C   0  0  0  0  0  0  0  0  0  0  0  0
  -23.8256  -10.4487   20.9645 C   0  0  0  0  0  0  0  0  0  0  0  0
  -30.4597  -18.3501   24.0383 C   0  0  0  0  0  0  0  0  0  0  0  0
  -24.1673  -12.9737   20.8403 C   0  0  0  0  0  0  0  0  0  0  0  0
  -30.4104  -17.7658   16.5492 C   0  0  0  0  0  0  0  0  0  0  0  0
  -29.9323  -23.2079   20.3345 C   0  0  0  0  0  0  0  0  0  0  0  0
  -30.6611  -18.4601   17.7481 C   0  0  0  0  0  0  0  0  0  0  0  0
  -30.9872  -23.6553   21.1425 C   0  0  0  0  0  0  0  0  0  0  0  0
  -30.6725  -16.5957   22.3909 C   0  0  0  0  0  0  0  0  0  0  0  0
  -22.3374   -8.1432   21.4667 C   0  0  0  0  0  0  0  0  0  0  0  0
  -29.6187  -23.2790   23.1163 C   0  0  0  0  0  0  0  0  0  0  0  0
  -20.3150   -6.9706   21.2273 C   0  0  0  0  0  0  0  0  0  0  0  0
  -17.7024   -6.8761   20.2538 C   0  0  0  0  0  0  0  0  0  0  0  0
  -32.6447  -17.5018   23.4523 C   0  0  0  0  0  0  0  0  0  0  0  0
  -19.9427   -5.9743   20.3249 C   0  0  0  0  0  0  0  0  0  0  0  0
  -24.5949  -11.6392   20.7055 C   0  0  0  0  0  0  0  0  0  0  0  0
  -25.2598  -13.7227   20.4770 C   0  0  0  0  0  0  0  0  0  0  0  0
  -29.6140  -19.2679   24.8276 C   0  0  0  0  0  0  0  0  0  0  0  0
  -22.8963  -13.4901   21.2567 C   0  0  0  0  0  0  0  0  0  0  0  0
  -32.1251  -21.7570   18.5483 C   0  0  0  0  0  0  0  0  0  0  0  0
  -33.3911  -24.7384   18.3718 C   0  0  0  0  0  0  0  0  0  0  0  0
  -33.6943  -27.8437   19.7544 C   0  0  0  0  0  0  0  0  0  0  0  0
  -30.7257  -14.7692   20.6567 C   0  0  0  0  0  0  0  0  0  0  0  0
  -31.3660  -17.8241   15.3839 C   0  0  0  0  0  0  0  0  0  0  0  0
  -30.0731  -23.1930   18.8370 C   0  0  0  0  0  0  0  0  0  0  0  0
  -32.3004  -24.1030   20.5563 C   0  0  0  0  0  0  0  0  0  0  0  0
  -32.3399  -18.9976   15.4530 C   0  0  0  0  0  0  0  0  0  0  0  0
  -29.6145  -12.3510   18.2914 C   0  0  0  0  0  0  0  0  0  0  0  0
  -32.9454  -19.1074   16.8487 C   0  0  0  0  0  0  0  0  0  0  0  0
  -28.1744  -12.0600   18.7197 C   0  0  0  0  0  0  0  0  0  0  0  0
  -30.5281  -12.5821   19.4938 C   0  0  0  0  0  0  0  0  0  0  0  0
  -28.6193  -13.3088   20.8713 C   0  0  0  0  0  0  0  0  0  0  0  0
  -31.8614  -19.3690   17.9013 C   0  0  1  0  0  0  0  0  0  0  0  0
  -31.5251  -23.1235   18.3741 C   0  0  1  0  0  0  0  0  0  0  0  0
  -27.6480  -13.1333   19.6926 C   0  0  2  0  0  0  0  0  0  0  0  0
  -34.8265  -30.0552   19.4013 C   0  0  0  0  0  0  0  0  0  0  0  0
  -27.4468  -23.0714   25.7559 C   0  0  0  0  0  0  0  0  0  0  0  0
  -36.0254  -23.5414   19.3400 C   0  0  0  0  0  0  0  0  0  0  0  0
  -36.8037  -25.8610   19.8711 C   0  0  0  0  0  0  0  0  0  0  0  0
  -36.2579  -25.2386   17.5180 C   0  0  0  0  0  0  0  0  0  0  0  0
  -31.1073  -29.2664   19.5476 C   0  0  0  0  0  0  0  0  0  0  0  0
  -29.3858  -21.4432   25.9732 C   0  0  0  0  0  0  0  0  0  0  0  0
  -34.3837  -25.5285   19.1899 C   0  0  1  0  0  0  0  0  0  0  0  0
  -33.5731  -29.2313   19.1507 C   0  0  2  0  0  0  0  0  0  0  0  0
  -28.5870  -22.3522   25.0483 C   0  0  2  0  0  0  0  0  0  1  0  0
  -35.8438  -25.0322   18.9912 C   0  0  0  0  0  0  0  0  0  0  0  0
  -25.8603  -11.5428   20.2890 N   0  0  0  0  0  0  0  0  0  0  0  0
  -26.2372  -12.8262   20.1588 N   0  0  0  0  0  0  0  0  0  0  0  0
  -32.3914  -24.0643   19.0874 N   0  0  0  0  0  0  0  0  0  0  0  0
  -29.9679  -13.6144   20.3686 N   0  0  0  0  0  0  0  0  0  0  0  0
  -25.4702  -15.0540   20.4019 N   0  0  0  0  0  0  0  0  0  0  0  0
  -28.3803  -18.8720   25.1412 N   0  0  0  0  0  0  0  0  0  0  0  0
  -21.8840  -12.5814   21.5943 N   0  0  0  0  0  0  0  0  0  0  0  0
  -30.0772  -15.6957   21.4726 N   0  0  0  0  0  0  0  0  0  0  0  0
  -31.4528  -20.7570   17.8719 N   0  0  0  0  0  0  0  0  0  0  0  0
  -34.1764  -26.9299   18.8413 N   0  0  0  0  0  0  0  0  0  0  0  0
  -30.1247  -20.4512   25.1874 N   0  3  0  0  0  0  0  0  0  0  0  0
  -32.4104  -29.9531   19.7408 N   0  3  0  0  0  0  0  0  0  0  0  0
  -22.6598  -14.7208   21.3115 O   0  0  0  0  0  0  0  0  0  0  0  0
  -33.1248  -21.6203   19.2437 O   0  0  0  0  0  0  0  0  0  0  0  0
  -33.4944  -24.7257   17.1427 O   0  0  0  0  0  0  0  0  0  0  0  0
  -33.3950  -27.5961   20.9204 O   0  0  0  0  0  0  0  0  0  0  0  0
  -31.8554  -14.9372   20.1902 O   0  0  0  0  0  0  0  0  0  0  0  0
  -21.6113   -7.0184   21.7121 O   0  0  0  0  0  0  0  0  0  0  0  0
  -29.4715  -23.3105   24.4687 O   0  0  0  0  0  0  0  0  0  1  0  0
  -16.4475   -6.8299   19.7876 F   0  0  0  0  0  0  0  0  0  0  0  0
  -33.9753  -17.5204   23.6046 F   0  0  0  0  0  0  0  0  0  0  0  0
  -20.8352   -5.0591   19.9229 F   0  0  0  0  0  0  0  0  0  0  0  0
  1  2  1  0  0  0  0
  1  5  2  0  0  0  0
  2  6  2  0  0  0  0
  3  8  2  0  0  0  0
  3 18  1  0  0  0  0
  4  9  1  0  0  0  0
  4 18  2  0  0  0  0
  5 21  1  0  0  0  0
  6 23  1  0  0  0  0
  7 10  2  0  0  0  0
  7 22  1  0  0  0  0
  8 26  1  0  0  0  0
  9 26  2  0  0  0  0
 10 27  1  0  0  0  0
 11 12  2  0  0  0  0
 11 28  1  0  0  0  0
 12 29  1  0  0  0  0
 13 19  2  0  0  0  0
 13 25  1  0  0  0  0
 14 19  1  0  0  0  0
 14 30  2  0  0  0  0
 15 24  1  0  0  0  0
 15 27  2  0  0  0  0
 16 25  2  0  0  0  0
 16 30  1  0  0  0  0
 17 29  2  0  0  0  0
 17 31  1  0  0  0  0
 18 32  1  0  0  0  0
 19 34  1  0  0  0  0
 20 32  1  0  0  0  0
 20 33  2  0  0  0  0
 20 35  1  0  0  0  0
 21 23  2  0  0  0  0
 21 40  1  0  0  0  0
 22 24  2  0  0  0  0
 22 41  1  0  0  0  0
 23 49  1  0  0  0  0
 24 42  1  0  0  0  0
 25 70  1  0  0  0  0
 26 80  1  0  0  0  0
 27 81  1  0  0  0  0
 28 31  2  0  0  0  0
 28 80  1  0  0  0  0
 29 82  1  0  0  0  0
 30 83  1  0  0  0  0
 31 84  1  0  0  0  0
 32 63  2  0  0  0  0
 33 64  1  0  0  0  0
 33 67  1  0  0  0  0
 34 68  1  0  0  0  0
 34 73  2  0  0  0  0
 35 69  1  0  0  0  0
 35 75  2  0  0  0  0
 36 50  1  0  0  0  0
 36 71  1  0  0  0  0
 36 76  2  0  0  0  0
 37 59  1  0  0  0  0
 37 65  1  0  0  0  0
 37 77  2  0  0  0  0
 38 60  1  0  0  0  0
 38 72  1  0  0  0  0
 38 78  2  0  0  0  0
 39 66  1  0  0  0  0
 39 70  1  0  0  0  0
 39 79  2  0  0  0  0
 40 43  1  0  0  0  0
 41 50  1  0  0  0  0
 42 65  1  0  0  0  0
 43 45  1  0  0  0  0
 44 46  1  0  0  0  0
 44 47  1  0  0  0  0
 45 49  1  0  0  0  0
 46 51  1  0  0  0  0
 47 66  1  0  0  0  0
 48 51  1  0  0  0  0
 48 66  1  0  0  0  0
 49 71  1  0  0  0  0
 50 65  1  0  0  0  0
 51 64  1  0  0  0  0
 52 60  1  0  0  0  0
 53 61  1  0  0  0  0
 54 62  1  0  0  0  0
 55 62  1  0  0  0  0
 56 62  1  0  0  0  0
 57 74  1  0  0  0  0
 58 61  1  0  0  0  0
 58 73  1  0  0  0  0
 59 62  1  0  0  0  0
 59 72  1  0  0  0  0
 60 74  1  0  0  0  0
 61 81  1  0  0  0  0
 63 64  1  0  0  0  0
M  CHG  2  73   1  74   1
M  ISO  4  39 100  61 101  70 100  81 101
M  END
> <Batch ID>
0157

> <Smiles>
CNC(C)C(=O)NC(C(=O)N1Cc2cc([101O:1][101CH:1](C)CNC(=N)c3cc(F)cc([100NH:0][100C:0](=O)N4CCCC(n5nc(-c6ccc(Oc7ccc(F)cc7F)cc6)c(C(N)=O)c5N)C4)c3)ccc2CC1C(=O)NC1CCCc2ccccc21)C(C)(C)C

> <Shape>
0.200

> <Color>
0.187

> <Negative vol penalty>
0.000

$$$$

  -OEChem-04052303413D

 88 97  0     1  0  0  0  0  0999 V2000
  -28.5244  -36.2563   23.7450 C   0  0  0  0  0  0  0  0  0  0  0  0
  -28.5354  -34.8757   23.9161 C   0  0  0  0  0  0  0  0  0  0  0  0
  -24.4999   -8.8821   21.4355 C   0  0  0  0  0  0  0  0  0  0  0  0
  -22.9304  -10.6731   21.8433 C   0  0  0  0  0  0  0  0  0  0  0  0
  -27.3134  -36.9277   23.5816 C   0  0  0  0  0  0  0  0  0  0  0  0
  -27.3352  -34.1658   23.9250 C   0  0  0  0  0  0  0  0  0  0  0  0
  -27.5552  -29.9430   21.1386 C   0  0  0  0  0  0  0  0  0  0  0  0
  -23.8780   -8.1132   22.4192 C   0  0  0  0  0  0  0  0  0  0  0  0
  -22.3085   -9.9041   22.8269 C   0  0  0  0  0  0  0  0  0  0  0  0
  -28.2018  -28.8427   21.7000 C   0  0  0  0  0  0  0  0  0  0  0  0
  -21.0956   -6.2136   22.7073 C   0  0  0  0  0  0  0  0  0  0  0  0
  -20.8342   -4.8751   22.4149 C   0  0  0  0  0  0  0  0  0  0  0  0
  -28.6725  -22.4659   20.3617 C   0  0  0  0  0  0  0  0  0  0  0  0
  -26.0637  -27.8971   22.2946 C   0  0  0  0  0  0  0  0  0  0  0  0
  -27.3873  -21.2464   18.7192 C   0  0  0  0  0  0  0  0  0  0  0  0
  -26.9592  -23.5956   19.0867 C   0  0  0  0  0  0  0  0  0  0  0  0
  -22.2157   -4.1983   24.2779 C   0  0  0  0  0  0  0  0  0  0  0  0
  -24.0262  -10.1621   21.1476 C   0  0  0  0  0  0  0  0  0  0  0  0
  -24.3569  -10.9967   18.7598 C   0  0  0  0  0  0  0  0  0  0  0  0
  -26.0985  -36.2245   23.5788 C   0  0  0  0  0  0  0  0  0  0  0  0
  -26.1561  -30.0339   21.1608 C   0  0  0  0  0  0  0  0  0  0  0  0
  -26.1068  -34.8286   23.7628 C   0  0  0  0  0  0  0  0  0  0  0  0
  -28.3867  -21.2764   19.6917 C   0  0  0  0  0  0  0  0  0  0  0  0
  -25.4017  -28.9983   21.7306 C   0  0  0  0  0  0  0  0  0  0  0  0
  -27.9587  -23.6256   20.0593 C   0  0  0  0  0  0  0  0  0  0  0  0
  -22.7823   -8.6241   23.1148 C   0  0  0  0  0  0  0  0  0  0  0  0
  -27.4562  -27.8209   22.2806 C   0  0  0  0  0  0  0  0  0  0  0  0
  -21.9171   -6.5445   23.7850 C   0  0  0  0  0  0  0  0  0  0  0  0
  -21.3942   -3.8674   23.2001 C   0  0  0  0  0  0  0  0  0  0  0  0
  -26.6735  -22.4061   18.4167 C   0  0  0  0  0  0  0  0  0  0  0  0
  -22.4771   -5.5369   24.5703 C   0  0  0  0  0  0  0  0  0  0  0  0
  -24.6685  -10.9572   20.1320 C   0  0  0  0  0  0  0  0  0  0  0  0
  -25.2476  -11.8988   18.2312 C   0  0  0  0  0  0  0  0  0  0  0  0
  -23.3520  -10.2820   18.0283 C   0  0  0  0  0  0  0  0  0  0  0  0
  -24.0594  -32.0518   22.4397 C   0  0  0  0  0  0  0  0  0  0  0  0
  -21.9175  -30.2624   20.7867 C   0  0  0  0  0  0  0  0  0  0  0  0
  -21.1578  -27.2775   19.3169 C   0  0  0  0  0  0  0  0  0  0  0  0
  -28.2111  -16.3450   21.1159 C   0  0  0  0  0  0  0  0  0  0  0  0
  -24.8114  -36.9995   23.4460 C   0  0  0  0  0  0  0  0  0  0  0  0
  -25.4727  -31.2146   20.5273 C   0  0  0  0  0  0  0  0  0  0  0  0
  -23.8964  -29.0384   21.7620 C   0  0  0  0  0  0  0  0  0  0  0  0
  -23.6092  -36.1277   23.0925 C   0  0  0  0  0  0  0  0  0  0  0  0
  -29.6243  -13.6876   18.8996 C   0  0  0  0  0  0  0  0  0  0  0  0
  -23.5770  -34.8811   23.9709 C   0  0  0  0  0  0  0  0  0  0  0  0
  -28.4912  -12.6624   18.9143 C   0  0  0  0  0  0  0  0  0  0  0  0
  -28.9723  -19.6408   21.5144 C   0  0  0  0  0  0  0  0  0  0  0  0
  -29.6596  -14.4901   20.1948 C   0  0  0  0  0  0  0  0  0  0  0  0
  -29.5976  -18.2940   21.8645 C   0  0  0  0  0  0  0  0  0  0  0  0
  -27.2307  -14.1531   20.5341 C   0  0  0  0  0  0  0  0  0  0  0  0
  -28.8113  -18.7904   19.1400 C   0  0  0  0  0  0  0  0  0  0  0  0
  -24.8274  -34.0204   23.7533 C   0  0  1  0  0  0  0  0  0  0  0  0
  -24.0638  -31.4482   21.0638 C   0  0  1  0  0  0  0  0  0  0  0  0
  -27.1447  -13.3334   19.2360 C   0  0  2  0  0  0  0  0  0  0  0  0
  -29.1682  -20.0032   20.0241 C   0  0  1  0  0  0  0  0  0  0  0  0
  -19.3178  -26.1032   18.0788 C   0  0  0  0  0  0  0  0  0  0  0  0
  -30.4046  -26.5101   23.3304 C   0  0  0  0  0  0  0  0  0  0  0  0
  -20.3970  -29.8889   23.4056 C   0  0  0  0  0  0  0  0  0  0  0  0
  -19.1623  -27.9910   22.3372 C   0  0  0  0  0  0  0  0  0  0  0  0
  -18.9490  -30.2960   21.4076 C   0  0  0  0  0  0  0  0  0  0  0  0
  -22.8511  -26.9062   16.9182 C   0  0  0  0  0  0  0  0  0  0  0  0
  -29.2562  -24.9294   21.7451 C   0  0  0  0  0  0  0  0  0  0  0  0
  -21.1082  -29.0222   21.0799 C   0  0  1  0  0  0  0  0  0  0  0  0
  -20.5785  -26.9445   17.9538 C   0  0  2  0  0  0  0  0  0  0  0  0
  -29.3376  -26.3664   22.2550 C   0  0  1  0  0  0  0  0  0  1  0  0
  -19.9326  -29.2994   22.0589 C   0  0  0  0  0  0  0  0  0  0  0  0
  -25.6785  -11.7694   20.4550 N   0  0  0  0  0  0  0  0  0  0  0  0
  -26.0092  -12.3277   19.2782 N   0  0  0  0  0  0  0  0  0  0  0  0
  -23.2748  -30.2167   21.1352 N   0  0  0  0  0  0  0  0  0  0  0  0
  -28.3516  -15.0935   20.4912 N   0  0  0  0  0  0  0  0  0  0  0  0
  -29.2264  -17.2778   20.8901 N   0  0  0  0  0  0  0  0  0  0  0  0
  -25.4459  -12.3589   16.9777 N   0  0  0  0  0  0  0  0  0  0  0  0
  -22.5217   -9.3945   18.7264 N   0  0  0  0  0  0  0  0  0  0  0  0
  -28.2465  -24.8284   20.7374 N   0  0  0  0  0  0  0  0  0  0  0  0
  -24.7139  -33.2659   22.5236 N   0  0  0  0  0  0  0  0  0  0  0  0
  -20.6955  -28.4888   19.7862 N   0  0  0  0  0  0  0  0  0  0  0  0
  -29.5578  -17.5597   19.5557 N   0  3  0  0  0  0  0  0  0  0  0  0
  -21.5708  -26.1863   17.1405 N   0  3  0  0  0  0  0  0  0  0  0  0
  -23.2057  -10.4139   16.7894 O   0  0  0  0  0  0  0  0  0  0  0  0
  -23.5021  -31.4605   23.3571 O   0  0  0  0  0  0  0  0  0  0  0  0
  -21.3673  -31.2332   20.2610 O   0  0  0  0  0  0  0  0  0  0  0  0
  -21.9392  -26.5355   19.9079 O   0  0  0  0  0  0  0  0  0  0  0  0
  -27.2389  -16.6118   21.8325 O   0  0  0  0  0  0  0  0  0  0  0  0
  -30.5459  -20.3248   19.7792 O   0  0  0  0  0  0  0  0  0  0  0  0
  -22.1750   -7.8739   24.0745 O   0  0  0  0  0  0  0  0  0  0  0  0
  -28.0884  -26.7402   22.8329 O   0  0  0  0  0  0  0  0  0  1  0  0
  -21.1419   -2.5821   22.9201 F   0  0  0  0  0  0  0  0  0  0  0  0
  -25.7142  -22.3773   17.4824 F   0  0  0  0  0  0  0  0  0  0  0  0
  -23.2661   -5.8486   25.6076 F   0  0  0  0  0  0  0  0  0  0  0  0
  1  2  1  0  0  0  0
  1  5  2  0  0  0  0
  2  6  2  0  0  0  0
  3  8  2  0  0  0  0
  3 18  1  0  0  0  0
  4  9  1  0  0  0  0
  4 18  2  0  0  0  0
  5 20  1  0  0  0  0
  6 22  1  0  0  0  0
  7 10  2  0  0  0  0
  7 21  1  0  0  0  0
  8 26  1  0  0  0  0
  9 26  2  0  0  0  0
 10 27  1  0  0  0  0
 11 12  2  0  0  0  0
 11 28  1  0  0  0  0
 12 29  1  0  0  0  0
 13 23  1  0  0  0  0
 13 25  2  0  0  0  0
 14 24  1  0  0  0  0
 14 27  2  0  0  0  0
 15 23  2  0  0  0  0
 15 30  1  0  0  0  0
 16 25  1  0  0  0  0
 16 30  2  0  0  0  0
 17 29  2  0  0  0  0
 17 31  1  0  0  0  0
 18 32  1  0  0  0  0
 19 32  1  0  0  0  0
 19 33  2  0  0  0  0
 19 34  1  0  0  0  0
 20 22  2  0  0  0  0
 20 39  1  0  0  0  0
 21 24  2  0  0  0  0
 21 40  1  0  0  0  0
 22 51  1  0  0  0  0
 23 54  1  0  0  0  0
 24 41  1  0  0  0  0
 25 73  1  0  0  0  0
 26 84  1  0  0  0  0
 27 85  1  0  0  0  0
 28 31  2  0  0  0  0
 28 84  1  0  0  0  0
 29 86  1  0  0  0  0
 30 87  1  0  0  0  0
 31 88  1  0  0  0  0
 32 66  2  0  0  0  0
 33 67  1  0  0  0  0
 33 71  1  0  0  0  0
 34 72  1  0  0  0  0
 34 78  2  0  0  0  0
 35 52  1  0  0  0  0
 35 74  1  0  0  0  0
 35 79  2  0  0  0  0
 36 62  1  0  0  0  0
 36 68  1  0  0  0  0
 36 80  2  0  0  0  0
 37 63  1  0  0  0  0
 37 75  1  0  0  0  0
 37 81  2  0  0  0  0
 38 69  1  0  0  0  0
 38 70  1  0  0  0  0
 38 82  2  0  0  0  0
 39 42  1  0  0  0  0
 40 52  1  0  0  0  0
 41 68  1  0  0  0  0
 42 44  1  0  0  0  0
 43 45  1  0  0  0  0
 43 47  1  0  0  0  0
 44 51  1  0  0  0  0
 45 53  1  0  0  0  0
 46 48  1  0  0  0  0
 46 54  1  0  0  0  0
 47 69  1  0  0  0  0
 48 70  1  0  0  0  0
 49 53  1  0  0  0  0
 49 69  1  0  0  0  0
 50 54  1  0  0  0  0
 50 76  1  0  0  0  0
 51 74  1  0  0  0  0
 52 68  1  0  0  0  0
 53 67  1  0  0  0  0
 54 83  1  0  0  0  0
 55 63  1  0  0  0  0
 56 64  1  0  0  0  0
 57 65  1  0  0  0  0
 58 65  1  0  0  0  0
 59 65  1  0  0  0  0
 60 77  1  0  0  0  0
 61 64  1  0  0  0  0
 61 73  1  0  0  0  0
 62 65  1  0  0  0  0
 62 75  1  0  0  0  0
 63 77  1  0  0  0  0
 64 85  1  0  0  0  0
 66 67  1  0  0  0  0
 70 76  1  0  0  0  0
M  CHG  2  76   1  77   1
M  ISO  4  38 100  64 101  70 100  85 101
M  END
> <Batch ID>
0157

> <Smiles>
CNC(C)C(=O)NC(C(=O)N1Cc2cc([101O:1][101CH:1](C)CNc3cc(F)cc(C4(O)CC[100N:0]([100C:0](=O)N5CCCC(n6nc(-c7ccc(Oc8ccc(F)cc8F)cc7)c(C(N)=O)c6N)C5)NC4)c3)ccc2CC1C(=O)NC1CCCc2ccccc21)C(C)(C)C

> <Shape>
0.325

> <Color>
0.080

> <Negative vol penalty>
0.000

$$$$

  -OEChem-04052303413D

 84 92  0     1  0  0  0  0  0999 V2000
  -30.1714  -24.5268   17.2516 C   0  0  0  0  0  0  0  0  0  0  0  0
  -28.7946  -24.4668   17.4420 C   0  0  0  0  0  0  0  0  0  0  0  0
  -24.4217  -13.4437   22.8865 C   0  0  0  0  0  0  0  0  0  0  0  0
  -25.3577  -15.2270   21.5520 C   0  0  0  0  0  0  0  0  0  0  0  0
  -30.9779  -25.1581   18.1976 C   0  0  0  0  0  0  0  0  0  0  0  0
  -28.2236  -25.0372   18.5792 C   0  0  0  0  0  0  0  0  0  0  0  0
  -22.7696  -27.7949   18.9719 C   0  0  0  0  0  0  0  0  0  0  0  0
  -25.6638  -12.8097   22.9105 C   0  0  0  0  0  0  0  0  0  0  0  0
  -26.5999  -14.5930   21.5760 C   0  0  0  0  0  0  0  0  0  0  0  0
  -21.5233  -27.3506   19.4115 C   0  0  0  0  0  0  0  0  0  0  0  0
  -28.1111  -12.0129   19.9978 C   0  0  0  0  0  0  0  0  0  0  0  0
  -28.8176  -11.9260   18.7984 C   0  0  0  0  0  0  0  0  0  0  0  0
  -17.5516  -21.0755   20.3805 C   0  0  0  0  0  0  0  0  0  0  0  0
  -15.2675  -21.8134   20.6548 C   0  0  0  0  0  0  0  0  0  0  0  0
  -21.9576  -28.3021   21.5852 C   0  0  0  0  0  0  0  0  0  0  0  0
  -15.7399  -19.7602   19.4724 C   0  0  0  0  0  0  0  0  0  0  0  0
  -30.6376  -13.1756   19.7799 C   0  0  0  0  0  0  0  0  0  0  0  0
  -24.2686  -14.6524   22.2071 C   0  0  0  0  0  0  0  0  0  0  0  0
  -16.6328  -22.0059   20.8660 C   0  0  0  0  0  0  0  0  0  0  0  0
  -22.4956  -16.2536   23.1016 C   0  0  0  0  0  0  0  0  0  0  0  0
  -30.4156  -25.7450   19.3421 C   0  0  0  0  0  0  0  0  0  0  0  0
  -23.6251  -28.4878   19.8403 C   0  0  0  0  0  0  0  0  0  0  0  0
  -29.0236  -25.6758   19.5420 C   0  0  0  0  0  0  0  0  0  0  0  0
  -23.2131  -28.7564   21.1534 C   0  0  0  0  0  0  0  0  0  0  0  0
  -17.1052  -19.9527   19.6837 C   0  0  0  0  0  0  0  0  0  0  0  0
  -26.7530  -13.3843   22.2553 C   0  0  0  0  0  0  0  0  0  0  0  0
  -21.1183  -27.6016   20.7191 C   0  0  0  0  0  0  0  0  0  0  0  0
  -28.6677  -12.6812   21.0884 C   0  0  0  0  0  0  0  0  0  0  0  0
  -30.0809  -12.5073   18.6894 C   0  0  0  0  0  0  0  0  0  0  0  0
  -14.8211  -20.6905   19.9580 C   0  0  0  0  0  0  0  0  0  0  0  0
  -29.9310  -13.2625   20.9794 C   0  0  0  0  0  0  0  0  0  0  0  0
  -22.9855  -15.3076   22.1815 C   0  0  0  0  0  0  0  0  0  0  0  0
  -21.2411  -16.5660   22.6377 C   0  0  0  0  0  0  0  0  0  0  0  0
  -17.1051  -23.1960   21.6030 C   0  0  0  0  0  0  0  0  0  0  0  0
  -23.1187  -16.8011   24.2711 C   0  0  0  0  0  0  0  0  0  0  0  0
  -26.5259  -27.9582   21.0271 C   0  0  0  0  0  0  0  0  0  0  0  0
  -26.1573  -30.9505   22.2238 C   0  0  0  0  0  0  0  0  0  0  0  0
  -18.5011  -25.2492   21.5246 C   0  0  0  0  0  0  0  0  0  0  0  0
  -24.0362  -33.4387   23.2019 C   0  0  0  0  0  0  0  0  0  0  0  0
  -17.7625  -17.8391   18.4806 C   0  0  0  0  0  0  0  0  0  0  0  0
  -31.3328  -26.3750   20.3601 C   0  0  0  0  0  0  0  0  0  0  0  0
  -24.9552  -28.9838   19.3429 C   0  0  0  0  0  0  0  0  0  0  0  0
  -24.0860  -29.5139   22.1192 C   0  0  0  0  0  0  0  0  0  0  0  0
  -30.6100  -27.2823   21.3524 C   0  0  0  0  0  0  0  0  0  0  0  0
  -18.4204  -14.3857   19.0445 C   0  0  0  0  0  0  0  0  0  0  0  0
  -29.3543  -26.5986   21.8840 C   0  0  0  0  0  0  0  0  0  0  0  0
  -19.6264  -14.3955   19.9866 C   0  0  0  0  0  0  0  0  0  0  0  0
  -18.4962  -15.5112   18.0143 C   0  0  0  0  0  0  0  0  0  0  0  0
  -19.9046  -16.8631   19.5170 C   0  0  0  0  0  0  0  0  0  0  0  0
  -28.3643  -26.3045   20.7504 C   0  0  1  0  0  0  0  0  0  0  0  0
  -25.9585  -29.2309   20.4652 C   0  0  1  0  0  0  0  0  0  0  0  0
  -19.8406  -15.7872   20.6134 C   0  0  2  0  0  0  0  0  0  0  0  0
  -24.0289  -35.7529   24.1723 C   0  0  0  0  0  0  0  0  0  0  0  0
  -26.8168  -29.7980   24.9710 C   0  0  0  0  0  0  0  0  0  0  0  0
  -25.8804  -31.8828   25.9933 C   0  0  0  0  0  0  0  0  0  0  0  0
  -27.8672  -32.0163   24.4907 C   0  0  0  0  0  0  0  0  0  0  0  0
  -22.6731  -34.5566   20.8247 C   0  0  0  0  0  0  0  0  0  0  0  0
  -19.3854  -25.9817   20.5509 C   0  0  0  0  0  0  0  0  0  1  0  0
  -25.5931  -31.5302   23.4985 C   0  0  1  0  0  0  0  0  0  0  0  0
  -24.0188  -34.9256   22.8963 C   0  0  2  0  0  0  0  0  0  0  0  0
  -26.5235  -31.2908   24.7210 C   0  0  0  0  0  0  0  0  0  0  0  0
  -22.1134  -15.0366   21.2068 N   0  0  0  0  0  0  0  0  0  0  0  0
  -21.0628  -15.8170   21.5119 N   0  0  0  0  0  0  0  0  0  0  0  0
  -25.3799  -29.9725   21.5874 N   0  0  0  0  0  0  0  0  0  0  0  0
  -18.6954  -16.7998   18.6811 N   0  0  0  0  0  0  0  0  0  0  0  0
  -20.2842  -17.4056   23.0870 N   0  0  0  0  0  0  0  0  0  0  0  0
  -24.4104  -16.3708   24.6034 N   0  0  0  0  0  0  0  0  0  0  0  0
  -18.0383  -19.0066   19.1915 N   0  0  0  0  0  0  0  0  0  0  0  0
  -17.9278  -24.0449   20.9716 N   0  0  0  0  0  0  0  0  0  0  0  0
  -27.6567  -27.5089   20.3722 N   0  0  0  0  0  0  0  0  0  0  0  0
  -25.3201  -32.9363   23.2216 N   0  0  0  0  0  0  0  0  0  0  0  0
  -16.6818  -23.3577   22.8564 N   0  3  0  0  0  0  0  0  0  0  0  0
  -22.7994  -35.2798   22.1162 N   0  3  0  0  0  0  0  0  0  0  0  0
  -22.5405  -17.6347   25.0089 O   0  0  0  0  0  0  0  0  0  0  0  0
  -25.9792  -27.4241   21.9850 O   0  0  0  0  0  0  0  0  0  0  0  0
  -27.2442  -31.3559   21.8043 O   0  0  0  0  0  0  0  0  0  0  0  0
  -18.2690  -25.6067   22.6705 O   0  0  0  0  0  0  0  0  0  0  0  0
  -23.0134  -32.7888   23.4066 O   0  0  0  0  0  0  0  0  0  0  0  0
  -16.7756  -17.6942   17.7546 O   0  0  0  0  0  0  0  0  0  0  0  0
  -27.9653  -12.7660   22.2788 O   0  0  0  0  0  0  0  0  0  0  0  0
  -19.9027  -27.1685   21.1510 O   0  0  0  0  0  0  0  0  0  1  0  0
  -30.7600  -12.4224   17.5379 F   0  0  0  0  0  0  0  0  0  0  0  0
  -13.5100  -20.5058   19.7551 F   0  0  0  0  0  0  0  0  0  0  0  0
  -30.4714  -13.9049   22.0240 F   0  0  0  0  0  0  0  0  0  0  0  0
  1  2  1  0  0  0  0
  1  5  2  0  0  0  0
  2  6  2  0  0  0  0
  3  8  2  0  0  0  0
  3 18  1  0  0  0  0
  4  9  1  0  0  0  0
  4 18  2  0  0  0  0
  5 21  1  0  0  0  0
  6 23  1  0  0  0  0
  7 10  2  0  0  0  0
  7 22  1  0  0  0  0
  8 26  1  0  0  0  0
  9 26  2  0  0  0  0
 10 27  1  0  0  0  0
 11 12  2  0  0  0  0
 11 28  1  0  0  0  0
 12 29  1  0  0  0  0
 13 19  2  0  0  0  0
 13 25  1  0  0  0  0
 14 19  1  0  0  0  0
 14 30  2  0  0  0  0
 15 24  1  0  0  0  0
 15 27  2  0  0  0  0
 16 25  2  0  0  0  0
 16 30  1  0  0  0  0
 17 29  2  0  0  0  0
 17 31  1  0  0  0  0
 18 32  1  0  0  0  0
 19 34  1  0  0  0  0
 20 32  1  0  0  0  0
 20 33  2  0  0  0  0
 20 35  1  0  0  0  0
 21 23  2  0  0  0  0
 21 41  1  0  0  0  0
 22 24  2  0  0  0  0
 22 42  1  0  0  0  0
 23 50  1  0  0  0  0
 24 43  1  0  0  0  0
 25 68  1  0  0  0  0
 26 80  1  0  0  0  0
 27 81  1  0  0  0  0
 28 31  2  0  0  0  0
 28 80  1  0  0  0  0
 29 82  1  0  0  0  0
 30 83  1  0  0  0  0
 31 84  1  0  0  0  0
 32 62  2  0  0  0  0
 33 63  1  0  0  0  0
 33 66  1  0  0  0  0
 34 69  1  0  0  0  0
 34 72  2  0  0  0  0
 35 67  1  0  0  0  0
 35 74  2  0  0  0  0
 36 51  1  0  0  0  0
 36 70  1  0  0  0  0
 36 75  2  0  0  0  0
 37 59  1  0  0  0  0
 37 64  1  0  0  0  0
 37 76  2  0  0  0  0
 38 58  1  0  0  0  0
 38 69  1  0  0  0  0
 38 77  2  0  0  0  0
 39 60  1  0  0  0  0
 39 71  1  0  0  0  0
 39 78  2  0  0  0  0
 40 65  1  0  0  0  0
 40 68  1  0  0  0  0
 40 79  2  0  0  0  0
 41 44  1  0  0  0  0
 42 51  1  0  0  0  0
 43 64  1  0  0  0  0
 44 46  1  0  0  0  0
 45 47  1  0  0  0  0
 45 48  1  0  0  0  0
 46 50  1  0  0  0  0
 47 52  1  0  0  0  0
 48 65  1  0  0  0  0
 49 52  1  0  0  0  0
 49 65  1  0  0  0  0
 50 70  1  0  0  0  0
 51 64  1  0  0  0  0
 52 63  1  0  0  0  0
 53 60  1  0  0  0  0
 54 61  1  0  0  0  0
 55 61  1  0  0  0  0
 56 61  1  0  0  0  0
 57 73  1  0  0  0  0
 58 81  1  0  0  0  0
 59 61  1  0  0  0  0
 59 71  1  0  0  0  0
 60 73  1  0  0  0  0
 62 63  1  0  0  0  0
M  CHG  2  72   1  73   1
M  ISO  4  40 100  58 101  68 100  81 101
M  END
> <Batch ID>
0157

> <Smiles>
CNC(C)C(=O)NC(C(=O)N1Cc2cc([101O:1][101CH2:1]C(=O)NC(=N)c3cc(F)cc([100NH:0][100C:0](=O)N4CCCC(n5nc(-c6ccc(Oc7ccc(F)cc7F)cc6)c(C(N)=O)c5N)C4)c3)ccc2CC1C(=O)NC1CCCc2ccccc21)C(C)(C)C

> <Shape>
0.250

> <Color>
0.059

> <Negative vol penalty>
0.000

$$$$

  -OEChem-04052303413D

 84 93  0     1  0  0  0  0  0999 V2000
  -29.4215  -24.9967   17.2778 C   0  0  0  0  0  0  0  0  0  0  0  0
  -28.1303  -25.5120   17.3314 C   0  0  0  0  0  0  0  0  0  0  0  0
  -26.7000  -15.1118   19.3192 C   0  0  0  0  0  0  0  0  0  0  0  0
  -24.4807  -15.1521   20.2731 C   0  0  0  0  0  0  0  0  0  0  0  0
  -30.2386  -25.0477   18.4064 C   0  0  0  0  0  0  0  0  0  0  0  0
  -27.6551  -26.0775   18.5141 C   0  0  0  0  0  0  0  0  0  0  0  0
  -23.8274  -30.8286   19.0449 C   0  0  0  0  0  0  0  0  0  0  0  0
  -26.8458  -13.7821   19.7147 C   0  0  0  0  0  0  0  0  0  0  0  0
  -24.6265  -13.8225   20.6686 C   0  0  0  0  0  0  0  0  0  0  0  0
  -22.4530  -30.9057   19.2657 C   0  0  0  0  0  0  0  0  0  0  0  0
  -24.4417  -10.7658   19.2391 C   0  0  0  0  0  0  0  0  0  0  0  0
  -23.3737   -9.9002   19.0029 C   0  0  0  0  0  0  0  0  0  0  0  0
  -22.8549  -31.1993   21.6261 C   0  0  0  0  0  0  0  0  0  0  0  0
  -21.7415  -25.0821   22.1351 C   0  0  0  0  0  0  0  0  0  0  0  0
  -23.2044   -9.4623   21.3728 C   0  0  0  0  0  0  0  0  0  0  0  0
  -19.5576  -24.6206   21.4871 C   0  0  0  0  0  0  0  0  0  0  0  0
  -25.5175  -15.7968   19.5985 C   0  0  0  0  0  0  0  0  0  0  0  0
  -24.8498  -17.6428   17.9693 C   0  0  0  0  0  0  0  0  0  0  0  0
  -29.7765  -25.6228   19.6007 C   0  0  0  0  0  0  0  0  0  0  0  0
  -24.7270  -30.9255   20.1162 C   0  0  0  0  0  0  0  0  0  0  0  0
  -28.4663  -26.1349   19.6601 C   0  0  0  0  0  0  0  0  0  0  0  0
  -24.2403  -31.1256   21.4159 C   0  0  0  0  0  0  0  0  0  0  0  0
  -20.4025  -25.5594   22.0369 C   0  0  0  0  0  0  0  0  0  0  0  0
  -25.8091  -13.1375   20.3893 C   0  0  0  0  0  0  0  0  0  0  0  0
  -21.9664  -31.0882   20.5569 C   0  0  0  0  0  0  0  0  0  0  0  0
  -24.8911  -10.9797   20.5422 C   0  0  0  0  0  0  0  0  0  0  0  0
  -22.7551   -9.2485   20.0697 C   0  0  0  0  0  0  0  0  0  0  0  0
  -24.2724  -10.3279   21.6090 C   0  0  0  0  0  0  0  0  0  0  0  0
  -25.3664  -17.1705   19.1908 C   0  0  0  0  0  0  0  0  0  0  0  0
  -24.9186  -19.0106   18.0735 C   0  0  0  0  0  0  0  0  0  0  0  0
  -21.8688  -23.7965   21.6568 C   0  0  0  0  0  0  0  0  0  0  0  0
  -24.3523  -16.9106   16.8415 C   0  0  0  0  0  0  0  0  0  0  0  0
  -26.9043  -28.9970   21.3984 C   0  0  0  0  0  0  0  0  0  0  0  0
  -27.5902  -31.6076   23.1976 C   0  0  0  0  0  0  0  0  0  0  0  0
  -26.5375  -34.5715   24.5218 C   0  0  0  0  0  0  0  0  0  0  0  0
  -24.3069  -23.2395   21.9598 C   0  0  0  0  0  0  0  0  0  0  0  0
  -30.6798  -25.6124   20.8084 C   0  0  0  0  0  0  0  0  0  0  0  0
  -26.2077  -30.8671   19.8579 C   0  0  0  0  0  0  0  0  0  0  0  0
  -25.1650  -31.2560   22.5976 C   0  0  0  0  0  0  0  0  0  0  0  0
  -30.2312  -26.5661   21.9127 C   0  0  0  0  0  0  0  0  0  0  0  0
  -27.5187  -22.1673   20.8588 C   0  0  0  0  0  0  0  0  0  0  0  0
  -18.4355  -28.1917   24.0184 C   0  0  0  0  0  0  0  0  0  0  0  0
  -18.9281  -26.8086   23.6015 C   0  0  0  0  0  0  0  0  0  0  0  0
  -28.7345  -26.4203   22.1686 C   0  0  0  0  0  0  0  0  0  0  0  0
  -27.2423  -20.8156   20.1966 C   0  0  0  0  0  0  0  0  0  0  0  0
  -26.6378  -22.3876   22.0873 C   0  0  0  0  0  0  0  0  0  0  0  0
  -24.9215  -20.8616   21.1959 C   0  0  0  0  0  0  0  0  0  0  0  0
  -17.9064  -28.9830   22.8314 C   0  0  0  0  0  0  0  0  0  0  0  0
  -19.4249  -27.7131   21.2893 C   0  0  0  0  0  0  0  0  0  0  0  0
  -19.9702  -26.9095   22.4763 C   0  0  2  0  0  0  0  0  0  0  0  0
  -27.9234  -26.7787   20.9175 C   0  0  1  0  0  0  0  0  0  0  0  0
  -27.0135  -30.4632   21.0887 C   0  0  1  0  0  0  0  0  0  0  0  0
  -25.7392  -20.6223   19.9161 C   0  0  2  0  0  0  0  0  0  0  0  0
  -27.3092  -36.4620   25.9806 C   0  0  0  0  0  0  0  0  0  0  0  0
  -27.2345  -29.8465   25.6637 C   0  0  0  0  0  0  0  0  0  0  0  0
  -27.0708  -31.9301   27.0421 C   0  0  0  0  0  0  0  0  0  0  0  0
  -29.1656  -31.4311   25.7831 C   0  0  0  0  0  0  0  0  0  0  0  0
  -26.1846  -36.5474   22.3468 C   0  0  0  0  0  0  0  0  0  0  0  0
  -18.5515  -29.9548   20.6280 C   0  0  0  0  0  0  0  0  0  0  0  0
  -19.7804  -30.4375   19.8831 C   0  0  0  0  0  0  0  0  0  1  0  0
  -27.1011  -32.1556   24.5164 C   0  0  1  0  0  0  0  0  0  0  0  0
  -27.1827  -35.9452   24.5559 C   0  0  2  0  0  0  0  0  0  0  0  0
  -27.6252  -31.3365   25.7296 C   0  0  0  0  0  0  0  0  0  0  0  0
  -25.7362  -18.1580   20.0105 N   0  0  0  0  0  0  0  0  0  0  0  0
  -25.4517  -19.2645   19.3029 N   0  0  0  0  0  0  0  0  0  0  0  0
  -26.6040  -31.1860   22.2945 N   0  0  0  0  0  0  0  0  0  0  0  0
  -25.2274  -22.1919   21.7449 N   0  0  0  0  0  0  0  0  0  0  0  0
  -24.5744  -20.0089   17.2324 N   0  0  0  0  0  0  0  0  0  0  0  0
  -24.3531  -15.5103   16.9008 N   0  0  0  0  0  0  0  0  0  0  0  0
  -23.0010  -22.9493   21.5661 N   0  0  0  0  0  0  0  0  0  0  0  0
  -27.8473  -28.2152   20.7589 N   0  0  0  0  0  0  0  0  0  0  0  0
  -27.4792  -33.5645   24.5385 N   0  0  0  0  0  0  0  0  0  0  0  0
  -18.9720  -29.0865   21.7565 N   0  3  1  0  0  0  0  0  0  0  0  0
  -26.3699  -36.9188   23.7732 N   0  3  0  0  0  0  0  0  0  0  0  0
  -23.9350  -17.4809   15.8051 O   0  0  0  0  0  0  0  0  0  0  0  0
  -26.0303  -28.6043   22.1623 O   0  0  0  0  0  0  0  0  0  0  0  0
  -28.8025  -31.5620   22.9739 O   0  0  0  0  0  0  0  0  0  0  0  0
  -25.3199  -34.4082   24.4877 O   0  0  0  0  0  0  0  0  0  0  0  0
  -24.6569  -24.3244   22.4313 O   0  0  0  0  0  0  0  0  0  0  0  0
  -25.9509  -11.8399   20.7752 O   0  0  0  0  0  0  0  0  0  0  0  0
  -20.6253  -31.1631   20.7753 O   0  0  0  0  0  0  0  0  0  1  0  0
  -21.7285   -8.4185   19.8428 F   0  0  0  0  0  0  0  0  0  0  0  0
  -24.6989  -10.5303   22.8632 F   0  0  0  0  0  0  0  0  0  0  0  0
  -20.3783  -23.1705   21.0921 S   0  0  0  0  0  0  0  0  0  0  0  0
  1  2  1  0  0  0  0
  1  5  2  0  0  0  0
  2  6  2  0  0  0  0
  3  8  2  0  0  0  0
  3 17  1  0  0  0  0
  4  9  1  0  0  0  0
  4 17  2  0  0  0  0
  5 19  1  0  0  0  0
  6 21  1  0  0  0  0
  7 10  2  0  0  0  0
  7 20  1  0  0  0  0
  8 24  1  0  0  0  0
  9 24  2  0  0  0  0
 10 25  1  0  0  0  0
 11 12  2  0  0  0  0
 11 26  1  0  0  0  0
 12 27  1  0  0  0  0
 13 22  1  0  0  0  0
 13 25  2  0  0  0  0
 14 23  1  0  0  0  0
 14 31  2  0  0  0  0
 15 27  2  0  0  0  0
 15 28  1  0  0  0  0
 16 23  2  0  0  0  0
 16 84  1  0  0  0  0
 17 29  1  0  0  0  0
 18 29  1  0  0  0  0
 18 30  2  0  0  0  0
 18 32  1  0  0  0  0
 19 21  2  0  0  0  0
 19 37  1  0  0  0  0
 20 22  2  0  0  0  0
 20 38  1  0  0  0  0
 21 51  1  0  0  0  0
 22 39  1  0  0  0  0
 23 50  1  0  0  0  0
 24 80  1  0  0  0  0
 25 81  1  0  0  0  0
 26 28  2  0  0  0  0
 26 80  1  0  0  0  0
 27 82  1  0  0  0  0
 28 83  1  0  0  0  0
 29 64  2  0  0  0  0
 30 65  1  0  0  0  0
 30 68  1  0  0  0  0
 31 70  1  0  0  0  0
 31 84  1  0  0  0  0
 32 69  1  0  0  0  0
 32 75  2  0  0  0  0
 33 52  1  0  0  0  0
 33 71  1  0  0  0  0
 33 76  2  0  0  0  0
 34 61  1  0  0  0  0
 34 66  1  0  0  0  0
 34 77  2  0  0  0  0
 35 62  1  0  0  0  0
 35 72  1  0  0  0  0
 35 78  2  0  0  0  0
 36 67  1  0  0  0  0
 36 70  1  0  0  0  0
 36 79  2  0  0  0  0
 37 40  1  0  0  0  0
 38 52  1  0  0  0  0
 39 66  1  0  0  0  0
 40 44  1  0  0  0  0
 41 45  1  0  0  0  0
 41 46  1  0  0  0  0
 42 43  1  0  0  0  0
 42 48  1  0  0  0  0
 43 50  1  0  0  0  0
 44 51  1  0  0  0  0
 45 53  1  0  0  0  0
 46 67  1  0  0  0  0
 47 53  1  0  0  0  0
 47 67  1  0  0  0  0
 48 73  1  0  0  0  0
 49 50  1  0  0  0  0
 49 73  1  0  0  0  0
 51 71  1  0  0  0  0
 52 66  1  0  0  0  0
 53 65  1  0  0  0  0
 54 62  1  0  0  0  0
 55 63  1  0  0  0  0
 56 63  1  0  0  0  0
 57 63  1  0  0  0  0
 58 74  1  0  0  0  0
 59 60  1  0  0  0  0
 59 73  1  0  0  0  0
 60 81  1  0  0  0  0
 61 63  1  0  0  0  0
 61 72  1  0  0  0  0
 62 74  1  0  0  0  0
 64 65  1  0  0  0  0
M  CHG  2  73   1  74   1
M  ISO  4  36 100  60 101  70 100  81 101
M  END
> <Batch ID>
0157

> <Smiles>
CNC(C)C(=O)NC(C(=O)N1Cc2cc([101O:1][101CH2:1]CN3CCCC(c4csc([100NH:0][100C:0](=O)N5CCCC(n6nc(-c7ccc(Oc8ccc(F)cc8F)cc7)c(C(N)=O)c6N)C5)c4)C3)ccc2CC1C(=O)NC1CCCc2ccccc21)C(C)(C)C

> <Shape>
0.294

> <Color>
0.074

> <Negative vol penalty>
0.000

$$$$

  -OEChem-04052303413D

 85 94  0     1  0  0  0  0  0999 V2000
  -18.9847  -34.2163   22.2434 C   0  0  0  0  0  0  0  0  0  0  0  0
  -20.2702  -33.9403   22.6981 C   0  0  0  0  0  0  0  0  0  0  0  0
  -24.4953   -9.2135   21.4299 C   0  0  0  0  0  0  0  0  0  0  0  0
  -22.5669  -10.4851   20.7218 C   0  0  0  0  0  0  0  0  0  0  0  0
  -18.0314  -33.2002   22.1924 C   0  0  0  0  0  0  0  0  0  0  0  0
  -20.6028  -32.6481   23.1030 C   0  0  0  0  0  0  0  0  0  0  0  0
  -25.9662  -29.0330   19.9318 C   0  0  0  0  0  0  0  0  0  0  0  0
  -23.7033   -8.0699   21.5331 C   0  0  0  0  0  0  0  0  0  0  0  0
  -21.7749   -9.3415   20.8249 C   0  0  0  0  0  0  0  0  0  0  0  0
  -27.1141  -28.3569   19.5179 C   0  0  0  0  0  0  0  0  0  0  0  0
  -21.4816   -6.7686   23.7228 C   0  0  0  0  0  0  0  0  0  0  0  0
  -21.6347   -5.9756   24.8600 C   0  0  0  0  0  0  0  0  0  0  0  0
  -26.5371  -26.4863   20.9377 C   0  0  0  0  0  0  0  0  0  0  0  0
  -26.5047  -20.6704   19.3295 C   0  0  0  0  0  0  0  0  0  0  0  0
  -22.2685   -4.1041   23.4697 C   0  0  0  0  0  0  0  0  0  0  0  0
  -23.9271  -10.4211   21.0243 C   0  0  0  0  0  0  0  0  0  0  0  0
  -25.8708  -11.7861   20.0936 C   0  0  0  0  0  0  0  0  0  0  0  0
  -18.3552  -31.8928   22.5878 C   0  0  0  0  0  0  0  0  0  0  0  0
  -25.0903  -28.4312   20.8396 C   0  0  0  0  0  0  0  0  0  0  0  0
  -19.6525  -31.6138   23.0585 C   0  0  0  0  0  0  0  0  0  0  0  0
  -25.3793  -27.1535   21.3464 C   0  0  0  0  0  0  0  0  0  0  0  0
  -27.1337  -21.3254   18.2266 C   0  0  0  0  0  0  0  0  0  0  0  0
  -22.3432   -8.1339   21.2306 C   0  0  0  0  0  0  0  0  0  0  0  0
  -27.3989  -27.0868   20.0199 C   0  0  0  0  0  0  0  0  0  0  0  0
  -21.7218   -6.2294   22.4590 C   0  0  0  0  0  0  0  0  0  0  0  0
  -22.0282   -4.6434   24.7335 C   0  0  0  0  0  0  0  0  0  0  0  0
  -22.1153   -4.8971   22.3324 C   0  0  0  0  0  0  0  0  0  0  0  0
  -24.7445  -11.6029   20.9180 C   0  0  0  0  0  0  0  0  0  0  0  0
  -27.3775  -20.4383   17.1980 C   0  0  0  0  0  0  0  0  0  0  0  0
  -26.2859  -13.0681   20.3594 C   0  0  0  0  0  0  0  0  0  0  0  0
  -26.3060  -19.3265   19.0946 C   0  0  0  0  0  0  0  0  0  0  0  0
  -28.4235  -25.6234   18.5094 C   0  0  0  0  0  0  0  0  0  1  0  0
  -26.4866  -10.8787   19.1700 C   0  0  0  0  0  0  0  0  0  0  0  0
  -29.4537  -24.9323   18.0159 C   0  0  0  0  0  0  0  0  0  0  0  0
  -29.2187  -24.0956   16.8210 C   0  0  0  0  0  0  0  0  0  0  0  0
  -21.9045  -28.6956   22.8034 C   0  0  0  0  0  0  0  0  0  0  0  0
  -22.0688  -25.8173   21.7550 C   0  0  0  0  0  0  0  0  0  0  0  0
  -21.4111  -22.6746   20.6027 C   0  0  0  0  0  0  0  0  0  0  0  0
  -25.2007  -18.4661   21.1885 C   0  0  0  0  0  0  0  0  0  0  0  0
  -17.2776  -30.8379   22.5595 C   0  0  0  0  0  0  0  0  0  0  0  0
  -23.8740  -29.1478   21.3601 C   0  0  0  0  0  0  0  0  0  0  0  0
  -24.4265  -26.5595   22.3475 C   0  0  0  0  0  0  0  0  0  0  0  0
  -27.4926  -22.7768   18.1521 C   0  0  0  0  0  0  0  0  0  0  0  0
  -28.0269  -20.8130   15.9095 C   0  0  0  0  0  0  0  0  0  0  0  0
  -17.8175  -29.4131   22.6530 C   0  0  0  0  0  0  0  0  0  0  0  0
  -24.8816  -16.2982   23.9948 C   0  0  0  0  0  0  0  0  0  0  0  0
  -18.8575  -29.3081   23.7639 C   0  0  0  0  0  0  0  0  0  0  0  0
  -24.9101  -14.8984   23.3767 C   0  0  0  0  0  0  0  0  0  0  0  0
  -27.9064  -22.3271   15.7072 C   0  0  0  0  0  0  0  0  0  0  0  0
  -24.1398  -17.2954   23.1066 C   0  0  0  0  0  0  0  0  0  0  0  0
  -24.6380  -15.9580   21.0985 C   0  0  0  0  0  0  0  0  0  0  0  0
  -20.0586  -30.2192   23.4831 C   0  0  1  0  0  0  0  0  0  0  0  0
  -22.6834  -28.2069   21.6177 C   0  0  1  0  0  0  0  0  0  0  0  0
  -25.4307  -14.9333   21.9264 C   0  0  2  0  0  0  0  0  0  0  0  0
  -20.1427  -20.5888   21.1839 C   0  0  0  0  0  0  0  0  0  0  0  0
  -24.1838  -25.1160   23.8380 C   0  0  0  0  0  0  0  0  0  0  0  0
  -23.4458  -22.7288   23.6801 C   0  0  0  0  0  0  0  0  0  0  0  0
  -21.8488  -24.4768   24.4655 C   0  0  0  0  0  0  0  0  0  0  0  0
  -19.7654  -22.8527   18.1494 C   0  0  0  0  0  0  0  0  0  0  0  0
  -22.4951  -24.3960   22.0226 C   0  0  1  0  0  0  0  0  0  0  0  0
  -20.1077  -21.9139   20.4385 C   0  0  2  0  0  0  0  0  0  0  0  0
  -23.0021  -24.1934   23.4784 C   0  0  0  0  0  0  0  0  0  0  0  0
  -24.4622  -12.6820   21.6527 N   0  0  0  0  0  0  0  0  0  0  0  0
  -25.4171  -13.5557   21.2909 N   0  0  0  0  0  0  0  0  0  0  0  0
  -28.2682  -23.0783   16.9251 N   0  0  0  0  0  0  0  0  0  0  0  0
  -23.0382  -26.8122   21.9309 N   0  0  0  0  0  0  0  0  0  0  0  0
  -24.6899  -17.2765   21.7494 N   0  0  0  0  0  0  0  0  0  0  0  0
  -27.3058  -13.8146   19.8849 N   0  0  0  0  0  0  0  0  0  0  0  0
  -26.0460  -10.8782   17.8395 N   0  0  0  0  0  0  0  0  0  0  0  0
  -25.7270  -18.3191   19.9056 N   0  0  0  0  0  0  0  0  0  0  0  0
  -20.9263  -29.6203   22.4916 N   0  0  0  0  0  0  0  0  0  0  0  0
  -21.3589  -23.5545   21.6630 N   0  0  0  0  0  0  0  0  0  0  0  0
  -19.8482  -21.6359   18.9976 N   0  3  0  0  0  0  0  0  0  0  0  0
  -27.3892  -10.0802   19.5181 O   0  0  0  0  0  0  0  0  0  0  0  0
  -29.8669  -24.3522   15.8055 O   0  0  0  0  0  0  0  0  0  0  0  0
  -22.1696  -28.2649   23.9197 O   0  0  0  0  0  0  0  0  0  0  0  0
  -20.9069  -26.0428   21.4050 O   0  0  0  0  0  0  0  0  0  0  0  0
  -22.3801  -22.5025   19.8664 O   0  0  0  0  0  0  0  0  0  0  0  0
  -25.1981  -19.5307   21.8119 O   0  0  0  0  0  0  0  0  0  0  0  0
  -30.7089  -24.9738   18.5750 O   0  0  0  0  0  0  0  0  0  0  0  0
  -21.5701   -7.0182   21.3310 O   0  0  0  0  0  0  0  0  0  0  0  0
  -28.5190  -26.4305   19.6081 O   0  0  0  0  0  0  0  0  0  1  0  0
  -22.1767   -3.8824   25.8257 F   0  0  0  0  0  0  0  0  0  0  0  0
  -22.3487   -4.3739   21.1210 F   0  0  0  0  0  0  0  0  0  0  0  0
  -26.8753  -18.8534   17.5503 S   0  0  0  0  0  0  0  0  0  0  0  0
  1  2  1  0  0  0  0
  1  5  2  0  0  0  0
  2  6  2  0  0  0  0
  3  8  2  0  0  0  0
  3 16  1  0  0  0  0
  4  9  1  0  0  0  0
  4 16  2  0  0  0  0
  5 18  1  0  0  0  0
  6 20  1  0  0  0  0
  7 10  2  0  0  0  0
  7 19  1  0  0  0  0
  8 23  1  0  0  0  0
  9 23  2  0  0  0  0
 10 24  1  0  0  0  0
 11 12  2  0  0  0  0
 11 25  1  0  0  0  0
 12 26  1  0  0  0  0
 13 21  1  0  0  0  0
 13 24  2  0  0  0  0
 14 22  1  0  0  0  0
 14 31  2  0  0  0  0
 15 26  2  0  0  0  0
 15 27  1  0  0  0  0
 16 28  1  0  0  0  0
 17 28  1  0  0  0  0
 17 30  2  0  0  0  0
 17 33  1  0  0  0  0
 18 20  2  0  0  0  0
 18 40  1  0  0  0  0
 19 21  2  0  0  0  0
 19 41  1  0  0  0  0
 20 52  1  0  0  0  0
 21 42  1  0  0  0  0
 22 29  2  0  0  0  0
 22 43  1  0  0  0  0
 23 81  1  0  0  0  0
 24 82  1  0  0  0  0
 25 27  2  0  0  0  0
 25 81  1  0  0  0  0
 26 83  1  0  0  0  0
 27 84  1  0  0  0  0
 28 63  2  0  0  0  0
 29 44  1  0  0  0  0
 29 85  1  0  0  0  0
 30 64  1  0  0  0  0
 30 68  1  0  0  0  0
 31 70  1  0  0  0  0
 31 85  1  0  0  0  0
 32 34  2  0  0  0  0
 32 82  1  0  0  0  0
 33 69  1  0  0  0  0
 33 74  2  0  0  0  0
 34 35  1  0  0  0  0
 34 80  1  0  0  0  0
 35 65  1  0  0  0  0
 35 75  2  0  0  0  0
 36 53  1  0  0  0  0
 36 71  1  0  0  0  0
 36 76  2  0  0  0  0
 37 60  1  0  0  0  0
 37 66  1  0  0  0  0
 37 77  2  0  0  0  0
 38 61  1  0  0  0  0
 38 72  1  0  0  0  0
 38 78  2  0  0  0  0
 39 67  1  0  0  0  0
 39 70  1  0  0  0  0
 39 79  2  0  0  0  0
 40 45  1  0  0  0  0
 41 53  1  0  0  0  0
 42 66  1  0  0  0  0
 43 65  1  0  0  0  0
 44 49  1  0  0  0  0
 45 47  1  0  0  0  0
 46 48  1  0  0  0  0
 46 50  1  0  0  0  0
 47 52  1  0  0  0  0
 48 54  1  0  0  0  0
 49 65  1  0  0  0  0
 50 67  1  0  0  0  0
 51 54  1  0  0  0  0
 51 67  1  0  0  0  0
 52 71  1  0  0  0  0
 53 66  1  0  0  0  0
 54 64  1  0  0  0  0
 55 61  1  0  0  0  0
 56 62  1  0  0  0  0
 57 62  1  0  0  0  0
 58 62  1  0  0  0  0
 59 73  1  0  0  0  0
 60 62  1  0  0  0  0
 60 72  1  0  0  0  0
 61 73  1  0  0  0  0
 63 64  1  0  0  0  0
M  CHG  1  73   1
M  ISO  4  32 101  39 100  70 100  82 101
M  END
> <Batch ID>
0157

> <Smiles>
CNC(C)C(=O)NC(C(=O)N1Cc2cc([101O:1][101CH2:1]C(=O)C(=O)N3CCc4sc([100NH:0][100C:0](=O)N5CCCC(n6nc(-c7ccc(Oc8ccc(F)cc8F)cc7)c(C(N)=O)c6N)C5)cc4C3)ccc2CC1C(=O)NC1CCCc2ccccc21)C(C)(C)C

> <Shape>
0.230

> <Color>
0.122

> <Negative vol penalty>
0.000

$$$$

  -OEChem-04052303413D

 79 87  0     1  0  0  0  0  0999 V2000
  -22.6153  -10.8282   22.2615 C   0  0  0  0  0  0  0  0  0  0  0  0
  -22.7683  -11.9947   23.0041 C   0  0  0  0  0  0  0  0  0  0  0  0
  -25.8931  -26.7475   22.2551 C   0  0  0  0  0  0  0  0  0  0  0  0
  -25.6831  -28.9432   21.2692 C   0  0  0  0  0  0  0  0  0  0  0  0
  -23.4604  -10.5747   21.1819 C   0  0  0  0  0  0  0  0  0  0  0  0
  -23.7671  -12.9078   22.6682 C   0  0  0  0  0  0  0  0  0  0  0  0
  -22.1146  -17.6945   22.7017 C   0  0  0  0  0  0  0  0  0  0  0  0
  -27.0117  -26.4975   21.4602 C   0  0  0  0  0  0  0  0  0  0  0  0
  -26.8018  -28.6932   20.4744 C   0  0  0  0  0  0  0  0  0  0  0  0
  -21.9778  -18.3122   23.9441 C   0  0  0  0  0  0  0  0  0  0  0  0
  -30.1378  -25.4186   19.9507 C   0  0  0  0  0  0  0  0  0  0  0  0
  -31.2493  -24.8364   20.5600 C   0  0  0  0  0  0  0  0  0  0  0  0
  -24.0881  -19.4329   23.6126 C   0  0  0  0  0  0  0  0  0  0  0  0
  -31.4087  -26.7179   22.0672 C   0  0  0  0  0  0  0  0  0  0  0  0
  -19.1175  -21.8762   25.8945 C   0  0  0  0  0  0  0  0  0  0  0  0
  -25.2288  -27.9703   22.1595 C   0  0  0  0  0  0  0  0  0  0  0  0
  -24.0537  -28.8041   24.2647 C   0  0  0  0  0  0  0  0  0  0  0  0
  -24.4639  -11.4898   20.8266 C   0  0  0  0  0  0  0  0  0  0  0  0
  -23.2463  -17.9334   21.9089 C   0  0  0  0  0  0  0  0  0  0  0  0
  -24.6273  -12.6657   21.5836 C   0  0  0  0  0  0  0  0  0  0  0  0
  -24.2357  -18.8190   22.3594 C   0  0  0  0  0  0  0  0  0  0  0  0
  -27.4661  -27.4704   20.5699 C   0  0  0  0  0  0  0  0  0  0  0  0
  -22.9660  -19.1793   24.4010 C   0  0  0  0  0  0  0  0  0  0  0  0
  -29.6618  -26.6506   20.3996 C   0  0  0  0  0  0  0  0  0  0  0  0
  -31.8847  -25.4860   21.6182 C   0  0  0  0  0  0  0  0  0  0  0  0
  -30.2972  -27.3002   21.4579 C   0  0  0  0  0  0  0  0  0  0  0  0
  -24.0728  -28.2289   22.9800 C   0  0  0  0  0  0  0  0  0  0  0  0
  -19.1097  -22.5693   24.7340 C   0  0  0  0  0  0  0  0  0  0  0  0
  -22.7242  -28.8323   24.6085 C   0  0  0  0  0  0  0  0  0  0  0  0
  -18.3310  -23.6732   24.1449 C   0  0  0  0  0  0  0  0  0  0  0  0
  -25.1405  -29.2712   25.0748 C   0  0  0  0  0  0  0  0  0  0  0  0
  -25.6024  -16.1338   20.7626 C   0  0  0  0  0  0  0  0  0  0  0  0
  -26.4140  -18.8673   19.2160 C   0  0  0  0  0  0  0  0  0  0  0  0
  -26.2776  -22.2750   19.0907 C   0  0  0  0  0  0  0  0  0  0  0  0
  -18.0649  -25.5122   22.7889 C   0  0  0  0  0  0  0  0  0  0  0  0
  -25.3837  -11.1499   19.6807 C   0  0  0  0  0  0  0  0  0  0  0  0
  -23.3661  -17.2800   20.5594 C   0  0  0  0  0  0  0  0  0  0  0  0
  -25.4602  -19.1247   21.5375 C   0  0  0  0  0  0  0  0  0  0  0  0
  -26.1755  -12.3465   19.1596 C   0  0  0  0  0  0  0  0  0  0  0  0
  -18.3549  -29.1055   22.6948 C   0  0  0  0  0  0  0  0  0  0  0  0
  -26.7784  -13.1334   20.3189 C   0  0  0  0  0  0  0  0  0  0  0  0
  -19.8589  -29.3362   22.8409 C   0  0  0  0  0  0  0  0  0  0  0  0
  -18.0575  -27.8411   21.8946 C   0  0  0  0  0  0  0  0  0  0  0  0
  -20.2173  -26.8406   22.5896 C   0  0  0  0  0  0  0  0  0  0  0  0
  -25.6831  -13.6923   21.2351 C   0  0  1  0  0  0  0  0  0  0  0  0
  -24.8057  -17.1973   20.0612 C   0  0  1  0  0  0  0  0  0  0  0  0
  -20.5557  -28.0914   23.4186 C   0  0  1  0  0  0  0  0  0  0  0  0
  -27.0675  -24.2293   17.7290 C   0  0  0  0  0  0  0  0  0  0  0  0
  -23.9941  -21.7057   26.4480 C   0  0  0  0  0  0  0  0  0  0  0  0
  -29.2093  -18.5591   20.3996 C   0  0  0  0  0  0  0  0  0  0  0  0
  -29.6460  -20.9535   19.8128 C   0  0  0  0  0  0  0  0  0  0  0  0
  -29.1636  -19.2975   18.0107 C   0  0  0  0  0  0  0  0  0  0  0  0
  -23.5070  -23.1244   18.4897 C   0  0  0  0  0  0  0  0  0  0  0  0
  -21.4840  -21.6748   26.2435 C   0  0  0  0  0  0  0  0  0  0  0  0
  -27.2915  -20.0542   19.5321 C   0  0  1  0  0  0  0  0  0  0  0  0
  -25.9452  -23.2288   17.9575 C   0  0  2  0  0  0  0  0  0  0  0  0
  -22.8088  -21.2097   25.6293 C   0  0  2  0  0  0  0  0  0  1  0  0
  -28.8056  -19.7090   19.4554 C   0  0  0  0  0  0  0  0  0  0  0  0
  -22.8524  -27.9142   22.5377 N   0  0  0  0  0  0  0  0  0  0  0  0
  -18.8545  -24.4999   23.2999 N   0  0  0  0  0  0  0  0  0  0  0  0
  -20.2880  -21.1787   25.4656 N   0  0  0  0  0  0  0  0  0  0  0  0
  -22.0540  -28.2929   23.5502 N   0  0  0  0  0  0  0  0  0  0  0  0
  -25.5346  -18.4564   20.2278 N   0  0  0  0  0  0  0  0  0  0  0  0
  -18.7628  -26.6868   22.4533 N   0  0  0  0  0  0  0  0  0  0  0  0
  -22.0748  -29.2654   25.7099 N   0  0  0  0  0  0  0  0  0  0  0  0
  -26.4435  -29.1679   24.5690 N   0  0  0  0  0  0  0  0  0  0  0  0
  -25.0746  -14.8626   20.6397 N   0  0  0  0  0  0  0  0  0  0  0  0
  -26.8755  -21.1216   18.6287 N   0  0  0  0  0  0  0  0  0  0  0  0
  -24.6977  -23.9839   18.2651 N   0  3  0  0  0  0  0  0  0  0  0  0
  -24.9629  -29.7506   26.2203 O   0  0  0  0  0  0  0  0  0  0  0  0
  -26.6213  -16.4433   21.3689 O   0  0  0  0  0  0  0  0  0  0  0  0
  -26.5003  -18.3290   18.1094 O   0  0  0  0  0  0  0  0  0  0  0  0
  -26.0349  -22.5294   20.2684 O   0  0  0  0  0  0  0  0  0  0  0  0
  -16.8462  -25.4172   22.6248 O   0  0  0  0  0  0  0  0  0  0  0  0
  -20.2838  -21.9585   24.2699 O   0  0  0  0  0  0  0  0  0  0  0  0
  -28.5577  -27.2269   19.7942 O   0  0  0  0  0  0  0  0  0  0  0  0
  -22.8353  -19.7830   25.6136 O   0  0  0  0  0  0  0  0  0  1  0  0
  -32.9511  -24.9260   22.2042 F   0  0  0  0  0  0  0  0  0  0  0  0
  -29.8438  -28.4833   21.8943 F   0  0  0  0  0  0  0  0  0  0  0  0
  1  2  1  0  0  0  0
  1  5  2  0  0  0  0
  2  6  2  0  0  0  0
  3  8  2  0  0  0  0
  3 16  1  0  0  0  0
  4  9  1  0  0  0  0
  4 16  2  0  0  0  0
  5 18  1  0  0  0  0
  6 20  1  0  0  0  0
  7 10  2  0  0  0  0
  7 19  1  0  0  0  0
  8 22  1  0  0  0  0
  9 22  2  0  0  0  0
 10 23  1  0  0  0  0
 11 12  2  0  0  0  0
 11 24  1  0  0  0  0
 12 25  1  0  0  0  0
 13 21  1  0  0  0  0
 13 23  2  0  0  0  0
 14 25  2  0  0  0  0
 14 26  1  0  0  0  0
 15 28  2  0  0  0  0
 15 61  1  0  0  0  0
 16 27  1  0  0  0  0
 17 27  1  0  0  0  0
 17 29  2  0  0  0  0
 17 31  1  0  0  0  0
 18 20  2  0  0  0  0
 18 36  1  0  0  0  0
 19 21  2  0  0  0  0
 19 37  1  0  0  0  0
 20 45  1  0  0  0  0
 21 38  1  0  0  0  0
 22 76  1  0  0  0  0
 23 77  1  0  0  0  0
 24 26  2  0  0  0  0
 24 76  1  0  0  0  0
 25 78  1  0  0  0  0
 26 79  1  0  0  0  0
 27 59  2  0  0  0  0
 28 30  1  0  0  0  0
 28 75  1  0  0  0  0
 29 62  1  0  0  0  0
 29 65  1  0  0  0  0
 30 60  2  0  0  0  0
 31 66  1  0  0  0  0
 31 70  2  0  0  0  0
 32 46  1  0  0  0  0
 32 67  1  0  0  0  0
 32 71  2  0  0  0  0
 33 55  1  0  0  0  0
 33 63  1  0  0  0  0
 33 72  2  0  0  0  0
 34 56  1  0  0  0  0
 34 68  1  0  0  0  0
 34 73  2  0  0  0  0
 35 60  1  0  0  0  0
 35 64  1  0  0  0  0
 35 74  2  0  0  0  0
 36 39  1  0  0  0  0
 37 46  1  0  0  0  0
 38 63  1  0  0  0  0
 39 41  1  0  0  0  0
 40 42  1  0  0  0  0
 40 43  1  0  0  0  0
 41 45  1  0  0  0  0
 42 47  1  0  0  0  0
 43 64  1  0  0  0  0
 44 47  1  0  0  0  0
 44 64  1  0  0  0  0
 45 67  1  0  0  0  0
 46 63  1  0  0  0  0
 47 62  1  0  0  0  0
 48 56  1  0  0  0  0
 49 57  1  0  0  0  0
 50 58  1  0  0  0  0
 51 58  1  0  0  0  0
 52 58  1  0  0  0  0
 53 69  1  0  0  0  0
 54 57  1  0  0  0  0
 54 61  1  0  0  0  0
 55 58  1  0  0  0  0
 55 68  1  0  0  0  0
 56 69  1  0  0  0  0
 57 77  1  0  0  0  0
 59 62  1  0  0  0  0
 61 75  1  0  0  0  0
M  CHG  1  69   1
M  ISO  4  35 100  57 101  60 100  77 101
M  END
> <Batch ID>
0157

> <Smiles>
CNC(C)C(=O)NC(C(=O)N1Cc2cc([101O:1][101CH:1](C)Cn3cc(C=[100N:0][100C:0](=O)N4CCCC(n5nc(-c6ccc(Oc7ccc(F)cc7F)cc6)c(C(N)=O)c5N)C4)o3)ccc2CC1C(=O)NC1CCCc2ccccc21)C(C)(C)C

> <Shape>
0.204

> <Color>
0.070

> <Negative vol penalty>
0.000

$$$$

  -OEChem-04052303413D

 85 94  0     1  0  0  0  0  0999 V2000
  -16.9639  -27.4577   22.8922 C   0  0  0  0  0  0  0  0  0  0  0  0
  -17.9923  -26.5212   22.8664 C   0  0  0  0  0  0  0  0  0  0  0  0
  -23.0642   -9.8740   19.9507 C   0  0  0  0  0  0  0  0  0  0  0  0
  -23.7806   -9.9355   22.2572 C   0  0  0  0  0  0  0  0  0  0  0  0
  -17.2630  -28.8193   22.9190 C   0  0  0  0  0  0  0  0  0  0  0  0
  -19.3206  -26.9458   22.8664 C   0  0  0  0  0  0  0  0  0  0  0  0
  -24.0731  -24.1694   25.5519 C   0  0  0  0  0  0  0  0  0  0  0  0
  -22.3032   -8.7359   20.2173 C   0  0  0  0  0  0  0  0  0  0  0  0
  -23.0195   -8.7973   22.5239 C   0  0  0  0  0  0  0  0  0  0  0  0
  -25.0650  -23.3224   25.0597 C   0  0  0  0  0  0  0  0  0  0  0  0
  -19.7720   -8.0499   23.0856 C   0  0  0  0  0  0  0  0  0  0  0  0
  -18.9926   -8.0497   24.2423 C   0  0  0  0  0  0  0  0  0  0  0  0
  -31.8337  -17.5128   21.6766 C   0  0  0  0  0  0  0  0  0  0  0  0
  -26.5443  -25.2111   24.8075 C   0  0  0  0  0  0  0  0  0  0  0  0
  -20.1986   -6.1202   25.0546 C   0  0  0  0  0  0  0  0  0  0  0  0
  -23.8030  -10.4738   20.9706 C   0  0  0  0  0  0  0  0  0  0  0  0
  -31.9238  -18.7878   22.3064 C   0  0  0  0  0  0  0  0  0  0  0  0
  -24.1746  -12.9910   20.7890 C   0  0  0  0  0  0  0  0  0  0  0  0
  -18.5956  -29.2605   22.9291 C   0  0  0  0  0  0  0  0  0  0  0  0
  -24.3059  -25.5476   25.6655 C   0  0  0  0  0  0  0  0  0  0  0  0
  -19.6377  -28.3145   22.8920 C   0  0  0  0  0  0  0  0  0  0  0  0
  -25.5545  -26.0732   25.3038 C   0  0  0  0  0  0  0  0  0  0  0  0
  -22.2808   -8.1976   21.5039 C   0  0  0  0  0  0  0  0  0  0  0  0
  -26.2999  -23.8436   24.6847 C   0  0  0  0  0  0  0  0  0  0  0  0
  -20.7646   -7.0852   22.9132 C   0  0  0  0  0  0  0  0  0  0  0  0
  -19.2059   -7.0849   25.2269 C   0  0  0  0  0  0  0  0  0  0  0  0
  -20.9780   -6.1204   23.8977 C   0  0  0  0  0  0  0  0  0  0  0  0
  -24.5898  -11.6491   20.6957 C   0  0  0  0  0  0  0  0  0  0  0  0
  -25.2816  -13.7189   20.4267 C   0  0  0  0  0  0  0  0  0  0  0  0
  -30.7671  -19.1157   22.9788 C   0  0  0  0  0  0  0  0  0  0  0  0
  -30.6115  -16.9147   21.8920 C   0  0  0  0  0  0  0  0  0  0  0  0
  -29.4751  -22.1795   24.5003 C   0  0  0  0  0  0  0  0  0  0  0  0
  -28.4542  -22.9544   24.8819 C   0  0  0  0  0  0  0  0  0  1  0  0
  -33.0805  -19.6461   22.2565 C   0  0  0  0  0  0  0  0  0  0  0  0
  -22.9021  -13.5313   21.1694 C   0  0  0  0  0  0  0  0  0  0  0  0
  -23.0144  -28.1539   24.3838 C   0  0  0  0  0  0  0  0  0  0  0  0
  -24.9952  -29.6786   26.4512 C   0  0  0  0  0  0  0  0  0  0  0  0
  -27.8403  -29.5933   28.3340 C   0  0  0  0  0  0  0  0  0  0  0  0
  -30.7546  -14.7118   20.6783 C   0  0  0  0  0  0  0  0  0  0  0  0
  -18.8694  -30.7435   22.9106 C   0  0  0  0  0  0  0  0  0  0  0  0
  -23.2347  -26.4441   26.2234 C   0  0  0  0  0  0  0  0  0  0  0  0
  -25.8618  -27.5426   25.4255 C   0  0  0  0  0  0  0  0  0  0  0  0
  -30.7883  -22.0757   25.2092 C   0  0  0  0  0  0  0  0  0  0  0  0
  -29.4331  -21.1975   23.3683 C   0  0  0  0  0  0  0  0  0  0  0  0
  -20.3044  -31.1027   23.2872 C   0  0  0  0  0  0  0  0  0  0  0  0
  -29.6589  -12.2463   18.3549 C   0  0  0  0  0  0  0  0  0  0  0  0
  -21.2913  -30.2091   22.5427 C   0  0  0  0  0  0  0  0  0  0  0  0
  -28.2082  -11.9816   18.7644 C   0  0  0  0  0  0  0  0  0  0  0  0
  -31.2193  -20.6411   24.9174 C   0  0  0  0  0  0  0  0  0  0  0  0
  -30.5535  -12.4981   19.5673 C   0  0  0  0  0  0  0  0  0  0  0  0
  -28.6288  -13.2797   20.8917 C   0  0  0  0  0  0  0  0  0  0  0  0
  -21.0912  -28.7353   22.9161 C   0  0  1  0  0  0  0  0  0  0  0  0
  -23.4038  -27.9038   25.8133 C   0  0  1  0  0  0  0  0  0  0  0  0
  -27.6766  -13.0847   19.7005 C   0  0  2  0  0  0  0  0  0  0  0  0
  -34.4957  -19.0639   22.1339 C   0  0  0  0  0  0  0  0  0  0  0  0
  -29.2174  -31.0031   29.8874 C   0  0  0  0  0  0  0  0  0  0  0  0
  -26.0645  -31.2556   24.0680 C   0  0  0  0  0  0  0  0  0  0  0  0
  -28.0255  -31.9194   25.4759 C   0  0  0  0  0  0  0  0  0  0  0  0
  -25.7226  -32.6069   26.1444 C   0  0  0  0  0  0  0  0  0  0  0  0
  -27.4803  -27.6875   30.5695 C   0  0  0  0  0  0  0  0  0  0  0  0
  -26.4151  -30.1880   26.3925 C   0  0  1  0  0  0  0  0  0  0  0  0
  -28.1031  -29.9739   29.7799 C   0  0  2  0  0  0  0  0  0  0  0  0
  -26.5508  -31.4650   25.5160 C   0  0  0  0  0  0  0  0  0  0  0  0
  -25.8612  -11.5288   20.3045 N   0  0  0  0  0  0  0  0  0  0  0  0
  -32.9870  -20.9607   22.3280 N   0  0  0  0  0  0  0  0  0  0  0  0
  -26.2545  -12.8044   20.1488 N   0  0  0  0  0  0  0  0  0  0  0  0
  -30.5160  -20.2718   23.6913 N   0  0  3  0  0  0  0  0  0  0  0  0
  -24.7798  -28.3792   25.9705 N   0  0  0  0  0  0  0  0  0  0  0  0
  -29.9894  -13.5582   20.4057 N   0  0  0  0  0  0  0  0  0  0  0  0
  -25.5079  -15.0457   20.3219 N   0  0  0  0  0  0  0  0  0  0  0  0
  -21.8741  -12.6422   21.5116 N   0  0  0  0  0  0  0  0  0  0  0  0
  -30.1020  -15.6654   21.4589 N   0  0  0  0  0  0  0  0  0  0  0  0
  -21.6776  -28.4575   24.2097 N   0  0  0  0  0  0  0  0  0  0  0  0
  -26.8429  -30.3647   27.7760 N   0  0  0  0  0  0  0  0  0  0  0  0
  -28.4957  -28.7720   30.5687 N   0  3  0  0  0  0  0  0  0  0  0  0
  -22.6783  -14.7654   21.1889 O   0  0  0  0  0  0  0  0  0  0  0  0
  -23.8642  -28.0786   23.5041 O   0  0  0  0  0  0  0  0  0  0  0  0
  -24.1110  -30.4041   26.9133 O   0  0  0  0  0  0  0  0  0  0  0  0
  -28.4605  -28.7034   27.7562 O   0  0  0  0  0  0  0  0  0  0  0  0
  -31.8941  -14.8560   20.2281 O   0  0  0  0  0  0  0  0  0  0  0  0
  -21.5381   -7.0872   21.7646 O   0  0  0  0  0  0  0  0  0  0  0  0
  -27.2697  -23.0191   24.2034 O   0  0  0  0  0  0  0  0  0  1  0  0
  -18.4584   -7.0858   26.3384 F   0  0  0  0  0  0  0  0  0  0  0  0
  -21.9309   -5.1918   23.7383 F   0  0  0  0  0  0  0  0  0  0  0  0
  -29.5791  -17.8891   22.8496 S   0  0  0  0  0  0  0  0  0  0  0  0
  1  2  1  0  0  0  0
  1  5  2  0  0  0  0
  2  6  2  0  0  0  0
  3  8  2  0  0  0  0
  3 16  1  0  0  0  0
  4  9  1  0  0  0  0
  4 16  2  0  0  0  0
  5 19  1  0  0  0  0
  6 21  1  0  0  0  0
  7 10  2  0  0  0  0
  7 20  1  0  0  0  0
  8 23  1  0  0  0  0
  9 23  2  0  0  0  0
 10 24  1  0  0  0  0
 11 12  2  0  0  0  0
 11 25  1  0  0  0  0
 12 26  1  0  0  0  0
 13 17  1  0  0  0  0
 13 31  2  0  0  0  0
 14 22  1  0  0  0  0
 14 24  2  0  0  0  0
 15 26  2  0  0  0  0
 15 27  1  0  0  0  0
 16 28  1  0  0  0  0
 17 30  2  0  0  0  0
 17 34  1  0  0  0  0
 18 28  1  0  0  0  0
 18 29  2  0  0  0  0
 18 35  1  0  0  0  0
 19 21  2  0  0  0  0
 19 40  1  0  0  0  0
 20 22  2  0  0  0  0
 20 41  1  0  0  0  0
 21 52  1  0  0  0  0
 22 42  1  0  0  0  0
 23 81  1  0  0  0  0
 24 82  1  0  0  0  0
 25 27  2  0  0  0  0
 25 81  1  0  0  0  0
 26 83  1  0  0  0  0
 27 84  1  0  0  0  0
 28 64  2  0  0  0  0
 29 66  1  0  0  0  0
 29 70  1  0  0  0  0
 30 67  1  0  0  0  0
 30 85  1  0  0  0  0
 31 72  1  0  0  0  0
 31 85  1  0  0  0  0
 32 33  2  0  0  0  0
 32 43  1  0  0  0  0
 32 44  1  0  0  0  0
 33 82  1  0  0  0  0
 34 55  1  0  0  0  0
 34 65  2  0  0  0  0
 35 71  1  0  0  0  0
 35 76  2  0  0  0  0
 36 53  1  0  0  0  0
 36 73  1  0  0  0  0
 36 77  2  0  0  0  0
 37 61  1  0  0  0  0
 37 68  1  0  0  0  0
 37 78  2  0  0  0  0
 38 62  1  0  0  0  0
 38 74  1  0  0  0  0
 38 79  2  0  0  0  0
 39 69  1  0  0  0  0
 39 72  1  0  0  0  0
 39 80  2  0  0  0  0
 40 45  1  0  0  0  0
 41 53  1  0  0  0  0
 42 68  1  0  0  0  0
 43 49  1  0  0  0  0
 44 67  1  0  0  0  0
 45 47  1  0  0  0  0
 46 48  1  0  0  0  0
 46 50  1  0  0  0  0
 47 52  1  0  0  0  0
 48 54  1  0  0  0  0
 49 67  1  0  0  0  0
 50 69  1  0  0  0  0
 51 54  1  0  0  0  0
 51 69  1  0  0  0  0
 52 73  1  0  0  0  0
 53 68  1  0  0  0  0
 54 66  1  0  0  0  0
 56 62  1  0  0  0  0
 57 63  1  0  0  0  0
 58 63  1  0  0  0  0
 59 63  1  0  0  0  0
 60 75  1  0  0  0  0
 61 63  1  0  0  0  0
 61 74  1  0  0  0  0
 62 75  1  0  0  0  0
 64 66  1  0  0  0  0
M  CHG  1  75   1
M  ISO  4  33 101  39 100  72 100  82 101
M  END
> <Batch ID>
0157

> <Smiles>
CNC(C)C(=O)NC(C(=O)N1Cc2cc([101O:1][101CH:1]=C3CCN(c4sc([100NH:0][100C:0](=O)N5CCCC(n6nc(-c7ccc(Oc8ccc(F)cc8F)cc7)c(C(N)=O)c6N)C5)cc4C(C)=N)C3)ccc2CC1C(=O)NC1CCCc2ccccc21)C(C)(C)C

> <Shape>
0.284

> <Color>
0.229

> <Negative vol penalty>
0.000

$$$$

  -OEChem-04052303413D

 86 95  0     1  0  0  0  0  0999 V2000
  -21.7720  -23.6181   21.5091 C   0  0  0  0  0  0  0  0  0  0  0  0
  -23.0146  -23.0002   21.6074 C   0  0  0  0  0  0  0  0  0  0  0  0
  -23.6648  -30.9818   20.5737 C   0  0  0  0  0  0  0  0  0  0  0  0
  -23.9407  -29.6883   22.5955 C   0  0  0  0  0  0  0  0  0  0  0  0
  -20.6162  -22.9140   21.8441 C   0  0  0  0  0  0  0  0  0  0  0  0
  -23.1021  -21.6781   22.0417 C   0  0  0  0  0  0  0  0  0  0  0  0
  -26.2588  -18.9084   19.2116 C   0  0  0  0  0  0  0  0  0  0  0  0
  -22.2796  -30.9269   20.7275 C   0  0  0  0  0  0  0  0  0  0  0  0
  -22.5554  -29.6333   22.7493 C   0  0  0  0  0  0  0  0  0  0  0  0
  -27.6248  -19.0667   19.4411 C   0  0  0  0  0  0  0  0  0  0  0  0
  -19.9718  -27.8835   21.4480 C   0  0  0  0  0  0  0  0  0  0  0  0
  -19.4049  -26.6531   21.7803 C   0  0  0  0  0  0  0  0  0  0  0  0
  -31.6300  -23.5252   21.8708 C   0  0  0  0  0  0  0  0  0  0  0  0
  -27.6304  -17.0488   20.7629 C   0  0  0  0  0  0  0  0  0  0  0  0
  -18.5154  -27.6116   23.8118 C   0  0  0  0  0  0  0  0  0  0  0  0
  -24.4954  -30.3625   21.5077 C   0  0  0  0  0  0  0  0  0  0  0  0
  -31.9242  -22.7290   23.0152 C   0  0  0  0  0  0  0  0  0  0  0  0
  -26.8003  -31.3983   21.8569 C   0  0  0  0  0  0  0  0  0  0  0  0
  -20.6888  -21.5795   22.2735 C   0  0  0  0  0  0  0  0  0  0  0  0
  -25.5649  -17.8232   19.7660 C   0  0  0  0  0  0  0  0  0  0  0  0
  -21.9463  -20.9559   22.3840 C   0  0  0  0  0  0  0  0  0  0  0  0
  -26.2561  -16.8776   20.5369 C   0  0  0  0  0  0  0  0  0  0  0  0
  -21.7249  -30.2526   21.8153 C   0  0  0  0  0  0  0  0  0  0  0  0
  -28.3103  -18.1384   20.2192 C   0  0  0  0  0  0  0  0  0  0  0  0
  -19.8105  -28.9779   22.2976 C   0  0  0  0  0  0  0  0  0  0  0  0
  -18.6767  -26.5172   22.9622 C   0  0  0  0  0  0  0  0  0  0  0  0
  -19.0823  -28.8420   23.4795 C   0  0  0  0  0  0  0  0  0  0  0  0
  -25.9264  -30.4185   21.3490 C   0  0  0  0  0  0  0  0  0  0  0  0
  -28.0451  -31.0008   21.4337 C   0  0  0  0  0  0  0  0  0  0  0  0
  -30.6462  -24.4550   22.1265 C   0  0  0  0  0  0  0  0  0  0  0  0
  -31.1542  -23.0807   24.1020 C   0  0  0  0  0  0  0  0  0  0  0  0
  -32.6114  -18.1530   22.2866 C   0  0  0  0  0  0  0  0  0  0  0  0
  -31.3482  -18.5695   22.0893 C   0  0  0  0  0  0  0  0  0  0  0  0
  -32.9345  -21.6560   23.0306 C   0  0  0  0  0  0  0  0  0  0  0  0
  -26.5127  -32.5636   22.6412 C   0  0  0  0  0  0  0  0  0  0  0  0
  -23.1630  -17.5121   21.8246 C   0  0  0  0  0  0  0  0  0  0  0  0
  -23.4070  -14.3751   21.0357 C   0  0  0  0  0  0  0  0  0  0  0  0
  -25.3426  -11.8295   19.8441 C   0  0  0  0  0  0  0  0  0  0  0  0
  -30.3495  -25.6906   19.9513 C   0  0  0  0  0  0  0  0  0  0  0  0
  -19.4160  -20.8741   22.6698 C   0  0  0  0  0  0  0  0  0  0  0  0
  -24.0968  -17.6522   19.4870 C   0  0  0  0  0  0  0  0  0  0  0  0
  -25.5615  -15.6840   21.1379 C   0  0  0  0  0  0  0  0  0  0  0  0
  -33.5081  -19.2833   22.7000 C   0  0  0  0  0  0  0  0  0  0  0  0
  -31.2061  -20.0424   22.3403 C   0  0  0  0  0  0  0  0  0  0  0  0
  -19.5637  -19.3576   22.7633 C   0  0  0  0  0  0  0  0  0  0  0  0
  -30.2089  -28.5982   17.9010 C   0  0  0  0  0  0  0  0  0  0  0  0
  -20.8260  -18.9910   23.5373 C   0  0  0  0  0  0  0  0  0  0  0  0
  -29.1787  -29.4867   18.6021 C   0  0  0  0  0  0  0  0  0  0  0  0
  -29.8334  -27.1198   17.9850 C   0  0  0  0  0  0  0  0  0  0  0  0
  -28.5354  -27.5118   20.0419 C   0  0  0  0  0  0  0  0  0  0  0  0
  -22.0802  -19.5152   22.8275 C   0  0  1  0  0  0  0  0  0  0  0  0
  -23.3876  -16.7896   20.5264 C   0  0  1  0  0  0  0  0  0  0  0  0
  -28.9041  -29.0043   20.0400 C   0  0  2  0  0  0  0  0  0  0  0  0
  -33.1830  -16.7855   22.1509 C   0  0  0  0  0  0  0  0  0  0  0  0
  -25.2768   -9.3702   19.3493 C   0  0  0  0  0  0  0  0  0  0  0  0
  -23.6332  -13.7716   24.0180 C   0  0  0  0  0  0  0  0  0  0  0  0
  -24.5017  -11.5004   23.4215 C   0  0  0  0  0  0  0  0  0  0  0  0
  -22.1995  -12.1731   22.7360 C   0  0  0  0  0  0  0  0  0  0  0  0
  -25.8888  -12.2751   16.9697 C   0  0  0  0  0  0  0  0  0  0  0  0
  -30.1550  -17.7863   21.6782 C   0  0  0  0  0  0  0  0  0  1  0  0
  -24.1911  -13.1979   21.5633 C   0  0  1  0  0  0  0  0  0  0  0  0
  -25.0764  -10.7700   18.7900 C   0  0  2  0  0  0  0  0  0  0  0  0
  -23.6444  -12.6842   22.9251 C   0  0  0  0  0  0  0  0  0  0  0  0
  -26.5620  -29.4699   20.6560 N   0  0  0  0  0  0  0  0  0  0  0  0
  -27.8486  -29.8519   20.7254 N   0  0  0  0  0  0  0  0  0  0  0  0
  -32.5776  -20.4243   22.7151 N   0  0  0  0  0  0  0  0  0  0  0  0
  -24.1244  -15.5641   20.8417 N   0  0  0  0  0  0  0  0  0  0  0  0
  -29.5922  -26.7334   19.3769 N   0  0  0  0  0  0  0  0  0  0  0  0
  -29.2775  -31.5254   21.6021 N   0  0  0  0  0  0  0  0  0  0  0  0
  -25.1799  -32.8231   22.9882 N   0  0  0  0  0  0  0  0  0  0  0  0
  -30.0548  -25.4338   21.2899 N   0  0  0  0  0  0  0  0  0  0  0  0
  -22.4158  -18.6681   21.7031 N   0  0  0  0  0  0  0  0  0  0  0  0
  -24.1879  -12.1968   20.5021 N   0  0  0  0  0  0  0  0  0  0  0  0
  -34.1899  -21.9453   23.3602 N   0  3  0  0  0  0  0  0  0  0  0  0
  -25.9964  -10.9494   17.6313 N   0  3  0  0  0  0  0  0  0  0  0  0
  -27.4092  -33.3602   23.0090 O   0  0  0  0  0  0  0  0  0  0  0  0
  -23.6315  -17.0538   22.8600 O   0  0  0  0  0  0  0  0  0  0  0  0
  -22.2040  -14.2426   20.7974 O   0  0  0  0  0  0  0  0  0  0  0  0
  -26.4635  -12.2830   20.0644 O   0  0  0  0  0  0  0  0  0  0  0  0
  -31.2160  -25.0893   19.3113 O   0  0  0  0  0  0  0  0  0  0  0  0
  -20.3732  -30.1990   21.9658 O   0  0  0  0  0  0  0  0  0  0  0  0
  -29.6435  -18.2908   20.4453 O   0  0  0  0  0  0  0  0  0  1  0  0
  -18.1312  -25.3360   23.2804 F   0  0  0  0  0  0  0  0  0  0  0  0
  -18.9229  -29.8902   24.2991 F   0  0  0  0  0  0  0  0  0  0  0  0
  -31.2311  -22.4910   25.3003 F   0  0  0  0  0  0  0  0  0  0  0  0
  -30.0817  -24.3658   23.7407 S   0  0  0  0  0  0  0  0  0  0  0  0
  1  2  1  0  0  0  0
  1  5  2  0  0  0  0
  2  6  2  0  0  0  0
  3  8  2  0  0  0  0
  3 16  1  0  0  0  0
  4  9  1  0  0  0  0
  4 16  2  0  0  0  0
  5 19  1  0  0  0  0
  6 21  1  0  0  0  0
  7 10  2  0  0  0  0
  7 20  1  0  0  0  0
  8 23  1  0  0  0  0
  9 23  2  0  0  0  0
 10 24  1  0  0  0  0
 11 12  2  0  0  0  0
 11 25  1  0  0  0  0
 12 26  1  0  0  0  0
 13 17  1  0  0  0  0
 13 30  2  0  0  0  0
 14 22  1  0  0  0  0
 14 24  2  0  0  0  0
 15 26  2  0  0  0  0
 15 27  1  0  0  0  0
 16 28  1  0  0  0  0
 17 31  2  0  0  0  0
 17 34  1  0  0  0  0
 18 28  1  0  0  0  0
 18 29  2  0  0  0  0
 18 35  1  0  0  0  0
 19 21  2  0  0  0  0
 19 40  1  0  0  0  0
 20 22  2  0  0  0  0
 20 41  1  0  0  0  0
 21 51  1  0  0  0  0
 22 42  1  0  0  0  0
 23 81  1  0  0  0  0
 24 82  1  0  0  0  0
 25 27  2  0  0  0  0
 25 81  1  0  0  0  0
 26 83  1  0  0  0  0
 27 84  1  0  0  0  0
 28 64  2  0  0  0  0
 29 65  1  0  0  0  0
 29 69  1  0  0  0  0
 30 71  1  0  0  0  0
 30 86  1  0  0  0  0
 31 85  1  0  0  0  0
 31 86  1  0  0  0  0
 32 33  2  0  0  0  0
 32 43  1  0  0  0  0
 32 54  1  0  0  0  0
 33 44  1  0  0  0  0
 33 60  1  0  0  0  0
 34 66  1  0  0  0  0
 34 74  2  0  0  0  0
 35 70  1  0  0  0  0
 35 76  2  0  0  0  0
 36 52  1  0  0  0  0
 36 72  1  0  0  0  0
 36 77  2  0  0  0  0
 37 61  1  0  0  0  0
 37 67  1  0  0  0  0
 37 78  2  0  0  0  0
 38 62  1  0  0  0  0
 38 73  1  0  0  0  0
 38 79  2  0  0  0  0
 39 68  1  0  0  0  0
 39 71  1  0  0  0  0
 39 80  2  0  0  0  0
 40 45  1  0  0  0  0
 41 52  1  0  0  0  0
 42 67  1  0  0  0  0
 43 66  1  0  0  0  0
 44 66  1  0  0  0  0
 45 47  1  0  0  0  0
 46 48  1  0  0  0  0
 46 49  1  0  0  0  0
 47 51  1  0  0  0  0
 48 53  1  0  0  0  0
 49 68  1  0  0  0  0
 50 53  1  0  0  0  0
 50 68  1  0  0  0  0
 51 72  1  0  0  0  0
 52 67  1  0  0  0  0
 53 65  1  0  0  0  0
 55 62  1  0  0  0  0
 56 63  1  0  0  0  0
 57 63  1  0  0  0  0
 58 63  1  0  0  0  0
 59 75  1  0  0  0  0
 60 82  1  0  0  0  0
 61 63  1  0  0  0  0
 61 73  1  0  0  0  0
 62 75  1  0  0  0  0
 64 65  1  0  0  0  0
M  CHG  2  74   1  75   1
M  ISO  4  39 100  60 101  71 100  82 101
M  END
> <Batch ID>
0157

> <Smiles>
CNC(C)C(=O)NC(C(=O)N1Cc2cc([101O:1][101CH2:1]C3=C(C)CN(C(=N)c4cc([100NH:0][100C:0](=O)N5CCCC(n6nc(-c7ccc(Oc8ccc(F)cc8F)cc7)c(C(N)=O)c6N)C5)sc4F)C3)ccc2CC1C(=O)NC1CCCc2ccccc21)C(C)(C)C

> <Shape>
0.230

> <Color>
0.065

> <Negative vol penalty>
0.000

$$$$

  -OEChem-04052303413D

 88 97  0     1  0  0  0  0  0999 V2000
  -30.5931  -35.8724   22.4913 C   0  0  0  0  0  0  0  0  0  0  0  0
  -30.4833  -34.4966   22.3162 C   0  0  0  0  0  0  0  0  0  0  0  0
  -21.7895  -13.1327   20.5841 C   0  0  0  0  0  0  0  0  0  0  0  0
  -22.3930  -12.3946   22.8040 C   0  0  0  0  0  0  0  0  0  0  0  0
  -29.6442  -36.5551   23.2511 C   0  0  0  0  0  0  0  0  0  0  0  0
  -29.4250  -33.8026   22.9016 C   0  0  0  0  0  0  0  0  0  0  0  0
  -27.2866  -30.4843   19.7298 C   0  0  0  0  0  0  0  0  0  0  0  0
  -20.4659  -13.2886   20.9957 C   0  0  0  0  0  0  0  0  0  0  0  0
  -21.0694  -12.5505   23.2156 C   0  0  0  0  0  0  0  0  0  0  0  0
  -27.9548  -29.2779   19.5248 C   0  0  0  0  0  0  0  0  0  0  0  0
  -18.6465  -15.5503   22.7299 C   0  0  0  0  0  0  0  0  0  0  0  0
  -17.9824  -16.7164   22.3493 C   0  0  0  0  0  0  0  0  0  0  0  0
  -26.4612  -28.1936   21.0780 C   0  0  0  0  0  0  0  0  0  0  0  0
  -29.4939  -19.3836   21.0367 C   0  0  0  0  0  0  0  0  0  0  0  0
  -16.3338  -15.3949   21.1776 C   0  0  0  0  0  0  0  0  0  0  0  0
  -22.7530  -12.6857   21.4882 C   0  0  0  0  0  0  0  0  0  0  0  0
  -24.5994  -11.6808   20.0430 C   0  0  0  0  0  0  0  0  0  0  0  0
  -28.5683  -35.8706   23.8382 C   0  0  0  0  0  0  0  0  0  0  0  0
  -26.2057  -30.5568   20.6202 C   0  0  0  0  0  0  0  0  0  0  0  0
  -28.4615  -34.4767   23.6711 C   0  0  0  0  0  0  0  0  0  0  0  0
  -25.7793  -29.4015   21.2906 C   0  0  0  0  0  0  0  0  0  0  0  0
  -28.6946  -18.4847   20.3392 C   0  0  0  0  0  0  0  0  0  0  0  0
  -20.1058  -12.9975   22.3114 C   0  0  0  0  0  0  0  0  0  0  0  0
  -27.5440  -28.1330   20.2011 C   0  0  0  0  0  0  0  0  0  0  0  0
  -18.1544  -14.3065   22.3342 C   0  0  0  0  0  0  0  0  0  0  0  0
  -16.8260  -16.6387   21.5732 C   0  0  0  0  0  0  0  0  0  0  0  0
  -29.5001  -20.7259   20.6744 C   0  0  0  0  0  0  0  0  0  0  0  0
  -16.9980  -14.2289   21.5581 C   0  0  0  0  0  0  0  0  0  0  0  0
  -24.1203  -12.5239   21.0635 C   0  0  0  0  0  0  0  0  0  0  0  0
  -28.6957  -21.1157   19.6158 C   0  0  0  0  0  0  0  0  0  0  0  0
  -27.9261  -18.9748   19.2957 C   0  0  0  0  0  0  0  0  0  0  0  0
  -25.9566  -11.8913   20.0325 C   0  0  0  0  0  0  0  0  0  0  0  0
  -23.8817  -10.7873   19.1814 C   0  0  0  0  0  0  0  0  0  0  0  0
  -25.6189  -32.1437   23.3111 C   0  0  0  0  0  0  0  0  0  0  0  0
  -22.6638  -30.8499   22.9711 C   0  0  0  0  0  0  0  0  0  0  0  0
  -21.2809  -27.6582   22.0128 C   0  0  0  0  0  0  0  0  0  0  0  0
  -29.3877  -16.4872   21.7089 C   0  0  0  0  0  0  0  0  0  0  0  0
  -27.5936  -36.6444   24.6901 C   0  0  0  0  0  0  0  0  0  0  0  0
  -25.4786  -31.8598   20.8100 C   0  0  0  0  0  0  0  0  0  0  0  0
  -24.6117  -29.4219   22.2417 C   0  0  0  0  0  0  0  0  0  0  0  0
  -26.2944  -35.8918   24.9656 C   0  0  0  0  0  0  0  0  0  0  0  0
  -29.5746  -13.1408   22.9106 C   0  0  0  0  0  0  0  0  0  0  0  0
  -26.5885  -34.4549   25.3848 C   0  0  0  0  0  0  0  0  0  0  0  0
  -28.2433  -12.5244   22.4751 C   0  0  0  0  0  0  0  0  0  0  0  0
  -27.5030  -24.5887   18.8887 C   0  0  0  0  0  0  0  0  0  0  0  0
  -30.0022  -24.5648   19.0813 C   0  0  0  0  0  0  0  0  0  0  0  0
  -29.4138  -14.6017   23.3273 C   0  0  0  0  0  0  0  0  0  0  0  0
  -27.5078  -23.0726   18.6774 C   0  0  0  0  0  0  0  0  0  0  0  0
  -30.0001  -23.0505   18.8640 C   0  0  0  0  0  0  0  0  0  0  0  0
  -27.4187  -14.8437   21.9024 C   0  0  0  0  0  0  0  0  0  0  0  0
  -27.3141  -33.6924   24.2697 C   0  0  1  0  0  0  0  0  0  0  0  0
  -24.7157  -31.9316   22.1292 C   0  0  1  0  0  0  0  0  0  0  0  0
  -27.5416  -13.3918   21.4117 C   0  0  2  0  0  0  0  0  0  0  0  0
  -28.8022  -25.2495   18.4162 C   0  0  0  0  0  0  0  0  0  0  0  0
  -19.0666  -27.0829   20.9817 C   0  0  0  0  0  0  0  0  0  0  0  0
  -21.7649  -30.4039   25.8526 C   0  0  0  0  0  0  0  0  0  0  0  0
  -20.4226  -28.4459   25.0573 C   0  0  0  0  0  0  0  0  0  0  0  0
  -19.9015  -30.7364   24.2181 C   0  0  0  0  0  0  0  0  0  0  0  0
  -22.5689  -26.2422   19.7556 C   0  0  0  0  0  0  0  0  0  0  0  0
  -30.0790  -25.6826   16.4916 C   0  0  0  0  0  0  0  0  0  0  0  0
  -28.7886  -26.7473   18.7224 C   0  0  0  0  0  0  0  0  0  1  0  0
  -21.9984  -29.5712   23.4198 C   0  0  1  0  0  0  0  0  0  0  0  0
  -20.5439  -27.3368   20.7252 C   0  0  2  0  0  0  0  0  0  0  0  0
  -21.0499  -29.7906   24.6321 C   0  0  0  0  0  0  0  0  0  0  0  0
  -25.0941  -13.2181   21.6583 N   0  0  0  0  0  0  0  0  0  0  0  0
  -27.9060  -20.2717   18.9146 N   0  0  0  0  0  0  0  0  0  0  0  0
  -26.1986  -12.8116   21.0096 N   0  0  0  0  0  0  0  0  0  0  0  0
  -28.7106  -22.4704   19.2602 N   0  0  0  0  0  0  0  0  0  0  0  0
  -23.9372  -30.7211   22.3985 N   0  0  0  0  0  0  0  0  0  0  0  0
  -28.7455  -15.3629   22.2695 N   0  0  0  0  0  0  0  0  0  0  0  0
  -26.9547  -11.3771   19.2830 N   0  0  0  0  0  0  0  0  0  0  0  0
  -23.6944   -9.4627   19.5993 N   0  0  0  0  0  0  0  0  0  0  0  0
  -28.6706  -17.1118   20.6890 N   0  0  0  0  0  0  0  0  0  0  0  0
  -26.3797  -33.2950   23.2385 N   0  0  0  0  0  0  0  0  0  0  0  0
  -21.3425  -29.0167   22.2406 N   0  0  0  0  0  0  0  0  0  0  0  0
  -21.1251  -26.1231   20.0847 N   0  3  0  0  0  0  0  0  0  0  0  0
  -23.4345  -11.1484   18.0664 O   0  0  0  0  0  0  0  0  0  0  0  0
  -25.6240  -31.3243   24.2223 O   0  0  0  0  0  0  0  0  0  0  0  0
  -22.0724  -31.9226   23.1164 O   0  0  0  0  0  0  0  0  0  0  0  0
  -21.7514  -26.7907   22.7453 O   0  0  0  0  0  0  0  0  0  0  0  0
  -30.5045  -16.8517   22.0858 O   0  0  0  0  0  0  0  0  0  0  0  0
  -18.8144  -13.1498   22.7135 O   0  0  0  0  0  0  0  0  0  0  0  0
  -28.1949  -26.9544   20.0034 O   0  0  0  0  0  0  0  0  0  1  0  0
  -28.8940  -25.0912   16.9984 O   0  0  0  0  0  0  0  0  0  0  0  0
  -16.1875  -17.7585   21.2091 F   0  0  0  0  0  0  0  0  0  0  0  0
  -30.2650  -21.6028   21.3373 F   0  0  0  0  0  0  0  0  0  0  0  0
  -16.5197  -13.0368   21.1760 F   0  0  0  0  0  0  0  0  0  0  0  0
  -27.1456  -18.1260   18.6067 F   0  0  0  0  0  0  0  0  0  0  0  0
  1  2  1  0  0  0  0
  1  5  2  0  0  0  0
  2  6  2  0  0  0  0
  3  8  2  0  0  0  0
  3 16  1  0  0  0  0
  4  9  1  0  0  0  0
  4 16  2  0  0  0  0
  5 18  1  0  0  0  0
  6 20  1  0  0  0  0
  7 10  2  0  0  0  0
  7 19  1  0  0  0  0
  8 23  1  0  0  0  0
  9 23  2  0  0  0  0
 10 24  1  0  0  0  0
 11 12  2  0  0  0  0
 11 25  1  0  0  0  0
 12 26  1  0  0  0  0
 13 21  1  0  0  0  0
 13 24  2  0  0  0  0
 14 22  2  0  0  0  0
 14 27  1  0  0  0  0
 15 26  2  0  0  0  0
 15 28  1  0  0  0  0
 16 29  1  0  0  0  0
 17 29  1  0  0  0  0
 17 32  2  0  0  0  0
 17 33  1  0  0  0  0
 18 20  2  0  0  0  0
 18 38  1  0  0  0  0
 19 21  2  0  0  0  0
 19 39  1  0  0  0  0
 20 51  1  0  0  0  0
 21 40  1  0  0  0  0
 22 31  1  0  0  0  0
 22 73  1  0  0  0  0
 23 82  1  0  0  0  0
 24 83  1  0  0  0  0
 25 28  2  0  0  0  0
 25 82  1  0  0  0  0
 26 85  1  0  0  0  0
 27 30  2  0  0  0  0
 27 86  1  0  0  0  0
 28 87  1  0  0  0  0
 29 65  2  0  0  0  0
 30 66  1  0  0  0  0
 30 68  1  0  0  0  0
 31 66  2  0  0  0  0
 31 88  1  0  0  0  0
 32 67  1  0  0  0  0
 32 71  1  0  0  0  0
 33 72  1  0  0  0  0
 33 77  2  0  0  0  0
 34 52  1  0  0  0  0
 34 74  1  0  0  0  0
 34 78  2  0  0  0  0
 35 62  1  0  0  0  0
 35 69  1  0  0  0  0
 35 79  2  0  0  0  0
 36 63  1  0  0  0  0
 36 75  1  0  0  0  0
 36 80  2  0  0  0  0
 37 70  1  0  0  0  0
 37 73  1  0  0  0  0
 37 81  2  0  0  0  0
 38 41  1  0  0  0  0
 39 52  1  0  0  0  0
 40 69  1  0  0  0  0
 41 43  1  0  0  0  0
 42 44  1  0  0  0  0
 42 47  1  0  0  0  0
 43 51  1  0  0  0  0
 44 53  1  0  0  0  0
 45 48  1  0  0  0  0
 45 54  1  0  0  0  0
 46 49  1  0  0  0  0
 46 54  1  0  0  0  0
 47 70  1  0  0  0  0
 48 68  1  0  0  0  0
 49 68  1  0  0  0  0
 50 53  1  0  0  0  0
 50 70  1  0  0  0  0
 51 74  1  0  0  0  0
 52 69  1  0  0  0  0
 53 67  1  0  0  0  0
 54 61  1  0  0  0  0
 54 84  1  0  0  0  0
 55 63  1  0  0  0  0
 56 64  1  0  0  0  0
 57 64  1  0  0  0  0
 58 64  1  0  0  0  0
 59 76  1  0  0  0  0
 60 84  1  0  0  0  0
 61 83  1  0  0  0  0
 62 64  1  0  0  0  0
 62 75  1  0  0  0  0
 63 76  1  0  0  0  0
 65 67  1  0  0  0  0
M  CHG  1  76   1
M  ISO  4  37 100  61 101  73 100  83 101
M  END
> <Batch ID>
0157

> <Smiles>
CNC(C)C(=O)NC(C(=O)N1Cc2cc([101O:1][101CH2:1]C3(OC)CCN(c4nc(F)c([100NH:0][100C:0](=O)N5CCCC(n6nc(-c7ccc(Oc8ccc(F)cc8F)cc7)c(C(N)=O)c6N)C5)cc4F)CC3)ccc2CC1C(=O)NC1CCCc2ccccc21)C(C)(C)C

> <Shape>
0.311

> <Color>
0.069

> <Negative vol penalty>
0.000

$$$$

  -OEChem-04052303413D

 86 95  0     1  0  0  0  0  0999 V2000
  -26.7237  -35.5147   22.6888 C   0  0  0  0  0  0  0  0  0  0  0  0
  -27.1145  -34.2923   23.2258 C   0  0  0  0  0  0  0  0  0  0  0  0
  -23.1978   -9.7506   20.0346 C   0  0  0  0  0  0  0  0  0  0  0  0
  -23.8495   -9.9770   22.3500 C   0  0  0  0  0  0  0  0  0  0  0  0
  -25.6021  -35.5856   21.8636 C   0  0  0  0  0  0  0  0  0  0  0  0
  -26.3832  -33.1402   22.9390 C   0  0  0  0  0  0  0  0  0  0  0  0
  -28.5777  -27.4656   22.2396 C   0  0  0  0  0  0  0  0  0  0  0  0
  -22.4956   -8.5864   20.3460 C   0  0  0  0  0  0  0  0  0  0  0  0
  -23.1472   -8.8127   22.6615 C   0  0  0  0  0  0  0  0  0  0  0  0
  -28.6482  -26.3741   23.1041 C   0  0  0  0  0  0  0  0  0  0  0  0
  -19.5219   -7.7661   21.7306 C   0  0  0  0  0  0  0  0  0  0  0  0
  -18.2423   -7.6182   21.1956 C   0  0  0  0  0  0  0  0  0  0  0  0
  -31.3781  -18.9701   23.9563 C   0  0  0  0  0  0  0  0  0  0  0  0
  -29.4984  -17.8916   22.8884 C   0  0  0  0  0  0  0  0  0  0  0  0
  -26.6045  -25.5043   22.1629 C   0  0  0  0  0  0  0  0  0  0  0  0
  -31.7432  -17.1057   22.4637 C   0  0  0  0  0  0  0  0  0  0  0  0
  -18.9492   -5.6054   20.0615 C   0  0  0  0  0  0  0  0  0  0  0  0
  -23.8748  -10.4459   21.0366 C   0  0  0  0  0  0  0  0  0  0  0  0
  -30.0033  -18.8726   23.7418 C   0  0  0  0  0  0  0  0  0  0  0  0
  -24.1083  -12.9671   20.7253 C   0  0  0  0  0  0  0  0  0  0  0  0
  -24.8623  -34.4322   21.5587 C   0  0  0  0  0  0  0  0  0  0  0  0
  -27.5124  -27.5905   21.3363 C   0  0  0  0  0  0  0  0  0  0  0  0
  -25.2499  -33.1960   22.1100 C   0  0  0  0  0  0  0  0  0  0  0  0
  -26.5241  -26.5970   21.2862 C   0  0  0  0  0  0  0  0  0  0  0  0
  -32.2481  -18.0867   23.3171 C   0  0  0  0  0  0  0  0  0  0  0  0
  -30.3684  -17.0081   22.2493 C   0  0  0  0  0  0  0  0  0  0  0  0
  -22.4702   -8.1175   21.6594 C   0  0  0  0  0  0  0  0  0  0  0  0
  -27.6601  -25.3947   23.0678 C   0  0  0  0  0  0  0  0  0  0  0  0
  -20.5152   -6.8337   21.4311 C   0  0  0  0  0  0  0  0  0  0  0  0
  -17.9559   -6.5378   20.3611 C   0  0  0  0  0  0  0  0  0  0  0  0
  -20.2289   -5.7533   20.5966 C   0  0  0  0  0  0  0  0  0  0  0  0
  -24.6009  -11.6483   20.7154 C   0  0  0  0  0  0  0  0  0  0  0  0
  -25.1815  -13.7372   20.3489 C   0  0  0  0  0  0  0  0  0  0  0  0
  -27.8875  -21.9546   24.3526 C   0  0  0  0  0  0  0  0  0  0  0  0
  -29.0840  -19.8060   24.4170 C   0  0  0  0  0  0  0  0  0  0  0  0
  -22.7980  -13.4525   21.0462 C   0  0  0  0  0  0  0  0  0  0  0  0
  -25.1832  -29.7076   20.8936 C   0  0  0  0  0  0  0  0  0  0  0  0
  -24.5725  -27.9038   18.2676 C   0  0  0  0  0  0  0  0  0  0  0  0
  -24.8305  -24.8805   16.7055 C   0  0  0  0  0  0  0  0  0  0  0  0
  -30.5813  -15.0569   20.6702 C   0  0  0  0  0  0  0  0  0  0  0  0
  -23.6296  -34.5663   20.7001 C   0  0  0  0  0  0  0  0  0  0  0  0
  -27.4650  -28.7603   20.3920 C   0  0  0  0  0  0  0  0  0  0  0  0
  -25.3706  -26.6739   20.3209 C   0  0  0  0  0  0  0  0  0  0  0  0
  -23.1280  -33.2367   20.1426 C   0  0  0  0  0  0  0  0  0  0  0  0
  -29.6872  -12.4110   18.4617 C   0  0  0  0  0  0  0  0  0  0  0  0
  -23.0938  -32.1769   21.2391 C   0  0  0  0  0  0  0  0  0  0  0  0
  -28.2437  -12.0852   18.8520 C   0  0  0  0  0  0  0  0  0  0  0  0
  -29.0768  -22.8480   22.5155 C   0  0  0  0  0  0  0  0  0  0  0  0
  -30.5344  -12.7788   19.6785 C   0  0  0  0  0  0  0  0  0  0  0  0
  -29.2939  -21.3394   22.5104 C   0  0  0  0  0  0  0  0  0  0  0  0
  -28.5350  -13.5178   20.9135 C   0  0  0  0  0  0  0  0  0  0  0  0
  -24.4969  -31.9200   21.8021 C   0  0  1  0  0  0  0  0  0  0  0  0
  -27.7978  -23.0549   23.3258 C   0  0  2  0  0  0  0  0  0  1  0  0
  -26.0616  -29.0487   19.8680 C   0  0  1  0  0  0  0  0  0  0  0  0
  -27.6265  -13.2044   19.7135 C   0  0  2  0  0  0  0  0  0  0  0  0
  -24.2026  -23.7007   14.5815 C   0  0  0  0  0  0  0  0  0  0  0  0
  -21.6929  -27.6730   19.2498 C   0  0  0  0  0  0  0  0  0  0  0  0
  -21.3779  -25.7630   17.6621 C   0  0  0  0  0  0  0  0  0  0  0  0
  -21.9291  -28.0327   16.7863 C   0  0  0  0  0  0  0  0  0  0  0  0
  -27.6629  -24.3722   16.0141 C   0  0  0  0  0  0  0  0  0  0  0  0
  -23.7150  -26.6960   17.9761 C   0  0  1  0  0  0  0  0  0  0  0  0
  -25.2724  -24.5062   15.3023 C   0  0  2  0  0  0  0  0  0  0  0  0
  -22.1993  -27.0404   17.9382 C   0  0  0  0  0  0  0  0  0  0  0  0
  -25.8868  -11.5808   20.3606 N   0  0  0  0  0  0  0  0  0  0  0  0
  -26.2113  -12.8669   20.1440 N   0  0  0  0  0  0  0  0  0  0  0  0
  -28.7660  -20.9443   23.8269 N   0  0  0  0  0  0  0  0  0  0  0  0
  -25.3652  -27.8402   19.4224 N   0  0  0  0  0  0  0  0  0  0  0  0
  -29.8898  -13.8479   20.4442 N   0  0  0  0  0  0  0  0  0  0  0  0
  -33.6383  -18.1856   23.5335 N   0  0  0  0  0  0  0  0  0  0  0  0
  -25.3351  -15.0673   20.1764 N   0  0  0  0  0  0  0  0  0  0  0  0
  -21.8133  -12.5251   21.4132 N   0  0  0  0  0  0  0  0  0  0  0  0
  -29.8559  -16.0117   21.3820 N   0  0  0  0  0  0  0  0  0  0  0  0
  -25.2599  -31.0873   20.8971 N   0  0  0  0  0  0  0  0  0  0  0  0
  -24.2281  -26.1204   16.7376 N   0  0  0  0  0  0  0  0  0  0  0  0
  -28.5877  -19.4868   25.6086 N   0  3  0  0  0  0  0  0  0  0  0  0
  -26.5199  -23.6924   15.3519 N   0  3  0  0  0  0  0  0  0  0  0  0
  -27.3378  -21.8793   25.4363 O   0  0  0  0  0  0  0  0  0  0  0  0
  -22.5044  -14.6709   20.9927 O   0  0  0  0  0  0  0  0  0  0  0  0
  -24.4862  -29.0156   21.6264 O   0  0  0  0  0  0  0  0  0  0  0  0
  -24.5455  -28.8652   17.4953 O   0  0  0  0  0  0  0  0  0  0  0  0
  -24.9991  -24.1448   17.6755 O   0  0  0  0  0  0  0  0  0  0  0  0
  -31.7222  -15.2423   20.2389 O   0  0  0  0  0  0  0  0  0  0  0  0
  -21.7849   -6.9816   21.9637 O   0  0  0  0  0  0  0  0  0  0  0  0
  -27.7262  -24.3285   23.9109 O   0  0  0  0  0  0  0  0  0  1  0  0
  -16.7267   -6.3950   19.8485 F   0  0  0  0  0  0  0  0  0  0  0  0
  -21.1787   -4.8537   20.3062 F   0  0  0  0  0  0  0  0  0  0  0  0
  1  2  1  0  0  0  0
  1  5  2  0  0  0  0
  2  6  2  0  0  0  0
  3  8  2  0  0  0  0
  3 18  1  0  0  0  0
  4  9  1  0  0  0  0
  4 18  2  0  0  0  0
  5 21  1  0  0  0  0
  6 23  1  0  0  0  0
  7 10  2  0  0  0  0
  7 22  1  0  0  0  0
  8 27  1  0  0  0  0
  9 27  2  0  0  0  0
 10 28  1  0  0  0  0
 11 12  2  0  0  0  0
 11 29  1  0  0  0  0
 12 30  1  0  0  0  0
 13 19  1  0  0  0  0
 13 25  2  0  0  0  0
 14 19  2  0  0  0  0
 14 26  1  0  0  0  0
 15 24  1  0  0  0  0
 15 28  2  0  0  0  0
 16 25  1  0  0  0  0
 16 26  2  0  0  0  0
 17 30  2  0  0  0  0
 17 31  1  0  0  0  0
 18 32  1  0  0  0  0
 19 35  1  0  0  0  0
 20 32  1  0  0  0  0
 20 33  2  0  0  0  0
 20 36  1  0  0  0  0
 21 23  2  0  0  0  0
 21 41  1  0  0  0  0
 22 24  2  0  0  0  0
 22 42  1  0  0  0  0
 23 52  1  0  0  0  0
 24 43  1  0  0  0  0
 25 69  1  0  0  0  0
 26 72  1  0  0  0  0
 27 83  1  0  0  0  0
 28 84  1  0  0  0  0
 29 31  2  0  0  0  0
 29 83  1  0  0  0  0
 30 85  1  0  0  0  0
 31 86  1  0  0  0  0
 32 64  2  0  0  0  0
 33 65  1  0  0  0  0
 33 70  1  0  0  0  0
 34 53  1  0  0  0  0
 34 66  1  0  0  0  0
 34 77  2  0  0  0  0
 35 66  1  0  0  0  0
 35 75  2  0  0  0  0
 36 71  1  0  0  0  0
 36 78  2  0  0  0  0
 37 54  1  0  0  0  0
 37 73  1  0  0  0  0
 37 79  2  0  0  0  0
 38 61  1  0  0  0  0
 38 67  1  0  0  0  0
 38 80  2  0  0  0  0
 39 62  1  0  0  0  0
 39 74  1  0  0  0  0
 39 81  2  0  0  0  0
 40 68  1  0  0  0  0
 40 72  1  0  0  0  0
 40 82  2  0  0  0  0
 41 44  1  0  0  0  0
 42 54  1  0  0  0  0
 43 67  1  0  0  0  0
 44 46  1  0  0  0  0
 45 47  1  0  0  0  0
 45 49  1  0  0  0  0
 46 52  1  0  0  0  0
 47 55  1  0  0  0  0
 48 50  1  0  0  0  0
 48 53  1  0  0  0  0
 49 68  1  0  0  0  0
 50 66  1  0  0  0  0
 51 55  1  0  0  0  0
 51 68  1  0  0  0  0
 52 73  1  0  0  0  0
 53 84  1  0  0  0  0
 54 67  1  0  0  0  0
 55 65  1  0  0  0  0
 56 62  1  0  0  0  0
 57 63  1  0  0  0  0
 58 63  1  0  0  0  0
 59 63  1  0  0  0  0
 60 76  1  0  0  0  0
 61 63  1  0  0  0  0
 61 74  1  0  0  0  0
 62 76  1  0  0  0  0
 64 65  1  0  0  0  0
M  CHG  2  75   1  76   1
M  ISO  4  40 100  53 101  72 100  84 101
M  END
> <Batch ID>
0157

> <Smiles>
CNC(C)C(=O)NC(C(=O)N1Cc2cc([101O:1][101CH:1]3CCN(C(=N)c4cc(N)cc([100NH:0][100C:0](=O)N5CCCC(n6nc(-c7ccc(Oc8ccc(F)cc8F)cc7)c(C(N)=O)c6N)C5)c4)C3=O)ccc2CC1C(=O)NC1CCCc2ccccc21)C(C)(C)C

> <Shape>
0.243

> <Color>
0.186

> <Negative vol penalty>
0.000

$$$$

  -OEChem-04052303413D

 81 89  0     1  0  0  0  0  0999 V2000
  -28.8146  -35.9957   21.8420 C   0  0  0  0  0  0  0  0  0  0  0  0
  -28.9823  -34.6165   21.7689 C   0  0  0  0  0  0  0  0  0  0  0  0
  -23.8275   -9.6496   22.5393 C   0  0  0  0  0  0  0  0  0  0  0  0
  -23.4222  -10.0898   20.1986 C   0  0  0  0  0  0  0  0  0  0  0  0
  -27.7069  -36.5281   22.5004 C   0  0  0  0  0  0  0  0  0  0  0  0
  -28.0430  -33.7690   22.3552 C   0  0  0  0  0  0  0  0  0  0  0  0
  -26.7829  -29.8916   19.3514 C   0  0  0  0  0  0  0  0  0  0  0  0
  -22.9691   -8.5517   22.4815 C   0  0  0  0  0  0  0  0  0  0  0  0
  -22.5638   -8.9918   20.1408 C   0  0  0  0  0  0  0  0  0  0  0  0
  -27.6819  -28.8288   19.2727 C   0  0  0  0  0  0  0  0  0  0  0  0
  -23.0878   -5.3514   21.3968 C   0  0  0  0  0  0  0  0  0  0  0  0
  -23.5089   -4.1668   22.0009 C   0  0  0  0  0  0  0  0  0  0  0  0
  -28.9091  -18.4190   18.2936 C   0  0  0  0  0  0  0  0  0  0  0  0
  -29.5414  -19.6468   17.9842 C   0  0  0  0  0  0  0  0  0  0  0  0
  -26.3312  -27.5786   20.8320 C   0  0  0  0  0  0  0  0  0  0  0  0
  -21.5882   -4.2308   23.4651 C   0  0  0  0  0  0  0  0  0  0  0  0
  -24.0540  -10.4187   21.3979 C   0  0  0  0  0  0  0  0  0  0  0  0
  -26.3275  -11.5618   21.2182 C   0  0  0  0  0  0  0  0  0  0  0  0
  -26.7484  -35.6865   23.0866 C   0  0  0  0  0  0  0  0  0  0  0  0
  -25.6552  -29.8099   20.1808 C   0  0  0  0  0  0  0  0  0  0  0  0
  -26.9221  -34.2907   23.0232 C   0  0  0  0  0  0  0  0  0  0  0  0
  -25.4181  -28.6406   20.9176 C   0  0  0  0  0  0  0  0  0  0  0  0
  -22.3373   -8.2228   21.2823 C   0  0  0  0  0  0  0  0  0  0  0  0
  -27.4577  -27.6733   20.0153 C   0  0  0  0  0  0  0  0  0  0  0  0
  -21.9169   -5.9758   21.8268 C   0  0  0  0  0  0  0  0  0  0  0  0
  -22.7591   -3.6065   23.0351 C   0  0  0  0  0  0  0  0  0  0  0  0
  -21.1671   -5.4155   22.8610 C   0  0  0  0  0  0  0  0  0  0  0  0
  -24.9401  -11.5533   21.4571 C   0  0  0  0  0  0  0  0  0  0  0  0
  -26.6990  -12.8716   21.3993 C   0  0  0  0  0  0  0  0  0  0  0  0
  -27.8688  -18.7274   19.1390 C   0  0  0  0  0  0  0  0  0  0  0  0
  -28.8422  -20.6181   18.6623 C   0  0  0  0  0  0  0  0  0  0  0  0
  -27.2021  -10.4822   20.8643 C   0  0  0  0  0  0  0  0  0  0  0  0
  -24.6087  -31.4266   22.7096 C   0  0  0  0  0  0  0  0  0  0  0  0
  -28.6170  -24.2964   19.3707 C   0  0  0  0  0  0  0  0  0  0  0  0
  -21.9842  -29.5584   22.3299 C   0  0  0  0  0  0  0  0  0  0  0  0
  -20.6406  -26.6588   21.1325 C   0  0  0  0  0  0  0  0  0  0  0  0
  -25.8708  -18.3221   20.6188 C   0  0  0  0  0  0  0  0  0  0  0  0
  -25.5923  -36.3091   23.8285 C   0  0  0  0  0  0  0  0  0  0  0  0
  -24.6808  -30.9545   20.2341 C   0  0  0  0  0  0  0  0  0  0  0  0
  -24.2117  -28.4949   21.8074 C   0  0  0  0  0  0  0  0  0  0  0  0
  -24.4474  -35.3362   24.0991 C   0  0  0  0  0  0  0  0  0  0  0  0
  -24.1321  -16.7883   23.3209 C   0  0  0  0  0  0  0  0  0  0  0  0
  -24.9856  -34.0162   24.6420 C   0  0  0  0  0  0  0  0  0  0  0  0
  -24.3015  -15.2903   23.0573 C   0  0  0  0  0  0  0  0  0  0  0  0
  -23.9614  -17.5767   22.0236 C   0  0  0  0  0  0  0  0  0  0  0  0
  -25.1742  -15.8498   20.7524 C   0  0  0  0  0  0  0  0  0  0  0  0
  -25.9119  -33.3382   23.6252 C   0  0  1  0  0  0  0  0  0  0  0  0
  -23.8382  -30.9631   21.5058 C   0  0  1  0  0  0  0  0  0  0  0  0
  -25.4145  -15.0220   22.0254 C   0  0  2  0  0  0  0  0  0  0  0  0
  -18.4763  -25.3949   21.0073 C   0  0  0  0  0  0  0  0  0  0  0  0
  -22.2878  -28.7535   25.2574 C   0  0  0  0  0  0  0  0  0  0  0  0
  -20.7450  -26.8316   24.8166 C   0  0  0  0  0  0  0  0  0  0  0  0
  -19.9322  -29.1725   24.5296 C   0  0  0  0  0  0  0  0  0  0  0  0
  -20.6375  -26.7276   18.1737 C   0  0  0  0  0  0  0  0  0  0  0  0
  -28.1565  -22.8612   19.5133 C   0  0  0  0  0  0  0  0  0  0  0  0
  -27.8053  -25.3237   20.1357 C   0  0  0  0  0  0  0  0  0  1  0  0
  -21.5505  -28.2069   22.8441 C   0  0  1  0  0  0  0  0  0  0  0  0
  -19.3917  -26.3907   20.3122 C   0  0  2  0  0  0  0  0  0  0  0  0
  -21.1527  -28.2443   24.3467 C   0  0  0  0  0  0  0  0  0  0  0  0
  -24.4628  -12.7618   21.7665 N   0  0  0  0  0  0  0  0  0  0  0  0
  -25.5563  -13.5419   21.7234 N   0  0  0  0  0  0  0  0  0  0  0  0
  -23.2916  -29.6441   21.8306 N   0  0  0  0  0  0  0  0  0  0  0  0
  -25.0542  -17.2753   21.0964 N   0  0  0  0  0  0  0  0  0  0  0  0
  -27.8886  -13.5039   21.3115 N   0  0  0  0  0  0  0  0  0  0  0  0
  -26.6555   -9.1999   20.7185 N   0  0  0  0  0  0  0  0  0  0  0  0
  -26.8972  -17.9109   19.7692 N   0  0  0  0  0  0  0  0  0  0  0  0
  -29.0044  -21.9942   18.7357 N   0  0  0  0  0  0  0  0  0  0  0  0
  -25.1370  -32.6973   22.5844 N   0  0  0  0  0  0  0  0  0  0  0  0
  -20.4859  -27.7544   21.9552 N   0  0  0  0  0  0  0  0  0  0  0  0
  -19.7575  -25.8400   18.9766 N   0  3  0  0  0  0  0  0  0  0  0  0
  -28.4346  -10.6468   20.6986 O   0  0  0  0  0  0  0  0  0  0  0  0
  -24.7148  -30.6868   23.6807 O   0  0  0  0  0  0  0  0  0  0  0  0
  -29.5842  -24.6195   18.6823 O   0  0  0  0  0  0  0  0  0  0  0  0
  -21.1899  -30.5015   22.3633 O   0  0  0  0  0  0  0  0  0  0  0  0
  -21.6510  -25.9635   21.0541 O   0  0  0  0  0  0  0  0  0  0  0  0
  -25.6907  -19.4935   20.9614 O   0  0  0  0  0  0  0  0  0  0  0  0
  -27.8211  -20.0658   19.3686 O   0  0  0  0  0  0  0  0  0  0  0  0
  -21.4998   -7.1514   21.2255 O   0  0  0  0  0  0  0  0  0  0  0  0
  -28.3339  -26.6347   19.9407 O   0  0  0  0  0  0  0  0  0  1  0  0
  -23.1628   -2.4681   23.6141 F   0  0  0  0  0  0  0  0  0  0  0  0
  -20.0408   -6.0101   23.2776 F   0  0  0  0  0  0  0  0  0  0  0  0
  1  2  1  0  0  0  0
  1  5  2  0  0  0  0
  2  6  2  0  0  0  0
  3  8  2  0  0  0  0
  3 17  1  0  0  0  0
  4  9  1  0  0  0  0
  4 17  2  0  0  0  0
  5 19  1  0  0  0  0
  6 21  1  0  0  0  0
  7 10  2  0  0  0  0
  7 20  1  0  0  0  0
  8 23  1  0  0  0  0
  9 23  2  0  0  0  0
 10 24  1  0  0  0  0
 11 12  2  0  0  0  0
 11 25  1  0  0  0  0
 12 26  1  0  0  0  0
 13 14  1  0  0  0  0
 13 30  2  0  0  0  0
 14 31  2  0  0  0  0
 15 22  1  0  0  0  0
 15 24  2  0  0  0  0
 16 26  2  0  0  0  0
 16 27  1  0  0  0  0
 17 28  1  0  0  0  0
 18 28  1  0  0  0  0
 18 29  2  0  0  0  0
 18 32  1  0  0  0  0
 19 21  2  0  0  0  0
 19 38  1  0  0  0  0
 20 22  2  0  0  0  0
 20 39  1  0  0  0  0
 21 47  1  0  0  0  0
 22 40  1  0  0  0  0
 23 78  1  0  0  0  0
 24 79  1  0  0  0  0
 25 27  2  0  0  0  0
 25 78  1  0  0  0  0
 26 80  1  0  0  0  0
 27 81  1  0  0  0  0
 28 60  2  0  0  0  0
 29 61  1  0  0  0  0
 29 64  1  0  0  0  0
 30 66  1  0  0  0  0
 30 77  1  0  0  0  0
 31 67  1  0  0  0  0
 31 77  1  0  0  0  0
 32 65  1  0  0  0  0
 32 71  2  0  0  0  0
 33 48  1  0  0  0  0
 33 68  1  0  0  0  0
 33 72  2  0  0  0  0
 34 55  1  0  0  0  0
 34 56  1  0  0  0  0
 34 73  2  0  0  0  0
 35 57  1  0  0  0  0
 35 62  1  0  0  0  0
 35 74  2  0  0  0  0
 36 58  1  0  0  0  0
 36 69  1  0  0  0  0
 36 75  2  0  0  0  0
 37 63  1  0  0  0  0
 37 66  1  0  0  0  0
 37 76  2  0  0  0  0
 38 41  1  0  0  0  0
 39 48  1  0  0  0  0
 40 62  1  0  0  0  0
 41 43  1  0  0  0  0
 42 44  1  0  0  0  0
 42 45  1  0  0  0  0
 43 47  1  0  0  0  0
 44 49  1  0  0  0  0
 45 63  1  0  0  0  0
 46 49  1  0  0  0  0
 46 63  1  0  0  0  0
 47 68  1  0  0  0  0
 48 62  1  0  0  0  0
 49 61  1  0  0  0  0
 50 58  1  0  0  0  0
 51 59  1  0  0  0  0
 52 59  1  0  0  0  0
 53 59  1  0  0  0  0
 54 70  1  0  0  0  0
 55 67  1  0  0  0  0
 56 79  1  0  0  0  0
 57 59  1  0  0  0  0
 57 69  1  0  0  0  0
 58 70  1  0  0  0  0
 60 61  1  0  0  0  0
M  CHG  1  70   1
M  ISO  4  37 100  56 101  66 100  79 101
M  END
> <Batch ID>
0157

> <Smiles>
CNC(C)C(=O)NC(C(=O)N1Cc2cc([101O:1][101CH2:1]C(=O)CNc3ccc([100NH:0][100C:0](=O)N4CCCC(n5nc(-c6ccc(Oc7ccc(F)cc7F)cc6)c(C(N)=O)c5N)C4)o3)ccc2CC1C(=O)NC1CCCc2ccccc21)C(C)(C)C

> <Shape>
0.325

> <Color>
0.098

> <Negative vol penalty>
0.000

$$$$

  -OEChem-04052303413D

 86 95  0     1  0  0  0  0  0999 V2000
  -22.2172  -17.5790   20.4296 C   0  0  0  0  0  0  0  0  0  0  0  0
  -23.2248  -18.3604   20.9839 C   0  0  0  0  0  0  0  0  0  0  0  0
  -23.2510  -10.1323   22.1644 C   0  0  0  0  0  0  0  0  0  0  0  0
  -23.5078   -9.5530   19.8330 C   0  0  0  0  0  0  0  0  0  0  0  0
  -21.9631  -17.6439   19.0613 C   0  0  0  0  0  0  0  0  0  0  0  0
  -23.9705  -19.2157   20.1720 C   0  0  0  0  0  0  0  0  0  0  0  0
  -28.7463  -22.7633   21.4887 C   0  0  0  0  0  0  0  0  0  0  0  0
  -22.4924   -8.9795   22.3673 C   0  0  0  0  0  0  0  0  0  0  0  0
  -22.7492   -8.4001   20.0359 C   0  0  0  0  0  0  0  0  0  0  0  0
  -30.1369  -22.6633   21.4767 C   0  0  0  0  0  0  0  0  0  0  0  0
  -23.0518   -5.6713   22.7867 C   0  0  0  0  0  0  0  0  0  0  0  0
  -23.3348   -4.8990   23.9132 C   0  0  0  0  0  0  0  0  0  0  0  0
  -31.8358  -17.3706   21.8835 C   0  0  0  0  0  0  0  0  0  0  0  0
  -30.1874  -23.7106   19.3041 C   0  0  0  0  0  0  0  0  0  0  0  0
  -21.0768   -5.2288   24.7066 C   0  0  0  0  0  0  0  0  0  0  0  0
  -23.7587  -10.4191   20.8972 C   0  0  0  0  0  0  0  0  0  0  0  0
  -31.9493  -18.5959   22.6018 C   0  0  0  0  0  0  0  0  0  0  0  0
  -24.1352  -12.9421   20.8918 C   0  0  0  0  0  0  0  0  0  0  0  0
  -22.7148  -18.4915   18.2310 C   0  0  0  0  0  0  0  0  0  0  0  0
  -28.0640  -23.3288   20.4019 C   0  0  0  0  0  0  0  0  0  0  0  0
  -23.7132  -19.3132   18.7925 C   0  0  0  0  0  0  0  0  0  0  0  0
  -28.7883  -23.8189   19.3059 C   0  0  0  0  0  0  0  0  0  0  0  0
  -22.2416   -8.1134   21.3031 C   0  0  0  0  0  0  0  0  0  0  0  0
  -30.8574  -23.1343   20.3830 C   0  0  0  0  0  0  0  0  0  0  0  0
  -21.7812   -6.2224   22.6202 C   0  0  0  0  0  0  0  0  0  0  0  0
  -22.3473   -4.6777   24.8732 C   0  0  0  0  0  0  0  0  0  0  0  0
  -20.7937   -6.0011   23.5801 C   0  0  0  0  0  0  0  0  0  0  0  0
  -24.5419  -11.6101   20.6868 C   0  0  0  0  0  0  0  0  0  0  0  0
  -25.2340  -13.6928   20.5516 C   0  0  0  0  0  0  0  0  0  0  0  0
  -30.6182  -16.7604   22.0902 C   0  0  0  0  0  0  0  0  0  0  0  0
  -30.8138  -18.8757   23.3300 C   0  0  0  0  0  0  0  0  0  0  0  0
  -32.2568  -20.6946   20.6329 C   0  0  0  0  0  0  0  0  0  0  0  0
  -33.1493  -19.4504   22.5581 C   0  0  0  0  0  0  0  0  0  0  0  0
  -22.8768  -13.4551   21.3490 C   0  0  0  0  0  0  0  0  0  0  0  0
  -25.9149  -22.2767   18.3095 C   0  0  0  0  0  0  0  0  0  0  0  0
  -25.8827  -25.3817   17.3712 C   0  0  0  0  0  0  0  0  0  0  0  0
  -27.5118  -28.3760   17.2080 C   0  0  0  0  0  0  0  0  0  0  0  0
  -30.7162  -14.6535   20.7127 C   0  0  0  0  0  0  0  0  0  0  0  0
  -22.3923  -18.5283   16.7579 C   0  0  0  0  0  0  0  0  0  0  0  0
  -26.5656  -23.4536   20.4419 C   0  0  0  0  0  0  0  0  0  0  0  0
  -28.1047  -24.4530   18.1231 C   0  0  0  0  0  0  0  0  0  0  0  0
  -23.5176  -19.1231   15.9176 C   0  0  0  0  0  0  0  0  0  0  0  0
  -29.5418  -12.3695   18.2466 C   0  0  0  0  0  0  0  0  0  0  0  0
  -23.9755  -20.4424   16.5212 C   0  0  0  0  0  0  0  0  0  0  0  0
  -28.1029  -12.0779   18.6785 C   0  0  0  0  0  0  0  0  0  0  0  0
  -34.2778  -21.8127   20.0996 C   0  0  0  0  0  0  0  0  0  0  0  0
  -30.4730  -12.5288   19.4471 C   0  0  0  0  0  0  0  0  0  0  0  0
  -34.3969  -21.2971   21.5325 C   0  0  0  0  0  0  0  0  0  0  0  0
  -28.5917  -13.2136   20.8826 C   0  0  0  0  0  0  0  0  0  0  0  0
  -24.5577  -20.2282   17.9242 C   0  0  1  0  0  0  0  0  0  0  0  0
  -25.9393  -23.5801   19.0566 C   0  0  1  0  0  0  0  0  0  0  0  0
  -27.6038  -13.1095   19.7092 C   0  0  2  0  0  0  0  0  0  0  0  0
  -32.7712  -21.8570   19.8157 C   0  0  1  0  0  0  0  0  0  1  0  0
  -32.4389  -21.7490   18.3395 C   0  0  0  0  0  0  0  0  0  0  0  0
  -27.2466  -30.7185   16.3479 C   0  0  0  0  0  0  0  0  0  0  0  0
  -26.4332  -24.4001   14.5351 C   0  0  0  0  0  0  0  0  0  0  0  0
  -27.0924  -26.7380   13.9286 C   0  0  0  0  0  0  0  0  0  0  0  0
  -24.7662  -26.2579   14.6908 C   0  0  0  0  0  0  0  0  0  0  0  0
  -27.7307  -29.5231   19.9274 C   0  0  0  0  0  0  0  0  0  0  0  0
  -26.6565  -26.2037   16.3690 C   0  0  1  0  0  0  0  0  0  0  0  0
  -27.0600  -29.7877   17.5360 C   0  0  2  0  0  0  0  0  0  0  0  0
  -26.2501  -25.8863   14.9021 C   0  0  0  0  0  0  0  0  0  0  0  0
  -25.8006  -11.5166   20.2500 N   0  0  0  0  0  0  0  0  0  0  0  0
  -26.1944  -12.7995   20.1778 N   0  0  0  0  0  0  0  0  0  0  0  0
  -33.2404  -20.3949   21.6387 N   0  0  0  0  0  0  0  0  0  0  0  0
  -26.6378  -24.5464   18.2066 N   0  0  0  0  0  0  0  0  0  0  0  0
  -29.9384  -13.5248   20.3782 N   0  0  0  0  0  0  0  0  0  0  0  0
  -25.4626  -15.0232   20.5387 N   0  0  0  0  0  0  0  0  0  0  0  0
  -30.5964  -19.9589   24.1190 N   0  0  0  0  0  0  0  0  0  0  0  0
  -21.8908  -13.7513   20.3980 N   0  0  0  0  0  0  0  0  0  0  0  0
  -30.0910  -15.5478   21.5810 N   0  0  0  0  0  0  0  0  0  0  0  0
  -24.7852  -21.5157   18.5425 N   0  0  0  0  0  0  0  0  0  0  0  0
  -26.4680  -27.5986   16.7527 N   0  0  0  0  0  0  0  0  0  0  0  0
  -34.1206  -19.2586   23.4458 N   0  3  0  0  0  0  0  0  0  0  0  0
  -27.8418  -30.3282   18.6839 N   0  3  0  0  0  0  0  0  0  0  0  0
  -31.1953  -20.1061   20.5322 O   0  0  0  0  0  0  0  0  0  0  0  0
  -22.6398  -13.6606   22.5635 O   0  0  0  0  0  0  0  0  0  0  0  0
  -26.8509  -21.9838   17.5748 O   0  0  0  0  0  0  0  0  0  0  0  0
  -24.6541  -25.4824   17.4161 O   0  0  0  0  0  0  0  0  0  0  0  0
  -28.6750  -28.0016   17.3388 O   0  0  0  0  0  0  0  0  0  0  0  0
  -31.8425  -14.8285   20.2406 O   0  0  0  0  0  0  0  0  0  0  0  0
  -21.5016   -6.9883   21.5008 O   0  0  0  0  0  0  0  0  0  0  0  0
  -32.2147  -23.0374   20.3685 O   0  0  0  0  0  0  0  0  0  1  0  0
  -22.6188   -3.9348   25.9542 F   0  0  0  0  0  0  0  0  0  0  0  0
  -19.5709   -6.5269   23.4250 F   0  0  0  0  0  0  0  0  0  0  0  0
  -29.6179  -17.6639   23.1464 S   0  0  0  0  0  0  0  0  0  0  0  0
  1  2  1  0  0  0  0
  1  5  2  0  0  0  0
  2  6  2  0  0  0  0
  3  8  2  0  0  0  0
  3 16  1  0  0  0  0
  4  9  1  0  0  0  0
  4 16  2  0  0  0  0
  5 19  1  0  0  0  0
  6 21  1  0  0  0  0
  7 10  2  0  0  0  0
  7 20  1  0  0  0  0
  8 23  1  0  0  0  0
  9 23  2  0  0  0  0
 10 24  1  0  0  0  0
 11 12  2  0  0  0  0
 11 25  1  0  0  0  0
 12 26  1  0  0  0  0
 13 17  1  0  0  0  0
 13 30  2  0  0  0  0
 14 22  1  0  0  0  0
 14 24  2  0  0  0  0
 15 26  2  0  0  0  0
 15 27  1  0  0  0  0
 16 28  1  0  0  0  0
 17 31  2  0  0  0  0
 17 33  1  0  0  0  0
 18 28  1  0  0  0  0
 18 29  2  0  0  0  0
 18 34  1  0  0  0  0
 19 21  2  0  0  0  0
 19 39  1  0  0  0  0
 20 22  2  0  0  0  0
 20 40  1  0  0  0  0
 21 50  1  0  0  0  0
 22 41  1  0  0  0  0
 23 82  1  0  0  0  0
 24 83  1  0  0  0  0
 25 27  2  0  0  0  0
 25 82  1  0  0  0  0
 26 84  1  0  0  0  0
 27 85  1  0  0  0  0
 28 63  2  0  0  0  0
 29 64  1  0  0  0  0
 29 68  1  0  0  0  0
 30 71  1  0  0  0  0
 30 86  1  0  0  0  0
 31 69  1  0  0  0  0
 31 86  1  0  0  0  0
 32 53  1  0  0  0  0
 32 65  1  0  0  0  0
 32 76  2  0  0  0  0
 33 65  1  0  0  0  0
 33 74  2  0  0  0  0
 34 70  1  0  0  0  0
 34 77  2  0  0  0  0
 35 51  1  0  0  0  0
 35 72  1  0  0  0  0
 35 78  2  0  0  0  0
 36 60  1  0  0  0  0
 36 66  1  0  0  0  0
 36 79  2  0  0  0  0
 37 61  1  0  0  0  0
 37 73  1  0  0  0  0
 37 80  2  0  0  0  0
 38 67  1  0  0  0  0
 38 71  1  0  0  0  0
 38 81  2  0  0  0  0
 39 42  1  0  0  0  0
 40 51  1  0  0  0  0
 41 66  1  0  0  0  0
 42 44  1  0  0  0  0
 43 45  1  0  0  0  0
 43 47  1  0  0  0  0
 44 50  1  0  0  0  0
 45 52  1  0  0  0  0
 46 48  1  0  0  0  0
 46 53  1  0  0  0  0
 47 67  1  0  0  0  0
 48 65  1  0  0  0  0
 49 52  1  0  0  0  0
 49 67  1  0  0  0  0
 50 72  1  0  0  0  0
 51 66  1  0  0  0  0
 52 64  1  0  0  0  0
 53 54  1  0  0  0  0
 53 83  1  0  0  0  0
 55 61  1  0  0  0  0
 56 62  1  0  0  0  0
 57 62  1  0  0  0  0
 58 62  1  0  0  0  0
 59 75  1  0  0  0  0
 60 62  1  0  0  0  0
 60 73  1  0  0  0  0
 61 75  1  0  0  0  0
 63 64  1  0  0  0  0
M  CHG  2  74   1  75   1
M  ISO  4  38 100  53 101  71 100  83 101
M  END
> <Batch ID>
0157

> <Smiles>
CNC(C)C(=O)NC(C(=O)N1Cc2cc([101O:1][101C:1]3(C)CCN(C(=N)c4cc([100NH:0][100C:0](=O)N5CCCC(n6nc(-c7ccc(Oc8ccc(F)cc8F)cc7)c(C(N)=O)c6N)C5)sc4N)C3=O)ccc2CC1C(=O)NC1CCCc2ccccc21)C(C)(C)C

> <Shape>
0.211

> <Color>
0.167

> <Negative vol penalty>
0.000

$$$$

  -OEChem-04052303413D

 84 93  0     1  0  0  0  0  0999 V2000
  -19.5575   -6.0993   20.4138 C   0  0  0  0  0  0  0  0  0  0  0  0
  -19.4297   -7.4841   20.3789 C   0  0  0  0  0  0  0  0  0  0  0  0
  -23.9321  -31.7252   25.4325 C   0  0  0  0  0  0  0  0  0  0  0  0
  -26.2510  -31.4063   26.0309 C   0  0  0  0  0  0  0  0  0  0  0  0
  -20.6613   -5.5177   21.0361 C   0  0  0  0  0  0  0  0  0  0  0  0
  -20.4052   -8.2882   20.9674 C   0  0  0  0  0  0  0  0  0  0  0  0
  -23.6189  -14.6426   20.1863 C   0  0  0  0  0  0  0  0  0  0  0  0
  -23.5963  -31.8178   26.7831 C   0  0  0  0  0  0  0  0  0  0  0  0
  -25.9152  -31.4990   27.3815 C   0  0  0  0  0  0  0  0  0  0  0  0
  -23.9164  -15.7956   20.9116 C   0  0  0  0  0  0  0  0  0  0  0  0
  -23.7501  -34.1417   29.2344 C   0  0  0  0  0  0  0  0  0  0  0  0
  -22.8835  -35.1651   29.6182 C   0  0  0  0  0  0  0  0  0  0  0  0
  -25.8200  -14.6821   21.8891 C   0  0  0  0  0  0  0  0  0  0  0  0
  -26.9195  -21.8308   20.5046 C   0  0  0  0  0  0  0  0  0  0  0  0
  -21.3142  -33.5255   30.4465 C   0  0  0  0  0  0  0  0  0  0  0  0
  -25.2594  -31.5193   25.0563 C   0  0  0  0  0  0  0  0  0  0  0  0
  -25.9736  -32.4759   22.8019 C   0  0  0  0  0  0  0  0  0  0  0  0
  -21.6557   -6.3153   21.6240 C   0  0  0  0  0  0  0  0  0  0  0  0
  -24.4147  -13.4953   20.3154 C   0  0  0  0  0  0  0  0  0  0  0  0
  -21.5227   -7.7167   21.5993 C   0  0  0  0  0  0  0  0  0  0  0  0
  -25.5320  -13.5168   21.1624 C   0  0  0  0  0  0  0  0  0  0  0  0
  -27.5733  -22.9910   19.9891 C   0  0  0  0  0  0  0  0  0  0  0  0
  -24.5878  -31.7048   27.7577 C   0  0  0  0  0  0  0  0  0  0  0  0
  -25.0154  -15.8145   21.7653 C   0  0  0  0  0  0  0  0  0  0  0  0
  -23.3987  -32.8102   29.4566 C   0  0  0  0  0  0  0  0  0  0  0  0
  -21.6656  -34.8570   30.2242 C   0  0  0  0  0  0  0  0  0  0  0  0
  -22.1808  -32.5021   30.0626 C   0  0  0  0  0  0  0  0  0  0  0  0
  -25.6069  -31.4229   23.6613 C   0  0  0  0  0  0  0  0  0  0  0  0
  -28.9436  -22.8140   19.9501 C   0  0  0  0  0  0  0  0  0  0  0  0
  -26.2030  -31.8675   21.5920 C   0  0  0  0  0  0  0  0  0  0  0  0
  -27.8121  -20.8346   20.8384 C   0  0  0  0  0  0  0  0  0  0  0  0
  -26.0961  -33.8784   23.0730 C   0  0  0  0  0  0  0  0  0  0  0  0
  -23.9142  -10.5187   21.3118 C   0  0  0  0  0  0  0  0  0  0  0  0
  -26.9605  -10.0783   20.2880 C   0  0  0  0  0  0  0  0  0  0  0  0
  -30.0041  -11.4479   19.5756 C   0  0  0  0  0  0  0  0  0  0  0  0
  -26.3821  -18.9481   21.6960 C   0  0  0  0  0  0  0  0  0  0  0  0
  -27.8834  -26.5418   20.0518 C   0  0  0  0  0  0  0  0  0  0  0  0
  -22.8068   -5.6400   22.3265 C   0  0  0  0  0  0  0  0  0  0  0  0
  -24.0960  -12.2684   19.5059 C   0  0  0  0  0  0  0  0  0  0  0  0
  -26.4299  -12.3180   21.3212 C   0  0  0  0  0  0  0  0  0  0  0  0
  -26.9059  -24.2518   19.5231 C   0  0  0  0  0  0  0  0  0  0  0  0
  -29.9144  -23.8473   19.4747 C   0  0  0  0  0  0  0  0  0  0  0  0
  -23.9853   -6.5714   22.5986 C   0  0  0  0  0  0  0  0  0  0  0  0
  -24.8936  -28.0828   18.9863 C   0  0  0  0  0  0  0  0  0  0  0  0
  -23.4974   -7.8922   23.1853 C   0  0  0  0  0  0  0  0  0  0  0  0
  -24.7662  -29.2247   19.9936 C   0  0  0  0  0  0  0  0  0  0  0  0
  -29.1626  -24.9219   18.6782 C   0  0  0  0  0  0  0  0  0  0  0  0
  -25.3929  -26.7930   19.6399 C   0  0  0  0  0  0  0  0  0  0  0  0
  -26.5218  -28.0992   21.4127 C   0  0  0  0  0  0  0  0  0  0  0  0
  -22.5723   -8.6232   22.2048 C   0  0  1  0  0  0  0  0  0  0  0  0
  -24.6748  -10.9903   20.1049 C   0  0  1  0  0  0  0  0  0  0  0  0
  -26.0795  -29.4229   20.7706 C   0  0  2  0  0  0  0  0  0  0  0  0
  -32.3077  -10.8310   18.7944 C   0  0  0  0  0  0  0  0  0  0  0  0
  -27.3697  -17.5537   23.5507 C   0  0  0  0  0  0  0  0  0  0  0  0
  -27.5945   -8.9541   23.0528 C   0  0  0  0  0  0  0  0  0  0  0  0
  -30.0269   -9.2487   22.5382 C   0  0  0  0  0  0  0  0  0  0  0  0
  -28.6391   -7.7055   21.1543 C   0  0  0  0  0  0  0  0  0  0  0  0
  -29.7721  -13.1570   17.1706 C   0  0  0  0  0  0  0  0  0  0  0  0
  -28.3279  -10.2032   20.9155 C   0  0  1  0  0  0  0  0  0  0  0  0
  -30.9214  -11.2954   18.3757 C   0  0  2  0  0  0  0  0  0  0  0  0
  -26.5785  -17.5397   22.2512 C   0  0  1  0  0  0  0  0  0  1  0  0
  -28.6293   -9.0500   21.9139 C   0  0  0  0  0  0  0  0  0  0  0  0
  -25.6020  -30.2357   23.0494 N   0  0  0  0  0  0  0  0  0  0  0  0
  -25.9685  -30.5390   21.7924 N   0  0  0  0  0  0  0  0  0  0  0  0
  -26.0731  -11.1402   20.5131 N   0  0  0  0  0  0  0  0  0  0  0  0
  -27.9198  -25.3193   19.3622 N   0  0  0  0  0  0  0  0  0  0  0  0
  -26.6209  -27.0374   20.4087 N   0  0  0  0  0  0  0  0  0  0  0  0
  -26.5804  -32.3447   20.3869 N   0  0  0  0  0  0  0  0  0  0  0  0
  -25.8234  -34.3346   24.3699 N   0  0  0  0  0  0  0  0  0  0  0  0
  -27.6053  -19.5861   21.3562 N   0  0  0  0  0  0  0  0  0  0  0  0
  -23.3458   -9.2677   21.1652 N   0  0  0  0  0  0  0  0  0  0  0  0
  -29.2764  -10.3007   19.8113 N   0  0  0  0  0  0  0  0  0  0  0  0
  -31.0575  -12.5950   17.6593 N   0  3  0  0  0  0  0  0  0  0  0  0
  -26.4214  -34.7049   22.1872 O   0  0  0  0  0  0  0  0  0  0  0  0
  -23.8491  -11.2360   22.3033 O   0  0  0  0  0  0  0  0  0  0  0  0
  -26.6922   -9.0788   19.6166 O   0  0  0  0  0  0  0  0  0  0  0  0
  -29.9423  -12.4801   20.2399 O   0  0  0  0  0  0  0  0  0  0  0  0
  -25.2604  -19.4284   21.5615 O   0  0  0  0  0  0  0  0  0  0  0  0
  -28.9214  -27.1514   20.3388 O   0  0  0  0  0  0  0  0  0  0  0  0
  -24.2605  -31.7954   29.0757 O   0  0  0  0  0  0  0  0  0  0  0  0
  -25.3100  -16.9474   22.4807 O   0  0  0  0  0  0  0  0  0  1  0  0
  -20.8341  -35.8399   30.5941 F   0  0  0  0  0  0  0  0  0  0  0  0
  -21.8383  -31.2249   30.2798 F   0  0  0  0  0  0  0  0  0  0  0  0
  -29.4334  -21.2933   20.5310 S   0  0  0  0  0  0  0  0  0  0  0  0
  1  2  1  0  0  0  0
  1  5  2  0  0  0  0
  2  6  2  0  0  0  0
  3  8  2  0  0  0  0
  3 16  1  0  0  0  0
  4  9  1  0  0  0  0
  4 16  2  0  0  0  0
  5 18  1  0  0  0  0
  6 20  1  0  0  0  0
  7 10  2  0  0  0  0
  7 19  1  0  0  0  0
  8 23  1  0  0  0  0
  9 23  2  0  0  0  0
 10 24  1  0  0  0  0
 11 12  2  0  0  0  0
 11 25  1  0  0  0  0
 12 26  1  0  0  0  0
 13 21  1  0  0  0  0
 13 24  2  0  0  0  0
 14 22  1  0  0  0  0
 14 31  2  0  0  0  0
 15 26  2  0  0  0  0
 15 27  1  0  0  0  0
 16 28  1  0  0  0  0
 17 28  1  0  0  0  0
 17 30  2  0  0  0  0
 17 32  1  0  0  0  0
 18 20  2  0  0  0  0
 18 38  1  0  0  0  0
 19 21  2  0  0  0  0
 19 39  1  0  0  0  0
 20 50  1  0  0  0  0
 21 40  1  0  0  0  0
 22 29  2  0  0  0  0
 22 41  1  0  0  0  0
 23 80  1  0  0  0  0
 24 81  1  0  0  0  0
 25 27  2  0  0  0  0
 25 80  1  0  0  0  0
 26 82  1  0  0  0  0
 27 83  1  0  0  0  0
 28 63  2  0  0  0  0
 29 42  1  0  0  0  0
 29 84  1  0  0  0  0
 30 64  1  0  0  0  0
 30 68  1  0  0  0  0
 31 70  1  0  0  0  0
 31 84  1  0  0  0  0
 32 69  1  0  0  0  0
 32 74  2  0  0  0  0
 33 51  1  0  0  0  0
 33 71  1  0  0  0  0
 33 75  2  0  0  0  0
 34 59  1  0  0  0  0
 34 65  1  0  0  0  0
 34 76  2  0  0  0  0
 35 60  1  0  0  0  0
 35 72  1  0  0  0  0
 35 77  2  0  0  0  0
 36 61  1  0  0  0  0
 36 70  1  0  0  0  0
 36 78  2  0  0  0  0
 37 66  1  0  0  0  0
 37 67  1  0  0  0  0
 37 79  2  0  0  0  0
 38 43  1  0  0  0  0
 39 51  1  0  0  0  0
 40 65  1  0  0  0  0
 41 66  1  0  0  0  0
 42 47  1  0  0  0  0
 43 45  1  0  0  0  0
 44 46  1  0  0  0  0
 44 48  1  0  0  0  0
 45 50  1  0  0  0  0
 46 52  1  0  0  0  0
 47 66  1  0  0  0  0
 48 67  1  0  0  0  0
 49 52  1  0  0  0  0
 49 67  1  0  0  0  0
 50 71  1  0  0  0  0
 51 65  1  0  0  0  0
 52 64  1  0  0  0  0
 53 60  1  0  0  0  0
 54 61  1  0  0  0  0
 55 62  1  0  0  0  0
 56 62  1  0  0  0  0
 57 62  1  0  0  0  0
 58 73  1  0  0  0  0
 59 62  1  0  0  0  0
 59 72  1  0  0  0  0
 60 73  1  0  0  0  0
 61 81  1  0  0  0  0
 63 64  1  0  0  0  0
M  CHG  1  73   1
M  ISO  4  37 100  61 101  66 100  81 101
M  END
> <Batch ID>
0157

> <Smiles>
CNC(C)C(=O)NC(C(=O)N1Cc2cc([101O:1][101CH:1](C)C(=O)Nc3cc4c(s3)CC[100N:0]([100C:0](=O)N3CCCC(n5nc(-c6ccc(Oc7ccc(F)cc7F)cc6)c(C(N)=O)c5N)C3)C4)ccc2CC1C(=O)NC1CCCc2ccccc21)C(C)(C)C

> <Shape>
0.273

> <Color>
0.076

> <Negative vol penalty>
0.000

$$$$

  -OEChem-04052303413D

 86 94  0     1  0  0  0  0  0999 V2000
  -22.7585   -8.6842   21.8297 C   0  0  0  0  0  0  0  0  0  0  0  0
  -23.9936   -9.2574   22.1149 C   0  0  0  0  0  0  0  0  0  0  0  0
  -23.0577  -29.0575   21.5628 C   0  0  0  0  0  0  0  0  0  0  0  0
  -24.0240  -27.1796   22.7361 C   0  0  0  0  0  0  0  0  0  0  0  0
  -21.8622   -9.3442   20.9901 C   0  0  0  0  0  0  0  0  0  0  0  0
  -24.3336  -10.4906   21.5597 C   0  0  0  0  0  0  0  0  0  0  0  0
  -27.6921  -14.9001   24.1640 C   0  0  0  0  0  0  0  0  0  0  0  0
  -21.9551  -29.0236   22.4164 C   0  0  0  0  0  0  0  0  0  0  0  0
  -22.9214  -27.1457   23.5898 C   0  0  0  0  0  0  0  0  0  0  0  0
  -29.0357  -15.2516   24.0419 C   0  0  0  0  0  0  0  0  0  0  0  0
  -18.7169  -29.2022   24.0612 C   0  0  0  0  0  0  0  0  0  0  0  0
  -17.4493  -29.3171   23.4907 C   0  0  0  0  0  0  0  0  0  0  0  0
  -28.4439  -16.9211   22.4043 C   0  0  0  0  0  0  0  0  0  0  0  0
  -29.6574  -22.2198   16.5248 C   0  0  0  0  0  0  0  0  0  0  0  0
  -31.0134  -20.8170   17.9498 C   0  0  0  0  0  0  0  0  0  0  0  0
  -17.8546  -27.3229   22.1884 C   0  0  0  0  0  0  0  0  0  0  0  0
  -24.0922  -28.1355   21.7226 C   0  0  0  0  0  0  0  0  0  0  0  0
  -26.4239  -28.8955   21.0205 C   0  0  0  0  0  0  0  0  0  0  0  0
  -22.1874  -10.5906   20.4321 C   0  0  0  0  0  0  0  0  0  0  0  0
  -26.7139  -15.5501   23.3979 C   0  0  0  0  0  0  0  0  0  0  0  0
  -23.4413  -11.1673   20.7108 C   0  0  0  0  0  0  0  0  0  0  0  0
  -27.0883  -16.5778   22.5205 C   0  0  0  0  0  0  0  0  0  0  0  0
  -29.0104  -21.8482   18.8226 C   0  0  0  0  0  0  0  0  0  0  0  0
  -28.7741  -22.4396   17.5817 C   0  0  0  0  0  0  0  0  0  0  0  0
  -30.1301  -21.0369   19.0067 C   0  0  0  0  0  0  0  0  0  0  0  0
  -21.8870  -28.0677   23.4299 C   0  0  0  0  0  0  0  0  0  0  0  0
  -29.4121  -16.2602   23.1598 C   0  0  0  0  0  0  0  0  0  0  0  0
  -19.5534  -28.1476   23.6953 C   0  0  0  0  0  0  0  0  0  0  0  0
  -17.0181  -28.3775   22.5543 C   0  0  0  0  0  0  0  0  0  0  0  0
  -30.7770  -21.4085   16.7088 C   0  0  0  0  0  0  0  0  0  0  0  0
  -19.1223  -27.2080   22.7590 C   0  0  0  0  0  0  0  0  0  0  0  0
  -25.2311  -28.1697   20.8407 C   0  0  0  0  0  0  0  0  0  0  0  0
  -27.1801  -28.5925   19.9146 C   0  0  0  0  0  0  0  0  0  0  0  0
  -26.8135  -29.7656   22.0913 C   0  0  0  0  0  0  0  0  0  0  0  0
  -24.6247  -14.6355   21.1837 C   0  0  0  0  0  0  0  0  0  0  0  0
  -30.9182  -18.6059   21.7174 C   0  0  0  0  0  0  0  0  0  0  0  0
  -23.5915  -17.6988   21.4506 C   0  0  0  0  0  0  0  0  0  0  0  0
  -24.2895  -20.9274   22.3082 C   0  0  0  0  0  0  0  0  0  0  0  0
  -27.2802  -23.9185   16.1933 C   0  0  0  0  0  0  0  0  0  0  0  0
  -21.2050  -11.2439   19.4925 C   0  0  0  0  0  0  0  0  0  0  0  0
  -25.2657  -15.1776   23.5609 C   0  0  0  0  0  0  0  0  0  0  0  0
  -26.0744  -17.3203   21.6903 C   0  0  0  0  0  0  0  0  0  0  0  0
  -21.4907  -12.7228   19.2443 C   0  0  0  0  0  0  0  0  0  0  0  0
  -26.7499  -27.3281   15.3157 C   0  0  0  0  0  0  0  0  0  0  0  0
  -22.9725  -12.9388   18.9536 C   0  0  0  0  0  0  0  0  0  0  0  0
  -26.4147  -27.9981   16.6502 C   0  0  0  0  0  0  0  0  0  0  0  0
  -26.1671  -25.9188   15.2264 C   0  0  0  0  0  0  0  0  0  0  0  0
  -26.1757  -25.7028   17.6805 C   0  0  0  0  0  0  0  0  0  0  0  0
  -23.8364  -12.5151   20.1476 C   0  0  1  0  0  0  0  0  0  0  0  0
  -24.4124  -15.5540   22.3537 C   0  0  1  0  0  0  0  0  0  0  0  0
  -26.7964  -27.0999   17.8432 C   0  0  2  0  0  0  0  0  0  0  0  0
  -28.2593  -23.4607   20.5896 C   0  0  0  0  0  0  0  0  0  0  0  0
  -32.6098  -16.7390   21.5566 C   0  0  0  0  0  0  0  0  0  0  0  0
  -23.2570  -23.2135   22.3811 C   0  0  0  0  0  0  0  0  0  0  0  0
  -23.9214  -17.9415   18.4269 C   0  0  0  0  0  0  0  0  0  0  0  0
  -23.8076  -20.4293   18.6842 C   0  0  0  0  0  0  0  0  0  0  0  0
  -21.8578  -19.0187   19.3410 C   0  0  0  0  0  0  0  0  0  0  0  0
  -24.6247  -21.1123   25.2429 C   0  0  0  0  0  0  0  0  0  0  0  0
  -28.0643  -22.0870   19.9585 C   0  0  0  0  0  0  0  0  0  0  0  0
  -31.2399  -19.2941   20.4055 C   0  0  0  0  0  0  0  0  0  0  0  0
  -31.1496  -17.0991   21.7693 C   0  0  1  0  0  0  0  0  0  1  0  0
  -23.9372  -19.0060   20.7791 C   0  0  1  0  0  0  0  0  0  0  0  0
  -23.5280  -21.9321   23.1540 C   0  0  2  0  0  0  0  0  0  0  0  0
  -23.4006  -19.0837   19.3219 C   0  0  0  0  0  0  0  0  0  0  0  0
  -25.2253  -27.4593   19.7097 N   0  0  0  0  0  0  0  0  0  0  0  0
  -26.4236  -27.7373   19.1686 N   0  0  0  0  0  0  0  0  0  0  0  0
  -24.6718  -16.9153   21.8805 N   0  0  0  0  0  0  0  0  0  0  0  0
  -26.5741  -25.1245   16.3876 N   0  0  0  0  0  0  0  0  0  0  0  0
  -28.4116  -28.9770   19.5173 N   0  0  0  0  0  0  0  0  0  0  0  0
  -25.9165  -29.9661   23.1493 N   0  0  0  0  0  0  0  0  0  0  0  0
  -27.6427  -23.2663   17.3714 N   0  0  0  0  0  0  0  0  0  0  0  0
  -30.3825  -20.4395   20.2330 N   0  0  0  0  0  0  0  0  0  0  0  0
  -23.8000  -13.5267   21.1819 N   0  0  0  0  0  0  0  0  0  0  0  0
  -23.4389  -20.0598   21.6564 N   0  0  0  0  0  0  0  0  0  0  0  0
  -24.3076  -22.2766   24.3764 N   0  3  0  0  0  0  0  0  0  0  0  0
  -27.9176  -30.3610   22.1013 O   0  0  0  0  0  0  0  0  0  0  0  0
  -25.4729  -14.9130   20.3439 O   0  0  0  0  0  0  0  0  0  0  0  0
  -30.4857  -19.2222   22.6921 O   0  0  0  0  0  0  0  0  0  0  0  0
  -22.4066  -17.3878   21.5949 O   0  0  0  0  0  0  0  0  0  0  0  0
  -25.5160  -20.9160   22.2305 O   0  0  0  0  0  0  0  0  0  0  0  0
  -27.5675  -23.5092   15.0655 O   0  0  0  0  0  0  0  0  0  0  0  0
  -20.8113  -28.0345   24.2633 O   0  0  0  0  0  0  0  0  0  0  0  0
  -30.7230  -16.6048   23.0382 O   0  0  0  0  0  0  0  0  0  1  0  0
  -15.8002  -28.4871   22.0076 F   0  0  0  0  0  0  0  0  0  0  0  0
  -31.6249  -21.1975   15.6935 F   0  0  0  0  0  0  0  0  0  0  0  0
  -19.9210  -26.1920   22.4044 F   0  0  0  0  0  0  0  0  0  0  0  0
  1  2  1  0  0  0  0
  1  5  2  0  0  0  0
  2  6  2  0  0  0  0
  3  8  2  0  0  0  0
  3 17  1  0  0  0  0
  4  9  1  0  0  0  0
  4 17  2  0  0  0  0
  5 19  1  0  0  0  0
  6 21  1  0  0  0  0
  7 10  2  0  0  0  0
  7 20  1  0  0  0  0
  8 26  1  0  0  0  0
  9 26  2  0  0  0  0
 10 27  1  0  0  0  0
 11 12  2  0  0  0  0
 11 28  1  0  0  0  0
 12 29  1  0  0  0  0
 13 22  1  0  0  0  0
 13 27  2  0  0  0  0
 14 24  1  0  0  0  0
 14 30  2  0  0  0  0
 15 25  2  0  0  0  0
 15 30  1  0  0  0  0
 16 29  2  0  0  0  0
 16 31  1  0  0  0  0
 17 32  1  0  0  0  0
 18 32  1  0  0  0  0
 18 33  2  0  0  0  0
 18 34  1  0  0  0  0
 19 21  2  0  0  0  0
 19 40  1  0  0  0  0
 20 22  2  0  0  0  0
 20 41  1  0  0  0  0
 21 49  1  0  0  0  0
 22 42  1  0  0  0  0
 23 24  2  0  0  0  0
 23 25  1  0  0  0  0
 23 59  1  0  0  0  0
 24 71  1  0  0  0  0
 25 72  1  0  0  0  0
 26 82  1  0  0  0  0
 27 83  1  0  0  0  0
 28 31  2  0  0  0  0
 28 82  1  0  0  0  0
 29 84  1  0  0  0  0
 30 85  1  0  0  0  0
 31 86  1  0  0  0  0
 32 65  2  0  0  0  0
 33 66  1  0  0  0  0
 33 69  1  0  0  0  0
 34 70  1  0  0  0  0
 34 76  2  0  0  0  0
 35 50  1  0  0  0  0
 35 73  1  0  0  0  0
 35 77  2  0  0  0  0
 36 60  1  0  0  0  0
 36 61  1  0  0  0  0
 36 78  2  0  0  0  0
 37 62  1  0  0  0  0
 37 67  1  0  0  0  0
 37 79  2  0  0  0  0
 38 63  1  0  0  0  0
 38 74  1  0  0  0  0
 38 80  2  0  0  0  0
 39 68  1  0  0  0  0
 39 71  1  0  0  0  0
 39 81  2  0  0  0  0
 40 43  1  0  0  0  0
 41 50  1  0  0  0  0
 42 67  1  0  0  0  0
 43 45  1  0  0  0  0
 44 46  1  0  0  0  0
 44 47  1  0  0  0  0
 45 49  1  0  0  0  0
 46 51  1  0  0  0  0
 47 68  1  0  0  0  0
 48 51  1  0  0  0  0
 48 68  1  0  0  0  0
 49 73  1  0  0  0  0
 50 67  1  0  0  0  0
 51 66  1  0  0  0  0
 52 59  1  0  0  0  0
 53 61  1  0  0  0  0
 54 63  1  0  0  0  0
 55 64  1  0  0  0  0
 56 64  1  0  0  0  0
 57 64  1  0  0  0  0
 58 75  1  0  0  0  0
 60 72  1  0  0  0  0
 61 83  1  0  0  0  0
 62 64  1  0  0  0  0
 62 74  1  0  0  0  0
 63 75  1  0  0  0  0
 65 66  1  0  0  0  0
M  CHG  1  75   1
M  ISO  4  39 100  61 101  71 100  83 101
M  END
> <Batch ID>
0157

> <Smiles>
CCc1c(NCC(=O)[101CH:1](C)[101O:1]c2ccc3c(c2)CN(C(=O)C(NC(=O)C(C)NC)C(C)(C)C)C(C(=O)NC2CCCc4ccccc42)C3)cc(F)cc1[100NH:0][100C:0](=O)N1CCCC(n2nc(-c3ccc(Oc4ccc(F)cc4F)cc3)c(C(N)=O)c2N)C1

> <Shape>
0.221

> <Color>
0.054

> <Negative vol penalty>
0.000

$$$$

  -OEChem-04052303413D

 83 92  0     1  0  0  0  0  0999 V2000
  -28.5348  -38.0688   24.7228 C   0  0  0  0  0  0  0  0  0  0  0  0
  -28.8084  -37.0142   23.8577 C   0  0  0  0  0  0  0  0  0  0  0  0
  -23.2421   -9.5916   19.7907 C   0  0  0  0  0  0  0  0  0  0  0  0
  -24.3871   -9.3012   21.8983 C   0  0  0  0  0  0  0  0  0  0  0  0
  -27.6070  -37.9034   25.7502 C   0  0  0  0  0  0  0  0  0  0  0  0
  -28.1551  -35.7931   24.0203 C   0  0  0  0  0  0  0  0  0  0  0  0
  -25.6258  -30.2664   20.2288 C   0  0  0  0  0  0  0  0  0  0  0  0
  -22.1921   -8.7975   20.2518 C   0  0  0  0  0  0  0  0  0  0  0  0
  -23.3370   -8.5072   22.3594 C   0  0  0  0  0  0  0  0  0  0  0  0
  -25.6965  -28.8751   20.1748 C   0  0  0  0  0  0  0  0  0  0  0  0
  -22.2738   -5.3197   21.9853 C   0  0  0  0  0  0  0  0  0  0  0  0
  -22.5988   -4.1346   22.6453 C   0  0  0  0  0  0  0  0  0  0  0  0
  -24.0548  -28.7294   21.9363 C   0  0  0  0  0  0  0  0  0  0  0  0
  -25.6595  -19.6137   19.7557 C   0  0  0  0  0  0  0  0  0  0  0  0
  -21.4513   -4.9201   24.6210 C   0  0  0  0  0  0  0  0  0  0  0  0
  -24.1730  -18.2306   18.6246 C   0  0  0  0  0  0  0  0  0  0  0  0
  -24.3397   -9.8434   20.6140 C   0  0  0  0  0  0  0  0  0  0  0  0
  -26.2433  -10.4236   19.0180 C   0  0  0  0  0  0  0  0  0  0  0  0
  -26.9349  -36.6826   25.9196 C   0  0  0  0  0  0  0  0  0  0  0  0
  -24.7757  -30.9009   21.1460 C   0  0  0  0  0  0  0  0  0  0  0  0
  -27.2184  -35.6107   25.0518 C   0  0  0  0  0  0  0  0  0  0  0  0
  -23.9733  -30.1289   21.9981 C   0  0  0  0  0  0  0  0  0  0  0  0
  -25.2083  -18.2809   19.5318 C   0  0  0  0  0  0  0  0  0  0  0  0
  -22.2395   -8.2554   21.5361 C   0  0  0  0  0  0  0  0  0  0  0  0
  -24.9130  -28.1063   21.0306 C   0  0  0  0  0  0  0  0  0  0  0  0
  -21.5376   -6.3050   22.6432 C   0  0  0  0  0  0  0  0  0  0  0  0
  -22.1876   -3.9348   23.9631 C   0  0  0  0  0  0  0  0  0  0  0  0
  -21.1263   -6.1052   23.9610 C   0  0  0  0  0  0  0  0  0  0  0  0
  -25.4249  -10.6631   20.1381 C   0  0  0  0  0  0  0  0  0  0  0  0
  -24.9519  -20.5314   19.0108 C   0  0  0  0  0  0  0  0  0  0  0  0
  -27.1137  -11.4858   18.9953 C   0  0  0  0  0  0  0  0  0  0  0  0
  -26.2188   -9.3380   18.0817 C   0  0  0  0  0  0  0  0  0  0  0  0
  -25.1973  -32.8814   23.5962 C   0  0  0  0  0  0  0  0  0  0  0  0
  -21.9546  -32.9645   23.5832 C   0  0  0  0  0  0  0  0  0  0  0  0
  -19.0205  -31.4335   22.7502 C   0  0  0  0  0  0  0  0  0  0  0  0
  -26.7878  -17.0759   21.0809 C   0  0  0  0  0  0  0  0  0  0  0  0
  -25.9752  -36.5364   27.0738 C   0  0  0  0  0  0  0  0  0  0  0  0
  -24.6913  -32.4024   21.1733 C   0  0  0  0  0  0  0  0  0  0  0  0
  -23.0293  -30.7612   22.9869 C   0  0  0  0  0  0  0  0  0  0  0  0
  -25.0500  -35.3287   26.9474 C   0  0  0  0  0  0  0  0  0  0  0  0
  -29.2511  -14.6384   21.8984 C   0  0  0  0  0  0  0  0  0  0  0  0
  -25.8428  -34.0885   26.5472 C   0  0  0  0  0  0  0  0  0  0  0  0
  -26.5863  -22.4538   19.1694 C   0  0  0  0  0  0  0  0  0  0  0  0
  -28.6265  -13.3213   21.4323 C   0  0  0  0  0  0  0  0  0  0  0  0
  -26.7445  -23.9739   19.1364 C   0  0  0  0  0  0  0  0  0  0  0  0
  -28.2047  -15.5882   22.4788 C   0  0  0  0  0  0  0  0  0  0  0  0
  -26.4261  -14.5301   21.1424 C   0  0  0  0  0  0  0  0  0  0  0  0
  -24.2009  -22.7422   19.9654 C   0  0  0  0  0  0  0  0  0  0  0  0
  -26.5119  -34.2787   25.1806 C   0  0  1  0  0  0  0  0  0  0  0  0
  -25.1198  -22.0392   18.9615 C   0  0  2  0  0  0  0  0  0  0  0  0
  -24.1718  -32.9476   22.5001 C   0  0  1  0  0  0  0  0  0  0  0  0
  -27.4312  -13.5666   20.4905 C   0  0  2  0  0  0  0  0  0  0  0  0
  -25.8168  -24.6606   20.1382 C   0  0  1  0  0  0  0  0  0  0  0  0
  -16.5329  -31.7272   22.9019 C   0  0  0  0  0  0  0  0  0  0  0  0
  -22.0480  -32.2093   26.5380 C   0  0  0  0  0  0  0  0  0  0  0  0
  -19.6254  -31.5962   26.3863 C   0  0  0  0  0  0  0  0  0  0  0  0
  -20.3446  -33.9462   25.9586 C   0  0  0  0  0  0  0  0  0  0  0  0
  -18.7226  -31.4198   19.8057 C   0  0  0  0  0  0  0  0  0  0  0  0
  -25.8755  -26.1771   20.0269 C   0  0  0  0  0  0  0  0  0  1  0  0
  -20.8618  -32.1604   24.2453 C   0  0  1  0  0  0  0  0  0  0  0  0
  -17.7753  -31.9530   22.0545 C   0  0  2  0  0  0  0  0  0  0  0  0
  -20.7391  -32.4658   25.7649 C   0  0  0  0  0  0  0  0  0  0  0  0
  -25.7468  -11.7890   20.7806 N   0  0  0  0  0  0  0  0  0  0  0  0
  -26.7771  -12.2664   20.0619 N   0  0  0  0  0  0  0  0  0  0  0  0
  -22.9872  -32.2328   22.9798 N   0  0  0  0  0  0  0  0  0  0  0  0
  -27.1052  -15.7765   21.5299 N   0  0  0  0  0  0  0  0  0  0  0  0
  -28.1266  -11.8189   18.1674 N   0  0  0  0  0  0  0  0  0  0  0  0
  -26.9940   -8.2027   18.3547 N   0  0  0  0  0  0  0  0  0  0  0  0
  -25.7457  -17.1277   20.1557 N   0  0  0  0  0  0  0  0  0  0  0  0
  -25.5446  -34.1133   24.1169 N   0  0  0  0  0  0  0  0  0  0  0  0
  -19.6451  -32.4202   23.4834 N   0  0  0  0  0  0  0  0  0  0  0  0
  -24.4074  -24.2204   19.8688 N   0  3  0  0  0  0  0  0  0  0  0  0
  -17.5852  -31.2615   20.7481 N   0  3  0  0  0  0  0  0  0  0  0  0
  -25.5428   -9.3805   17.0259 O   0  0  0  0  0  0  0  0  0  0  0  0
  -25.6396  -31.7930   23.9449 O   0  0  0  0  0  0  0  0  0  0  0  0
  -21.8904  -34.1963   23.5946 O   0  0  0  0  0  0  0  0  0  0  0  0
  -19.3989  -30.2680   22.6559 O   0  0  0  0  0  0  0  0  0  0  0  0
  -27.4137  -18.0666   21.4664 O   0  0  0  0  0  0  0  0  0  0  0  0
  -21.2150   -7.4807   21.9864 O   0  0  0  0  0  0  0  0  0  0  0  0
  -24.9805  -26.7481   20.9804 O   0  0  0  0  0  0  0  0  0  1  0  0
  -22.4984   -2.7961   24.5962 F   0  0  0  0  0  0  0  0  0  0  0  0
  -20.4178   -7.0477   24.5978 F   0  0  0  0  0  0  0  0  0  0  0  0
  -23.7490  -19.7858   18.0468 S   0  0  0  0  0  0  0  0  0  0  0  0
  1  2  1  0  0  0  0
  1  5  2  0  0  0  0
  2  6  2  0  0  0  0
  3  8  2  0  0  0  0
  3 17  1  0  0  0  0
  4  9  1  0  0  0  0
  4 17  2  0  0  0  0
  5 19  1  0  0  0  0
  6 21  1  0  0  0  0
  7 10  2  0  0  0  0
  7 20  1  0  0  0  0
  8 24  1  0  0  0  0
  9 24  2  0  0  0  0
 10 25  1  0  0  0  0
 11 12  2  0  0  0  0
 11 26  1  0  0  0  0
 12 27  1  0  0  0  0
 13 22  1  0  0  0  0
 13 25  2  0  0  0  0
 14 23  1  0  0  0  0
 14 30  2  0  0  0  0
 15 27  2  0  0  0  0
 15 28  1  0  0  0  0
 16 23  2  0  0  0  0
 16 83  1  0  0  0  0
 17 29  1  0  0  0  0
 18 29  1  0  0  0  0
 18 31  2  0  0  0  0
 18 32  1  0  0  0  0
 19 21  2  0  0  0  0
 19 37  1  0  0  0  0
 20 22  2  0  0  0  0
 20 38  1  0  0  0  0
 21 49  1  0  0  0  0
 22 39  1  0  0  0  0
 23 69  1  0  0  0  0
 24 79  1  0  0  0  0
 25 80  1  0  0  0  0
 26 28  2  0  0  0  0
 26 79  1  0  0  0  0
 27 81  1  0  0  0  0
 28 82  1  0  0  0  0
 29 63  2  0  0  0  0
 30 50  1  0  0  0  0
 30 83  1  0  0  0  0
 31 64  1  0  0  0  0
 31 67  1  0  0  0  0
 32 68  1  0  0  0  0
 32 74  2  0  0  0  0
 33 51  1  0  0  0  0
 33 70  1  0  0  0  0
 33 75  2  0  0  0  0
 34 60  1  0  0  0  0
 34 65  1  0  0  0  0
 34 76  2  0  0  0  0
 35 61  1  0  0  0  0
 35 71  1  0  0  0  0
 35 77  2  0  0  0  0
 36 66  1  0  0  0  0
 36 69  1  0  0  0  0
 36 78  2  0  0  0  0
 37 40  1  0  0  0  0
 38 51  1  0  0  0  0
 39 65  1  0  0  0  0
 40 42  1  0  0  0  0
 41 44  1  0  0  0  0
 41 46  1  0  0  0  0
 42 49  1  0  0  0  0
 43 45  1  0  0  0  0
 43 50  1  0  0  0  0
 44 52  1  0  0  0  0
 45 53  1  0  0  0  0
 46 66  1  0  0  0  0
 47 52  1  0  0  0  0
 47 66  1  0  0  0  0
 48 50  1  0  0  0  0
 48 72  1  0  0  0  0
 49 70  1  0  0  0  0
 51 65  1  0  0  0  0
 52 64  1  0  0  0  0
 53 59  1  0  0  0  0
 53 72  1  0  0  0  0
 54 61  1  0  0  0  0
 55 62  1  0  0  0  0
 56 62  1  0  0  0  0
 57 62  1  0  0  0  0
 58 73  1  0  0  0  0
 59 80  1  0  0  0  0
 60 62  1  0  0  0  0
 60 71  1  0  0  0  0
 61 73  1  0  0  0  0
 63 64  1  0  0  0  0
M  CHG  2  72   1  73   1
M  ISO  4  36 100  59 101  69 100  80 101
M  END
> <Batch ID>
0157

> <Smiles>
CNC(C)C(=O)NC(C(=O)N1Cc2cc([101O:1][101CH2:1]C3CCC(c4cc([100NH:0][100C:0](=O)N5CCCC(n6nc(-c7ccc(Oc8ccc(F)cc8F)cc7)c(C(N)=O)c6N)C5)cs4)CN3)ccc2CC1C(=O)NC1CCCc2ccccc21)C(C)(C)C

> <Shape>
0.244

> <Color>
0.093

> <Negative vol penalty>
0.000

$$$$

  -OEChem-04052303413D

 85 94  0     1  0  0  0  0  0999 V2000
  -22.0220  -11.9120   19.1669 C   0  0  0  0  0  0  0  0  0  0  0  0
  -21.8387  -13.2200   19.6037 C   0  0  0  0  0  0  0  0  0  0  0  0
  -30.8661  -29.5455   18.2821 C   0  0  0  0  0  0  0  0  0  0  0  0
  -30.2468  -27.2624   18.7728 C   0  0  0  0  0  0  0  0  0  0  0  0
  -23.2456  -11.2754   19.3702 C   0  0  0  0  0  0  0  0  0  0  0  0
  -22.8787  -13.8919   20.2451 C   0  0  0  0  0  0  0  0  0  0  0  0
  -23.4621  -18.6311   18.5585 C   0  0  0  0  0  0  0  0  0  0  0  0
  -32.2130  -29.2097   18.4192 C   0  0  0  0  0  0  0  0  0  0  0  0
  -31.5937  -26.9265   18.9099 C   0  0  0  0  0  0  0  0  0  0  0  0
  -22.5639  -19.5889   19.0272 C   0  0  0  0  0  0  0  0  0  0  0  0
  -34.0154  -27.2452   21.2475 C   0  0  0  0  0  0  0  0  0  0  0  0
  -34.3792  -26.4585   22.3404 C   0  0  0  0  0  0  0  0  0  0  0  0
  -19.7920  -26.1688   22.0671 C   0  0  0  0  0  0  0  0  0  0  0  0
  -24.2112  -20.3461   20.6185 C   0  0  0  0  0  0  0  0  0  0  0  0
  -18.4431  -25.6049   24.0183 C   0  0  0  0  0  0  0  0  0  0  0  0
  -35.2163  -24.7605   20.8394 C   0  0  0  0  0  0  0  0  0  0  0  0
  -29.8830  -28.5719   18.4590 C   0  0  0  0  0  0  0  0  0  0  0  0
  -27.7195  -28.8747   17.1417 C   0  0  0  0  0  0  0  0  0  0  0  0
  -24.3043  -11.9431   20.0058 C   0  0  0  0  0  0  0  0  0  0  0  0
  -24.7399  -18.5162   19.1246 C   0  0  0  0  0  0  0  0  0  0  0  0
  -24.1172  -13.2631   20.4583 C   0  0  0  0  0  0  0  0  0  0  0  0
  -19.6198  -27.4904   22.4067 C   0  0  0  0  0  0  0  0  0  0  0  0
  -25.1246  -19.3878   20.1534 C   0  0  0  0  0  0  0  0  0  0  0  0
  -18.8891  -27.8718   23.5062 C   0  0  0  0  0  0  0  0  0  0  0  0
  -18.2860  -26.9564   24.3361 C   0  0  0  0  0  0  0  0  0  0  0  0
  -19.1916  -25.2136   22.8912 C   0  0  0  0  0  0  0  0  0  0  0  0
  -32.5768  -27.9002   18.7330 C   0  0  0  0  0  0  0  0  0  0  0  0
  -22.9374  -20.4446   20.0594 C   0  0  0  0  0  0  0  0  0  0  0  0
  -34.2520  -26.7895   19.9506 C   0  0  0  0  0  0  0  0  0  0  0  0
  -34.9796  -25.2162   22.1363 C   0  0  0  0  0  0  0  0  0  0  0  0
  -34.8525  -25.5472   19.7465 C   0  0  0  0  0  0  0  0  0  0  0  0
  -28.4915  -28.9183   18.3181 C   0  0  0  0  0  0  0  0  0  0  0  0
  -26.4725  -29.2962   17.5336 C   0  0  0  0  0  0  0  0  0  0  0  0
  -28.0960  -28.4876   15.8135 C   0  0  0  0  0  0  0  0  0  0  0  0
  -26.3035  -16.2330   20.6885 C   0  0  0  0  0  0  0  0  0  0  0  0
  -28.7825  -18.3122   20.4563 C   0  0  0  0  0  0  0  0  0  0  0  0
  -20.0310  -23.2702   21.5266 C   0  0  0  0  0  0  0  0  0  0  0  0
  -29.8334  -21.5371   20.0790 C   0  0  0  0  0  0  0  0  0  0  0  0
  -22.2889  -28.9047   21.1071 C   0  0  0  0  0  0  0  0  0  0  0  0
  -25.5932  -11.1975   20.2455 C   0  0  0  0  0  0  0  0  0  0  0  0
  -25.7066  -17.4956   18.5895 C   0  0  0  0  0  0  0  0  0  0  0  0
  -19.1202  -29.3363   23.2734 C   0  0  0  0  0  0  0  0  0  0  0  0
  -26.4920  -19.3188   20.7812 C   0  0  0  0  0  0  0  0  0  0  0  0
  -26.7667  -12.1076   20.5988 C   0  0  0  0  0  0  0  0  0  0  0  0
  -24.8980  -31.4274   21.8192 C   0  0  0  0  0  0  0  0  0  0  0  0
  -26.3523  -13.1273   21.6549 C   0  0  0  0  0  0  0  0  0  0  0  0
  -26.0238  -30.9471   20.9089 C   0  0  0  0  0  0  0  0  0  0  0  0
  -24.0624  -30.2686   22.3617 C   0  0  0  0  0  0  0  0  0  0  0  0
  -24.6537  -28.8940   20.3829 C   0  0  0  0  0  0  0  0  0  0  0  0
  -25.2295  -14.0337   21.1360 C   0  0  1  0  0  0  0  0  0  0  0  0
  -19.9431  -28.9042   22.0056 C   0  0  1  0  0  0  0  0  0  0  0  0
  -26.7999  -17.1272   19.5877 C   0  0  1  0  0  0  0  0  0  0  0  0
  -25.4698  -30.0525   19.7901 C   0  0  2  0  0  0  0  0  0  0  0  0
  -17.5026  -27.3880   25.5219 C   0  0  0  0  0  0  0  0  0  0  0  0
  -31.9184  -22.9291   19.9658 C   0  0  0  0  0  0  0  0  0  0  0  0
  -29.1046  -18.0714   23.4809 C   0  0  0  0  0  0  0  0  0  0  0  0
  -30.5135  -20.1402   23.4256 C   0  0  0  0  0  0  0  0  0  0  0  0
  -31.2534  -18.0964   22.2017 C   0  0  0  0  0  0  0  0  0  0  0  0
  -29.2090  -22.4578   17.3365 C   0  0  0  0  0  0  0  0  0  0  0  0
  -19.9314  -21.7497   21.5751 C   0  0  0  0  0  0  0  0  0  0  0  0
  -20.6729  -21.0656   20.4366 C   0  0  0  0  0  0  0  0  0  1  0  0
  -29.3117  -19.4438   21.3039 C   0  0  1  0  0  0  0  0  0  0  0  0
  -30.8792  -22.1558   19.1690 C   0  0  2  0  0  0  0  0  0  0  0  0
  -30.0193  -18.9382   22.5927 C   0  0  0  0  0  0  0  0  0  0  0  0
  -27.7934  -29.3349   19.3779 N   0  0  0  0  0  0  0  0  0  0  0  0
  -26.5696  -29.5569   18.8688 N   0  0  0  0  0  0  0  0  0  0  0  0
  -27.3992  -18.3000   20.2278 N   0  0  0  0  0  0  0  0  0  0  0  0
  -23.6013  -29.3782   21.2847 N   0  0  0  0  0  0  0  0  0  0  0  0
  -25.3132  -29.4657   16.8629 N   0  0  0  0  0  0  0  0  0  0  0  0
  -29.4177  -28.0808   15.5854 N   0  0  0  0  0  0  0  0  0  0  0  0
  -19.3351  -23.8383   22.5903 N   0  0  0  0  0  0  0  0  0  0  0  0
  -25.7642  -15.0407   20.2447 N   0  0  0  0  0  0  0  0  0  0  0  0
  -30.1622  -20.2449   20.4303 N   0  0  0  0  0  0  0  0  0  0  0  0
  -21.3587  -29.3237   22.0532 N   0  0  0  0  0  0  0  0  0  0  0  0
  -30.2368  -23.0907   18.2024 N   0  3  0  0  0  0  0  0  0  0  0  0
  -27.2886  -28.5176   14.8540 O   0  0  0  0  0  0  0  0  0  0  0  0
  -26.4038  -16.5972   21.8543 O   0  0  0  0  0  0  0  0  0  0  0  0
  -29.5685  -17.4741   20.0075 O   0  0  0  0  0  0  0  0  0  0  0  0
  -20.6526  -23.8559   20.6462 O   0  0  0  0  0  0  0  0  0  0  0  0
  -28.8275  -22.1411   20.4448 O   0  0  0  0  0  0  0  0  0  0  0  0
  -21.9642  -28.1564   20.1787 O   0  0  0  0  0  0  0  0  0  0  0  0
  -33.8910  -27.5721   18.8666 O   0  0  0  0  0  0  0  0  0  0  0  0
  -22.0624  -21.3799   20.5192 O   0  0  0  0  0  0  0  0  0  1  0  0
  -35.3304  -24.4615   23.1859 F   0  0  0  0  0  0  0  0  0  0  0  0
  -35.0834  -25.1046   18.5029 F   0  0  0  0  0  0  0  0  0  0  0  0
  1  2  1  0  0  0  0
  1  5  2  0  0  0  0
  2  6  2  0  0  0  0
  3  8  2  0  0  0  0
  3 17  1  0  0  0  0
  4  9  1  0  0  0  0
  4 17  2  0  0  0  0
  5 19  1  0  0  0  0
  6 21  1  0  0  0  0
  7 10  2  0  0  0  0
  7 20  1  0  0  0  0
  8 27  1  0  0  0  0
  9 27  2  0  0  0  0
 10 28  1  0  0  0  0
 11 12  2  0  0  0  0
 11 29  1  0  0  0  0
 12 30  1  0  0  0  0
 13 22  1  0  0  0  0
 13 26  2  0  0  0  0
 14 23  1  0  0  0  0
 14 28  2  0  0  0  0
 15 25  2  0  0  0  0
 15 26  1  0  0  0  0
 16 30  2  0  0  0  0
 16 31  1  0  0  0  0
 17 32  1  0  0  0  0
 18 32  1  0  0  0  0
 18 33  2  0  0  0  0
 18 34  1  0  0  0  0
 19 21  2  0  0  0  0
 19 40  1  0  0  0  0
 20 23  2  0  0  0  0
 20 41  1  0  0  0  0
 21 50  1  0  0  0  0
 22 24  2  0  0  0  0
 22 51  1  0  0  0  0
 23 43  1  0  0  0  0
 24 25  1  0  0  0  0
 24 42  1  0  0  0  0
 25 54  1  0  0  0  0
 26 71  1  0  0  0  0
 27 82  1  0  0  0  0
 28 83  1  0  0  0  0
 29 31  2  0  0  0  0
 29 82  1  0  0  0  0
 30 84  1  0  0  0  0
 31 85  1  0  0  0  0
 32 65  2  0  0  0  0
 33 66  1  0  0  0  0
 33 69  1  0  0  0  0
 34 70  1  0  0  0  0
 34 76  2  0  0  0  0
 35 52  1  0  0  0  0
 35 72  1  0  0  0  0
 35 77  2  0  0  0  0
 36 62  1  0  0  0  0
 36 67  1  0  0  0  0
 36 78  2  0  0  0  0
 37 60  1  0  0  0  0
 37 71  1  0  0  0  0
 37 79  2  0  0  0  0
 38 63  1  0  0  0  0
 38 73  1  0  0  0  0
 38 80  2  0  0  0  0
 39 68  1  0  0  0  0
 39 74  1  0  0  0  0
 39 81  2  0  0  0  0
 40 44  1  0  0  0  0
 41 52  1  0  0  0  0
 42 51  1  0  0  0  0
 43 67  1  0  0  0  0
 44 46  1  0  0  0  0
 45 47  1  0  0  0  0
 45 48  1  0  0  0  0
 46 50  1  0  0  0  0
 47 53  1  0  0  0  0
 48 68  1  0  0  0  0
 49 53  1  0  0  0  0
 49 68  1  0  0  0  0
 50 72  1  0  0  0  0
 51 74  1  0  0  0  0
 52 67  1  0  0  0  0
 53 66  1  0  0  0  0
 55 63  1  0  0  0  0
 56 64  1  0  0  0  0
 57 64  1  0  0  0  0
 58 64  1  0  0  0  0
 59 75  1  0  0  0  0
 60 61  1  0  0  0  0
 61 83  1  0  0  0  0
 62 64  1  0  0  0  0
 62 73  1  0  0  0  0
 63 75  1  0  0  0  0
 65 66  1  0  0  0  0
M  CHG  1  75   1
M  ISO  4  39 100  61 101  74 100  83 101
M  END
> <Batch ID>
0157

> <Smiles>
CNC(C)C(=O)NC(C(=O)N1Cc2cc([101O:1][101CH2:1]CC(=O)Nc3cc(C)c4c(c3)C([100NH:0][100C:0](=O)N3CCCC(n5nc(-c6ccc(Oc7ccc(F)cc7F)cc6)c(C(N)=O)c5N)C3)C4)ccc2CC1C(=O)NC1CCCc2ccccc21)C(C)(C)C

> <Shape>
0.206

> <Color>
0.097

> <Negative vol penalty>
0.000

$$$$

  -OEChem-04052303413D

 82 90  0     1  0  0  0  0  0999 V2000
  -18.7543  -27.0561   26.0032 C   0  0  0  0  0  0  0  0  0  0  0  0
  -19.9874  -26.5667   25.5846 C   0  0  0  0  0  0  0  0  0  0  0  0
  -27.1802  -20.0208   17.2766 C   0  0  0  0  0  0  0  0  0  0  0  0
  -24.5067   -9.2460   21.1266 C   0  0  0  0  0  0  0  0  0  0  0  0
  -22.5339  -10.5476   20.6255 C   0  0  0  0  0  0  0  0  0  0  0  0
  -17.9992  -27.8606   25.1509 C   0  0  0  0  0  0  0  0  0  0  0  0
  -20.4657  -26.8807   24.3129 C   0  0  0  0  0  0  0  0  0  0  0  0
  -26.3005  -27.8051   22.6986 C   0  0  0  0  0  0  0  0  0  0  0  0
  -28.2504  -20.7922   17.7296 C   0  0  0  0  0  0  0  0  0  0  0  0
  -26.4897  -19.1961   18.1647 C   0  0  0  0  0  0  0  0  0  0  0  0
  -23.7049   -8.1413   21.4139 C   0  0  0  0  0  0  0  0  0  0  0  0
  -21.7321   -9.4429   20.9127 C   0  0  0  0  0  0  0  0  0  0  0  0
  -27.2498  -26.9791   22.0983 C   0  0  0  0  0  0  0  0  0  0  0  0
  -21.7893   -7.0538   23.9774 C   0  0  0  0  0  0  0  0  0  0  0  0
  -22.0833   -6.3221   25.1280 C   0  0  0  0  0  0  0  0  0  0  0  0
  -26.6958  -27.9169   19.9459 C   0  0  0  0  0  0  0  0  0  0  0  0
  -27.9396  -19.9141   19.9589 C   0  0  0  0  0  0  0  0  0  0  0  0
  -22.4520   -4.3510   23.7803 C   0  0  0  0  0  0  0  0  0  0  0  0
  -23.9212  -10.4491   20.7325 C   0  0  0  0  0  0  0  0  0  0  0  0
  -25.2974  -11.9421   19.1882 C   0  0  0  0  0  0  0  0  0  0  0  0
  -18.4727  -28.1926   23.8718 C   0  0  0  0  0  0  0  0  0  0  0  0
  -25.5328  -28.6869   21.9243 C   0  0  0  0  0  0  0  0  0  0  0  0
  -19.7155  -27.6894   23.4422 C   0  0  0  0  0  0  0  0  0  0  0  0
  -25.7392  -28.7548   20.5391 C   0  0  0  0  0  0  0  0  0  0  0  0
  -28.6301  -20.7389   19.0708 C   0  0  0  0  0  0  0  0  0  0  0  0
  -26.8694  -19.1427   19.5058 C   0  0  0  0  0  0  0  0  0  0  0  0
  -22.3177   -8.2398   21.3069 C   0  0  0  0  0  0  0  0  0  0  0  0
  -27.4455  -27.0328   20.7214 C   0  0  0  0  0  0  0  0  0  0  0  0
  -21.8265   -6.4340   22.7283 C   0  0  0  0  0  0  0  0  0  0  0  0
  -22.4147   -4.9708   25.0294 C   0  0  0  0  0  0  0  0  0  0  0  0
  -22.1578   -5.0827   22.6298 C   0  0  0  0  0  0  0  0  0  0  0  0
  -24.7488  -11.5908   20.4362 C   0  0  0  0  0  0  0  0  0  0  0  0
  -25.9969  -13.0983   19.4338 C   0  0  0  0  0  0  0  0  0  0  0  0
  -25.1847  -11.2823   17.9203 C   0  0  0  0  0  0  0  0  0  0  0  0
  -22.4303  -29.0214   21.3189 C   0  0  0  0  0  0  0  0  0  0  0  0
  -23.4182  -31.6967   19.7732 C   0  0  0  0  0  0  0  0  0  0  0  0
  -29.0684  -23.9458   19.7290 C   0  0  0  0  0  0  0  0  0  0  0  0
  -25.9407  -33.3636   18.1904 C   0  0  0  0  0  0  0  0  0  0  0  0
  -26.4146  -18.1354   21.7696 C   0  0  0  0  0  0  0  0  0  0  0  0
  -17.5995  -29.0267   22.9683 C   0  0  0  0  0  0  0  0  0  0  0  0
  -24.5316  -29.5904   22.5905 C   0  0  0  0  0  0  0  0  0  0  0  0
  -24.9551  -29.6988   19.6658 C   0  0  0  0  0  0  0  0  0  0  0  0
  -18.3471  -29.6208   21.7774 C   0  0  0  0  0  0  0  0  0  0  0  0
  -27.2390  -15.3315   23.8032 C   0  0  0  0  0  0  0  0  0  0  0  0
  -19.2170  -28.5602   21.1101 C   0  0  0  0  0  0  0  0  0  0  0  0
  -26.7098  -14.1372   23.0059 C   0  0  0  0  0  0  0  0  0  0  0  0
  -26.3226  -16.5475   23.6788 C   0  0  0  0  0  0  0  0  0  0  0  0
  -25.4781  -15.7546   21.5045 C   0  0  0  0  0  0  0  0  0  0  0  0
  -20.2795  -28.0283   22.0794 C   0  0  1  0  0  0  0  0  0  0  0  0
  -23.4450  -30.0823   21.6393 C   0  0  1  0  0  0  0  0  0  0  0  0
  -26.4013  -14.5260   21.5467 C   0  0  2  0  0  0  0  0  0  0  0  0
  -26.4359  -35.5160   16.9991 C   0  0  0  0  0  0  0  0  0  0  0  0
  -21.9235  -30.6778   17.3160 C   0  0  0  0  0  0  0  0  0  0  0  0
  -23.2105  -32.3238   15.9368 C   0  0  0  0  0  0  0  0  0  0  0  0
  -21.6860  -33.1312   17.7385 C   0  0  0  0  0  0  0  0  0  0  0  0
  -28.0109  -34.1161   20.1670 C   0  0  0  0  0  0  0  0  0  0  0  0
  -29.7820  -21.5695   19.5579 C   0  0  0  0  0  0  0  0  0  0  0  0
  -28.6246  -24.9677   20.7538 C   0  0  0  0  0  0  0  0  0  1  0  0
  -23.8658  -32.0153   18.3671 C   0  0  1  0  0  0  0  0  0  0  0  0
  -26.4532  -34.7854   18.3327 C   0  0  2  0  0  0  0  0  0  0  0  0
  -22.6850  -32.0177   17.3555 C   0  0  0  0  0  0  0  0  0  0  0  0
  -25.0721  -12.4539   21.4029 N   0  0  0  0  0  0  0  0  0  0  0  0
  -25.8315  -13.3589   20.7623 N   0  0  0  0  0  0  0  0  0  0  0  0
  -23.9835  -30.5574   20.3632 N   0  0  0  0  0  0  0  0  0  0  0  0
  -26.0783  -16.8593   22.2689 N   0  0  0  0  0  0  0  0  0  0  0  0
  -26.7312  -13.9073   18.6409 N   0  0  0  0  0  0  0  0  0  0  0  0
  -24.4281  -10.1050   17.8446 N   0  0  0  0  0  0  0  0  0  0  0  0
  -26.1673  -18.3053   20.4078 N   0  0  0  0  0  0  0  0  0  0  0  0
  -21.3692  -28.9726   22.2027 N   0  0  0  0  0  0  0  0  0  0  0  0
  -29.3388  -22.7184   20.3133 N   0  0  0  0  0  0  0  0  0  0  0  0
  -24.5882  -33.2804   18.4454 N   0  0  0  0  0  0  0  0  0  0  0  0
  -27.8512  -34.7828   18.8490 N   0  3  0  0  0  0  0  0  0  0  0  0
  -25.7521  -11.7147   16.8885 O   0  0  0  0  0  0  0  0  0  0  0  0
  -22.5970  -28.3015   20.3414 O   0  0  0  0  0  0  0  0  0  0  0  0
  -22.6026  -32.4357   20.3302 O   0  0  0  0  0  0  0  0  0  0  0  0
  -29.1681  -24.2046   18.5327 O   0  0  0  0  0  0  0  0  0  0  0  0
  -26.6667  -32.4217   17.8801 O   0  0  0  0  0  0  0  0  0  0  0  0
  -26.9125  -19.0038   22.4907 O   0  0  0  0  0  0  0  0  0  0  0  0
  -21.5350   -7.1620   21.5869 O   0  0  0  0  0  0  0  0  0  0  0  0
  -28.3710  -26.2272   20.1328 O   0  0  0  0  0  0  0  0  0  1  0  0
  -22.6986   -4.2687   26.1343 F   0  0  0  0  0  0  0  0  0  0  0  0
  -22.1964   -4.4822   21.4324 F   0  0  0  0  0  0  0  0  0  0  0  0
  1  2  1  0  0  0  0
  1  6  2  0  0  0  0
  2  7  2  0  0  0  0
  3  9  2  0  0  0  0
  3 10  1  0  0  0  0
  4 11  2  0  0  0  0
  4 19  1  0  0  0  0
  5 12  1  0  0  0  0
  5 19  2  0  0  0  0
  6 21  1  0  0  0  0
  7 23  1  0  0  0  0
  8 13  2  0  0  0  0
  8 22  1  0  0  0  0
  9 25  1  0  0  0  0
 10 26  2  0  0  0  0
 11 27  1  0  0  0  0
 12 27  2  0  0  0  0
 13 28  1  0  0  0  0
 14 15  2  0  0  0  0
 14 29  1  0  0  0  0
 15 30  1  0  0  0  0
 16 24  1  0  0  0  0
 16 28  2  0  0  0  0
 17 25  2  0  0  0  0
 17 26  1  0  0  0  0
 18 30  2  0  0  0  0
 18 31  1  0  0  0  0
 19 32  1  0  0  0  0
 20 32  1  0  0  0  0
 20 33  2  0  0  0  0
 20 34  1  0  0  0  0
 21 23  2  0  0  0  0
 21 40  1  0  0  0  0
 22 24  2  0  0  0  0
 22 41  1  0  0  0  0
 23 49  1  0  0  0  0
 24 42  1  0  0  0  0
 25 57  1  0  0  0  0
 26 68  1  0  0  0  0
 27 79  1  0  0  0  0
 28 80  1  0  0  0  0
 29 31  2  0  0  0  0
 29 79  1  0  0  0  0
 30 81  1  0  0  0  0
 31 82  1  0  0  0  0
 32 62  2  0  0  0  0
 33 63  1  0  0  0  0
 33 66  1  0  0  0  0
 34 67  1  0  0  0  0
 34 73  2  0  0  0  0
 35 50  1  0  0  0  0
 35 69  1  0  0  0  0
 35 74  2  0  0  0  0
 36 59  1  0  0  0  0
 36 64  1  0  0  0  0
 36 75  2  0  0  0  0
 37 58  1  0  0  0  0
 37 70  1  0  0  0  0
 37 76  2  0  0  0  0
 38 60  1  0  0  0  0
 38 71  1  0  0  0  0
 38 77  2  0  0  0  0
 39 65  1  0  0  0  0
 39 68  1  0  0  0  0
 39 78  2  0  0  0  0
 40 43  1  0  0  0  0
 41 50  1  0  0  0  0
 42 64  1  0  0  0  0
 43 45  1  0  0  0  0
 44 46  1  0  0  0  0
 44 47  1  0  0  0  0
 45 49  1  0  0  0  0
 46 51  1  0  0  0  0
 47 65  1  0  0  0  0
 48 51  1  0  0  0  0
 48 65  1  0  0  0  0
 49 69  1  0  0  0  0
 50 64  1  0  0  0  0
 51 63  1  0  0  0  0
 52 60  1  0  0  0  0
 53 61  1  0  0  0  0
 54 61  1  0  0  0  0
 55 61  1  0  0  0  0
 56 72  1  0  0  0  0
 57 70  1  0  0  0  0
 58 80  1  0  0  0  0
 59 61  1  0  0  0  0
 59 71  1  0  0  0  0
 60 72  1  0  0  0  0
 62 63  1  0  0  0  0
M  CHG  1  72   1
M  ISO  4  39 100  58 101  68 100  80 101
M  END
> <Batch ID>
0157

> <Smiles>
CNC(C)C(=O)NC(C(=O)N1Cc2cc([101O:1][101CH2:1]C(=O)NCc3cccc([100NH:0][100C:0](=O)N4CCCC(n5nc(-c6ccc(Oc7ccc(F)cc7F)cc6)c(C(N)=O)c5N)C4)c3)ccc2CC1C(=O)NC1CCCc2ccccc21)C(C)(C)C

> <Shape>
0.255

> <Color>
0.132

> <Negative vol penalty>
0.000

$$$$

  -OEChem-04052303413D

 82 91  0     1  0  0  0  0  0999 V2000
  -29.5647  -36.1827   18.7172 C   0  0  0  0  0  0  0  0  0  0  0  0
  -29.3709  -34.8578   18.3400 C   0  0  0  0  0  0  0  0  0  0  0  0
  -24.7773   -8.6765   21.4780 C   0  0  0  0  0  0  0  0  0  0  0  0
  -23.1426  -10.3850   20.9821 C   0  0  0  0  0  0  0  0  0  0  0  0
  -29.3981  -36.5586   20.0495 C   0  0  0  0  0  0  0  0  0  0  0  0
  -29.0114  -33.9075   19.2952 C   0  0  0  0  0  0  0  0  0  0  0  0
  -25.3344  -29.0781   18.4814 C   0  0  0  0  0  0  0  0  0  0  0  0
  -23.8868   -8.0844   22.3735 C   0  0  0  0  0  0  0  0  0  0  0  0
  -22.2520   -9.7928   21.8776 C   0  0  0  0  0  0  0  0  0  0  0  0
  -25.5961  -27.7298   18.2415 C   0  0  0  0  0  0  0  0  0  0  0  0
  -21.9105   -5.9169   24.5209 C   0  0  0  0  0  0  0  0  0  0  0  0
  -21.7681   -4.5302   24.4726 C   0  0  0  0  0  0  0  0  0  0  0  0
  -25.3724  -27.2731   20.5996 C   0  0  0  0  0  0  0  0  0  0  0  0
  -27.6198  -19.0935   19.4653 C   0  0  0  0  0  0  0  0  0  0  0  0
  -21.0295   -4.6861   22.1775 C   0  0  0  0  0  0  0  0  0  0  0  0
  -25.4863  -18.2243   19.1570 C   0  0  0  0  0  0  0  0  0  0  0  0
  -24.4052   -9.8268   20.7823 C   0  0  0  0  0  0  0  0  0  0  0  0
  -25.4561  -10.1661   18.4827 C   0  0  0  0  0  0  0  0  0  0  0  0
  -29.0269  -35.6143   21.0197 C   0  0  0  0  0  0  0  0  0  0  0  0
  -25.1002  -29.5366   19.7857 C   0  0  0  0  0  0  0  0  0  0  0  0
  -28.8410  -34.2708   20.6419 C   0  0  0  0  0  0  0  0  0  0  0  0
  -25.1054  -28.6272   20.8530 C   0  0  0  0  0  0  0  0  0  0  0  0
  -26.7951  -17.9316   19.4714 C   0  0  0  0  0  0  0  0  0  0  0  0
  -22.6242   -8.6425   22.5734 C   0  0  0  0  0  0  0  0  0  0  0  0
  -25.6180  -26.8276   19.3011 C   0  0  0  0  0  0  0  0  0  0  0  0
  -21.6123   -6.6883   23.3976 C   0  0  0  0  0  0  0  0  0  0  0  0
  -21.3276   -3.9148   23.3009 C   0  0  0  0  0  0  0  0  0  0  0  0
  -21.1719   -6.0729   22.2259 C   0  0  0  0  0  0  0  0  0  0  0  0
  -25.3248  -10.4393   19.8574 C   0  0  0  0  0  0  0  0  0  0  0  0
  -26.4589  -11.0043   18.0603 C   0  0  0  0  0  0  0  0  0  0  0  0
  -26.9098  -20.2301   19.1462 C   0  0  0  0  0  0  0  0  0  0  0  0
  -27.5407  -23.8234   18.8974 C   0  0  0  0  0  0  0  0  0  0  0  0
  -27.1739  -25.0918   19.1091 C   0  0  0  0  0  0  0  0  0  1  0  0
  -24.7359   -9.2379   17.6609 C   0  0  0  0  0  0  0  0  0  0  0  0
  -26.5450  -31.5901   21.7350 C   0  0  0  0  0  0  0  0  0  0  0  0
  -23.9704  -31.0101   23.6211 C   0  0  0  0  0  0  0  0  0  0  0  0
  -21.4291  -28.9032   24.4870 C   0  0  0  0  0  0  0  0  0  0  0  0
  -28.5416  -16.2245   20.0892 C   0  0  0  0  0  0  0  0  0  0  0  0
  -28.9048  -36.0587   22.4558 C   0  0  0  0  0  0  0  0  0  0  0  0
  -24.7930  -30.9895   20.0244 C   0  0  0  0  0  0  0  0  0  0  0  0
  -24.8401  -29.0653   22.2694 C   0  0  0  0  0  0  0  0  0  0  0  0
  -28.9483  -23.3180   18.9299 C   0  0  0  0  0  0  0  0  0  0  0  0
  -26.5957  -22.6748   18.7098 C   0  0  0  0  0  0  0  0  0  0  0  0
  -28.1574  -35.0637   23.3398 C   0  0  0  0  0  0  0  0  0  0  0  0
  -30.3998  -13.2209   19.6384 C   0  0  0  0  0  0  0  0  0  0  0  0
  -28.6662  -33.6464   23.0966 C   0  0  0  0  0  0  0  0  0  0  0  0
  -29.3210  -12.1427   19.5122 C   0  0  0  0  0  0  0  0  0  0  0  0
  -28.7814  -21.8787   19.4091 C   0  0  0  0  0  0  0  0  0  0  0  0
  -30.0091  -14.2986   20.6483 C   0  0  0  0  0  0  0  0  0  0  0  0
  -27.6153  -13.8341   20.2976 C   0  0  0  0  0  0  0  0  0  0  0  0
  -28.4263  -33.2158   21.6445 C   0  0  1  0  0  0  0  0  0  0  0  0
  -25.0769  -31.4329   21.4563 C   0  0  1  0  0  0  0  0  0  0  0  0
  -27.9349  -12.7611   19.2440 C   0  0  2  0  0  0  0  0  0  0  0  0
  -19.5105  -28.6853   26.0899 C   0  0  0  0  0  0  0  0  0  0  0  0
  -25.9239  -30.3246   25.8625 C   0  0  0  0  0  0  0  0  0  0  0  0
  -24.0319  -29.2286   27.0819 C   0  0  0  0  0  0  0  0  0  0  0  0
  -23.9425  -31.6707   26.5810 C   0  0  0  0  0  0  0  0  0  0  0  0
  -19.4523  -28.7945   22.2871 C   0  0  0  0  0  0  0  0  0  0  0  0
  -23.6401  -30.0079   24.7007 C   0  0  1  0  0  0  0  0  0  0  0  0
  -19.9478  -29.1498   24.7093 C   0  0  2  0  0  0  0  0  0  0  0  0
  -24.3916  -30.2997   26.0302 C   0  0  0  0  0  0  0  0  0  0  0  0
  -26.1762  -11.3774   20.2803 N   0  0  0  0  0  0  0  0  0  0  0  0
  -26.8522  -11.7011   19.1648 N   0  0  0  0  0  0  0  0  0  0  0  0
  -27.4119  -21.5134   19.0545 N   0  0  3  0  0  0  0  0  0  0  0  0
  -24.5509  -30.4973   22.4524 N   0  0  0  0  0  0  0  0  0  0  0  0
  -28.6871  -14.8416   20.3284 N   0  0  0  0  0  0  0  0  0  0  0  0
  -27.0338  -11.2057   16.8556 N   0  0  0  0  0  0  0  0  0  0  0  0
  -23.7375   -8.4541   18.2554 N   0  0  0  0  0  0  0  0  0  0  0  0
  -27.2449  -16.6198   19.7625 N   0  0  0  0  0  0  0  0  0  0  0  0
  -27.0404  -32.8479   21.4488 N   0  0  0  0  0  0  0  0  0  0  0  0
  -22.1864  -30.0051   24.8242 N   0  0  0  0  0  0  0  0  0  0  0  0
  -19.1424  -28.4187   23.6906 N   0  3  0  0  0  0  0  0  0  0  0  0
  -24.9819   -9.0956   16.4391 O   0  0  0  0  0  0  0  0  0  0  0  0
  -27.1808  -30.6409   22.1783 O   0  0  0  0  0  0  0  0  0  0  0  0
  -23.7159  -32.2030   23.8050 O   0  0  0  0  0  0  0  0  0  0  0  0
  -21.8705  -27.8384   24.0608 O   0  0  0  0  0  0  0  0  0  0  0  0
  -29.5023  -16.9967   20.1417 O   0  0  0  0  0  0  0  0  0  0  0  0
  -21.7549   -8.0648   23.4470 O   0  0  0  0  0  0  0  0  0  0  0  0
  -25.8738  -25.5112   19.0698 O   0  0  0  0  0  0  0  0  0  1  0  0
  -21.1924   -2.5830   23.2541 F   0  0  0  0  0  0  0  0  0  0  0  0
  -20.8850   -6.8085   21.1432 F   0  0  0  0  0  0  0  0  0  0  0  0
  -25.2559  -19.8943   18.8560 S   0  0  0  0  0  0  0  0  0  0  0  0
  1  2  1  0  0  0  0
  1  5  2  0  0  0  0
  2  6  2  0  0  0  0
  3  8  2  0  0  0  0
  3 17  1  0  0  0  0
  4  9  1  0  0  0  0
  4 17  2  0  0  0  0
  5 19  1  0  0  0  0
  6 21  1  0  0  0  0
  7 10  2  0  0  0  0
  7 20  1  0  0  0  0
  8 24  1  0  0  0  0
  9 24  2  0  0  0  0
 10 25  1  0  0  0  0
 11 12  2  0  0  0  0
 11 26  1  0  0  0  0
 12 27  1  0  0  0  0
 13 22  1  0  0  0  0
 13 25  2  0  0  0  0
 14 23  1  0  0  0  0
 14 31  2  0  0  0  0
 15 27  2  0  0  0  0
 15 28  1  0  0  0  0
 16 23  2  0  0  0  0
 16 82  1  0  0  0  0
 17 29  1  0  0  0  0
 18 29  1  0  0  0  0
 18 30  2  0  0  0  0
 18 34  1  0  0  0  0
 19 21  2  0  0  0  0
 19 39  1  0  0  0  0
 20 22  2  0  0  0  0
 20 40  1  0  0  0  0
 21 51  1  0  0  0  0
 22 41  1  0  0  0  0
 23 69  1  0  0  0  0
 24 78  1  0  0  0  0
 25 79  1  0  0  0  0
 26 28  2  0  0  0  0
 26 78  1  0  0  0  0
 27 80  1  0  0  0  0
 28 81  1  0  0  0  0
 29 62  2  0  0  0  0
 30 63  1  0  0  0  0
 30 67  1  0  0  0  0
 31 64  1  0  0  0  0
 31 82  1  0  0  0  0
 32 33  2  0  0  0  0
 32 42  1  0  0  0  0
 32 43  1  0  0  0  0
 33 79  1  0  0  0  0
 34 68  1  0  0  0  0
 34 73  2  0  0  0  0
 35 52  1  0  0  0  0
 35 70  1  0  0  0  0
 35 74  2  0  0  0  0
 36 59  1  0  0  0  0
 36 65  1  0  0  0  0
 36 75  2  0  0  0  0
 37 60  1  0  0  0  0
 37 71  1  0  0  0  0
 37 76  2  0  0  0  0
 38 66  1  0  0  0  0
 38 69  1  0  0  0  0
 38 77  2  0  0  0  0
 39 44  1  0  0  0  0
 40 52  1  0  0  0  0
 41 65  1  0  0  0  0
 42 48  1  0  0  0  0
 43 64  1  0  0  0  0
 44 46  1  0  0  0  0
 45 47  1  0  0  0  0
 45 49  1  0  0  0  0
 46 51  1  0  0  0  0
 47 53  1  0  0  0  0
 48 64  1  0  0  0  0
 49 66  1  0  0  0  0
 50 53  1  0  0  0  0
 50 66  1  0  0  0  0
 51 70  1  0  0  0  0
 52 65  1  0  0  0  0
 53 63  1  0  0  0  0
 54 60  1  0  0  0  0
 55 61  1  0  0  0  0
 56 61  1  0  0  0  0
 57 61  1  0  0  0  0
 58 72  1  0  0  0  0
 59 61  1  0  0  0  0
 59 71  1  0  0  0  0
 60 72  1  0  0  0  0
 62 63  1  0  0  0  0
M  CHG  1  72   1
M  ISO  4  33 101  38 100  69 100  79 101
M  END
> <Batch ID>
0157

> <Smiles>
CNC(C)C(=O)NC(C(=O)N1Cc2cc([101O:1][101CH:1]=C3CCN(c4cc([100NH:0][100C:0](=O)N5CCCC(n6nc(-c7ccc(Oc8ccc(F)cc8F)cc7)c(C(N)=O)c6N)C5)cs4)C3)ccc2CC1C(=O)NC1CCCc2ccccc21)C(C)(C)C

> <Shape>
0.272

> <Color>
0.112

> <Negative vol penalty>
0.000

$$$$

  -OEChem-04052303413D

 83 91  0     1  0  0  0  0  0999 V2000
  -16.6754  -30.6657   23.2840 C   0  0  0  0  0  0  0  0  0  0  0  0
  -17.8121  -31.2274   23.8564 C   0  0  0  0  0  0  0  0  0  0  0  0
  -27.3198  -17.4538   20.2062 C   0  0  0  0  0  0  0  0  0  0  0  0
  -29.6053  -16.9340   19.6202 C   0  0  0  0  0  0  0  0  0  0  0  0
  -16.7453  -29.4067   22.6890 C   0  0  0  0  0  0  0  0  0  0  0  0
  -19.0194  -30.5299   23.8351 C   0  0  0  0  0  0  0  0  0  0  0  0
  -26.0886  -31.6169   23.4330 C   0  0  0  0  0  0  0  0  0  0  0  0
  -26.9373  -16.1565   19.8651 C   0  0  0  0  0  0  0  0  0  0  0  0
  -29.2228  -15.6367   19.2791 C   0  0  0  0  0  0  0  0  0  0  0  0
  -27.2691  -31.2828   24.0953 C   0  0  0  0  0  0  0  0  0  0  0  0
  -25.4221  -12.8734   19.4908 C   0  0  0  0  0  0  0  0  0  0  0  0
  -24.5680  -12.1986   20.3630 C   0  0  0  0  0  0  0  0  0  0  0  0
  -33.1651  -28.2821   21.8572 C   0  0  0  0  0  0  0  0  0  0  0  0
  -33.8407  -27.6711   20.7616 C   0  0  0  0  0  0  0  0  0  0  0  0
  -27.2896  -29.1492   22.9697 C   0  0  0  0  0  0  0  0  0  0  0  0
  -26.2085  -12.4000   22.1253 C   0  0  0  0  0  0  0  0  0  0  0  0
  -28.6538  -17.8425   20.0837 C   0  0  0  0  0  0  0  0  0  0  0  0
  -29.4770  -19.6395   21.6965 C   0  0  0  0  0  0  0  0  0  0  0  0
  -17.9563  -28.6976   22.6519 C   0  0  0  0  0  0  0  0  0  0  0  0
  -25.4929  -30.7137   22.5408 C   0  0  0  0  0  0  0  0  0  0  0  0
  -19.1053  -29.2597   23.2403 C   0  0  0  0  0  0  0  0  0  0  0  0
  -26.1030  -29.4753   22.2954 C   0  0  0  0  0  0  0  0  0  0  0  0
  -27.8888  -15.2479   19.4016 C   0  0  0  0  0  0  0  0  0  0  0  0
  -27.8682  -30.0477   23.8659 C   0  0  0  0  0  0  0  0  0  0  0  0
  -26.6694  -13.3114   19.9358 C   0  0  0  0  0  0  0  0  0  0  0  0
  -24.9611  -11.9619   21.6803 C   0  0  0  0  0  0  0  0  0  0  0  0
  -27.0626  -13.0748   21.2530 C   0  0  0  0  0  0  0  0  0  0  0  0
  -29.0495  -19.1826   20.4354 C   0  0  0  0  0  0  0  0  0  0  0  0
  -29.7336  -20.9757   21.5087 C   0  0  0  0  0  0  0  0  0  0  0  0
  -31.9918  -28.8898   21.4677 C   0  0  0  0  0  0  0  0  0  0  0  0
  -33.1578  -27.8349   19.5764 C   0  0  0  0  0  0  0  0  0  0  0  0
  -29.6286  -18.9203   22.9276 C   0  0  0  0  0  0  0  0  0  0  0  0
  -22.7074  -29.1872   22.4202 C   0  0  0  0  0  0  0  0  0  0  0  0
  -23.7871  -28.2559   19.5065 C   0  0  0  0  0  0  0  0  0  0  0  0
  -26.4499  -27.6932   17.4476 C   0  0  0  0  0  0  0  0  0  0  0  0
  -32.1305  -24.9352   18.4920 C   0  0  0  0  0  0  0  0  0  0  0  0
  -17.9720  -27.3194   22.0395 C   0  0  0  0  0  0  0  0  0  0  0  0
  -24.2339  -31.0999   21.8141 C   0  0  0  0  0  0  0  0  0  0  0  0
  -25.5145  -28.4785   21.3319 C   0  0  0  0  0  0  0  0  0  0  0  0
  -19.3759  -26.8075   21.7276 C   0  0  0  0  0  0  0  0  0  0  0  0
  -28.6599  -24.0364   17.6490 C   0  0  0  0  0  0  0  0  0  0  0  0
  -20.3070  -27.0475   22.9118 C   0  0  0  0  0  0  0  0  0  0  0  0
  -28.5137  -22.6983   18.3683 C   0  0  0  0  0  0  0  0  0  0  0  0
  -30.0797  -24.2516   17.1283 C   0  0  0  0  0  0  0  0  0  0  0  0
  -30.9820  -22.7768   18.9033 C   0  0  0  0  0  0  0  0  0  0  0  0
  -20.4389  -28.5448   23.2152 C   0  0  1  0  0  0  0  0  0  0  0  0
  -23.4385  -29.8971   21.3161 C   0  0  1  0  0  0  0  0  0  0  0  0
  -29.5720  -22.5567   19.4735 C   0  0  2  0  0  0  0  0  0  0  0  0
  -27.0196  -26.8986   15.1364 C   0  0  0  0  0  0  0  0  0  0  0  0
  -30.5369  -31.1727   25.6313 C   0  0  0  0  0  0  0  0  0  0  0  0
  -23.2507  -25.3779   20.3665 C   0  0  0  0  0  0  0  0  0  0  0  0
  -24.6872  -24.6150   18.4631 C   0  0  0  0  0  0  0  0  0  0  0  0
  -22.5985  -25.9012   18.0095 C   0  0  0  0  0  0  0  0  0  0  0  0
  -27.7091  -30.2774   16.7439 C   0  0  0  0  0  0  0  0  0  0  0  0
  -31.2971  -29.7383   23.7090 C   0  0  0  0  0  0  0  0  0  0  0  0
  -24.6007  -27.0943   18.9891 C   0  0  1  0  0  0  0  0  0  0  0  0
  -26.7173  -28.1053   16.0112 C   0  0  2  0  0  0  0  0  0  0  0  0
  -30.1508  -30.5613   24.2923 C   0  0  1  0  0  0  0  0  0  1  0  0
  -23.7946  -25.7649   18.9767 C   0  0  0  0  0  0  0  0  0  0  0  0
  -29.0340  -20.1500   19.5146 N   0  0  0  0  0  0  0  0  0  0  0  0
  -29.4548  -21.2281   20.1977 N   0  0  0  0  0  0  0  0  0  0  0  0
  -24.2793  -28.8999   20.6505 N   0  0  0  0  0  0  0  0  0  0  0  0
  -31.0774  -24.0547   18.1879 N   0  0  0  0  0  0  0  0  0  0  0  0
  -30.1683  -21.9475   22.3388 N   0  0  0  0  0  0  0  0  0  0  0  0
  -29.3213  -17.5530   22.9448 N   0  0  0  0  0  0  0  0  0  0  0  0
  -31.1051  -29.5691   22.2865 N   0  0  0  0  0  0  0  0  0  0  0  0
  -21.3340  -29.1753   22.2688 N   0  0  0  0  0  0  0  0  0  0  0  0
  -25.1049  -27.4996   17.6814 N   0  0  0  0  0  0  0  0  0  0  0  0
  -32.2607  -26.1282   17.6997 N   0  0  0  0  0  0  0  0  0  0  0  0
  -27.8800  -29.0354   15.9471 N   0  3  0  0  0  0  0  0  0  0  0  0
  -30.0092  -19.4774   23.9851 O   0  0  0  0  0  0  0  0  0  0  0  0
  -23.3425  -28.6859   23.3406 O   0  0  0  0  0  0  0  0  0  0  0  0
  -22.7566  -28.5843   18.9133 O   0  0  0  0  0  0  0  0  0  0  0  0
  -27.3451  -27.5532   18.2780 O   0  0  0  0  0  0  0  0  0  0  0  0
  -32.9345  -24.7081   19.3970 O   0  0  0  0  0  0  0  0  0  0  0  0
  -33.2094  -28.4411   17.0348 O   0  0  0  0  0  0  0  0  0  0  0  0
  -34.7770  -26.6799   17.9202 O   0  0  0  0  0  0  0  0  0  0  0  0
  -27.5159  -13.9819   19.0688 O   0  0  0  0  0  0  0  0  0  0  0  0
  -29.0201  -29.7188   24.5115 O   0  0  0  0  0  0  0  0  0  1  0  0
  -24.1402  -11.3153   22.5182 F   0  0  0  0  0  0  0  0  0  0  0  0
  -28.2592  -13.4943   21.6866 F   0  0  0  0  0  0  0  0  0  0  0  0
  -31.7086  -28.7224   19.7872 S   0  0  0  0  0  0  0  0  0  0  0  0
  -33.4761  -27.3206   17.9159 S   0  0  0  0  0  0  0  0  0  0  0  0
  1  2  1  0  0  0  0
  1  5  2  0  0  0  0
  2  6  2  0  0  0  0
  3  8  2  0  0  0  0
  3 17  1  0  0  0  0
  4  9  1  0  0  0  0
  4 17  2  0  0  0  0
  5 19  1  0  0  0  0
  6 21  1  0  0  0  0
  7 10  2  0  0  0  0
  7 20  1  0  0  0  0
  8 23  1  0  0  0  0
  9 23  2  0  0  0  0
 10 24  1  0  0  0  0
 11 12  2  0  0  0  0
 11 25  1  0  0  0  0
 12 26  1  0  0  0  0
 13 14  1  0  0  0  0
 13 30  2  0  0  0  0
 14 31  2  0  0  0  0
 15 22  1  0  0  0  0
 15 24  2  0  0  0  0
 16 26  2  0  0  0  0
 16 27  1  0  0  0  0
 17 28  1  0  0  0  0
 18 28  1  0  0  0  0
 18 29  2  0  0  0  0
 18 32  1  0  0  0  0
 19 21  2  0  0  0  0
 19 37  1  0  0  0  0
 20 22  2  0  0  0  0
 20 38  1  0  0  0  0
 21 46  1  0  0  0  0
 22 39  1  0  0  0  0
 23 78  1  0  0  0  0
 24 79  1  0  0  0  0
 25 27  2  0  0  0  0
 25 78  1  0  0  0  0
 26 80  1  0  0  0  0
 27 81  1  0  0  0  0
 28 60  2  0  0  0  0
 29 61  1  0  0  0  0
 29 64  1  0  0  0  0
 30 66  1  0  0  0  0
 30 82  1  0  0  0  0
 31 82  1  0  0  0  0
 31 83  1  0  0  0  0
 32 65  1  0  0  0  0
 32 71  2  0  0  0  0
 33 47  1  0  0  0  0
 33 67  1  0  0  0  0
 33 72  2  0  0  0  0
 34 56  1  0  0  0  0
 34 62  1  0  0  0  0
 34 73  2  0  0  0  0
 35 57  1  0  0  0  0
 35 68  1  0  0  0  0
 35 74  2  0  0  0  0
 36 63  1  0  0  0  0
 36 69  1  0  0  0  0
 36 75  2  0  0  0  0
 37 40  1  0  0  0  0
 38 47  1  0  0  0  0
 39 62  1  0  0  0  0
 40 42  1  0  0  0  0
 41 43  1  0  0  0  0
 41 44  1  0  0  0  0
 42 46  1  0  0  0  0
 43 48  1  0  0  0  0
 44 63  1  0  0  0  0
 45 48  1  0  0  0  0
 45 63  1  0  0  0  0
 46 67  1  0  0  0  0
 47 62  1  0  0  0  0
 48 61  1  0  0  0  0
 49 57  1  0  0  0  0
 50 58  1  0  0  0  0
 51 59  1  0  0  0  0
 52 59  1  0  0  0  0
 53 59  1  0  0  0  0
 54 70  1  0  0  0  0
 55 58  1  0  0  0  0
 55 66  1  0  0  0  0
 56 59  1  0  0  0  0
 56 68  1  0  0  0  0
 57 70  1  0  0  0  0
 58 79  1  0  0  0  0
 60 61  1  0  0  0  0
 69 83  1  0  0  0  0
 76 83  2  0  0  0  0
 77 83  2  0  0  0  0
M  CHG  1  70   1
M  ISO  4  36 100  58 101  69 100  79 101
M  END
> <Batch ID>
0157

> <Smiles>
CNC(C)C(=O)NC(C(=O)N1Cc2cc([101O:1][101CH:1](C)CNc3ccc(S(=O)(=O)[100NH:0][100C:0](=O)N4CCCC(n5nc(-c6ccc(Oc7ccc(F)cc7F)cc6)c(C(N)=O)c5N)C4)s3)ccc2CC1C(=O)NC1CCCc2ccccc21)C(C)(C)C

> <Shape>
0.289

> <Color>
0.107

> <Negative vol penalty>
0.000

$$$$

  -OEChem-04052303413D

 85 93  0     1  0  0  0  0  0999 V2000
  -29.2783  -32.7152   26.4645 C   0  0  0  0  0  0  0  0  0  0  0  0
  -29.0528  -32.0796   25.2477 C   0  0  0  0  0  0  0  0  0  0  0  0
  -26.3431  -14.0609   22.2886 C   0  0  0  0  0  0  0  0  0  0  0  0
  -25.8708  -13.4813   19.9912 C   0  0  0  0  0  0  0  0  0  0  0  0
  -28.7685  -32.1674   27.6408 C   0  0  0  0  0  0  0  0  0  0  0  0
  -28.3181  -30.8951   25.2068 C   0  0  0  0  0  0  0  0  0  0  0  0
  -24.9115  -30.8504   21.4601 C   0  0  0  0  0  0  0  0  0  0  0  0
  -25.2626  -13.2841   22.7067 C   0  0  0  0  0  0  0  0  0  0  0  0
  -24.7903  -12.7045   20.4093 C   0  0  0  0  0  0  0  0  0  0  0  0
  -25.3833  -30.5938   20.1735 C   0  0  0  0  0  0  0  0  0  0  0  0
  -24.2976   -9.6425   21.7517 C   0  0  0  0  0  0  0  0  0  0  0  0
  -24.1521   -8.3775   21.1824 C   0  0  0  0  0  0  0  0  0  0  0  0
  -29.1100  -25.7459   19.6305 C   0  0  0  0  0  0  0  0  0  0  0  0
  -24.6513  -28.3035   20.3684 C   0  0  0  0  0  0  0  0  0  0  0  0
  -21.9827   -9.0113   20.3286 C   0  0  0  0  0  0  0  0  0  0  0  0
  -26.6472  -14.1595   20.9309 C   0  0  0  0  0  0  0  0  0  0  0  0
  -29.6917  -25.0518   20.7305 C   0  0  0  0  0  0  0  0  0  0  0  0
  -29.0963  -14.5438   20.3296 C   0  0  0  0  0  0  0  0  0  0  0  0
  -28.0190  -30.9808   27.6131 C   0  0  0  0  0  0  0  0  0  0  0  0
  -24.3148  -29.8310   22.2159 C   0  0  0  0  0  0  0  0  0  0  0  0
  -27.7989  -30.3302   26.3840 C   0  0  0  0  0  0  0  0  0  0  0  0
  -24.1704  -28.5504   21.6634 C   0  0  0  0  0  0  0  0  0  0  0  0
  -24.4862  -12.6059   21.7671 C   0  0  0  0  0  0  0  0  0  0  0  0
  -25.2559  -29.3194   19.6286 C   0  0  0  0  0  0  0  0  0  0  0  0
  -23.2857  -10.5920   21.6095 C   0  0  0  0  0  0  0  0  0  0  0  0
  -22.9947   -8.0619   20.4708 C   0  0  0  0  0  0  0  0  0  0  0  0
  -22.1282  -10.2763   20.8979 C   0  0  0  0  0  0  0  0  0  0  0  0
  -27.7628  -14.9622   20.4983 C   0  0  0  0  0  0  0  0  0  0  0  0
  -30.5197  -25.8631   21.4747 C   0  0  0  0  0  0  0  0  0  0  0  0
  -29.7591  -15.6706   19.9082 C   0  0  0  0  0  0  0  0  0  0  0  0
  -29.5153  -27.0614   19.5761 C   0  0  0  0  0  0  0  0  0  0  0  0
  -29.4536  -23.6879   21.0317 C   0  0  0  0  0  0  0  0  0  0  0  0
  -28.6622  -22.8174   20.3254 C   0  0  0  0  0  0  0  0  0  0  0  0
  -29.6835  -13.2520   20.5353 C   0  0  0  0  0  0  0  0  0  0  0  0
  -31.2852  -25.5609   22.6436 C   0  0  0  0  0  0  0  0  0  0  0  0
  -28.5219  -21.4142   20.7639 C   0  0  0  0  0  0  0  0  0  0  0  0
  -24.9869  -28.3943   24.9705 C   0  0  0  0  0  0  0  0  0  0  0  0
  -22.1208  -26.9589   24.4731 C   0  0  0  0  0  0  0  0  0  0  0  0
  -19.7172  -25.9786   22.2576 C   0  0  0  0  0  0  0  0  0  0  0  0
  -27.5284  -30.4014   28.9164 C   0  0  0  0  0  0  0  0  0  0  0  0
  -23.7868  -30.1309   23.5920 C   0  0  0  0  0  0  0  0  0  0  0  0
  -23.5191  -27.4266   22.4258 C   0  0  0  0  0  0  0  0  0  0  0  0
  -26.4420  -29.3433   28.7419 C   0  0  0  0  0  0  0  0  0  0  0  0
  -29.0863  -19.7584   17.5434 C   0  0  0  0  0  0  0  0  0  0  0  0
  -26.8319  -28.3529   27.6493 C   0  0  0  0  0  0  0  0  0  0  0  0
  -28.8822  -18.2949   17.9260 C   0  0  0  0  0  0  0  0  0  0  0  0
  -28.1749  -20.6902   18.3407 C   0  0  0  0  0  0  0  0  0  0  0  0
  -28.0885  -19.0547   20.2004 C   0  0  0  0  0  0  0  0  0  0  0  0
  -26.9858  -29.0569   26.2958 C   0  0  1  0  0  0  0  0  0  0  0  0
  -23.6599  -28.8878   24.4673 C   0  0  1  0  0  0  0  0  0  0  0  0
  -29.0289  -18.1035   19.4438 C   0  0  1  0  0  0  0  0  0  0  0  0
  -32.5734  -26.3196   22.8745 C   0  0  0  0  0  0  0  0  0  0  0  0
  -17.5079  -24.7940   22.1443 C   0  0  0  0  0  0  0  0  0  0  0  0
  -23.5407  -24.2819   24.8301 C   0  0  0  0  0  0  0  0  0  0  0  0
  -21.5551  -23.1688   23.7875 C   0  0  0  0  0  0  0  0  0  0  0  0
  -21.2974  -24.4272   25.9259 C   0  0  0  0  0  0  0  0  0  0  0  0
  -18.3603  -28.3693   21.1610 C   0  0  0  0  0  0  0  0  0  0  0  0
  -28.2296  -27.7228   17.5425 C   0  0  0  0  0  0  0  0  0  0  0  0
  -26.8339  -29.8313   17.9246 C   0  0  0  0  0  0  0  0  0  1  0  0
  -21.6615  -25.7025   23.7735 C   0  0  1  0  0  0  0  0  0  0  0  0
  -18.2076  -26.1380   22.2732 C   0  0  2  0  0  0  0  0  0  0  0  0
  -27.6522  -29.0020   16.9386 C   0  0  2  0  0  0  0  0  0  0  0  0
  -22.0278  -24.4156   24.5654 C   0  0  0  0  0  0  0  0  0  0  0  0
  -27.5871  -16.2540   20.2080 N   0  0  0  0  0  0  0  0  0  0  0  0
  -28.8189  -16.6571   19.8527 N   0  0  0  0  0  0  0  0  0  0  0  0
  -28.2898  -20.4479   19.7867 N   0  0  0  0  0  0  0  0  0  0  0  0
  -23.0245  -27.7680   23.7698 N   0  0  0  0  0  0  0  0  0  0  0  0
  -31.0485  -15.9039   19.5836 N   0  0  0  0  0  0  0  0  0  0  0  0
  -28.8592  -12.2049   20.9696 N   0  0  0  0  0  0  0  0  0  0  0  0
  -29.1344  -28.0024   18.6336 N   0  0  0  0  0  0  0  0  0  0  0  0
  -25.6876  -29.3242   25.7147 N   0  0  0  0  0  0  0  0  0  0  0  0
  -20.2324  -25.8690   23.5319 N   0  0  0  0  0  0  0  0  0  0  0  0
  -26.7792  -28.6423   15.7816 N   0  3  0  0  0  0  0  0  0  0  0  0
  -17.7669  -27.0074   21.1459 N   0  3  0  0  0  0  0  0  0  0  0  0
  -30.9061  -13.0367   20.3554 O   0  0  0  0  0  0  0  0  0  0  0  0
  -30.9935  -24.7120   23.5095 O   0  0  0  0  0  0  0  0  0  0  0  0
  -28.6140  -21.1838   21.9710 O   0  0  0  0  0  0  0  0  0  0  0  0
  -25.3478  -27.2538   24.7046 O   0  0  0  0  0  0  0  0  0  0  0  0
  -21.6881  -27.2167   25.5991 O   0  0  0  0  0  0  0  0  0  0  0  0
  -20.3733  -25.9502   21.2187 O   0  0  0  0  0  0  0  0  0  0  0  0
  -23.4320  -11.8477   22.1747 O   0  0  0  0  0  0  0  0  0  0  0  0
  -25.7162  -29.0660   18.3733 O   0  0  0  0  0  0  0  0  0  1  0  0
  -22.8558   -6.8476   19.9229 F   0  0  0  0  0  0  0  0  0  0  0  0
  -21.1531  -11.1847   20.7570 F   0  0  0  0  0  0  0  0  0  0  0  0
  -30.5931  -27.4547   20.8473 S   0  0  0  0  0  0  0  0  0  0  0  0
  1  2  1  0  0  0  0
  1  5  2  0  0  0  0
  2  6  2  0  0  0  0
  3  8  2  0  0  0  0
  3 16  1  0  0  0  0
  4  9  1  0  0  0  0
  4 16  2  0  0  0  0
  5 19  1  0  0  0  0
  6 21  1  0  0  0  0
  7 10  2  0  0  0  0
  7 20  1  0  0  0  0
  8 23  1  0  0  0  0
  9 23  2  0  0  0  0
 10 24  1  0  0  0  0
 11 12  2  0  0  0  0
 11 25  1  0  0  0  0
 12 26  1  0  0  0  0
 13 17  1  0  0  0  0
 13 31  2  0  0  0  0
 14 22  1  0  0  0  0
 14 24  2  0  0  0  0
 15 26  2  0  0  0  0
 15 27  1  0  0  0  0
 16 28  1  0  0  0  0
 17 29  2  0  0  0  0
 17 32  1  0  0  0  0
 18 28  1  0  0  0  0
 18 30  2  0  0  0  0
 18 34  1  0  0  0  0
 19 21  2  0  0  0  0
 19 40  1  0  0  0  0
 20 22  2  0  0  0  0
 20 41  1  0  0  0  0
 21 49  1  0  0  0  0
 22 42  1  0  0  0  0
 23 81  1  0  0  0  0
 24 82  1  0  0  0  0
 25 27  2  0  0  0  0
 25 81  1  0  0  0  0
 26 83  1  0  0  0  0
 27 84  1  0  0  0  0
 28 64  2  0  0  0  0
 29 35  1  0  0  0  0
 29 85  1  0  0  0  0
 30 65  1  0  0  0  0
 30 68  1  0  0  0  0
 31 70  1  0  0  0  0
 31 85  1  0  0  0  0
 32 33  2  0  0  0  0
 33 36  1  0  0  0  0
 34 69  1  0  0  0  0
 34 75  2  0  0  0  0
 35 52  1  0  0  0  0
 35 76  2  0  0  0  0
 36 66  1  0  0  0  0
 36 77  2  0  0  0  0
 37 50  1  0  0  0  0
 37 71  1  0  0  0  0
 37 78  2  0  0  0  0
 38 60  1  0  0  0  0
 38 67  1  0  0  0  0
 38 79  2  0  0  0  0
 39 61  1  0  0  0  0
 39 72  1  0  0  0  0
 39 80  2  0  0  0  0
 40 43  1  0  0  0  0
 41 50  1  0  0  0  0
 42 67  1  0  0  0  0
 43 45  1  0  0  0  0
 44 46  1  0  0  0  0
 44 47  1  0  0  0  0
 45 49  1  0  0  0  0
 46 51  1  0  0  0  0
 47 66  1  0  0  0  0
 48 51  1  0  0  0  0
 48 66  1  0  0  0  0
 49 71  1  0  0  0  0
 50 67  1  0  0  0  0
 51 65  1  0  0  0  0
 53 61  1  0  0  0  0
 54 63  1  0  0  0  0
 55 63  1  0  0  0  0
 56 63  1  0  0  0  0
 57 74  1  0  0  0  0
 58 62  1  0  0  0  0
 58 70  1  0  0  0  0
 59 62  1  0  0  0  0
 59 82  1  0  0  0  0
 60 63  1  0  0  0  0
 60 72  1  0  0  0  0
 61 74  1  0  0  0  0
 62 73  1  0  0  0  0
 64 65  1  0  0  0  0
M  CHG  2  73   1  74   1
M  ISO  4  33 100  36 100  59 101  82 101
M  END
> <Batch ID>
0157

> <Smiles>
CNC(C)C(=O)NC(C(=O)N1Cc2cc([101O:1][101CH2:1]C(N)CNc3cc(C=[100CH:0][100C:0](=O)N4CCCC(n5nc(-c6ccc(Oc7ccc(F)cc7F)cc6)c(C(N)=O)c5N)C4)c(C(C)=O)s3)ccc2CC1C(=O)NC1CCCc2ccccc21)C(C)(C)C

> <Shape>
0.280

> <Color>
0.040

> <Negative vol penalty>
0.000

$$$$

  -OEChem-04052303413D

 84 93  0     1  0  0  0  0  0999 V2000
  -24.0966  -17.6410   19.5039 C   0  0  0  0  0  0  0  0  0  0  0  0
  -24.7760  -18.8373   19.2970 C   0  0  0  0  0  0  0  0  0  0  0  0
  -26.4678  -12.8468   21.4991 C   0  0  0  0  0  0  0  0  0  0  0  0
  -26.1173  -13.6046   19.2319 C   0  0  0  0  0  0  0  0  0  0  0  0
  -22.7161  -17.6496   19.6996 C   0  0  0  0  0  0  0  0  0  0  0  0
  -24.0752  -20.0427   19.2847 C   0  0  0  0  0  0  0  0  0  0  0  0
  -26.3936  -23.6652   21.9581 C   0  0  0  0  0  0  0  0  0  0  0  0
  -25.2141  -12.2355   21.4886 C   0  0  0  0  0  0  0  0  0  0  0  0
  -24.8636  -12.9931   19.2214 C   0  0  0  0  0  0  0  0  0  0  0  0
  -27.4817  -24.3000   21.3605 C   0  0  0  0  0  0  0  0  0  0  0  0
  -22.2570  -10.1683   21.9329 C   0  0  0  0  0  0  0  0  0  0  0  0
  -22.1618   -8.8752   22.4472 C   0  0  0  0  0  0  0  0  0  0  0  0
  -26.0638  -26.1596   20.7683 C   0  0  0  0  0  0  0  0  0  0  0  0
  -23.7420   -8.1005   20.7920 C   0  0  0  0  0  0  0  0  0  0  0  0
  -26.9193  -13.5314   20.3708 C   0  0  0  0  0  0  0  0  0  0  0  0
  -29.4425  -13.5917   19.9999 C   0  0  0  0  0  0  0  0  0  0  0  0
  -21.9994  -18.8566   19.6993 C   0  0  0  0  0  0  0  0  0  0  0  0
  -25.1280  -24.2690   21.9556 C   0  0  0  0  0  0  0  0  0  0  0  0
  -22.6837  -20.0673   19.4792 C   0  0  0  0  0  0  0  0  0  0  0  0
  -24.9619  -25.5316   21.3687 C   0  0  0  0  0  0  0  0  0  0  0  0
  -24.4120  -12.3086   20.3498 C   0  0  0  0  0  0  0  0  0  0  0  0
  -27.3162  -25.5460   20.7630 C   0  0  0  0  0  0  0  0  0  0  0  0
  -23.0947  -10.4275   20.8481 C   0  0  0  0  0  0  0  0  0  0  0  0
  -22.9043   -7.8413   21.8768 C   0  0  0  0  0  0  0  0  0  0  0  0
  -23.8372   -9.3936   20.2776 C   0  0  0  0  0  0  0  0  0  0  0  0
  -28.2140  -14.1637   20.3812 C   0  0  0  0  0  0  0  0  0  0  0  0
  -29.2772  -20.9280   16.5595 C   0  0  0  0  0  0  0  0  0  0  0  0
  -29.6732  -21.2250   17.8468 C   0  0  0  0  0  0  0  0  0  0  0  0
  -30.3621  -14.5937   20.1917 C   0  0  0  0  0  0  0  0  0  0  0  0
  -30.1876  -23.1328   16.8951 C   0  0  0  0  0  0  0  0  0  0  0  0
  -29.7270  -12.2725   19.5155 C   0  0  0  0  0  0  0  0  0  0  0  0
  -22.2838  -23.5118   20.7554 C   0  0  0  0  0  0  0  0  0  0  0  0
  -30.0757  -26.0241   18.4566 C   0  0  0  0  0  0  0  0  0  0  0  0
  -21.3272  -26.1464   22.3881 C   0  0  0  0  0  0  0  0  0  0  0  0
  -22.1558  -29.1458   23.7897 C   0  0  0  0  0  0  0  0  0  0  0  0
  -29.9502  -20.5544   20.2593 C   0  0  0  0  0  0  0  0  0  0  0  0
  -20.5014  -18.8114   19.8681 C   0  0  0  0  0  0  0  0  0  0  0  0
  -23.9703  -23.5833   22.6279 C   0  0  0  0  0  0  0  0  0  0  0  0
  -23.6283  -26.2314   21.3571 C   0  0  0  0  0  0  0  0  0  0  0  0
  -19.8863  -20.1651   20.2138 C   0  0  0  0  0  0  0  0  0  0  0  0
  -31.1660  -18.4741   22.8806 C   0  0  0  0  0  0  0  0  0  0  0  0
  -20.4460  -21.2539   19.3039 C   0  0  0  0  0  0  0  0  0  0  0  0
  -29.4340  -18.3212   16.3310 C   0  0  0  0  0  0  0  0  0  0  0  0
  -29.3356  -18.8665   14.9406 C   0  0  0  0  0  0  0  0  0  0  0  0
  -30.6639  -17.0796   22.4992 C   0  0  0  0  0  0  0  0  0  0  0  0
  -30.1501  -19.5589   22.5273 C   0  0  0  0  0  0  0  0  0  0  0  0
  -29.1829  -18.1496   20.7531 C   0  0  0  0  0  0  0  0  0  0  0  0
  -21.9621  -21.3975   19.4837 C   0  0  1  0  0  0  0  0  0  0  0  0
  -28.6710  -19.6059   16.0832 C   0  0  0  0  0  0  0  0  0  0  0  0
  -22.6145  -24.0589   22.1151 C   0  0  1  0  0  0  0  0  0  0  0  0
  -30.1995  -17.0301   21.0304 C   0  0  2  0  0  0  0  0  0  0  0  0
  -21.1526  -31.0895   25.0197 C   0  0  0  0  0  0  0  0  0  0  0  0
  -20.1215  -27.1718   19.7795 C   0  0  0  0  0  0  0  0  0  0  0  0
  -19.9956  -29.4484   20.8138 C   0  0  0  0  0  0  0  0  0  0  0  0
  -18.7064  -27.5570   21.8052 C   0  0  0  0  0  0  0  0  0  0  0  0
  -23.8706  -28.6821   26.1568 C   0  0  0  0  0  0  0  0  0  0  0  0
  -31.1846  -25.2376   17.7902 C   0  0  0  0  0  0  0  0  0  0  0  0
  -29.3910  -25.3337   19.6201 C   0  0  0  0  0  0  0  0  0  1  0  0
  -21.2196  -27.6189   22.0731 C   0  0  1  0  0  0  0  0  0  0  0  0
  -21.8449  -29.7418   25.1507 C   0  0  2  0  0  0  0  0  0  0  0  0
  -20.0356  -27.9352   21.1163 C   0  0  0  0  0  0  0  0  0  0  0  0
  -28.3385  -15.4308   20.7849 N   0  0  0  0  0  0  0  0  0  0  0  0
  -30.1959  -22.4886   18.0411 N   0  0  0  0  0  0  0  0  0  0  0  0
  -29.6561  -15.6632   20.6584 N   0  0  0  0  0  0  0  0  0  0  0  0
  -22.5255  -25.5175   22.0217 N   0  0  0  0  0  0  0  0  0  0  0  0
  -29.7596  -19.4526   21.1198 N   0  0  0  0  0  0  0  0  0  0  0  0
  -31.6977  -14.6554   20.0050 N   0  0  0  0  0  0  0  0  0  0  0  0
  -28.6653  -11.3679   19.3781 N   0  0  0  0  0  0  0  0  0  0  0  0
  -29.5721  -20.3252   18.9367 N   0  0  0  0  0  0  0  0  0  0  0  0
  -30.6437  -24.4322   16.7255 N   0  0  0  0  0  0  0  0  0  0  0  0
  -22.2602  -22.1315   20.6948 N   0  0  0  0  0  0  0  0  0  0  0  0
  -21.1502  -28.3072   23.3575 N   0  0  0  0  0  0  0  0  0  0  0  0
  -23.0997  -29.9319   25.9318 N   0  3  0  0  0  0  0  0  0  0  0  0
  -30.8905  -11.9016   19.2290 O   0  0  0  0  0  0  0  0  0  0  0  0
  -22.0646  -24.2847   19.8301 O   0  0  0  0  0  0  0  0  0  0  0  0
  -29.7434  -27.1495   18.0868 O   0  0  0  0  0  0  0  0  0  0  0  0
  -20.3856  -25.5769   22.9455 O   0  0  0  0  0  0  0  0  0  0  0  0
  -23.1858  -29.4017   23.1700 O   0  0  0  0  0  0  0  0  0  0  0  0
  -30.4399  -21.6135   20.6598 O   0  0  0  0  0  0  0  0  0  0  0  0
  -23.1887  -11.7119   20.3391 O   0  0  0  0  0  0  0  0  0  0  0  0
  -28.3764  -26.1675   20.1784 O   0  0  0  0  0  0  0  0  0  1  0  0
  -22.8139   -6.6000   22.3718 F   0  0  0  0  0  0  0  0  0  0  0  0
  -24.6445   -9.6367   19.2360 F   0  0  0  0  0  0  0  0  0  0  0  0
  -29.5646  -22.2791   15.5431 S   0  0  0  0  0  0  0  0  0  0  0  0
  1  2  1  0  0  0  0
  1  5  2  0  0  0  0
  2  6  2  0  0  0  0
  3  8  2  0  0  0  0
  3 15  1  0  0  0  0
  4  9  1  0  0  0  0
  4 15  2  0  0  0  0
  5 17  1  0  0  0  0
  6 19  1  0  0  0  0
  7 10  2  0  0  0  0
  7 18  1  0  0  0  0
  8 21  1  0  0  0  0
  9 21  2  0  0  0  0
 10 22  1  0  0  0  0
 11 12  2  0  0  0  0
 11 23  1  0  0  0  0
 12 24  1  0  0  0  0
 13 20  1  0  0  0  0
 13 22  2  0  0  0  0
 14 24  2  0  0  0  0
 14 25  1  0  0  0  0
 15 26  1  0  0  0  0
 16 26  1  0  0  0  0
 16 29  2  0  0  0  0
 16 31  1  0  0  0  0
 17 19  2  0  0  0  0
 17 37  1  0  0  0  0
 18 20  2  0  0  0  0
 18 38  1  0  0  0  0
 19 48  1  0  0  0  0
 20 39  1  0  0  0  0
 21 80  1  0  0  0  0
 22 81  1  0  0  0  0
 23 25  2  0  0  0  0
 23 80  1  0  0  0  0
 24 82  1  0  0  0  0
 25 83  1  0  0  0  0
 26 62  2  0  0  0  0
 27 28  2  0  0  0  0
 27 49  1  0  0  0  0
 27 84  1  0  0  0  0
 28 63  1  0  0  0  0
 28 69  1  0  0  0  0
 29 64  1  0  0  0  0
 29 67  1  0  0  0  0
 30 63  2  0  0  0  0
 30 70  1  0  0  0  0
 30 84  1  0  0  0  0
 31 68  1  0  0  0  0
 31 74  2  0  0  0  0
 32 50  1  0  0  0  0
 32 71  1  0  0  0  0
 32 75  2  0  0  0  0
 33 57  1  0  0  0  0
 33 58  1  0  0  0  0
 33 76  2  0  0  0  0
 34 59  1  0  0  0  0
 34 65  1  0  0  0  0
 34 77  2  0  0  0  0
 35 60  1  0  0  0  0
 35 72  1  0  0  0  0
 35 78  2  0  0  0  0
 36 66  1  0  0  0  0
 36 69  1  0  0  0  0
 36 79  2  0  0  0  0
 37 40  1  0  0  0  0
 38 50  1  0  0  0  0
 39 65  1  0  0  0  0
 40 42  1  0  0  0  0
 41 45  1  0  0  0  0
 41 46  1  0  0  0  0
 42 48  1  0  0  0  0
 43 44  1  0  0  0  0
 43 49  1  0  0  0  0
 44 49  1  0  0  0  0
 45 51  1  0  0  0  0
 46 66  1  0  0  0  0
 47 51  1  0  0  0  0
 47 66  1  0  0  0  0
 48 71  1  0  0  0  0
 50 65  1  0  0  0  0
 51 64  1  0  0  0  0
 52 60  1  0  0  0  0
 53 61  1  0  0  0  0
 54 61  1  0  0  0  0
 55 61  1  0  0  0  0
 56 73  1  0  0  0  0
 57 70  1  0  0  0  0
 58 81  1  0  0  0  0
 59 61  1  0  0  0  0
 59 72  1  0  0  0  0
 60 73  1  0  0  0  0
 62 64  1  0  0  0  0
M  CHG  1  73   1
M  ISO  4  36 100  58 101  69 100  81 101
M  END
> <Batch ID>
0157

> <Smiles>
CNC(C)C(=O)NC(C(=O)N1Cc2cc([101O:1][101CH2:1]C(=O)CNc3nc([100NH:0][100C:0](=O)N4CCCC(n5nc(-c6ccc(Oc7ccc(F)cc7F)cc6)c(C(N)=O)c5N)C4)c(C4CC4)s3)ccc2CC1C(=O)NC1CCCc2ccccc21)C(C)(C)C

> <Shape>
0.243

> <Color>
0.081

> <Negative vol penalty>
0.000

$$$$

  -OEChem-04052303413D

 84 93  0     1  0  0  0  0  0999 V2000
  -29.6241  -32.9636   26.8457 C   0  0  0  0  0  0  0  0  0  0  0  0
  -29.0374  -31.8726   26.2126 C   0  0  0  0  0  0  0  0  0  0  0  0
  -22.8389   -9.9578   20.1047 C   0  0  0  0  0  0  0  0  0  0  0  0
  -24.3693   -9.3836   21.8838 C   0  0  0  0  0  0  0  0  0  0  0  0
  -28.8855  -34.1278   27.0533 C   0  0  0  0  0  0  0  0  0  0  0  0
  -27.7112  -31.9448   25.7875 C   0  0  0  0  0  0  0  0  0  0  0  0
  -27.0641  -30.0936   21.1185 C   0  0  0  0  0  0  0  0  0  0  0  0
  -21.8758   -9.1164   20.6615 C   0  0  0  0  0  0  0  0  0  0  0  0
  -23.4061   -8.5422   22.4407 C   0  0  0  0  0  0  0  0  0  0  0  0
  -27.0243  -28.7066   20.9834 C   0  0  0  0  0  0  0  0  0  0  0  0
  -22.1856   -5.4392   21.8818 C   0  0  0  0  0  0  0  0  0  0  0  0
  -22.5961   -4.1751   22.3051 C   0  0  0  0  0  0  0  0  0  0  0  0
  -24.6156  -28.7914   20.8840 C   0  0  0  0  0  0  0  0  0  0  0  0
  -21.8901   -4.6994   24.5554 C   0  0  0  0  0  0  0  0  0  0  0  0
  -24.0857  -10.0913   20.7158 C   0  0  0  0  0  0  0  0  0  0  0  0
  -25.6526  -10.8656   18.8576 C   0  0  0  0  0  0  0  0  0  0  0  0
  -27.5527  -34.2177   26.6219 C   0  0  0  0  0  0  0  0  0  0  0  0
  -25.8774  -30.8402   21.1484 C   0  0  0  0  0  0  0  0  0  0  0  0
  -26.9537  -33.1108   25.9907 C   0  0  0  0  0  0  0  0  0  0  0  0
  -24.6431  -30.1880   21.0171 C   0  0  0  0  0  0  0  0  0  0  0  0
  -22.1594   -8.4087   21.8295 C   0  0  0  0  0  0  0  0  0  0  0  0
  -25.7998  -28.0549   20.8690 C   0  0  0  0  0  0  0  0  0  0  0  0
  -21.6274   -6.3334   22.7953 C   0  0  0  0  0  0  0  0  0  0  0  0
  -22.4483   -3.8051   23.6418 C   0  0  0  0  0  0  0  0  0  0  0  0
  -21.4797   -5.9635   24.1321 C   0  0  0  0  0  0  0  0  0  0  0  0
  -25.0812  -10.9598   20.1407 C   0  0  0  0  0  0  0  0  0  0  0  0
  -24.5749  -20.7171   20.2338 C   0  0  0  0  0  0  0  0  0  0  0  0
  -26.5357  -11.9158   18.7969 C   0  0  0  0  0  0  0  0  0  0  0  0
  -23.4585  -20.1827   19.6254 C   0  0  0  0  0  0  0  0  0  0  0  0
  -25.0137  -18.5915   20.5484 C   0  0  0  0  0  0  0  0  0  0  0  0
  -25.4071   -9.9138   17.8138 C   0  0  0  0  0  0  0  0  0  0  0  0
  -24.4715  -32.7334   23.2798 C   0  0  0  0  0  0  0  0  0  0  0  0
  -22.3954  -33.2780   20.8476 C   0  0  0  0  0  0  0  0  0  0  0  0
  -20.9938  -32.1832   17.9349 C   0  0  0  0  0  0  0  0  0  0  0  0
  -26.8141  -17.1823   21.6062 C   0  0  0  0  0  0  0  0  0  0  0  0
  -26.7798  -35.4802   26.9108 C   0  0  0  0  0  0  0  0  0  0  0  0
  -25.9385  -32.3383   21.2679 C   0  0  0  0  0  0  0  0  0  0  0  0
  -23.3414  -30.9456   21.0230 C   0  0  0  0  0  0  0  0  0  0  0  0
  -25.4959  -35.6085   26.0951 C   0  0  0  0  0  0  0  0  0  0  0  0
  -29.3093  -14.6424   21.5910 C   0  0  0  0  0  0  0  0  0  0  0  0
  -24.7139  -34.2991   26.1209 C   0  0  0  0  0  0  0  0  0  0  0  0
  -25.6693  -22.7246   19.1478 C   0  0  0  0  0  0  0  0  0  0  0  0
  -25.6674  -22.4914   21.6707 C   0  0  0  0  0  0  0  0  0  0  0  0
  -25.9830  -24.2138   19.2888 C   0  0  0  0  0  0  0  0  0  0  0  0
  -25.9811  -23.9813   21.8054 C   0  0  0  0  0  0  0  0  0  0  0  0
  -28.5616  -13.4027   21.0948 C   0  0  0  0  0  0  0  0  0  0  0  0
  -28.4309  -15.5135   22.4873 C   0  0  0  0  0  0  0  0  0  0  0  0
  -26.3884  -14.6532   21.4115 C   0  0  0  0  0  0  0  0  0  0  0  0
  -25.5254  -33.1594   25.4931 C   0  0  1  0  0  0  0  0  0  0  0  0
  -24.9024  -22.1930   20.3703 C   0  0  0  0  0  0  0  0  0  0  0  0
  -24.6466  -32.9482   21.8031 C   0  0  1  0  0  0  0  0  0  0  0  0
  -26.7461  -24.5123   20.5860 C   0  0  0  0  0  0  0  0  0  0  0  0
  -27.2119  -13.7781   20.4524 C   0  0  2  0  0  0  0  0  0  0  0  0
  -19.2995  -32.8281   16.1997 C   0  0  0  0  0  0  0  0  0  0  0  0
  -20.1467  -32.5088   22.7611 C   0  0  0  0  0  0  0  0  0  0  0  0
  -18.6420  -32.2477   20.7771 C   0  0  0  0  0  0  0  0  0  0  0  0
  -19.6440  -34.4724   21.2962 C   0  0  0  0  0  0  0  0  0  0  0  0
  -23.0330  -32.2205   15.7903 C   0  0  0  0  0  0  0  0  0  0  0  0
  -27.0071  -26.0110   20.7247 C   0  0  0  0  0  0  0  0  0  1  0  0
  -21.1149  -32.6360   20.3710 C   0  0  1  0  0  0  0  0  0  0  0  0
  -20.7647  -32.8770   16.6042 C   0  0  2  0  0  0  0  0  0  0  0  0
  -19.9111  -32.9515   21.3031 C   0  0  0  0  0  0  0  0  0  0  0  0
  -25.5610  -11.9887   20.8445 N   0  0  0  0  0  0  0  0  0  0  0  0
  -25.4676  -19.8062   20.7640 N   0  0  0  0  0  0  0  0  0  0  0  0
  -26.4433  -12.5504   20.0007 N   0  0  0  0  0  0  0  0  0  0  0  0
  -23.4532  -32.4082   21.1485 N   0  0  0  0  0  0  0  0  0  0  0  0
  -27.1715  -15.8329   21.8114 N   0  0  0  0  0  0  0  0  0  0  0  0
  -27.3744  -12.3491   17.8320 N   0  0  0  0  0  0  0  0  0  0  0  0
  -22.4344  -20.8416   19.0308 N   0  0  0  0  0  0  0  0  0  0  0  0
  -26.1833   -8.7473   17.7771 N   0  0  0  0  0  0  0  0  0  0  0  0
  -25.6113  -17.3629   20.9242 N   0  0  0  0  0  0  0  0  0  0  0  0
  -25.4949  -33.2531   24.0492 N   0  0  0  0  0  0  0  0  0  0  0  0
  -20.9307  -33.0687   18.9900 N   0  0  0  0  0  0  0  0  0  0  0  0
  -21.5697  -32.2233   15.5339 N   0  3  0  0  0  0  0  0  0  0  0  0
  -24.5367  -10.1000   16.9299 O   0  0  0  0  0  0  0  0  0  0  0  0
  -23.4804  -32.1413   23.6909 O   0  0  0  0  0  0  0  0  0  0  0  0
  -22.4573  -34.5063   20.9423 O   0  0  0  0  0  0  0  0  0  0  0  0
  -21.2038  -30.9760   18.0292 O   0  0  0  0  0  0  0  0  0  0  0  0
  -27.5363  -18.1092   21.9820 O   0  0  0  0  0  0  0  0  0  0  0  0
  -21.2197   -7.5878   22.3734 O   0  0  0  0  0  0  0  0  0  0  0  0
  -25.7581  -26.7011   20.7377 O   0  0  0  0  0  0  0  0  0  1  0  0
  -22.8411   -2.5906   24.0478 F   0  0  0  0  0  0  0  0  0  0  0  0
  -20.9430   -6.8179   25.0141 F   0  0  0  0  0  0  0  0  0  0  0  0
  -23.5194  -18.4710   19.7131 S   0  0  0  0  0  0  0  0  0  0  0  0
  1  2  1  0  0  0  0
  1  5  2  0  0  0  0
  2  6  2  0  0  0  0
  3  8  2  0  0  0  0
  3 15  1  0  0  0  0
  4  9  1  0  0  0  0
  4 15  2  0  0  0  0
  5 17  1  0  0  0  0
  6 19  1  0  0  0  0
  7 10  2  0  0  0  0
  7 18  1  0  0  0  0
  8 21  1  0  0  0  0
  9 21  2  0  0  0  0
 10 22  1  0  0  0  0
 11 12  2  0  0  0  0
 11 23  1  0  0  0  0
 12 24  1  0  0  0  0
 13 20  1  0  0  0  0
 13 22  2  0  0  0  0
 14 24  2  0  0  0  0
 14 25  1  0  0  0  0
 15 26  1  0  0  0  0
 16 26  1  0  0  0  0
 16 28  2  0  0  0  0
 16 31  1  0  0  0  0
 17 19  2  0  0  0  0
 17 36  1  0  0  0  0
 18 20  2  0  0  0  0
 18 37  1  0  0  0  0
 19 49  1  0  0  0  0
 20 38  1  0  0  0  0
 21 80  1  0  0  0  0
 22 81  1  0  0  0  0
 23 25  2  0  0  0  0
 23 80  1  0  0  0  0
 24 82  1  0  0  0  0
 25 83  1  0  0  0  0
 26 63  2  0  0  0  0
 27 29  2  0  0  0  0
 27 50  1  0  0  0  0
 27 64  1  0  0  0  0
 28 65  1  0  0  0  0
 28 68  1  0  0  0  0
 29 69  1  0  0  0  0
 29 84  1  0  0  0  0
 30 64  2  0  0  0  0
 30 71  1  0  0  0  0
 30 84  1  0  0  0  0
 31 70  1  0  0  0  0
 31 75  2  0  0  0  0
 32 51  1  0  0  0  0
 32 72  1  0  0  0  0
 32 76  2  0  0  0  0
 33 60  1  0  0  0  0
 33 66  1  0  0  0  0
 33 77  2  0  0  0  0
 34 61  1  0  0  0  0
 34 73  1  0  0  0  0
 34 78  2  0  0  0  0
 35 67  1  0  0  0  0
 35 71  1  0  0  0  0
 35 79  2  0  0  0  0
 36 39  1  0  0  0  0
 37 51  1  0  0  0  0
 38 66  1  0  0  0  0
 39 41  1  0  0  0  0
 40 46  1  0  0  0  0
 40 47  1  0  0  0  0
 41 49  1  0  0  0  0
 42 44  1  0  0  0  0
 42 50  1  0  0  0  0
 43 45  1  0  0  0  0
 43 50  1  0  0  0  0
 44 52  1  0  0  0  0
 45 52  1  0  0  0  0
 46 53  1  0  0  0  0
 47 67  1  0  0  0  0
 48 53  1  0  0  0  0
 48 67  1  0  0  0  0
 49 72  1  0  0  0  0
 51 66  1  0  0  0  0
 52 59  1  0  0  0  0
 53 65  1  0  0  0  0
 54 61  1  0  0  0  0
 55 62  1  0  0  0  0
 56 62  1  0  0  0  0
 57 62  1  0  0  0  0
 58 74  1  0  0  0  0
 59 81  1  0  0  0  0
 60 62  1  0  0  0  0
 60 73  1  0  0  0  0
 61 74  1  0  0  0  0
 63 65  1  0  0  0  0
M  CHG  1  74   1
M  ISO  4  35 100  59 101  71 100  81 101
M  END
> <Batch ID>
0157

> <Smiles>
CNC(C)C(=O)NC(C(=O)N1Cc2cc([101O:1][101CH2:1]C3CCC(c4nc([100NH:0][100C:0](=O)N5CCCC(n6nc(-c7ccc(Oc8ccc(F)cc8F)cc7)c(C(N)=O)c6N)C5)sc4N)CC3)ccc2CC1C(=O)NC1CCCc2ccccc21)C(C)(C)C

> <Shape>
0.229

> <Color>
0.090

> <Negative vol penalty>
0.000

$$$$

  -OEChem-04052303413D

 81 89  0     1  0  0  0  0  0999 V2000
  -28.2521  -34.4640   25.1990 C   0  0  0  0  0  0  0  0  0  0  0  0
  -29.0192  -33.7367   24.2946 C   0  0  0  0  0  0  0  0  0  0  0  0
  -24.0201   -9.8310   22.5283 C   0  0  0  0  0  0  0  0  0  0  0  0
  -24.3563  -11.5685   24.1731 C   0  0  0  0  0  0  0  0  0  0  0  0
  -27.1757  -33.8570   25.8446 C   0  0  0  0  0  0  0  0  0  0  0  0
  -28.7110  -32.4015   24.0361 C   0  0  0  0  0  0  0  0  0  0  0  0
  -28.8714  -27.5545   18.7638 C   0  0  0  0  0  0  0  0  0  0  0  0
  -23.5871   -8.9646   23.5320 C   0  0  0  0  0  0  0  0  0  0  0  0
  -23.9233  -10.7021   25.1768 C   0  0  0  0  0  0  0  0  0  0  0  0
  -29.3363  -26.2673   18.4979 C   0  0  0  0  0  0  0  0  0  0  0  0
  -20.9803   -9.5339   26.3578 C   0  0  0  0  0  0  0  0  0  0  0  0
  -20.0787  -10.0327   27.2979 C   0  0  0  0  0  0  0  0  0  0  0  0
  -27.4053  -25.3462   19.6124 C   0  0  0  0  0  0  0  0  0  0  0  0
  -21.6595   -9.5627   29.0635 C   0  0  0  0  0  0  0  0  0  0  0  0
  -29.8857  -18.5787   21.6905 C   0  0  0  0  0  0  0  0  0  0  0  0
  -24.4048  -11.1330   22.8488 C   0  0  0  0  0  0  0  0  0  0  0  0
  -24.0620  -12.9061   21.0471 C   0  0  0  0  0  0  0  0  0  0  0  0
  -26.8482  -32.5165   25.5867 C   0  0  0  0  0  0  0  0  0  0  0  0
  -27.6734  -27.7476   19.4667 C   0  0  0  0  0  0  0  0  0  0  0  0
  -27.6301  -31.7756   24.6799 C   0  0  0  0  0  0  0  0  0  0  0  0
  -26.9261  -26.6369   19.8837 C   0  0  0  0  0  0  0  0  0  0  0  0
  -23.5386   -9.4002   24.8563 C   0  0  0  0  0  0  0  0  0  0  0  0
  -28.6047  -25.1629   18.9247 C   0  0  0  0  0  0  0  0  0  0  0  0
  -22.2215   -9.0493   26.7705 C   0  0  0  0  0  0  0  0  0  0  0  0
  -20.4183  -10.0472   28.6507 C   0  0  0  0  0  0  0  0  0  0  0  0
  -22.5611   -9.0638   28.1233 C   0  0  0  0  0  0  0  0  0  0  0  0
  -24.8528  -12.0282   21.8125 C   0  0  0  0  0  0  0  0  0  0  0  0
  -30.9913  -17.7278   21.5195 C   0  0  0  0  0  0  0  0  0  0  0  0
  -24.9538  -13.5287   20.2084 C   0  0  0  0  0  0  0  0  0  0  0  0
  -30.1370  -19.6159   20.8318 C   0  0  0  0  0  0  0  0  0  0  0  0
  -22.6478  -13.1381   21.0905 C   0  0  0  0  0  0  0  0  0  0  0  0
  -26.8876  -29.1139   22.2271 C   0  0  0  0  0  0  0  0  0  0  0  0
  -23.8648  -28.4964   21.2250 C   0  0  0  0  0  0  0  0  0  0  0  0
  -29.7645  -21.7945   19.6282 C   0  0  0  0  0  0  0  0  0  0  0  0
  -21.7852  -26.6192   19.2761 C   0  0  0  0  0  0  0  0  0  0  0  0
  -30.8311  -14.6097   20.5828 C   0  0  0  0  0  0  0  0  0  0  0  0
  -25.7045  -31.8899   26.3443 C   0  0  0  0  0  0  0  0  0  0  0  0
  -27.1720  -29.1425   19.7222 C   0  0  0  0  0  0  0  0  0  0  0  0
  -25.6235  -26.7902   20.6242 C   0  0  0  0  0  0  0  0  0  0  0  0
  -25.2148  -30.5793   25.7337 C   0  0  0  0  0  0  0  0  0  0  0  0
  -29.1427  -12.8233   18.0070 C   0  0  0  0  0  0  0  0  0  0  0  0
  -26.3952  -29.6751   25.3932 C   0  0  0  0  0  0  0  0  0  0  0  0
  -27.7805  -12.4962   18.6211 C   0  0  0  0  0  0  0  0  0  0  0  0
  -30.2610  -12.7536   19.0446 C   0  0  0  0  0  0  0  0  0  0  0  0
  -28.6750  -13.2432   20.8663 C   0  0  0  0  0  0  0  0  0  0  0  0
  -27.3120  -30.3324   24.3545 C   0  0  1  0  0  0  0  0  0  0  0  0
  -26.2001  -29.2225   20.8954 C   0  0  1  0  0  0  0  0  0  0  0  0
  -27.5078  -13.3552   19.8705 C   0  0  2  0  0  0  0  0  0  0  0  0
  -19.3613  -26.3235   18.6979 C   0  0  0  0  0  0  0  0  0  0  0  0
  -23.4042  -27.0822   23.8892 C   0  0  0  0  0  0  0  0  0  0  0  0
  -21.3694  -26.0171   22.8925 C   0  0  0  0  0  0  0  0  0  0  0  0
  -21.4936  -28.4985   23.1159 C   0  0  0  0  0  0  0  0  0  0  0  0
  -22.2671  -27.2597   16.4272 C   0  0  0  0  0  0  0  0  0  0  0  0
  -31.2567  -16.4477   22.1951 C   0  0  0  0  0  0  0  0  0  0  0  0
  -28.7110  -22.8863   19.6043 C   0  0  0  0  0  0  0  0  0  1  0  0
  -22.9063  -27.3391   21.3688 C   0  0  1  0  0  0  0  0  0  0  0  0
  -20.6662  -27.0115   18.3284 C   0  0  2  0  0  0  0  0  0  0  0  0
  -22.3189  -27.2310   22.8044 C   0  0  0  0  0  0  0  0  0  0  0  0
  -26.1473  -12.0851   21.4886 N   0  0  0  0  0  0  0  0  0  0  0  0
  -31.8617  -18.2010   20.6232 N   0  0  0  0  0  0  0  0  0  0  0  0
  -26.1768  -13.0061   20.5104 N   0  0  0  0  0  0  0  0  0  0  0  0
  -25.1784  -28.1743   20.8555 N   0  0  0  0  0  0  0  0  0  0  0  0
  -29.9414  -13.5913   20.2030 N   0  0  0  0  0  0  0  0  0  0  0  0
  -24.8033  -14.4668   19.2493 N   0  0  0  0  0  0  0  0  0  0  0  0
  -21.8798  -12.4133   22.0120 N   0  0  0  0  0  0  0  0  0  0  0  0
  -29.4146  -20.7943   20.5289 N   0  0  0  0  0  0  0  0  0  0  0  0
  -26.7344  -30.2267   23.0317 N   0  0  0  0  0  0  0  0  0  0  0  0
  -21.9025  -27.5081   20.3237 N   0  0  0  0  0  0  0  0  0  0  0  0
  -30.4492  -15.3610   21.6876 N   0  0  0  0  0  0  0  0  0  0  0  0
  -21.0163  -26.6351   16.9295 N   0  3  0  0  0  0  0  0  0  0  0  0
  -22.0796  -13.9517   20.3232 O   0  0  0  0  0  0  0  0  0  0  0  0
  -27.5096  -28.0951   22.5046 O   0  0  0  0  0  0  0  0  0  0  0  0
  -23.4611  -29.6446   21.4258 O   0  0  0  0  0  0  0  0  0  0  0  0
  -30.7653  -21.8518   18.9213 O   0  0  0  0  0  0  0  0  0  0  0  0
  -22.4829  -25.6217   19.1063 O   0  0  0  0  0  0  0  0  0  0  0  0
  -31.8849  -14.8364   19.9787 O   0  0  0  0  0  0  0  0  0  0  0  0
  -31.3135  -19.4019   20.1890 O   0  0  0  0  0  0  0  0  0  0  0  0
  -23.1159   -8.5551   25.8359 O   0  0  0  0  0  0  0  0  0  0  0  0
  -29.0566  -23.9054   18.6671 O   0  0  0  0  0  0  0  0  0  1  0  0
  -19.5529  -10.5277   29.5532 F   0  0  0  0  0  0  0  0  0  0  0  0
  -23.7525   -8.6007   28.5257 F   0  0  0  0  0  0  0  0  0  0  0  0
  1  2  1  0  0  0  0
  1  5  2  0  0  0  0
  2  6  2  0  0  0  0
  3  8  2  0  0  0  0
  3 16  1  0  0  0  0
  4  9  1  0  0  0  0
  4 16  2  0  0  0  0
  5 18  1  0  0  0  0
  6 20  1  0  0  0  0
  7 10  2  0  0  0  0
  7 19  1  0  0  0  0
  8 22  1  0  0  0  0
  9 22  2  0  0  0  0
 10 23  1  0  0  0  0
 11 12  2  0  0  0  0
 11 24  1  0  0  0  0
 12 25  1  0  0  0  0
 13 21  1  0  0  0  0
 13 23  2  0  0  0  0
 14 25  2  0  0  0  0
 14 26  1  0  0  0  0
 15 28  1  0  0  0  0
 15 30  2  0  0  0  0
 16 27  1  0  0  0  0
 17 27  1  0  0  0  0
 17 29  2  0  0  0  0
 17 31  1  0  0  0  0
 18 20  2  0  0  0  0
 18 37  1  0  0  0  0
 19 21  2  0  0  0  0
 19 38  1  0  0  0  0
 20 46  1  0  0  0  0
 21 39  1  0  0  0  0
 22 78  1  0  0  0  0
 23 79  1  0  0  0  0
 24 26  2  0  0  0  0
 24 78  1  0  0  0  0
 25 80  1  0  0  0  0
 26 81  1  0  0  0  0
 27 59  2  0  0  0  0
 28 54  1  0  0  0  0
 28 60  2  0  0  0  0
 29 61  1  0  0  0  0
 29 64  1  0  0  0  0
 30 66  1  0  0  0  0
 30 77  1  0  0  0  0
 31 65  1  0  0  0  0
 31 71  2  0  0  0  0
 32 47  1  0  0  0  0
 32 67  1  0  0  0  0
 32 72  2  0  0  0  0
 33 56  1  0  0  0  0
 33 62  1  0  0  0  0
 33 73  2  0  0  0  0
 34 55  1  0  0  0  0
 34 66  1  0  0  0  0
 34 74  2  0  0  0  0
 35 57  1  0  0  0  0
 35 68  1  0  0  0  0
 35 75  2  0  0  0  0
 36 63  1  0  0  0  0
 36 69  1  0  0  0  0
 36 76  2  0  0  0  0
 37 40  1  0  0  0  0
 38 47  1  0  0  0  0
 39 62  1  0  0  0  0
 40 42  1  0  0  0  0
 41 43  1  0  0  0  0
 41 44  1  0  0  0  0
 42 46  1  0  0  0  0
 43 48  1  0  0  0  0
 44 63  1  0  0  0  0
 45 48  1  0  0  0  0
 45 63  1  0  0  0  0
 46 67  1  0  0  0  0
 47 62  1  0  0  0  0
 48 61  1  0  0  0  0
 49 57  1  0  0  0  0
 50 58  1  0  0  0  0
 51 58  1  0  0  0  0
 52 58  1  0  0  0  0
 53 70  1  0  0  0  0
 54 69  1  0  0  0  0
 55 79  1  0  0  0  0
 56 58  1  0  0  0  0
 56 68  1  0  0  0  0
 57 70  1  0  0  0  0
 59 61  1  0  0  0  0
 60 77  1  0  0  0  0
M  CHG  1  70   1
M  ISO  4  36 100  55 101  69 100  79 101
M  END
> <Batch ID>
0157

> <Smiles>
CNC(C)C(=O)NC(C(=O)N1Cc2cc([101O:1][101CH2:1]C(=O)Nc3cc(C[100NH:0][100C:0](=O)N4CCCC(n5nc(-c6ccc(Oc7ccc(F)cc7F)cc6)c(C(N)=O)c5N)C4)no3)ccc2CC1C(=O)NC1CCCc2ccccc21)C(C)(C)C

> <Shape>
0.301

> <Color>
0.117

> <Negative vol penalty>
0.000

$$$$

  -OEChem-04052303413D

 84 92  0     1  0  0  0  0  0999 V2000
  -20.9382  -31.4240   22.8088 C   0  0  0  0  0  0  0  0  0  0  0  0
  -21.6238  -30.3215   23.3087 C   0  0  0  0  0  0  0  0  0  0  0  0
  -23.2505   -9.6691   20.1483 C   0  0  0  0  0  0  0  0  0  0  0  0
  -23.7134  -10.1329   22.4737 C   0  0  0  0  0  0  0  0  0  0  0  0
  -19.5443  -31.4214   22.7780 C   0  0  0  0  0  0  0  0  0  0  0  0
  -20.9157  -29.2161   23.7791 C   0  0  0  0  0  0  0  0  0  0  0  0
  -22.8582  -24.8303   22.1555 C   0  0  0  0  0  0  0  0  0  0  0  0
  -22.5268   -8.5356   20.5184 C   0  0  0  0  0  0  0  0  0  0  0  0
  -22.9896   -8.9994   22.8439 C   0  0  0  0  0  0  0  0  0  0  0  0
  -24.0023  -24.3629   22.8008 C   0  0  0  0  0  0  0  0  0  0  0  0
  -19.7450   -8.1247   23.2011 C   0  0  0  0  0  0  0  0  0  0  0  0
  -18.8481   -8.2482   24.2622 C   0  0  0  0  0  0  0  0  0  0  0  0
  -22.6439  -22.8537   24.1032 C   0  0  0  0  0  0  0  0  0  0  0  0
  -29.2916  -18.1135   22.6610 C   0  0  0  0  0  0  0  0  0  0  0  0
  -31.0778  -19.3105   23.7625 C   0  0  0  0  0  0  0  0  0  0  0  0
  -31.5641  -17.3094   22.4992 C   0  0  0  0  0  0  0  0  0  0  0  0
  -20.0614   -6.5540   25.4848 C   0  0  0  0  0  0  0  0  0  0  0  0
  -23.8439  -10.4677   21.1259 C   0  0  0  0  0  0  0  0  0  0  0  0
  -24.0988  -12.9469   20.5816 C   0  0  0  0  0  0  0  0  0  0  0  0
  -18.8190  -30.3115   23.2392 C   0  0  0  0  0  0  0  0  0  0  0  0
  -21.5951  -24.3197   22.4875 C   0  0  0  0  0  0  0  0  0  0  0  0
  -19.5108  -29.1992   23.7556 C   0  0  0  0  0  0  0  0  0  0  0  0
  -21.4857  -23.3144   23.4588 C   0  0  0  0  0  0  0  0  0  0  0  0
  -29.7249  -19.1795   23.4493 C   0  0  0  0  0  0  0  0  0  0  0  0
  -30.2112  -17.1784   22.1859 C   0  0  0  0  0  0  0  0  0  0  0  0
  -22.3963   -8.2007   21.8662 C   0  0  0  0  0  0  0  0  0  0  0  0
  -23.8950  -23.3766   23.7768 C   0  0  0  0  0  0  0  0  0  0  0  0
  -20.8000   -7.2158   23.2818 C   0  0  0  0  0  0  0  0  0  0  0  0
  -19.0064   -7.4629   25.4041 C   0  0  0  0  0  0  0  0  0  0  0  0
  -31.9974  -18.3754   23.2875 C   0  0  0  0  0  0  0  0  0  0  0  0
  -20.9583   -6.4305   24.4237 C   0  0  0  0  0  0  0  0  0  0  0  0
  -24.5921  -11.6385   20.7442 C   0  0  0  0  0  0  0  0  0  0  0  0
  -25.1979  -13.6852   20.2164 C   0  0  0  0  0  0  0  0  0  0  0  0
  -25.6672  -21.8526   23.8625 C   0  0  0  0  0  0  0  0  0  1  0  0
  -22.7663  -13.4500   20.7459 C   0  0  0  0  0  0  0  0  0  0  0  0
  -26.7724  -21.3214   24.3992 C   0  0  0  0  0  0  0  0  0  0  0  0
  -27.4201  -20.1511   23.7215 C   0  0  0  0  0  0  0  0  0  0  0  0
  -18.9227  -25.5519   23.6890 C   0  0  0  0  0  0  0  0  0  0  0  0
  -17.7487  -22.5878   23.0905 C   0  0  0  0  0  0  0  0  0  0  0  0
  -18.3705  -19.2639   22.6304 C   0  0  0  0  0  0  0  0  0  0  0  0
  -30.5528  -15.0804   20.8340 C   0  0  0  0  0  0  0  0  0  0  0  0
  -17.3121  -30.3741   23.2296 C   0  0  0  0  0  0  0  0  0  0  0  0
  -20.3735  -24.8154   21.7632 C   0  0  0  0  0  0  0  0  0  0  0  0
  -20.1550  -22.7190   23.8374 C   0  0  0  0  0  0  0  0  0  0  0  0
  -16.6449  -29.0117   23.4002 C   0  0  0  0  0  0  0  0  0  0  0  0
  -29.8425  -12.2179   18.8393 C   0  0  0  0  0  0  0  0  0  0  0  0
  -17.2965  -28.2373   24.5414 C   0  0  0  0  0  0  0  0  0  0  0  0
  -28.3726  -11.9196   19.1437 C   0  0  0  0  0  0  0  0  0  0  0  0
  -30.5886  -12.7139   20.0767 C   0  0  0  0  0  0  0  0  0  0  0  0
  -28.4953  -13.5547   21.0668 C   0  0  0  0  0  0  0  0  0  0  0  0
  -18.7787  -27.9713   24.2520 C   0  0  1  0  0  0  0  0  0  0  0  0
  -19.0830  -24.5908   22.5452 C   0  0  1  0  0  0  0  0  0  0  0  0
  -27.6868  -13.1139   19.8357 C   0  0  2  0  0  0  0  0  0  0  0  0
  -17.2061  -17.0835   22.1974 C   0  0  0  0  0  0  0  0  0  0  0  0
  -16.8504  -22.4916   26.0049 C   0  0  0  0  0  0  0  0  0  0  0  0
  -16.5764  -20.0145   25.7660 C   0  0  0  0  0  0  0  0  0  0  0  0
  -15.2000  -21.5598   24.3732 C   0  0  0  0  0  0  0  0  0  0  0  0
  -19.7967  -18.8785   20.0660 C   0  0  0  0  0  0  0  0  0  0  0  0
  -17.6626  -21.2954   23.8658 C   0  0  1  0  0  0  0  0  0  0  0  0
  -17.8931  -18.2870   21.5710 C   0  0  2  0  0  0  0  0  0  0  0  0
  -16.5974  -21.3527   24.9969 C   0  0  0  0  0  0  0  0  0  0  0  0
  -25.9024  -11.5476   20.5020 N   0  0  0  0  0  0  0  0  0  0  0  0
  -26.2419  -12.8082   20.1835 N   0  0  0  0  0  0  0  0  0  0  0  0
  -18.9892  -23.2411   23.1054 N   0  0  0  0  0  0  0  0  0  0  0  0
  -29.8831  -13.8485   20.6765 N   0  0  0  0  0  0  0  0  0  0  0  0
  -25.3635  -14.9926   19.9234 N   0  0  0  0  0  0  0  0  0  0  0  0
  -21.7563  -12.5551   21.1247 N   0  0  0  0  0  0  0  0  0  0  0  0
  -28.7920  -20.1288   23.9320 N   0  0  0  0  0  0  0  0  0  0  0  0
  -29.7713  -16.0952   21.3854 N   0  0  0  0  0  0  0  0  0  0  0  0
  -18.9222  -26.8811   23.3110 N   0  0  0  0  0  0  0  0  0  0  0  0
  -17.4330  -20.2434   22.8815 N   0  0  0  0  0  0  0  0  0  0  0  0
  -19.0438  -17.8010   20.7583 N   0  3  0  0  0  0  0  0  0  0  0  0
  -22.4766  -14.6540   20.5465 O   0  0  0  0  0  0  0  0  0  0  0  0
  -26.7540  -19.3496   23.0752 O   0  0  0  0  0  0  0  0  0  0  0  0
  -18.8064  -25.1196   24.8297 O   0  0  0  0  0  0  0  0  0  0  0  0
  -16.7540  -22.9988   22.4877 O   0  0  0  0  0  0  0  0  0  0  0  0
  -19.4640  -19.1656   23.1828 O   0  0  0  0  0  0  0  0  0  0  0  0
  -31.7245  -15.2321   20.4788 O   0  0  0  0  0  0  0  0  0  0  0  0
  -27.3443  -21.8101   25.5562 O   0  0  0  0  0  0  0  0  0  0  0  0
  -21.6900   -7.0949   22.2277 O   0  0  0  0  0  0  0  0  0  0  0  0
  -25.0101  -22.9191   24.4087 O   0  0  0  0  0  0  0  0  0  1  0  0
  -18.1460   -7.5827   26.4237 F   0  0  0  0  0  0  0  0  0  0  0  0
  -33.2966  -18.5006   23.5888 F   0  0  0  0  0  0  0  0  0  0  0  0
  -21.9706   -5.5564   24.5075 F   0  0  0  0  0  0  0  0  0  0  0  0
  1  2  1  0  0  0  0
  1  5  2  0  0  0  0
  2  6  2  0  0  0  0
  3  8  2  0  0  0  0
  3 18  1  0  0  0  0
  4  9  1  0  0  0  0
  4 18  2  0  0  0  0
  5 20  1  0  0  0  0
  6 22  1  0  0  0  0
  7 10  2  0  0  0  0
  7 21  1  0  0  0  0
  8 26  1  0  0  0  0
  9 26  2  0  0  0  0
 10 27  1  0  0  0  0
 11 12  2  0  0  0  0
 11 28  1  0  0  0  0
 12 29  1  0  0  0  0
 13 23  1  0  0  0  0
 13 27  2  0  0  0  0
 14 24  2  0  0  0  0
 14 25  1  0  0  0  0
 15 24  1  0  0  0  0
 15 30  2  0  0  0  0
 16 25  2  0  0  0  0
 16 30  1  0  0  0  0
 17 29  2  0  0  0  0
 17 31  1  0  0  0  0
 18 32  1  0  0  0  0
 19 32  1  0  0  0  0
 19 33  2  0  0  0  0
 19 35  1  0  0  0  0
 20 22  2  0  0  0  0
 20 42  1  0  0  0  0
 21 23  2  0  0  0  0
 21 43  1  0  0  0  0
 22 51  1  0  0  0  0
 23 44  1  0  0  0  0
 24 68  1  0  0  0  0
 25 69  1  0  0  0  0
 26 80  1  0  0  0  0
 27 81  1  0  0  0  0
 28 31  2  0  0  0  0
 28 80  1  0  0  0  0
 29 82  1  0  0  0  0
 30 83  1  0  0  0  0
 31 84  1  0  0  0  0
 32 62  2  0  0  0  0
 33 63  1  0  0  0  0
 33 66  1  0  0  0  0
 34 36  2  0  0  0  0
 34 81  1  0  0  0  0
 35 67  1  0  0  0  0
 35 73  2  0  0  0  0
 36 37  1  0  0  0  0
 36 79  1  0  0  0  0
 37 68  1  0  0  0  0
 37 74  2  0  0  0  0
 38 52  1  0  0  0  0
 38 70  1  0  0  0  0
 38 75  2  0  0  0  0
 39 59  1  0  0  0  0
 39 64  1  0  0  0  0
 39 76  2  0  0  0  0
 40 60  1  0  0  0  0
 40 71  1  0  0  0  0
 40 77  2  0  0  0  0
 41 65  1  0  0  0  0
 41 69  1  0  0  0  0
 41 78  2  0  0  0  0
 42 45  1  0  0  0  0
 43 52  1  0  0  0  0
 44 64  1  0  0  0  0
 45 47  1  0  0  0  0
 46 48  1  0  0  0  0
 46 49  1  0  0  0  0
 47 51  1  0  0  0  0
 48 53  1  0  0  0  0
 49 65  1  0  0  0  0
 50 53  1  0  0  0  0
 50 65  1  0  0  0  0
 51 70  1  0  0  0  0
 52 64  1  0  0  0  0
 53 63  1  0  0  0  0
 54 60  1  0  0  0  0
 55 61  1  0  0  0  0
 56 61  1  0  0  0  0
 57 61  1  0  0  0  0
 58 72  1  0  0  0  0
 59 61  1  0  0  0  0
 59 71  1  0  0  0  0
 60 72  1  0  0  0  0
 62 63  1  0  0  0  0
M  CHG  1  72   1
M  ISO  4  34 101  41 100  69 100  81 101
M  END
> <Batch ID>
0157

> <Smiles>
CNC(C)C(=O)NC(C(=O)N1Cc2cc([101O:1][101CH2:1]C(=O)C(=O)Nc3cc(F)cc([100NH:0][100C:0](=O)N4CCCC(n5nc(-c6ccc(Oc7ccc(F)cc7F)cc6)c(C(N)=O)c5N)C4)c3)ccc2CC1C(=O)NC1CCCc2ccccc21)C(C)(C)C

> <Shape>
0.217

> <Color>
0.176

> <Negative vol penalty>
0.000

$$$$

  -OEChem-04052303413D

 84 92  0     1  0  0  0  0  0999 V2000
  -21.5902  -12.7805   19.3127 C   0  0  0  0  0  0  0  0  0  0  0  0
  -21.5717  -14.0327   19.9185 C   0  0  0  0  0  0  0  0  0  0  0  0
  -29.9730  -29.3682   21.7524 C   0  0  0  0  0  0  0  0  0  0  0  0
  -28.9040  -27.4408   22.7421 C   0  0  0  0  0  0  0  0  0  0  0  0
  -22.7568  -12.0171   19.3281 C   0  0  0  0  0  0  0  0  0  0  0  0
  -22.7196  -14.5218   20.5411 C   0  0  0  0  0  0  0  0  0  0  0  0
  -23.6375  -19.3678   19.3927 C   0  0  0  0  0  0  0  0  0  0  0  0
  -31.0045  -29.2759   22.6868 C   0  0  0  0  0  0  0  0  0  0  0  0
  -29.9355  -27.3485   23.6765 C   0  0  0  0  0  0  0  0  0  0  0  0
  -22.8776  -20.3333   20.0516 C   0  0  0  0  0  0  0  0  0  0  0  0
  -32.4721  -26.3866   26.0970 C   0  0  0  0  0  0  0  0  0  0  0  0
  -33.0080  -25.1239   26.3498 C   0  0  0  0  0  0  0  0  0  0  0  0
  -20.6265  -26.7356   22.9384 C   0  0  0  0  0  0  0  0  0  0  0  0
  -18.2582  -26.4884   23.3472 C   0  0  0  0  0  0  0  0  0  0  0  0
  -24.7098  -20.7309   21.5695 C   0  0  0  0  0  0  0  0  0  0  0  0
  -19.1175  -28.5542   22.4355 C   0  0  0  0  0  0  0  0  0  0  0  0
  -33.6482  -24.9308   24.0281 C   0  0  0  0  0  0  0  0  0  0  0  0
  -28.9227  -28.4507   21.7801 C   0  0  0  0  0  0  0  0  0  0  0  0
  -19.5507  -25.9646   23.3786 C   0  0  0  0  0  0  0  0  0  0  0  0
  -27.7965  -27.9297   19.5512 C   0  0  0  0  0  0  0  0  0  0  0  0
  -23.9224  -12.5012   19.9427 C   0  0  0  0  0  0  0  0  0  0  0  0
  -24.9376  -19.0684   19.8248 C   0  0  0  0  0  0  0  0  0  0  0  0
  -23.9025  -13.7636   20.5658 C   0  0  0  0  0  0  0  0  0  0  0  0
  -25.4851  -19.7631   20.9128 C   0  0  0  0  0  0  0  0  0  0  0  0
  -20.4099  -28.0304   22.4669 C   0  0  0  0  0  0  0  0  0  0  0  0
  -30.9858  -28.2660   23.6488 C   0  0  0  0  0  0  0  0  0  0  0  0
  -23.4126  -21.0129   21.1420 C   0  0  0  0  0  0  0  0  0  0  0  0
  -32.5241  -26.9214   24.8097 C   0  0  0  0  0  0  0  0  0  0  0  0
  -33.5961  -24.3960   25.3154 C   0  0  0  0  0  0  0  0  0  0  0  0
  -18.0416  -27.7832   22.8756 C   0  0  0  0  0  0  0  0  0  0  0  0
  -33.1122  -26.1935   23.7753 C   0  0  0  0  0  0  0  0  0  0  0  0
  -27.8565  -28.5459   20.8156 C   0  0  0  0  0  0  0  0  0  0  0  0
  -26.5902  -28.3305   19.0309 C   0  0  0  0  0  0  0  0  0  0  0  0
  -28.7462  -27.0717   18.9050 C   0  0  0  0  0  0  0  0  0  0  0  0
  -19.7809  -24.5872   23.8831 C   0  0  0  0  0  0  0  0  0  0  0  0
  -26.3834  -16.4738   20.9566 C   0  0  0  0  0  0  0  0  0  0  0  0
  -29.0308  -18.3376   20.7569 C   0  0  0  0  0  0  0  0  0  0  0  0
  -20.6904  -22.4000   23.0147 C   0  0  0  0  0  0  0  0  0  0  0  0
  -30.3637  -21.4783   20.6789 C   0  0  0  0  0  0  0  0  0  0  0  0
  -21.4608  -30.1159   21.5220 C   0  0  0  0  0  0  0  0  0  0  0  0
  -25.1457  -11.6197   19.9750 C   0  0  0  0  0  0  0  0  0  0  0  0
  -25.7541  -18.0433   19.0867 C   0  0  0  0  0  0  0  0  0  0  0  0
  -26.8833  -19.4932   21.4035 C   0  0  0  0  0  0  0  0  0  0  0  0
  -26.4274  -12.3693   20.3296 C   0  0  0  0  0  0  0  0  0  0  0  0
  -23.4520  -31.9438   19.2044 C   0  0  0  0  0  0  0  0  0  0  0  0
  -26.1989  -13.2777   21.5335 C   0  0  0  0  0  0  0  0  0  0  0  0
  -24.8001  -31.2200   19.2350 C   0  0  0  0  0  0  0  0  0  0  0  0
  -22.8004  -31.9876   20.5855 C   0  0  0  0  0  0  0  0  0  0  0  0
  -24.0170  -29.9618   21.2821 C   0  0  0  0  0  0  0  0  0  0  0  0
  -25.1347  -14.3391   21.2297 C   0  0  1  0  0  0  0  0  0  0  0  0
  -26.8794  -17.4544   19.9319 C   0  0  1  0  0  0  0  0  0  0  0  0
  -24.6814  -29.8354   19.9014 C   0  0  2  0  0  0  0  0  0  0  0  0
  -32.5613  -22.6830   20.5491 C   0  0  0  0  0  0  0  0  0  0  0  0
  -29.5603  -17.6828   23.6897 C   0  0  0  0  0  0  0  0  0  0  0  0
  -31.1587  -19.6086   23.7588 C   0  0  0  0  0  0  0  0  0  0  0  0
  -31.5957  -17.6814   22.2365 C   0  0  0  0  0  0  0  0  0  0  0  0
  -29.6235  -22.7952   18.1339 C   0  0  0  0  0  0  0  0  0  0  0  0
  -21.2567  -21.7786   21.7915 C   0  0  0  0  0  0  0  0  0  1  0  0
  -29.7334  -19.2997   21.6842 C   0  0  1  0  0  0  0  0  0  0  0  0
  -31.3922  -22.1136   19.7606 C   0  0  2  0  0  0  0  0  0  0  0  0
  -30.4849  -18.5721   22.8345 C   0  0  0  0  0  0  0  0  0  0  0  0
  -26.7745  -29.2822   21.0822 N   0  0  0  0  0  0  0  0  0  0  0  0
  -26.0233  -29.1314   19.9781 N   0  0  0  0  0  0  0  0  0  0  0  0
  -27.6396  -18.4774   20.6527 N   0  0  0  0  0  0  0  0  0  0  0  0
  -22.7177  -30.6401   21.1531 N   0  0  0  0  0  0  0  0  0  0  0  0
  -25.9698  -28.0725   17.8600 N   0  0  0  0  0  0  0  0  0  0  0  0
  -29.9340  -26.7609   19.5808 N   0  0  0  0  0  0  0  0  0  0  0  0
  -20.6179  -21.5989   24.0728 N   0  0  0  0  0  0  0  0  0  0  0  0
  -21.5025  -28.8139   22.0195 N   0  0  0  0  0  0  0  0  0  0  0  0
  -25.6960  -15.4009   20.4222 N   0  0  0  0  0  0  0  0  0  0  0  0
  -30.5891  -20.1277   20.8413 N   0  0  0  0  0  0  0  0  0  0  0  0
  -19.4555  -24.2700   25.0853 N   0  3  0  0  0  0  0  0  0  0  0  0
  -20.3521  -23.6886   22.9001 N   0  3  0  0  0  0  0  0  0  0  0  0
  -30.7728  -23.2181   18.9749 N   0  3  0  0  0  0  0  0  0  0  0  0
  -28.5546  -26.6081   17.7553 O   0  0  0  0  0  0  0  0  0  0  0  0
  -26.6091  -16.6749   22.1442 O   0  0  0  0  0  0  0  0  0  0  0  0
  -29.6929  -17.4978   20.1421 O   0  0  0  0  0  0  0  0  0  0  0  0
  -29.4539  -22.1171   21.2030 O   0  0  0  0  0  0  0  0  0  0  0  0
  -20.4205  -30.7637   21.3799 O   0  0  0  0  0  0  0  0  0  0  0  0
  -31.9923  -28.1755   24.5605 O   0  0  0  0  0  0  0  0  0  0  0  0
  -22.6727  -21.9553   21.7873 O   0  0  0  0  0  0  0  0  0  1  0  0
  -34.1121  -23.1841   25.5586 F   0  0  0  0  0  0  0  0  0  0  0  0
  -16.8010  -28.2872   22.8482 F   0  0  0  0  0  0  0  0  0  0  0  0
  -33.1663  -26.7026   22.5369 F   0  0  0  0  0  0  0  0  0  0  0  0
  1  2  1  0  0  0  0
  1  5  2  0  0  0  0
  2  6  2  0  0  0  0
  3  8  2  0  0  0  0
  3 18  1  0  0  0  0
  4  9  1  0  0  0  0
  4 18  2  0  0  0  0
  5 21  1  0  0  0  0
  6 23  1  0  0  0  0
  7 10  2  0  0  0  0
  7 22  1  0  0  0  0
  8 26  1  0  0  0  0
  9 26  2  0  0  0  0
 10 27  1  0  0  0  0
 11 12  2  0  0  0  0
 11 28  1  0  0  0  0
 12 29  1  0  0  0  0
 13 19  2  0  0  0  0
 13 25  1  0  0  0  0
 14 19  1  0  0  0  0
 14 30  2  0  0  0  0
 15 24  1  0  0  0  0
 15 27  2  0  0  0  0
 16 25  2  0  0  0  0
 16 30  1  0  0  0  0
 17 29  2  0  0  0  0
 17 31  1  0  0  0  0
 18 32  1  0  0  0  0
 19 35  1  0  0  0  0
 20 32  1  0  0  0  0
 20 33  2  0  0  0  0
 20 34  1  0  0  0  0
 21 23  2  0  0  0  0
 21 41  1  0  0  0  0
 22 24  2  0  0  0  0
 22 42  1  0  0  0  0
 23 50  1  0  0  0  0
 24 43  1  0  0  0  0
 25 69  1  0  0  0  0
 26 80  1  0  0  0  0
 27 81  1  0  0  0  0
 28 31  2  0  0  0  0
 28 80  1  0  0  0  0
 29 82  1  0  0  0  0
 30 83  1  0  0  0  0
 31 84  1  0  0  0  0
 32 62  2  0  0  0  0
 33 63  1  0  0  0  0
 33 66  1  0  0  0  0
 34 67  1  0  0  0  0
 34 75  2  0  0  0  0
 35 72  2  0  0  0  0
 35 73  1  0  0  0  0
 36 51  1  0  0  0  0
 36 70  1  0  0  0  0
 36 76  2  0  0  0  0
 37 59  1  0  0  0  0
 37 64  1  0  0  0  0
 37 77  2  0  0  0  0
 38 58  1  0  0  0  0
 38 68  1  0  0  0  0
 38 73  2  0  0  0  0
 39 60  1  0  0  0  0
 39 71  1  0  0  0  0
 39 78  2  0  0  0  0
 40 65  1  0  0  0  0
 40 69  1  0  0  0  0
 40 79  2  0  0  0  0
 41 44  1  0  0  0  0
 42 51  1  0  0  0  0
 43 64  1  0  0  0  0
 44 46  1  0  0  0  0
 45 47  1  0  0  0  0
 45 48  1  0  0  0  0
 46 50  1  0  0  0  0
 47 52  1  0  0  0  0
 48 65  1  0  0  0  0
 49 52  1  0  0  0  0
 49 65  1  0  0  0  0
 50 70  1  0  0  0  0
 51 64  1  0  0  0  0
 52 63  1  0  0  0  0
 53 60  1  0  0  0  0
 54 61  1  0  0  0  0
 55 61  1  0  0  0  0
 56 61  1  0  0  0  0
 57 74  1  0  0  0  0
 58 81  1  0  0  0  0
 59 61  1  0  0  0  0
 59 71  1  0  0  0  0
 60 74  1  0  0  0  0
 62 63  1  0  0  0  0
M  CHG  3  72   1  73   1  74   1
M  ISO  4  40 100  58 101  69 100  81 101
M  END
> <Batch ID>
0157

> <Smiles>
CNC(C)C(=O)NC(C(=O)N1Cc2cc([101O:1][101CH2:1]C(=N)NC(=N)c3cc(F)cc([100NH:0][100C:0](=O)N4CCCC(n5nc(-c6ccc(Oc7ccc(F)cc7F)cc6)c(C(N)=O)c5N)C4)c3)ccc2CC1C(=O)NC1CCCc2ccccc21)C(C)(C)C

> <Shape>
0.222

> <Color>
0.078

> <Negative vol penalty>
0.000

$$$$

  -OEChem-04052303413D

 82 90  0     1  0  0  0  0  0999 V2000
  -18.9974  -26.2380   19.3364 C   0  0  0  0  0  0  0  0  0  0  0  0
  -19.8716  -25.3147   19.9008 C   0  0  0  0  0  0  0  0  0  0  0  0
  -23.0800   -9.8638   19.9283 C   0  0  0  0  0  0  0  0  0  0  0  0
  -23.8566   -9.8429   22.2159 C   0  0  0  0  0  0  0  0  0  0  0  0
  -19.0032  -27.5610   19.7764 C   0  0  0  0  0  0  0  0  0  0  0  0
  -20.7529  -25.7141   20.9049 C   0  0  0  0  0  0  0  0  0  0  0  0
  -22.6353  -22.3864   25.6891 C   0  0  0  0  0  0  0  0  0  0  0  0
  -22.3441   -8.7033   20.1674 C   0  0  0  0  0  0  0  0  0  0  0  0
  -23.1206   -8.6823   22.4551 C   0  0  0  0  0  0  0  0  0  0  0  0
  -23.7947  -21.6472   25.9195 C   0  0  0  0  0  0  0  0  0  0  0  0
  -19.9012   -7.8587   23.0697 C   0  0  0  0  0  0  0  0  0  0  0  0
  -19.1531   -7.7983   24.2454 C   0  0  0  0  0  0  0  0  0  0  0  0
  -24.7564  -23.5294   27.0821 C   0  0  0  0  0  0  0  0  0  0  0  0
  -29.8889  -17.4515   23.1911 C   0  0  0  0  0  0  0  0  0  0  0  0
  -20.4101   -5.8575   24.9456 C   0  0  0  0  0  0  0  0  0  0  0  0
  -32.0383  -16.6346   22.5832 C   0  0  0  0  0  0  0  0  0  0  0  0
  -31.8869  -18.2759   24.1836 C   0  0  0  0  0  0  0  0  0  0  0  0
  -23.8363  -10.4336   20.9525 C   0  0  0  0  0  0  0  0  0  0  0  0
  -24.1638  -12.9620   20.8654 C   0  0  0  0  0  0  0  0  0  0  0  0
  -19.8784  -27.9746   20.7931 C   0  0  0  0  0  0  0  0  0  0  0  0
  -22.5318  -23.7085   26.1448 C   0  0  0  0  0  0  0  0  0  0  0  0
  -20.7714  -27.0441   21.3579 C   0  0  0  0  0  0  0  0  0  0  0  0
  -23.5936  -24.2823   26.8585 C   0  0  0  0  0  0  0  0  0  0  0  0
  -30.6632  -16.5936   22.4179 C   0  0  0  0  0  0  0  0  0  0  0  0
  -30.5047  -18.3120   24.0932 C   0  0  0  0  0  0  0  0  0  0  0  0
  -22.3644   -8.1126   21.4308 C   0  0  0  0  0  0  0  0  0  0  0  0
  -24.8566  -22.2196   26.6136 C   0  0  0  0  0  0  0  0  0  0  0  0
  -20.9038   -6.9185   22.8319 C   0  0  0  0  0  0  0  0  0  0  0  0
  -19.4075   -6.7978   25.1833 C   0  0  0  0  0  0  0  0  0  0  0  0
  -21.1582   -5.9179   23.7699 C   0  0  0  0  0  0  0  0  0  0  0  0
  -24.5971  -11.6321   20.7059 C   0  0  0  0  0  0  0  0  0  0  0  0
  -25.2493  -13.7224   20.5048 C   0  0  0  0  0  0  0  0  0  0  0  0
  -22.8937  -13.4650   21.3007 C   0  0  0  0  0  0  0  0  0  0  0  0
  -22.1483  -26.5386   24.7493 C   0  0  0  0  0  0  0  0  0  0  0  0
  -27.8359  -20.3080   25.8181 C   0  0  0  0  0  0  0  0  0  0  0  0
  -21.9069  -27.5799   27.8119 C   0  0  0  0  0  0  0  0  0  0  0  0
  -22.6262  -27.0737   31.1094 C   0  0  0  0  0  0  0  0  0  0  0  0
  -30.7110  -14.7950   20.6546 C   0  0  0  0  0  0  0  0  0  0  0  0
  -19.8810  -29.4261   21.2027 C   0  0  0  0  0  0  0  0  0  0  0  0
  -21.2639  -24.4835   25.9115 C   0  0  0  0  0  0  0  0  0  0  0  0
  -23.5246  -25.6912   27.3864 C   0  0  0  0  0  0  0  0  0  0  0  0
  -20.5858  -29.6826   22.5322 C   0  0  0  0  0  0  0  0  0  0  0  0
  -29.5921  -12.4086   18.2609 C   0  0  0  0  0  0  0  0  0  0  0  0
  -21.9230  -28.9500   22.5776 C   0  0  0  0  0  0  0  0  0  0  0  0
  -28.1572  -12.1032   18.6967 C   0  0  0  0  0  0  0  0  0  0  0  0
  -30.5148  -12.6255   19.4590 C   0  0  0  0  0  0  0  0  0  0  0  0
  -28.6141  -13.3202   20.8640 C   0  0  0  0  0  0  0  0  0  0  0  0
  -21.7251  -27.4334   22.4665 C   0  0  1  0  0  0  0  0  0  0  0  0
  -21.4672  -25.9942   25.9730 C   0  0  1  0  0  0  0  0  0  0  0  0
  -27.6337  -13.1582   19.6909 C   0  0  2  0  0  0  0  0  0  0  0  0
  -22.3299  -28.1160   33.3728 C   0  0  0  0  0  0  0  0  0  0  0  0
  -24.0987  -29.6017   27.1652 C   0  0  0  0  0  0  0  0  0  0  0  0
  -24.4188  -29.9370   29.6255 C   0  0  0  0  0  0  0  0  0  0  0  0
  -22.2316  -30.4996   28.5660 C   0  0  0  0  0  0  0  0  0  0  0  0
  -21.0838  -24.7522   32.1047 C   0  0  0  0  0  0  0  0  0  0  0  0
  -28.3211  -19.2663   24.8325 C   0  0  0  0  0  0  0  0  0  0  0  0
  -26.3340  -20.5101   25.8713 C   0  0  0  0  0  0  0  0  0  1  0  0
  -22.8821  -28.0734   28.8534 C   0  0  1  0  0  0  0  0  0  0  0  0
  -21.7575  -27.1446   32.3523 C   0  0  2  0  0  0  0  0  0  0  0  0
  -23.4102  -29.5020   28.5410 C   0  0  0  0  0  0  0  0  0  0  0  0
  -32.6723  -17.4565   23.4491 N   0  0  0  0  0  0  0  0  0  0  0  0
  -25.8594  -11.5490   20.2772 N   0  0  0  0  0  0  0  0  0  0  0  0
  -26.2285  -12.8363   20.1642 N   0  0  0  0  0  0  0  0  0  0  0  0
  -22.2664  -26.4104   27.1273 N   0  0  0  0  0  0  0  0  0  0  0  0
  -29.9567  -13.6409   20.3547 N   0  0  0  0  0  0  0  0  0  0  0  0
  -25.4521  -15.0559   20.4489 N   0  0  0  0  0  0  0  0  0  0  0  0
  -21.8891  -12.5458   21.6325 N   0  0  0  0  0  0  0  0  0  0  0  0
  -30.0647  -15.7050   21.4906 N   0  0  0  0  0  0  0  0  0  0  0  0
  -29.7583  -19.1793   24.8779 N   0  0  0  0  0  0  0  0  0  0  0  0
  -21.2815  -26.8876   23.7313 N   0  0  0  0  0  0  0  0  0  0  0  0
  -22.2013  -27.9556   30.1383 N   0  0  0  0  0  0  0  0  0  0  0  0
  -21.6536  -25.8012   32.9890 N   0  3  0  0  0  0  0  0  0  0  0  0
  -22.6513  -14.6934   21.3770 O   0  0  0  0  0  0  0  0  0  0  0  0
  -23.3697  -26.6361   24.7307 O   0  0  0  0  0  0  0  0  0  0  0  0
  -28.6005  -20.9541   26.5335 O   0  0  0  0  0  0  0  0  0  0  0  0
  -20.8613  -28.2051   27.6182 O   0  0  0  0  0  0  0  0  0  0  0  0
  -23.5879  -26.3148   31.0113 O   0  0  0  0  0  0  0  0  0  0  0  0
  -31.8357  -14.9764   20.1813 O   0  0  0  0  0  0  0  0  0  0  0  0
  -21.6462   -6.9802   21.6646 O   0  0  0  0  0  0  0  0  0  0  0  0
  -25.9897  -21.5006   26.8392 O   0  0  0  0  0  0  0  0  0  1  0  0
  -18.6900   -6.7408   26.3130 F   0  0  0  0  0  0  0  0  0  0  0  0
  -22.1209   -5.0126   23.5476 F   0  0  0  0  0  0  0  0  0  0  0  0
  1  2  1  0  0  0  0
  1  5  2  0  0  0  0
  2  6  2  0  0  0  0
  3  8  2  0  0  0  0
  3 18  1  0  0  0  0
  4  9  1  0  0  0  0
  4 18  2  0  0  0  0
  5 20  1  0  0  0  0
  6 22  1  0  0  0  0
  7 10  2  0  0  0  0
  7 21  1  0  0  0  0
  8 26  1  0  0  0  0
  9 26  2  0  0  0  0
 10 27  1  0  0  0  0
 11 12  2  0  0  0  0
 11 28  1  0  0  0  0
 12 29  1  0  0  0  0
 13 23  1  0  0  0  0
 13 27  2  0  0  0  0
 14 24  1  0  0  0  0
 14 25  2  0  0  0  0
 15 29  2  0  0  0  0
 15 30  1  0  0  0  0
 16 24  2  0  0  0  0
 16 61  1  0  0  0  0
 17 25  1  0  0  0  0
 17 61  2  0  0  0  0
 18 31  1  0  0  0  0
 19 31  1  0  0  0  0
 19 32  2  0  0  0  0
 19 33  1  0  0  0  0
 20 22  2  0  0  0  0
 20 39  1  0  0  0  0
 21 23  2  0  0  0  0
 21 40  1  0  0  0  0
 22 48  1  0  0  0  0
 23 41  1  0  0  0  0
 24 68  1  0  0  0  0
 25 69  1  0  0  0  0
 26 79  1  0  0  0  0
 27 80  1  0  0  0  0
 28 30  2  0  0  0  0
 28 79  1  0  0  0  0
 29 81  1  0  0  0  0
 30 82  1  0  0  0  0
 31 62  2  0  0  0  0
 32 63  1  0  0  0  0
 32 66  1  0  0  0  0
 33 67  1  0  0  0  0
 33 73  2  0  0  0  0
 34 49  1  0  0  0  0
 34 70  1  0  0  0  0
 34 74  2  0  0  0  0
 35 56  1  0  0  0  0
 35 57  1  0  0  0  0
 35 75  2  0  0  0  0
 36 58  1  0  0  0  0
 36 64  1  0  0  0  0
 36 76  2  0  0  0  0
 37 59  1  0  0  0  0
 37 71  1  0  0  0  0
 37 77  2  0  0  0  0
 38 65  1  0  0  0  0
 38 68  1  0  0  0  0
 38 78  2  0  0  0  0
 39 42  1  0  0  0  0
 40 49  1  0  0  0  0
 41 64  1  0  0  0  0
 42 44  1  0  0  0  0
 43 45  1  0  0  0  0
 43 46  1  0  0  0  0
 44 48  1  0  0  0  0
 45 50  1  0  0  0  0
 46 65  1  0  0  0  0
 47 50  1  0  0  0  0
 47 65  1  0  0  0  0
 48 70  1  0  0  0  0
 49 64  1  0  0  0  0
 50 63  1  0  0  0  0
 51 59  1  0  0  0  0
 52 60  1  0  0  0  0
 53 60  1  0  0  0  0
 54 60  1  0  0  0  0
 55 72  1  0  0  0  0
 56 69  1  0  0  0  0
 57 80  1  0  0  0  0
 58 60  1  0  0  0  0
 58 71  1  0  0  0  0
 59 72  1  0  0  0  0
 62 63  1  0  0  0  0
M  CHG  1  72   1
M  ISO  4  38 100  57 101  68 100  80 101
M  END
> <Batch ID>
0157

> <Smiles>
CNC(C)C(=O)NC(C(=O)N1Cc2cc([101O:1][101CH2:1]C(=O)CNc3cncc([100NH:0][100C:0](=O)N4CCCC(n5nc(-c6ccc(Oc7ccc(F)cc7F)cc6)c(C(N)=O)c5N)C4)c3)ccc2CC1C(=O)NC1CCCc2ccccc21)C(C)(C)C

> <Shape>
0.218

> <Color>
0.188

> <Negative vol penalty>
0.000

$$$$

  -OEChem-04052303413D

 85 94  0     1  0  0  0  0  0999 V2000
  -23.5121  -28.6603   16.8277 C   0  0  0  0  0  0  0  0  0  0  0  0
  -23.7207  -27.7475   17.8566 C   0  0  0  0  0  0  0  0  0  0  0  0
  -32.6574  -17.4825   23.4581 C   0  0  0  0  0  0  0  0  0  0  0  0
  -23.0723   -9.8719   19.9409 C   0  0  0  0  0  0  0  0  0  0  0  0
  -23.8315   -9.8774   22.2346 C   0  0  0  0  0  0  0  0  0  0  0  0
  -31.8608  -18.3502   24.2051 C   0  0  0  0  0  0  0  0  0  0  0  0
  -22.9634  -28.2333   15.6191 C   0  0  0  0  0  0  0  0  0  0  0  0
  -23.3796  -26.4072   17.6780 C   0  0  0  0  0  0  0  0  0  0  0  0
  -26.9662  -23.2498   19.3548 C   0  0  0  0  0  0  0  0  0  0  0  0
  -32.0683  -16.5996   22.5530 C   0  0  0  0  0  0  0  0  0  0  0  0
  -22.3267   -8.7198   20.1905 C   0  0  0  0  0  0  0  0  0  0  0  0
  -23.0858   -8.7253   22.4841 C   0  0  0  0  0  0  0  0  0  0  0  0
  -27.0376  -23.0406   20.7313 C   0  0  0  0  0  0  0  0  0  0  0  0
  -19.3769   -7.9272   21.6407 C   0  0  0  0  0  0  0  0  0  0  0  0
  -18.0701   -7.8829   21.1550 C   0  0  0  0  0  0  0  0  0  0  0  0
  -29.8858  -17.4518   23.1424 C   0  0  0  0  0  0  0  0  0  0  0  0
  -25.8470  -20.9589   20.4707 C   0  0  0  0  0  0  0  0  0  0  0  0
  -18.6274   -5.9393   19.8326 C   0  0  0  0  0  0  0  0  0  0  0  0
  -23.8247  -10.4507   20.9630 C   0  0  0  0  0  0  0  0  0  0  0  0
  -30.4750  -18.3348   24.0473 C   0  0  0  0  0  0  0  0  0  0  0  0
  -24.1702  -12.9754   20.8435 C   0  0  0  0  0  0  0  0  0  0  0  0
  -22.6244  -26.8853   15.4222 C   0  0  0  0  0  0  0  0  0  0  0  0
  -26.3241  -22.3188   18.5257 C   0  0  0  0  0  0  0  0  0  0  0  0
  -22.8246  -25.9621   16.4661 C   0  0  0  0  0  0  0  0  0  0  0  0
  -25.7711  -21.1573   19.0836 C   0  0  0  0  0  0  0  0  0  0  0  0
  -30.6825  -16.5842   22.3952 C   0  0  0  0  0  0  0  0  0  0  0  0
  -22.3334   -8.1465   21.4620 C   0  0  0  0  0  0  0  0  0  0  0  0
  -26.4754  -21.8965   21.2898 C   0  0  0  0  0  0  0  0  0  0  0  0
  -20.3090   -6.9775   21.2223 C   0  0  0  0  0  0  0  0  0  0  0  0
  -17.6953   -6.8889   20.2510 C   0  0  0  0  0  0  0  0  0  0  0  0
  -19.9343   -5.9836   20.3183 C   0  0  0  0  0  0  0  0  0  0  0  0
  -24.5956  -11.6406   20.7057 C   0  0  0  0  0  0  0  0  0  0  0  0
  -25.2635  -13.7234   20.4807 C   0  0  0  0  0  0  0  0  0  0  0  0
  -29.6324  -19.2515   24.8359 C   0  0  0  0  0  0  0  0  0  0  0  0
  -22.9003  -13.4930   21.2621 C   0  0  0  0  0  0  0  0  0  0  0  0
  -23.8021  -22.4010   16.5927 C   0  0  0  0  0  0  0  0  0  0  0  0
  -24.7733  -19.3998   15.8365 C   0  0  0  0  0  0  0  0  0  0  0  0
  -26.4830  -16.5912   16.7507 C   0  0  0  0  0  0  0  0  0  0  0  0
  -30.7312  -14.7612   20.6573 C   0  0  0  0  0  0  0  0  0  0  0  0
  -21.9902  -26.4798   14.1153 C   0  0  0  0  0  0  0  0  0  0  0  0
  -26.2791  -22.5460   17.0395 C   0  0  0  0  0  0  0  0  0  0  0  0
  -25.0885  -20.1172   18.2346 C   0  0  0  0  0  0  0  0  0  0  0  0
  -22.0036  -24.9726   13.8735 C   0  0  0  0  0  0  0  0  0  0  0  0
  -29.6140  -12.3494   18.2882 C   0  0  0  0  0  0  0  0  0  0  0  0
  -21.5465  -24.2273   15.1235 C   0  0  0  0  0  0  0  0  0  0  0  0
  -28.1739  -12.0598   18.7173 C   0  0  0  0  0  0  0  0  0  0  0  0
  -30.5291  -12.5766   19.4902 C   0  0  0  0  0  0  0  0  0  0  0  0
  -28.6228  -13.3036   20.8710 C   0  0  0  0  0  0  0  0  0  0  0  0
  -28.6793  -20.3783   22.8151 C   0  0  0  0  0  0  0  0  0  0  0  0
  -22.4906  -24.4953   16.3018 C   0  0  1  0  0  0  0  0  0  0  0  0
  -25.1506  -21.7832   16.3524 C   0  0  1  0  0  0  0  0  0  0  0  0
  -27.6501  -13.1319   19.6929 C   0  0  2  0  0  0  0  0  0  0  0  0
  -27.8444  -21.6072   23.2129 C   0  0  2  0  0  0  0  0  0  1  0  0
  -27.9321  -21.1133   24.6853 C   0  0  0  0  0  0  0  0  0  0  0  0
  -26.6887  -20.4537   25.2656 C   0  0  0  0  0  0  0  0  0  0  0  0
  -28.5847  -22.1020   25.6406 C   0  0  0  0  0  0  0  0  0  0  0  0
  -27.0670  -14.2892   15.9402 C   0  0  0  0  0  0  0  0  0  0  0  0
  -21.9470  -18.4548   16.4916 C   0  0  0  0  0  0  0  0  0  0  0  0
  -22.8279  -16.1134   16.5915 C   0  0  0  0  0  0  0  0  0  0  0  0
  -22.9542  -17.4017   14.4591 C   0  0  0  0  0  0  0  0  0  0  0  0
  -29.3826  -17.1819   16.8042 C   0  0  0  0  0  0  0  0  0  0  0  0
  -24.4887  -18.0172   16.3719 C   0  0  1  0  0  0  0  0  0  0  0  0
  -27.5011  -15.7451   16.0077 C   0  0  2  0  0  0  0  0  0  0  0  0
  -23.0656  -17.5172   15.9950 C   0  0  0  0  0  0  0  0  0  0  0  0
  -25.8605  -11.5430   20.2878 N   0  0  0  0  0  0  0  0  0  0  0  0
  -26.2392  -12.8260   20.1598 N   0  0  0  0  0  0  0  0  0  0  0  0
  -28.8747  -20.1168   24.2188 N   0  0  0  0  0  0  0  0  0  0  0  0
  -25.0646  -20.3877   16.7877 N   0  0  0  0  0  0  0  0  0  0  0  0
  -29.9713  -13.6081   20.3676 N   0  0  0  0  0  0  0  0  0  0  0  0
  -25.4759  -15.0546   20.4080 N   0  0  0  0  0  0  0  0  0  0  0  0
  -21.8870  -12.5852   21.5989 N   0  0  0  0  0  0  0  0  0  0  0  0
  -30.0849  -15.6870   21.4757 N   0  0  0  0  0  0  0  0  0  0  0  0
  -23.7003  -23.7121   16.1684 N   0  0  0  0  0  0  0  0  0  0  0  0
  -25.5691  -17.1629   15.8910 N   0  0  0  0  0  0  0  0  0  0  0  0
  -29.6559  -19.1815   26.1636 N   0  3  0  0  0  0  0  0  0  0  0  0
  -28.8247  -15.8098   16.6893 N   0  3  0  0  0  0  0  0  0  0  0  0
  -22.6658  -14.7239   21.3196 O   0  0  0  0  0  0  0  0  0  0  0  0
  -22.9190  -21.7368   17.1224 O   0  0  0  0  0  0  0  0  0  0  0  0
  -24.7454  -19.5942   14.6187 O   0  0  0  0  0  0  0  0  0  0  0  0
  -26.4950  -16.7282   17.9720 O   0  0  0  0  0  0  0  0  0  0  0  0
  -31.8606  -14.9283   20.1901 O   0  0  0  0  0  0  0  0  0  0  0  0
  -21.6058   -7.0224   21.7059 O   0  0  0  0  0  0  0  0  0  0  0  0
  -26.5430  -21.6902   22.6332 O   0  0  0  0  0  0  0  0  0  1  0  0
  -16.4399   -6.8456   19.7859 F   0  0  0  0  0  0  0  0  0  0  0  0
  -20.8250   -5.0678   19.9135 F   0  0  0  0  0  0  0  0  0  0  0  0
  1  2  1  0  0  0  0
  1  7  2  0  0  0  0
  2  8  2  0  0  0  0
  3  6  2  0  0  0  0
  3 10  1  0  0  0  0
  4 11  2  0  0  0  0
  4 19  1  0  0  0  0
  5 12  1  0  0  0  0
  5 19  2  0  0  0  0
  6 20  1  0  0  0  0
  7 22  1  0  0  0  0
  8 24  1  0  0  0  0
  9 13  2  0  0  0  0
  9 23  1  0  0  0  0
 10 26  2  0  0  0  0
 11 27  1  0  0  0  0
 12 27  2  0  0  0  0
 13 28  1  0  0  0  0
 14 15  2  0  0  0  0
 14 29  1  0  0  0  0
 15 30  1  0  0  0  0
 16 20  2  0  0  0  0
 16 26  1  0  0  0  0
 17 25  1  0  0  0  0
 17 28  2  0  0  0  0
 18 30  2  0  0  0  0
 18 31  1  0  0  0  0
 19 32  1  0  0  0  0
 20 34  1  0  0  0  0
 21 32  1  0  0  0  0
 21 33  2  0  0  0  0
 21 35  1  0  0  0  0
 22 24  2  0  0  0  0
 22 40  1  0  0  0  0
 23 25  2  0  0  0  0
 23 41  1  0  0  0  0
 24 50  1  0  0  0  0
 25 42  1  0  0  0  0
 26 72  1  0  0  0  0
 27 82  1  0  0  0  0
 28 83  1  0  0  0  0
 29 31  2  0  0  0  0
 29 82  1  0  0  0  0
 30 84  1  0  0  0  0
 31 85  1  0  0  0  0
 32 65  2  0  0  0  0
 33 66  1  0  0  0  0
 33 70  1  0  0  0  0
 34 67  1  0  0  0  0
 34 75  2  0  0  0  0
 35 71  1  0  0  0  0
 35 77  2  0  0  0  0
 36 51  1  0  0  0  0
 36 73  1  0  0  0  0
 36 78  2  0  0  0  0
 37 62  1  0  0  0  0
 37 68  1  0  0  0  0
 37 79  2  0  0  0  0
 38 63  1  0  0  0  0
 38 74  1  0  0  0  0
 38 80  2  0  0  0  0
 39 69  1  0  0  0  0
 39 72  1  0  0  0  0
 39 81  2  0  0  0  0
 40 43  1  0  0  0  0
 41 51  1  0  0  0  0
 42 68  1  0  0  0  0
 43 45  1  0  0  0  0
 44 46  1  0  0  0  0
 44 47  1  0  0  0  0
 45 50  1  0  0  0  0
 46 52  1  0  0  0  0
 47 69  1  0  0  0  0
 48 52  1  0  0  0  0
 48 69  1  0  0  0  0
 49 53  1  0  0  0  0
 49 67  1  0  0  0  0
 50 73  1  0  0  0  0
 51 68  1  0  0  0  0
 52 66  1  0  0  0  0
 53 54  1  0  0  0  0
 53 83  1  0  0  0  0
 54 55  1  0  0  0  0
 54 56  1  0  0  0  0
 54 67  1  0  0  0  0
 57 63  1  0  0  0  0
 58 64  1  0  0  0  0
 59 64  1  0  0  0  0
 60 64  1  0  0  0  0
 61 76  1  0  0  0  0
 62 64  1  0  0  0  0
 62 74  1  0  0  0  0
 63 76  1  0  0  0  0
 65 66  1  0  0  0  0
M  CHG  2  75   1  76   1
M  ISO  4  39 100  53 101  72 100  83 101
M  END
> <Batch ID>
0157

> <Smiles>
CNC(C)C(=O)NC(C(=O)N1Cc2cc([101O:1][101CH:1]3CN(C(=N)c4cccc([100NH:0][100C:0](=O)N5CCCC(n6nc(-c7ccc(Oc8ccc(F)cc8F)cc7)c(C(N)=O)c6N)C5)c4)C3(C)C)ccc2CC1C(=O)NC1CCCc2ccccc21)C(C)(C)C

> <Shape>
0.159

> <Color>
0.184

> <Negative vol penalty>
0.000

$$$$

  -OEChem-04052303413D

 84 92  0     1  0  0  0  0  0999 V2000
  -28.8711  -33.7953   15.6904 C   0  0  0  0  0  0  0  0  0  0  0  0
  -29.0272  -32.7256   16.5660 C   0  0  0  0  0  0  0  0  0  0  0  0
  -22.6055  -10.4650   21.8270 C   0  0  0  0  0  0  0  0  0  0  0  0
  -24.6478   -9.6080   20.8617 C   0  0  0  0  0  0  0  0  0  0  0  0
  -28.0632  -34.8743   16.0468 C   0  0  0  0  0  0  0  0  0  0  0  0
  -28.3763  -32.7348   17.7992 C   0  0  0  0  0  0  0  0  0  0  0  0
  -26.1960  -28.2933   18.8782 C   0  0  0  0  0  0  0  0  0  0  0  0
  -22.0334   -9.1956   21.7436 C   0  0  0  0  0  0  0  0  0  0  0  0
  -24.0757   -8.3385   20.7784 C   0  0  0  0  0  0  0  0  0  0  0  0
  -27.0267  -27.2699   19.3325 C   0  0  0  0  0  0  0  0  0  0  0  0
  -22.1581   -6.2890   23.4667 C   0  0  0  0  0  0  0  0  0  0  0  0
  -21.4548   -5.8208   24.5765 C   0  0  0  0  0  0  0  0  0  0  0  0
  -29.0730  -20.5994   21.7558 C   0  0  0  0  0  0  0  0  0  0  0  0
  -26.3482  -27.7339   21.6004 C   0  0  0  0  0  0  0  0  0  0  0  0
  -19.4569   -5.6329   23.2311 C   0  0  0  0  0  0  0  0  0  0  0  0
  -23.9127  -10.6712   21.3860 C   0  0  0  0  0  0  0  0  0  0  0  0
  -29.3686  -19.2426   21.4823 C   0  0  0  0  0  0  0  0  0  0  0  0
  -25.2372  -12.5157   22.5483 C   0  0  0  0  0  0  0  0  0  0  0  0
  -27.3944  -34.8923   17.2809 C   0  0  0  0  0  0  0  0  0  0  0  0
  -25.4422  -29.0532   19.7842 C   0  0  0  0  0  0  0  0  0  0  0  0
  -27.5598  -33.8157   18.1730 C   0  0  0  0  0  0  0  0  0  0  0  0
  -25.5068  -28.7647   21.1549 C   0  0  0  0  0  0  0  0  0  0  0  0
  -22.7685   -8.1324   21.2193 C   0  0  0  0  0  0  0  0  0  0  0  0
  -27.1052  -26.9920   20.6940 C   0  0  0  0  0  0  0  0  0  0  0  0
  -21.5108   -6.4293   22.2391 C   0  0  0  0  0  0  0  0  0  0  0  0
  -20.1042   -5.4927   24.4587 C   0  0  0  0  0  0  0  0  0  0  0  0
  -20.1602   -6.1012   22.1213 C   0  0  0  0  0  0  0  0  0  0  0  0
  -24.5041  -11.9823   21.4714 C   0  0  0  0  0  0  0  0  0  0  0  0
  -29.3885  -19.1246   20.1121 C   0  0  0  0  0  0  0  0  0  0  0  0
  -25.5762  -13.7822   22.1391 C   0  0  0  0  0  0  0  0  0  0  0  0
  -28.9336  -21.2139   20.5331 C   0  0  0  0  0  0  0  0  0  0  0  0
  -29.6054  -18.1789   22.4132 C   0  0  0  0  0  0  0  0  0  0  0  0
  -25.5811  -11.9197   23.8062 C   0  0  0  0  0  0  0  0  0  0  0  0
  -25.3416  -32.1246   20.5964 C   0  0  0  0  0  0  0  0  0  0  0  0
  -22.7907  -31.1730   22.3599 C   0  0  0  0  0  0  0  0  0  0  0  0
  -28.4118  -23.6222   21.0450 C   0  0  0  0  0  0  0  0  0  0  0  0
  -21.1616  -28.6405   23.9659 C   0  0  0  0  0  0  0  0  0  0  0  0
  -27.4576  -17.2933   18.2304 C   0  0  0  0  0  0  0  0  0  0  0  0
  -26.5695  -36.1022   17.6420 C   0  0  0  0  0  0  0  0  0  0  0  0
  -24.5305  -30.1361   19.2758 C   0  0  0  0  0  0  0  0  0  0  0  0
  -24.7023  -29.5378   22.1667 C   0  0  0  0  0  0  0  0  0  0  0  0
  -25.6161  -35.8629   18.8099 C   0  0  0  0  0  0  0  0  0  0  0  0
  -23.9876  -16.4979   18.1783 C   0  0  0  0  0  0  0  0  0  0  0  0
  -26.3376  -35.1535   19.9513 C   0  0  0  0  0  0  0  0  0  0  0  0
  -23.8744  -15.2930   19.1139 C   0  0  0  0  0  0  0  0  0  0  0  0
  -25.2850  -16.4676   17.3734 C   0  0  0  0  0  0  0  0  0  0  0  0
  -26.3986  -15.1278   19.1166 C   0  0  0  0  0  0  0  0  0  0  0  0
  -26.8505  -33.7776   19.5093 C   0  0  1  0  0  0  0  0  0  0  0  0
  -24.1996  -31.1841   20.3339 C   0  0  1  0  0  0  0  0  0  0  0  0
  -25.1326  -15.1434   19.9902 C   0  0  2  0  0  0  0  0  0  0  0  0
  -29.5430  -18.4943   23.8896 C   0  0  0  0  0  0  0  0  0  0  0  0
  -19.1202  -28.1767   25.3497 C   0  0  0  0  0  0  0  0  0  0  0  0
  -24.1383  -32.4615   24.7752 C   0  0  0  0  0  0  0  0  0  0  0  0
  -22.5761  -31.1723   26.2469 C   0  0  0  0  0  0  0  0  0  0  0  0
  -21.6709  -32.8428   24.6305 C   0  0  0  0  0  0  0  0  0  0  0  0
  -20.0970  -26.7356   21.9666 C   0  0  0  0  0  0  0  0  0  0  0  0
  -29.6316  -17.9986   19.1976 C   0  0  0  0  0  0  0  0  0  0  0  0
  -28.1316  -24.8908   20.2611 C   0  0  0  0  0  0  0  0  0  1  0  0
  -22.5954  -30.6549   23.7643 C   0  0  1  0  0  0  0  0  0  0  0  0
  -19.7069  -28.2069   23.9470 C   0  0  2  0  0  0  0  0  0  0  0  0
  -22.7619  -31.7694   24.8356 C   0  0  0  0  0  0  0  0  0  0  0  0
  -24.3839  -12.8399   20.4544 N   0  0  0  0  0  0  0  0  0  0  0  0
  -25.0460  -13.9250   20.8906 N   0  0  0  0  0  0  0  0  0  0  0  0
  -23.8304  -30.5910   21.6208 N   0  0  0  0  0  0  0  0  0  0  0  0
  -26.4398  -16.3259   18.2635 N   0  0  0  0  0  0  0  0  0  0  0  0
  -26.2732  -14.7766   22.7289 N   0  0  0  0  0  0  0  0  0  0  0  0
  -25.1528  -10.6104   24.0644 N   0  0  0  0  0  0  0  0  0  0  0  0
  -28.6401  -22.5537   20.1846 N   0  0  0  0  0  0  0  0  0  0  0  0
  -25.7661  -32.8195   19.4800 N   0  0  0  0  0  0  0  0  0  0  0  0
  -21.2915  -30.0006   23.7804 N   0  0  0  0  0  0  0  0  0  0  0  0
  -28.5128  -17.0868   19.1105 N   0  0  0  0  0  0  0  0  0  0  0  0
  -19.5799  -26.8452   23.3550 N   0  3  0  0  0  0  0  0  0  0  0  0
  -29.8673  -16.9981   22.1176 O   0  0  0  0  0  0  0  0  0  0  0  0
  -26.2343  -12.5359   24.6820 O   0  0  0  0  0  0  0  0  0  0  0  0
  -25.8024  -32.2144   21.7283 O   0  0  0  0  0  0  0  0  0  0  0  0
  -22.0436  -32.0562   21.9318 O   0  0  0  0  0  0  0  0  0  0  0  0
  -28.4197  -23.6134   22.2716 O   0  0  0  0  0  0  0  0  0  0  0  0
  -22.0895  -27.8520   24.1325 O   0  0  0  0  0  0  0  0  0  0  0  0
  -27.4256  -18.2717   17.4762 O   0  0  0  0  0  0  0  0  0  0  0  0
  -29.1245  -20.3218   19.5260 O   0  0  0  0  0  0  0  0  0  0  0  0
  -22.2106   -6.8936   21.1380 O   0  0  0  0  0  0  0  0  0  0  0  0
  -27.9157  -25.9940   21.1400 O   0  0  0  0  0  0  0  0  0  1  0  0
  -19.4293   -5.0416   25.5242 F   0  0  0  0  0  0  0  0  0  0  0  0
  -19.5332   -6.2327   20.9442 F   0  0  0  0  0  0  0  0  0  0  0  0
  1  2  1  0  0  0  0
  1  5  2  0  0  0  0
  2  6  2  0  0  0  0
  3  8  2  0  0  0  0
  3 16  1  0  0  0  0
  4  9  1  0  0  0  0
  4 16  2  0  0  0  0
  5 19  1  0  0  0  0
  6 21  1  0  0  0  0
  7 10  2  0  0  0  0
  7 20  1  0  0  0  0
  8 23  1  0  0  0  0
  9 23  2  0  0  0  0
 10 24  1  0  0  0  0
 11 12  2  0  0  0  0
 11 25  1  0  0  0  0
 12 26  1  0  0  0  0
 13 17  1  0  0  0  0
 13 31  2  0  0  0  0
 14 22  1  0  0  0  0
 14 24  2  0  0  0  0
 15 26  2  0  0  0  0
 15 27  1  0  0  0  0
 16 28  1  0  0  0  0
 17 29  2  0  0  0  0
 17 32  1  0  0  0  0
 18 28  1  0  0  0  0
 18 30  2  0  0  0  0
 18 33  1  0  0  0  0
 19 21  2  0  0  0  0
 19 39  1  0  0  0  0
 20 22  2  0  0  0  0
 20 40  1  0  0  0  0
 21 48  1  0  0  0  0
 22 41  1  0  0  0  0
 23 81  1  0  0  0  0
 24 82  1  0  0  0  0
 25 27  2  0  0  0  0
 25 81  1  0  0  0  0
 26 83  1  0  0  0  0
 27 84  1  0  0  0  0
 28 62  2  0  0  0  0
 29 57  1  0  0  0  0
 29 80  1  0  0  0  0
 30 63  1  0  0  0  0
 30 66  1  0  0  0  0
 31 68  1  0  0  0  0
 31 80  1  0  0  0  0
 32 51  1  0  0  0  0
 32 73  2  0  0  0  0
 33 67  1  0  0  0  0
 33 74  2  0  0  0  0
 34 49  1  0  0  0  0
 34 69  1  0  0  0  0
 34 75  2  0  0  0  0
 35 59  1  0  0  0  0
 35 64  1  0  0  0  0
 35 76  2  0  0  0  0
 36 58  1  0  0  0  0
 36 68  1  0  0  0  0
 36 77  2  0  0  0  0
 37 60  1  0  0  0  0
 37 70  1  0  0  0  0
 37 78  2  0  0  0  0
 38 65  1  0  0  0  0
 38 71  1  0  0  0  0
 38 79  2  0  0  0  0
 39 42  1  0  0  0  0
 40 49  1  0  0  0  0
 41 64  1  0  0  0  0
 42 44  1  0  0  0  0
 43 45  1  0  0  0  0
 43 46  1  0  0  0  0
 44 48  1  0  0  0  0
 45 50  1  0  0  0  0
 46 65  1  0  0  0  0
 47 50  1  0  0  0  0
 47 65  1  0  0  0  0
 48 69  1  0  0  0  0
 49 64  1  0  0  0  0
 50 63  1  0  0  0  0
 52 60  1  0  0  0  0
 53 61  1  0  0  0  0
 54 61  1  0  0  0  0
 55 61  1  0  0  0  0
 56 72  1  0  0  0  0
 57 71  1  0  0  0  0
 58 82  1  0  0  0  0
 59 61  1  0  0  0  0
 59 70  1  0  0  0  0
 60 72  1  0  0  0  0
 62 63  1  0  0  0  0
M  CHG  1  72   1
M  ISO  4  38 100  58 101  71 100  82 101
M  END
> <Batch ID>
0157

> <Smiles>
CNC(C)C(=O)NC(C(=O)N1Cc2cc([101O:1][101CH2:1]C(=O)Nc3cc(C(C)=O)c(C[100NH:0][100C:0](=O)N4CCCC(n5nc(-c6ccc(Oc7ccc(F)cc7F)cc6)c(C(N)=O)c5N)C4)o3)ccc2CC1C(=O)NC1CCCc2ccccc21)C(C)(C)C

> <Shape>
0.259

> <Color>
0.096

> <Negative vol penalty>
0.000

$$$$

  -OEChem-04052303413D

 84 93  0     1  0  0  0  0  0999 V2000
  -30.0133  -36.4039   22.7319 C   0  0  0  0  0  0  0  0  0  0  0  0
  -30.1261  -35.1505   22.1387 C   0  0  0  0  0  0  0  0  0  0  0  0
  -24.6113   -8.4103   20.6080 C   0  0  0  0  0  0  0  0  0  0  0  0
  -22.9095  -10.1123   20.3978 C   0  0  0  0  0  0  0  0  0  0  0  0
  -29.1087  -36.6016   23.7743 C   0  0  0  0  0  0  0  0  0  0  0  0
  -29.3350  -34.0939   22.5883 C   0  0  0  0  0  0  0  0  0  0  0  0
  -26.9788  -29.5618   19.2098 C   0  0  0  0  0  0  0  0  0  0  0  0
  -27.5429  -20.6857   17.7716 C   0  0  0  0  0  0  0  0  0  0  0  0
  -23.6435   -7.4931   21.0175 C   0  0  0  0  0  0  0  0  0  0  0  0
  -21.9417   -9.1951   20.8073 C   0  0  0  0  0  0  0  0  0  0  0  0
  -27.3912  -28.2496   18.9821 C   0  0  0  0  0  0  0  0  0  0  0  0
  -21.9363   -6.7689   23.8433 C   0  0  0  0  0  0  0  0  0  0  0  0
  -27.2963  -19.5202   17.0461 C   0  0  0  0  0  0  0  0  0  0  0  0
  -22.2328   -5.9619   24.9416 C   0  0  0  0  0  0  0  0  0  0  0  0
  -25.8999  -27.4863   20.7178 C   0  0  0  0  0  0  0  0  0  0  0  0
  -28.1188  -19.3592   19.7070 C   0  0  0  0  0  0  0  0  0  0  0  0
  -21.9719   -3.9932   23.5656 C   0  0  0  0  0  0  0  0  0  0  0  0
  -24.2443   -9.7199   20.2982 C   0  0  0  0  0  0  0  0  0  0  0  0
  -25.6659  -10.9277   18.5581 C   0  0  0  0  0  0  0  0  0  0  0  0
  -28.2993  -35.5493   24.2304 C   0  0  0  0  0  0  0  0  0  0  0  0
  -26.0303  -29.8478   20.2022 C   0  0  0  0  0  0  0  0  0  0  0  0
  -28.4197  -34.2774   23.6387 C   0  0  0  0  0  0  0  0  0  0  0  0
  -25.4753  -28.8027   20.9543 C   0  0  0  0  0  0  0  0  0  0  0  0
  -27.9542  -20.6052   19.1020 C   0  0  0  0  0  0  0  0  0  0  0  0
  -27.8722  -18.1937   18.9814 C   0  0  0  0  0  0  0  0  0  0  0  0
  -22.3087   -7.8855   21.1171 C   0  0  0  0  0  0  0  0  0  0  0  0
  -26.8539  -27.2119   19.7382 C   0  0  0  0  0  0  0  0  0  0  0  0
  -21.6574   -6.1881   22.6061 C   0  0  0  0  0  0  0  0  0  0  0  0
  -22.2507   -4.5741   24.8028 C   0  0  0  0  0  0  0  0  0  0  0  0
  -27.4610  -18.2742   17.6510 C   0  0  0  0  0  0  0  0  0  0  0  0
  -21.6753   -4.8003   22.4672 C   0  0  0  0  0  0  0  0  0  0  0  0
  -25.2437  -10.6680   19.8757 C   0  0  0  0  0  0  0  0  0  0  0  0
  -26.6239  -11.9031   18.6905 C   0  0  0  0  0  0  0  0  0  0  0  0
  -28.2668  -23.9899   20.4504 C   0  0  0  0  0  0  0  0  0  0  0  0
  -27.8354  -25.2515   20.5530 C   0  0  0  0  0  0  0  0  0  1  0  0
  -25.2310  -10.3399   17.3248 C   0  0  0  0  0  0  0  0  0  0  0  0
  -26.0318  -31.5620   22.8791 C   0  0  0  0  0  0  0  0  0  0  0  0
  -22.8718  -30.8294   22.8888 C   0  0  0  0  0  0  0  0  0  0  0  0
  -20.3831  -28.7223   21.8822 C   0  0  0  0  0  0  0  0  0  0  0  0
  -28.4421  -16.6753   20.9092 C   0  0  0  0  0  0  0  0  0  0  0  0
  -27.3698  -35.7992   25.3916 C   0  0  0  0  0  0  0  0  0  0  0  0
  -25.5762  -31.2656   20.4172 C   0  0  0  0  0  0  0  0  0  0  0  0
  -24.4390  -29.0544   22.0179 C   0  0  0  0  0  0  0  0  0  0  0  0
  -28.9309  -23.2160   21.5449 C   0  0  0  0  0  0  0  0  0  0  0  0
  -28.0512  -23.1013   19.2623 C   0  0  0  0  0  0  0  0  0  0  0  0
  -26.3007  -34.7225   25.5587 C   0  0  0  0  0  0  0  0  0  0  0  0
  -28.9387  -13.7085   22.8140 C   0  0  0  0  0  0  0  0  0  0  0  0
  -26.9221  -33.3331   25.4583 C   0  0  0  0  0  0  0  0  0  0  0  0
  -28.0564  -12.6743   22.1110 C   0  0  0  0  0  0  0  0  0  0  0  0
  -28.5122  -21.7790   21.2470 C   0  0  0  0  0  0  0  0  0  0  0  0
  -28.2943  -15.0935   22.8200 C   0  0  0  0  0  0  0  0  0  0  0  0
  -26.9914  -14.5542   20.7999 C   0  0  0  0  0  0  0  0  0  0  0  0
  -27.5612  -33.1127   24.0819 C   0  0  1  0  0  0  0  0  0  0  0  0
  -24.9843  -31.4997   21.8036 C   0  0  1  0  0  0  0  0  0  0  0  0
  -27.6278  -13.1574   20.7115 C   0  0  2  0  0  0  0  0  0  0  0  0
  -17.9074  -28.3618   22.0789 C   0  0  0  0  0  0  0  0  0  0  0  0
  -23.2534  -29.7730   25.7258 C   0  0  0  0  0  0  0  0  0  0  0  0
  -21.0554  -28.5942   25.5079 C   0  0  0  0  0  0  0  0  0  0  0  0
  -21.1524  -31.0833   25.3743 C   0  0  0  0  0  0  0  0  0  0  0  0
  -19.9951  -28.9876   18.9602 C   0  0  0  0  0  0  0  0  0  0  0  0
  -22.0371  -29.7034   23.4494 C   0  0  1  0  0  0  0  0  0  0  0  0
  -19.0243  -28.9923   21.2616 C   0  0  2  0  0  0  0  0  0  0  0  0
  -21.8955  -29.7836   24.9957 C   0  0  0  0  0  0  0  0  0  0  0  0
  -25.8813  -11.4177   20.7787 N   0  0  0  0  0  0  0  0  0  0  0  0
  -26.7139  -12.1581   20.0273 N   0  0  0  0  0  0  0  0  0  0  0  0
  -28.1989  -21.7593   19.8201 N   0  0  3  0  0  0  0  0  0  0  0  0
  -24.0321  -30.4582   22.1949 N   0  0  0  0  0  0  0  0  0  0  0  0
  -27.9184  -15.4867   21.4602 N   0  0  0  0  0  0  0  0  0  0  0  0
  -27.3895  -12.5588   17.7926 N   0  0  0  0  0  0  0  0  0  0  0  0
  -24.2382   -9.3517   17.3691 N   0  0  0  0  0  0  0  0  0  0  0  0
  -28.0402  -16.9291   19.5982 N   0  0  0  0  0  0  0  0  0  0  0  0
  -26.5444  -32.8273   23.0924 N   0  0  0  0  0  0  0  0  0  0  0  0
  -20.7681  -29.7388   22.7306 N   0  0  0  0  0  0  0  0  0  0  0  0
  -18.9664  -28.4370   19.8798 N   0  3  0  0  0  0  0  0  0  0  0  0
  -25.7204  -10.6693   16.2177 O   0  0  0  0  0  0  0  0  0  0  0  0
  -26.3502  -30.5382   23.4724 O   0  0  0  0  0  0  0  0  0  0  0  0
  -22.5039  -31.9952   23.0542 O   0  0  0  0  0  0  0  0  0  0  0  0
  -21.0358  -27.7091   21.6417 O   0  0  0  0  0  0  0  0  0  0  0  0
  -29.2135  -17.3997   21.5433 O   0  0  0  0  0  0  0  0  0  0  0  0
  -21.3640   -6.9907   21.5164 O   0  0  0  0  0  0  0  0  0  0  0  0
  -27.2551  -25.9303   19.5185 O   0  0  0  0  0  0  0  0  0  1  0  0
  -22.5370   -3.7993   25.8573 F   0  0  0  0  0  0  0  0  0  0  0  0
  -27.2209  -17.1607   16.9440 F   0  0  0  0  0  0  0  0  0  0  0  0
  -21.4094   -4.2366   21.2809 F   0  0  0  0  0  0  0  0  0  0  0  0
  1  2  1  0  0  0  0
  1  5  2  0  0  0  0
  2  6  2  0  0  0  0
  3  9  2  0  0  0  0
  3 18  1  0  0  0  0
  4 10  1  0  0  0  0
  4 18  2  0  0  0  0
  5 20  1  0  0  0  0
  6 22  1  0  0  0  0
  7 11  2  0  0  0  0
  7 21  1  0  0  0  0
  8 13  2  0  0  0  0
  8 24  1  0  0  0  0
  9 26  1  0  0  0  0
 10 26  2  0  0  0  0
 11 27  1  0  0  0  0
 12 14  2  0  0  0  0
 12 28  1  0  0  0  0
 13 30  1  0  0  0  0
 14 29  1  0  0  0  0
 15 23  1  0  0  0  0
 15 27  2  0  0  0  0
 16 24  2  0  0  0  0
 16 25  1  0  0  0  0
 17 29  2  0  0  0  0
 17 31  1  0  0  0  0
 18 32  1  0  0  0  0
 19 32  1  0  0  0  0
 19 33  2  0  0  0  0
 19 36  1  0  0  0  0
 20 22  2  0  0  0  0
 20 41  1  0  0  0  0
 21 23  2  0  0  0  0
 21 42  1  0  0  0  0
 22 53  1  0  0  0  0
 23 43  1  0  0  0  0
 24 66  1  0  0  0  0
 25 30  2  0  0  0  0
 25 71  1  0  0  0  0
 26 80  1  0  0  0  0
 27 81  1  0  0  0  0
 28 31  2  0  0  0  0
 28 80  1  0  0  0  0
 29 82  1  0  0  0  0
 30 83  1  0  0  0  0
 31 84  1  0  0  0  0
 32 64  2  0  0  0  0
 33 65  1  0  0  0  0
 33 69  1  0  0  0  0
 34 35  2  0  0  0  0
 34 44  1  0  0  0  0
 34 45  1  0  0  0  0
 35 81  1  0  0  0  0
 36 70  1  0  0  0  0
 36 75  2  0  0  0  0
 37 54  1  0  0  0  0
 37 72  1  0  0  0  0
 37 76  2  0  0  0  0
 38 61  1  0  0  0  0
 38 67  1  0  0  0  0
 38 77  2  0  0  0  0
 39 62  1  0  0  0  0
 39 73  1  0  0  0  0
 39 78  2  0  0  0  0
 40 68  1  0  0  0  0
 40 71  1  0  0  0  0
 40 79  2  0  0  0  0
 41 46  1  0  0  0  0
 42 54  1  0  0  0  0
 43 67  1  0  0  0  0
 44 50  1  0  0  0  0
 45 66  1  0  0  0  0
 46 48  1  0  0  0  0
 47 49  1  0  0  0  0
 47 51  1  0  0  0  0
 48 53  1  0  0  0  0
 49 55  1  0  0  0  0
 50 66  1  0  0  0  0
 51 68  1  0  0  0  0
 52 55  1  0  0  0  0
 52 68  1  0  0  0  0
 53 72  1  0  0  0  0
 54 67  1  0  0  0  0
 55 65  1  0  0  0  0
 56 62  1  0  0  0  0
 57 63  1  0  0  0  0
 58 63  1  0  0  0  0
 59 63  1  0  0  0  0
 60 74  1  0  0  0  0
 61 63  1  0  0  0  0
 61 73  1  0  0  0  0
 62 74  1  0  0  0  0
 64 65  1  0  0  0  0
M  CHG  1  74   1
M  ISO  4  35 101  40 100  71 100  81 101
M  END
> <Batch ID>
0157

> <Smiles>
CNC(C)C(=O)NC(C(=O)N1Cc2cc([101O:1][101CH:1]=C3CCN(c4ccc(F)c([100NH:0][100C:0](=O)N5CCCC(n6nc(-c7ccc(Oc8ccc(F)cc8F)cc7)c(C(N)=O)c6N)C5)c4)C3)ccc2CC1C(=O)NC1CCCc2ccccc21)C(C)(C)C

> <Shape>
0.313

> <Color>
0.118

> <Negative vol penalty>
0.000

$$$$

  -OEChem-04052303413D

 88 97  0     1  0  0  0  0  0999 V2000
  -19.5284   -8.8236   19.8889 C   0  0  0  0  0  0  0  0  0  0  0  0
  -20.0750   -9.7459   20.7755 C   0  0  0  0  0  0  0  0  0  0  0  0
  -26.5022  -29.7024   19.5342 C   0  0  0  0  0  0  0  0  0  0  0  0
  -26.2282  -28.9316   21.8074 C   0  0  0  0  0  0  0  0  0  0  0  0
  -27.5711  -20.4272   24.9157 C   0  0  0  0  0  0  0  0  0  0  0  0
  -20.3629   -8.0830   19.0528 C   0  0  0  0  0  0  0  0  0  0  0  0
  -21.4566   -9.9273   20.8273 C   0  0  0  0  0  0  0  0  0  0  0  0
  -22.7700  -14.8160   20.9728 C   0  0  0  0  0  0  0  0  0  0  0  0
  -28.0972  -21.3204   23.9824 C   0  0  0  0  0  0  0  0  0  0  0  0
  -25.3404  -30.4650   19.6527 C   0  0  0  0  0  0  0  0  0  0  0  0
  -25.0663  -29.6943   21.9260 C   0  0  0  0  0  0  0  0  0  0  0  0
  -22.6451  -15.4727   22.1963 C   0  0  0  0  0  0  0  0  0  0  0  0
  -24.2577  -32.9329   22.4530 C   0  0  0  0  0  0  0  0  0  0  0  0
  -24.0938  -33.6848   23.6163 C   0  0  0  0  0  0  0  0  0  0  0  0
  -25.0128  -15.2070   22.5737 C   0  0  0  0  0  0  0  0  0  0  0  0
  -27.9402  -19.6234   22.2699 C   0  0  0  0  0  0  0  0  0  0  0  0
  -22.0630  -32.4739   24.1129 C   0  0  0  0  0  0  0  0  0  0  0  0
  -26.9461  -28.9356   20.6115 C   0  0  0  0  0  0  0  0  0  0  0  0
  -27.2297  -19.1321   24.5262 C   0  0  0  0  0  0  0  0  0  0  0  0
  -29.4619  -28.5504   20.7851 C   0  0  0  0  0  0  0  0  0  0  0  0
  -21.7548   -8.2624   19.0876 C   0  0  0  0  0  0  0  0  0  0  0  0
  -24.0174  -14.3394   20.5448 C   0  0  0  0  0  0  0  0  0  0  0  0
  -22.3106   -9.1874   19.9919 C   0  0  0  0  0  0  0  0  0  0  0  0
  -25.1513  -14.5468   21.3432 C   0  0  0  0  0  0  0  0  0  0  0  0
  -28.2817  -20.9185   22.6595 C   0  0  0  0  0  0  0  0  0  0  0  0
  -24.6224  -30.4610   20.8486 C   0  0  0  0  0  0  0  0  0  0  0  0
  -23.7661  -15.6657   22.9983 C   0  0  0  0  0  0  0  0  0  0  0  0
  -23.3242  -31.9515   22.1196 C   0  0  0  0  0  0  0  0  0  0  0  0
  -22.9965  -33.4553   24.4463 C   0  0  0  0  0  0  0  0  0  0  0  0
  -27.4141  -18.7302   23.2033 C   0  0  0  0  0  0  0  0  0  0  0  0
  -22.2269  -31.7220   22.9495 C   0  0  0  0  0  0  0  0  0  0  0  0
  -28.1459  -28.1471   20.4895 C   0  0  0  0  0  0  0  0  0  0  0  0
  -30.2303  -27.4471   20.5045 C   0  0  0  0  0  0  0  0  0  0  0  0
  -26.6746  -18.1905   25.5148 C   0  0  0  0  0  0  0  0  0  0  0  0
  -29.9464  -29.8097   21.2700 C   0  0  0  0  0  0  0  0  0  0  0  0
  -25.2120  -11.4722   19.8697 C   0  0  0  0  0  0  0  0  0  0  0  0
  -27.7900  -13.1992   18.9246 C   0  0  0  0  0  0  0  0  0  0  0  0
  -29.5854  -16.0917   19.1636 C   0  0  0  0  0  0  0  0  0  0  0  0
  -29.0626  -21.5887   20.3601 C   0  0  0  0  0  0  0  0  0  0  0  0
  -22.6197   -7.4048   18.1981 C   0  0  0  0  0  0  0  0  0  0  0  0
  -24.1400  -13.6567   19.2102 C   0  0  0  0  0  0  0  0  0  0  0  0
  -26.5167  -14.0724   20.9200 C   0  0  0  0  0  0  0  0  0  0  0  0
  -24.0467   -7.9263   18.0502 C   0  0  0  0  0  0  0  0  0  0  0  0
  -30.3340  -23.5730   17.6911 C   0  0  0  0  0  0  0  0  0  0  0  0
  -24.6199   -8.3064   19.4117 C   0  0  0  0  0  0  0  0  0  0  0  0
  -30.0424  -25.0081   18.1356 C   0  0  0  0  0  0  0  0  0  0  0  0
  -23.2974  -17.7692   26.7095 C   0  0  0  0  0  0  0  0  0  0  0  0
  -29.2179  -22.6142   18.1019 C   0  0  0  0  0  0  0  0  0  0  0  0
  -24.7196  -17.2282   26.6546 C   0  0  0  0  0  0  0  0  0  0  0  0
  -28.5717  -24.0833   19.9710 C   0  0  0  0  0  0  0  0  0  0  0  0
  -24.4096  -18.9689   24.9485 C   0  0  0  0  0  0  0  0  0  0  0  0
  -23.8027   -9.4305   20.0600 C   0  0  1  0  0  0  0  0  0  0  0  0
  -25.3690  -12.7585   19.1092 C   0  0  1  0  0  0  0  0  0  0  0  0
  -29.6985  -25.0744   19.6365 C   0  0  2  0  0  0  0  0  0  0  0  0
  -23.0543  -18.3521   25.3117 C   0  0  1  0  0  0  0  0  0  0  0  0
  -31.3686  -17.7760   18.6337 C   0  0  0  0  0  0  0  0  0  0  0  0
  -29.4799  -11.4518   20.7687 C   0  0  0  0  0  0  0  0  0  0  0  0
  -31.3028  -13.1599   20.6020 C   0  0  0  0  0  0  0  0  0  0  0  0
  -30.5323  -11.9570   18.5570 C   0  0  0  0  0  0  0  0  0  0  0  0
  -27.9246  -17.3636   17.0701 C   0  0  0  0  0  0  0  0  0  0  0  0
  -20.8324  -18.8597   25.8614 C   0  0  0  0  0  0  0  0  0  0  0  0
  -22.6199  -17.2905   24.3030 C   0  0  0  0  0  0  0  0  0  1  0  0
  -29.0396  -13.7112   19.5994 C   0  0  1  0  0  0  0  0  0  0  0  0
  -30.1709  -17.0045   18.1014 C   0  0  2  0  0  0  0  0  0  0  0  0
  -30.0627  -12.5773   19.8909 C   0  0  0  0  0  0  0  0  0  0  0  0
  -28.0785  -26.8861   20.0543 N   0  0  0  0  0  0  0  0  0  0  0  0
  -29.3618  -26.4875   20.0743 N   0  0  0  0  0  0  0  0  0  0  0  0
  -25.3673  -18.1334   25.6936 N   0  0  0  0  0  0  0  0  0  0  0  0
  -26.5840  -13.4047   19.6095 N   0  0  0  0  0  0  0  0  0  0  0  0
  -28.9497  -22.7292   19.5371 N   0  0  0  0  0  0  0  0  0  0  0  0
  -31.5575  -27.2138   20.5862 N   0  0  0  0  0  0  0  0  0  0  0  0
  -29.0211  -30.8357   21.5056 N   0  0  0  0  0  0  0  0  0  0  0  0
  -28.8159  -21.8264   21.7118 N   0  0  0  0  0  0  0  0  0  0  0  0
  -24.1359  -10.7062   19.4635 N   0  0  0  0  0  0  0  0  0  0  0  0
  -29.5558  -14.7774   18.7478 N   0  0  0  0  0  0  0  0  0  0  0  0
  -27.4986  -17.4119   26.2100 N   0  3  0  0  0  0  0  0  0  0  0  0
  -29.1479  -17.9849   17.6397 N   0  3  0  0  0  0  0  0  0  0  0  0
  -31.1656  -30.0242   21.4724 O   0  0  0  0  0  0  0  0  0  0  0  0
  -26.0089  -11.1944   20.7582 O   0  0  0  0  0  0  0  0  0  0  0  0
  -27.8798  -12.6440   17.8267 O   0  0  0  0  0  0  0  0  0  0  0  0
  -29.1968  -16.5029   20.2547 O   0  0  0  0  0  0  0  0  0  0  0  0
  -29.3831  -20.4882   19.9037 O   0  0  0  0  0  0  0  0  0  0  0  0
  -23.4888  -31.2053   20.9647 O   0  0  0  0  0  0  0  0  0  0  0  0
  -23.6469  -16.3058   24.1932 O   0  0  0  0  0  0  0  0  0  1  0  0
  -22.0636  -19.3683   25.3725 O   0  0  0  0  0  0  0  0  0  0  0  0
  -22.8400  -34.1764   25.5642 F   0  0  0  0  0  0  0  0  0  0  0  0
  -27.0908  -17.4872   22.8198 F   0  0  0  0  0  0  0  0  0  0  0  0
  -21.3274  -30.7797   22.6350 F   0  0  0  0  0  0  0  0  0  0  0  0
  1  2  1  0  0  0  0
  1  6  2  0  0  0  0
  2  7  2  0  0  0  0
  3 10  2  0  0  0  0
  3 18  1  0  0  0  0
  4 11  1  0  0  0  0
  4 18  2  0  0  0  0
  5  9  2  0  0  0  0
  5 19  1  0  0  0  0
  6 21  1  0  0  0  0
  7 23  1  0  0  0  0
  8 12  2  0  0  0  0
  8 22  1  0  0  0  0
  9 25  1  0  0  0  0
 10 26  1  0  0  0  0
 11 26  2  0  0  0  0
 12 27  1  0  0  0  0
 13 14  2  0  0  0  0
 13 28  1  0  0  0  0
 14 29  1  0  0  0  0
 15 24  1  0  0  0  0
 15 27  2  0  0  0  0
 16 25  2  0  0  0  0
 16 30  1  0  0  0  0
 17 29  2  0  0  0  0
 17 31  1  0  0  0  0
 18 32  1  0  0  0  0
 19 30  2  0  0  0  0
 19 34  1  0  0  0  0
 20 32  1  0  0  0  0
 20 33  2  0  0  0  0
 20 35  1  0  0  0  0
 21 23  2  0  0  0  0
 21 40  1  0  0  0  0
 22 24  2  0  0  0  0
 22 41  1  0  0  0  0
 23 52  1  0  0  0  0
 24 42  1  0  0  0  0
 25 73  1  0  0  0  0
 26 83  1  0  0  0  0
 27 84  1  0  0  0  0
 28 31  2  0  0  0  0
 28 83  1  0  0  0  0
 29 86  1  0  0  0  0
 30 87  1  0  0  0  0
 31 88  1  0  0  0  0
 32 66  2  0  0  0  0
 33 67  1  0  0  0  0
 33 71  1  0  0  0  0
 34 68  1  0  0  0  0
 34 76  2  0  0  0  0
 35 72  1  0  0  0  0
 35 78  2  0  0  0  0
 36 53  1  0  0  0  0
 36 74  1  0  0  0  0
 36 79  2  0  0  0  0
 37 63  1  0  0  0  0
 37 69  1  0  0  0  0
 37 80  2  0  0  0  0
 38 64  1  0  0  0  0
 38 75  1  0  0  0  0
 38 81  2  0  0  0  0
 39 70  1  0  0  0  0
 39 73  1  0  0  0  0
 39 82  2  0  0  0  0
 40 43  1  0  0  0  0
 41 53  1  0  0  0  0
 42 69  1  0  0  0  0
 43 45  1  0  0  0  0
 44 46  1  0  0  0  0
 44 48  1  0  0  0  0
 45 52  1  0  0  0  0
 46 54  1  0  0  0  0
 47 49  1  0  0  0  0
 47 55  1  0  0  0  0
 48 70  1  0  0  0  0
 49 68  1  0  0  0  0
 50 54  1  0  0  0  0
 50 70  1  0  0  0  0
 51 55  1  0  0  0  0
 51 68  1  0  0  0  0
 52 74  1  0  0  0  0
 53 69  1  0  0  0  0
 54 67  1  0  0  0  0
 55 62  1  0  0  0  0
 55 85  1  0  0  0  0
 56 64  1  0  0  0  0
 57 65  1  0  0  0  0
 58 65  1  0  0  0  0
 59 65  1  0  0  0  0
 60 77  1  0  0  0  0
 61 85  1  0  0  0  0
 62 84  1  0  0  0  0
 63 65  1  0  0  0  0
 63 75  1  0  0  0  0
 64 77  1  0  0  0  0
 66 67  1  0  0  0  0
M  CHG  2  76   1  77   1
M  ISO  4  39 100  62 101  73 100  84 101
M  END
> <Batch ID>
0157

> <Smiles>
CNC(C)C(=O)NC(C(=O)N1Cc2cc([101O:1][101CH2:1]C3(OC)CCN(C(=N)c4ccc([100NH:0][100C:0](=O)N5CCCC(n6nc(-c7ccc(Oc8ccc(F)cc8F)cc7)c(C(N)=O)c6N)C5)cc4F)C3)ccc2CC1C(=O)NC1CCCc2ccccc21)C(C)(C)C

> <Shape>
0.259

> <Color>
0.059

> <Negative vol penalty>
0.000

$$$$

  -OEChem-04052303413D

 84 93  0     1  0  0  0  0  0999 V2000
  -28.6049  -37.5482   21.4094 C   0  0  0  0  0  0  0  0  0  0  0  0
  -28.7398  -36.4601   20.5531 C   0  0  0  0  0  0  0  0  0  0  0  0
  -22.7951  -13.9551   22.7692 C   0  0  0  0  0  0  0  0  0  0  0  0
  -23.9659  -12.0454   23.6743 C   0  0  0  0  0  0  0  0  0  0  0  0
  -28.2818  -37.3428   22.7501 C   0  0  0  0  0  0  0  0  0  0  0  0
  -28.5528  -35.1659   21.0373 C   0  0  0  0  0  0  0  0  0  0  0  0
  -26.1403  -28.7365   18.9981 C   0  0  0  0  0  0  0  0  0  0  0  0
  -22.0499  -14.0551   23.9440 C   0  0  0  0  0  0  0  0  0  0  0  0
  -23.2207  -12.1454   24.8492 C   0  0  0  0  0  0  0  0  0  0  0  0
  -26.5318  -27.3987   18.9690 C   0  0  0  0  0  0  0  0  0  0  0  0
  -19.3835  -12.5172   25.3403 C   0  0  0  0  0  0  0  0  0  0  0  0
  -18.0090  -12.7218   25.2196 C   0  0  0  0  0  0  0  0  0  0  0  0
  -25.8987  -27.1693   21.2854 C   0  0  0  0  0  0  0  0  0  0  0  0
  -29.5094  -18.6243   19.4896 C   0  0  0  0  0  0  0  0  0  0  0  0
  -18.2102  -14.7954   26.4430 C   0  0  0  0  0  0  0  0  0  0  0  0
  -31.6173  -17.7118   19.1336 C   0  0  0  0  0  0  0  0  0  0  0  0
  -23.7531  -12.9502   22.6343 C   0  0  0  0  0  0  0  0  0  0  0  0
  -24.0319  -12.6368   20.1180 C   0  0  0  0  0  0  0  0  0  0  0  0
  -28.0814  -36.0460   23.2488 C   0  0  0  0  0  0  0  0  0  0  0  0
  -25.6343  -29.3045   20.1761 C   0  0  0  0  0  0  0  0  0  0  0  0
  -28.2282  -34.9429   22.3862 C   0  0  0  0  0  0  0  0  0  0  0  0
  -25.4990  -28.5138   21.3261 C   0  0  0  0  0  0  0  0  0  0  0  0
  -30.3185  -17.4516   19.5120 C   0  0  0  0  0  0  0  0  0  0  0  0
  -22.2627  -13.1503   24.9840 C   0  0  0  0  0  0  0  0  0  0  0  0
  -26.4138  -26.6156   20.1135 C   0  0  0  0  0  0  0  0  0  0  0  0
  -20.1713  -13.4518   26.0124 C   0  0  0  0  0  0  0  0  0  0  0  0
  -17.4223  -13.8609   25.7709 C   0  0  0  0  0  0  0  0  0  0  0  0
  -19.5847  -14.5909   26.5637 C   0  0  0  0  0  0  0  0  0  0  0  0
  -24.5228  -12.8461   21.4207 C   0  0  0  0  0  0  0  0  0  0  0  0
  -30.2208  -19.7361   19.0951 C   0  0  0  0  0  0  0  0  0  0  0  0
  -25.1547  -12.6151   19.3273 C   0  0  0  0  0  0  0  0  0  0  0  0
  -22.6816  -12.4764   19.6633 C   0  0  0  0  0  0  0  0  0  0  0  0
  -26.5455  -31.6659   22.0989 C   0  0  0  0  0  0  0  0  0  0  0  0
  -23.7061  -31.0605   23.5460 C   0  0  0  0  0  0  0  0  0  0  0  0
  -21.1936  -28.8402   24.1817 C   0  0  0  0  0  0  0  0  0  0  0  0
  -30.6093  -14.9823   19.9172 C   0  0  0  0  0  0  0  0  0  0  0  0
  -27.7801  -35.8710   24.7162 C   0  0  0  0  0  0  0  0  0  0  0  0
  -25.1913  -30.7419   20.1836 C   0  0  0  0  0  0  0  0  0  0  0  0
  -24.9428  -29.0704   22.6103 C   0  0  0  0  0  0  0  0  0  0  0  0
  -27.2303  -34.4903   25.0647 C   0  0  0  0  0  0  0  0  0  0  0  0
  -29.8189  -11.5389   19.4756 C   0  0  0  0  0  0  0  0  0  0  0  0
  -28.0616  -33.4002   24.3958 C   0  0  0  0  0  0  0  0  0  0  0  0
  -29.2518  -21.7511   20.2802 C   0  0  0  0  0  0  0  0  0  0  0  0
  -28.6414  -21.2843   17.8650 C   0  0  0  0  0  0  0  0  0  0  0  0
  -28.3250  -11.4653   19.7998 C   0  0  0  0  0  0  0  0  0  0  0  0
  -28.7738  -23.1969   20.1196 C   0  0  0  0  0  0  0  0  0  0  0  0
  -28.1674  -22.7314   17.7070 C   0  0  0  0  0  0  0  0  0  0  0  0
  -30.5452  -12.5402   20.3720 C   0  0  0  0  0  0  0  0  0  0  0  0
  -28.4656  -13.8129   20.7250 C   0  0  0  0  0  0  0  0  0  0  0  0
  -28.0088  -33.5253   22.8683 C   0  0  1  0  0  0  0  0  0  0  0  0
  -29.7323  -21.1652   18.9422 C   0  0  0  0  0  0  0  0  0  0  0  0
  -25.1700  -31.3533   21.5811 C   0  0  1  0  0  0  0  0  0  0  0  0
  -27.6798  -12.8651   19.8043 C   0  0  2  0  0  0  0  0  0  0  0  0
  -27.6931  -23.3376   19.0372 C   0  0  0  0  0  0  0  0  0  0  0  0
  -19.0262  -28.6217   25.4276 C   0  0  0  0  0  0  0  0  0  0  0  0
  -25.2436  -30.7824   26.1669 C   0  0  0  0  0  0  0  0  0  0  0  0
  -23.2330  -29.6567   27.1461 C   0  0  0  0  0  0  0  0  0  0  0  0
  -23.0769  -32.0171   26.3544 C   0  0  0  0  0  0  0  0  0  0  0  0
  -19.6786  -28.3335   21.6903 C   0  0  0  0  0  0  0  0  0  0  0  0
  -27.3091  -24.8072   18.8550 C   0  0  0  0  0  0  0  0  0  1  0  0
  -23.2459  -30.1497   24.6585 C   0  0  1  0  0  0  0  0  0  0  0  0
  -19.6838  -28.9780   24.1035 C   0  0  2  0  0  0  0  0  0  0  0  0
  -23.7122  -30.6412   26.0580 C   0  0  0  0  0  0  0  0  0  0  0  0
  -25.8538  -12.9497   21.4596 N   0  0  0  0  0  0  0  0  0  0  0  0
  -26.2089  -12.8049   20.1716 N   0  0  0  0  0  0  0  0  0  0  0  0
  -24.5295  -30.4828   22.5692 N   0  0  0  0  0  0  0  0  0  0  0  0
  -29.8805  -13.8442   20.3226 N   0  0  0  0  0  0  0  0  0  0  0  0
  -25.3333  -12.4522   17.9991 N   0  0  0  0  0  0  0  0  0  0  0  0
  -22.1426  -11.1837   19.6131 N   0  0  0  0  0  0  0  0  0  0  0  0
  -29.8641  -16.1603   19.8776 N   0  0  0  0  0  0  0  0  0  0  0  0
  -26.7566  -33.0060   22.3617 N   0  0  0  0  0  0  0  0  0  0  0  0
  -21.7985  -30.0327   24.5180 N   0  0  0  0  0  0  0  0  0  0  0  0
  -19.1355  -28.0785   23.0493 N   0  3  0  0  0  0  0  0  0  0  0  0
  -21.9795  -13.4490   19.2963 O   0  0  0  0  0  0  0  0  0  0  0  0
  -27.3548  -30.7582   22.2504 O   0  0  0  0  0  0  0  0  0  0  0  0
  -23.3425  -32.2392   23.5400 O   0  0  0  0  0  0  0  0  0  0  0  0
  -21.7775  -27.7797   23.9696 O   0  0  0  0  0  0  0  0  0  0  0  0
  -31.7996  -14.9118   19.6005 O   0  0  0  0  0  0  0  0  0  0  0  0
  -26.5291  -22.6344   19.4817 O   0  0  0  0  0  0  0  0  0  0  0  0
  -21.5359  -13.2477   26.1307 O   0  0  0  0  0  0  0  0  0  0  0  0
  -26.7959  -25.3098   20.0880 O   0  0  0  0  0  0  0  0  0  1  0  0
  -16.1026  -14.0579   25.6536 F   0  0  0  0  0  0  0  0  0  0  0  0
  -20.3365  -15.4928   27.2095 F   0  0  0  0  0  0  0  0  0  0  0  0
  -31.8570  -19.3642   18.7536 S   0  0  0  0  0  0  0  0  0  0  0  0
  1  2  1  0  0  0  0
  1  5  2  0  0  0  0
  2  6  2  0  0  0  0
  3  8  2  0  0  0  0
  3 17  1  0  0  0  0
  4  9  1  0  0  0  0
  4 17  2  0  0  0  0
  5 19  1  0  0  0  0
  6 21  1  0  0  0  0
  7 10  2  0  0  0  0
  7 20  1  0  0  0  0
  8 24  1  0  0  0  0
  9 24  2  0  0  0  0
 10 25  1  0  0  0  0
 11 12  2  0  0  0  0
 11 26  1  0  0  0  0
 12 27  1  0  0  0  0
 13 22  1  0  0  0  0
 13 25  2  0  0  0  0
 14 23  1  0  0  0  0
 14 30  2  0  0  0  0
 15 27  2  0  0  0  0
 15 28  1  0  0  0  0
 16 23  2  0  0  0  0
 16 84  1  0  0  0  0
 17 29  1  0  0  0  0
 18 29  1  0  0  0  0
 18 31  2  0  0  0  0
 18 32  1  0  0  0  0
 19 21  2  0  0  0  0
 19 37  1  0  0  0  0
 20 22  2  0  0  0  0
 20 38  1  0  0  0  0
 21 50  1  0  0  0  0
 22 39  1  0  0  0  0
 23 70  1  0  0  0  0
 24 80  1  0  0  0  0
 25 81  1  0  0  0  0
 26 28  2  0  0  0  0
 26 80  1  0  0  0  0
 27 82  1  0  0  0  0
 28 83  1  0  0  0  0
 29 64  2  0  0  0  0
 30 51  1  0  0  0  0
 30 84  1  0  0  0  0
 31 65  1  0  0  0  0
 31 68  1  0  0  0  0
 32 69  1  0  0  0  0
 32 74  2  0  0  0  0
 33 52  1  0  0  0  0
 33 71  1  0  0  0  0
 33 75  2  0  0  0  0
 34 61  1  0  0  0  0
 34 66  1  0  0  0  0
 34 76  2  0  0  0  0
 35 62  1  0  0  0  0
 35 72  1  0  0  0  0
 35 77  2  0  0  0  0
 36 67  1  0  0  0  0
 36 70  1  0  0  0  0
 36 78  2  0  0  0  0
 37 40  1  0  0  0  0
 38 52  1  0  0  0  0
 39 66  1  0  0  0  0
 40 42  1  0  0  0  0
 41 45  1  0  0  0  0
 41 48  1  0  0  0  0
 42 50  1  0  0  0  0
 43 46  1  0  0  0  0
 43 51  1  0  0  0  0
 44 47  1  0  0  0  0
 44 51  1  0  0  0  0
 45 53  1  0  0  0  0
 46 54  1  0  0  0  0
 47 54  1  0  0  0  0
 48 67  1  0  0  0  0
 49 53  1  0  0  0  0
 49 67  1  0  0  0  0
 50 71  1  0  0  0  0
 52 66  1  0  0  0  0
 53 65  1  0  0  0  0
 54 60  1  0  0  0  0
 54 79  1  0  0  0  0
 55 62  1  0  0  0  0
 56 63  1  0  0  0  0
 57 63  1  0  0  0  0
 58 63  1  0  0  0  0
 59 73  1  0  0  0  0
 60 81  1  0  0  0  0
 61 63  1  0  0  0  0
 61 72  1  0  0  0  0
 62 73  1  0  0  0  0
 64 65  1  0  0  0  0
M  CHG  1  73   1
M  ISO  4  36 100  60 101  70 100  81 101
M  END
> <Batch ID>
0157

> <Smiles>
CNC(C)C(=O)NC(C(=O)N1Cc2cc([101O:1][101CH2:1]C3(O)CCC(c4cc([100NH:0][100C:0](=O)N5CCCC(n6nc(-c7ccc(Oc8ccc(F)cc8F)cc7)c(C(N)=O)c6N)C5)cs4)CC3)ccc2CC1C(=O)NC1CCCc2ccccc21)C(C)(C)C

> <Shape>
0.254

> <Color>
0.100

> <Negative vol penalty>
0.000

$$$$

  -OEChem-04052303413D

 82 91  0     1  0  0  0  0  0999 V2000
  -26.0671  -32.2666   30.7487 C   0  0  0  0  0  0  0  0  0  0  0  0
  -26.6395  -31.0352   30.4464 C   0  0  0  0  0  0  0  0  0  0  0  0
  -23.0798   -9.8607   19.9431 C   0  0  0  0  0  0  0  0  0  0  0  0
  -23.8341   -9.8767   22.2382 C   0  0  0  0  0  0  0  0  0  0  0  0
  -25.4319  -33.0029   29.7496 C   0  0  0  0  0  0  0  0  0  0  0  0
  -26.5760  -30.5388   29.1448 C   0  0  0  0  0  0  0  0  0  0  0  0
  -30.8251  -27.1957   26.2683 C   0  0  0  0  0  0  0  0  0  0  0  0
  -22.3370   -8.7074   20.1952 C   0  0  0  0  0  0  0  0  0  0  0  0
  -23.0912   -8.7234   22.4904 C   0  0  0  0  0  0  0  0  0  0  0  0
  -30.9498  -25.8245   26.0491 C   0  0  0  0  0  0  0  0  0  0  0  0
  -19.8627   -7.9232   23.0878 C   0  0  0  0  0  0  0  0  0  0  0  0
  -19.1029   -7.8863   24.2570 C   0  0  0  0  0  0  0  0  0  0  0  0
  -29.9439  -26.0872   23.8724 C   0  0  0  0  0  0  0  0  0  0  0  0
  -20.3452   -5.9531   25.0032 C   0  0  0  0  0  0  0  0  0  0  0  0
  -31.7643  -17.6042   21.7366 C   0  0  0  0  0  0  0  0  0  0  0  0
  -23.8285  -10.4453   20.9646 C   0  0  0  0  0  0  0  0  0  0  0  0
  -24.1671  -12.9705   20.8366 C   0  0  0  0  0  0  0  0  0  0  0  0
  -25.3691  -32.5198   28.4331 C   0  0  0  0  0  0  0  0  0  0  0  0
  -30.2479  -28.0227   25.2940 C   0  0  0  0  0  0  0  0  0  0  0  0
  -25.9382  -31.2688   28.1274 C   0  0  0  0  0  0  0  0  0  0  0  0
  -29.8154  -27.4689   24.0806 C   0  0  0  0  0  0  0  0  0  0  0  0
  -22.3426   -8.1387   21.4689 C   0  0  0  0  0  0  0  0  0  0  0  0
  -30.5065  -25.2696   24.8522 C   0  0  0  0  0  0  0  0  0  0  0  0
  -20.8636   -6.9750   22.8763 C   0  0  0  0  0  0  0  0  0  0  0  0
  -19.3442   -6.9013   25.2147 C   0  0  0  0  0  0  0  0  0  0  0  0
  -21.1049   -5.9900   23.8340 C   0  0  0  0  0  0  0  0  0  0  0  0
  -24.5965  -11.6364   20.7046 C   0  0  0  0  0  0  0  0  0  0  0  0
  -25.2591  -13.7203   20.4734 C   0  0  0  0  0  0  0  0  0  0  0  0
  -30.5746  -16.9458   21.9256 C   0  0  0  0  0  0  0  0  0  0  0  0
  -30.5612  -18.8156   22.9646 C   0  0  0  0  0  0  0  0  0  0  0  0
  -29.6032  -21.7955   24.8551 C   0  0  0  0  0  0  0  0  0  0  0  0
  -29.5934  -23.1227   25.0189 C   0  0  0  0  0  0  0  0  0  1  0  0
  -22.8949  -13.4860   21.2506 C   0  0  0  0  0  0  0  0  0  0  0  0
  -27.6805  -29.8928   25.1738 C   0  0  0  0  0  0  0  0  0  0  0  0
  -28.8966  -30.7167   22.2816 C   0  0  0  0  0  0  0  0  0  0  0  0
  -30.8733  -29.8857   19.6266 C   0  0  0  0  0  0  0  0  0  0  0  0
  -30.7234  -14.7739   20.6578 C   0  0  0  0  0  0  0  0  0  0  0  0
  -24.6305  -33.3297   27.3971 C   0  0  0  0  0  0  0  0  0  0  0  0
  -30.1451  -29.5038   25.5349 C   0  0  0  0  0  0  0  0  0  0  0  0
  -29.2072  -28.3164   22.9942 C   0  0  0  0  0  0  0  0  0  0  0  0
  -28.4982  -20.8708   25.2576 C   0  0  0  0  0  0  0  0  0  0  0  0
  -30.6691  -21.0257   24.1348 C   0  0  0  0  0  0  0  0  0  0  0  0
  -24.9340  -32.9055   25.9624 C   0  0  0  0  0  0  0  0  0  0  0  0
  -29.6181  -12.3505   18.2951 C   0  0  0  0  0  0  0  0  0  0  0  0
  -24.8664  -31.3875   25.8290 C   0  0  0  0  0  0  0  0  0  0  0  0
  -28.1778  -12.0584   18.7222 C   0  0  0  0  0  0  0  0  0  0  0  0
  -28.6075  -19.7450   24.2331 C   0  0  0  0  0  0  0  0  0  0  0  0
  -30.5300  -12.5847   19.4982 C   0  0  0  0  0  0  0  0  0  0  0  0
  -28.6187  -13.3112   20.8723 C   0  0  0  0  0  0  0  0  0  0  0  0
  -25.9116  -30.7081   26.7221 C   0  0  1  0  0  0  0  0  0  0  0  0
  -29.0722  -30.1747   24.6827 C   0  0  1  0  0  0  0  0  0  0  0  0
  -27.6489  -13.1326   19.6928 C   0  0  2  0  0  0  0  0  0  0  0  0
  -31.6400  -30.7441   17.3967 C   0  0  0  0  0  0  0  0  0  0  0  0
  -26.1837  -30.0075   21.0787 C   0  0  0  0  0  0  0  0  0  0  0  0
  -27.2727  -29.9636   18.8247 C   0  0  0  0  0  0  0  0  0  0  0  0
  -27.2291  -32.0791   20.1459 C   0  0  0  0  0  0  0  0  0  0  0  0
  -33.7088  -29.8935   20.4744 C   0  0  0  0  0  0  0  0  0  0  0  0
  -28.7505  -30.1951   20.8725 C   0  0  1  0  0  0  0  0  0  0  0  0
  -31.9437  -30.6656   18.8847 C   0  0  2  0  0  0  0  0  0  0  0  0
  -27.3686  -30.5448   20.2515 C   0  0  0  0  0  0  0  0  0  0  0  0
  -31.7497  -18.8019   22.4046 N   0  0  0  0  0  0  0  0  0  0  0  0
  -25.8625  -11.5408   20.2897 N   0  0  0  0  0  0  0  0  0  0  0  0
  -26.2380  -12.8245   20.1578 N   0  0  0  0  0  0  0  0  0  0  0  0
  -29.9909  -19.7858   23.7653 N   0  0  3  0  0  0  0  0  0  0  0  0
  -29.1225  -29.7582   23.2797 N   0  0  0  0  0  0  0  0  0  0  0  0
  -29.9674  -13.6177   20.3707 N   0  0  0  0  0  0  0  0  0  0  0  0
  -25.4678  -15.0517   20.3962 N   0  0  0  0  0  0  0  0  0  0  0  0
  -21.8834  -12.5766   21.5886 N   0  0  0  0  0  0  0  0  0  0  0  0
  -30.0728  -15.7009   21.4715 N   0  0  0  0  0  0  0  0  0  0  0  0
  -27.2241  -30.7925   26.1181 N   0  0  0  0  0  0  0  0  0  0  0  0
  -29.8904  -30.7146   20.1247 N   0  0  0  0  0  0  0  0  0  0  0  0
  -33.2732  -30.0152   19.0593 N   0  3  0  0  0  0  0  0  0  0  0  0
  -22.6568  -14.7165   21.3031 O   0  0  0  0  0  0  0  0  0  0  0  0
  -27.0656  -28.9311   24.7279 O   0  0  0  0  0  0  0  0  0  0  0  0
  -28.8205  -31.9304   22.4881 O   0  0  0  0  0  0  0  0  0  0  0  0
  -30.9040  -28.6631   19.7487 O   0  0  0  0  0  0  0  0  0  0  0  0
  -31.8534  -14.9426   20.1924 O   0  0  0  0  0  0  0  0  0  0  0  0
  -29.7873  -17.7228   22.7205 O   0  0  0  0  0  0  0  0  0  0  0  0
  -21.6176   -7.0135   21.7154 O   0  0  0  0  0  0  0  0  0  0  0  0
  -30.6264  -23.9314   24.6359 O   0  0  0  0  0  0  0  0  0  1  0  0
  -18.6155   -6.8669   26.3381 F   0  0  0  0  0  0  0  0  0  0  0  0
  -22.0660   -5.0772   23.6369 F   0  0  0  0  0  0  0  0  0  0  0  0
  1  2  1  0  0  0  0
  1  5  2  0  0  0  0
  2  6  2  0  0  0  0
  3  8  2  0  0  0  0
  3 16  1  0  0  0  0
  4  9  1  0  0  0  0
  4 16  2  0  0  0  0
  5 18  1  0  0  0  0
  6 20  1  0  0  0  0
  7 10  2  0  0  0  0
  7 19  1  0  0  0  0
  8 22  1  0  0  0  0
  9 22  2  0  0  0  0
 10 23  1  0  0  0  0
 11 12  2  0  0  0  0
 11 24  1  0  0  0  0
 12 25  1  0  0  0  0
 13 21  1  0  0  0  0
 13 23  2  0  0  0  0
 14 25  2  0  0  0  0
 14 26  1  0  0  0  0
 15 29  2  0  0  0  0
 15 61  1  0  0  0  0
 16 27  1  0  0  0  0
 17 27  1  0  0  0  0
 17 28  2  0  0  0  0
 17 33  1  0  0  0  0
 18 20  2  0  0  0  0
 18 38  1  0  0  0  0
 19 21  2  0  0  0  0
 19 39  1  0  0  0  0
 20 50  1  0  0  0  0
 21 40  1  0  0  0  0
 22 79  1  0  0  0  0
 23 80  1  0  0  0  0
 24 26  2  0  0  0  0
 24 79  1  0  0  0  0
 25 81  1  0  0  0  0
 26 82  1  0  0  0  0
 27 62  2  0  0  0  0
 28 63  1  0  0  0  0
 28 67  1  0  0  0  0
 29 69  1  0  0  0  0
 29 78  1  0  0  0  0
 30 61  2  0  0  0  0
 30 64  1  0  0  0  0
 30 78  1  0  0  0  0
 31 32  2  0  0  0  0
 31 41  1  0  0  0  0
 31 42  1  0  0  0  0
 32 80  1  0  0  0  0
 33 68  1  0  0  0  0
 33 73  2  0  0  0  0
 34 51  1  0  0  0  0
 34 70  1  0  0  0  0
 34 74  2  0  0  0  0
 35 58  1  0  0  0  0
 35 65  1  0  0  0  0
 35 75  2  0  0  0  0
 36 59  1  0  0  0  0
 36 71  1  0  0  0  0
 36 76  2  0  0  0  0
 37 66  1  0  0  0  0
 37 69  1  0  0  0  0
 37 77  2  0  0  0  0
 38 43  1  0  0  0  0
 39 51  1  0  0  0  0
 40 65  1  0  0  0  0
 41 47  1  0  0  0  0
 42 64  1  0  0  0  0
 43 45  1  0  0  0  0
 44 46  1  0  0  0  0
 44 48  1  0  0  0  0
 45 50  1  0  0  0  0
 46 52  1  0  0  0  0
 47 64  1  0  0  0  0
 48 66  1  0  0  0  0
 49 52  1  0  0  0  0
 49 66  1  0  0  0  0
 50 70  1  0  0  0  0
 51 65  1  0  0  0  0
 52 63  1  0  0  0  0
 53 59  1  0  0  0  0
 54 60  1  0  0  0  0
 55 60  1  0  0  0  0
 56 60  1  0  0  0  0
 57 72  1  0  0  0  0
 58 60  1  0  0  0  0
 58 71  1  0  0  0  0
 59 72  1  0  0  0  0
 62 63  1  0  0  0  0
M  CHG  1  72   1
M  ISO  4  32 101  37 100  69 100  80 101
M  END
> <Batch ID>
0157

> <Smiles>
CNC(C)C(=O)NC(C(=O)N1Cc2cc([101O:1][101CH:1]=C3CCN(c4ncc([100NH:0][100C:0](=O)N5CCCC(n6nc(-c7ccc(Oc8ccc(F)cc8F)cc7)c(C(N)=O)c6N)C5)o4)C3)ccc2CC1C(=O)NC1CCCc2ccccc21)C(C)(C)C

> <Shape>
0.239

> <Color>
0.191

> <Negative vol penalty>
0.000

$$$$

  -OEChem-04052303413D

 86 95  0     1  0  0  0  0  0999 V2000
  -29.0713  -33.2270   19.1759 C   0  0  0  0  0  0  0  0  0  0  0  0
  -28.6474  -31.9267   19.4263 C   0  0  0  0  0  0  0  0  0  0  0  0
  -23.0645   -9.8956   19.9261 C   0  0  0  0  0  0  0  0  0  0  0  0
  -23.8461   -9.8595   22.2118 C   0  0  0  0  0  0  0  0  0  0  0  0
  -28.3590  -34.3019   19.7035 C   0  0  0  0  0  0  0  0  0  0  0  0
  -27.5044  -31.7014   20.1942 C   0  0  0  0  0  0  0  0  0  0  0  0
  -25.9019  -27.0606   20.5077 C   0  0  0  0  0  0  0  0  0  0  0  0
  -22.3202   -8.7399   20.1623 C   0  0  0  0  0  0  0  0  0  0  0  0
  -23.1018   -8.7038   22.4481 C   0  0  0  0  0  0  0  0  0  0  0  0
  -26.5661  -26.0821   21.2461 C   0  0  0  0  0  0  0  0  0  0  0  0
  -19.8775   -7.9027   23.0670 C   0  0  0  0  0  0  0  0  0  0  0  0
  -19.1316   -7.8435   24.2441 C   0  0  0  0  0  0  0  0  0  0  0  0
  -32.0881  -16.5703   22.5713 C   0  0  0  0  0  0  0  0  0  0  0  0
  -24.9076  -26.2785   22.9868 C   0  0  0  0  0  0  0  0  0  0  0  0
  -29.9219  -17.4107   23.1924 C   0  0  0  0  0  0  0  0  0  0  0  0
  -20.3751   -5.8902   24.9337 C   0  0  0  0  0  0  0  0  0  0  0  0
  -32.6338  -17.4503   23.4920 C   0  0  0  0  0  0  0  0  0  0  0  0
  -23.8275  -10.4554   20.9508 C   0  0  0  0  0  0  0  0  0  0  0  0
  -24.1745  -12.9815   20.8730 C   0  0  0  0  0  0  0  0  0  0  0  0
  -27.2140  -34.0884   20.4886 C   0  0  0  0  0  0  0  0  0  0  0  0
  -24.7397  -27.6642   21.0091 C   0  0  0  0  0  0  0  0  0  0  0  0
  -26.7583  -32.7738   20.7155 C   0  0  0  0  0  0  0  0  0  0  0  0
  -24.2291  -27.2626   22.2518 C   0  0  0  0  0  0  0  0  0  0  0  0
  -30.7055  -16.5563   22.4247 C   0  0  0  0  0  0  0  0  0  0  0  0
  -22.3388   -8.1440   21.4233 C   0  0  0  0  0  0  0  0  0  0  0  0
  -26.0706  -25.6930   22.4871 C   0  0  0  0  0  0  0  0  0  0  0  0
  -20.8722   -6.9557   22.8231 C   0  0  0  0  0  0  0  0  0  0  0  0
  -19.3804   -6.8373   25.1775 C   0  0  0  0  0  0  0  0  0  0  0  0
  -21.1210   -5.9495   23.7565 C   0  0  0  0  0  0  0  0  0  0  0  0
  -24.5971  -11.6490   20.7072 C   0  0  0  0  0  0  0  0  0  0  0  0
  -30.5645  -18.2529   24.0855 C   0  0  0  0  0  0  0  0  0  0  0  0
  -25.2650  -13.7349   20.5128 C   0  0  0  0  0  0  0  0  0  0  0  0
  -22.9093  -13.4927   21.3132 C   0  0  0  0  0  0  0  0  0  0  0  0
  -23.9173  -30.6291   21.8072 C   0  0  0  0  0  0  0  0  0  0  0  0
  -20.9883  -29.2932   22.2056 C   0  0  0  0  0  0  0  0  0  0  0  0
  -19.1418  -26.4886   22.8152 C   0  0  0  0  0  0  0  0  0  0  0  0
  -30.7352  -14.7645   20.6542 C   0  0  0  0  0  0  0  0  0  0  0  0
  -26.4765  -35.2885   21.0282 C   0  0  0  0  0  0  0  0  0  0  0  0
  -24.0200  -28.6991   20.1884 C   0  0  0  0  0  0  0  0  0  0  0  0
  -22.9738  -27.8652   22.8256 C   0  0  0  0  0  0  0  0  0  0  0  0
  -25.5470  -34.9433   22.1871 C   0  0  0  0  0  0  0  0  0  0  0  0
  -29.5923  -12.3963   18.2536 C   0  0  0  0  0  0  0  0  0  0  0  0
  -24.6770  -33.7510   21.8183 C   0  0  0  0  0  0  0  0  0  0  0  0
  -28.1561  -12.1004   18.6916 C   0  0  0  0  0  0  0  0  0  0  0  0
  -29.7479  -22.5057   23.0219 C   0  0  0  0  0  0  0  0  0  0  0  0
  -27.4358  -22.0689   23.9332 C   0  0  0  0  0  0  0  0  0  0  0  0
  -30.5194  -12.6013   19.4504 C   0  0  0  0  0  0  0  0  0  0  0  0
  -28.6274  -13.3052   20.8626 C   0  0  0  0  0  0  0  0  0  0  0  0
  -30.2996  -21.3978   23.9124 C   0  0  0  0  0  0  0  0  0  0  0  0
  -28.0017  -20.9616   24.8163 C   0  0  0  0  0  0  0  0  0  0  0  0
  -25.5355  -32.5036   21.5735 C   0  0  1  0  0  0  0  0  0  0  0  0
  -23.1318  -29.6140   21.0259 C   0  0  1  0  0  0  0  0  0  0  0  0
  -27.6430  -13.1555   19.6912 C   0  0  2  0  0  0  0  0  0  0  0  0
  -28.4788  -23.1451   23.6033 C   0  0  0  0  0  0  0  0  0  0  0  0
  -16.7734  -25.7173   23.1210 C   0  0  0  0  0  0  0  0  0  0  0  0
  -20.9667  -30.4814   25.0159 C   0  0  0  0  0  0  0  0  0  0  0  0
  -19.0869  -28.9280   25.5829 C   0  0  0  0  0  0  0  0  0  0  0  0
  -18.7887  -30.6445   23.7975 C   0  0  0  0  0  0  0  0  0  0  0  0
  -19.3074  -24.6783   20.4798 C   0  0  0  0  0  0  0  0  0  0  0  0
  -29.7504  -19.1893   24.9287 C   0  0  0  0  0  0  0  0  0  0  0  0
  -27.8978  -24.1781   22.6368 C   0  0  0  0  0  0  0  0  0  1  0  0
  -20.2598  -28.6368   23.3534 C   0  0  1  0  0  0  0  0  0  0  0  0
  -17.9090  -25.9259   22.1311 C   0  0  2  0  0  0  0  0  0  0  0  0
  -19.8003  -29.6625   24.4277 C   0  0  0  0  0  0  0  0  0  0  0  0
  -31.9050  -18.2949   24.2556 N   0  0  0  0  0  0  0  0  0  0  0  0
  -25.8577  -11.5577   20.2752 N   0  0  0  0  0  0  0  0  0  0  0  0
  -26.2365  -12.8425   20.1664 N   0  0  0  0  0  0  0  0  0  0  0  0
  -22.3096  -28.8776   21.9881 N   0  0  0  0  0  0  0  0  0  0  0  0
  -29.9713  -13.6175   20.3514 N   0  0  0  0  0  0  0  0  0  0  0  0
  -25.4780  -15.0670   20.4618 N   0  0  0  0  0  0  0  0  0  0  0  0
  -21.8984  -12.5799   21.6437 N   0  0  0  0  0  0  0  0  0  0  0  0
  -30.0979  -15.6762   21.4952 N   0  0  0  0  0  0  0  0  0  0  0  0
  -24.7014  -31.4564   21.0261 N   0  0  0  0  0  0  0  0  0  0  0  0
  -19.1728  -27.8660   22.7596 N   0  0  0  0  0  0  0  0  0  0  0  0
  -29.2236  -20.3690   24.1586 N   0  3  0  0  0  0  0  0  0  0  0  0
  -18.2230  -24.6161   21.4933 N   0  3  0  0  0  0  0  0  0  0  0  0
  -22.6767  -14.7226   21.3949 O   0  0  0  0  0  0  0  0  0  0  0  0
  -23.8181  -30.6603   23.0282 O   0  0  0  0  0  0  0  0  0  0  0  0
  -20.4041  -30.1381   21.5226 O   0  0  0  0  0  0  0  0  0  0  0  0
  -19.9903  -25.7776   23.3491 O   0  0  0  0  0  0  0  0  0  0  0  0
  -31.8602  -14.9390   20.1789 O   0  0  0  0  0  0  0  0  0  0  0  0
  -28.8128  -23.8226   24.8185 O   0  0  0  0  0  0  0  0  0  0  0  0
  -21.6124   -7.0163   21.6543 O   0  0  0  0  0  0  0  0  0  0  0  0
  -26.7173  -24.7386   23.2101 O   0  0  0  0  0  0  0  0  0  1  0  0
  -18.6651   -6.7814   26.3086 F   0  0  0  0  0  0  0  0  0  0  0  0
  -22.0761   -5.0375   23.5284 F   0  0  0  0  0  0  0  0  0  0  0  0
  1  2  1  0  0  0  0
  1  5  2  0  0  0  0
  2  6  2  0  0  0  0
  3  8  2  0  0  0  0
  3 18  1  0  0  0  0
  4  9  1  0  0  0  0
  4 18  2  0  0  0  0
  5 20  1  0  0  0  0
  6 22  1  0  0  0  0
  7 10  2  0  0  0  0
  7 21  1  0  0  0  0
  8 25  1  0  0  0  0
  9 25  2  0  0  0  0
 10 26  1  0  0  0  0
 11 12  2  0  0  0  0
 11 27  1  0  0  0  0
 12 28  1  0  0  0  0
 13 17  2  0  0  0  0
 13 24  1  0  0  0  0
 14 23  1  0  0  0  0
 14 26  2  0  0  0  0
 15 24  2  0  0  0  0
 15 31  1  0  0  0  0
 16 28  2  0  0  0  0
 16 29  1  0  0  0  0
 17 65  1  0  0  0  0
 18 30  1  0  0  0  0
 19 30  1  0  0  0  0
 19 32  2  0  0  0  0
 19 33  1  0  0  0  0
 20 22  2  0  0  0  0
 20 38  1  0  0  0  0
 21 23  2  0  0  0  0
 21 39  1  0  0  0  0
 22 51  1  0  0  0  0
 23 40  1  0  0  0  0
 24 72  1  0  0  0  0
 25 83  1  0  0  0  0
 26 84  1  0  0  0  0
 27 29  2  0  0  0  0
 27 83  1  0  0  0  0
 28 85  1  0  0  0  0
 29 86  1  0  0  0  0
 30 66  2  0  0  0  0
 31 60  1  0  0  0  0
 31 65  2  0  0  0  0
 32 67  1  0  0  0  0
 32 70  1  0  0  0  0
 33 71  1  0  0  0  0
 33 77  2  0  0  0  0
 34 52  1  0  0  0  0
 34 73  1  0  0  0  0
 34 78  2  0  0  0  0
 35 62  1  0  0  0  0
 35 68  1  0  0  0  0
 35 79  2  0  0  0  0
 36 63  1  0  0  0  0
 36 74  1  0  0  0  0
 36 80  2  0  0  0  0
 37 69  1  0  0  0  0
 37 72  1  0  0  0  0
 37 81  2  0  0  0  0
 38 41  1  0  0  0  0
 39 52  1  0  0  0  0
 40 68  1  0  0  0  0
 41 43  1  0  0  0  0
 42 44  1  0  0  0  0
 42 47  1  0  0  0  0
 43 51  1  0  0  0  0
 44 53  1  0  0  0  0
 45 49  1  0  0  0  0
 45 54  1  0  0  0  0
 46 50  1  0  0  0  0
 46 54  1  0  0  0  0
 47 69  1  0  0  0  0
 48 53  1  0  0  0  0
 48 69  1  0  0  0  0
 49 75  1  0  0  0  0
 50 75  1  0  0  0  0
 51 73  1  0  0  0  0
 52 68  1  0  0  0  0
 53 67  1  0  0  0  0
 54 61  1  0  0  0  0
 54 82  1  0  0  0  0
 55 63  1  0  0  0  0
 56 64  1  0  0  0  0
 57 64  1  0  0  0  0
 58 64  1  0  0  0  0
 59 76  1  0  0  0  0
 60 75  1  0  0  0  0
 61 84  1  0  0  0  0
 62 64  1  0  0  0  0
 62 74  1  0  0  0  0
 63 76  1  0  0  0  0
 66 67  1  0  0  0  0
M  CHG  2  75   1  76   1
M  ISO  4  37 100  61 101  72 100  84 101
M  END
> <Batch ID>
0157

> <Smiles>
CNC(C)C(=O)NC(C(=O)N1Cc2cc([101O:1][101CH2:1]C3(O)CCN(Cc4cc([100NH:0][100C:0](=O)N5CCCC(n6nc(-c7ccc(Oc8ccc(F)cc8F)cc7)c(C(N)=O)c6N)C5)ccn4)CC3)ccc2CC1C(=O)NC1CCCc2ccccc21)C(C)(C)C

> <Shape>
0.307

> <Color>
0.179

> <Negative vol penalty>
0.000

$$$$

  -OEChem-04052303413D

 87 96  0     1  0  0  0  0  0999 V2000
  -27.2826  -36.3652   20.0524 C   0  0  0  0  0  0  0  0  0  0  0  0
  -28.1931  -35.3136   20.0759 C   0  0  0  0  0  0  0  0  0  0  0  0
  -24.0420   -9.6067   21.5297 C   0  0  0  0  0  0  0  0  0  0  0  0
  -24.5717  -10.7287   23.6028 C   0  0  0  0  0  0  0  0  0  0  0  0
  -26.0206  -36.2059   20.6234 C   0  0  0  0  0  0  0  0  0  0  0  0
  -27.8426  -34.1025   20.6716 C   0  0  0  0  0  0  0  0  0  0  0  0
  -28.9604  -27.0528   20.0648 C   0  0  0  0  0  0  0  0  0  0  0  0
  -32.2945  -17.8322   21.7278 C   0  0  0  0  0  0  0  0  0  0  0  0
  -32.0785  -19.1918   21.5028 C   0  0  0  0  0  0  0  0  0  0  0  0
  -23.6041   -8.4921   22.2449 C   0  0  0  0  0  0  0  0  0  0  0  0
  -24.1338   -9.6141   24.3180 C   0  0  0  0  0  0  0  0  0  0  0  0
  -29.3576  -25.9556   20.8278 C   0  0  0  0  0  0  0  0  0  0  0  0
  -20.8491   -7.5657   23.9724 C   0  0  0  0  0  0  0  0  0  0  0  0
  -19.6463   -6.9768   23.5824 C   0  0  0  0  0  0  0  0  0  0  0  0
  -30.1057  -19.1088   22.8950 C   0  0  0  0  0  0  0  0  0  0  0  0
  -27.1212  -25.7690   21.7127 C   0  0  0  0  0  0  0  0  0  0  0  0
  -20.8039   -4.9016   23.1456 C   0  0  0  0  0  0  0  0  0  0  0  0
  -24.5259  -10.7250   22.2087 C   0  0  0  0  0  0  0  0  0  0  0  0
  -24.2097  -12.9846   21.0676 C   0  0  0  0  0  0  0  0  0  0  0  0
  -25.6510  -34.9891   21.2178 C   0  0  0  0  0  0  0  0  0  0  0  0
  -27.6411  -27.5238   20.1283 C   0  0  0  0  0  0  0  0  0  0  0  0
  -26.5751  -33.9273   21.2523 C   0  0  0  0  0  0  0  0  0  0  0  0
  -30.3216  -17.7492   23.1200 C   0  0  0  0  0  0  0  0  0  0  0  0
  -26.7091  -26.8707   20.9475 C   0  0  0  0  0  0  0  0  0  0  0  0
  -31.4160  -17.1109   22.5364 C   0  0  0  0  0  0  0  0  0  0  0  0
  -30.9842  -19.8301   22.0864 C   0  0  0  0  0  0  0  0  0  0  0  0
  -23.6500   -8.4957   23.6390 C   0  0  0  0  0  0  0  0  0  0  0  0
  -28.4387  -25.3154   21.6541 C   0  0  0  0  0  0  0  0  0  0  0  0
  -22.0293   -6.8225   23.9489 C   0  0  0  0  0  0  0  0  0  0  0  0
  -19.6236   -5.6448   23.1690 C   0  0  0  0  0  0  0  0  0  0  0  0
  -22.0067   -5.4905   23.5355 C   0  0  0  0  0  0  0  0  0  0  0  0
  -24.9789  -11.8765   21.4705 C   0  0  0  0  0  0  0  0  0  0  0  0
  -25.0972  -13.7953   20.4030 C   0  0  0  0  0  0  0  0  0  0  0  0
  -22.8174  -13.2567   21.2755 C   0  0  0  0  0  0  0  0  0  0  0  0
  -26.2738  -30.2521   21.0174 C   0  0  0  0  0  0  0  0  0  0  0  0
  -23.5872  -28.8170   19.9015 C   0  0  0  0  0  0  0  0  0  0  0  0
  -29.7344  -21.9974   22.3600 C   0  0  0  0  0  0  0  0  0  0  0  0
  -21.9417  -25.9183   19.1690 C   0  0  0  0  0  0  0  0  0  0  0  0
  -31.0436  -14.4327   20.6948 C   0  0  0  0  0  0  0  0  0  0  0  0
  -24.2927  -34.8799   21.8641 C   0  0  0  0  0  0  0  0  0  0  0  0
  -27.2217  -28.6920   19.2787 C   0  0  0  0  0  0  0  0  0  0  0  0
  -25.2757  -27.3247   21.0360 C   0  0  0  0  0  0  0  0  0  0  0  0
  -23.8651  -33.4414   22.1437 C   0  0  0  0  0  0  0  0  0  0  0  0
  -29.1168  -13.6166   17.8142 C   0  0  0  0  0  0  0  0  0  0  0  0
  -27.8667  -17.0399   25.8578 C   0  0  0  0  0  0  0  0  0  0  0  0
  -25.0039  -32.6628   22.7945 C   0  0  0  0  0  0  0  0  0  0  0  0
  -29.2128  -17.5739   25.4032 C   0  0  0  0  0  0  0  0  0  0  0  0
  -27.7684  -13.1781   18.3883 C   0  0  0  0  0  0  0  0  0  0  0  0
  -30.2784  -13.1758   18.7021 C   0  0  0  0  0  0  0  0  0  0  0  0
  -28.8201  -13.1472   20.6886 C   0  0  0  0  0  0  0  0  0  0  0  0
  -27.0004  -17.1969   24.6258 C   0  0  0  0  0  0  0  0  0  0  0  0
  -26.2231  -32.5901   21.8672 C   0  0  1  0  0  0  0  0  0  0  0  0
  -29.3610  -16.9914   23.9982 C   0  0  1  0  0  0  0  0  0  0  0  0
  -25.9824  -29.4042   19.8117 C   0  0  1  0  0  0  0  0  0  0  0  0
  -27.6146  -13.6174   19.8568 C   0  0  2  0  0  0  0  0  0  0  0  0
  -19.7454  -25.0637   18.3069 C   0  0  0  0  0  0  0  0  0  0  0  0
  -22.2985  -29.4109   22.6028 C   0  0  0  0  0  0  0  0  0  0  0  0
  -20.5160  -27.7452   22.0401 C   0  0  0  0  0  0  0  0  0  0  0  0
  -20.8062  -29.7829   20.6307 C   0  0  0  0  0  0  0  0  0  0  0  0
  -23.2283  -24.6215   16.8405 C   0  0  0  0  0  0  0  0  0  0  0  0
  -31.6673  -15.6561   22.7620 C   0  0  0  0  0  0  0  0  0  0  0  0
  -29.8696  -23.4285   21.8742 C   0  0  0  0  0  0  0  0  0  1  0  0
  -22.5217  -27.9303   20.4994 C   0  0  1  0  0  0  0  0  0  0  0  0
  -21.1599  -25.4864   17.9416 C   0  0  2  0  0  0  0  0  0  0  0  0
  -21.5630  -28.7097   21.4433 C   0  0  0  0  0  0  0  0  0  0  0  0
  -26.2567  -11.9713   21.0933 N   0  0  0  0  0  0  0  0  0  0  0  0
  -26.2972  -13.1485   20.4463 N   0  0  0  0  0  0  0  0  0  0  0  0
  -24.9158  -28.4751   20.1908 N   0  0  0  0  0  0  0  0  0  0  0  0
  -30.0719  -13.6253   20.0809 N   0  0  0  0  0  0  0  0  0  0  0  0
  -24.9603  -14.9910   19.7917 N   0  0  0  0  0  0  0  0  0  0  0  0
  -22.0508  -12.3176   21.9788 N   0  0  0  0  0  0  0  0  0  0  0  0
  -30.7658  -21.2098   21.8601 N   0  0  0  0  0  0  0  0  0  0  0  0
  -26.0146  -31.5972   20.8352 N   0  0  0  0  0  0  0  0  0  0  0  0
  -21.8557  -27.2787   19.3768 N   0  0  0  0  0  0  0  0  0  0  0  0
  -30.7667  -14.8198   22.0003 N   0  0  0  0  0  0  0  0  0  0  0  0
  -27.9356  -16.9320   23.4815 N   0  3  0  0  0  0  0  0  0  0  0  0
  -21.8360  -24.3381   17.2743 N   0  3  0  0  0  0  0  0  0  0  0  0
  -22.2658  -14.2941   20.8360 O   0  0  0  0  0  0  0  0  0  0  0  0
  -26.7007  -29.7250   22.0380 O   0  0  0  0  0  0  0  0  0  0  0  0
  -23.2532  -29.7735   19.1978 O   0  0  0  0  0  0  0  0  0  0  0  0
  -28.8136  -21.6520   23.0931 O   0  0  0  0  0  0  0  0  0  0  0  0
  -22.5633  -25.1274   19.8752 O   0  0  0  0  0  0  0  0  0  0  0  0
  -32.0786  -14.7870   20.1202 O   0  0  0  0  0  0  0  0  0  0  0  0
  -23.2225   -7.4084   24.3371 O   0  0  0  0  0  0  0  0  0  0  0  0
  -28.8239  -24.2446   22.4005 O   0  0  0  0  0  0  0  0  0  1  0  0
  -18.4683   -5.0790   22.7960 F   0  0  0  0  0  0  0  0  0  0  0  0
  -23.1371   -4.7712   23.5120 F   0  0  0  0  0  0  0  0  0  0  0  0
  1  2  1  0  0  0  0
  1  5  2  0  0  0  0
  2  6  2  0  0  0  0
  3 10  2  0  0  0  0
  3 18  1  0  0  0  0
  4 11  1  0  0  0  0
  4 18  2  0  0  0  0
  5 20  1  0  0  0  0
  6 22  1  0  0  0  0
  7 12  2  0  0  0  0
  7 21  1  0  0  0  0
  8  9  2  0  0  0  0
  8 25  1  0  0  0  0
  9 26  1  0  0  0  0
 10 27  1  0  0  0  0
 11 27  2  0  0  0  0
 12 28  1  0  0  0  0
 13 14  2  0  0  0  0
 13 29  1  0  0  0  0
 14 30  1  0  0  0  0
 15 23  1  0  0  0  0
 15 26  2  0  0  0  0
 16 24  1  0  0  0  0
 16 28  2  0  0  0  0
 17 30  2  0  0  0  0
 17 31  1  0  0  0  0
 18 32  1  0  0  0  0
 19 32  1  0  0  0  0
 19 33  2  0  0  0  0
 19 34  1  0  0  0  0
 20 22  2  0  0  0  0
 20 40  1  0  0  0  0
 21 24  2  0  0  0  0
 21 41  1  0  0  0  0
 22 52  1  0  0  0  0
 23 25  2  0  0  0  0
 23 53  1  0  0  0  0
 24 42  1  0  0  0  0
 25 61  1  0  0  0  0
 26 72  1  0  0  0  0
 27 84  1  0  0  0  0
 28 85  1  0  0  0  0
 29 31  2  0  0  0  0
 29 84  1  0  0  0  0
 30 86  1  0  0  0  0
 31 87  1  0  0  0  0
 32 66  2  0  0  0  0
 33 67  1  0  0  0  0
 33 70  1  0  0  0  0
 34 71  1  0  0  0  0
 34 78  2  0  0  0  0
 35 54  1  0  0  0  0
 35 73  1  0  0  0  0
 35 79  2  0  0  0  0
 36 63  1  0  0  0  0
 36 68  1  0  0  0  0
 36 80  2  0  0  0  0
 37 62  1  0  0  0  0
 37 72  1  0  0  0  0
 37 81  2  0  0  0  0
 38 64  1  0  0  0  0
 38 74  1  0  0  0  0
 38 82  2  0  0  0  0
 39 69  1  0  0  0  0
 39 75  1  0  0  0  0
 39 83  2  0  0  0  0
 40 43  1  0  0  0  0
 41 54  1  0  0  0  0
 42 68  1  0  0  0  0
 43 46  1  0  0  0  0
 44 48  1  0  0  0  0
 44 49  1  0  0  0  0
 45 47  1  0  0  0  0
 45 51  1  0  0  0  0
 46 52  1  0  0  0  0
 47 53  1  0  0  0  0
 48 55  1  0  0  0  0
 49 69  1  0  0  0  0
 50 55  1  0  0  0  0
 50 69  1  0  0  0  0
 51 76  1  0  0  0  0
 52 73  1  0  0  0  0
 53 76  1  0  0  0  0
 54 68  1  0  0  0  0
 55 67  1  0  0  0  0
 56 64  1  0  0  0  0
 57 65  1  0  0  0  0
 58 65  1  0  0  0  0
 59 65  1  0  0  0  0
 60 77  1  0  0  0  0
 61 75  1  0  0  0  0
 62 85  1  0  0  0  0
 63 65  1  0  0  0  0
 63 74  1  0  0  0  0
 64 77  1  0  0  0  0
 66 67  1  0  0  0  0
M  CHG  2  76   1  77   1
M  ISO  4  39 100  62 101  75 100  85 101
M  END
> <Batch ID>
0157

> <Smiles>
CNC(C)C(=O)NC(C(=O)N1Cc2cc([101O:1][101CH2:1]C(=O)Nc3ccc(C[100NH:0][100C:0](=O)N4CCCC(n5nc(-c6ccc(Oc7ccc(F)cc7F)cc6)c(C(N)=O)c5N)C4)c(C4CCCN4)c3)ccc2CC1C(=O)NC1CCCc2ccccc21)C(C)(C)C

> <Shape>
0.278

> <Color>
0.132

> <Negative vol penalty>
0.000

$$$$

  -OEChem-04052303413D

 86 95  0     1  0  0  0  0  0999 V2000
  -25.7208  -37.5509   21.8207 C   0  0  0  0  0  0  0  0  0  0  0  0
  -26.4527  -36.4387   21.4172 C   0  0  0  0  0  0  0  0  0  0  0  0
  -23.1930  -14.5861   21.3263 C   0  0  0  0  0  0  0  0  0  0  0  0
  -25.5666  -15.0370   21.3328 C   0  0  0  0  0  0  0  0  0  0  0  0
  -24.7277  -37.4163   22.7900 C   0  0  0  0  0  0  0  0  0  0  0  0
  -26.1926  -35.1913   21.9836 C   0  0  0  0  0  0  0  0  0  0  0  0
  -26.5190  -29.7448   19.2024 C   0  0  0  0  0  0  0  0  0  0  0  0
  -23.4401  -13.2919   20.8684 C   0  0  0  0  0  0  0  0  0  0  0  0
  -25.8137  -13.7428   20.8749 C   0  0  0  0  0  0  0  0  0  0  0  0
  -27.5063  -28.7608   19.1800 C   0  0  0  0  0  0  0  0  0  0  0  0
  -24.4534  -10.3402   22.1698 C   0  0  0  0  0  0  0  0  0  0  0  0
  -23.7632   -9.2935   22.7810 C   0  0  0  0  0  0  0  0  0  0  0  0
  -26.3658  -27.5846   20.9506 C   0  0  0  0  0  0  0  0  0  0  0  0
  -22.7771   -8.7028   20.6559 C   0  0  0  0  0  0  0  0  0  0  0  0
  -28.8433  -23.8323   17.2784 C   0  0  0  0  0  0  0  0  0  0  0  0
  -24.2563  -15.4587   21.5584 C   0  0  0  0  0  0  0  0  0  0  0  0
  -23.9171  -17.2227   23.3697 C   0  0  0  0  0  0  0  0  0  0  0  0
  -24.4487  -36.1648   23.3616 C   0  0  0  0  0  0  0  0  0  0  0  0
  -25.4516  -29.6617   20.1081 C   0  0  0  0  0  0  0  0  0  0  0  0
  -25.1957  -35.0401   22.9624 C   0  0  0  0  0  0  0  0  0  0  0  0
  -25.3649  -28.5676   20.9808 C   0  0  0  0  0  0  0  0  0  0  0  0
  -24.7504  -12.8703   20.6427 C   0  0  0  0  0  0  0  0  0  0  0  0
  -27.4314  -27.6820   20.0561 C   0  0  0  0  0  0  0  0  0  0  0  0
  -24.3054  -10.5683   20.8016 C   0  0  0  0  0  0  0  0  0  0  0  0
  -22.9251   -8.4748   22.0241 C   0  0  0  0  0  0  0  0  0  0  0  0
  -23.4673   -9.7496   20.0447 C   0  0  0  0  0  0  0  0  0  0  0  0
  -24.0016  -16.7958   22.0309 C   0  0  0  0  0  0  0  0  0  0  0  0
  -28.6209  -22.4859   18.9953 C   0  0  0  0  0  0  0  0  0  0  0  0
  -23.6623  -18.5697   23.2852 C   0  0  0  0  0  0  0  0  0  0  0  0
  -27.2876  -22.7591   18.7720 C   0  0  0  0  0  0  0  0  0  0  0  0
  -24.0565  -16.4690   24.5814 C   0  0  0  0  0  0  0  0  0  0  0  0
  -24.4034  -31.4594   22.5108 C   0  0  0  0  0  0  0  0  0  0  0  0
  -29.4077  -24.6696   20.8245 C   0  0  0  0  0  0  0  0  0  0  0  0
  -21.9453  -29.3428   22.5084 C   0  0  0  0  0  0  0  0  0  0  0  0
  -20.8100  -26.2220   21.7219 C   0  0  0  0  0  0  0  0  0  0  0  0
  -24.7911  -22.6830   19.1005 C   0  0  0  0  0  0  0  0  0  0  0  0
  -23.3980  -36.0773   24.4400 C   0  0  0  0  0  0  0  0  0  0  0  0
  -24.3804  -30.7175   20.1015 C   0  0  0  0  0  0  0  0  0  0  0  0
  -24.2286  -28.4212   21.9585 C   0  0  0  0  0  0  0  0  0  0  0  0
  -22.9293  -34.6517   24.7196 C   0  0  0  0  0  0  0  0  0  0  0  0
  -30.5263  -19.4706   20.5084 C   0  0  0  0  0  0  0  0  0  0  0  0
  -21.6042  -21.8198   20.4330 C   0  0  0  0  0  0  0  0  0  0  0  0
  -31.3862  -20.2243   21.5117 C   0  0  0  0  0  0  0  0  0  0  0  0
  -24.1241  -33.7113   24.8418 C   0  0  0  0  0  0  0  0  0  0  0  0
  -29.9625  -20.4189   19.4576 C   0  0  0  0  0  0  0  0  0  0  0  0
  -21.8510  -20.4752   21.1210 C   0  0  0  0  0  0  0  0  0  0  0  0
  -22.4155  -21.9555   19.1457 C   0  0  0  0  0  0  0  0  0  0  0  0
  -24.1028  -20.3657   19.9790 C   0  0  0  0  0  0  0  0  0  0  0  0
  -30.6115  -21.3574   22.1622 C   0  0  0  0  0  0  0  0  0  0  0  0
  -24.9261  -33.6657   23.5355 C   0  0  1  0  0  0  0  0  0  0  0  0
  -29.1780  -21.5862   20.0840 C   0  0  1  0  0  0  0  0  0  0  0  0
  -23.6128  -30.7983   21.4174 C   0  0  1  0  0  0  0  0  0  0  0  0
  -23.3568  -20.2091   21.3141 C   0  0  2  0  0  0  0  0  0  0  0  0
  -18.7679  -24.7717   21.8764 C   0  0  0  0  0  0  0  0  0  0  0  0
  -22.4847  -28.9039   25.4793 C   0  0  0  0  0  0  0  0  0  0  0  0
  -21.1035  -26.8197   25.3510 C   0  0  0  0  0  0  0  0  0  0  0  0
  -20.0635  -29.0349   24.8669 C   0  0  0  0  0  0  0  0  0  0  0  0
  -20.6354  -25.9544   18.7796 C   0  0  0  0  0  0  0  0  0  0  0  0
  -29.4114  -23.4854   21.7549 C   0  0  0  0  0  0  0  0  0  0  0  0
  -28.2547  -25.6430   20.9620 C   0  0  0  0  0  0  0  0  0  1  0  0
  -21.6674  -28.0263   23.1929 C   0  0  1  0  0  0  0  0  0  0  0  0
  -19.5473  -25.7569   21.0193 C   0  0  2  0  0  0  0  0  0  0  0  0
  -21.3523  -28.1997   24.7056 C   0  0  0  0  0  0  0  0  0  0  0  0
  -29.5144  -23.1001   18.1396 N   0  0  0  0  0  0  0  0  0  0  0  0
  -23.8154  -17.7910   21.1597 N   0  0  0  0  0  0  0  0  0  0  0  0
  -23.6113  -18.8565   21.9528 N   0  0  0  0  0  0  0  0  0  0  0  0
  -23.2092  -29.4827   21.9179 N   0  0  0  0  0  0  0  0  0  0  0  0
  -23.8327  -21.6938   19.4064 N   0  0  0  0  0  0  0  0  0  0  0  0
  -23.4790  -19.5249   24.2214 N   0  0  0  0  0  0  0  0  0  0  0  0
  -24.3171  -15.0951   24.4875 N   0  0  0  0  0  0  0  0  0  0  0  0
  -26.1024  -22.3343   19.4220 N   0  0  0  0  0  0  0  0  0  0  0  0
  -24.2563  -32.8325   22.5600 N   0  0  0  0  0  0  0  0  0  0  0  0
  -20.6011  -27.3866   22.4300 N   0  0  0  0  0  0  0  0  0  0  0  0
  -30.0817  -22.3001   21.1003 N   0  3  1  0  0  0  0  0  0  0  0  0
  -19.8872  -25.0915   19.7298 N   0  3  0  0  0  0  0  0  0  0  0  0
  -23.9369  -16.9952   25.7139 O   0  0  0  0  0  0  0  0  0  0  0  0
  -25.0944  -30.7743   23.2557 O   0  0  0  0  0  0  0  0  0  0  0  0
  -30.2929  -24.8169   19.9821 O   0  0  0  0  0  0  0  0  0  0  0  0
  -21.0704  -30.2123   22.4919 O   0  0  0  0  0  0  0  0  0  0  0  0
  -21.8743  -25.6111   21.6528 O   0  0  0  0  0  0  0  0  0  0  0  0
  -24.4690  -23.7710   18.6161 O   0  0  0  0  0  0  0  0  0  0  0  0
  -24.9919  -11.6074   20.1961 O   0  0  0  0  0  0  0  0  0  0  0  0
  -28.3942  -26.7204   20.0368 O   0  0  0  0  0  0  0  0  0  1  0  0
  -22.2635   -7.4687   22.6109 F   0  0  0  0  0  0  0  0  0  0  0  0
  -23.3220   -9.9631   18.7298 F   0  0  0  0  0  0  0  0  0  0  0  0
  -27.1348  -23.8288   17.4401 S   0  0  0  0  0  0  0  0  0  0  0  0
  1  2  1  0  0  0  0
  1  5  2  0  0  0  0
  2  6  2  0  0  0  0
  3  8  2  0  0  0  0
  3 16  1  0  0  0  0
  4  9  1  0  0  0  0
  4 16  2  0  0  0  0
  5 18  1  0  0  0  0
  6 20  1  0  0  0  0
  7 10  2  0  0  0  0
  7 19  1  0  0  0  0
  8 22  1  0  0  0  0
  9 22  2  0  0  0  0
 10 23  1  0  0  0  0
 11 12  2  0  0  0  0
 11 24  1  0  0  0  0
 12 25  1  0  0  0  0
 13 21  1  0  0  0  0
 13 23  2  0  0  0  0
 14 25  2  0  0  0  0
 14 26  1  0  0  0  0
 15 64  2  0  0  0  0
 15 86  1  0  0  0  0
 16 27  1  0  0  0  0
 17 27  1  0  0  0  0
 17 29  2  0  0  0  0
 17 31  1  0  0  0  0
 18 20  2  0  0  0  0
 18 37  1  0  0  0  0
 19 21  2  0  0  0  0
 19 38  1  0  0  0  0
 20 50  1  0  0  0  0
 21 39  1  0  0  0  0
 22 82  1  0  0  0  0
 23 83  1  0  0  0  0
 24 26  2  0  0  0  0
 24 82  1  0  0  0  0
 25 84  1  0  0  0  0
 26 85  1  0  0  0  0
 27 65  2  0  0  0  0
 28 30  2  0  0  0  0
 28 51  1  0  0  0  0
 28 64  1  0  0  0  0
 29 66  1  0  0  0  0
 29 69  1  0  0  0  0
 30 71  1  0  0  0  0
 30 86  1  0  0  0  0
 31 70  1  0  0  0  0
 31 76  2  0  0  0  0
 32 52  1  0  0  0  0
 32 72  1  0  0  0  0
 32 77  2  0  0  0  0
 33 59  1  0  0  0  0
 33 60  1  0  0  0  0
 33 78  2  0  0  0  0
 34 61  1  0  0  0  0
 34 67  1  0  0  0  0
 34 79  2  0  0  0  0
 35 62  1  0  0  0  0
 35 73  1  0  0  0  0
 35 80  2  0  0  0  0
 36 68  1  0  0  0  0
 36 71  1  0  0  0  0
 36 81  2  0  0  0  0
 37 40  1  0  0  0  0
 38 52  1  0  0  0  0
 39 67  1  0  0  0  0
 40 44  1  0  0  0  0
 41 43  1  0  0  0  0
 41 45  1  0  0  0  0
 42 46  1  0  0  0  0
 42 47  1  0  0  0  0
 43 49  1  0  0  0  0
 44 50  1  0  0  0  0
 45 51  1  0  0  0  0
 46 53  1  0  0  0  0
 47 68  1  0  0  0  0
 48 53  1  0  0  0  0
 48 68  1  0  0  0  0
 49 74  1  0  0  0  0
 50 72  1  0  0  0  0
 51 74  1  0  0  0  0
 52 67  1  0  0  0  0
 53 66  1  0  0  0  0
 54 62  1  0  0  0  0
 55 63  1  0  0  0  0
 56 63  1  0  0  0  0
 57 63  1  0  0  0  0
 58 75  1  0  0  0  0
 59 74  1  0  0  0  0
 60 83  1  0  0  0  0
 61 63  1  0  0  0  0
 61 73  1  0  0  0  0
 62 75  1  0  0  0  0
 65 66  1  0  0  0  0
M  CHG  2  74   1  75   1
M  ISO  4  36 100  60 101  71 100  83 101
M  END
> <Batch ID>
0157

> <Smiles>
CNC(C)C(=O)NC(C(=O)N1Cc2cc([101O:1][101CH2:1]C(=O)CN3CCCCC3c3ncsc3[100NH:0][100C:0](=O)N3CCCC(n4nc(-c5ccc(Oc6ccc(F)cc6F)cc5)c(C(N)=O)c4N)C3)ccc2CC1C(=O)NC1CCCc2ccccc21)C(C)(C)C

> <Shape>
0.275

> <Color>
0.082

> <Negative vol penalty>
0.000

$$$$

  -OEChem-04052303413D

 84 92  0     1  0  0  0  0  0999 V2000
  -17.6089  -26.9443    9.5088 C   0  0  0  0  0  0  0  0  0  0  0  0
  -18.2373  -25.9152   10.2028 C   0  0  0  0  0  0  0  0  0  0  0  0
  -23.1889   -9.8192   19.9306 C   0  0  0  0  0  0  0  0  0  0  0  0
  -23.5553   -9.9988   22.3119 C   0  0  0  0  0  0  0  0  0  0  0  0
  -17.3512  -28.1574   10.1459 C   0  0  0  0  0  0  0  0  0  0  0  0
  -18.6094  -26.0991   11.5340 C   0  0  0  0  0  0  0  0  0  0  0  0
  -17.4182  -22.1335   14.4495 C   0  0  0  0  0  0  0  0  0  0  0  0
  -22.4188   -8.6744   20.1354 C   0  0  0  0  0  0  0  0  0  0  0  0
  -22.7852   -8.8540   22.5167 C   0  0  0  0  0  0  0  0  0  0  0  0
  -18.2512  -21.0178   14.3783 C   0  0  0  0  0  0  0  0  0  0  0  0
  -23.1797   -5.5063   22.2548 C   0  0  0  0  0  0  0  0  0  0  0  0
  -23.6712   -4.5438   23.1366 C   0  0  0  0  0  0  0  0  0  0  0  0
  -28.2063  -18.7415   15.6139 C   0  0  0  0  0  0  0  0  0  0  0  0
  -26.8838  -19.1686   15.2999 C   0  0  0  0  0  0  0  0  0  0  0  0
  -19.3466  -21.7134   16.4119 C   0  0  0  0  0  0  0  0  0  0  0  0
  -21.7081   -4.8085   24.5198 C   0  0  0  0  0  0  0  0  0  0  0  0
  -23.7572  -10.4814   21.0188 C   0  0  0  0  0  0  0  0  0  0  0  0
  -24.1031  -12.9972   20.7768 C   0  0  0  0  0  0  0  0  0  0  0  0
  -17.7117  -28.3529   11.4885 C   0  0  0  0  0  0  0  0  0  0  0  0
  -17.5506  -23.0548   15.4983 C   0  0  0  0  0  0  0  0  0  0  0  0
  -18.3575  -27.3164   12.1893 C   0  0  0  0  0  0  0  0  0  0  0  0
  -18.5123  -22.8386   16.4955 C   0  0  0  0  0  0  0  0  0  0  0  0
  -22.2170   -8.1918   21.4284 C   0  0  0  0  0  0  0  0  0  0  0  0
  -19.2175  -20.8091   15.3579 C   0  0  0  0  0  0  0  0  0  0  0  0
  -21.9524   -6.1200   22.5055 C   0  0  0  0  0  0  0  0  0  0  0  0
  -22.9355   -4.1949   24.2690 C   0  0  0  0  0  0  0  0  0  0  0  0
  -21.2166   -5.7711   23.6380 C   0  0  0  0  0  0  0  0  0  0  0  0
  -24.5533  -11.6637   20.8079 C   0  0  0  0  0  0  0  0  0  0  0  0
  -28.2170  -17.5296   16.2685 C   0  0  0  0  0  0  0  0  0  0  0  0
  -25.2373  -13.7372   20.5473 C   0  0  0  0  0  0  0  0  0  0  0  0
  -25.9339  -18.2666   15.7265 C   0  0  0  0  0  0  0  0  0  0  0  0
  -21.3800  -19.9312   15.2049 C   0  0  0  0  0  0  0  0  0  1  0  0
  -22.7783  -13.5203   20.9407 C   0  0  0  0  0  0  0  0  0  0  0  0
  -29.3791  -16.7473   16.7632 C   0  0  0  0  0  0  0  0  0  0  0  0
  -22.2723  -18.9360   15.1335 C   0  0  0  0  0  0  0  0  0  0  0  0
  -23.7308  -19.2718   15.0434 C   0  0  0  0  0  0  0  0  0  0  0  0
  -18.2737  -26.1440   15.6923 C   0  0  0  0  0  0  0  0  0  0  0  0
  -17.5552  -25.7159   18.8265 C   0  0  0  0  0  0  0  0  0  0  0  0
  -17.2737  -23.5733   21.4678 C   0  0  0  0  0  0  0  0  0  0  0  0
  -30.0149  -14.6379   17.8899 C   0  0  0  0  0  0  0  0  0  0  0  0
  -17.4551  -29.6980   12.1206 C   0  0  0  0  0  0  0  0  0  0  0  0
  -16.6264  -24.2391   15.5753 C   0  0  0  0  0  0  0  0  0  0  0  0
  -18.6815  -23.7871   17.6532 C   0  0  0  0  0  0  0  0  0  0  0  0
  -17.5437  -29.6817   13.6445 C   0  0  0  0  0  0  0  0  0  0  0  0
  -30.1207  -12.3951   20.6204 C   0  0  0  0  0  0  0  0  0  0  0  0
  -18.7921  -28.9322   14.0987 C   0  0  0  0  0  0  0  0  0  0  0  0
  -28.6444  -12.1185   20.9179 C   0  0  0  0  0  0  0  0  0  0  0  0
  -30.3839  -12.5175   19.1202 C   0  0  0  0  0  0  0  0  0  0  0  0
  -28.0538  -13.1962   18.7102 C   0  0  0  0  0  0  0  0  0  0  0  0
  -18.7540  -27.4689   13.6417 C   0  0  1  0  0  0  0  0  0  0  0  0
  -17.1922  -25.3853   16.4081 C   0  0  1  0  0  0  0  0  0  0  0  0
  -27.7249  -13.1342   20.2106 C   0  0  1  0  0  0  0  0  0  0  0  0
  -16.7032  -23.5225   23.9110 C   0  0  0  0  0  0  0  0  0  0  0  0
  -20.2855  -26.9076   19.4862 C   0  0  0  0  0  0  0  0  0  0  0  0
  -20.0580  -25.9717   21.7971 C   0  0  0  0  0  0  0  0  0  0  0  0
  -18.4268  -27.6706   20.9753 C   0  0  0  0  0  0  0  0  0  0  0  0
  -14.9849  -21.7526   21.0144 C   0  0  0  0  0  0  0  0  0  0  0  0
  -18.3335  -25.3169   20.0569 C   0  0  1  0  0  0  0  0  0  0  0  0
  -16.1717  -23.3781   22.4935 C   0  0  2  0  0  0  0  0  0  0  0  0
  -19.2743  -26.4497   20.5561 C   0  0  0  0  0  0  0  0  0  0  0  0
  -25.8706  -11.5595   20.6135 N   0  0  0  0  0  0  0  0  0  0  0  0
  -26.2580  -12.8369   20.4580 N   0  0  0  0  0  0  0  0  0  0  0  0
  -17.7582  -24.9335   17.6808 N   0  0  0  0  0  0  0  0  0  0  0  0
  -29.4800  -13.5049   18.5275 N   0  0  0  0  0  0  0  0  0  0  0  0
  -25.4511  -15.0635   20.4151 N   0  0  0  0  0  0  0  0  0  0  0  0
  -21.7283  -12.6205   21.1694 N   0  0  0  0  0  0  0  0  0  0  0  0
  -24.5220  -18.2904   15.6248 N   0  0  0  0  0  0  0  0  0  0  0  0
  -29.0692  -15.5422   17.3941 N   0  0  0  0  0  0  0  0  0  0  0  0
  -17.8725  -26.6970   14.4912 N   0  0  0  0  0  0  0  0  0  0  0  0
  -17.3476  -24.8821   21.0404 N   0  0  0  0  0  0  0  0  0  0  0  0
  -15.5681  -22.0228   22.3537 N   0  3  0  0  0  0  0  0  0  0  0  0
  -22.5304  -14.7479   20.8698 O   0  0  0  0  0  0  0  0  0  0  0  0
  -30.5141  -17.1701   16.5613 O   0  0  0  0  0  0  0  0  0  0  0  0
  -24.1068  -20.3078   14.5057 O   0  0  0  0  0  0  0  0  0  0  0  0
  -19.3892  -26.2233   16.1935 O   0  0  0  0  0  0  0  0  0  0  0  0
  -16.7897  -26.6816   18.8819 O   0  0  0  0  0  0  0  0  0  0  0  0
  -17.9989  -22.6571   21.0868 O   0  0  0  0  0  0  0  0  0  0  0  0
  -31.2292  -14.8458   17.8031 O   0  0  0  0  0  0  0  0  0  0  0  0
  -21.9031  -17.6063   15.1409 O   0  0  0  0  0  0  0  0  0  0  0  0
  -21.4654   -7.0748   21.6287 O   0  0  0  0  0  0  0  0  0  0  0  0
  -20.0323  -19.7213   15.2905 O   0  0  0  0  0  0  0  0  0  1  0  0
  -23.4069   -3.2695   25.1149 F   0  0  0  0  0  0  0  0  0  0  0  0
  -20.0364   -6.3563   23.8835 F   0  0  0  0  0  0  0  0  0  0  0  0
  -26.6372  -16.9116   16.5022 S   0  0  0  0  0  0  0  0  0  0  0  0
  1  2  1  0  0  0  0
  1  5  2  0  0  0  0
  2  6  2  0  0  0  0
  3  8  2  0  0  0  0
  3 17  1  0  0  0  0
  4  9  1  0  0  0  0
  4 17  2  0  0  0  0
  5 19  1  0  0  0  0
  6 21  1  0  0  0  0
  7 10  2  0  0  0  0
  7 20  1  0  0  0  0
  8 23  1  0  0  0  0
  9 23  2  0  0  0  0
 10 24  1  0  0  0  0
 11 12  2  0  0  0  0
 11 25  1  0  0  0  0
 12 26  1  0  0  0  0
 13 14  1  0  0  0  0
 13 29  2  0  0  0  0
 14 31  2  0  0  0  0
 15 22  1  0  0  0  0
 15 24  2  0  0  0  0
 16 26  2  0  0  0  0
 16 27  1  0  0  0  0
 17 28  1  0  0  0  0
 18 28  1  0  0  0  0
 18 30  2  0  0  0  0
 18 33  1  0  0  0  0
 19 21  2  0  0  0  0
 19 41  1  0  0  0  0
 20 22  2  0  0  0  0
 20 42  1  0  0  0  0
 21 50  1  0  0  0  0
 22 43  1  0  0  0  0
 23 80  1  0  0  0  0
 24 81  1  0  0  0  0
 25 27  2  0  0  0  0
 25 80  1  0  0  0  0
 26 82  1  0  0  0  0
 27 83  1  0  0  0  0
 28 61  2  0  0  0  0
 29 34  1  0  0  0  0
 29 84  1  0  0  0  0
 30 62  1  0  0  0  0
 30 65  1  0  0  0  0
 31 67  1  0  0  0  0
 31 84  1  0  0  0  0
 32 35  2  0  0  0  0
 32 81  1  0  0  0  0
 33 66  1  0  0  0  0
 33 72  2  0  0  0  0
 34 68  1  0  0  0  0
 34 73  2  0  0  0  0
 35 36  1  0  0  0  0
 35 79  1  0  0  0  0
 36 67  1  0  0  0  0
 36 74  2  0  0  0  0
 37 51  1  0  0  0  0
 37 69  1  0  0  0  0
 37 75  2  0  0  0  0
 38 58  1  0  0  0  0
 38 63  1  0  0  0  0
 38 76  2  0  0  0  0
 39 59  1  0  0  0  0
 39 70  1  0  0  0  0
 39 77  2  0  0  0  0
 40 64  1  0  0  0  0
 40 68  1  0  0  0  0
 40 78  2  0  0  0  0
 41 44  1  0  0  0  0
 42 51  1  0  0  0  0
 43 63  1  0  0  0  0
 44 46  1  0  0  0  0
 45 47  1  0  0  0  0
 45 48  1  0  0  0  0
 46 50  1  0  0  0  0
 47 52  1  0  0  0  0
 48 64  1  0  0  0  0
 49 52  1  0  0  0  0
 49 64  1  0  0  0  0
 50 69  1  0  0  0  0
 51 63  1  0  0  0  0
 52 62  1  0  0  0  0
 53 59  1  0  0  0  0
 54 60  1  0  0  0  0
 55 60  1  0  0  0  0
 56 60  1  0  0  0  0
 57 71  1  0  0  0  0
 58 60  1  0  0  0  0
 58 70  1  0  0  0  0
 59 71  1  0  0  0  0
 61 62  1  0  0  0  0
M  CHG  1  71   1
M  ISO  4  32 101  40 100  68 100  81 101
M  END
> <Batch ID>
0157

> <Smiles>
CNC(C)C(=O)NC(C(=O)N1Cc2cc([101O:1][101CH2:1]C(=O)C(=O)Nc3ccc(C(=O)[100NH:0][100C:0](=O)N4CCCC(n5nc(-c6ccc(Oc7ccc(F)cc7F)cc6)c(C(N)=O)c5N)C4)s3)ccc2CC1C(=O)NC1CCCc2ccccc21)C(C)(C)C

> <Shape>
0.161

> <Color>
0.175

> <Negative vol penalty>
0.000

$$$$

  -OEChem-04052303413D

 84 93  0     1  0  0  0  0  0999 V2000
  -38.6061  -27.5085   23.5839 C   0  0  0  0  0  0  0  0  0  0  0  0
  -37.4528  -26.7525   23.4002 C   0  0  0  0  0  0  0  0  0  0  0  0
  -23.0769   -9.8651   19.9408 C   0  0  0  0  0  0  0  0  0  0  0  0
  -23.8353   -9.8740   22.2347 C   0  0  0  0  0  0  0  0  0  0  0  0
  -38.6897  -28.7923   23.0466 C   0  0  0  0  0  0  0  0  0  0  0  0
  -36.3819  -27.2804   22.6798 C   0  0  0  0  0  0  0  0  0  0  0  0
  -34.4365  -23.9656   19.3824 C   0  0  0  0  0  0  0  0  0  0  0  0
  -22.3337   -8.7115   20.1910 C   0  0  0  0  0  0  0  0  0  0  0  0
  -23.0921   -8.7204   22.4849 C   0  0  0  0  0  0  0  0  0  0  0  0
  -33.5962  -22.9775   19.8936 C   0  0  0  0  0  0  0  0  0  0  0  0
  -19.8641   -7.9206   23.0857 C   0  0  0  0  0  0  0  0  0  0  0  0
  -19.1064   -7.8807   24.2562 C   0  0  0  0  0  0  0  0  0  0  0  0
  -31.6753  -24.2509   19.1810 C   0  0  0  0  0  0  0  0  0  0  0  0
  -20.3488   -5.9446   24.9945 C   0  0  0  0  0  0  0  0  0  0  0  0
  -31.7825  -17.5833   21.7273 C   0  0  0  0  0  0  0  0  0  0  0  0
  -23.8278  -10.4463   20.9627 C   0  0  0  0  0  0  0  0  0  0  0  0
  -24.1678  -12.9716   20.8414 C   0  0  0  0  0  0  0  0  0  0  0  0
  -37.6230  -29.3325   22.3110 C   0  0  0  0  0  0  0  0  0  0  0  0
  -33.9014  -25.1109   18.7753 C   0  0  0  0  0  0  0  0  0  0  0  0
  -36.4507  -28.5732   22.1332 C   0  0  0  0  0  0  0  0  0  0  0  0
  -32.5110  -25.2509   18.6606 C   0  0  0  0  0  0  0  0  0  0  0  0
  -22.3413   -8.1392   21.4630 C   0  0  0  0  0  0  0  0  0  0  0  0
  -32.2153  -23.1214   19.7955 C   0  0  0  0  0  0  0  0  0  0  0  0
  -20.8641   -6.9724   22.8696 C   0  0  0  0  0  0  0  0  0  0  0  0
  -19.3488   -6.8928   25.2106 C   0  0  0  0  0  0  0  0  0  0  0  0
  -21.1065   -5.9844   23.8241 C   0  0  0  0  0  0  0  0  0  0  0  0
  -24.5961  -11.6376   20.7048 C   0  0  0  0  0  0  0  0  0  0  0  0
  -25.2596  -13.7217   20.4784 C   0  0  0  0  0  0  0  0  0  0  0  0
  -30.5798  -16.9396   21.9305 C   0  0  0  0  0  0  0  0  0  0  0  0
  -30.8204  -19.0793   23.0104 C   0  0  0  0  0  0  0  0  0  0  0  0
  -22.8967  -13.4867   21.2592 C   0  0  0  0  0  0  0  0  0  0  0  0
  -34.0063  -28.2290   19.3838 C   0  0  0  0  0  0  0  0  0  0  0  0
  -32.4441  -28.4390   16.5487 C   0  0  0  0  0  0  0  0  0  0  0  0
  -30.4522  -26.9367   14.2201 C   0  0  0  0  0  0  0  0  0  0  0  0
  -30.7250  -14.7713   20.6562 C   0  0  0  0  0  0  0  0  0  0  0  0
  -37.7413  -30.7428   21.7896 C   0  0  0  0  0  0  0  0  0  0  0  0
  -34.8217  -26.1550   18.2050 C   0  0  0  0  0  0  0  0  0  0  0  0
  -31.8867  -26.4518   17.9999 C   0  0  0  0  0  0  0  0  0  0  0  0
  -36.7075  -31.0855   20.7201 C   0  0  0  0  0  0  0  0  0  0  0  0
  -31.4426  -21.6927   25.8024 C   0  0  0  0  0  0  0  0  0  0  0  0
  -29.6138  -12.3555   18.2884 C   0  0  0  0  0  0  0  0  0  0  0  0
  -31.4380  -22.9488   24.9442 C   0  0  0  0  0  0  0  0  0  0  0  0
  -35.3194  -30.6232   21.1518 C   0  0  0  0  0  0  0  0  0  0  0  0
  -31.6399  -20.4501   24.9431 C   0  0  0  0  0  0  0  0  0  0  0  0
  -28.1741  -12.0631   18.7172 C   0  0  0  0  0  0  0  0  0  0  0  0
  -30.5280  -12.5856   19.4906 C   0  0  0  0  0  0  0  0  0  0  0  0
  -28.6196  -13.3094   20.8702 C   0  0  0  0  0  0  0  0  0  0  0  0
  -30.3836  -22.8692   23.8538 C   0  0  0  0  0  0  0  0  0  0  0  0
  -35.2775  -29.1015   21.3367 C   0  0  1  0  0  0  0  0  0  0  0  0
  -30.5918  -20.3430   23.8204 C   0  0  1  0  0  0  0  0  0  0  0  0
  -34.1606  -27.5229   18.0665 C   0  0  1  0  0  0  0  0  0  0  0  0
  -27.6477  -13.1348   19.6919 C   0  0  2  0  0  0  0  0  0  0  0  0
  -29.3114  -27.3724   12.0278 C   0  0  0  0  0  0  0  0  0  0  0  0
  -30.3149  -30.0850   17.9865 C   0  0  0  0  0  0  0  0  0  0  0  0
  -28.7888  -29.6793   16.0437 C   0  0  0  0  0  0  0  0  0  0  0  0
  -30.9237  -30.9260   15.7114 C   0  0  0  0  0  0  0  0  0  0  0  0
  -31.9722  -24.7864   12.8695 C   0  0  0  0  0  0  0  0  0  0  0  0
  -29.6357  -21.6253   21.8468 C   0  0  0  0  0  0  0  0  0  0  0  0
  -30.1150  -22.5791   20.7704 C   0  0  0  0  0  0  0  0  0  1  0  0
  -30.9957  -28.4326   16.1231 C   0  0  1  0  0  0  0  0  0  0  0  0
  -30.5636  -26.8428   12.7091 C   0  0  2  0  0  0  0  0  0  0  0  0
  -30.2672  -29.7589   16.4804 C   0  0  0  0  0  0  0  0  0  0  0  0
  -31.9221  -18.8106   22.3454 N   0  0  0  0  0  0  0  0  0  0  0  0
  -25.8613  -11.5424   20.2874 N   0  0  0  0  0  0  0  0  0  0  0  0
  -26.2374  -12.8262   20.1585 N   0  0  0  0  0  0  0  0  0  0  0  0
  -32.8284  -27.4483   17.4634 N   0  0  0  0  0  0  0  0  0  0  0  0
  -29.9677  -13.6164   20.3670 N   0  0  0  0  0  0  0  0  0  0  0  0
  -25.4691  -15.0533   20.4048 N   0  0  0  0  0  0  0  0  0  0  0  0
  -21.8852  -12.5770   21.5964 N   0  0  0  0  0  0  0  0  0  0  0  0
  -30.0764  -15.6963   21.4737 N   0  0  0  0  0  0  0  0  0  0  0  0
  -35.1971  -28.4384   20.0528 N   0  0  0  0  0  0  0  0  0  0  0  0
  -30.9899  -28.1123   14.6998 N   0  0  0  0  0  0  0  0  0  0  0  0
  -30.6144  -21.6400   22.9979 N   0  3  1  0  0  0  0  0  0  0  0  0
  -30.7624  -25.4261   12.2915 N   0  3  0  0  0  0  0  0  0  0  0  0
  -22.6595  -14.7172   21.3157 O   0  0  0  0  0  0  0  0  0  0  0  0
  -32.8897  -28.5607   19.7644 O   0  0  0  0  0  0  0  0  0  0  0  0
  -33.2080  -29.2872   16.0812 O   0  0  0  0  0  0  0  0  0  0  0  0
  -29.9361  -26.0570   14.9060 O   0  0  0  0  0  0  0  0  0  0  0  0
  -31.8542  -14.9406   20.1892 O   0  0  0  0  0  0  0  0  0  0  0  0
  -21.6160   -7.0137   21.7075 O   0  0  0  0  0  0  0  0  0  0  0  0
  -31.3928  -22.1588   20.2942 O   0  0  0  0  0  0  0  0  0  1  0  0
  -18.6221   -6.8556   26.3352 F   0  0  0  0  0  0  0  0  0  0  0  0
  -22.0666   -5.0715   23.6226 F   0  0  0  0  0  0  0  0  0  0  0  0
  -29.5761  -17.8998   22.9363 S   0  0  0  0  0  0  0  0  0  0  0  0
  1  2  1  0  0  0  0
  1  5  2  0  0  0  0
  2  6  2  0  0  0  0
  3  8  2  0  0  0  0
  3 16  1  0  0  0  0
  4  9  1  0  0  0  0
  4 16  2  0  0  0  0
  5 18  1  0  0  0  0
  6 20  1  0  0  0  0
  7 10  2  0  0  0  0
  7 19  1  0  0  0  0
  8 22  1  0  0  0  0
  9 22  2  0  0  0  0
 10 23  1  0  0  0  0
 11 12  2  0  0  0  0
 11 24  1  0  0  0  0
 12 25  1  0  0  0  0
 13 21  1  0  0  0  0
 13 23  2  0  0  0  0
 14 25  2  0  0  0  0
 14 26  1  0  0  0  0
 15 29  2  0  0  0  0
 15 63  1  0  0  0  0
 16 27  1  0  0  0  0
 17 27  1  0  0  0  0
 17 28  2  0  0  0  0
 17 31  1  0  0  0  0
 18 20  2  0  0  0  0
 18 36  1  0  0  0  0
 19 21  2  0  0  0  0
 19 37  1  0  0  0  0
 20 49  1  0  0  0  0
 21 38  1  0  0  0  0
 22 80  1  0  0  0  0
 23 81  1  0  0  0  0
 24 26  2  0  0  0  0
 24 80  1  0  0  0  0
 25 82  1  0  0  0  0
 26 83  1  0  0  0  0
 27 64  2  0  0  0  0
 28 65  1  0  0  0  0
 28 68  1  0  0  0  0
 29 70  1  0  0  0  0
 29 84  1  0  0  0  0
 30 50  1  0  0  0  0
 30 63  2  0  0  0  0
 30 84  1  0  0  0  0
 31 69  1  0  0  0  0
 31 75  2  0  0  0  0
 32 51  1  0  0  0  0
 32 71  1  0  0  0  0
 32 76  2  0  0  0  0
 33 60  1  0  0  0  0
 33 66  1  0  0  0  0
 33 77  2  0  0  0  0
 34 61  1  0  0  0  0
 34 72  1  0  0  0  0
 34 78  2  0  0  0  0
 35 67  1  0  0  0  0
 35 70  1  0  0  0  0
 35 79  2  0  0  0  0
 36 39  1  0  0  0  0
 37 51  1  0  0  0  0
 38 66  1  0  0  0  0
 39 43  1  0  0  0  0
 40 42  1  0  0  0  0
 40 44  1  0  0  0  0
 41 45  1  0  0  0  0
 41 46  1  0  0  0  0
 42 48  1  0  0  0  0
 43 49  1  0  0  0  0
 44 50  1  0  0  0  0
 45 52  1  0  0  0  0
 46 67  1  0  0  0  0
 47 52  1  0  0  0  0
 47 67  1  0  0  0  0
 48 73  1  0  0  0  0
 49 71  1  0  0  0  0
 50 73  1  0  0  0  0
 51 66  1  0  0  0  0
 52 65  1  0  0  0  0
 53 61  1  0  0  0  0
 54 62  1  0  0  0  0
 55 62  1  0  0  0  0
 56 62  1  0  0  0  0
 57 74  1  0  0  0  0
 58 59  1  0  0  0  0
 58 73  1  0  0  0  0
 59 81  1  0  0  0  0
 60 62  1  0  0  0  0
 60 72  1  0  0  0  0
 61 74  1  0  0  0  0
 64 65  1  0  0  0  0
M  CHG  2  73   1  74   1
M  ISO  4  35 100  59 101  70 100  81 101
M  END
> <Batch ID>
0157

> <Smiles>
CNC(C)C(=O)NC(C(=O)N1Cc2cc([101O:1][101CH2:1]CN3CCCCC3c3ncc([100NH:0][100C:0](=O)N4CCCC(n5nc(-c6ccc(Oc7ccc(F)cc7F)cc6)c(C(N)=O)c5N)C4)s3)ccc2CC1C(=O)NC1CCCc2ccccc21)C(C)(C)C

> <Shape>
0.190

> <Color>
0.184

> <Negative vol penalty>
0.000

$$$$

  -OEChem-04052303413D

 83 92  0     1  0  0  0  0  0999 V2000
  -16.2655  -29.8955   23.9703 C   0  0  0  0  0  0  0  0  0  0  0  0
  -17.1547  -28.9965   24.5506 C   0  0  0  0  0  0  0  0  0  0  0  0
  -24.4459   -9.2111   21.4737 C   0  0  0  0  0  0  0  0  0  0  0  0
  -24.8400  -10.3757   23.5535 C   0  0  0  0  0  0  0  0  0  0  0  0
  -16.7048  -30.7610   22.9694 C   0  0  0  0  0  0  0  0  0  0  0  0
  -18.4836  -28.9619   24.1294 C   0  0  0  0  0  0  0  0  0  0  0  0
  -23.4102  -27.8096   27.5800 C   0  0  0  0  0  0  0  0  0  0  0  0
  -24.0942   -8.0629   22.1833 C   0  0  0  0  0  0  0  0  0  0  0  0
  -24.4881   -9.2275   24.2631 C   0  0  0  0  0  0  0  0  0  0  0  0
  -24.1649  -26.6548   27.7816 C   0  0  0  0  0  0  0  0  0  0  0  0
  -22.7448   -4.9347   23.4516 C   0  0  0  0  0  0  0  0  0  0  0  0
  -21.6068   -4.2411   23.0399 C   0  0  0  0  0  0  0  0  0  0  0  0
  -28.3826  -19.1943   24.9340 C   0  0  0  0  0  0  0  0  0  0  0  0
  -27.8201  -20.3379   25.5711 C   0  0  0  0  0  0  0  0  0  0  0  0
  -25.7358  -27.3964   26.1079 C   0  0  0  0  0  0  0  0  0  0  0  0
  -20.2611   -6.2051   23.4509 C   0  0  0  0  0  0  0  0  0  0  0  0
  -24.8189  -10.3675   22.1588 C   0  0  0  0  0  0  0  0  0  0  0  0
  -24.3275  -12.5905   21.0081 C   0  0  0  0  0  0  0  0  0  0  0  0
  -18.0420  -30.7436   22.5426 C   0  0  0  0  0  0  0  0  0  0  0  0
  -23.8075  -28.7629   26.6314 C   0  0  0  0  0  0  0  0  0  0  0  0
  -18.9409  -29.8270   23.1209 C   0  0  0  0  0  0  0  0  0  0  0  0
  -24.9858  -28.5637   25.8979 C   0  0  0  0  0  0  0  0  0  0  0  0
  -24.1152   -8.0711   23.5780 C   0  0  0  0  0  0  0  0  0  0  0  0
  -25.3263  -26.4467   27.0435 C   0  0  0  0  0  0  0  0  0  0  0  0
  -22.6410   -6.2634   23.8630 C   0  0  0  0  0  0  0  0  0  0  0  0
  -20.3650   -4.8762   23.0395 C   0  0  0  0  0  0  0  0  0  0  0  0
  -21.3991   -6.8986   23.8626 C   0  0  0  0  0  0  0  0  0  0  0  0
  -25.1829  -11.5537   21.4264 C   0  0  0  0  0  0  0  0  0  0  0  0
  -29.0365  -19.5216   23.7666 C   0  0  0  0  0  0  0  0  0  0  0  0
  -25.1526  -13.4750   20.3575 C   0  0  0  0  0  0  0  0  0  0  0  0
  -28.0658  -21.4959   24.8663 C   0  0  0  0  0  0  0  0  0  0  0  0
  -22.9134  -12.7407   21.1914 C   0  0  0  0  0  0  0  0  0  0  0  0
  -22.5358  -29.9416   23.9673 C   0  0  0  0  0  0  0  0  0  0  0  0
  -25.0937  -31.9326   24.0904 C   0  0  0  0  0  0  0  0  0  0  0  0
  -26.9698  -23.3164   26.2148 C   0  0  0  0  0  0  0  0  0  0  0  0
  -28.2738  -32.4991   25.1916 C   0  0  0  0  0  0  0  0  0  0  0  0
  -30.0165  -16.3374   20.2649 C   0  0  0  0  0  0  0  0  0  0  0  0
  -18.4592  -31.6657   21.4244 C   0  0  0  0  0  0  0  0  0  0  0  0
  -22.9968  -30.0161   26.4448 C   0  0  0  0  0  0  0  0  0  0  0  0
  -25.4665  -29.5662   24.8818 C   0  0  0  0  0  0  0  0  0  0  0  0
  -19.9722  -31.8235   21.2974 C   0  0  0  0  0  0  0  0  0  0  0  0
  -29.9342  -13.0376   18.8375 C   0  0  0  0  0  0  0  0  0  0  0  0
  -20.6582  -30.4627   21.3624 C   0  0  0  0  0  0  0  0  0  0  0  0
  -28.6537  -12.4197   19.3894 C   0  0  0  0  0  0  0  0  0  0  0  0
  -30.5735  -13.9681   19.8595 C   0  0  0  0  0  0  0  0  0  0  0  0
  -29.1214  -17.0815   22.6112 C   0  0  0  0  0  0  0  0  0  0  0  0
  -29.6757  -18.6481   21.2952 C   0  0  0  0  0  0  0  0  0  0  0  0
  -28.3579  -14.4849   20.8485 C   0  0  0  0  0  0  0  0  0  0  0  0
  -20.3960  -29.7763   22.7084 C   0  0  1  0  0  0  0  0  0  0  0  0
  -29.7657  -18.4721   22.8286 C   0  0  0  0  0  0  0  0  0  0  0  0
  -23.2190  -30.6748   25.0868 C   0  0  1  0  0  0  0  0  0  0  0  0
  -27.6855  -13.5167   19.8551 C   0  0  2  0  0  0  0  0  0  0  0  0
  -30.1163  -34.2004   25.1005 C   0  0  0  0  0  0  0  0  0  0  0  0
  -25.7386  -31.0777   21.2333 C   0  0  0  0  0  0  0  0  0  0  0  0
  -28.0326  -32.0327   21.5395 C   0  0  0  0  0  0  0  0  0  0  0  0
  -26.0350  -33.5198   21.6835 C   0  0  0  0  0  0  0  0  0  0  0  0
  -28.2455  -32.8576   28.1292 C   0  0  0  0  0  0  0  0  0  0  0  0
  -26.7943  -24.8205   26.1180 C   0  0  0  0  0  0  0  0  0  1  0  0
  -26.5064  -31.8922   23.5599 C   0  0  1  0  0  0  0  0  0  0  0  0
  -28.9051  -33.7002   25.8723 C   0  0  2  0  0  0  0  0  0  0  0  0
  -26.5683  -32.1106   22.0217 C   0  0  0  0  0  0  0  0  0  0  0  0
  -26.4540  -11.7590   21.0712 N   0  0  0  0  0  0  0  0  0  0  0  0
  -26.4034  -12.9351   20.4228 N   0  0  0  0  0  0  0  0  0  0  0  0
  -24.6361  -30.7725   24.7311 N   0  0  0  0  0  0  0  0  0  0  0  0
  -29.6380  -14.9920   20.3349 N   0  0  0  0  0  0  0  0  0  0  0  0
  -29.5385  -17.1985   21.2243 N   0  0  0  0  0  0  0  0  0  0  0  0
  -24.9230  -14.6541   19.7415 N   0  0  0  0  0  0  0  0  0  0  0  0
  -22.2192  -11.7388   21.8831 N   0  0  0  0  0  0  0  0  0  0  0  0
  -27.6976  -22.8363   25.1314 N   0  0  0  0  0  0  0  0  0  0  0  0
  -21.2350  -30.3485   23.7395 N   0  0  0  0  0  0  0  0  0  0  0  0
  -27.2611  -32.8723   24.3334 N   0  0  0  0  0  0  0  0  0  0  0  0
  -29.3415  -33.3436   27.2519 N   0  3  0  0  0  0  0  0  0  0  0  0
  -22.2815  -13.7260   20.7404 O   0  0  0  0  0  0  0  0  0  0  0  0
  -23.1442  -29.0721   23.3546 O   0  0  0  0  0  0  0  0  0  0  0  0
  -24.4234  -32.9583   23.9481 O   0  0  0  0  0  0  0  0  0  0  0  0
  -26.5049  -22.6743   27.1509 O   0  0  0  0  0  0  0  0  0  0  0  0
  -28.6446  -31.3456   25.3975 O   0  0  0  0  0  0  0  0  0  0  0  0
  -30.7845  -16.7550   19.3880 O   0  0  0  0  0  0  0  0  0  0  0  0
  -23.7718   -6.9509   24.2707 O   0  0  0  0  0  0  0  0  0  0  0  0
  -26.0644  -25.3201   27.2379 O   0  0  0  0  0  0  0  0  0  1  0  0
  -19.2725   -4.2105   22.6427 F   0  0  0  0  0  0  0  0  0  0  0  0
  -21.2933   -8.1754   24.2557 F   0  0  0  0  0  0  0  0  0  0  0  0
  -28.9708  -21.2019   23.4427 S   0  0  0  0  0  0  0  0  0  0  0  0
  1  2  1  0  0  0  0
  1  5  2  0  0  0  0
  2  6  2  0  0  0  0
  3  8  2  0  0  0  0
  3 17  1  0  0  0  0
  4  9  1  0  0  0  0
  4 17  2  0  0  0  0
  5 19  1  0  0  0  0
  6 21  1  0  0  0  0
  7 10  2  0  0  0  0
  7 20  1  0  0  0  0
  8 23  1  0  0  0  0
  9 23  2  0  0  0  0
 10 24  1  0  0  0  0
 11 12  2  0  0  0  0
 11 25  1  0  0  0  0
 12 26  1  0  0  0  0
 13 14  1  0  0  0  0
 13 29  2  0  0  0  0
 14 31  2  0  0  0  0
 15 22  1  0  0  0  0
 15 24  2  0  0  0  0
 16 26  2  0  0  0  0
 16 27  1  0  0  0  0
 17 28  1  0  0  0  0
 18 28  1  0  0  0  0
 18 30  2  0  0  0  0
 18 32  1  0  0  0  0
 19 21  2  0  0  0  0
 19 38  1  0  0  0  0
 20 22  2  0  0  0  0
 20 39  1  0  0  0  0
 21 49  1  0  0  0  0
 22 40  1  0  0  0  0
 23 79  1  0  0  0  0
 24 80  1  0  0  0  0
 25 27  2  0  0  0  0
 25 79  1  0  0  0  0
 26 81  1  0  0  0  0
 27 82  1  0  0  0  0
 28 62  2  0  0  0  0
 29 50  1  0  0  0  0
 29 83  1  0  0  0  0
 30 63  1  0  0  0  0
 30 67  1  0  0  0  0
 31 69  1  0  0  0  0
 31 83  1  0  0  0  0
 32 68  1  0  0  0  0
 32 73  2  0  0  0  0
 33 51  1  0  0  0  0
 33 70  1  0  0  0  0
 33 74  2  0  0  0  0
 34 59  1  0  0  0  0
 34 64  1  0  0  0  0
 34 75  2  0  0  0  0
 35 58  1  0  0  0  0
 35 69  1  0  0  0  0
 35 76  2  0  0  0  0
 36 60  1  0  0  0  0
 36 71  1  0  0  0  0
 36 77  2  0  0  0  0
 37 65  1  0  0  0  0
 37 66  1  0  0  0  0
 37 78  2  0  0  0  0
 38 41  1  0  0  0  0
 39 51  1  0  0  0  0
 40 64  1  0  0  0  0
 41 43  1  0  0  0  0
 42 44  1  0  0  0  0
 42 45  1  0  0  0  0
 43 49  1  0  0  0  0
 44 52  1  0  0  0  0
 45 65  1  0  0  0  0
 46 50  1  0  0  0  0
 46 66  1  0  0  0  0
 47 50  1  0  0  0  0
 47 66  1  0  0  0  0
 48 52  1  0  0  0  0
 48 65  1  0  0  0  0
 49 70  1  0  0  0  0
 51 64  1  0  0  0  0
 52 63  1  0  0  0  0
 53 60  1  0  0  0  0
 54 61  1  0  0  0  0
 55 61  1  0  0  0  0
 56 61  1  0  0  0  0
 57 72  1  0  0  0  0
 58 80  1  0  0  0  0
 59 61  1  0  0  0  0
 59 71  1  0  0  0  0
 60 72  1  0  0  0  0
 62 63  1  0  0  0  0
M  CHG  1  72   1
M  ISO  4  37 100  58 101  66 100  80 101
M  END
> <Batch ID>
0157

> <Smiles>
CNC(C)C(=O)NC(C(=O)N1Cc2cc([101O:1][101CH2:1]C(=O)Nc3ccc(C4C[100N:0]([100C:0](=O)N5CCCC(n6nc(-c7ccc(Oc8ccc(F)cc8F)cc7)c(C(N)=O)c6N)C5)C4)s3)ccc2CC1C(=O)NC1CCCc2ccccc21)C(C)(C)C

> <Shape>
0.271

> <Color>
0.129

> <Negative vol penalty>
0.000

$$$$

  -OEChem-04052303413D

 86 95  0     1  0  0  0  0  0999 V2000
  -24.0002  -27.6447   22.4537 C   0  0  0  0  0  0  0  0  0  0  0  0
  -25.0260  -27.3190   23.3339 C   0  0  0  0  0  0  0  0  0  0  0  0
  -23.2204  -10.2746   22.2132 C   0  0  0  0  0  0  0  0  0  0  0  0
  -23.8122   -9.4933   20.0050 C   0  0  0  0  0  0  0  0  0  0  0  0
  -23.1611  -26.6447   21.9668 C   0  0  0  0  0  0  0  0  0  0  0  0
  -25.2204  -25.9918   23.7182 C   0  0  0  0  0  0  0  0  0  0  0  0
  -28.5468  -19.8422   27.5050 C   0  0  0  0  0  0  0  0  0  0  0  0
  -22.4858   -9.1086   22.4289 C   0  0  0  0  0  0  0  0  0  0  0  0
  -23.0777   -8.3272   20.2207 C   0  0  0  0  0  0  0  0  0  0  0  0
  -28.3173  -18.5270   27.9069 C   0  0  0  0  0  0  0  0  0  0  0  0
  -19.4594   -7.8762   21.5653 C   0  0  0  0  0  0  0  0  0  0  0  0
  -18.1929   -8.0051   22.1353 C   0  0  0  0  0  0  0  0  0  0  0  0
  -33.0714  -11.9157   26.0034 C   0  0  0  0  0  0  0  0  0  0  0  0
  -30.9463  -12.5624   25.0535 C   0  0  0  0  0  0  0  0  0  0  0  0
  -27.8208  -17.9227   25.6249 C   0  0  0  0  0  0  0  0  0  0  0  0
  -32.8579  -12.2204   23.6162 C   0  0  0  0  0  0  0  0  0  0  0  0
  -18.8895   -6.6283   23.9944 C   0  0  0  0  0  0  0  0  0  0  0  0
  -23.8835  -10.4669   21.0012 C   0  0  0  0  0  0  0  0  0  0  0  0
  -31.7259  -12.2453   26.1658 C   0  0  0  0  0  0  0  0  0  0  0  0
  -24.1608  -12.9943   20.7937 C   0  0  0  0  0  0  0  0  0  0  0  0
  -23.3383  -25.3066   22.3555 C   0  0  0  0  0  0  0  0  0  0  0  0
  -28.4041  -20.2104   26.1594 C   0  0  0  0  0  0  0  0  0  0  0  0
  -24.3990  -24.9649   23.2189 C   0  0  0  0  0  0  0  0  0  0  0  0
  -28.0515  -19.2426   25.2081 C   0  0  0  0  0  0  0  0  0  0  0  0
  -33.6375  -11.9033   24.7286 C   0  0  0  0  0  0  0  0  0  0  0  0
  -31.5123  -12.5500   23.7786 C   0  0  0  0  0  0  0  0  0  0  0  0
  -22.4145   -8.1349   21.4327 C   0  0  0  0  0  0  0  0  0  0  0  0
  -27.9515  -17.5677   26.9673 C   0  0  0  0  0  0  0  0  0  0  0  0
  -20.4409   -7.1233   22.2098 C   0  0  0  0  0  0  0  0  0  0  0  0
  -17.9079   -7.3812   23.3498 C   0  0  0  0  0  0  0  0  0  0  0  0
  -20.1560   -6.4994   23.4243 C   0  0  0  0  0  0  0  0  0  0  0  0
  -24.6420  -11.6715   20.7776 C   0  0  0  0  0  0  0  0  0  0  0  0
  -25.2661  -13.7650   20.5273 C   0  0  0  0  0  0  0  0  0  0  0  0
  -31.1277  -12.2586   27.5127 C   0  0  0  0  0  0  0  0  0  0  0  0
  -22.8335  -13.4829   21.0287 C   0  0  0  0  0  0  0  0  0  0  0  0
  -26.5273  -22.2260   24.5724 C   0  0  0  0  0  0  0  0  0  0  0  0
  -28.4101  -21.3931   22.0657 C   0  0  0  0  0  0  0  0  0  0  0  0
  -29.8905  -18.3663   20.7756 C   0  0  0  0  0  0  0  0  0  0  0  0
  -31.1269  -12.9073   21.3149 C   0  0  0  0  0  0  0  0  0  0  0  0
  -22.4060  -24.2633   21.7919 C   0  0  0  0  0  0  0  0  0  0  0  0
  -28.6812  -21.6274   25.7378 C   0  0  0  0  0  0  0  0  0  0  0  0
  -27.9047  -19.5822   23.7481 C   0  0  0  0  0  0  0  0  0  0  0  0
  -22.4097  -22.9666   22.5949 C   0  0  0  0  0  0  0  0  0  0  0  0
  -29.4725  -13.6164   18.2429 C   0  0  0  0  0  0  0  0  0  0  0  0
  -23.8402  -22.5069   22.8332 C   0  0  0  0  0  0  0  0  0  0  0  0
  -28.0014  -13.3244   18.5475 C   0  0  0  0  0  0  0  0  0  0  0  0
  -28.3379  -14.1911   28.3582 C   0  0  0  0  0  0  0  0  0  0  0  0
  -29.9926  -15.5279   27.0042 C   0  0  0  0  0  0  0  0  0  0  0  0
  -30.4042  -12.6359   18.9529 C   0  0  0  0  0  0  0  0  0  0  0  0
  -29.4764  -13.3616   28.9345 C   0  0  0  0  0  0  0  0  0  0  0  0
  -31.1335  -14.7000   27.5782 C   0  0  0  0  0  0  0  0  0  0  0  0
  -28.7227  -12.2254   20.7060 C   0  0  0  0  0  0  0  0  0  0  0  0
  -24.6104  -23.5324   23.6747 C   0  0  1  0  0  0  0  0  0  0  0  0
  -28.0055  -22.0024   24.4225 C   0  0  1  0  0  0  0  0  0  0  0  0
  -27.7486  -13.2273   20.0648 C   0  0  2  0  0  0  0  0  0  0  0  0
  -28.8090  -15.5937   27.9717 C   0  0  0  0  0  0  0  0  0  1  0  0
  -31.9582  -18.0207   19.3963 C   0  0  0  0  0  0  0  0  0  0  0  0
  -26.4947  -21.4989   19.6929 C   0  0  0  0  0  0  0  0  0  0  0  0
  -27.8485  -19.6934   18.6087 C   0  0  0  0  0  0  0  0  0  0  0  0
  -28.8945  -21.9007   19.1151 C   0  0  0  0  0  0  0  0  0  0  0  0
  -31.0229  -16.4639   22.7396 C   0  0  0  0  0  0  0  0  0  0  0  0
  -28.3710  -20.3130   21.0117 C   0  0  1  0  0  0  0  0  0  0  0  0
  -31.3621  -17.9945   20.7952 C   0  0  2  0  0  0  0  0  0  0  0  0
  -27.8908  -20.8476   19.6329 C   0  0  0  0  0  0  0  0  0  0  0  0
  -25.9509  -11.6020   20.5209 N   0  0  0  0  0  0  0  0  0  0  0  0
  -26.3016  -12.8909   20.3733 N   0  0  0  0  0  0  0  0  0  0  0  0
  -30.6037  -13.3826   27.9816 N   0  0  0  0  0  0  0  0  0  0  0  0
  -28.1802  -20.9825   23.3864 N   0  0  0  0  0  0  0  0  0  0  0  0
  -30.1093  -12.6000   20.3870 N   0  0  0  0  0  0  0  0  0  0  0  0
  -34.9982  -11.5705   24.5643 N   0  0  0  0  0  0  0  0  0  0  0  0
  -25.4434  -15.0983   20.4119 N   0  0  0  0  0  0  0  0  0  0  0  0
  -21.8158  -12.5545   21.2873 N   0  0  0  0  0  0  0  0  0  0  0  0
  -30.7208  -12.8724   22.6485 N   0  0  0  0  0  0  0  0  0  0  0  0
  -26.0092  -23.1658   23.7018 N   0  0  0  0  0  0  0  0  0  0  0  0
  -29.7016  -19.7152   20.9903 N   0  0  0  0  0  0  0  0  0  0  0  0
  -31.1213  -11.1426   28.2358 N   0  3  0  0  0  0  0  0  0  0  0  0
  -31.5433  -16.6264   21.3577 N   0  3  0  0  0  0  0  0  0  0  0  0
  -22.5548  -14.7054   20.9937 O   0  0  0  0  0  0  0  0  0  0  0  0
  -25.9026  -21.5917   25.4145 O   0  0  0  0  0  0  0  0  0  0  0  0
  -28.6433  -22.5571   21.7304 O   0  0  0  0  0  0  0  0  0  0  0  0
  -28.9979  -17.5431   20.5850 O   0  0  0  0  0  0  0  0  0  0  0  0
  -32.2670  -13.2078   20.9519 O   0  0  0  0  0  0  0  0  0  0  0  0
  -21.6981   -6.9969   21.6429 O   0  0  0  0  0  0  0  0  0  0  0  0
  -27.7263  -16.2834   27.3570 O   0  0  0  0  0  0  0  0  0  1  0  0
  -16.6921   -7.5064   23.8979 F   0  0  0  0  0  0  0  0  0  0  0  0
  -21.0953   -5.7757   24.0488 F   0  0  0  0  0  0  0  0  0  0  0  0
  1  2  1  0  0  0  0
  1  5  2  0  0  0  0
  2  6  2  0  0  0  0
  3  8  2  0  0  0  0
  3 18  1  0  0  0  0
  4  9  1  0  0  0  0
  4 18  2  0  0  0  0
  5 21  1  0  0  0  0
  6 23  1  0  0  0  0
  7 10  2  0  0  0  0
  7 22  1  0  0  0  0
  8 27  1  0  0  0  0
  9 27  2  0  0  0  0
 10 28  1  0  0  0  0
 11 12  2  0  0  0  0
 11 29  1  0  0  0  0
 12 30  1  0  0  0  0
 13 19  1  0  0  0  0
 13 25  2  0  0  0  0
 14 19  2  0  0  0  0
 14 26  1  0  0  0  0
 15 24  1  0  0  0  0
 15 28  2  0  0  0  0
 16 25  1  0  0  0  0
 16 26  2  0  0  0  0
 17 30  2  0  0  0  0
 17 31  1  0  0  0  0
 18 32  1  0  0  0  0
 19 34  1  0  0  0  0
 20 32  1  0  0  0  0
 20 33  2  0  0  0  0
 20 35  1  0  0  0  0
 21 23  2  0  0  0  0
 21 40  1  0  0  0  0
 22 24  2  0  0  0  0
 22 41  1  0  0  0  0
 23 53  1  0  0  0  0
 24 42  1  0  0  0  0
 25 70  1  0  0  0  0
 26 73  1  0  0  0  0
 27 83  1  0  0  0  0
 28 84  1  0  0  0  0
 29 31  2  0  0  0  0
 29 83  1  0  0  0  0
 30 85  1  0  0  0  0
 31 86  1  0  0  0  0
 32 65  2  0  0  0  0
 33 66  1  0  0  0  0
 33 71  1  0  0  0  0
 34 67  1  0  0  0  0
 34 76  2  0  0  0  0
 35 72  1  0  0  0  0
 35 78  2  0  0  0  0
 36 54  1  0  0  0  0
 36 74  1  0  0  0  0
 36 79  2  0  0  0  0
 37 62  1  0  0  0  0
 37 68  1  0  0  0  0
 37 80  2  0  0  0  0
 38 63  1  0  0  0  0
 38 75  1  0  0  0  0
 38 81  2  0  0  0  0
 39 69  1  0  0  0  0
 39 73  1  0  0  0  0
 39 82  2  0  0  0  0
 40 43  1  0  0  0  0
 41 54  1  0  0  0  0
 42 68  1  0  0  0  0
 43 45  1  0  0  0  0
 44 46  1  0  0  0  0
 44 49  1  0  0  0  0
 45 53  1  0  0  0  0
 46 55  1  0  0  0  0
 47 50  1  0  0  0  0
 47 56  1  0  0  0  0
 48 51  1  0  0  0  0
 48 56  1  0  0  0  0
 49 69  1  0  0  0  0
 50 67  1  0  0  0  0
 51 67  1  0  0  0  0
 52 55  1  0  0  0  0
 52 69  1  0  0  0  0
 53 74  1  0  0  0  0
 54 68  1  0  0  0  0
 55 66  1  0  0  0  0
 56 84  1  0  0  0  0
 57 63  1  0  0  0  0
 58 64  1  0  0  0  0
 59 64  1  0  0  0  0
 60 64  1  0  0  0  0
 61 77  1  0  0  0  0
 62 64  1  0  0  0  0
 62 75  1  0  0  0  0
 63 77  1  0  0  0  0
 65 66  1  0  0  0  0
M  CHG  2  76   1  77   1
M  ISO  4  39 100  56 101  73 100  84 101
M  END
> <Batch ID>
0157

> <Smiles>
CNC(C)C(=O)NC(C(=O)N1Cc2cc([101O:1][101CH:1]3CCN(C(=N)c4cc(N)cc([100NH:0][100C:0](=O)N5CCCC(n6nc(-c7ccc(Oc8ccc(F)cc8F)cc7)c(C(N)=O)c6N)C5)c4)CC3)ccc2CC1C(=O)NC1CCCc2ccccc21)C(C)(C)C

> <Shape>
0.189

> <Color>
0.166

> <Negative vol penalty>
0.000

$$$$

  -OEChem-04052303413D

 80 88  0     1  0  0  0  0  0999 V2000
  -17.8598  -32.7092   23.0460 C   0  0  0  0  0  0  0  0  0  0  0  0
  -19.0723  -32.8954   22.3897 C   0  0  0  0  0  0  0  0  0  0  0  0
  -26.3815  -12.4657   21.7798 C   0  0  0  0  0  0  0  0  0  0  0  0
  -25.7903  -13.7204   19.8015 C   0  0  0  0  0  0  0  0  0  0  0  0
  -17.7121  -31.6581   23.9501 C   0  0  0  0  0  0  0  0  0  0  0  0
  -20.1381  -32.0313   22.6380 C   0  0  0  0  0  0  0  0  0  0  0  0
  -25.7777  -29.0437   19.3844 C   0  0  0  0  0  0  0  0  0  0  0  0
  -25.1632  -11.7897   21.7151 C   0  0  0  0  0  0  0  0  0  0  0  0
  -24.5720  -13.0443   19.7368 C   0  0  0  0  0  0  0  0  0  0  0  0
  -27.1534  -28.8840   19.5443 C   0  0  0  0  0  0  0  0  0  0  0  0
  -23.8217   -9.2368   19.9498 C   0  0  0  0  0  0  0  0  0  0  0  0
  -23.8371   -7.8542   20.1330 C   0  0  0  0  0  0  0  0  0  0  0  0
  -26.7581  -27.0553   21.0671 C   0  0  0  0  0  0  0  0  0  0  0  0
  -22.3780   -8.0912   22.0441 C   0  0  0  0  0  0  0  0  0  0  0  0
  -28.3574  -21.8900   18.7919 C   0  0  0  0  0  0  0  0  0  0  0  0
  -26.6951  -13.4312   20.8230 C   0  0  0  0  0  0  0  0  0  0  0  0
  -29.1683  -13.7531   20.2870 C   0  0  0  0  0  0  0  0  0  0  0  0
  -18.7737  -30.7749   24.2024 C   0  0  0  0  0  0  0  0  0  0  0  0
  -24.8801  -28.2161   20.0743 C   0  0  0  0  0  0  0  0  0  0  0  0
  -20.0049  -30.9683   23.5474 C   0  0  0  0  0  0  0  0  0  0  0  0
  -25.3714  -27.2049   20.9123 C   0  0  0  0  0  0  0  0  0  0  0  0
  -24.2584  -12.0789   20.6936 C   0  0  0  0  0  0  0  0  0  0  0  0
  -27.6438  -27.8916   20.3880 C   0  0  0  0  0  0  0  0  0  0  0  0
  -23.0845  -10.0467   20.8138 C   0  0  0  0  0  0  0  0  0  0  0  0
  -23.1152   -7.2813   21.1802 C   0  0  0  0  0  0  0  0  0  0  0  0
  -22.3627   -9.4739   21.8609 C   0  0  0  0  0  0  0  0  0  0  0  0
  -27.9532  -14.1303   20.8896 C   0  0  0  0  0  0  0  0  0  0  0  0
  -30.0518  -14.7407   20.6483 C   0  0  0  0  0  0  0  0  0  0  0  0
  -28.8040  -21.6837   20.0736 C   0  0  0  0  0  0  0  0  0  0  0  0
  -29.0399  -23.7384   19.5272 C   0  0  0  0  0  0  0  0  0  0  0  0
  -29.4712  -12.6121   19.4734 C   0  0  0  0  0  0  0  0  0  0  0  0
  -22.6056  -28.6903   22.2435 C   0  0  0  0  0  0  0  0  0  0  0  0
  -22.0430  -25.5301   21.7755 C   0  0  0  0  0  0  0  0  0  0  0  0
  -23.2361  -22.4910   20.7819 C   0  0  0  0  0  0  0  0  0  0  0  0
  -29.3589  -20.4670   22.2085 C   0  0  0  0  0  0  0  0  0  0  0  0
  -18.5814  -29.6817   25.2235 C   0  0  0  0  0  0  0  0  0  0  0  0
  -23.3994  -28.3839   19.8703 C   0  0  0  0  0  0  0  0  0  0  0  0
  -24.4501  -26.2771   21.6598 C   0  0  0  0  0  0  0  0  0  0  0  0
  -19.6416  -28.5859   25.1496 C   0  0  0  0  0  0  0  0  0  0  0  0
  -30.9075  -17.9066   24.1381 C   0  0  0  0  0  0  0  0  0  0  0  0
  -21.0352  -29.1975   25.0469 C   0  0  0  0  0  0  0  0  0  0  0  0
  -30.4411  -16.6135   23.4655 C   0  0  0  0  0  0  0  0  0  0  0  0
  -29.8123  -18.9715   24.1406 C   0  0  0  0  0  0  0  0  0  0  0  0
  -28.7574  -17.9669   22.1539 C   0  0  0  0  0  0  0  0  0  0  0  0
  -21.1766  -30.0371   23.7715 C   0  0  1  0  0  0  0  0  0  0  0  0
  -22.5701  -27.8193   21.0197 C   0  0  1  0  0  0  0  0  0  0  0  0
  -29.8481  -16.8866   22.0693 C   0  0  2  0  0  0  0  0  0  0  0  0
  -22.5535  -20.0875   20.5478 C   0  0  0  0  0  0  0  0  0  0  0  0
  -31.2105  -27.3540   19.7872 C   0  0  0  0  0  0  0  0  0  0  0  0
  -22.3025  -25.1649   24.7937 C   0  0  0  0  0  0  0  0  0  0  0  0
  -22.5640  -22.7057   24.4035 C   0  0  0  0  0  0  0  0  0  0  0  0
  -20.4515  -23.8545   23.7396 C   0  0  0  0  0  0  0  0  0  0  0  0
  -23.6940  -22.5251   17.8582 C   0  0  0  0  0  0  0  0  0  0  0  0
  -29.2682  -26.1090   18.7830 C   0  0  0  0  0  0  0  0  0  0  0  0
  -22.5539  -24.2505   22.3923 C   0  0  1  0  0  0  0  0  0  0  0  0
  -22.6594  -21.4368   19.8542 C   0  0  2  0  0  0  0  0  0  0  0  0
  -29.7470  -27.4315   19.3776 C   0  0  1  0  0  0  0  0  0  1  0  0
  -21.9856  -24.0125   23.8198 C   0  0  0  0  0  0  0  0  0  0  0  0
  -28.5109  -23.2086   18.4475 N   0  0  0  0  0  0  0  0  0  0  0  0
  -28.0522  -15.2686   21.5813 N   0  0  0  0  0  0  0  0  0  0  0  0
  -29.3400  -15.6151   21.4157 N   0  0  0  0  0  0  0  0  0  0  0  0
  -23.0105  -26.4851   21.4322 N   0  0  0  0  0  0  0  0  0  0  0  0
  -29.3010  -19.1801   22.7842 N   0  0  0  0  0  0  0  0  0  0  0  0
  -31.3603  -14.9377   20.3812 N   0  0  0  0  0  0  0  0  0  0  0  0
  -28.4466  -11.6959   19.1994 N   0  0  0  0  0  0  0  0  0  0  0  0
  -28.8737  -20.5370   20.9031 N   0  0  0  0  0  0  0  0  0  0  0  0
  -29.4131  -25.0519   19.7580 N   0  0  0  0  0  0  0  0  0  0  0  0
  -21.3701  -29.1804   22.6213 N   0  0  0  0  0  0  0  0  0  0  0  0
  -22.2458  -23.1876   21.4416 N   0  0  0  0  0  0  0  0  0  0  0  0
  -23.5221  -21.2794   18.6492 N   0  3  0  0  0  0  0  0  0  0  0  0
  -30.6206  -12.4023   19.0168 O   0  0  0  0  0  0  0  0  0  0  0  0
  -23.6746  -28.9008   22.8045 O   0  0  0  0  0  0  0  0  0  0  0  0
  -20.8308  -25.6740   21.5981 O   0  0  0  0  0  0  0  0  0  0  0  0
  -24.4443  -22.6754   20.9114 O   0  0  0  0  0  0  0  0  0  0  0  0
  -29.8311  -21.4300   22.8182 O   0  0  0  0  0  0  0  0  0  0  0  0
  -29.2487  -22.8761   20.5594 O   0  0  0  0  0  0  0  0  0  0  0  0
  -23.0696  -11.4192   20.6301 O   0  0  0  0  0  0  0  0  0  0  0  0
  -28.9862  -27.7340   20.5463 O   0  0  0  0  0  0  0  0  0  1  0  0
  -23.1289   -5.9534   21.3550 F   0  0  0  0  0  0  0  0  0  0  0  0
  -21.6517  -10.2467   22.6934 F   0  0  0  0  0  0  0  0  0  0  0  0
  1  2  1  0  0  0  0
  1  5  2  0  0  0  0
  2  6  2  0  0  0  0
  3  8  2  0  0  0  0
  3 16  1  0  0  0  0
  4  9  1  0  0  0  0
  4 16  2  0  0  0  0
  5 18  1  0  0  0  0
  6 20  1  0  0  0  0
  7 10  2  0  0  0  0
  7 19  1  0  0  0  0
  8 22  1  0  0  0  0
  9 22  2  0  0  0  0
 10 23  1  0  0  0  0
 11 12  2  0  0  0  0
 11 24  1  0  0  0  0
 12 25  1  0  0  0  0
 13 21  1  0  0  0  0
 13 23  2  0  0  0  0
 14 25  2  0  0  0  0
 14 26  1  0  0  0  0
 15 29  2  0  0  0  0
 15 59  1  0  0  0  0
 16 27  1  0  0  0  0
 17 27  1  0  0  0  0
 17 28  2  0  0  0  0
 17 31  1  0  0  0  0
 18 20  2  0  0  0  0
 18 36  1  0  0  0  0
 19 21  2  0  0  0  0
 19 37  1  0  0  0  0
 20 45  1  0  0  0  0
 21 38  1  0  0  0  0
 22 77  1  0  0  0  0
 23 78  1  0  0  0  0
 24 26  2  0  0  0  0
 24 77  1  0  0  0  0
 25 79  1  0  0  0  0
 26 80  1  0  0  0  0
 27 60  2  0  0  0  0
 28 61  1  0  0  0  0
 28 64  1  0  0  0  0
 29 66  1  0  0  0  0
 29 76  1  0  0  0  0
 30 59  2  0  0  0  0
 30 67  1  0  0  0  0
 30 76  1  0  0  0  0
 31 65  1  0  0  0  0
 31 71  2  0  0  0  0
 32 46  1  0  0  0  0
 32 68  1  0  0  0  0
 32 72  2  0  0  0  0
 33 55  1  0  0  0  0
 33 62  1  0  0  0  0
 33 73  2  0  0  0  0
 34 56  1  0  0  0  0
 34 69  1  0  0  0  0
 34 74  2  0  0  0  0
 35 63  1  0  0  0  0
 35 66  1  0  0  0  0
 35 75  2  0  0  0  0
 36 39  1  0  0  0  0
 37 46  1  0  0  0  0
 38 62  1  0  0  0  0
 39 41  1  0  0  0  0
 40 42  1  0  0  0  0
 40 43  1  0  0  0  0
 41 45  1  0  0  0  0
 42 47  1  0  0  0  0
 43 63  1  0  0  0  0
 44 47  1  0  0  0  0
 44 63  1  0  0  0  0
 45 68  1  0  0  0  0
 46 62  1  0  0  0  0
 47 61  1  0  0  0  0
 48 56  1  0  0  0  0
 49 57  1  0  0  0  0
 50 58  1  0  0  0  0
 51 58  1  0  0  0  0
 52 58  1  0  0  0  0
 53 70  1  0  0  0  0
 54 57  1  0  0  0  0
 54 67  1  0  0  0  0
 55 58  1  0  0  0  0
 55 69  1  0  0  0  0
 56 70  1  0  0  0  0
 57 78  1  0  0  0  0
 60 61  1  0  0  0  0
M  CHG  1  70   1
M  ISO  4  35 100  57 101  66 100  78 101
M  END
> <Batch ID>
0157

> <Smiles>
CNC(C)C(=O)NC(C(=O)N1Cc2cc([101O:1][101CH:1](C)CNc3ncc([100NH:0][100C:0](=O)N4CCCC(n5nc(-c6ccc(Oc7ccc(F)cc7F)cc6)c(C(N)=O)c5N)C4)o3)ccc2CC1C(=O)NC1CCCc2ccccc21)C(C)(C)C

> <Shape>
0.278

> <Color>
0.114

> <Negative vol penalty>
0.000

$$$$

  -OEChem-04052303413D

 83 91  0     1  0  0  0  0  0999 V2000
  -32.4125  -17.0313   20.5897 C   0  0  0  0  0  0  0  0  0  0  0  0
  -31.3586  -17.9350   20.6789 C   0  0  0  0  0  0  0  0  0  0  0  0
  -29.1182  -24.3809   21.9561 C   0  0  0  0  0  0  0  0  0  0  0  0
  -26.9836  -24.6236   20.8507 C   0  0  0  0  0  0  0  0  0  0  0  0
  -32.1885  -15.7479   20.0931 C   0  0  0  0  0  0  0  0  0  0  0  0
  -30.0802  -17.5562   20.2705 C   0  0  0  0  0  0  0  0  0  0  0  0
  -24.7564  -19.3131   22.7354 C   0  0  0  0  0  0  0  0  0  0  0  0
  -29.6050  -23.6689   20.8598 C   0  0  0  0  0  0  0  0  0  0  0  0
  -27.4704  -23.9117   19.7544 C   0  0  0  0  0  0  0  0  0  0  0  0
  -23.8326  -20.2923   22.3727 C   0  0  0  0  0  0  0  0  0  0  0  0
  -28.0344  -20.6808   18.9332 C   0  0  0  0  0  0  0  0  0  0  0  0
  -27.2167  -19.6907   18.3886 C   0  0  0  0  0  0  0  0  0  0  0  0
  -22.5345  -18.6271   21.2060 C   0  0  0  0  0  0  0  0  0  0  0  0
  -20.6850  -27.4532   22.5038 C   0  0  0  0  0  0  0  0  0  0  0  0
  -27.2170  -20.8549   16.2716 C   0  0  0  0  0  0  0  0  0  0  0  0
  -18.3892  -27.1238   22.3518 C   0  0  0  0  0  0  0  0  0  0  0  0
  -27.8075  -24.8582   21.9515 C   0  0  0  0  0  0  0  0  0  0  0  0
  -27.1987  -25.1405   24.4127 C   0  0  0  0  0  0  0  0  0  0  0  0
  -30.9049  -15.3499   19.6875 C   0  0  0  0  0  0  0  0  0  0  0  0
  -24.5816  -17.9832   22.3262 C   0  0  0  0  0  0  0  0  0  0  0  0
  -29.8392  -16.2666   19.7669 C   0  0  0  0  0  0  0  0  0  0  0  0
  -23.4562  -17.6324   21.5670 C   0  0  0  0  0  0  0  0  0  0  0  0
  -19.6298  -26.5425   22.2082 C   0  0  0  0  0  0  0  0  0  0  0  0
  -28.7811  -23.4343   19.7590 C   0  0  0  0  0  0  0  0  0  0  0  0
  -22.7230  -19.9499   21.6054 C   0  0  0  0  0  0  0  0  0  0  0  0
  -28.4434  -21.7581   18.1471 C   0  0  0  0  0  0  0  0  0  0  0  0
  -26.8080  -19.7777   17.0578 C   0  0  0  0  0  0  0  0  0  0  0  0
  -28.0347  -21.8451   16.8163 C   0  0  0  0  0  0  0  0  0  0  0  0
  -27.3039  -25.5933   23.0839 C   0  0  0  0  0  0  0  0  0  0  0  0
  -20.2106  -28.6960   22.8620 C   0  0  0  0  0  0  0  0  0  0  0  0
  -26.6654  -26.2052   25.0970 C   0  0  0  0  0  0  0  0  0  0  0  0
  -27.5516  -23.8710   24.9779 C   0  0  0  0  0  0  0  0  0  0  0  0
  -20.9757  -29.9129   23.2370 C   0  0  0  0  0  0  0  0  0  0  0  0
  -26.2353  -15.9560   20.5209 C   0  0  0  0  0  0  0  0  0  0  0  0
  -20.9709  -23.1736   21.2416 C   0  0  0  0  0  0  0  0  0  0  0  0
  -23.9807  -13.8442   21.5105 C   0  0  0  0  0  0  0  0  0  0  0  0
  -20.8267  -13.3208   22.7045 C   0  0  0  0  0  0  0  0  0  0  0  0
  -23.2657  -30.8127   23.5015 C   0  0  0  0  0  0  0  0  0  0  0  0
  -30.7211  -13.9675   19.1132 C   0  0  0  0  0  0  0  0  0  0  0  0
  -25.5730  -16.9338   22.7483 C   0  0  0  0  0  0  0  0  0  0  0  0
  -23.2119  -16.2152   21.1194 C   0  0  0  0  0  0  0  0  0  0  0  0
  -29.2621  -13.5224   19.0520 C   0  0  0  0  0  0  0  0  0  0  0  0
  -26.4598  -30.9934   25.0053 C   0  0  0  0  0  0  0  0  0  0  0  0
  -28.3893  -14.6319   18.4742 C   0  0  0  0  0  0  0  0  0  0  0  0
  -27.0266  -29.5832   24.8198 C   0  0  0  0  0  0  0  0  0  0  0  0
  -25.6458  -31.4419   23.7924 C   0  0  0  0  0  0  0  0  0  0  0  0
  -25.1597  -29.1067   23.1854 C   0  0  0  0  0  0  0  0  0  0  0  0
  -28.4333  -15.8849   19.3571 C   0  0  1  0  0  0  0  0  0  0  0  0
  -25.5657  -15.7062   21.8426 C   0  0  1  0  0  0  0  0  0  0  0  0
  -25.9286  -28.5819   24.4086 C   0  0  1  0  0  0  0  0  0  0  0  0
  -19.2560  -11.4842   23.3806 C   0  0  0  0  0  0  0  0  0  0  0  0
  -23.4764  -13.1969   18.5717 C   0  0  0  0  0  0  0  0  0  0  0  0
  -21.3208  -12.1197   19.2509 C   0  0  0  0  0  0  0  0  0  0  0  0
  -23.4865  -11.2102   20.0907 C   0  0  0  0  0  0  0  0  0  0  0  0
  -20.6463  -14.3381   25.4778 C   0  0  0  0  0  0  0  0  0  0  0  0
  -21.1235  -24.6176   21.6705 C   0  0  0  0  0  0  0  0  0  0  0  0
  -22.0719  -22.2355   21.6966 C   0  0  0  0  0  0  0  0  0  1  0  0
  -22.6284  -13.4071   21.0013 C   0  0  1  0  0  0  0  0  0  0  0  0
  -20.3124  -12.4711   23.8525 C   0  0  2  0  0  0  0  0  0  0  0  0
  -22.7334  -12.5106   19.7353 C   0  0  0  0  0  0  0  0  0  0  0  0
  -26.8720  -26.8478   22.9309 N   0  0  0  0  0  0  0  0  0  0  0  0
  -26.4901  -27.1925   24.1725 N   0  0  0  0  0  0  0  0  0  0  0  0
  -24.2131  -15.2263   21.5520 N   0  0  0  0  0  0  0  0  0  0  0  0
  -24.6222  -30.4448   23.4741 N   0  0  0  0  0  0  0  0  0  0  0  0
  -26.3339  -26.3840   26.3934 N   0  0  0  0  0  0  0  0  0  0  0  0
  -26.5811  -22.8603   25.0087 N   0  0  0  0  0  0  0  0  0  0  0  0
  -19.8258  -25.2247   21.8207 N   0  0  0  0  0  0  0  0  0  0  0  0
  -22.3643  -29.7787   23.2248 N   0  0  0  0  0  0  0  0  0  0  0  0
  -27.5952  -15.7106   20.5240 N   0  0  0  0  0  0  0  0  0  0  0  0
  -21.9533  -12.7729   22.1284 N   0  0  0  0  0  0  0  0  0  0  0  0
  -19.7107  -13.3351   24.9073 N   0  3  0  0  0  0  0  0  0  0  0  0
  -28.6888  -23.6449   25.4569 O   0  0  0  0  0  0  0  0  0  0  0  0
  -20.3660  -30.9483   23.4903 O   0  0  0  0  0  0  0  0  0  0  0  0
  -25.5674  -16.3413   19.5685 O   0  0  0  0  0  0  0  0  0  0  0  0
  -20.0209  -22.7765   20.5682 O   0  0  0  0  0  0  0  0  0  0  0  0
  -24.7979  -12.9911   21.8654 O   0  0  0  0  0  0  0  0  0  0  0  0
  -20.2814  -14.3641   22.3515 O   0  0  0  0  0  0  0  0  0  0  0  0
  -22.8875  -31.9537   23.7852 O   0  0  0  0  0  0  0  0  0  0  0  0
  -29.2558  -22.7399   18.6890 O   0  0  0  0  0  0  0  0  0  0  0  0
  -21.8202  -20.9039   21.2495 O   0  0  0  0  0  0  0  0  0  1  0  0
  -26.0241  -18.8260   16.5345 F   0  0  0  0  0  0  0  0  0  0  0  0
  -28.4253  -22.8770   16.0557 F   0  0  0  0  0  0  0  0  0  0  0  0
  -18.4995  -28.7610   22.8412 S   0  0  0  0  0  0  0  0  0  0  0  0
  1  2  1  0  0  0  0
  1  5  2  0  0  0  0
  2  6  2  0  0  0  0
  3  8  2  0  0  0  0
  3 17  1  0  0  0  0
  4  9  1  0  0  0  0
  4 17  2  0  0  0  0
  5 19  1  0  0  0  0
  6 21  1  0  0  0  0
  7 10  2  0  0  0  0
  7 20  1  0  0  0  0
  8 24  1  0  0  0  0
  9 24  2  0  0  0  0
 10 25  1  0  0  0  0
 11 12  2  0  0  0  0
 11 26  1  0  0  0  0
 12 27  1  0  0  0  0
 13 22  1  0  0  0  0
 13 25  2  0  0  0  0
 14 23  1  0  0  0  0
 14 30  2  0  0  0  0
 15 27  2  0  0  0  0
 15 28  1  0  0  0  0
 16 23  2  0  0  0  0
 16 83  1  0  0  0  0
 17 29  1  0  0  0  0
 18 29  1  0  0  0  0
 18 31  2  0  0  0  0
 18 32  1  0  0  0  0
 19 21  2  0  0  0  0
 19 39  1  0  0  0  0
 20 22  2  0  0  0  0
 20 40  1  0  0  0  0
 21 48  1  0  0  0  0
 22 41  1  0  0  0  0
 23 67  1  0  0  0  0
 24 79  1  0  0  0  0
 25 80  1  0  0  0  0
 26 28  2  0  0  0  0
 26 79  1  0  0  0  0
 27 81  1  0  0  0  0
 28 82  1  0  0  0  0
 29 61  2  0  0  0  0
 30 33  1  0  0  0  0
 30 83  1  0  0  0  0
 31 62  1  0  0  0  0
 31 65  1  0  0  0  0
 32 66  1  0  0  0  0
 32 72  2  0  0  0  0
 33 68  1  0  0  0  0
 33 73  2  0  0  0  0
 34 49  1  0  0  0  0
 34 69  1  0  0  0  0
 34 74  2  0  0  0  0
 35 56  1  0  0  0  0
 35 57  1  0  0  0  0
 35 75  2  0  0  0  0
 36 58  1  0  0  0  0
 36 63  1  0  0  0  0
 36 76  2  0  0  0  0
 37 59  1  0  0  0  0
 37 70  1  0  0  0  0
 37 77  2  0  0  0  0
 38 64  1  0  0  0  0
 38 68  1  0  0  0  0
 38 78  2  0  0  0  0
 39 42  1  0  0  0  0
 40 49  1  0  0  0  0
 41 63  1  0  0  0  0
 42 44  1  0  0  0  0
 43 45  1  0  0  0  0
 43 46  1  0  0  0  0
 44 48  1  0  0  0  0
 45 50  1  0  0  0  0
 46 64  1  0  0  0  0
 47 50  1  0  0  0  0
 47 64  1  0  0  0  0
 48 69  1  0  0  0  0
 49 63  1  0  0  0  0
 50 62  1  0  0  0  0
 51 59  1  0  0  0  0
 52 60  1  0  0  0  0
 53 60  1  0  0  0  0
 54 60  1  0  0  0  0
 55 71  1  0  0  0  0
 56 67  1  0  0  0  0
 57 80  1  0  0  0  0
 58 60  1  0  0  0  0
 58 70  1  0  0  0  0
 59 71  1  0  0  0  0
 61 62  1  0  0  0  0
M  CHG  1  71   1
M  ISO  4  38 100  57 101  68 100  80 101
M  END
> <Batch ID>
0157

> <Smiles>
CNC(C)C(=O)NC(C(=O)N1Cc2cc([101O:1][101CH2:1]C(=O)CNc3csc(C(=O)[100NH:0][100C:0](=O)N4CCCC(n5nc(-c6ccc(Oc7ccc(F)cc7F)cc6)c(C(N)=O)c5N)C4)c3)ccc2CC1C(=O)NC1CCCc2ccccc21)C(C)(C)C

> <Shape>
0.196

> <Color>
0.070

> <Negative vol penalty>
0.000

$$$$

  -OEChem-04052303413D

 92101  0     1  0  0  0  0  0999 V2000
  -29.7860  -31.9482   25.9951 C   0  0  0  0  0  0  0  0  0  0  0  0
  -29.4394  -30.8359   25.2348 C   0  0  0  0  0  0  0  0  0  0  0  0
  -24.5490   -8.4020   20.5905 C   0  0  0  0  0  0  0  0  0  0  0  0
  -23.0365  -10.2811   20.7247 C   0  0  0  0  0  0  0  0  0  0  0  0
  -28.7894  -32.7595   26.5359 C   0  0  0  0  0  0  0  0  0  0  0  0
  -28.0959  -30.5335   25.0159 C   0  0  0  0  0  0  0  0  0  0  0  0
  -27.1402  -29.3112   20.1954 C   0  0  0  0  0  0  0  0  0  0  0  0
  -29.1204  -20.2789   20.2326 C   0  0  0  0  0  0  0  0  0  0  0  0
  -29.1817  -18.9523   20.6589 C   0  0  0  0  0  0  0  0  0  0  0  0
  -23.5181   -7.5446   20.9748 C   0  0  0  0  0  0  0  0  0  0  0  0
  -22.0055   -9.4238   21.1090 C   0  0  0  0  0  0  0  0  0  0  0  0
  -27.4891  -28.0259   19.7832 C   0  0  0  0  0  0  0  0  0  0  0  0
  -21.9547   -6.6559   23.8367 C   0  0  0  0  0  0  0  0  0  0  0  0
  -22.2401   -5.6941   24.8057 C   0  0  0  0  0  0  0  0  0  0  0  0
  -25.1923  -27.3303   20.0279 C   0  0  0  0  0  0  0  0  0  0  0  0
  -28.1948  -19.5575   18.1207 C   0  0  0  0  0  0  0  0  0  0  0  0
  -21.6604   -3.9464   23.2415 C   0  0  0  0  0  0  0  0  0  0  0  0
  -28.6793  -22.3103   17.2306 C   0  0  0  0  0  0  0  0  0  0  0  0
  -24.3082   -9.7702   20.4654 C   0  0  0  0  0  0  0  0  0  0  0  0
  -25.7227  -11.0319   18.7581 C   0  0  0  0  0  0  0  0  0  0  0  0
  -27.4330  -32.4724   26.3155 C   0  0  0  0  0  0  0  0  0  0  0  0
  -25.8144  -29.6135   20.5379 C   0  0  0  0  0  0  0  0  0  0  0  0
  -27.0802  -31.3409   25.5554 C   0  0  0  0  0  0  0  0  0  0  0  0
  -24.8286  -28.6209   20.4417 C   0  0  0  0  0  0  0  0  0  0  0  0
  -28.2561  -18.2308   18.5471 C   0  0  0  0  0  0  0  0  0  0  0  0
  -28.3885  -24.1235   18.5335 C   0  0  0  0  0  0  0  0  0  0  0  0
  -28.6269  -20.5816   18.9634 C   0  0  0  0  0  0  0  0  0  0  0  0
  -28.7496  -17.9282   19.8162 C   0  0  0  0  0  0  0  0  0  0  0  0
  -22.2463   -8.0555   21.2341 C   0  0  0  0  0  0  0  0  0  0  0  0
  -26.5157  -27.0345   19.7022 C   0  0  0  0  0  0  0  0  0  0  0  0
  -21.5222   -6.2631   22.5701 C   0  0  0  0  0  0  0  0  0  0  0  0
  -28.5722  -23.6831   17.1995 C   0  0  0  0  0  0  0  0  0  0  0  0
  -22.0930   -4.3393   24.5081 C   0  0  0  0  0  0  0  0  0  0  0  0
  -21.3751   -4.9083   22.2725 C   0  0  0  0  0  0  0  0  0  0  0  0
  -25.3729  -10.6564   20.0690 C   0  0  0  0  0  0  0  0  0  0  0  0
  -28.3891  -23.0062   19.3391 C   0  0  0  0  0  0  0  0  0  0  0  0
  -26.7904  -11.8810   18.9175 C   0  0  0  0  0  0  0  0  0  0  0  0
  -25.1350  -10.6475   17.5081 C   0  0  0  0  0  0  0  0  0  0  0  0
  -28.2344  -22.9575   20.7637 C   0  0  0  0  0  0  0  0  0  0  0  0
  -24.3481  -30.5906   23.1835 C   0  0  0  0  0  0  0  0  0  0  0  0
  -21.7757  -30.7903   21.2176 C   0  0  0  0  0  0  0  0  0  0  0  0
  -20.2285  -29.7566   18.3568 C   0  0  0  0  0  0  0  0  0  0  0  0
  -29.2880  -16.1343   21.5010 C   0  0  0  0  0  0  0  0  0  0  0  0
  -26.3908  -33.3516   26.9600 C   0  0  0  0  0  0  0  0  0  0  0  0
  -25.4493  -31.0117   20.9551 C   0  0  0  0  0  0  0  0  0  0  0  0
  -23.3873  -28.8994   20.7787 C   0  0  0  0  0  0  0  0  0  0  0  0
  -24.9947  -33.1752   26.3684 C   0  0  0  0  0  0  0  0  0  0  0  0
  -29.5908  -12.9208   23.0039 C   0  0  0  0  0  0  0  0  0  0  0  0
  -24.6576  -31.6942   26.2279 C   0  0  0  0  0  0  0  0  0  0  0  0
  -28.5492  -12.0761   22.2664 C   0  0  0  0  0  0  0  0  0  0  0  0
  -29.1068  -14.3529   23.2240 C   0  0  0  0  0  0  0  0  0  0  0  0
  -27.6061  -14.2014   21.2762 C   0  0  0  0  0  0  0  0  0  0  0  0
  -25.6341  -30.9941   25.2750 C   0  0  1  0  0  0  0  0  0  0  0  0
  -24.1631  -31.0746   21.7732 C   0  0  1  0  0  0  0  0  0  0  0  0
  -28.0747  -12.7687   20.9739 C   0  0  2  0  0  0  0  0  0  0  0  0
  -29.2441  -23.6888   21.6170 C   0  0  0  0  0  0  0  0  0  0  0  0
  -18.1176  -30.0681   17.0359 C   0  0  0  0  0  0  0  0  0  0  0  0
  -28.9683  -17.9607   15.5513 C   0  0  0  0  0  0  0  0  0  0  0  0
  -30.1472  -16.3388   17.0357 C   0  0  0  0  0  0  0  0  0  0  0  0
  -28.2068  -15.5865   15.6373 C   0  0  0  0  0  0  0  0  0  0  0  0
  -20.2706  -29.0425   23.2152 C   0  0  0  0  0  0  0  0  0  0  0  0
  -18.5584  -28.6099   21.4405 C   0  0  0  0  0  0  0  0  0  0  0  0
  -18.9343  -30.9327   22.2686 C   0  0  0  0  0  0  0  0  0  0  0  0
  -21.7105  -30.7887   16.0121 C   0  0  0  0  0  0  0  0  0  0  0  0
  -27.7880  -17.1533   17.6235 C   0  0  0  0  0  0  0  0  0  0  0  0
  -28.2243  -25.5471   18.9779 C   0  0  0  0  0  0  0  0  0  1  0  0
  -20.6771  -29.8449   20.7951 C   0  0  1  0  0  0  0  0  0  0  0  0
  -19.5513  -30.5321   17.2412 C   0  0  2  0  0  0  0  0  0  0  0  0
  -28.7709  -16.7437   16.4799 C   0  0  0  0  0  0  0  0  0  0  0  0
  -19.6375  -29.6014   21.9253 C   0  0  0  0  0  0  0  0  0  0  0  0
  -26.1551  -11.2207   20.9930 N   0  0  0  0  0  0  0  0  0  0  0  0
  -28.5669  -21.9098   18.5364 N   0  0  0  0  0  0  0  0  0  0  0  0
  -27.0071  -11.9592   20.2618 N   0  0  0  0  0  0  0  0  0  0  0  0
  -23.0814  -30.2802   21.1875 N   0  0  0  0  0  0  0  0  0  0  0  0
  -28.6774  -14.9465   21.9559 N   0  0  0  0  0  0  0  0  0  0  0  0
  -27.5558  -12.5609   18.0374 N   0  0  0  0  0  0  0  0  0  0  0  0
  -24.0443   -9.7674   17.5251 N   0  0  0  0  0  0  0  0  0  0  0  0
  -28.8209  -16.5869   20.2675 N   0  0  0  0  0  0  0  0  0  0  0  0
  -25.2991  -31.2927   23.8991 N   0  0  0  0  0  0  0  0  0  0  0  0
  -20.1098  -30.3996   19.5707 N   0  0  0  0  0  0  0  0  0  0  0  0
  -20.2919  -30.3508   15.9607 N   0  3  0  0  0  0  0  0  0  0  0  0
  -25.5746  -11.0590   16.4077 O   0  0  0  0  0  0  0  0  0  0  0  0
  -27.3340  -22.3556   21.3771 O   0  0  0  0  0  0  0  0  0  0  0  0
  -23.6767  -29.6507   23.5927 O   0  0  0  0  0  0  0  0  0  0  0  0
  -21.4867  -31.9411   21.5549 O   0  0  0  0  0  0  0  0  0  0  0  0
  -20.8018  -28.6856   18.1706 O   0  0  0  0  0  0  0  0  0  0  0  0
  -30.1801  -16.6930   22.1444 O   0  0  0  0  0  0  0  0  0  0  0  0
  -28.6370  -24.4242   16.0841 O   0  0  0  0  0  0  0  0  0  0  0  0
  -21.2400   -7.2192   21.6090 O   0  0  0  0  0  0  0  0  0  0  0  0
  -26.8537  -25.7789   19.3008 O   0  0  0  0  0  0  0  0  0  1  0  0
  -22.3685   -3.4157   25.4383 F   0  0  0  0  0  0  0  0  0  0  0  0
  -20.9610   -4.5247   21.0571 F   0  0  0  0  0  0  0  0  0  0  0  0
  1  2  1  0  0  0  0
  1  5  2  0  0  0  0
  2  6  2  0  0  0  0
  3 10  2  0  0  0  0
  3 19  1  0  0  0  0
  4 11  1  0  0  0  0
  4 19  2  0  0  0  0
  5 21  1  0  0  0  0
  6 23  1  0  0  0  0
  7 12  2  0  0  0  0
  7 22  1  0  0  0  0
  8  9  2  0  0  0  0
  8 27  1  0  0  0  0
  9 28  1  0  0  0  0
 10 29  1  0  0  0  0
 11 29  2  0  0  0  0
 12 30  1  0  0  0  0
 13 14  2  0  0  0  0
 13 31  1  0  0  0  0
 14 33  1  0  0  0  0
 15 24  1  0  0  0  0
 15 30  2  0  0  0  0
 16 25  1  0  0  0  0
 16 27  2  0  0  0  0
 17 33  2  0  0  0  0
 17 34  1  0  0  0  0
 18 32  2  0  0  0  0
 18 72  1  0  0  0  0
 19 35  1  0  0  0  0
 20 35  1  0  0  0  0
 20 37  2  0  0  0  0
 20 38  1  0  0  0  0
 21 23  2  0  0  0  0
 21 44  1  0  0  0  0
 22 24  2  0  0  0  0
 22 45  1  0  0  0  0
 23 53  1  0  0  0  0
 24 46  1  0  0  0  0
 25 28  2  0  0  0  0
 25 65  1  0  0  0  0
 26 32  1  0  0  0  0
 26 36  2  0  0  0  0
 26 66  1  0  0  0  0
 27 72  1  0  0  0  0
 28 78  1  0  0  0  0
 29 89  1  0  0  0  0
 30 90  1  0  0  0  0
 31 34  2  0  0  0  0
 31 89  1  0  0  0  0
 32 88  1  0  0  0  0
 33 91  1  0  0  0  0
 34 92  1  0  0  0  0
 35 71  2  0  0  0  0
 36 39  1  0  0  0  0
 36 72  1  0  0  0  0
 37 73  1  0  0  0  0
 37 76  1  0  0  0  0
 38 77  1  0  0  0  0
 38 82  2  0  0  0  0
 39 56  1  0  0  0  0
 39 83  2  0  0  0  0
 40 54  1  0  0  0  0
 40 79  1  0  0  0  0
 40 84  2  0  0  0  0
 41 67  1  0  0  0  0
 41 74  1  0  0  0  0
 41 85  2  0  0  0  0
 42 68  1  0  0  0  0
 42 80  1  0  0  0  0
 42 86  2  0  0  0  0
 43 75  1  0  0  0  0
 43 78  1  0  0  0  0
 43 87  2  0  0  0  0
 44 47  1  0  0  0  0
 45 54  1  0  0  0  0
 46 74  1  0  0  0  0
 47 49  1  0  0  0  0
 48 50  1  0  0  0  0
 48 51  1  0  0  0  0
 49 53  1  0  0  0  0
 50 55  1  0  0  0  0
 51 75  1  0  0  0  0
 52 55  1  0  0  0  0
 52 75  1  0  0  0  0
 53 79  1  0  0  0  0
 54 74  1  0  0  0  0
 55 73  1  0  0  0  0
 57 68  1  0  0  0  0
 58 69  1  0  0  0  0
 59 69  1  0  0  0  0
 60 69  1  0  0  0  0
 61 70  1  0  0  0  0
 62 70  1  0  0  0  0
 63 70  1  0  0  0  0
 64 81  1  0  0  0  0
 65 69  1  0  0  0  0
 66 90  1  0  0  0  0
 67 70  1  0  0  0  0
 67 80  1  0  0  0  0
 68 81  1  0  0  0  0
 71 73  1  0  0  0  0
M  CHG  1  81   1
M  ISO  4  43 100  66 101  78 100  90 101
M  END
> <Batch ID>
0157

> <Smiles>
CNC(C)C(=O)NC(C(=O)N1Cc2cc([101O:1][101CH2:1]C3=C(C(C)=O)N(c4ccc([100NH:0][100C:0](=O)N5CCCC(n6nc(-c7ccc(Oc8ccc(F)cc8F)cc7)c(C(N)=O)c6N)C5)c(CC(C)(C)C)c4)CC3=O)ccc2CC1C(=O)NC1CCCc2ccccc21)C(C)(C)C

> <Shape>
0.348

> <Color>
0.103

> <Negative vol penalty>
0.000

$$$$

  -OEChem-04052303413D

 84 93  0     1  0  0  0  0  0999 V2000
  -27.7981  -24.0812   17.2038 C   0  0  0  0  0  0  0  0  0  0  0  0
  -26.6487  -24.3277   17.9478 C   0  0  0  0  0  0  0  0  0  0  0  0
  -27.0550  -13.3600   21.3137 C   0  0  0  0  0  0  0  0  0  0  0  0
  -25.0641  -13.7714   20.0083 C   0  0  0  0  0  0  0  0  0  0  0  0
  -29.0151  -24.6350   17.5989 C   0  0  0  0  0  0  0  0  0  0  0  0
  -26.7159  -25.1274   19.0882 C   0  0  0  0  0  0  0  0  0  0  0  0
  -22.9340  -28.4864   19.3312 C   0  0  0  0  0  0  0  0  0  0  0  0
  -26.7906  -11.9907   21.2853 C   0  0  0  0  0  0  0  0  0  0  0  0
  -24.7998  -12.4021   19.9798 C   0  0  0  0  0  0  0  0  0  0  0  0
  -21.6888  -28.0145   19.7442 C   0  0  0  0  0  0  0  0  0  0  0  0
  -23.4993  -10.0722   22.0562 C   0  0  0  0  0  0  0  0  0  0  0  0
  -22.1909   -9.6595   22.3074 C   0  0  0  0  0  0  0  0  0  0  0  0
  -20.6620  -22.1773   22.7640 C   0  0  0  0  0  0  0  0  0  0  0  0
  -22.1035  -28.8766   21.9587 C   0  0  0  0  0  0  0  0  0  0  0  0
  -22.0949   -8.6337   20.1221 C   0  0  0  0  0  0  0  0  0  0  0  0
  -26.1917  -14.2503   20.6752 C   0  0  0  0  0  0  0  0  0  0  0  0
  -19.4923  -22.5564   22.0440 C   0  0  0  0  0  0  0  0  0  0  0  0
  -27.2239  -16.4039   19.7783 C   0  0  0  0  0  0  0  0  0  0  0  0
  -29.0954  -25.4498   18.7392 C   0  0  0  0  0  0  0  0  0  0  0  0
  -23.7793  -29.1485   20.2331 C   0  0  0  0  0  0  0  0  0  0  0  0
  -27.9354  -25.6915   19.4997 C   0  0  0  0  0  0  0  0  0  0  0  0
  -23.3578  -29.3582   21.5539 C   0  0  0  0  0  0  0  0  0  0  0  0
  -25.6631  -11.5118   20.6184 C   0  0  0  0  0  0  0  0  0  0  0  0
  -21.2746  -28.2070   21.0589 C   0  0  0  0  0  0  0  0  0  0  0  0
  -24.1056   -9.7658   20.8378 C   0  0  0  0  0  0  0  0  0  0  0  0
  -21.4886   -8.9402   21.3404 C   0  0  0  0  0  0  0  0  0  0  0  0
  -23.4033   -9.0465   19.8708 C   0  0  0  0  0  0  0  0  0  0  0  0
  -26.4639  -15.6650   20.7047 C   0  0  0  0  0  0  0  0  0  0  0  0
  -27.1804  -17.6933   20.2494 C   0  0  0  0  0  0  0  0  0  0  0  0
  -21.2823  -21.0823   22.2038 C   0  0  0  0  0  0  0  0  0  0  0  0
  -19.2634  -21.7366   20.9606 C   0  0  0  0  0  0  0  0  0  0  0  0
  -18.6640  -26.1703   22.7820 C   0  0  0  0  0  0  0  0  0  0  0  0
  -18.6399  -23.6955   22.4286 C   0  0  0  0  0  0  0  0  0  0  0  0
  -27.9079  -15.9641   18.5975 C   0  0  0  0  0  0  0  0  0  0  0  0
  -26.6774  -28.5911   21.4136 C   0  0  0  0  0  0  0  0  0  0  0  0
  -26.2788  -31.5274   22.7333 C   0  0  0  0  0  0  0  0  0  0  0  0
  -24.1329  -33.9559   23.8030 C   0  0  0  0  0  0  0  0  0  0  0  0
  -23.2839  -20.6591   23.6738 C   0  0  0  0  0  0  0  0  0  0  0  0
  -30.4421  -25.9877   19.1537 C   0  0  0  0  0  0  0  0  0  0  0  0
  -25.1081  -29.6750   19.7649 C   0  0  0  0  0  0  0  0  0  0  0  0
  -24.2193  -30.0808   22.5560 C   0  0  0  0  0  0  0  0  0  0  0  0
  -30.3574  -27.1298   20.1630 C   0  0  0  0  0  0  0  0  0  0  0  0
  -26.7526  -20.1809   24.3192 C   0  0  0  0  0  0  0  0  0  0  0  0
  -29.3786  -26.7833   21.2804 C   0  0  0  0  0  0  0  0  0  0  0  0
  -27.1428  -19.0399   23.3768 C   0  0  0  0  0  0  0  0  0  0  0  0
  -25.3472  -19.9918   24.8873 C   0  0  0  0  0  0  0  0  0  0  0  0
  -20.4984  -25.3571   22.1795 C   0  0  0  0  0  0  0  0  0  0  0  0
  -24.6869  -18.6312   22.9426 C   0  0  0  0  0  0  0  0  0  0  0  0
  -27.9632  -26.5740   20.7288 C   0  0  1  0  0  0  0  0  0  0  0  0
  -20.0484  -26.7941   22.5273 C   0  0  1  0  0  0  0  0  0  1  0  0
  -26.1032  -29.8821   20.9025 C   0  0  1  0  0  0  0  0  0  0  0  0
  -26.0695  -18.8108   22.2947 C   0  0  2  0  0  0  0  0  0  0  0  0
  -24.1021  -36.2270   24.8701 C   0  0  0  0  0  0  0  0  0  0  0  0
  -26.9319  -30.2649   25.4332 C   0  0  0  0  0  0  0  0  0  0  0  0
  -25.9736  -32.2975   26.5370 C   0  0  0  0  0  0  0  0  0  0  0  0
  -27.9676  -32.5094   25.0532 C   0  0  0  0  0  0  0  0  0  0  0  0
  -22.7744  -35.1629   21.4670 C   0  0  0  0  0  0  0  0  0  0  0  0
  -25.7030  -32.0484   24.0279 C   0  0  1  0  0  0  0  0  0  0  0  0
  -24.1055  -35.4542   23.5603 C   0  0  2  0  0  0  0  0  0  0  0  0
  -26.6283  -31.7647   25.2447 C   0  0  0  0  0  0  0  0  0  0  0  0
  -25.9737  -16.4220   21.6899 N   0  0  0  0  0  0  0  0  0  0  0  0
  -26.4267  -17.6500   21.3853 N   0  0  0  0  0  0  0  0  0  0  0  0
  -19.1531  -24.8948   22.4709 N   0  0  0  0  0  0  0  0  0  0  0  0
  -25.5126  -30.5713   22.0516 N   0  0  0  0  0  0  0  0  0  0  0  0
  -24.3833  -19.7845   23.8043 N   0  0  0  0  0  0  0  0  0  0  0  0
  -27.7139  -18.8486   19.7988 N   0  0  0  0  0  0  0  0  0  0  0  0
  -18.2400  -21.8240   20.0728 N   0  0  0  0  0  0  0  0  0  0  0  0
  -27.8500  -14.6053   18.2588 N   0  0  0  0  0  0  0  0  0  0  0  0
  -22.4533  -20.3832   22.5881 N   0  0  0  0  0  0  0  0  0  0  0  0
  -27.3351  -27.8481   20.4519 N   0  0  0  0  0  0  0  0  0  0  0  0
  -25.4205  -33.4629   23.8090 N   0  0  0  0  0  0  0  0  0  0  0  0
  -17.3610  -23.4838   22.7248 N   0  3  0  0  0  0  0  0  0  0  0  0
  -22.8878  -35.8318   22.7886 N   0  3  0  0  0  0  0  0  0  0  0  0
  -17.5369  -26.4585   23.1013 O   0  0  0  0  0  0  0  0  0  0  0  0
  -28.5649  -16.7498   17.8733 O   0  0  0  0  0  0  0  0  0  0  0  0
  -26.5357  -28.2920   22.5935 O   0  0  0  0  0  0  0  0  0  0  0  0
  -27.3648  -31.9583   22.3377 O   0  0  0  0  0  0  0  0  0  0  0  0
  -23.1140  -33.2902   23.9740 O   0  0  0  0  0  0  0  0  0  0  0  0
  -23.1084  -21.6013   24.4507 O   0  0  0  0  0  0  0  0  0  0  0  0
  -25.4049  -10.1757   20.5902 O   0  0  0  0  0  0  0  0  0  0  0  0
  -20.0600  -27.7468   21.4649 O   0  0  0  0  0  0  0  0  0  1  0  0
  -20.2327   -8.5425   21.5824 F   0  0  0  0  0  0  0  0  0  0  0  0
  -23.9809   -8.7482   18.6990 F   0  0  0  0  0  0  0  0  0  0  0  0
  -20.4554  -20.5159   20.8154 S   0  0  0  0  0  0  0  0  0  0  0  0
  1  2  1  0  0  0  0
  1  5  2  0  0  0  0
  2  6  2  0  0  0  0
  3  8  2  0  0  0  0
  3 16  1  0  0  0  0
  4  9  1  0  0  0  0
  4 16  2  0  0  0  0
  5 19  1  0  0  0  0
  6 21  1  0  0  0  0
  7 10  2  0  0  0  0
  7 20  1  0  0  0  0
  8 23  1  0  0  0  0
  9 23  2  0  0  0  0
 10 24  1  0  0  0  0
 11 12  2  0  0  0  0
 11 25  1  0  0  0  0
 12 26  1  0  0  0  0
 13 17  1  0  0  0  0
 13 30  2  0  0  0  0
 14 22  1  0  0  0  0
 14 24  2  0  0  0  0
 15 26  2  0  0  0  0
 15 27  1  0  0  0  0
 16 28  1  0  0  0  0
 17 31  2  0  0  0  0
 17 33  1  0  0  0  0
 18 28  1  0  0  0  0
 18 29  2  0  0  0  0
 18 34  1  0  0  0  0
 19 21  2  0  0  0  0
 19 39  1  0  0  0  0
 20 22  2  0  0  0  0
 20 40  1  0  0  0  0
 21 49  1  0  0  0  0
 22 41  1  0  0  0  0
 23 80  1  0  0  0  0
 24 81  1  0  0  0  0
 25 27  2  0  0  0  0
 25 80  1  0  0  0  0
 26 82  1  0  0  0  0
 27 83  1  0  0  0  0
 28 61  2  0  0  0  0
 29 62  1  0  0  0  0
 29 66  1  0  0  0  0
 30 69  1  0  0  0  0
 30 84  1  0  0  0  0
 31 67  1  0  0  0  0
 31 84  1  0  0  0  0
 32 50  1  0  0  0  0
 32 63  1  0  0  0  0
 32 74  2  0  0  0  0
 33 63  1  0  0  0  0
 33 72  2  0  0  0  0
 34 68  1  0  0  0  0
 34 75  2  0  0  0  0
 35 51  1  0  0  0  0
 35 70  1  0  0  0  0
 35 76  2  0  0  0  0
 36 58  1  0  0  0  0
 36 64  1  0  0  0  0
 36 77  2  0  0  0  0
 37 59  1  0  0  0  0
 37 71  1  0  0  0  0
 37 78  2  0  0  0  0
 38 65  1  0  0  0  0
 38 69  1  0  0  0  0
 38 79  2  0  0  0  0
 39 42  1  0  0  0  0
 40 51  1  0  0  0  0
 41 64  1  0  0  0  0
 42 44  1  0  0  0  0
 43 45  1  0  0  0  0
 43 46  1  0  0  0  0
 44 49  1  0  0  0  0
 45 52  1  0  0  0  0
 46 65  1  0  0  0  0
 47 50  1  0  0  0  0
 47 63  1  0  0  0  0
 48 52  1  0  0  0  0
 48 65  1  0  0  0  0
 49 70  1  0  0  0  0
 50 81  1  0  0  0  0
 51 64  1  0  0  0  0
 52 62  1  0  0  0  0
 53 59  1  0  0  0  0
 54 60  1  0  0  0  0
 55 60  1  0  0  0  0
 56 60  1  0  0  0  0
 57 73  1  0  0  0  0
 58 60  1  0  0  0  0
 58 71  1  0  0  0  0
 59 73  1  0  0  0  0
 61 62  1  0  0  0  0
M  CHG  2  72   1  73   1
M  ISO  4  38 100  50 101  69 100  81 101
M  END
> <Batch ID>
0157

> <Smiles>
CNC(C)C(=O)NC(C(=O)N1Cc2cc([101O:1][101CH:1]3CN(C(=N)c4cc([100NH:0][100C:0](=O)N5CCCC(n6nc(-c7ccc(Oc8ccc(F)cc8F)cc7)c(C(N)=O)c6N)C5)sc4N)C3=O)ccc2CC1C(=O)NC1CCCc2ccccc21)C(C)(C)C

> <Shape>
0.288

> <Color>
0.077

> <Negative vol penalty>
0.000

$$$$

  -OEChem-04052303413D

 85 94  0     1  0  0  0  0  0999 V2000
  -26.2604  -38.7891   20.3080 C   0  0  0  0  0  0  0  0  0  0  0  0
  -26.8634  -37.7241   19.6465 C   0  0  0  0  0  0  0  0  0  0  0  0
  -26.0280   -8.4605   22.6205 C   0  0  0  0  0  0  0  0  0  0  0  0
  -24.0168   -8.4641   21.2818 C   0  0  0  0  0  0  0  0  0  0  0  0
  -25.7000  -38.5969   21.5701 C   0  0  0  0  0  0  0  0  0  0  0  0
  -26.9074  -36.4665   20.2473 C   0  0  0  0  0  0  0  0  0  0  0  0
  -26.7597  -29.4924   18.6171 C   0  0  0  0  0  0  0  0  0  0  0  0
  -25.4246   -7.5866   23.5248 C   0  0  0  0  0  0  0  0  0  0  0  0
  -23.4134   -7.5902   22.1860 C   0  0  0  0  0  0  0  0  0  0  0  0
  -27.4765  -28.3181   18.8431 C   0  0  0  0  0  0  0  0  0  0  0  0
  -23.4836   -4.2826   22.8760 C   0  0  0  0  0  0  0  0  0  0  0  0
  -22.7797   -3.1972   22.3545 C   0  0  0  0  0  0  0  0  0  0  0  0
  -29.5895  -20.0671   17.0809 C   0  0  0  0  0  0  0  0  0  0  0  0
  -28.8641  -21.2998   19.4720 C   0  0  0  0  0  0  0  0  0  0  0  0
  -26.4057  -28.0852   20.9921 C   0  0  0  0  0  0  0  0  0  0  0  0
  -20.7648   -3.9884   23.4275 C   0  0  0  0  0  0  0  0  0  0  0  0
  -25.3241   -8.8993   21.4990 C   0  0  0  0  0  0  0  0  0  0  0  0
  -26.7030   -9.4611   19.4275 C   0  0  0  0  0  0  0  0  0  0  0  0
  -25.7285  -37.3340   22.1825 C   0  0  0  0  0  0  0  0  0  0  0  0
  -25.8672  -29.9786   19.5833 C   0  0  0  0  0  0  0  0  0  0  0  0
  -26.3480  -36.2576   21.5193 C   0  0  0  0  0  0  0  0  0  0  0  0
  -29.4129  -19.2870   18.2328 C   0  0  0  0  0  0  0  0  0  0  0  0
  -29.0634  -19.9122   19.4429 C   0  0  0  0  0  0  0  0  0  0  0  0
  -25.6769  -29.2646   20.7749 C   0  0  0  0  0  0  0  0  0  0  0  0
  -29.3997  -21.4481   17.1237 C   0  0  0  0  0  0  0  0  0  0  0  0
  -29.0347  -22.0637   18.3179 C   0  0  0  0  0  0  0  0  0  0  0  0
  -24.1172   -7.1514   23.3075 C   0  0  0  0  0  0  0  0  0  0  0  0
  -27.3017  -27.6159   20.0319 C   0  0  0  0  0  0  0  0  0  0  0  0
  -22.8281   -5.2210   23.6733 C   0  0  0  0  0  0  0  0  0  0  0  0
  -21.4203   -3.0501   22.6302 C   0  0  0  0  0  0  0  0  0  0  0  0
  -21.4687   -5.0738   23.9490 C   0  0  0  0  0  0  0  0  0  0  0  0
  -25.9468   -9.8025   20.5648 C   0  0  0  0  0  0  0  0  0  0  0  0
  -27.0671  -10.6680   18.8823 C   0  0  0  0  0  0  0  0  0  0  0  0
  -27.0455   -8.1685   18.9102 C   0  0  0  0  0  0  0  0  0  0  0  0
  -25.6738  -32.6297   21.3262 C   0  0  0  0  0  0  0  0  0  0  0  0
  -22.8292  -31.3610   22.2323 C   0  0  0  0  0  0  0  0  0  0  0  0
  -28.4690  -24.2169   19.4917 C   0  0  0  0  0  0  0  0  0  0  0  0
  -20.8922  -28.5792   22.6282 C   0  0  0  0  0  0  0  0  0  0  0  0
  -28.9466  -15.6916   19.2215 C   0  0  0  0  0  0  0  0  0  0  0  0
  -25.1515  -37.1859   23.5681 C   0  0  0  0  0  0  0  0  0  0  0  0
  -25.0817  -31.2326   19.3129 C   0  0  0  0  0  0  0  0  0  0  0  0
  -28.8466  -19.1045   20.6966 C   0  0  0  0  0  0  0  0  0  0  0  0
  -29.6426  -17.7999   18.1549 C   0  0  0  0  0  0  0  0  0  0  0  0
  -24.7157  -29.7333   21.8354 C   0  0  0  0  0  0  0  0  0  0  0  0
  -24.9084  -35.7348   23.9747 C   0  0  0  0  0  0  0  0  0  0  0  0
  -25.5123  -15.3613   19.9111 C   0  0  0  0  0  0  0  0  0  0  0  0
  -26.1223  -34.8752   23.6368 C   0  0  0  0  0  0  0  0  0  0  0  0
  -25.3761  -13.8462   20.0571 C   0  0  0  0  0  0  0  0  0  0  0  0
  -29.4912  -17.7246   20.6195 C   0  0  0  0  0  0  0  0  0  0  0  0
  -26.7988  -15.8860   20.5509 C   0  0  0  0  0  0  0  0  0  0  0  0
  -27.8885  -13.6896   20.2244 C   0  0  0  0  0  0  0  0  0  0  0  0
  -26.3936  -34.8726   22.1276 C   0  0  1  0  0  0  0  0  0  0  0  0
  -24.5823  -31.9107   20.5850 C   0  0  1  0  0  0  0  0  0  0  0  0
  -26.6340  -13.1272   19.5384 C   0  0  1  0  0  0  0  0  0  0  0  0
  -29.5945  -22.2413   15.8724 C   0  0  0  0  0  0  0  0  0  0  0  0
  -18.6259  -27.8540   23.4252 C   0  0  0  0  0  0  0  0  0  0  0  0
  -23.7380  -31.7076   25.1244 C   0  0  0  0  0  0  0  0  0  0  0  0
  -21.9127  -30.1383   25.8128 C   0  0  0  0  0  0  0  0  0  0  0  0
  -21.3448  -32.2999   24.7048 C   0  0  0  0  0  0  0  0  0  0  0  0
  -20.1755  -27.4963   19.9688 C   0  0  0  0  0  0  0  0  0  0  0  0
  -28.3577  -25.6860   19.1285 C   0  0  0  0  0  0  0  0  0  1  0  0
  -22.3733  -30.4388   23.3372 C   0  0  1  0  0  0  0  0  0  0  0  0
  -19.4579  -28.2851   22.2275 C   0  0  2  0  0  0  0  0  0  0  0  0
  -22.3618  -31.1381   24.7259 C   0  0  0  0  0  0  0  0  0  0  0  0
  -25.8364  -11.1229   20.7333 N   0  0  0  0  0  0  0  0  0  0  0  0
  -26.5281  -11.6218   19.6947 N   0  0  0  0  0  0  0  0  0  0  0  0
  -23.9756  -30.9682   21.5271 N   0  0  0  0  0  0  0  0  0  0  0  0
  -29.1921  -17.0702   19.3410 N   0  0  0  0  0  0  0  0  0  0  0  0
  -27.9667  -15.1429   20.0610 N   0  0  0  0  0  0  0  0  0  0  0  0
  -27.7925  -10.9958   17.7920 N   0  0  0  0  0  0  0  0  0  0  0  0
  -26.5895   -7.0330   19.5935 N   0  0  0  0  0  0  0  0  0  0  0  0
  -28.8348  -23.4450   18.3802 N   0  0  0  0  0  0  0  0  0  0  0  0
  -25.4682  -33.9907   21.4492 N   0  0  0  0  0  0  0  0  0  0  0  0
  -21.0771  -29.9137   22.9219 N   0  0  0  0  0  0  0  0  0  0  0  0
  -19.4170  -27.1965   21.2105 N   0  3  0  0  0  0  0  0  0  0  0  0
  -27.7494   -8.0248   17.8819 O   0  0  0  0  0  0  0  0  0  0  0  0
  -26.6308  -31.9965   21.7561 O   0  0  0  0  0  0  0  0  0  0  0  0
  -22.1875  -32.3883   21.9987 O   0  0  0  0  0  0  0  0  0  0  0  0
  -28.2532  -23.8187   20.6316 O   0  0  0  0  0  0  0  0  0  0  0  0
  -21.7608  -27.7112   22.6796 O   0  0  0  0  0  0  0  0  0  0  0  0
  -29.5702  -14.9938   18.4115 O   0  0  0  0  0  0  0  0  0  0  0  0
  -23.5282   -6.2985   24.1896 O   0  0  0  0  0  0  0  0  0  0  0  0
  -28.0077  -26.4578   20.2576 O   0  0  0  0  0  0  0  0  0  1  0  0
  -20.7441   -2.0085   22.1281 F   0  0  0  0  0  0  0  0  0  0  0  0
  -20.8333   -5.9726   24.7133 F   0  0  0  0  0  0  0  0  0  0  0  0
  1  2  1  0  0  0  0
  1  5  2  0  0  0  0
  2  6  2  0  0  0  0
  3  8  2  0  0  0  0
  3 17  1  0  0  0  0
  4  9  1  0  0  0  0
  4 17  2  0  0  0  0
  5 19  1  0  0  0  0
  6 21  1  0  0  0  0
  7 10  2  0  0  0  0
  7 20  1  0  0  0  0
  8 27  1  0  0  0  0
  9 27  2  0  0  0  0
 10 28  1  0  0  0  0
 11 12  2  0  0  0  0
 11 29  1  0  0  0  0
 12 30  1  0  0  0  0
 13 22  2  0  0  0  0
 13 25  1  0  0  0  0
 14 23  2  0  0  0  0
 14 26  1  0  0  0  0
 15 24  1  0  0  0  0
 15 28  2  0  0  0  0
 16 30  2  0  0  0  0
 16 31  1  0  0  0  0
 17 32  1  0  0  0  0
 18 32  1  0  0  0  0
 18 33  2  0  0  0  0
 18 34  1  0  0  0  0
 19 21  2  0  0  0  0
 19 40  1  0  0  0  0
 20 24  2  0  0  0  0
 20 41  1  0  0  0  0
 21 52  1  0  0  0  0
 22 23  1  0  0  0  0
 22 43  1  0  0  0  0
 23 42  1  0  0  0  0
 24 44  1  0  0  0  0
 25 26  2  0  0  0  0
 25 55  1  0  0  0  0
 26 72  1  0  0  0  0
 27 82  1  0  0  0  0
 28 83  1  0  0  0  0
 29 31  2  0  0  0  0
 29 82  1  0  0  0  0
 30 84  1  0  0  0  0
 31 85  1  0  0  0  0
 32 65  2  0  0  0  0
 33 66  1  0  0  0  0
 33 70  1  0  0  0  0
 34 71  1  0  0  0  0
 34 76  2  0  0  0  0
 35 53  1  0  0  0  0
 35 73  1  0  0  0  0
 35 77  2  0  0  0  0
 36 62  1  0  0  0  0
 36 67  1  0  0  0  0
 36 78  2  0  0  0  0
 37 61  1  0  0  0  0
 37 72  1  0  0  0  0
 37 79  2  0  0  0  0
 38 63  1  0  0  0  0
 38 74  1  0  0  0  0
 38 80  2  0  0  0  0
 39 68  1  0  0  0  0
 39 69  1  0  0  0  0
 39 81  2  0  0  0  0
 40 45  1  0  0  0  0
 41 53  1  0  0  0  0
 42 49  1  0  0  0  0
 43 68  1  0  0  0  0
 44 67  1  0  0  0  0
 45 47  1  0  0  0  0
 46 48  1  0  0  0  0
 46 50  1  0  0  0  0
 47 52  1  0  0  0  0
 48 54  1  0  0  0  0
 49 68  1  0  0  0  0
 50 69  1  0  0  0  0
 51 54  1  0  0  0  0
 51 69  1  0  0  0  0
 52 73  1  0  0  0  0
 53 67  1  0  0  0  0
 54 66  1  0  0  0  0
 56 63  1  0  0  0  0
 57 64  1  0  0  0  0
 58 64  1  0  0  0  0
 59 64  1  0  0  0  0
 60 75  1  0  0  0  0
 61 83  1  0  0  0  0
 62 64  1  0  0  0  0
 62 74  1  0  0  0  0
 63 75  1  0  0  0  0
 65 66  1  0  0  0  0
M  CHG  1  75   1
M  ISO  4  39 100  61 101  68 100  83 101
M  END
> <Batch ID>
0157

> <Smiles>
CNC(C)C(=O)NC(C(=O)N1Cc2cc([101O:1][101CH2:1]C(=O)Nc3cc4c(cc3C)C[100N:0]([100C:0](=O)N3CCCC(n5nc(-c6ccc(Oc7ccc(F)cc7F)cc6)c(C(N)=O)c5N)C3)CC4)ccc2CC1C(=O)NC1CCCc2ccccc21)C(C)(C)C

> <Shape>
0.303

> <Color>
0.064

> <Negative vol penalty>
0.000

$$$$

  -OEChem-04052303413D

 85 93  0     1  0  0  0  0  0999 V2000
  -33.7701  -34.6284   17.2095 C   0  0  0  0  0  0  0  0  0  0  0  0
  -33.0209  -33.4592   17.1261 C   0  0  0  0  0  0  0  0  0  0  0  0
  -24.6244   -8.6675   21.4963 C   0  0  0  0  0  0  0  0  0  0  0  0
  -23.1428  -10.5367   21.1118 C   0  0  0  0  0  0  0  0  0  0  0  0
  -33.8300  -35.3323   18.4116 C   0  0  0  0  0  0  0  0  0  0  0  0
  -32.3320  -32.9925   18.2450 C   0  0  0  0  0  0  0  0  0  0  0  0
  -26.9324  -30.1034   18.3036 C   0  0  0  0  0  0  0  0  0  0  0  0
  -23.7535   -8.1772   22.4692 C   0  0  0  0  0  0  0  0  0  0  0  0
  -22.2718  -10.0464   22.0848 C   0  0  0  0  0  0  0  0  0  0  0  0
  -26.5914  -28.7542   18.3871 C   0  0  0  0  0  0  0  0  0  0  0  0
  -20.8387   -6.4664   22.5690 C   0  0  0  0  0  0  0  0  0  0  0  0
  -20.5454   -5.1029   22.5487 C   0  0  0  0  0  0  0  0  0  0  0  0
  -28.2254  -18.7667   19.0948 C   0  0  0  0  0  0  0  0  0  0  0  0
  -26.2887  -28.9842   20.7692 C   0  0  0  0  0  0  0  0  0  0  0  0
  -21.4487   -4.8754   24.7780 C   0  0  0  0  0  0  0  0  0  0  0  0
  -24.3191   -9.8473   20.8176 C   0  0  0  0  0  0  0  0  0  0  0  0
  -27.4646  -19.9373   18.8106 C   0  0  0  0  0  0  0  0  0  0  0  0
  -25.2070  -10.0623   18.4358 C   0  0  0  0  0  0  0  0  0  0  0  0
  -33.1337  -34.8792   19.5432 C   0  0  0  0  0  0  0  0  0  0  0  0
  -26.9648  -30.9020   19.4559 C   0  0  0  0  0  0  0  0  0  0  0  0
  -32.3838  -33.6902   19.4637 C   0  0  0  0  0  0  0  0  0  0  0  0
  -26.6280  -30.3439   20.6974 C   0  0  0  0  0  0  0  0  0  0  0  0
  -22.5772   -8.8667   22.7635 C   0  0  0  0  0  0  0  0  0  0  0  0
  -26.2723  -28.1936   19.6204 C   0  0  0  0  0  0  0  0  0  0  0  0
  -21.4371   -7.0344   23.6938 C   0  0  0  0  0  0  0  0  0  0  0  0
  -20.8504   -4.3074   23.6532 C   0  0  0  0  0  0  0  0  0  0  0  0
  -21.7421   -6.2389   24.7982 C   0  0  0  0  0  0  0  0  0  0  0  0
  -25.2187  -10.3546   19.8128 C   0  0  0  0  0  0  0  0  0  0  0  0
  -26.2540  -10.7877   17.9219 C   0  0  0  0  0  0  0  0  0  0  0  0
  -27.4303  -17.6475   19.2076 C   0  0  0  0  0  0  0  0  0  0  0  0
  -26.1167  -19.6682   18.7167 C   0  0  0  0  0  0  0  0  0  0  0  0
  -26.8612  -25.9531   19.2979 C   0  0  0  0  0  0  0  0  0  1  0  0
  -28.0551  -21.2802   18.6374 C   0  0  0  0  0  0  0  0  0  0  0  0
  -24.3282   -9.2114   17.6879 C   0  0  0  0  0  0  0  0  0  0  0  0
  -26.6412  -24.6342   19.3368 C   0  0  0  0  0  0  0  0  0  0  0  0
  -27.7140  -23.7256   18.8681 C   0  0  0  0  0  0  0  0  0  0  0  0
  -29.2163  -32.5456   20.9834 C   0  0  0  0  0  0  0  0  0  0  0  0
  -26.7136  -33.5448   22.7891 C   0  0  0  0  0  0  0  0  0  0  0  0
  -23.5570  -32.9556   23.9447 C   0  0  0  0  0  0  0  0  0  0  0  0
  -29.0330  -15.7683   19.7040 C   0  0  0  0  0  0  0  0  0  0  0  0
  -33.2670  -35.6483   20.8337 C   0  0  0  0  0  0  0  0  0  0  0  0
  -27.3087  -32.3621   19.3452 C   0  0  0  0  0  0  0  0  0  0  0  0
  -26.6281  -31.1630   21.9613 C   0  0  0  0  0  0  0  0  0  0  0  0
  -32.2050  -35.2886   21.8695 C   0  0  0  0  0  0  0  0  0  0  0  0
  -30.5222  -12.5831   19.1439 C   0  0  0  0  0  0  0  0  0  0  0  0
  -32.0586  -33.7743   21.9802 C   0  0  0  0  0  0  0  0  0  0  0  0
  -29.3296  -11.6244   19.1205 C   0  0  0  0  0  0  0  0  0  0  0  0
  -30.3313  -13.7009   20.1676 C   0  0  0  0  0  0  0  0  0  0  0  0
  -27.8812  -13.4902   20.0193 C   0  0  0  0  0  0  0  0  0  0  0  0
  -31.6026  -33.1653   20.6488 C   0  0  1  0  0  0  0  0  0  0  0  0
  -27.8091  -32.9591   20.6569 C   0  0  1  0  0  0  0  0  0  0  0  0
  -27.9986  -12.3844   18.9577 C   0  0  2  0  0  0  0  0  0  0  0  0
  -21.7901  -33.9335   25.4345 C   0  0  0  0  0  0  0  0  0  0  0  0
  -28.2822  -32.6346   25.2429 C   0  0  0  0  0  0  0  0  0  0  0  0
  -26.1539  -32.7423   26.5571 C   0  0  0  0  0  0  0  0  0  0  0  0
  -27.0832  -34.8118   25.5197 C   0  0  0  0  0  0  0  0  0  0  0  0
  -21.6340  -33.1869   21.7069 C   0  0  0  0  0  0  0  0  0  0  0  0
  -26.0341  -33.0485   24.0425 C   0  0  1  0  0  0  0  0  0  0  0  0
  -22.3278  -33.8437   24.0148 C   0  0  2  0  0  0  0  0  0  0  0  0
  -26.8901  -33.2932   25.3172 C   0  0  0  0  0  0  0  0  0  0  0  0
  -26.1958  -11.1996   20.1523 N   0  0  0  0  0  0  0  0  0  0  0  0
  -26.8078  -11.4444   18.9812 N   0  0  0  0  0  0  0  0  0  0  0  0
  -26.9773  -32.5844   21.8022 N   0  0  0  0  0  0  0  0  0  0  0  0
  -29.0517  -14.3790   19.9492 N   0  0  0  0  0  0  0  0  0  0  0  0
  -26.7458  -10.9214   16.6719 N   0  0  0  0  0  0  0  0  0  0  0  0
  -23.3054   -8.5405   18.3722 N   0  0  0  0  0  0  0  0  0  0  0  0
  -27.7624  -16.2969   19.4787 N   0  0  0  0  0  0  0  0  0  0  0  0
  -27.3145  -22.3446   18.9772 N   0  0  0  0  0  0  0  0  0  0  0  0
  -30.1843  -33.3781   20.4550 N   0  0  0  0  0  0  0  0  0  0  0  0
  -24.7210  -33.6834   24.0737 N   0  0  0  0  0  0  0  0  0  0  0  0
  -29.2947  -21.3554   18.1538 N   0  3  0  0  0  0  0  0  0  0  0  0
  -21.2499  -33.3065   23.1370 N   0  3  0  0  0  0  0  0  0  0  0  0
  -24.4565   -9.0378   16.4522 O   0  0  0  0  0  0  0  0  0  0  0  0
  -28.8051  -24.0643   18.4399 O   0  0  0  0  0  0  0  0  0  0  0  0
  -29.4093  -31.5460   21.6655 O   0  0  0  0  0  0  0  0  0  0  0  0
  -26.9934  -34.7418   22.6864 O   0  0  0  0  0  0  0  0  0  0  0  0
  -23.4910  -31.7376   23.7947 O   0  0  0  0  0  0  0  0  0  0  0  0
  -30.0704  -16.4350   19.6677 O   0  0  0  0  0  0  0  0  0  0  0  0
  -25.4641  -24.0816   19.7916 O   0  0  0  0  0  0  0  0  0  0  0  0
  -21.7270   -8.3884   23.7127 O   0  0  0  0  0  0  0  0  0  0  0  0
  -25.9397  -26.8768   19.7047 O   0  0  0  0  0  0  0  0  0  1  0  0
  -20.5672   -2.9983   23.6342 F   0  0  0  0  0  0  0  0  0  0  0  0
  -22.3159   -6.7792   25.8821 F   0  0  0  0  0  0  0  0  0  0  0  0
  -25.1823  -20.5898   18.4579 F   0  0  0  0  0  0  0  0  0  0  0  0
  -25.7735  -18.0100   18.9711 S   0  0  0  0  0  0  0  0  0  0  0  0
  1  2  1  0  0  0  0
  1  5  2  0  0  0  0
  2  6  2  0  0  0  0
  3  8  2  0  0  0  0
  3 16  1  0  0  0  0
  4  9  1  0  0  0  0
  4 16  2  0  0  0  0
  5 19  1  0  0  0  0
  6 21  1  0  0  0  0
  7 10  2  0  0  0  0
  7 20  1  0  0  0  0
  8 23  1  0  0  0  0
  9 23  2  0  0  0  0
 10 24  1  0  0  0  0
 11 12  2  0  0  0  0
 11 25  1  0  0  0  0
 12 26  1  0  0  0  0
 13 17  1  0  0  0  0
 13 30  2  0  0  0  0
 14 22  1  0  0  0  0
 14 24  2  0  0  0  0
 15 26  2  0  0  0  0
 15 27  1  0  0  0  0
 16 28  1  0  0  0  0
 17 31  2  0  0  0  0
 17 33  1  0  0  0  0
 18 28  1  0  0  0  0
 18 29  2  0  0  0  0
 18 34  1  0  0  0  0
 19 21  2  0  0  0  0
 19 41  1  0  0  0  0
 20 22  2  0  0  0  0
 20 42  1  0  0  0  0
 21 50  1  0  0  0  0
 22 43  1  0  0  0  0
 23 80  1  0  0  0  0
 24 81  1  0  0  0  0
 25 27  2  0  0  0  0
 25 80  1  0  0  0  0
 26 82  1  0  0  0  0
 27 83  1  0  0  0  0
 28 61  2  0  0  0  0
 29 62  1  0  0  0  0
 29 65  1  0  0  0  0
 30 67  1  0  0  0  0
 30 85  1  0  0  0  0
 31 84  1  0  0  0  0
 31 85  1  0  0  0  0
 32 35  2  0  0  0  0
 32 81  1  0  0  0  0
 33 68  1  0  0  0  0
 33 71  2  0  0  0  0
 34 66  1  0  0  0  0
 34 73  2  0  0  0  0
 35 36  1  0  0  0  0
 35 79  1  0  0  0  0
 36 68  1  0  0  0  0
 36 74  2  0  0  0  0
 37 51  1  0  0  0  0
 37 69  1  0  0  0  0
 37 75  2  0  0  0  0
 38 58  1  0  0  0  0
 38 63  1  0  0  0  0
 38 76  2  0  0  0  0
 39 59  1  0  0  0  0
 39 70  1  0  0  0  0
 39 77  2  0  0  0  0
 40 64  1  0  0  0  0
 40 67  1  0  0  0  0
 40 78  2  0  0  0  0
 41 44  1  0  0  0  0
 42 51  1  0  0  0  0
 43 63  1  0  0  0  0
 44 46  1  0  0  0  0
 45 47  1  0  0  0  0
 45 48  1  0  0  0  0
 46 50  1  0  0  0  0
 47 52  1  0  0  0  0
 48 64  1  0  0  0  0
 49 52  1  0  0  0  0
 49 64  1  0  0  0  0
 50 69  1  0  0  0  0
 51 63  1  0  0  0  0
 52 62  1  0  0  0  0
 53 59  1  0  0  0  0
 54 60  1  0  0  0  0
 55 60  1  0  0  0  0
 56 60  1  0  0  0  0
 57 72  1  0  0  0  0
 58 60  1  0  0  0  0
 58 70  1  0  0  0  0
 59 72  1  0  0  0  0
 61 62  1  0  0  0  0
M  CHG  2  71   1  72   1
M  ISO  4  32 101  40 100  67 100  81 101
M  END
> <Batch ID>
0157

> <Smiles>
CNC(C)C(=O)NC(C(=O)N1Cc2cc([101O:1][101CH2:1]C(=O)C(=O)NC(=N)c3cc([100NH:0][100C:0](=O)N4CCCC(n5nc(-c6ccc(Oc7ccc(F)cc7F)cc6)c(C(N)=O)c5N)C4)sc3F)ccc2CC1C(=O)NC1CCCc2ccccc21)C(C)(C)C

> <Shape>
0.231

> <Color>
0.104

> <Negative vol penalty>
0.000

$$$$

  -OEChem-04052303413D

 85 94  0     1  0  0  0  0  0999 V2000
  -27.2971  -20.3163   16.4558 C   0  0  0  0  0  0  0  0  0  0  0  0
  -27.9947  -20.3635   17.6586 C   0  0  0  0  0  0  0  0  0  0  0  0
  -23.7021   -9.6328   20.8808 C   0  0  0  0  0  0  0  0  0  0  0  0
  -24.3168  -10.3627   23.1003 C   0  0  0  0  0  0  0  0  0  0  0  0
  -27.3801  -21.3823   15.5609 C   0  0  0  0  0  0  0  0  0  0  0  0
  -28.7766  -21.4762   17.9666 C   0  0  0  0  0  0  0  0  0  0  0  0
  -32.5589  -17.2292   23.2277 C   0  0  0  0  0  0  0  0  0  0  0  0
  -28.1245  -23.0485   22.7361 C   0  0  0  0  0  0  0  0  0  0  0  0
  -32.0976  -16.1939   22.4147 C   0  0  0  0  0  0  0  0  0  0  0  0
  -23.1708   -8.4586   21.4140 C   0  0  0  0  0  0  0  0  0  0  0  0
  -23.7854   -9.1885   23.6336 C   0  0  0  0  0  0  0  0  0  0  0  0
  -28.7703  -22.3262   23.7385 C   0  0  0  0  0  0  0  0  0  0  0  0
  -20.3428   -7.4997   23.0003 C   0  0  0  0  0  0  0  0  0  0  0  0
  -19.0964   -7.0819   22.5339 C   0  0  0  0  0  0  0  0  0  0  0  0
  -30.5074  -23.9983   23.8160 C   0  0  0  0  0  0  0  0  0  0  0  0
  -31.3028  -16.3300   25.0853 C   0  0  0  0  0  0  0  0  0  0  0  0
  -20.0787   -5.0143   21.7611 C   0  0  0  0  0  0  0  0  0  0  0  0
  -24.2752  -10.5849   21.7239 C   0  0  0  0  0  0  0  0  0  0  0  0
  -24.1517  -13.0156   20.9597 C   0  0  0  0  0  0  0  0  0  0  0  0
  -32.1615  -17.2972   24.5631 C   0  0  0  0  0  0  0  0  0  0  0  0
  -28.1557  -22.5128   15.8625 C   0  0  0  0  0  0  0  0  0  0  0  0
  -28.6719  -24.2476   22.2576 C   0  0  0  0  0  0  0  0  0  0  0  0
  -28.8711  -22.5577   17.0743 C   0  0  0  0  0  0  0  0  0  0  0  0
  -29.8652  -24.7353   22.8092 C   0  0  0  0  0  0  0  0  0  0  0  0
  -31.2388  -15.2267   22.9369 C   0  0  0  0  0  0  0  0  0  0  0  0
  -23.2124   -8.2364   22.7905 C   0  0  0  0  0  0  0  0  0  0  0  0
  -29.9634  -22.7996   24.2766 C   0  0  0  0  0  0  0  0  0  0  0  0
  -21.4572   -6.6749   22.8470 C   0  0  0  0  0  0  0  0  0  0  0  0
  -18.9643   -5.8392   21.9144 C   0  0  0  0  0  0  0  0  0  0  0  0
  -30.8414  -15.2948   24.2723 C   0  0  0  0  0  0  0  0  0  0  0  0
  -21.3251   -5.4322   22.2274 C   0  0  0  0  0  0  0  0  0  0  0  0
  -24.8248  -11.7978   21.1735 C   0  0  0  0  0  0  0  0  0  0  0  0
  -25.1056  -13.8456   20.4234 C   0  0  0  0  0  0  0  0  0  0  0  0
  -22.7862  -13.3653   21.2224 C   0  0  0  0  0  0  0  0  0  0  0  0
  -29.7464  -25.2566   19.4413 C   0  0  0  0  0  0  0  0  0  0  0  0
  -29.9877  -28.0970   20.9893 C   0  0  0  0  0  0  0  0  0  0  0  0
  -30.3064  -29.7655   23.9492 C   0  0  0  0  0  0  0  0  0  0  0  0
  -31.0701  -13.9650   20.7630 C   0  0  0  0  0  0  0  0  0  0  0  0
  -28.2523  -23.6199   14.8428 C   0  0  0  0  0  0  0  0  0  0  0  0
  -27.9491  -25.0286   21.1945 C   0  0  0  0  0  0  0  0  0  0  0  0
  -30.4837  -26.0275   22.3445 C   0  0  0  0  0  0  0  0  0  0  0  0
  -28.8041  -24.9249   15.4110 C   0  0  0  0  0  0  0  0  0  0  0  0
  -34.6798  -19.6005   26.4235 C   0  0  0  0  0  0  0  0  0  0  0  0
  -29.1100  -13.7444   17.7988 C   0  0  0  0  0  0  0  0  0  0  0  0
  -30.0439  -24.6562   16.2581 C   0  0  0  0  0  0  0  0  0  0  0  0
  -34.1928  -18.4566   25.5365 C   0  0  0  0  0  0  0  0  0  0  0  0
  -27.7259  -13.3369   18.3090 C   0  0  0  0  0  0  0  0  0  0  0  0
  -34.1123  -20.9428   25.9700 C   0  0  0  0  0  0  0  0  0  0  0  0
  -30.2281  -13.0790   18.5995 C   0  0  0  0  0  0  0  0  0  0  0  0
  -28.7590  -12.8539   20.5642 C   0  0  0  0  0  0  0  0  0  0  0  0
  -29.7100  -23.7581   17.4553 C   0  0  1  0  0  0  0  0  0  0  0  0
  -32.6610  -18.4210   25.4451 C   0  0  1  0  0  0  0  0  0  0  0  0
  -28.8635  -25.9747   20.4224 C   0  0  1  0  0  0  0  0  0  0  0  0
  -27.6009  -13.5496   19.8304 C   0  0  2  0  0  0  0  0  0  0  0  0
  -32.5873  -20.9106   25.8850 C   0  0  1  0  0  0  0  0  0  0  0  0
  -30.5151  -32.0816   24.8924 C   0  0  0  0  0  0  0  0  0  0  0  0
  -32.8996  -28.2007   20.0837 C   0  0  0  0  0  0  0  0  0  0  0  0
  -33.2969  -29.9808   21.7988 C   0  0  0  0  0  0  0  0  0  0  0  0
  -31.6837  -30.3813   19.9387 C   0  0  0  0  0  0  0  0  0  0  0  0
  -27.8080  -29.4804   25.5099 C   0  0  0  0  0  0  0  0  0  0  0  0
  -32.0181  -22.2015   25.3143 C   0  0  0  0  0  0  0  0  0  1  0  0
  -31.0601  -28.7860   21.7982 C   0  0  1  0  0  0  0  0  0  0  0  0
  -29.5601  -30.9587   24.5183 C   0  0  2  0  0  0  0  0  0  0  0  0
  -32.2247  -29.3118   20.9125 C   0  0  0  0  0  0  0  0  0  0  0  0
  -26.1072  -11.8455   20.8032 N   0  0  0  0  0  0  0  0  0  0  0  0
  -26.2475  -13.1033   20.3512 N   0  0  0  0  0  0  0  0  0  0  0  0
  -29.7425  -26.7517   21.2987 N   0  0  0  0  0  0  0  0  0  0  0  0
  -30.0464  -13.3267   20.0314 N   0  0  0  0  0  0  0  0  0  0  0  0
  -25.0706  -15.1307   20.0113 N   0  0  0  0  0  0  0  0  0  0  0  0
  -21.9419  -12.3928   21.7752 N   0  0  0  0  0  0  0  0  0  0  0  0
  -30.7714  -14.1765   22.1086 N   0  0  0  0  0  0  0  0  0  0  0  0
  -29.0560  -24.5239   18.4947 N   0  0  0  0  0  0  0  0  0  0  0  0
  -30.3848  -29.8209   22.5737 N   0  0  0  0  0  0  0  0  0  0  0  0
  -32.1790  -19.7770   24.9884 N   0  3  0  0  0  0  0  0  0  0  0  0
  -28.8012  -30.5614   25.7378 N   0  3  0  0  0  0  0  0  0  0  0  0
  -22.3242  -14.5014   20.9590 O   0  0  0  0  0  0  0  0  0  0  0  0
  -30.9637  -25.3608   19.5353 O   0  0  0  0  0  0  0  0  0  0  0  0
  -29.3848  -28.7312   20.1199 O   0  0  0  0  0  0  0  0  0  0  0  0
  -30.7762  -28.8754   24.6546 O   0  0  0  0  0  0  0  0  0  0  0  0
  -32.1225  -14.3240   20.2286 O   0  0  0  0  0  0  0  0  0  0  0  0
  -22.6938   -7.0908   23.3112 O   0  0  0  0  0  0  0  0  0  0  0  0
  -30.5962  -22.0962   25.2547 O   0  0  0  0  0  0  0  0  0  1  0  0
  -17.7670   -5.4374   21.4679 F   0  0  0  0  0  0  0  0  0  0  0  0
  -30.0152  -14.3715   24.7845 F   0  0  0  0  0  0  0  0  0  0  0  0
  -22.3918   -4.6349   22.0784 F   0  0  0  0  0  0  0  0  0  0  0  0
  1  2  1  0  0  0  0
  1  5  2  0  0  0  0
  2  6  2  0  0  0  0
  3 10  2  0  0  0  0
  3 18  1  0  0  0  0
  4 11  1  0  0  0  0
  4 18  2  0  0  0  0
  5 21  1  0  0  0  0
  6 23  1  0  0  0  0
  7  9  2  0  0  0  0
  7 20  1  0  0  0  0
  8 12  2  0  0  0  0
  8 22  1  0  0  0  0
  9 25  1  0  0  0  0
 10 26  1  0  0  0  0
 11 26  2  0  0  0  0
 12 27  1  0  0  0  0
 13 14  2  0  0  0  0
 13 28  1  0  0  0  0
 14 29  1  0  0  0  0
 15 24  1  0  0  0  0
 15 27  2  0  0  0  0
 16 20  2  0  0  0  0
 16 30  1  0  0  0  0
 17 29  2  0  0  0  0
 17 31  1  0  0  0  0
 18 32  1  0  0  0  0
 19 32  1  0  0  0  0
 19 33  2  0  0  0  0
 19 34  1  0  0  0  0
 20 52  1  0  0  0  0
 21 23  2  0  0  0  0
 21 39  1  0  0  0  0
 22 24  2  0  0  0  0
 22 40  1  0  0  0  0
 23 51  1  0  0  0  0
 24 41  1  0  0  0  0
 25 30  2  0  0  0  0
 25 71  1  0  0  0  0
 26 81  1  0  0  0  0
 27 82  1  0  0  0  0
 28 31  2  0  0  0  0
 28 81  1  0  0  0  0
 29 83  1  0  0  0  0
 30 84  1  0  0  0  0
 31 85  1  0  0  0  0
 32 65  2  0  0  0  0
 33 66  1  0  0  0  0
 33 69  1  0  0  0  0
 34 70  1  0  0  0  0
 34 76  2  0  0  0  0
 35 53  1  0  0  0  0
 35 72  1  0  0  0  0
 35 77  2  0  0  0  0
 36 62  1  0  0  0  0
 36 67  1  0  0  0  0
 36 78  2  0  0  0  0
 37 63  1  0  0  0  0
 37 73  1  0  0  0  0
 37 79  2  0  0  0  0
 38 68  1  0  0  0  0
 38 71  1  0  0  0  0
 38 80  2  0  0  0  0
 39 42  1  0  0  0  0
 40 53  1  0  0  0  0
 41 67  1  0  0  0  0
 42 45  1  0  0  0  0
 43 46  1  0  0  0  0
 43 48  1  0  0  0  0
 44 47  1  0  0  0  0
 44 49  1  0  0  0  0
 45 51  1  0  0  0  0
 46 52  1  0  0  0  0
 47 54  1  0  0  0  0
 48 55  1  0  0  0  0
 49 68  1  0  0  0  0
 50 54  1  0  0  0  0
 50 68  1  0  0  0  0
 51 72  1  0  0  0  0
 52 74  1  0  0  0  0
 53 67  1  0  0  0  0
 54 66  1  0  0  0  0
 55 61  1  0  0  0  0
 55 74  1  0  0  0  0
 56 63  1  0  0  0  0
 57 64  1  0  0  0  0
 58 64  1  0  0  0  0
 59 64  1  0  0  0  0
 60 75  1  0  0  0  0
 61 82  1  0  0  0  0
 62 64  1  0  0  0  0
 62 73  1  0  0  0  0
 63 75  1  0  0  0  0
 65 66  1  0  0  0  0
M  CHG  2  74   1  75   1
M  ISO  4  38 100  61 101  71 100  82 101
M  END
> <Batch ID>
0157

> <Smiles>
CNC(C)C(=O)NC(C(=O)N1Cc2cc([101O:1][101CH2:1]C3CCCC(c4ccc([100NH:0][100C:0](=O)N5CCCC(n6nc(-c7ccc(Oc8ccc(F)cc8F)cc7)c(C(N)=O)c6N)C5)c(F)c4)N3)ccc2CC1C(=O)NC1CCCc2ccccc21)C(C)(C)C

> <Shape>
0.216

> <Color>
0.156

> <Negative vol penalty>
0.000

$$$$

  -OEChem-04052303413D

 84 93  0     1  0  0  0  0  0999 V2000
  -29.3185  -28.5226   27.0275 C   0  0  0  0  0  0  0  0  0  0  0  0
  -28.9589  -27.9368   25.8180 C   0  0  0  0  0  0  0  0  0  0  0  0
  -26.1656  -12.4705   19.4906 C   0  0  0  0  0  0  0  0  0  0  0  0
  -25.9382  -13.1025   21.8113 C   0  0  0  0  0  0  0  0  0  0  0  0
  -28.3606  -29.1904   27.7893 C   0  0  0  0  0  0  0  0  0  0  0  0
  -27.6408  -28.0175   25.3702 C   0  0  0  0  0  0  0  0  0  0  0  0
  -27.3274  -29.2090   20.4582 C   0  0  0  0  0  0  0  0  0  0  0  0
  -24.9573  -11.7772   19.5610 C   0  0  0  0  0  0  0  0  0  0  0  0
  -24.7299  -12.4093   21.8817 C   0  0  0  0  0  0  0  0  0  0  0  0
  -27.5697  -28.1893   19.5390 C   0  0  0  0  0  0  0  0  0  0  0  0
  -21.6572  -12.5114   19.5041 C   0  0  0  0  0  0  0  0  0  0  0  0
  -20.7485  -12.6849   18.4602 C   0  0  0  0  0  0  0  0  0  0  0  0
  -25.1932  -27.9014   19.2409 C   0  0  0  0  0  0  0  0  0  0  0  0
  -20.8426  -10.3180   17.9848 C   0  0  0  0  0  0  0  0  0  0  0  0
  -28.6868  -21.2638   14.8537 C   0  0  0  0  0  0  0  0  0  0  0  0
  -26.6561  -13.1331   20.6158 C   0  0  0  0  0  0  0  0  0  0  0  0
  -29.1705  -13.3205   20.2283 C   0  0  0  0  0  0  0  0  0  0  0  0
  -27.0322  -29.2876   27.3460 C   0  0  0  0  0  0  0  0  0  0  0  0
  -26.0138  -29.5759   20.7845 C   0  0  0  0  0  0  0  0  0  0  0  0
  -26.6639  -28.6860   26.1274 C   0  0  0  0  0  0  0  0  0  0  0  0
  -24.9369  -28.9279   20.1628 C   0  0  0  0  0  0  0  0  0  0  0  0
  -24.2394  -11.7466   20.7565 C   0  0  0  0  0  0  0  0  0  0  0  0
  -26.5025  -27.5333   18.9323 C   0  0  0  0  0  0  0  0  0  0  0  0
  -22.1587  -11.2411   19.7883 C   0  0  0  0  0  0  0  0  0  0  0  0
  -20.3411  -11.5882   17.7006 C   0  0  0  0  0  0  0  0  0  0  0  0
  -21.7514  -10.1445   19.0287 C   0  0  0  0  0  0  0  0  0  0  0  0
  -27.9045  -13.8490   20.5438 C   0  0  0  0  0  0  0  0  0  0  0  0
  -29.1544  -22.2443   15.7035 C   0  0  0  0  0  0  0  0  0  0  0  0
  -30.0187  -14.3988   20.2937 C   0  0  0  0  0  0  0  0  0  0  0  0
  -28.8856  -20.6368   17.1710 C   0  0  0  0  0  0  0  0  0  0  0  0
  -29.5462  -11.9751   19.9050 C   0  0  0  0  0  0  0  0  0  0  0  0
  -24.2776  -29.5657   23.4471 C   0  0  0  0  0  0  0  0  0  0  0  0
  -28.1057  -25.0944   16.7540 C   0  0  0  0  0  0  0  0  0  0  0  0
  -22.1043  -31.0769   21.5721 C   0  0  0  0  0  0  0  0  0  0  0  0
  -20.9197  -31.6963   18.4321 C   0  0  0  0  0  0  0  0  0  0  0  0
  -29.1996  -20.2821   19.6453 C   0  0  0  0  0  0  0  0  0  0  0  0
  -26.0217  -29.9789   28.2267 C   0  0  0  0  0  0  0  0  0  0  0  0
  -25.7695  -30.6961   21.7581 C   0  0  0  0  0  0  0  0  0  0  0  0
  -23.5082  -29.2979   20.4633 C   0  0  0  0  0  0  0  0  0  0  0  0
  -24.7286  -30.3420   27.5012 C   0  0  0  0  0  0  0  0  0  0  0  0
  -31.6908  -24.2648   16.2171 C   0  0  0  0  0  0  0  0  0  0  0  0
  -30.5461  -18.6206   22.4919 C   0  0  0  0  0  0  0  0  0  0  0  0
  -24.2306  -29.1608   26.6744 C   0  0  0  0  0  0  0  0  0  0  0  0
  -31.0290  -23.7679   14.9350 C   0  0  0  0  0  0  0  0  0  0  0  0
  -30.1419  -17.1593   22.2836 C   0  0  0  0  0  0  0  0  0  0  0  0
  -30.6386  -25.1735   16.8319 C   0  0  0  0  0  0  0  0  0  0  0  0
  -29.4594  -19.5830   22.0156 C   0  0  0  0  0  0  0  0  0  0  0  0
  -28.5971  -17.9075   20.4287 C   0  0  0  0  0  0  0  0  0  0  0  0
  -25.2497  -28.7734   25.5960 C   0  0  1  0  0  0  0  0  0  0  0  0
  -29.5441  -23.6547   15.3003 C   0  0  2  0  0  0  0  0  0  0  0  0
  -24.3870  -30.6384   22.4006 C   0  0  1  0  0  0  0  0  0  0  0  0
  -29.6869  -16.9016   20.8337 C   0  0  2  0  0  0  0  0  0  0  0  0
  -19.1081  -32.9398   17.2199 C   0  0  0  0  0  0  0  0  0  0  0  0
  -20.0835  -28.9532   22.4186 C   0  0  0  0  0  0  0  0  0  0  0  0
  -18.6394  -29.6626   20.5004 C   0  0  0  0  0  0  0  0  0  0  0  0
  -19.1728  -31.2804   22.3226 C   0  0  0  0  0  0  0  0  0  0  0  0
  -22.8818  -33.3440   16.9508 C   0  0  0  0  0  0  0  0  0  0  0  0
  -28.0995  -26.2155   17.7622 C   0  0  0  0  0  0  0  0  0  1  0  0
  -20.9759  -30.6331   20.6728 C   0  0  1  0  0  0  0  0  0  0  0  0
  -20.5374  -32.9905   17.7369 C   0  0  2  0  0  0  0  0  0  0  0  0
  -19.7447  -30.1238   21.4742 C   0  0  0  0  0  0  0  0  0  0  0  0
  -27.9405  -15.1610   20.7914 N   0  0  0  0  0  0  0  0  0  0  0  0
  -29.2687  -21.8867   17.0327 N   0  0  0  0  0  0  0  0  0  0  0  0
  -29.2396  -15.4660   20.6316 N   0  0  0  0  0  0  0  0  0  0  0  0
  -23.3208  -30.3952   21.4268 N   0  0  0  0  0  0  0  0  0  0  0  0
  -29.3594  -24.6484   16.3630 N   0  0  0  0  0  0  0  0  0  0  0  0
  -29.0819  -19.2815   20.6331 N   0  0  0  0  0  0  0  0  0  0  0  0
  -31.3476  -14.5287   20.0947 N   0  0  0  0  0  0  0  0  0  0  0  0
  -29.9224  -11.1175   20.9477 N   0  0  0  0  0  0  0  0  0  0  0  0
  -28.8425  -19.8700   18.3618 N   0  0  0  0  0  0  0  0  0  0  0  0
  -25.1829  -29.6959   24.4829 N   0  0  0  0  0  0  0  0  0  0  0  0
  -20.6903  -31.7592   19.7903 N   0  0  0  0  0  0  0  0  0  0  0  0
  -21.4456  -33.2467   16.5834 N   0  3  0  0  0  0  0  0  0  0  0  0
  -29.5641  -11.5510   18.7246 O   0  0  0  0  0  0  0  0  0  0  0  0
  -23.4333  -28.6860   23.3246 O   0  0  0  0  0  0  0  0  0  0  0  0
  -27.0448  -24.6270   16.3368 O   0  0  0  0  0  0  0  0  0  0  0  0
  -21.9154  -31.9993   22.3691 O   0  0  0  0  0  0  0  0  0  0  0  0
  -21.3727  -30.7254   17.8300 O   0  0  0  0  0  0  0  0  0  0  0  0
  -29.6143  -21.4127   19.9130 O   0  0  0  0  0  0  0  0  0  0  0  0
  -23.0602  -11.0704   20.8255 O   0  0  0  0  0  0  0  0  0  0  0  0
  -26.7363  -26.5372   18.0351 O   0  0  0  0  0  0  0  0  0  1  0  0
  -19.4673  -11.7548   16.6992 F   0  0  0  0  0  0  0  0  0  0  0  0
  -22.2288   -8.9216   19.2978 F   0  0  0  0  0  0  0  0  0  0  0  0
  -28.3761  -19.8313   15.7440 S   0  0  0  0  0  0  0  0  0  0  0  0
  1  2  1  0  0  0  0
  1  5  2  0  0  0  0
  2  6  2  0  0  0  0
  3  8  2  0  0  0  0
  3 16  1  0  0  0  0
  4  9  1  0  0  0  0
  4 16  2  0  0  0  0
  5 18  1  0  0  0  0
  6 20  1  0  0  0  0
  7 10  2  0  0  0  0
  7 19  1  0  0  0  0
  8 22  1  0  0  0  0
  9 22  2  0  0  0  0
 10 23  1  0  0  0  0
 11 12  2  0  0  0  0
 11 24  1  0  0  0  0
 12 25  1  0  0  0  0
 13 21  1  0  0  0  0
 13 23  2  0  0  0  0
 14 25  2  0  0  0  0
 14 26  1  0  0  0  0
 15 28  2  0  0  0  0
 15 84  1  0  0  0  0
 16 27  1  0  0  0  0
 17 27  1  0  0  0  0
 17 29  2  0  0  0  0
 17 31  1  0  0  0  0
 18 20  2  0  0  0  0
 18 37  1  0  0  0  0
 19 21  2  0  0  0  0
 19 38  1  0  0  0  0
 20 49  1  0  0  0  0
 21 39  1  0  0  0  0
 22 80  1  0  0  0  0
 23 81  1  0  0  0  0
 24 26  2  0  0  0  0
 24 80  1  0  0  0  0
 25 82  1  0  0  0  0
 26 83  1  0  0  0  0
 27 62  2  0  0  0  0
 28 50  1  0  0  0  0
 28 63  1  0  0  0  0
 29 64  1  0  0  0  0
 29 68  1  0  0  0  0
 30 63  2  0  0  0  0
 30 70  1  0  0  0  0
 30 84  1  0  0  0  0
 31 69  1  0  0  0  0
 31 74  2  0  0  0  0
 32 51  1  0  0  0  0
 32 71  1  0  0  0  0
 32 75  2  0  0  0  0
 33 58  1  0  0  0  0
 33 66  1  0  0  0  0
 33 76  2  0  0  0  0
 34 59  1  0  0  0  0
 34 65  1  0  0  0  0
 34 77  2  0  0  0  0
 35 60  1  0  0  0  0
 35 72  1  0  0  0  0
 35 78  2  0  0  0  0
 36 67  1  0  0  0  0
 36 70  1  0  0  0  0
 36 79  2  0  0  0  0
 37 40  1  0  0  0  0
 38 51  1  0  0  0  0
 39 65  1  0  0  0  0
 40 43  1  0  0  0  0
 41 44  1  0  0  0  0
 41 46  1  0  0  0  0
 42 45  1  0  0  0  0
 42 47  1  0  0  0  0
 43 49  1  0  0  0  0
 44 50  1  0  0  0  0
 45 52  1  0  0  0  0
 46 66  1  0  0  0  0
 47 67  1  0  0  0  0
 48 52  1  0  0  0  0
 48 67  1  0  0  0  0
 49 71  1  0  0  0  0
 50 66  1  0  0  0  0
 51 65  1  0  0  0  0
 52 64  1  0  0  0  0
 53 60  1  0  0  0  0
 54 61  1  0  0  0  0
 55 61  1  0  0  0  0
 56 61  1  0  0  0  0
 57 73  1  0  0  0  0
 58 81  1  0  0  0  0
 59 61  1  0  0  0  0
 59 72  1  0  0  0  0
 60 73  1  0  0  0  0
 62 64  1  0  0  0  0
M  CHG  1  73   1
M  ISO  4  36 100  58 101  70 100  81 101
M  END
> <Batch ID>
0157

> <Smiles>
CNC(C)C(=O)NC(C(=O)N1Cc2cc([101O:1][101CH2:1]C(=O)N3CCCC3c3csc([100NH:0][100C:0](=O)N4CCCC(n5nc(-c6ccc(Oc7ccc(F)cc7F)cc6)c(C(N)=O)c5N)C4)n3)ccc2CC1C(=O)NC1CCCc2ccccc21)C(C)(C)C

> <Shape>
0.247

> <Color>
0.093

> <Negative vol penalty>
0.000

$$$$

  -OEChem-04052303413D

 90 99  0     1  0  0  0  0  0999 V2000
  -28.5969  -36.9455   21.4756 C   0  0  0  0  0  0  0  0  0  0  0  0
  -28.9464  -35.6057   21.6105 C   0  0  0  0  0  0  0  0  0  0  0  0
  -31.3905  -19.6633   21.0261 C   0  0  0  0  0  0  0  0  0  0  0  0
  -24.3852  -10.7789   23.6116 C   0  0  0  0  0  0  0  0  0  0  0  0
  -23.9022  -13.1214   23.9530 C   0  0  0  0  0  0  0  0  0  0  0  0
  -27.2980  -37.3588   21.7688 C   0  0  0  0  0  0  0  0  0  0  0  0
  -27.9974  -34.6785   22.0398 C   0  0  0  0  0  0  0  0  0  0  0  0
  -30.4102  -20.5796   21.4070 C   0  0  0  0  0  0  0  0  0  0  0  0
  -27.5003  -28.8344   20.2779 C   0  0  0  0  0  0  0  0  0  0  0  0
  -31.0234  -18.3902   20.5898 C   0  0  0  0  0  0  0  0  0  0  0  0
  -23.9336  -10.4978   24.9010 C   0  0  0  0  0  0  0  0  0  0  0  0
  -23.4505  -12.8403   25.2424 C   0  0  0  0  0  0  0  0  0  0  0  0
  -27.9215  -27.6399   20.8607 C   0  0  0  0  0  0  0  0  0  0  0  0
  -22.5708   -9.1129   27.9735 C   0  0  0  0  0  0  0  0  0  0  0  0
  -21.7291   -8.0133   28.1405 C   0  0  0  0  0  0  0  0  0  0  0  0
  -28.6958  -18.9497   20.9155 C   0  0  0  0  0  0  0  0  0  0  0  0
  -25.7304  -27.3454   21.8259 C   0  0  0  0  0  0  0  0  0  0  0  0
  -20.1220   -9.0155   26.6405 C   0  0  0  0  0  0  0  0  0  0  0  0
  -24.3696  -12.0907   23.1376 C   0  0  0  0  0  0  0  0  0  0  0  0
  -24.0746  -12.3972   20.6223 C   0  0  0  0  0  0  0  0  0  0  0  0
  -29.0629  -20.2228   21.3517 C   0  0  0  0  0  0  0  0  0  0  0  0
  -26.3300  -36.4347   22.1926 C   0  0  0  0  0  0  0  0  0  0  0  0
  -26.1921  -29.2996   20.4740 C   0  0  0  0  0  0  0  0  0  0  0  0
  -26.6847  -35.0801   22.3403 C   0  0  0  0  0  0  0  0  0  0  0  0
  -25.2944  -28.5448   21.2424 C   0  0  0  0  0  0  0  0  0  0  0  0
  -29.6761  -18.0334   20.5346 C   0  0  0  0  0  0  0  0  0  0  0  0
  -23.4662  -11.5285   25.7164 C   0  0  0  0  0  0  0  0  0  0  0  0
  -27.0373  -26.8967   21.6372 C   0  0  0  0  0  0  0  0  0  0  0  0
  -22.1881  -10.1639   27.1400 C   0  0  0  0  0  0  0  0  0  0  0  0
  -20.5047   -7.9645   27.4740 C   0  0  0  0  0  0  0  0  0  0  0  0
  -20.9637  -10.1152   26.4735 C   0  0  0  0  0  0  0  0  0  0  0  0
  -24.8366  -12.3817   21.8059 C   0  0  0  0  0  0  0  0  0  0  0  0
  -24.9748  -12.7270   19.6388 C   0  0  0  0  0  0  0  0  0  0  0  0
  -28.1002  -22.5020   21.0069 C   0  0  0  0  0  0  0  0  0  0  0  0
  -28.3125  -23.5425   21.8247 C   0  0  0  0  0  0  0  0  0  0  0  0
  -22.6779  -12.1369   20.4292 C   0  0  0  0  0  0  0  0  0  0  0  0
  -27.9267  -22.5775   19.5615 C   0  0  0  0  0  0  0  0  0  0  0  0
  -24.9066  -31.8864   21.8005 C   0  0  0  0  0  0  0  0  0  0  0  0
  -22.1489  -30.6350   20.6380 C   0  0  0  0  0  0  0  0  0  0  0  0
  -20.4315  -27.8750   19.5989 C   0  0  0  0  0  0  0  0  0  0  0  0
  -30.1505  -15.7129   19.6763 C   0  0  0  0  0  0  0  0  0  0  0  0
  -24.9517  -36.9366   22.5433 C   0  0  0  0  0  0  0  0  0  0  0  0
  -25.7454  -30.5765   19.8165 C   0  0  0  0  0  0  0  0  0  0  0  0
  -23.8733  -28.9903   21.4669 C   0  0  0  0  0  0  0  0  0  0  0  0
  -28.3932  -23.0764   23.2464 C   0  0  0  0  0  0  0  0  0  0  0  0
  -23.9048  -35.8292   22.6328 C   0  0  0  0  0  0  0  0  0  0  0  0
  -29.6247  -12.3772   18.5478 C   0  0  0  0  0  0  0  0  0  0  0  0
  -24.4390  -34.6539   23.4451 C   0  0  0  0  0  0  0  0  0  0  0  0
  -28.2650  -12.0034   19.1425 C   0  0  0  0  0  0  0  0  0  0  0  0
  -30.4392  -13.2511   19.5000 C   0  0  0  0  0  0  0  0  0  0  0  0
  -28.3863  -14.0759   20.5837 C   0  0  0  0  0  0  0  0  0  0  0  0
  -28.0149  -21.2031   21.7592 C   0  0  2  0  0  0  0  0  0  0  0  0
  -25.6767  -34.0403   22.7795 C   0  0  1  0  0  0  0  0  0  0  0  0
  -24.5438  -31.2152   20.5061 C   0  0  1  0  0  0  0  0  0  0  0  0
  -27.5032  -13.2497   19.6344 C   0  0  2  0  0  0  0  0  0  0  0  0
  -18.1836  -27.1606   18.7420 C   0  0  0  0  0  0  0  0  0  0  0  0
  -25.1035  -23.7582   20.1128 C   0  0  0  0  0  0  0  0  0  0  0  0
  -26.0031  -24.2614   17.8257 C   0  0  0  0  0  0  0  0  0  0  0  0
  -24.2956  -22.4663   18.1325 C   0  0  0  0  0  0  0  0  0  0  0  0
  -21.0060  -30.8566   23.4584 C   0  0  0  0  0  0  0  0  0  0  0  0
  -19.1761  -29.2951   22.7645 C   0  0  0  0  0  0  0  0  0  0  0  0
  -19.4209  -31.5065   21.6365 C   0  0  0  0  0  0  0  0  0  0  0  0
  -21.5821  -26.9057   17.0503 C   0  0  0  0  0  0  0  0  0  0  0  0
  -28.4532  -24.9894   21.5206 C   0  0  0  0  0  0  0  0  0  1  0  0
  -26.6173  -22.0678   18.9652 C   0  0  0  0  0  0  0  0  0  0  0  0
  -21.1036  -29.6802   21.1622 C   0  0  1  0  0  0  0  0  0  0  0  0
  -19.5832  -27.6217   18.3658 C   0  0  2  0  0  0  0  0  0  0  0  0
  -25.5254  -23.1442   18.7680 C   0  0  0  0  0  0  0  0  0  0  0  0
  -20.2039  -30.3269   22.2530 C   0  0  0  0  0  0  0  0  0  0  0  0
  -26.1219  -12.6779   21.5956 N   0  0  0  0  0  0  0  0  0  0  0  0
  -26.1746  -12.8826   20.2684 N   0  0  0  0  0  0  0  0  0  0  0  0
  -23.4859  -30.2488   20.8082 N   0  0  0  0  0  0  0  0  0  0  0  0
  -29.6553  -14.4145   19.9205 N   0  0  0  0  0  0  0  0  0  0  0  0
  -24.8492  -12.8962   18.3053 N   0  0  0  0  0  0  0  0  0  0  0  0
  -21.8979  -11.8124   21.5475 N   0  0  0  0  0  0  0  0  0  0  0  0
  -29.3036  -16.7404   20.0907 N   0  0  0  0  0  0  0  0  0  0  0  0
  -25.2887  -33.2071   21.6616 N   0  0  0  0  0  0  0  0  0  0  0  0
  -20.3735  -29.1941   19.9965 N   0  0  0  0  0  0  0  0  0  0  0  0
  -28.1436  -21.5907   23.2249 N   0  3  0  0  0  0  0  0  0  0  0  0
  -20.2099  -26.5729   17.5124 N   0  3  0  0  0  0  0  0  0  0  0  0
  -22.1410  -12.1745   19.2962 O   0  0  0  0  0  0  0  0  0  0  0  0
  -28.8223  -23.0384   18.8421 O   0  0  0  0  0  0  0  0  0  0  0  0
  -24.8430  -31.2535   22.8479 O   0  0  0  0  0  0  0  0  0  0  0  0
  -21.7920  -31.6815   20.0911 O   0  0  0  0  0  0  0  0  0  0  0  0
  -21.0777  -26.9905   20.1561 O   0  0  0  0  0  0  0  0  0  0  0  0
  -31.2329  -15.8997   19.1146 O   0  0  0  0  0  0  0  0  0  0  0  0
  -23.0252  -11.2546   26.9746 O   0  0  0  0  0  0  0  0  0  0  0  0
  -27.4460  -25.7308   22.2078 O   0  0  0  0  0  0  0  0  0  1  0  0
  -19.6973   -6.9078   27.6333 F   0  0  0  0  0  0  0  0  0  0  0  0
  -20.5912  -11.1213   25.6705 F   0  0  0  0  0  0  0  0  0  0  0  0
  1  2  1  0  0  0  0
  1  6  2  0  0  0  0
  2  7  2  0  0  0  0
  3  8  2  0  0  0  0
  3 10  1  0  0  0  0
  4 11  2  0  0  0  0
  4 19  1  0  0  0  0
  5 12  1  0  0  0  0
  5 19  2  0  0  0  0
  6 22  1  0  0  0  0
  7 24  1  0  0  0  0
  8 21  1  0  0  0  0
  9 13  2  0  0  0  0
  9 23  1  0  0  0  0
 10 26  2  0  0  0  0
 11 27  1  0  0  0  0
 12 27  2  0  0  0  0
 13 28  1  0  0  0  0
 14 15  2  0  0  0  0
 14 29  1  0  0  0  0
 15 30  1  0  0  0  0
 16 21  2  0  0  0  0
 16 26  1  0  0  0  0
 17 25  1  0  0  0  0
 17 28  2  0  0  0  0
 18 30  2  0  0  0  0
 18 31  1  0  0  0  0
 19 32  1  0  0  0  0
 20 32  1  0  0  0  0
 20 33  2  0  0  0  0
 20 36  1  0  0  0  0
 21 52  1  0  0  0  0
 22 24  2  0  0  0  0
 22 42  1  0  0  0  0
 23 25  2  0  0  0  0
 23 43  1  0  0  0  0
 24 53  1  0  0  0  0
 25 44  1  0  0  0  0
 26 76  1  0  0  0  0
 27 87  1  0  0  0  0
 28 88  1  0  0  0  0
 29 31  2  0  0  0  0
 29 87  1  0  0  0  0
 30 89  1  0  0  0  0
 31 90  1  0  0  0  0
 32 70  2  0  0  0  0
 33 71  1  0  0  0  0
 33 74  1  0  0  0  0
 34 35  2  0  0  0  0
 34 37  1  0  0  0  0
 34 52  1  0  0  0  0
 35 45  1  0  0  0  0
 35 64  1  0  0  0  0
 36 75  1  0  0  0  0
 36 81  2  0  0  0  0
 37 65  1  0  0  0  0
 37 82  2  0  0  0  0
 38 54  1  0  0  0  0
 38 77  1  0  0  0  0
 38 83  2  0  0  0  0
 39 66  1  0  0  0  0
 39 72  1  0  0  0  0
 39 84  2  0  0  0  0
 40 67  1  0  0  0  0
 40 78  1  0  0  0  0
 40 85  2  0  0  0  0
 41 73  1  0  0  0  0
 41 76  1  0  0  0  0
 41 86  2  0  0  0  0
 42 46  1  0  0  0  0
 43 54  1  0  0  0  0
 44 72  1  0  0  0  0
 45 79  1  0  0  0  0
 46 48  1  0  0  0  0
 47 49  1  0  0  0  0
 47 50  1  0  0  0  0
 48 53  1  0  0  0  0
 49 55  1  0  0  0  0
 50 73  1  0  0  0  0
 51 55  1  0  0  0  0
 51 73  1  0  0  0  0
 52 79  1  0  0  0  0
 53 77  1  0  0  0  0
 54 72  1  0  0  0  0
 55 71  1  0  0  0  0
 56 67  1  0  0  0  0
 57 68  1  0  0  0  0
 58 68  1  0  0  0  0
 59 68  1  0  0  0  0
 60 69  1  0  0  0  0
 61 69  1  0  0  0  0
 62 69  1  0  0  0  0
 63 80  1  0  0  0  0
 64 88  1  0  0  0  0
 65 68  1  0  0  0  0
 66 69  1  0  0  0  0
 66 78  1  0  0  0  0
 67 80  1  0  0  0  0
 70 71  1  0  0  0  0
M  CHG  2  79   1  80   1
M  ISO  4  41 100  64 101  76 100  88 101
M  END
> <Batch ID>
0157

> <Smiles>
CNC(C)C(=O)NC(C(=O)N1Cc2cc([101O:1][101CH2:1]C3=C(C(=O)CC(C)(C)C)C(c4cccc([100NH:0][100C:0](=O)N5CCCC(n6nc(-c7ccc(Oc8ccc(F)cc8F)cc7)c(C(N)=O)c6N)C5)c4)NC3)ccc2CC1C(=O)NC1CCCc2ccccc21)C(C)(C)C

> <Shape>
0.241

> <Color>
0.081

> <Negative vol penalty>
0.000

$$$$

  -OEChem-04052303413D

 84 93  0     1  0  0  0  0  0999 V2000
  -28.0411  -37.3177   18.4896 C   0  0  0  0  0  0  0  0  0  0  0  0
  -28.4805  -36.0069   18.6446 C   0  0  0  0  0  0  0  0  0  0  0  0
  -24.7707   -8.1052   21.2972 C   0  0  0  0  0  0  0  0  0  0  0  0
  -23.5569  -10.1766   21.5670 C   0  0  0  0  0  0  0  0  0  0  0  0
  -27.0270  -37.8132   19.3081 C   0  0  0  0  0  0  0  0  0  0  0  0
  -27.9068  -35.1910   19.6191 C   0  0  0  0  0  0  0  0  0  0  0  0
  -26.9202  -29.1578   19.2550 C   0  0  0  0  0  0  0  0  0  0  0  0
  -24.0402   -7.5409   22.3428 C   0  0  0  0  0  0  0  0  0  0  0  0
  -22.8263   -9.6123   22.6127 C   0  0  0  0  0  0  0  0  0  0  0  0
  -27.6315  -28.0602   19.7379 C   0  0  0  0  0  0  0  0  0  0  0  0
  -20.9679   -6.2039   22.7976 C   0  0  0  0  0  0  0  0  0  0  0  0
  -20.4646   -4.9159   22.6155 C   0  0  0  0  0  0  0  0  0  0  0  0
  -26.1995  -27.9934   21.6780 C   0  0  0  0  0  0  0  0  0  0  0  0
  -29.3856  -17.9759   19.8779 C   0  0  0  0  0  0  0  0  0  0  0  0
  -21.7381   -4.1490   24.5200 C   0  0  0  0  0  0  0  0  0  0  0  0
  -24.5292   -9.4231   20.9093 C   0  0  0  0  0  0  0  0  0  0  0  0
  -24.9576   -9.9942   18.4602 C   0  0  0  0  0  0  0  0  0  0  0  0
  -26.4338  -37.0000   20.2867 C   0  0  0  0  0  0  0  0  0  0  0  0
  -25.8483  -29.6891   19.9865 C   0  0  0  0  0  0  0  0  0  0  0  0
  -26.8847  -35.6765   20.4524 C   0  0  0  0  0  0  0  0  0  0  0  0
  -25.4746  -29.0962   21.2010 C   0  0  0  0  0  0  0  0  0  0  0  0
  -28.7796  -19.2633   19.9689 C   0  0  0  0  0  0  0  0  0  0  0  0
  -23.0680   -8.2944   23.0006 C   0  0  0  0  0  0  0  0  0  0  0  0
  -27.2730  -27.4797   20.9509 C   0  0  0  0  0  0  0  0  0  0  0  0
  -21.8565   -6.4645   23.8409 C   0  0  0  0  0  0  0  0  0  0  0  0
  -20.8496   -3.8884   23.4767 C   0  0  0  0  0  0  0  0  0  0  0  0
  -22.2415   -5.4370   24.7020 C   0  0  0  0  0  0  0  0  0  0  0  0
  -25.2839  -10.0068   19.8296 C   0  0  0  0  0  0  0  0  0  0  0  0
  -27.4115  -19.1671   20.1265 C   0  0  0  0  0  0  0  0  0  0  0  0
  -25.9854  -10.6761   17.8560 C   0  0  0  0  0  0  0  0  0  0  0  0
  -28.4591  -16.9596   19.9756 C   0  0  0  0  0  0  0  0  0  0  0  0
  -23.8265   -9.4177   17.7939 C   0  0  0  0  0  0  0  0  0  0  0  0
  -25.2342  -32.4945   21.3490 C   0  0  0  0  0  0  0  0  0  0  0  0
  -28.6088  -24.1171   20.9902 C   0  0  0  0  0  0  0  0  0  0  0  0
  -22.3268  -31.1588   21.8829 C   0  0  0  0  0  0  0  0  0  0  0  0
  -20.4654  -28.3224   22.2529 C   0  0  0  0  0  0  0  0  0  0  0  0
  -29.8103  -14.8420   19.7850 C   0  0  0  0  0  0  0  0  0  0  0  0
  -25.3736  -37.5945   21.1795 C   0  0  0  0  0  0  0  0  0  0  0  0
  -25.0743  -30.8568   19.4389 C   0  0  0  0  0  0  0  0  0  0  0  0
  -24.3188  -29.6161   22.0147 C   0  0  0  0  0  0  0  0  0  0  0  0
  -29.4644  -20.5853   19.8897 C   0  0  0  0  0  0  0  0  0  0  0  0
  -26.4921  -20.3374   20.2750 C   0  0  0  0  0  0  0  0  0  0  0  0
  -24.5591  -36.5491   21.9372 C   0  0  0  0  0  0  0  0  0  0  0  0
  -30.6391  -11.6743   18.3863 C   0  0  0  0  0  0  0  0  0  0  0  0
  -25.4793  -35.5038   22.5597 C   0  0  0  0  0  0  0  0  0  0  0  0
  -29.3286  -10.8881   18.4675 C   0  0  0  0  0  0  0  0  0  0  0  0
  -30.8308  -12.5839   19.5986 C   0  0  0  0  0  0  0  0  0  0  0  0
  -28.3970  -12.7004   19.9625 C   0  0  0  0  0  0  0  0  0  0  0  0
  -27.1604  -21.6204   19.7648 C   0  0  0  0  0  0  0  0  0  0  0  0
  -26.2700  -34.7529   21.4816 C   0  0  1  0  0  0  0  0  0  0  0  0
  -24.3254  -31.6352   20.5162 C   0  0  1  0  0  0  0  0  0  0  0  0
  -28.1286  -11.8186   18.7320 C   0  0  2  0  0  0  0  0  0  0  0  0
  -18.1237  -27.5497   22.7185 C   0  0  0  0  0  0  0  0  0  0  0  0
  -22.6816  -31.8671   24.8295 C   0  0  0  0  0  0  0  0  0  0  0  0
  -20.8274  -30.2721   25.3643 C   0  0  0  0  0  0  0  0  0  0  0  0
  -20.3819  -32.2643   23.9307 C   0  0  0  0  0  0  0  0  0  0  0  0
  -20.2872  -26.9200   19.6528 C   0  0  0  0  0  0  0  0  0  0  0  0
  -29.1841  -23.0714   20.0718 C   0  0  0  0  0  0  0  0  0  0  0  0
  -28.5515  -25.5353   20.4601 C   0  0  0  0  0  0  0  0  0  1  0  0
  -21.7163  -30.3339   22.9901 C   0  0  1  0  0  0  0  0  0  0  0  0
  -19.1406  -27.9004   21.6435 C   0  0  2  0  0  0  0  0  0  0  0  0
  -21.4248  -31.1755   24.2645 C   0  0  0  0  0  0  0  0  0  0  0  0
  -26.4295  -10.6459   20.0808 N   0  0  0  0  0  0  0  0  0  0  0  0
  -26.8321  -11.0412   18.8611 N   0  0  0  0  0  0  0  0  0  0  0  0
  -23.5970  -30.7635   21.4402 N   0  0  0  0  0  0  0  0  0  0  0  0
  -29.6568  -13.4394   19.7847 N   0  0  0  0  0  0  0  0  0  0  0  0
  -26.2385  -10.9930   16.5684 N   0  0  0  0  0  0  0  0  0  0  0  0
  -22.8641   -8.7524   18.5656 N   0  0  0  0  0  0  0  0  0  0  0  0
  -28.6200  -15.5523   19.9374 N   0  0  0  0  0  0  0  0  0  0  0  0
  -25.4330  -33.7630   20.8383 N   0  0  0  0  0  0  0  0  0  0  0  0
  -20.5394  -29.6894   22.4176 N   0  0  0  0  0  0  0  0  0  0  0  0
  -28.5628  -21.7316   20.3452 N   0  3  2  0  0  0  0  0  0  0  0  0
  -19.3292  -26.7089   20.7684 N   0  3  0  0  0  0  0  0  0  0  0  0
  -23.6821   -9.4762   16.5493 O   0  0  0  0  0  0  0  0  0  0  0  0
  -25.7180  -32.0408   22.3794 O   0  0  0  0  0  0  0  0  0  0  0  0
  -28.2270  -23.8250   22.1233 O   0  0  0  0  0  0  0  0  0  0  0  0
  -21.6966  -32.1142   21.4228 O   0  0  0  0  0  0  0  0  0  0  0  0
  -21.3450  -27.5194   22.5561 O   0  0  0  0  0  0  0  0  0  0  0  0
  -30.9128  -15.3742   19.6320 O   0  0  0  0  0  0  0  0  0  0  0  0
  -22.3547   -7.7440   24.0208 O   0  0  0  0  0  0  0  0  0  0  0  0
  -27.9660  -26.4087   21.4249 O   0  0  0  0  0  0  0  0  0  1  0  0
  -20.3650   -2.6519   23.3026 F   0  0  0  0  0  0  0  0  0  0  0  0
  -23.0939   -5.6815   25.7068 F   0  0  0  0  0  0  0  0  0  0  0  0
  -26.8656  -17.5572   20.1752 S   0  0  0  0  0  0  0  0  0  0  0  0
  1  2  1  0  0  0  0
  1  5  2  0  0  0  0
  2  6  2  0  0  0  0
  3  8  2  0  0  0  0
  3 16  1  0  0  0  0
  4  9  1  0  0  0  0
  4 16  2  0  0  0  0
  5 18  1  0  0  0  0
  6 20  1  0  0  0  0
  7 10  2  0  0  0  0
  7 19  1  0  0  0  0
  8 23  1  0  0  0  0
  9 23  2  0  0  0  0
 10 24  1  0  0  0  0
 11 12  2  0  0  0  0
 11 25  1  0  0  0  0
 12 26  1  0  0  0  0
 13 21  1  0  0  0  0
 13 24  2  0  0  0  0
 14 22  1  0  0  0  0
 14 31  2  0  0  0  0
 15 26  2  0  0  0  0
 15 27  1  0  0  0  0
 16 28  1  0  0  0  0
 17 28  1  0  0  0  0
 17 30  2  0  0  0  0
 17 32  1  0  0  0  0
 18 20  2  0  0  0  0
 18 38  1  0  0  0  0
 19 21  2  0  0  0  0
 19 39  1  0  0  0  0
 20 50  1  0  0  0  0
 21 40  1  0  0  0  0
 22 29  2  0  0  0  0
 22 41  1  0  0  0  0
 23 80  1  0  0  0  0
 24 81  1  0  0  0  0
 25 27  2  0  0  0  0
 25 80  1  0  0  0  0
 26 82  1  0  0  0  0
 27 83  1  0  0  0  0
 28 63  2  0  0  0  0
 29 42  1  0  0  0  0
 29 84  1  0  0  0  0
 30 64  1  0  0  0  0
 30 67  1  0  0  0  0
 31 69  1  0  0  0  0
 31 84  1  0  0  0  0
 32 68  1  0  0  0  0
 32 74  2  0  0  0  0
 33 51  1  0  0  0  0
 33 70  1  0  0  0  0
 33 75  2  0  0  0  0
 34 58  1  0  0  0  0
 34 59  1  0  0  0  0
 34 76  2  0  0  0  0
 35 60  1  0  0  0  0
 35 65  1  0  0  0  0
 35 77  2  0  0  0  0
 36 61  1  0  0  0  0
 36 71  1  0  0  0  0
 36 78  2  0  0  0  0
 37 66  1  0  0  0  0
 37 69  1  0  0  0  0
 37 79  2  0  0  0  0
 38 43  1  0  0  0  0
 39 51  1  0  0  0  0
 40 65  1  0  0  0  0
 41 72  1  0  0  0  0
 42 49  1  0  0  0  0
 43 45  1  0  0  0  0
 44 46  1  0  0  0  0
 44 47  1  0  0  0  0
 45 50  1  0  0  0  0
 46 52  1  0  0  0  0
 47 66  1  0  0  0  0
 48 52  1  0  0  0  0
 48 66  1  0  0  0  0
 49 72  1  0  0  0  0
 50 70  1  0  0  0  0
 51 65  1  0  0  0  0
 52 64  1  0  0  0  0
 53 61  1  0  0  0  0
 54 62  1  0  0  0  0
 55 62  1  0  0  0  0
 56 62  1  0  0  0  0
 57 73  1  0  0  0  0
 58 72  1  0  0  0  0
 59 81  1  0  0  0  0
 60 62  1  0  0  0  0
 60 71  1  0  0  0  0
 61 73  1  0  0  0  0
 63 64  1  0  0  0  0
M  CHG  2  72   1  73   1
M  ISO  4  37 100  59 101  69 100  81 101
M  END
> <Batch ID>
0157

> <Smiles>
CNC(C)C(=O)NC(C(=O)N1Cc2cc([101O:1][101CH2:1]C(=O)CN3CCc4sc([100NH:0][100C:0](=O)N5CCCC(n6nc(-c7ccc(Oc8ccc(F)cc8F)cc7)c(C(N)=O)c6N)C5)cc4C3)ccc2CC1C(=O)NC1CCCc2ccccc21)C(C)(C)C

> <Shape>
0.299

> <Color>
0.079

> <Negative vol penalty>
0.000

$$$$

  -OEChem-04052303413D

 88 97  0     1  0  0  0  0  0999 V2000
  -27.8682  -36.1509   17.1282 C   0  0  0  0  0  0  0  0  0  0  0  0
  -27.9085  -34.7636   17.0330 C   0  0  0  0  0  0  0  0  0  0  0  0
  -23.8739   -9.0302   19.5145 C   0  0  0  0  0  0  0  0  0  0  0  0
  -24.6202   -9.1913   21.8067 C   0  0  0  0  0  0  0  0  0  0  0  0
  -27.7800  -36.7605   18.3790 C   0  0  0  0  0  0  0  0  0  0  0  0
  -27.8618  -33.9849   18.1889 C   0  0  0  0  0  0  0  0  0  0  0  0
  -25.1845  -28.5153   18.8377 C   0  0  0  0  0  0  0  0  0  0  0  0
  -22.6848   -8.4405   19.9430 C   0  0  0  0  0  0  0  0  0  0  0  0
  -23.4309   -8.6016   22.2353 C   0  0  0  0  0  0  0  0  0  0  0  0
  -25.6879  -27.2155   18.8112 C   0  0  0  0  0  0  0  0  0  0  0  0
  -22.1138   -5.4927   22.4112 C   0  0  0  0  0  0  0  0  0  0  0  0
  -22.1993   -4.4864   23.3733 C   0  0  0  0  0  0  0  0  0  0  0  0
  -26.3749  -18.5882   18.5017 C   0  0  0  0  0  0  0  0  0  0  0  0
  -25.8310  -27.2283   21.2192 C   0  0  0  0  0  0  0  0  0  0  0  0
  -25.4799  -17.0062   16.9101 C   0  0  0  0  0  0  0  0  0  0  0  0
  -20.8321   -5.8011   24.8699 C   0  0  0  0  0  0  0  0  0  0  0  0
  -24.8417   -9.4055   20.4463 C   0  0  0  0  0  0  0  0  0  0  0  0
  -27.0320   -9.4575   19.1396 C   0  0  0  0  0  0  0  0  0  0  0  0
  -27.7225  -35.9887   19.5502 C   0  0  0  0  0  0  0  0  0  0  0  0
  -25.0104  -29.1865   20.0565 C   0  0  0  0  0  0  0  0  0  0  0  0
  -27.7742  -34.5848   19.4567 C   0  0  0  0  0  0  0  0  0  0  0  0
  -25.6255  -19.6059   17.9115 C   0  0  0  0  0  0  0  0  0  0  0  0
  -25.3227  -28.5357   21.2586 C   0  0  0  0  0  0  0  0  0  0  0  0
  -26.3022  -17.2883   18.0010 C   0  0  0  0  0  0  0  0  0  0  0  0
  -24.8033  -19.3238   16.8207 C   0  0  0  0  0  0  0  0  0  0  0  0
  -22.4632   -8.2262   21.3034 C   0  0  0  0  0  0  0  0  0  0  0  0
  -26.0140  -26.5728   20.0019 C   0  0  0  0  0  0  0  0  0  0  0  0
  -21.3875   -6.6533   22.6785 C   0  0  0  0  0  0  0  0  0  0  0  0
  -21.5585   -4.6406   24.6026 C   0  0  0  0  0  0  0  0  0  0  0  0
  -24.7305  -18.0239   16.3200 C   0  0  0  0  0  0  0  0  0  0  0  0
  -20.7466   -6.8074   23.9078 C   0  0  0  0  0  0  0  0  0  0  0  0
  -26.0706  -10.0142   20.0042 C   0  0  0  0  0  0  0  0  0  0  0  0
  -28.0013  -10.4250   19.0354 C   0  0  0  0  0  0  0  0  0  0  0  0
  -27.0474   -8.1801   18.4887 C   0  0  0  0  0  0  0  0  0  0  0  0
  -26.2150  -31.8254   21.3561 C   0  0  0  0  0  0  0  0  0  0  0  0
  -24.0444  -31.2019   23.6846 C   0  0  0  0  0  0  0  0  0  0  0  0
  -22.8364  -28.2957   25.4487 C   0  0  0  0  0  0  0  0  0  0  0  0
  -27.9279  -16.3641   19.6889 C   0  0  0  0  0  0  0  0  0  0  0  0
  -27.6753  -36.6938   20.8826 C   0  0  0  0  0  0  0  0  0  0  0  0
  -24.4411  -30.5787   20.0697 C   0  0  0  0  0  0  0  0  0  0  0  0
  -25.1353  -29.2051   22.5948 C   0  0  0  0  0  0  0  0  0  0  0  0
  -27.2526  -35.7880   22.0364 C   0  0  0  0  0  0  0  0  0  0  0  0
  -29.9529  -14.0493   21.4828 C   0  0  0  0  0  0  0  0  0  0  0  0
  -27.1254  -21.3036   19.0393 C   0  0  0  0  0  0  0  0  0  0  0  0
  -24.6396  -21.2805   19.5327 C   0  0  0  0  0  0  0  0  0  0  0  0
  -28.0102  -34.4652   21.9817 C   0  0  0  0  0  0  0  0  0  0  0  0
  -29.2782  -12.7004   21.2236 C   0  0  0  0  0  0  0  0  0  0  0  0
  -27.2204  -22.7274   19.5947 C   0  0  0  0  0  0  0  0  0  0  0  0
  -24.7375  -22.7051   20.0843 C   0  0  0  0  0  0  0  0  0  0  0  0
  -28.9315  -15.1760   21.6270 C   0  0  0  0  0  0  0  0  0  0  0  0
  -27.2949  -13.9383   20.2636 C   0  0  0  0  0  0  0  0  0  0  0  0
  -25.7245  -21.0112   18.4768 C   0  0  0  0  0  0  0  0  0  0  0  0
  -27.7008  -33.7054   20.6861 C   0  0  1  0  0  0  0  0  0  0  0  0
  -24.7884  -31.3543   21.3367 C   0  0  1  0  0  0  0  0  0  0  0  0
  -28.2863  -12.7834   20.0467 C   0  0  2  0  0  0  0  0  0  0  0  0
  -26.1350  -23.0193   20.6416 C   0  0  0  0  0  0  0  0  0  0  0  0
  -20.6243  -27.8582   26.5499 C   0  0  0  0  0  0  0  0  0  0  0  0
  -25.4351  -32.1917   26.2137 C   0  0  0  0  0  0  0  0  0  0  0  0
  -24.1984  -30.4340   27.4979 C   0  0  0  0  0  0  0  0  0  0  0  0
  -22.9365  -32.2307   26.3138 C   0  0  0  0  0  0  0  0  0  0  0  0
  -22.4071  -25.8294   23.8701 C   0  0  0  0  0  0  0  0  0  0  0  0
  -25.4147  -22.4013   22.7916 C   0  0  0  0  0  0  0  0  0  0  0  0
  -26.2178  -24.4752   21.1038 C   0  0  0  0  0  0  0  0  0  1  0  0
  -24.0509  -30.4045   24.9664 C   0  0  1  0  0  0  0  0  0  0  0  0
  -21.4713  -27.6475   25.3045 C   0  0  2  0  0  0  0  0  0  0  0  0
  -24.1718  -31.3081   26.2259 C   0  0  0  0  0  0  0  0  0  0  0  0
  -26.3993  -11.2402   20.4199 N   0  0  0  0  0  0  0  0  0  0  0  0
  -27.5782  -11.4618   19.8140 N   0  0  0  0  0  0  0  0  0  0  0  0
  -24.5816  -30.5686   22.5549 N   0  0  0  0  0  0  0  0  0  0  0  0
  -28.0286  -15.1961   20.4741 N   0  0  0  0  0  0  0  0  0  0  0  0
  -24.0386  -20.3433   16.2124 N   0  0  0  0  0  0  0  0  0  0  0  0
  -29.1658  -10.4814   18.3549 N   0  0  0  0  0  0  0  0  0  0  0  0
  -27.6432   -7.0991   19.1527 N   0  0  0  0  0  0  0  0  0  0  0  0
  -27.0632  -16.2543   18.6004 N   0  0  0  0  0  0  0  0  0  0  0  0
  -26.4066  -33.0636   20.7733 N   0  0  0  0  0  0  0  0  0  0  0  0
  -22.8500  -29.5765   24.9381 N   0  0  0  0  0  0  0  0  0  0  0  0
  -21.6154  -26.1818   25.0767 N   0  3  0  0  0  0  0  0  0  0  0  0
  -26.5623   -8.0062   17.3451 O   0  0  0  0  0  0  0  0  0  0  0  0
  -27.0779  -31.1186   21.8636 O   0  0  0  0  0  0  0  0  0  0  0  0
  -23.5734  -32.3420   23.6840 O   0  0  0  0  0  0  0  0  0  0  0  0
  -23.7937  -27.7246   25.9661 O   0  0  0  0  0  0  0  0  0  0  0  0
  -28.5828  -17.3774   19.9461 O   0  0  0  0  0  0  0  0  0  0  0  0
  -21.3028   -7.6510   21.7220 O   0  0  0  0  0  0  0  0  0  0  0  0
  -26.5062  -25.3043   19.9788 O   0  0  0  0  0  0  0  0  0  1  0  0
  -26.3823  -22.1860   21.7780 O   0  0  0  0  0  0  0  0  0  0  0  0
  -21.6395   -3.6735   25.5258 F   0  0  0  0  0  0  0  0  0  0  0  0
  -23.9434  -17.7405   15.2723 F   0  0  0  0  0  0  0  0  0  0  0  0
  -20.0464   -7.9195   24.1698 F   0  0  0  0  0  0  0  0  0  0  0  0
  1  2  1  0  0  0  0
  1  5  2  0  0  0  0
  2  6  2  0  0  0  0
  3  8  2  0  0  0  0
  3 17  1  0  0  0  0
  4  9  1  0  0  0  0
  4 17  2  0  0  0  0
  5 19  1  0  0  0  0
  6 21  1  0  0  0  0
  7 10  2  0  0  0  0
  7 20  1  0  0  0  0
  8 26  1  0  0  0  0
  9 26  2  0  0  0  0
 10 27  1  0  0  0  0
 11 12  2  0  0  0  0
 11 28  1  0  0  0  0
 12 29  1  0  0  0  0
 13 22  1  0  0  0  0
 13 24  2  0  0  0  0
 14 23  1  0  0  0  0
 14 27  2  0  0  0  0
 15 24  1  0  0  0  0
 15 30  2  0  0  0  0
 16 29  2  0  0  0  0
 16 31  1  0  0  0  0
 17 32  1  0  0  0  0
 18 32  1  0  0  0  0
 18 33  2  0  0  0  0
 18 34  1  0  0  0  0
 19 21  2  0  0  0  0
 19 39  1  0  0  0  0
 20 23  2  0  0  0  0
 20 40  1  0  0  0  0
 21 53  1  0  0  0  0
 22 25  2  0  0  0  0
 22 52  1  0  0  0  0
 23 41  1  0  0  0  0
 24 74  1  0  0  0  0
 25 30  1  0  0  0  0
 25 71  1  0  0  0  0
 26 83  1  0  0  0  0
 27 84  1  0  0  0  0
 28 31  2  0  0  0  0
 28 83  1  0  0  0  0
 29 86  1  0  0  0  0
 30 87  1  0  0  0  0
 31 88  1  0  0  0  0
 32 67  2  0  0  0  0
 33 68  1  0  0  0  0
 33 72  1  0  0  0  0
 34 73  1  0  0  0  0
 34 78  2  0  0  0  0
 35 54  1  0  0  0  0
 35 75  1  0  0  0  0
 35 79  2  0  0  0  0
 36 64  1  0  0  0  0
 36 69  1  0  0  0  0
 36 80  2  0  0  0  0
 37 65  1  0  0  0  0
 37 76  1  0  0  0  0
 37 81  2  0  0  0  0
 38 70  1  0  0  0  0
 38 74  1  0  0  0  0
 38 82  2  0  0  0  0
 39 42  1  0  0  0  0
 40 54  1  0  0  0  0
 41 69  1  0  0  0  0
 42 46  1  0  0  0  0
 43 47  1  0  0  0  0
 43 50  1  0  0  0  0
 44 48  1  0  0  0  0
 44 52  1  0  0  0  0
 45 49  1  0  0  0  0
 45 52  1  0  0  0  0
 46 53  1  0  0  0  0
 47 55  1  0  0  0  0
 48 56  1  0  0  0  0
 49 56  1  0  0  0  0
 50 70  1  0  0  0  0
 51 55  1  0  0  0  0
 51 70  1  0  0  0  0
 53 75  1  0  0  0  0
 54 69  1  0  0  0  0
 55 68  1  0  0  0  0
 56 63  1  0  0  0  0
 56 85  1  0  0  0  0
 57 65  1  0  0  0  0
 58 66  1  0  0  0  0
 59 66  1  0  0  0  0
 60 66  1  0  0  0  0
 61 77  1  0  0  0  0
 62 85  1  0  0  0  0
 63 84  1  0  0  0  0
 64 66  1  0  0  0  0
 64 76  1  0  0  0  0
 65 77  1  0  0  0  0
 67 68  1  0  0  0  0
M  CHG  1  77   1
M  ISO  4  38 100  63 101  74 100  84 101
M  END
> <Batch ID>
0157

> <Smiles>
CNC(C)C(=O)NC(C(=O)N1Cc2cc([101O:1][101CH2:1]C3(OC)CCC(c4cc([100NH:0][100C:0](=O)N5CCCC(n6nc(-c7ccc(Oc8ccc(F)cc8F)cc7)c(C(N)=O)c6N)C5)cc(F)c4N)CC3)ccc2CC1C(=O)NC1CCCc2ccccc21)C(C)(C)C

> <Shape>
0.213

> <Color>
0.095

> <Negative vol penalty>
0.000

$$$$

  -OEChem-04052303413D

 86 95  0     1  0  0  0  0  0999 V2000
  -13.0074  -24.5286   24.1310 C   0  0  0  0  0  0  0  0  0  0  0  0
  -14.1815  -24.0261   23.5793 C   0  0  0  0  0  0  0  0  0  0  0  0
  -22.9252  -10.0797   19.9419 C   0  0  0  0  0  0  0  0  0  0  0  0
  -24.0353   -9.7248   22.0582 C   0  0  0  0  0  0  0  0  0  0  0  0
  -12.5440  -25.7880   23.7527 C   0  0  0  0  0  0  0  0  0  0  0  0
  -14.8924  -24.7824   22.6480 C   0  0  0  0  0  0  0  0  0  0  0  0
  -27.3310  -18.5098   21.9173 C   0  0  0  0  0  0  0  0  0  0  0  0
  -19.8763  -24.7844   23.5452 C   0  0  0  0  0  0  0  0  0  0  0  0
  -26.1956  -19.3179   21.9759 C   0  0  0  0  0  0  0  0  0  0  0  0
  -22.2161   -8.8910   20.1145 C   0  0  0  0  0  0  0  0  0  0  0  0
  -23.3262   -8.5361   22.2308 C   0  0  0  0  0  0  0  0  0  0  0  0
  -20.5928  -23.6517   23.1615 C   0  0  0  0  0  0  0  0  0  0  0  0
  -19.8483   -6.1331   20.1678 C   0  0  0  0  0  0  0  0  0  0  0  0
  -18.4818   -6.1468   19.8888 C   0  0  0  0  0  0  0  0  0  0  0  0
  -26.9171  -17.7644   24.1779 C   0  0  0  0  0  0  0  0  0  0  0  0
  -21.3254  -24.7974   21.1690 C   0  0  0  0  0  0  0  0  0  0  0  0
  -18.1536   -7.8415   21.5792 C   0  0  0  0  0  0  0  0  0  0  0  0
  -23.8348  -10.4966   20.9137 C   0  0  0  0  0  0  0  0  0  0  0  0
  -24.1835  -13.0123   21.1537 C   0  0  0  0  0  0  0  0  0  0  0  0
  -27.6917  -17.7330   23.0183 C   0  0  0  0  0  0  0  0  0  0  0  0
  -13.2547  -26.5642   22.8236 C   0  0  0  0  0  0  0  0  0  0  0  0
  -19.8701  -25.9303   22.7369 C   0  0  0  0  0  0  0  0  0  0  0  0
  -14.4373  -26.0528   22.2560 C   0  0  0  0  0  0  0  0  0  0  0  0
  -20.6101  -25.9442   21.5460 C   0  0  0  0  0  0  0  0  0  0  0  0
  -25.7817  -18.5726   24.2365 C   0  0  0  0  0  0  0  0  0  0  0  0
  -25.4210  -19.3493   23.1355 C   0  0  0  0  0  0  0  0  0  0  0  0
  -22.4166   -8.1192   21.2589 C   0  0  0  0  0  0  0  0  0  0  0  0
  -21.3151  -23.6570   21.9718 C   0  0  0  0  0  0  0  0  0  0  0  0
  -20.3676   -6.9736   21.1525 C   0  0  0  0  0  0  0  0  0  0  0  0
  -17.6344   -7.0010   20.5944 C   0  0  0  0  0  0  0  0  0  0  0  0
  -19.5203   -7.8277   21.8582 C   0  0  0  0  0  0  0  0  0  0  0  0
  -24.5680  -11.7242   20.7357 C   0  0  0  0  0  0  0  0  0  0  0  0
  -25.2139  -13.8260   20.7505 C   0  0  0  0  0  0  0  0  0  0  0  0
  -23.0006  -13.4354   21.8446 C   0  0  0  0  0  0  0  0  0  0  0  0
  -17.6324  -27.5653   21.1803 C   0  0  0  0  0  0  0  0  0  0  0  0
  -20.0811  -29.6132   20.6038 C   0  0  0  0  0  0  0  0  0  0  0  0
  -23.7877  -21.0006   22.1661 C   0  0  0  0  0  0  0  0  0  0  0  0
  -23.4478  -30.0989   20.3278 C   0  0  0  0  0  0  0  0  0  0  0  0
  -30.7641  -14.6525   20.5368 C   0  0  0  0  0  0  0  0  0  0  0  0
  -12.6894  -27.8999   22.4102 C   0  0  0  0  0  0  0  0  0  0  0  0
  -19.1139  -27.1534   23.1782 C   0  0  0  0  0  0  0  0  0  0  0  0
  -20.6524  -27.1562   20.6528 C   0  0  0  0  0  0  0  0  0  0  0  0
  -13.7003  -28.7952   21.6983 C   0  0  0  0  0  0  0  0  0  0  0  0
  -29.1641  -12.9222   17.7187 C   0  0  0  0  0  0  0  0  0  0  0  0
  -14.4560  -28.0059   20.6340 C   0  0  0  0  0  0  0  0  0  0  0  0
  -27.8096  -12.5201   18.3080 C   0  0  0  0  0  0  0  0  0  0  0  0
  -30.2587  -17.5582   22.6604 C   0  0  0  0  0  0  0  0  0  0  0  0
  -30.2575  -12.9870   18.7834 C   0  0  0  0  0  0  0  0  0  0  0  0
  -31.1681  -16.4157   22.2373 C   0  0  0  0  0  0  0  0  0  0  0  0
  -28.8870  -15.7816   21.8579 C   0  0  0  0  0  0  0  0  0  0  0  0
  -28.5802  -13.3978   20.5399 C   0  0  0  0  0  0  0  0  0  0  0  0
  -28.9248  -16.8582   22.9555 C   0  0  2  0  0  0  0  0  0  0  0  0
  -15.2496  -26.8535   21.2613 C   0  0  1  0  0  0  0  0  0  0  0  0
  -18.7612  -28.0865   22.0240 C   0  0  1  0  0  0  0  0  0  0  0  0
  -27.4399  -13.4067   19.5133 C   0  0  2  0  0  0  0  0  0  0  0  0
  -24.9723  -18.5888   25.4926 C   0  0  0  0  0  0  0  0  0  0  0  0
  -25.1463  -31.8720   19.8095 C   0  0  0  0  0  0  0  0  0  0  0  0
  -19.4003  -29.3948   17.6376 C   0  0  0  0  0  0  0  0  0  0  0  0
  -21.6436  -30.3793   17.1216 C   0  0  0  0  0  0  0  0  0  0  0  0
  -19.9685  -31.7045   18.4102 C   0  0  0  0  0  0  0  0  0  0  0  0
  -24.6975  -29.8461   22.9986 C   0  0  0  0  0  0  0  0  0  0  0  0
  -22.5289  -21.7169   22.6188 C   0  0  0  0  0  0  0  0  0  1  0  0
  -21.1266  -29.7524   19.5238 C   0  0  1  0  0  0  0  0  0  0  0  0
  -24.3623  -31.1648   20.9040 C   0  0  2  0  0  0  0  0  0  0  0  0
  -20.5326  -30.2841   18.1889 C   0  0  0  0  0  0  0  0  0  0  0  0
  -25.7504  -11.7152   20.1146 N   0  0  0  0  0  0  0  0  0  0  0  0
  -26.1177  -13.0077   20.1391 N   0  0  0  0  0  0  0  0  0  0  0  0
  -19.8917  -28.3251   21.1244 N   0  0  0  0  0  0  0  0  0  0  0  0
  -29.8348  -13.8173   19.9094 N   0  0  0  0  0  0  0  0  0  0  0  0
  -30.2885  -15.4679   21.5668 N   0  0  0  0  0  0  0  0  0  0  0  0
  -25.4260  -15.1544   20.8628 N   0  0  0  0  0  0  0  0  0  0  0  0
  -22.0434  -12.4695   22.1839 N   0  0  0  0  0  0  0  0  0  0  0  0
  -24.2874  -20.1652   23.1747 N   0  0  0  0  0  0  0  0  0  0  0  0
  -16.4599  -27.3509   21.8795 N   0  0  0  0  0  0  0  0  0  0  0  0
  -22.1825  -30.5893   20.0833 N   0  0  0  0  0  0  0  0  0  0  0  0
  -25.3318  -30.5553   21.8576 N   0  3  0  0  0  0  0  0  0  0  0  0
  -22.7908  -14.6370   22.1375 O   0  0  0  0  0  0  0  0  0  0  0  0
  -17.8114  -27.3732   19.9833 O   0  0  0  0  0  0  0  0  0  0  0  0
  -19.4605  -30.6118   20.9771 O   0  0  0  0  0  0  0  0  0  0  0  0
  -24.2581  -21.1738   21.0467 O   0  0  0  0  0  0  0  0  0  0  0  0
  -23.8198  -28.9475   20.1125 O   0  0  0  0  0  0  0  0  0  0  0  0
  -31.9408  -14.7036   20.1577 O   0  0  0  0  0  0  0  0  0  0  0  0
  -21.7247   -6.9594   21.4278 O   0  0  0  0  0  0  0  0  0  0  0  0
  -22.0221  -22.5410   21.5906 O   0  0  0  0  0  0  0  0  0  1  0  0
  -16.3223   -7.0152   20.3254 F   0  0  0  0  0  0  0  0  0  0  0  0
  -20.0134   -8.6383   22.8046 F   0  0  0  0  0  0  0  0  0  0  0  0
  1  2  1  0  0  0  0
  1  5  2  0  0  0  0
  2  6  2  0  0  0  0
  3 10  2  0  0  0  0
  3 18  1  0  0  0  0
  4 11  1  0  0  0  0
  4 18  2  0  0  0  0
  5 21  1  0  0  0  0
  6 23  1  0  0  0  0
  7  9  2  0  0  0  0
  7 20  1  0  0  0  0
  8 12  2  0  0  0  0
  8 22  1  0  0  0  0
  9 26  1  0  0  0  0
 10 27  1  0  0  0  0
 11 27  2  0  0  0  0
 12 28  1  0  0  0  0
 13 14  2  0  0  0  0
 13 29  1  0  0  0  0
 14 30  1  0  0  0  0
 15 20  2  0  0  0  0
 15 25  1  0  0  0  0
 16 24  1  0  0  0  0
 16 28  2  0  0  0  0
 17 30  2  0  0  0  0
 17 31  1  0  0  0  0
 18 32  1  0  0  0  0
 19 32  1  0  0  0  0
 19 33  2  0  0  0  0
 19 34  1  0  0  0  0
 20 52  1  0  0  0  0
 21 23  2  0  0  0  0
 21 40  1  0  0  0  0
 22 24  2  0  0  0  0
 22 41  1  0  0  0  0
 23 53  1  0  0  0  0
 24 42  1  0  0  0  0
 25 26  2  0  0  0  0
 25 56  1  0  0  0  0
 26 73  1  0  0  0  0
 27 83  1  0  0  0  0
 28 84  1  0  0  0  0
 29 31  2  0  0  0  0
 29 83  1  0  0  0  0
 30 85  1  0  0  0  0
 31 86  1  0  0  0  0
 32 66  2  0  0  0  0
 33 67  1  0  0  0  0
 33 71  1  0  0  0  0
 34 72  1  0  0  0  0
 34 77  2  0  0  0  0
 35 54  1  0  0  0  0
 35 74  1  0  0  0  0
 35 78  2  0  0  0  0
 36 63  1  0  0  0  0
 36 68  1  0  0  0  0
 36 79  2  0  0  0  0
 37 62  1  0  0  0  0
 37 73  1  0  0  0  0
 37 80  2  0  0  0  0
 38 64  1  0  0  0  0
 38 75  1  0  0  0  0
 38 81  2  0  0  0  0
 39 69  1  0  0  0  0
 39 70  1  0  0  0  0
 39 82  2  0  0  0  0
 40 43  1  0  0  0  0
 41 54  1  0  0  0  0
 42 68  1  0  0  0  0
 43 45  1  0  0  0  0
 44 46  1  0  0  0  0
 44 48  1  0  0  0  0
 45 53  1  0  0  0  0
 46 55  1  0  0  0  0
 47 49  1  0  0  0  0
 47 52  1  0  0  0  0
 48 69  1  0  0  0  0
 49 70  1  0  0  0  0
 50 52  1  0  0  0  0
 50 70  1  0  0  0  0
 51 55  1  0  0  0  0
 51 69  1  0  0  0  0
 53 74  1  0  0  0  0
 54 68  1  0  0  0  0
 55 67  1  0  0  0  0
 57 64  1  0  0  0  0
 58 65  1  0  0  0  0
 59 65  1  0  0  0  0
 60 65  1  0  0  0  0
 61 76  1  0  0  0  0
 62 84  1  0  0  0  0
 63 65  1  0  0  0  0
 63 75  1  0  0  0  0
 64 76  1  0  0  0  0
 66 67  1  0  0  0  0
M  CHG  1  76   1
M  ISO  4  39 100  62 101  70 100  84 101
M  END
> <Batch ID>
0157

> <Smiles>
CNC(C)C(=O)NC(C(=O)N1Cc2cc([101O:1][101CH2:1]C(=O)Nc3ccc(C4CC[100N:0]([100C:0](=O)N5CCCC(n6nc(-c7ccc(Oc8ccc(F)cc8F)cc7)c(C(N)=O)c6N)C5)C4)cc3C)ccc2CC1C(=O)NC1CCCc2ccccc21)C(C)(C)C

> <Shape>
0.238

> <Color>
0.174

> <Negative vol penalty>
0.000

$$$$

  -OEChem-04052303413D

 88 98  0     1  0  0  0  0  0999 V2000
  -25.7726  -33.7441   20.6612 C   0  0  0  0  0  0  0  0  0  0  0  0
  -26.8489  -33.2952   21.4198 C   0  0  0  0  0  0  0  0  0  0  0  0
  -22.7095  -10.0961   20.2162 C   0  0  0  0  0  0  0  0  0  0  0  0
  -24.2262   -9.5912   22.0278 C   0  0  0  0  0  0  0  0  0  0  0  0
  -24.7304  -32.8726   20.3478 C   0  0  0  0  0  0  0  0  0  0  0  0
  -26.8831  -31.9746   21.8664 C   0  0  0  0  0  0  0  0  0  0  0  0
  -32.3249  -26.4727   20.7978 C   0  0  0  0  0  0  0  0  0  0  0  0
  -21.9705   -8.9517   20.5159 C   0  0  0  0  0  0  0  0  0  0  0  0
  -23.4872   -8.4468   22.3275 C   0  0  0  0  0  0  0  0  0  0  0  0
  -33.1421  -25.3709   20.5439 C   0  0  0  0  0  0  0  0  0  0  0  0
  -20.6102   -7.6906   23.9311 C   0  0  0  0  0  0  0  0  0  0  0  0
  -20.3171   -7.4430   25.2721 C   0  0  0  0  0  0  0  0  0  0  0  0
  -31.2523  -23.8897   20.8309 C   0  0  0  0  0  0  0  0  0  0  0  0
  -31.6372  -17.7183   21.5897 C   0  0  0  0  0  0  0  0  0  0  0  0
  -21.4989   -5.3397   25.1421 C   0  0  0  0  0  0  0  0  0  0  0  0
  -23.8373  -10.4158   20.9721 C   0  0  0  0  0  0  0  0  0  0  0  0
  -24.1461  -12.9297   20.6672 C   0  0  0  0  0  0  0  0  0  0  0  0
  -24.7565  -31.5381   20.7826 C   0  0  0  0  0  0  0  0  0  0  0  0
  -30.9635  -26.2881   21.0543 C   0  0  0  0  0  0  0  0  0  0  0  0
  -25.8396  -31.0848   21.5596 C   0  0  0  0  0  0  0  0  0  0  0  0
  -30.4263  -24.9904   21.0736 C   0  0  0  0  0  0  0  0  0  0  0  0
  -31.6656  -19.0286   22.1486 C   0  0  0  0  0  0  0  0  0  0  0  0
  -22.3594   -8.1270   21.5715 C   0  0  0  0  0  0  0  0  0  0  0  0
  -32.6071  -24.0826   20.5607 C   0  0  0  0  0  0  0  0  0  0  0  0
  -21.3476   -6.7627   23.1955 C   0  0  0  0  0  0  0  0  0  0  0  0
  -20.7615   -6.2676   25.8777 C   0  0  0  0  0  0  0  0  0  0  0  0
  -21.7920   -5.5873   23.8010 C   0  0  0  0  0  0  0  0  0  0  0  0
  -24.6014  -11.5976   20.6627 C   0  0  0  0  0  0  0  0  0  0  0  0
  -30.4739  -19.3579   22.7561 C   0  0  0  0  0  0  0  0  0  0  0  0
  -25.2457  -13.6696   20.3069 C   0  0  0  0  0  0  0  0  0  0  0  0
  -30.4249  -17.0958   21.7916 C   0  0  0  0  0  0  0  0  0  0  0  0
  -34.0205  -22.3465   22.5038 C   0  0  0  0  0  0  0  0  0  0  0  0
  -33.5372  -22.0479   21.2910 C   0  0  0  0  0  0  0  0  0  1  0  0
  -34.1544  -21.2753   23.5167 C   0  0  0  0  0  0  0  0  0  0  0  0
  -22.8455  -13.4515   20.9701 C   0  0  0  0  0  0  0  0  0  0  0  0
  -27.6499  -27.8739   21.8164 C   0  0  0  0  0  0  0  0  0  0  0  0
  -27.1143  -25.6049   19.8226 C   0  0  0  0  0  0  0  0  0  0  0  0
  -25.8826  -23.5806   17.3686 C   0  0  0  0  0  0  0  0  0  0  0  0
  -30.6755  -14.8363   20.7061 C   0  0  0  0  0  0  0  0  0  0  0  0
  -23.5842  -30.6461   20.4590 C   0  0  0  0  0  0  0  0  0  0  0  0
  -30.0583  -27.4410   21.3938 C   0  0  0  0  0  0  0  0  0  0  0  0
  -28.9633  -24.8371   21.3885 C   0  0  0  0  0  0  0  0  0  0  0  0
  -33.7944  -19.8596   23.1321 C   0  0  0  0  0  0  0  0  0  0  0  0
  -23.8770  -29.1606   20.6537 C   0  0  0  0  0  0  0  0  0  0  0  0
  -29.7386  -12.2186   18.4820 C   0  0  0  0  0  0  0  0  0  0  0  0
  -24.5761  -28.9249   21.9888 C   0  0  0  0  0  0  0  0  0  0  0  0
  -29.6574  -21.4538   25.9025 C   0  0  0  0  0  0  0  0  0  0  0  0
  -29.4515  -19.9647   25.9159 C   0  0  0  0  0  0  0  0  0  0  0  0
  -28.2811  -11.9333   18.8514 C   0  0  0  0  0  0  0  0  0  0  0  0
  -30.5785  -12.5614   19.7111 C   0  0  0  0  0  0  0  0  0  0  0  0
  -28.5834  -13.3553   20.9186 C   0  0  0  0  0  0  0  0  0  0  0  0
  -25.9248  -29.6528   22.0414 C   0  0  1  0  0  0  0  0  0  0  0  0
  -33.0538  -20.6766   20.8801 C   0  0  1  0  0  0  0  0  0  0  0  0
  -28.6273  -27.2635   20.8554 C   0  0  1  0  0  0  0  0  0  0  0  0
  -30.4195  -20.5809   24.9442 C   0  0  0  0  0  0  0  0  0  0  0  0
  -27.6835  -13.0687   19.7054 C   0  0  2  0  0  0  0  0  0  0  0  0
  -34.0846  -19.9863   19.9838 C   0  0  0  0  0  0  0  0  0  0  0  0
  -23.7711  -22.4454   16.6266 C   0  0  0  0  0  0  0  0  0  0  0  0
  -27.4726  -23.5141   22.0144 C   0  0  0  0  0  0  0  0  0  0  0  0
  -26.0067  -21.9768   20.6892 C   0  0  0  0  0  0  0  0  0  0  0  0
  -25.0964  -24.1363   21.5440 C   0  0  0  0  0  0  0  0  0  0  0  0
  -25.8549  -25.0539   14.8020 C   0  0  0  0  0  0  0  0  0  0  0  0
  -30.0955  -20.6112   23.4488 C   0  0  0  0  0  0  0  0  0  0  0  0
  -26.7407  -24.1578   19.6236 C   0  0  1  0  0  0  0  0  0  0  0  0
  -24.6397  -23.6876   16.5035 C   0  0  2  0  0  0  0  0  0  0  0  0
  -26.3527  -23.4573   20.9563 C   0  0  0  0  0  0  0  0  0  0  0  0
  -25.8898  -11.4942   20.3260 N   0  0  0  0  0  0  0  0  0  0  0  0
  -26.2535  -12.7708   20.1155 N   0  0  0  0  0  0  0  0  0  0  0  0
  -32.7732  -19.8741   22.0839 N   0  0  3  0  0  0  0  0  0  0  0  0
  -28.1869  -25.8687   20.6831 N   0  0  0  0  0  0  0  0  0  0  0  0
  -29.9534  -13.6476   20.4689 N   0  0  0  0  0  0  0  0  0  0  0  0
  -25.4391  -14.9950   20.1381 N   0  0  0  0  0  0  0  0  0  0  0  0
  -22.5575  -13.7994   22.2969 N   0  0  0  0  0  0  0  0  0  0  0  0
  -29.9672  -15.8106   21.4088 N   0  0  0  0  0  0  0  0  0  0  0  0
  -26.9225  -28.9234   21.2883 N   0  0  0  0  0  0  0  0  0  0  0  0
  -25.6890  -24.1431   18.6125 N   0  0  0  0  0  0  0  0  0  0  0  0
  -25.0180  -23.8566   15.0720 N   0  3  0  0  0  0  0  0  0  0  0  0
  -34.6089  -21.5444   24.6277 O   0  0  0  0  0  0  0  0  0  0  0  0
  -21.9592  -13.5894   20.0931 O   0  0  0  0  0  0  0  0  0  0  0  0
  -27.5601  -27.4255   22.9533 O   0  0  0  0  0  0  0  0  0  0  0  0
  -26.4708  -26.4801   19.2366 O   0  0  0  0  0  0  0  0  0  0  0  0
  -26.9200  -23.0477   16.9810 O   0  0  0  0  0  0  0  0  0  0  0  0
  -31.8271  -14.9899   20.2912 O   0  0  0  0  0  0  0  0  0  0  0  0
  -21.6384   -7.0103   21.8644 O   0  0  0  0  0  0  0  0  0  0  0  0
  -33.4096  -23.0118   20.3075 O   0  0  0  0  0  0  0  0  0  1  0  0
  -20.4813   -6.0307   27.1659 F   0  0  0  0  0  0  0  0  0  0  0  0
  -22.5018   -4.6927   23.0998 F   0  0  0  0  0  0  0  0  0  0  0  0
  -29.3275  -18.0902   22.6515 S   0  0  0  0  0  0  0  0  0  0  0  0
  1  2  1  0  0  0  0
  1  5  2  0  0  0  0
  2  6  2  0  0  0  0
  3  8  2  0  0  0  0
  3 16  1  0  0  0  0
  4  9  1  0  0  0  0
  4 16  2  0  0  0  0
  5 18  1  0  0  0  0
  6 20  1  0  0  0  0
  7 10  2  0  0  0  0
  7 19  1  0  0  0  0
  8 23  1  0  0  0  0
  9 23  2  0  0  0  0
 10 24  1  0  0  0  0
 11 12  2  0  0  0  0
 11 25  1  0  0  0  0
 12 26  1  0  0  0  0
 13 21  1  0  0  0  0
 13 24  2  0  0  0  0
 14 22  1  0  0  0  0
 14 31  2  0  0  0  0
 15 26  2  0  0  0  0
 15 27  1  0  0  0  0
 16 28  1  0  0  0  0
 17 28  1  0  0  0  0
 17 30  2  0  0  0  0
 17 35  1  0  0  0  0
 18 20  2  0  0  0  0
 18 40  1  0  0  0  0
 19 21  2  0  0  0  0
 19 41  1  0  0  0  0
 20 52  1  0  0  0  0
 21 42  1  0  0  0  0
 22 29  2  0  0  0  0
 22 69  1  0  0  0  0
 23 84  1  0  0  0  0
 24 85  1  0  0  0  0
 25 27  2  0  0  0  0
 25 84  1  0  0  0  0
 26 86  1  0  0  0  0
 27 87  1  0  0  0  0
 28 67  2  0  0  0  0
 29 63  1  0  0  0  0
 29 88  1  0  0  0  0
 30 68  1  0  0  0  0
 30 72  1  0  0  0  0
 31 74  1  0  0  0  0
 31 88  1  0  0  0  0
 32 33  2  0  0  0  0
 32 34  1  0  0  0  0
 33 53  1  0  0  0  0
 33 85  1  0  0  0  0
 34 43  1  0  0  0  0
 34 78  2  0  0  0  0
 35 73  1  0  0  0  0
 35 79  2  0  0  0  0
 36 54  1  0  0  0  0
 36 75  1  0  0  0  0
 36 80  2  0  0  0  0
 37 64  1  0  0  0  0
 37 70  1  0  0  0  0
 37 81  2  0  0  0  0
 38 65  1  0  0  0  0
 38 76  1  0  0  0  0
 38 82  2  0  0  0  0
 39 71  1  0  0  0  0
 39 74  1  0  0  0  0
 39 83  2  0  0  0  0
 40 44  1  0  0  0  0
 41 54  1  0  0  0  0
 42 70  1  0  0  0  0
 43 69  1  0  0  0  0
 44 46  1  0  0  0  0
 45 49  1  0  0  0  0
 45 50  1  0  0  0  0
 46 52  1  0  0  0  0
 47 48  1  0  0  0  0
 47 55  1  0  0  0  0
 48 55  1  0  0  0  0
 49 56  1  0  0  0  0
 50 71  1  0  0  0  0
 51 56  1  0  0  0  0
 51 71  1  0  0  0  0
 52 75  1  0  0  0  0
 53 57  1  0  0  0  0
 53 69  1  0  0  0  0
 54 70  1  0  0  0  0
 55 63  1  0  0  0  0
 56 68  1  0  0  0  0
 58 65  1  0  0  0  0
 59 66  1  0  0  0  0
 60 66  1  0  0  0  0
 61 66  1  0  0  0  0
 62 77  1  0  0  0  0
 64 66  1  0  0  0  0
 64 76  1  0  0  0  0
 65 77  1  0  0  0  0
 67 68  1  0  0  0  0
M  CHG  1  77   1
M  ISO  4  33 101  39 100  74 100  85 101
M  END
> <Batch ID>
0157

> <Smiles>
CNC(C)C(=O)NC(C(=O)N1Cc2cc([101O:1][101C:1]3=C(C)N(c4cc([100NH:0][100C:0](=O)N5CCCC(n6nc(-c7ccc(Oc8ccc(F)cc8F)cc7)c(C(N)=O)c6N)C5)sc4CC4CC4)CC(=O)C3)ccc2CC1C(=O)NC1CCCc2ccccc21)C(C)(C)C

> <Shape>
0.281

> <Color>
0.186

> <Negative vol penalty>
0.000

$$$$

  -OEChem-04052303413D

 84 92  0     1  0  0  0  0  0999 V2000
  -33.6537  -18.8803   20.3149 C   0  0  0  0  0  0  0  0  0  0  0  0
  -32.8583  -19.3484   21.3559 C   0  0  0  0  0  0  0  0  0  0  0  0
  -27.7671  -24.9102   21.5362 C   0  0  0  0  0  0  0  0  0  0  0  0
  -28.3810  -26.3048   19.6613 C   0  0  0  0  0  0  0  0  0  0  0  0
  -33.0709  -18.5251   19.0992 C   0  0  0  0  0  0  0  0  0  0  0  0
  -31.4796  -19.4626   21.1813 C   0  0  0  0  0  0  0  0  0  0  0  0
  -25.3283  -18.9164   24.8116 C   0  0  0  0  0  0  0  0  0  0  0  0
  -28.1880  -23.7809   20.8340 C   0  0  0  0  0  0  0  0  0  0  0  0
  -28.8019  -25.1755   18.9591 C   0  0  0  0  0  0  0  0  0  0  0  0
  -24.1627  -19.6363   25.0702 C   0  0  0  0  0  0  0  0  0  0  0  0
  -31.4998  -23.1411   18.9035 C   0  0  0  0  0  0  0  0  0  0  0  0
  -32.7204  -23.2146   18.2326 C   0  0  0  0  0  0  0  0  0  0  0  0
  -23.2566  -18.9184   22.9530 C   0  0  0  0  0  0  0  0  0  0  0  0
  -20.4554  -26.9228   23.3025 C   0  0  0  0  0  0  0  0  0  0  0  0
  -31.5967  -22.7735   16.1398 C   0  0  0  0  0  0  0  0  0  0  0  0
  -19.1359  -26.8704   25.1004 C   0  0  0  0  0  0  0  0  0  0  0  0
  -27.8636  -26.1722   20.9499 C   0  0  0  0  0  0  0  0  0  0  0  0
  -27.9219  -27.8073   22.9071 C   0  0  0  0  0  0  0  0  0  0  0  0
  -31.6832  -18.6259   18.9128 C   0  0  0  0  0  0  0  0  0  0  0  0
  -25.4714  -18.1997   23.6149 C   0  0  0  0  0  0  0  0  0  0  0  0
  -30.8778  -19.1097   19.9614 C   0  0  0  0  0  0  0  0  0  0  0  0
  -24.4240  -18.1881   22.6827 C   0  0  0  0  0  0  0  0  0  0  0  0
  -19.9165  -26.0722   24.2971 C   0  0  0  0  0  0  0  0  0  0  0  0
  -28.7054  -23.9135   19.5455 C   0  0  0  0  0  0  0  0  0  0  0  0
  -23.1278  -19.6398   24.1396 C   0  0  0  0  0  0  0  0  0  0  0  0
  -30.3276  -22.8837   18.1926 C   0  0  0  0  0  0  0  0  0  0  0  0
  -32.7689  -23.0309   16.8508 C   0  0  0  0  0  0  0  0  0  0  0  0
  -30.3760  -22.6999   16.8108 C   0  0  0  0  0  0  0  0  0  0  0  0
  -27.4285  -27.3391   21.6745 C   0  0  0  0  0  0  0  0  0  0  0  0
  -19.9655  -28.1802   23.5689 C   0  0  0  0  0  0  0  0  0  0  0  0
  -27.1854  -28.9377   23.1646 C   0  0  0  0  0  0  0  0  0  0  0  0
  -21.9324  -21.6435   23.9756 C   0  0  0  0  0  0  0  0  0  1  0  0
  -28.9537  -27.2687   23.7443 C   0  0  0  0  0  0  0  0  0  0  0  0
  -20.1708  -29.4823   22.8839 C   0  0  0  0  0  0  0  0  0  0  0  0
  -20.8638  -22.4262   24.1683 C   0  0  0  0  0  0  0  0  0  0  0  0
  -20.9005  -23.8417   23.6750 C   0  0  0  0  0  0  0  0  0  0  0  0
  -27.4614  -18.3406   21.1402 C   0  0  0  0  0  0  0  0  0  0  0  0
  -25.8932  -15.6526   20.2249 C   0  0  0  0  0  0  0  0  0  0  0  0
  -23.0661  -13.7484   20.3930 C   0  0  0  0  0  0  0  0  0  0  0  0
  -21.7777  -30.7694   21.5109 C   0  0  0  0  0  0  0  0  0  0  0  0
  -31.1044  -18.2748   17.5650 C   0  0  0  0  0  0  0  0  0  0  0  0
  -26.7242  -17.4064   23.3628 C   0  0  0  0  0  0  0  0  0  0  0  0
  -24.5198  -17.4183   21.3917 C   0  0  0  0  0  0  0  0  0  0  0  0
  -29.5917  -18.0708   17.5862 C   0  0  0  0  0  0  0  0  0  0  0  0
  -24.8265  -32.4617   20.9298 C   0  0  0  0  0  0  0  0  0  0  0  0
  -28.9118  -19.1976   18.3574 C   0  0  0  0  0  0  0  0  0  0  0  0
  -25.8890  -31.3885   21.1819 C   0  0  0  0  0  0  0  0  0  0  0  0
  -23.5904  -31.8856   20.2406 C   0  0  0  0  0  0  0  0  0  0  0  0
  -24.0592  -29.6464   21.1484 C   0  0  0  0  0  0  0  0  0  0  0  0
  -29.3756  -19.2241   19.8188 C   0  0  1  0  0  0  0  0  0  0  0  0
  -26.9691  -17.1305   21.8825 C   0  0  1  0  0  0  0  0  0  0  0  0
  -25.2946  -30.1626   21.9038 C   0  0  1  0  0  0  0  0  0  0  0  0
  -22.0660  -11.6245   19.5063 C   0  0  0  0  0  0  0  0  0  0  0  0
  -25.3725  -17.0187   17.5467 C   0  0  0  0  0  0  0  0  0  0  0  0
  -23.6147  -15.2958   17.0887 C   0  0  0  0  0  0  0  0  0  0  0  0
  -25.9927  -14.6016   17.3817 C   0  0  0  0  0  0  0  0  0  0  0  0
  -22.8207  -12.5942   23.1071 C   0  0  0  0  0  0  0  0  0  0  0  0
  -24.6660  -15.3608   19.3955 C   0  0  1  0  0  0  0  0  0  0  0  0
  -22.8650  -12.2628   20.6319 C   0  0  2  0  0  0  0  0  0  0  0  0
  -24.9101  -15.5854   17.8765 C   0  0  0  0  0  0  0  0  0  0  0  0
  -26.4538  -28.1090   21.1833 N   0  0  0  0  0  0  0  0  0  0  0  0
  -26.3288  -29.0724   22.1119 N   0  0  0  0  0  0  0  0  0  0  0  0
  -25.7673  -16.6634   21.1883 N   0  0  0  0  0  0  0  0  0  0  0  0
  -23.0834  -30.7354   20.9910 N   0  0  0  0  0  0  0  0  0  0  0  0
  -27.1934  -29.8196   24.1867 N   0  0  0  0  0  0  0  0  0  0  0  0
  -30.2720  -27.6988   23.5404 N   0  0  0  0  0  0  0  0  0  0  0  0
  -20.1208  -24.6806   24.4592 N   0  0  0  0  0  0  0  0  0  0  0  0
  -21.4026  -29.6408   22.2483 N   0  0  0  0  0  0  0  0  0  0  0  0
  -28.7140  -18.1847   20.5779 N   0  0  0  0  0  0  0  0  0  0  0  0
  -24.2534  -14.0046   19.7403 N   0  0  0  0  0  0  0  0  0  0  0  0
  -22.1357  -12.0381   21.9120 N   0  3  0  0  0  0  0  0  0  0  0  0
  -28.7161  -26.4185   24.6355 O   0  0  0  0  0  0  0  0  0  0  0  0
  -19.2603  -30.3062   22.8802 O   0  0  0  0  0  0  0  0  0  0  0  0
  -21.5626  -24.1484   22.6894 O   0  0  0  0  0  0  0  0  0  0  0  0
  -26.7563  -19.3411   21.0806 O   0  0  0  0  0  0  0  0  0  0  0  0
  -26.9233  -15.0026   20.0301 O   0  0  0  0  0  0  0  0  0  0  0  0
  -22.2497  -14.5964   20.7465 O   0  0  0  0  0  0  0  0  0  0  0  0
  -21.0241  -31.7367   21.3641 O   0  0  0  0  0  0  0  0  0  0  0  0
  -19.1602  -28.1568   24.6632 O   0  0  0  0  0  0  0  0  0  0  0  0
  -19.7229  -21.9812   24.8047 O   0  0  0  0  0  0  0  0  0  0  0  0
  -29.1164  -22.8117   18.8601 O   0  0  0  0  0  0  0  0  0  0  0  0
  -21.9893  -20.3422   24.3892 O   0  0  0  0  0  0  0  0  0  1  0  0
  -33.9410  -23.1030   16.2064 F   0  0  0  0  0  0  0  0  0  0  0  0
  -29.2531  -22.4535   16.1223 F   0  0  0  0  0  0  0  0  0  0  0  0
  1  2  1  0  0  0  0
  1  5  2  0  0  0  0
  2  6  2  0  0  0  0
  3  8  2  0  0  0  0
  3 17  1  0  0  0  0
  4  9  1  0  0  0  0
  4 17  2  0  0  0  0
  5 19  1  0  0  0  0
  6 21  1  0  0  0  0
  7 10  2  0  0  0  0
  7 20  1  0  0  0  0
  8 24  1  0  0  0  0
  9 24  2  0  0  0  0
 10 25  1  0  0  0  0
 11 12  2  0  0  0  0
 11 26  1  0  0  0  0
 12 27  1  0  0  0  0
 13 22  1  0  0  0  0
 13 25  2  0  0  0  0
 14 23  1  0  0  0  0
 14 30  2  0  0  0  0
 15 27  2  0  0  0  0
 15 28  1  0  0  0  0
 16 23  2  0  0  0  0
 16 79  1  0  0  0  0
 17 29  1  0  0  0  0
 18 29  1  0  0  0  0
 18 31  2  0  0  0  0
 18 33  1  0  0  0  0
 19 21  2  0  0  0  0
 19 41  1  0  0  0  0
 20 22  2  0  0  0  0
 20 42  1  0  0  0  0
 21 50  1  0  0  0  0
 22 43  1  0  0  0  0
 23 67  1  0  0  0  0
 24 81  1  0  0  0  0
 25 82  1  0  0  0  0
 26 28  2  0  0  0  0
 26 81  1  0  0  0  0
 27 83  1  0  0  0  0
 28 84  1  0  0  0  0
 29 61  2  0  0  0  0
 30 34  1  0  0  0  0
 30 79  1  0  0  0  0
 31 62  1  0  0  0  0
 31 65  1  0  0  0  0
 32 35  2  0  0  0  0
 32 82  1  0  0  0  0
 33 66  1  0  0  0  0
 33 72  2  0  0  0  0
 34 68  1  0  0  0  0
 34 73  2  0  0  0  0
 35 36  1  0  0  0  0
 35 80  1  0  0  0  0
 36 67  1  0  0  0  0
 36 74  2  0  0  0  0
 37 51  1  0  0  0  0
 37 69  1  0  0  0  0
 37 75  2  0  0  0  0
 38 58  1  0  0  0  0
 38 63  1  0  0  0  0
 38 76  2  0  0  0  0
 39 59  1  0  0  0  0
 39 70  1  0  0  0  0
 39 77  2  0  0  0  0
 40 64  1  0  0  0  0
 40 68  1  0  0  0  0
 40 78  2  0  0  0  0
 41 44  1  0  0  0  0
 42 51  1  0  0  0  0
 43 63  1  0  0  0  0
 44 46  1  0  0  0  0
 45 47  1  0  0  0  0
 45 48  1  0  0  0  0
 46 50  1  0  0  0  0
 47 52  1  0  0  0  0
 48 64  1  0  0  0  0
 49 52  1  0  0  0  0
 49 64  1  0  0  0  0
 50 69  1  0  0  0  0
 51 63  1  0  0  0  0
 52 62  1  0  0  0  0
 53 59  1  0  0  0  0
 54 60  1  0  0  0  0
 55 60  1  0  0  0  0
 56 60  1  0  0  0  0
 57 71  1  0  0  0  0
 58 60  1  0  0  0  0
 58 70  1  0  0  0  0
 59 71  1  0  0  0  0
 61 62  1  0  0  0  0
M  CHG  1  71   1
M  ISO  4  32 101  40 100  68 100  82 101
M  END
> <Batch ID>
0157

> <Smiles>
CNC(C)C(=O)NC(C(=O)N1Cc2cc([101O:1][101CH2:1]C(=O)C(=O)Nc3coc(C(=O)[100NH:0][100C:0](=O)N4CCCC(n5nc(-c6ccc(Oc7ccc(F)cc7F)cc6)c(C(N)=O)c5N)C4)c3)ccc2CC1C(=O)NC1CCCc2ccccc21)C(C)(C)C

> <Shape>
0.202

> <Color>
0.072

> <Negative vol penalty>
0.000

$$$$

  -OEChem-04052303413D

 83 91  0     1  0  0  0  0  0999 V2000
  -21.7645  -11.5463   19.9071 C   0  0  0  0  0  0  0  0  0  0  0  0
  -21.5999  -12.8885   20.2339 C   0  0  0  0  0  0  0  0  0  0  0  0
  -16.4485  -22.5151   23.4923 C   0  0  0  0  0  0  0  0  0  0  0  0
  -26.5328  -29.1751   22.2789 C   0  0  0  0  0  0  0  0  0  0  0  0
  -25.1544  -28.4888   20.4171 C   0  0  0  0  0  0  0  0  0  0  0  0
  -23.0247  -10.9570   19.9992 C   0  0  0  0  0  0  0  0  0  0  0  0
  -22.6954  -13.6420   20.6542 C   0  0  0  0  0  0  0  0  0  0  0  0
  -22.8857  -18.1939   18.4430 C   0  0  0  0  0  0  0  0  0  0  0  0
  -16.3952  -23.9011   23.6399 C   0  0  0  0  0  0  0  0  0  0  0  0
  -17.3847  -21.9408   22.6324 C   0  0  0  0  0  0  0  0  0  0  0  0
  -27.6483  -28.6095   21.6615 C   0  0  0  0  0  0  0  0  0  0  0  0
  -26.2700  -27.9232   19.7997 C   0  0  0  0  0  0  0  0  0  0  0  0
  -22.0293  -19.1774   18.9359 C   0  0  0  0  0  0  0  0  0  0  0  0
  -28.9668  -25.5256   21.2427 C   0  0  0  0  0  0  0  0  0  0  0  0
  -29.8192  -24.7514   22.0298 C   0  0  0  0  0  0  0  0  0  0  0  0
  -23.8535  -20.1245   20.1986 C   0  0  0  0  0  0  0  0  0  0  0  0
  -18.2141  -24.1385   22.0675 C   0  0  0  0  0  0  0  0  0  0  0  0
  -31.6444  -26.2536   21.5306 C   0  0  0  0  0  0  0  0  0  0  0  0
  -25.2858  -29.1148   21.6567 C   0  0  0  0  0  0  0  0  0  0  0  0
  -23.6620  -31.0178   22.1562 C   0  0  0  0  0  0  0  0  0  0  0  0
  -24.1380  -11.7061   20.4115 C   0  0  0  0  0  0  0  0  0  0  0  0
  -24.2321  -18.1617   18.8334 C   0  0  0  0  0  0  0  0  0  0  0  0
  -23.9715  -13.0618   20.7532 C   0  0  0  0  0  0  0  0  0  0  0  0
  -24.7255  -19.1410   19.7073 C   0  0  0  0  0  0  0  0  0  0  0  0
  -17.2779  -24.7128   22.9275 C   0  0  0  0  0  0  0  0  0  0  0  0
  -18.2674  -22.7525   21.9200 C   0  0  0  0  0  0  0  0  0  0  0  0
  -27.5170  -27.9836   20.4219 C   0  0  0  0  0  0  0  0  0  0  0  0
  -22.5124  -20.1412   19.8161 C   0  0  0  0  0  0  0  0  0  0  0  0
  -29.4531  -26.6638   20.5995 C   0  0  0  0  0  0  0  0  0  0  0  0
  -31.1580  -25.1154   22.1738 C   0  0  0  0  0  0  0  0  0  0  0  0
  -30.7919  -27.0278   20.7435 C   0  0  0  0  0  0  0  0  0  0  0  0
  -24.1329  -29.6983   22.2943 C   0  0  0  0  0  0  0  0  0  0  0  0
  -22.5492  -31.0710   22.9595 C   0  0  0  0  0  0  0  0  0  0  0  0
  -24.1839  -32.0987   21.3720 C   0  0  0  0  0  0  0  0  0  0  0  0
  -26.0697  -16.0804   20.3811 C   0  0  0  0  0  0  0  0  0  0  0  0
  -28.4237  -18.1713   19.6005 C   0  0  0  0  0  0  0  0  0  0  0  0
  -29.3062  -21.3599   18.7634 C   0  0  0  0  0  0  0  0  0  0  0  0
  -18.7341  -26.8946   24.9226 C   0  0  0  0  0  0  0  0  0  0  0  0
  -25.4715  -11.0135   20.5410 C   0  0  0  0  0  0  0  0  0  0  0  0
  -25.1493  -17.1100   18.2719 C   0  0  0  0  0  0  0  0  0  0  0  0
  -26.1675  -19.1625   20.1415 C   0  0  0  0  0  0  0  0  0  0  0  0
  -26.6518  -11.9770   20.6353 C   0  0  0  0  0  0  0  0  0  0  0  0
  -20.6841  -29.1158   26.9078 C   0  0  0  0  0  0  0  0  0  0  0  0
  -26.3528  -13.0914   21.6331 C   0  0  0  0  0  0  0  0  0  0  0  0
  -21.7466  -29.6360   25.9380 C   0  0  0  0  0  0  0  0  0  0  0  0
  -20.3481  -27.6497   26.6434 C   0  0  0  0  0  0  0  0  0  0  0  0
  -21.0250  -27.8639   24.2834 C   0  0  0  0  0  0  0  0  0  0  0  0
  -25.1402  -13.9185   21.1893 C   0  0  1  0  0  0  0  0  0  0  0  0
  -26.3807  -16.8665   19.1389 C   0  0  1  0  0  0  0  0  0  0  0  0
  -21.3565  -29.3538   24.4747 C   0  0  2  0  0  0  0  0  0  0  0  0
  -31.3090  -22.7721   18.2229 C   0  0  0  0  0  0  0  0  0  0  0  0
  -29.1655  -18.2474   22.5592 C   0  0  0  0  0  0  0  0  0  0  0  0
  -30.4846  -20.3260   22.1035 C   0  0  0  0  0  0  0  0  0  0  0  0
  -31.1164  -18.1819   20.9959 C   0  0  0  0  0  0  0  0  0  0  0  0
  -21.9960  -22.8403   18.6112 C   0  0  0  0  0  0  0  0  0  0  0  0
  -28.2815  -21.9831   16.0577 C   0  0  0  0  0  0  0  0  0  0  0  0
  -17.2201  -26.1946   23.0850 C   0  0  0  0  0  0  0  0  0  0  0  0
  -20.1477  -22.9489   20.2916 C   0  0  0  0  0  0  0  0  0  0  0  0
  -29.0266  -19.3936   20.2498 C   0  0  1  0  0  0  0  0  0  0  0  0
  -30.1963  -21.9019   17.6595 C   0  0  2  0  0  0  0  0  0  0  0  0
  -29.9206  -19.0359   21.4706 C   0  0  0  0  0  0  0  0  0  0  0  0
  -21.0018  -22.0178   19.4252 C   0  0  2  0  0  0  0  0  0  1  0  0
  -23.3808  -28.9662   23.1203 N   0  0  0  0  0  0  0  0  0  0  0  0
  -22.4261  -29.8287   23.5087 N   0  0  0  0  0  0  0  0  0  0  0  0
  -27.0233  -18.1097   19.5700 N   0  0  0  0  0  0  0  0  0  0  0  0
  -19.9851  -27.4500   25.2384 N   0  0  0  0  0  0  0  0  0  0  0  0
  -21.6737  -32.0589   23.2425 N   0  0  0  0  0  0  0  0  0  0  0  0
  -25.3346  -31.8725   20.6044 N   0  0  0  0  0  0  0  0  0  0  0  0
  -19.1965  -22.1826   21.0671 N   0  0  0  0  0  0  0  0  0  0  0  0
  -25.5141  -14.8390   20.1369 N   0  0  0  0  0  0  0  0  0  0  0  0
  -29.7225  -20.1169   19.1911 N   0  0  0  0  0  0  0  0  0  0  0  0
  -18.4670  -26.7454   23.5672 N   0  0  0  0  0  0  0  0  0  0  0  0
  -29.3971  -22.7207   16.7047 N   0  3  0  0  0  0  0  0  0  0  0  0
  -23.6552  -33.2362   21.3653 O   0  0  0  0  0  0  0  0  0  0  0  0
  -26.3170  -16.5638   21.4797 O   0  0  0  0  0  0  0  0  0  0  0  0
  -29.1678  -17.3067   19.1311 O   0  0  0  0  0  0  0  0  0  0  0  0
  -28.3407  -21.9791   19.2048 O   0  0  0  0  0  0  0  0  0  0  0  0
  -17.9137  -26.5617   25.7846 O   0  0  0  0  0  0  0  0  0  0  0  0
  -28.6054  -27.4318   19.8190 O   0  0  0  0  0  0  0  0  0  0  0  0
  -21.6785  -21.1020   20.2991 O   0  0  0  0  0  0  0  0  0  1  0  0
  -31.9762  -24.3727   22.9309 F   0  0  0  0  0  0  0  0  0  0  0  0
  -31.2647  -28.1208   20.1289 F   0  0  0  0  0  0  0  0  0  0  0  0
  -20.1633  -21.3450   18.5924 F   0  0  0  0  0  0  0  0  0  0  0  0
  1  2  1  0  0  0  0
  1  6  2  0  0  0  0
  2  7  2  0  0  0  0
  3  9  1  0  0  0  0
  3 10  2  0  0  0  0
  4 11  2  0  0  0  0
  4 19  1  0  0  0  0
  5 12  1  0  0  0  0
  5 19  2  0  0  0  0
  6 21  1  0  0  0  0
  7 23  1  0  0  0  0
  8 13  2  0  0  0  0
  8 22  1  0  0  0  0
  9 25  2  0  0  0  0
 10 26  1  0  0  0  0
 11 27  1  0  0  0  0
 12 27  2  0  0  0  0
 13 28  1  0  0  0  0
 14 15  2  0  0  0  0
 14 29  1  0  0  0  0
 15 30  1  0  0  0  0
 16 24  1  0  0  0  0
 16 28  2  0  0  0  0
 17 25  1  0  0  0  0
 17 26  2  0  0  0  0
 18 30  2  0  0  0  0
 18 31  1  0  0  0  0
 19 32  1  0  0  0  0
 20 32  1  0  0  0  0
 20 33  2  0  0  0  0
 20 34  1  0  0  0  0
 21 23  2  0  0  0  0
 21 39  1  0  0  0  0
 22 24  2  0  0  0  0
 22 40  1  0  0  0  0
 23 48  1  0  0  0  0
 24 41  1  0  0  0  0
 25 57  1  0  0  0  0
 26 69  1  0  0  0  0
 27 79  1  0  0  0  0
 28 80  1  0  0  0  0
 29 31  2  0  0  0  0
 29 79  1  0  0  0  0
 30 81  1  0  0  0  0
 31 82  1  0  0  0  0
 32 63  2  0  0  0  0
 33 64  1  0  0  0  0
 33 67  1  0  0  0  0
 34 68  1  0  0  0  0
 34 74  2  0  0  0  0
 35 49  1  0  0  0  0
 35 70  1  0  0  0  0
 35 75  2  0  0  0  0
 36 59  1  0  0  0  0
 36 65  1  0  0  0  0
 36 76  2  0  0  0  0
 37 60  1  0  0  0  0
 37 71  1  0  0  0  0
 37 77  2  0  0  0  0
 38 66  1  0  0  0  0
 38 72  1  0  0  0  0
 38 78  2  0  0  0  0
 39 42  1  0  0  0  0
 40 49  1  0  0  0  0
 41 65  1  0  0  0  0
 42 44  1  0  0  0  0
 43 45  1  0  0  0  0
 43 46  1  0  0  0  0
 44 48  1  0  0  0  0
 45 50  1  0  0  0  0
 46 66  1  0  0  0  0
 47 50  1  0  0  0  0
 47 66  1  0  0  0  0
 48 70  1  0  0  0  0
 49 65  1  0  0  0  0
 50 64  1  0  0  0  0
 51 60  1  0  0  0  0
 52 61  1  0  0  0  0
 53 61  1  0  0  0  0
 54 61  1  0  0  0  0
 55 62  1  0  0  0  0
 56 73  1  0  0  0  0
 57 72  1  0  0  0  0
 58 62  1  0  0  0  0
 58 69  1  0  0  0  0
 59 61  1  0  0  0  0
 59 71  1  0  0  0  0
 60 73  1  0  0  0  0
 62 80  1  0  0  0  0
 62 83  1  0  0  0  0
 63 64  1  0  0  0  0
M  CHG  1  73   1
M  ISO  4  38 100  62 101  72 100  80 101
M  END
> <Batch ID>
0157

> <Smiles>
CNC(C)C(=O)NC(C(=O)N1Cc2cc([101O:1][101C:1](C)(F)CNc3cccc(C[100NH:0][100C:0](=O)N4CCCC(n5nc(-c6ccc(Oc7ccc(F)cc7F)cc6)c(C(N)=O)c5N)C4)c3)ccc2CC1C(=O)NC1CCCc2ccccc21)C(C)(C)C

> <Shape>
0.219

> <Color>
0.079

> <Negative vol penalty>
0.000

$$$$

  -OEChem-04052303413D

 82 90  0     1  0  0  0  0  0999 V2000
  -26.9175  -29.4117   19.5617 C   0  0  0  0  0  0  0  0  0  0  0  0
  -27.3860  -28.1913   20.0375 C   0  0  0  0  0  0  0  0  0  0  0  0
  -22.8841   -9.9254   19.9976 C   0  0  0  0  0  0  0  0  0  0  0  0
  -24.0836   -9.8251   22.0924 C   0  0  0  0  0  0  0  0  0  0  0  0
  -25.5458  -29.6525   19.4952 C   0  0  0  0  0  0  0  0  0  0  0  0
  -26.4830  -27.2112   20.4481 C   0  0  0  0  0  0  0  0  0  0  0  0
  -27.6885  -22.6092   18.7123 C   0  0  0  0  0  0  0  0  0  0  0  0
  -22.2018   -8.7558   20.3323 C   0  0  0  0  0  0  0  0  0  0  0  0
  -23.4013   -8.6555   22.4271 C   0  0  0  0  0  0  0  0  0  0  0  0
  -28.7136  -21.9295   19.3688 C   0  0  0  0  0  0  0  0  0  0  0  0
  -20.3548   -7.8045   23.6168 C   0  0  0  0  0  0  0  0  0  0  0  0
  -19.8449   -7.7012   24.9109 C   0  0  0  0  0  0  0  0  0  0  0  0
  -27.0742  -20.6382   20.5789 C   0  0  0  0  0  0  0  0  0  0  0  0
  -21.2031   -5.7393   25.2894 C   0  0  0  0  0  0  0  0  0  0  0  0
  -31.9741  -15.2728   21.2010 C   0  0  0  0  0  0  0  0  0  0  0  0
  -23.8250  -10.4601   20.8777 C   0  0  0  0  0  0  0  0  0  0  0  0
  -24.1422  -12.9906   20.8182 C   0  0  0  0  0  0  0  0  0  0  0  0
  -24.6254  -28.6714   19.8961 C   0  0  0  0  0  0  0  0  0  0  0  0
  -26.3462  -22.3156   18.9927 C   0  0  0  0  0  0  0  0  0  0  0  0
  -25.0977  -27.4396   20.3881 C   0  0  0  0  0  0  0  0  0  0  0  0
  -26.0340  -21.3138   19.9228 C   0  0  0  0  0  0  0  0  0  0  0  0
  -22.4604   -8.1208   21.5470 C   0  0  0  0  0  0  0  0  0  0  0  0
  -28.4065  -20.9458   20.3043 C   0  0  0  0  0  0  0  0  0  0  0  0
  -21.2888   -6.8752   23.1588 C   0  0  0  0  0  0  0  0  0  0  0  0
  -20.2690   -6.6686   25.7473 C   0  0  0  0  0  0  0  0  0  0  0  0
  -21.7129   -5.8426   23.9952 C   0  0  0  0  0  0  0  0  0  0  0  0
  -24.5305  -11.6680   20.5323 C   0  0  0  0  0  0  0  0  0  0  0  0
  -32.4989  -14.0614   21.5661 C   0  0  0  0  0  0  0  0  0  0  0  0
  -32.6951  -16.1969   21.9768 C   0  0  0  0  0  0  0  0  0  0  0  0
  -25.1424  -13.7653   20.2836 C   0  0  0  0  0  0  0  0  0  0  0  0
  -22.9812  -13.4755   21.5057 C   0  0  0  0  0  0  0  0  0  0  0  0
  -23.8904  -23.9543   20.1706 C   0  0  0  0  0  0  0  0  0  0  0  0
  -22.2412  -21.2603   19.4322 C   0  0  0  0  0  0  0  0  0  0  0  0
  -31.5920  -18.3103   21.1640 C   0  0  0  0  0  0  0  0  0  0  0  0
  -22.2933  -17.8955   18.8646 C   0  0  0  0  0  0  0  0  0  0  0  0
  -30.9087  -12.7086   19.0651 C   0  0  0  0  0  0  0  0  0  0  0  0
  -23.1530  -28.9952   19.8503 C   0  0  0  0  0  0  0  0  0  0  0  0
  -25.2523  -23.0392   18.2564 C   0  0  0  0  0  0  0  0  0  0  0  0
  -24.6092  -20.9469   20.2447 C   0  0  0  0  0  0  0  0  0  0  0  0
  -22.2553  -27.7649   19.9529 C   0  0  0  0  0  0  0  0  0  0  0  0
  -28.3989  -13.7804   16.7784 C   0  0  0  0  0  0  0  0  0  0  0  0
  -22.7268  -26.8525   21.0807 C   0  0  0  0  0  0  0  0  0  0  0  0
  -27.0878  -13.4799   17.5070 C   0  0  0  0  0  0  0  0  0  0  0  0
  -29.4568  -12.7152   17.0579 C   0  0  0  0  0  0  0  0  0  0  0  0
  -28.4044  -12.1588   19.2158 C   0  0  0  0  0  0  0  0  0  0  0  0
  -24.1491  -26.3423   20.8195 C   0  0  1  0  0  0  0  0  0  0  0  0
  -23.9183  -23.0173   18.9963 C   0  0  1  0  0  0  0  0  0  0  0  0
  -27.3247  -13.2348   19.0094 C   0  0  2  0  0  0  0  0  0  0  0  0
  -20.7838  -15.9659   18.3210 C   0  0  0  0  0  0  0  0  0  0  0  0
  -21.2481  -21.2277   22.3171 C   0  0  0  0  0  0  0  0  0  0  0  0
  -20.5577  -18.8450   21.9791 C   0  0  0  0  0  0  0  0  0  0  0  0
  -19.5139  -20.6502   20.6102 C   0  0  0  0  0  0  0  0  0  0  0  0
  -23.7118  -17.3509   16.3249 C   0  0  0  0  0  0  0  0  0  0  0  0
  -32.2295  -12.6747   21.1659 C   0  0  0  0  0  0  0  0  0  0  0  0
  -31.7133  -19.8054   21.4358 C   0  0  0  0  0  0  0  0  0  0  0  0
  -30.7449  -20.6427   20.6141 C   0  0  0  0  0  0  0  0  0  1  0  0
  -21.9086  -19.9782   20.1564 C   0  0  1  0  0  0  0  0  0  0  0  0
  -21.6879  -17.0512   17.7577 C   0  0  2  0  0  0  0  0  0  0  0  0
  -20.8340  -20.1833   21.2613 C   0  0  0  0  0  0  0  0  0  0  0  0
  -25.6871  -11.6025   19.8675 N   0  0  0  0  0  0  0  0  0  0  0  0
  -33.5981  -15.6040   22.7629 N   0  0  0  0  0  0  0  0  0  0  0  0
  -26.0341  -12.8937   19.7311 N   0  0  0  0  0  0  0  0  0  0  0  0
  -23.5749  -21.6871   19.5032 N   0  0  0  0  0  0  0  0  0  0  0  0
  -29.6346  -12.5323   18.5005 N   0  0  0  0  0  0  0  0  0  0  0  0
  -25.3373  -15.1003   20.2367 N   0  0  0  0  0  0  0  0  0  0  0  0
  -22.0541  -12.5432   21.9911 N   0  0  0  0  0  0  0  0  0  0  0  0
  -32.5004  -17.5982   21.9426 N   0  0  0  0  0  0  0  0  0  0  0  0
  -24.1317  -25.2747   19.8426 N   0  0  0  0  0  0  0  0  0  0  0  0
  -21.5318  -19.0144   19.1280 N   0  0  0  0  0  0  0  0  0  0  0  0
  -30.9884  -12.5224   20.4398 N   0  0  0  0  0  0  0  0  0  0  0  0
  -22.7625  -16.3990   16.9571 N   0  3  0  0  0  0  0  0  0  0  0  0
  -22.7639  -14.7000   21.6700 O   0  0  0  0  0  0  0  0  0  0  0  0
  -23.6651  -23.5122   21.2911 O   0  0  0  0  0  0  0  0  0  0  0  0
  -21.3522  -21.8572   18.8200 O   0  0  0  0  0  0  0  0  0  0  0  0
  -30.7864  -17.8565   20.3581 O   0  0  0  0  0  0  0  0  0  0  0  0
  -23.3353  -17.5908   19.4407 O   0  0  0  0  0  0  0  0  0  0  0  0
  -31.9005  -13.0147   18.3946 O   0  0  0  0  0  0  0  0  0  0  0  0
  -33.4690  -14.2459   22.4978 O   0  0  0  0  0  0  0  0  0  0  0  0
  -21.7946   -6.9796   21.8740 O   0  0  0  0  0  0  0  0  0  0  0  0
  -29.4052  -20.2813   20.9470 O   0  0  0  0  0  0  0  0  0  1  0  0
  -19.7805   -6.5704   26.9906 F   0  0  0  0  0  0  0  0  0  0  0  0
  -22.6109   -4.9475   23.5613 F   0  0  0  0  0  0  0  0  0  0  0  0
  1  2  1  0  0  0  0
  1  5  2  0  0  0  0
  2  6  2  0  0  0  0
  3  8  2  0  0  0  0
  3 16  1  0  0  0  0
  4  9  1  0  0  0  0
  4 16  2  0  0  0  0
  5 18  1  0  0  0  0
  6 20  1  0  0  0  0
  7 10  2  0  0  0  0
  7 19  1  0  0  0  0
  8 22  1  0  0  0  0
  9 22  2  0  0  0  0
 10 23  1  0  0  0  0
 11 12  2  0  0  0  0
 11 24  1  0  0  0  0
 12 25  1  0  0  0  0
 13 21  1  0  0  0  0
 13 23  2  0  0  0  0
 14 25  2  0  0  0  0
 14 26  1  0  0  0  0
 15 28  2  0  0  0  0
 15 29  1  0  0  0  0
 16 27  1  0  0  0  0
 17 27  1  0  0  0  0
 17 30  2  0  0  0  0
 17 31  1  0  0  0  0
 18 20  2  0  0  0  0
 18 37  1  0  0  0  0
 19 21  2  0  0  0  0
 19 38  1  0  0  0  0
 20 46  1  0  0  0  0
 21 39  1  0  0  0  0
 22 79  1  0  0  0  0
 23 80  1  0  0  0  0
 24 26  2  0  0  0  0
 24 79  1  0  0  0  0
 25 81  1  0  0  0  0
 26 82  1  0  0  0  0
 27 60  2  0  0  0  0
 28 54  1  0  0  0  0
 28 78  1  0  0  0  0
 29 61  2  0  0  0  0
 29 67  1  0  0  0  0
 30 62  1  0  0  0  0
 30 65  1  0  0  0  0
 31 66  1  0  0  0  0
 31 72  2  0  0  0  0
 32 47  1  0  0  0  0
 32 68  1  0  0  0  0
 32 73  2  0  0  0  0
 33 57  1  0  0  0  0
 33 63  1  0  0  0  0
 33 74  2  0  0  0  0
 34 55  1  0  0  0  0
 34 67  1  0  0  0  0
 34 75  2  0  0  0  0
 35 58  1  0  0  0  0
 35 69  1  0  0  0  0
 35 76  2  0  0  0  0
 36 64  1  0  0  0  0
 36 70  1  0  0  0  0
 36 77  2  0  0  0  0
 37 40  1  0  0  0  0
 38 47  1  0  0  0  0
 39 63  1  0  0  0  0
 40 42  1  0  0  0  0
 41 43  1  0  0  0  0
 41 44  1  0  0  0  0
 42 46  1  0  0  0  0
 43 48  1  0  0  0  0
 44 64  1  0  0  0  0
 45 48  1  0  0  0  0
 45 64  1  0  0  0  0
 46 68  1  0  0  0  0
 47 63  1  0  0  0  0
 48 62  1  0  0  0  0
 49 58  1  0  0  0  0
 50 59  1  0  0  0  0
 51 59  1  0  0  0  0
 52 59  1  0  0  0  0
 53 71  1  0  0  0  0
 54 70  1  0  0  0  0
 55 56  1  0  0  0  0
 56 80  1  0  0  0  0
 57 59  1  0  0  0  0
 57 69  1  0  0  0  0
 58 71  1  0  0  0  0
 60 62  1  0  0  0  0
 61 78  1  0  0  0  0
M  CHG  1  71   1
M  ISO  4  36 100  56 101  70 100  80 101
M  END
> <Batch ID>
0157

> <Smiles>
CNC(C)C(=O)NC(C(=O)N1Cc2cc([101O:1][101CH2:1]CC(=O)Nc3cc(C[100NH:0][100C:0](=O)N4CCCC(n5nc(-c6ccc(Oc7ccc(F)cc7F)cc6)c(C(N)=O)c5N)C4)on3)ccc2CC1C(=O)NC1CCCc2ccccc21)C(C)(C)C

> <Shape>
0.238

> <Color>
0.173

> <Negative vol penalty>
0.000

$$$$

  -OEChem-04052303413D

 89 98  0     1  0  0  0  0  0999 V2000
  -30.3354  -33.5321   24.7836 C   0  0  0  0  0  0  0  0  0  0  0  0
  -30.1999  -32.1480   24.8214 C   0  0  0  0  0  0  0  0  0  0  0  0
  -23.2627   -9.6671   20.3870 C   0  0  0  0  0  0  0  0  0  0  0  0
  -23.8772  -10.1610   22.6707 C   0  0  0  0  0  0  0  0  0  0  0  0
  -29.2795  -34.3226   24.3318 C   0  0  0  0  0  0  0  0  0  0  0  0
  -29.0080  -31.5537   24.4085 C   0  0  0  0  0  0  0  0  0  0  0  0
  -28.3738  -26.1775   21.5448 C   0  0  0  0  0  0  0  0  0  0  0  0
  -22.5752   -8.5323   20.8174 C   0  0  0  0  0  0  0  0  0  0  0  0
  -23.1896   -9.0262   23.1012 C   0  0  0  0  0  0  0  0  0  0  0  0
  -28.0465  -24.9027   22.0047 C   0  0  0  0  0  0  0  0  0  0  0  0
  -19.9839   -8.1307   23.6859 C   0  0  0  0  0  0  0  0  0  0  0  0
  -19.1596   -8.2594   24.8037 C   0  0  0  0  0  0  0  0  0  0  0  0
  -25.7408  -25.2862   21.4080 C   0  0  0  0  0  0  0  0  0  0  0  0
  -31.2837  -19.3917   23.3525 C   0  0  0  0  0  0  0  0  0  0  0  0
  -31.6554  -17.3754   22.0745 C   0  0  0  0  0  0  0  0  0  0  0  0
  -20.4668   -6.5887   25.9600 C   0  0  0  0  0  0  0  0  0  0  0  0
  -23.9138  -10.4814   21.3137 C   0  0  0  0  0  0  0  0  0  0  0  0
  -29.4084  -18.1991   22.4050 C   0  0  0  0  0  0  0  0  0  0  0  0
  -24.1106  -12.9561   20.7264 C   0  0  0  0  0  0  0  0  0  0  0  0
  -28.0775  -33.7371   23.9040 C   0  0  0  0  0  0  0  0  0  0  0  0
  -27.3836  -27.0218   21.0223 C   0  0  0  0  0  0  0  0  0  0  0  0
  -27.9346  -32.3372   23.9518 C   0  0  0  0  0  0  0  0  0  0  0  0
  -26.0586  -26.5703   20.9398 C   0  0  0  0  0  0  0  0  0  0  0  0
  -29.9097  -19.2688   23.1468 C   0  0  0  0  0  0  0  0  0  0  0  0
  -32.1567  -18.4450   22.8163 C   0  0  0  0  0  0  0  0  0  0  0  0
  -30.2813  -17.2524   21.8689 C   0  0  0  0  0  0  0  0  0  0  0  0
  -22.5386   -8.2119   22.1744 C   0  0  0  0  0  0  0  0  0  0  0  0
  -26.7293  -24.4579   21.9390 C   0  0  0  0  0  0  0  0  0  0  0  0
  -21.0496   -7.2309   23.7051 C   0  0  0  0  0  0  0  0  0  0  0  0
  -19.4010   -7.4884   25.9408 C   0  0  0  0  0  0  0  0  0  0  0  0
  -21.2911   -6.4599   24.8422 C   0  0  0  0  0  0  0  0  0  0  0  0
  -24.6247  -11.6534   20.8697 C   0  0  0  0  0  0  0  0  0  0  0  0
  -25.1763  -13.6986   20.2800 C   0  0  0  0  0  0  0  0  0  0  0  0
  -27.4756  -21.9195   24.0202 C   0  0  0  0  0  0  0  0  0  0  0  0
  -28.1599  -21.0838   22.9979 C   0  0  0  0  0  0  0  0  0  0  0  0
  -27.9688  -18.0703   22.1896 C   0  0  0  0  0  0  0  0  0  0  0  0
  -22.7880  -13.4507   20.9749 C   0  0  0  0  0  0  0  0  0  0  0  0
  -26.6518  -22.9202   23.6996 C   0  0  0  0  0  0  0  0  0  1  0  0
  -26.1998  -29.8590   21.8299 C   0  0  0  0  0  0  0  0  0  0  0  0
  -24.5749  -29.5401   19.0406 C   0  0  0  0  0  0  0  0  0  0  0  0
  -23.2979  -27.4631   16.6527 C   0  0  0  0  0  0  0  0  0  0  0  0
  -30.5488  -15.1418   20.5198 C   0  0  0  0  0  0  0  0  0  0  0  0
  -26.9471  -34.6355   23.4684 C   0  0  0  0  0  0  0  0  0  0  0  0
  -27.7577  -28.3840   20.5058 C   0  0  0  0  0  0  0  0  0  0  0  0
  -24.9619  -27.4303   20.3688 C   0  0  0  0  0  0  0  0  0  0  0  0
  -27.8673  -21.4847   25.3890 C   0  0  0  0  0  0  0  0  0  0  0  0
  -25.8520  -33.9053   22.6953 C   0  0  0  0  0  0  0  0  0  0  0  0
  -29.7298  -12.2513   18.6088 C   0  0  0  0  0  0  0  0  0  0  0  0
  -25.4703  -32.6102   23.4051 C   0  0  0  0  0  0  0  0  0  0  0  0
  -28.2864  -11.9452   19.0149 C   0  0  0  0  0  0  0  0  0  0  0  0
  -29.0309  -20.5413   25.1327 C   0  0  0  0  0  0  0  0  0  0  0  0
  -30.5534  -12.7671   19.7876 C   0  0  0  0  0  0  0  0  0  0  0  0
  -28.5245  -13.6031   20.9075 C   0  0  0  0  0  0  0  0  0  0  0  0
  -26.6662  -31.6539   23.4888 C   0  0  1  0  0  0  0  0  0  0  0  0
  -26.5797  -29.3526   20.4672 C   0  0  1  0  0  0  0  0  0  0  0  0
  -27.6387  -13.1421   19.7385 C   0  0  2  0  0  0  0  0  0  0  0  0
  -27.1021  -17.9384   23.4042 C   0  0  0  0  0  0  0  0  0  0  0  0
  -25.9533  -23.7730   24.7092 C   0  0  0  0  0  0  0  0  0  0  0  0
  -21.9880  -27.4924   14.5125 C   0  0  0  0  0  0  0  0  0  0  0  0
  -22.0151  -30.0619   20.6172 C   0  0  0  0  0  0  0  0  0  0  0  0
  -20.7182  -29.1540   18.6776 C   0  0  0  0  0  0  0  0  0  0  0  0
  -22.1195  -31.1979   18.3916 C   0  0  0  0  0  0  0  0  0  0  0  0
  -25.5197  -26.2239   15.1405 C   0  0  0  0  0  0  0  0  0  0  0  0
  -23.2455  -28.9478   18.6395 C   0  0  1  0  0  0  0  0  0  0  0  0
  -23.3745  -27.5033   15.1372 C   0  0  2  0  0  0  0  0  0  0  0  0
  -22.0447  -29.8247   19.0941 C   0  0  0  0  0  0  0  0  0  0  0  0
  -25.9165  -11.5698   20.5407 N   0  0  0  0  0  0  0  0  0  0  0  0
  -26.2231  -12.8293   20.1862 N   0  0  0  0  0  0  0  0  0  0  0  0
  -29.0366  -20.2526   23.7071 N   0  0  0  0  0  0  0  0  0  0  0  0
  -25.3767  -28.7566   19.8826 N   0  0  0  0  0  0  0  0  0  0  0  0
  -29.8803  -13.9031   20.4212 N   0  0  0  0  0  0  0  0  0  0  0  0
  -33.5461  -18.5695   23.0241 N   0  0  0  0  0  0  0  0  0  0  0  0
  -25.3108  -15.0038   19.9623 N   0  0  0  0  0  0  0  0  0  0  0  0
  -21.8134  -12.5525   21.4306 N   0  0  0  0  0  0  0  0  0  0  0  0
  -29.7977  -16.1567   21.1116 N   0  0  0  0  0  0  0  0  0  0  0  0
  -26.8793  -30.9986   22.2162 N   0  0  0  0  0  0  0  0  0  0  0  0
  -23.3141  -28.7292   17.1987 N   0  0  0  0  0  0  0  0  0  0  0  0
  -24.1300  -26.3251   14.6253 N   0  3  0  0  0  0  0  0  0  0  0  0
  -27.9434  -21.1787   21.8013 O   0  0  0  0  0  0  0  0  0  0  0  0
  -27.4247  -18.0580   21.0879 O   0  0  0  0  0  0  0  0  0  0  0  0
  -22.4754  -14.6502   20.7823 O   0  0  0  0  0  0  0  0  0  0  0  0
  -25.3519  -29.2611   22.4820 O   0  0  0  0  0  0  0  0  0  0  0  0
  -24.8934  -30.6539   18.6166 O   0  0  0  0  0  0  0  0  0  0  0  0
  -23.2267  -26.4137   17.2885 O   0  0  0  0  0  0  0  0  0  0  0  0
  -31.6925  -15.2984   20.0848 O   0  0  0  0  0  0  0  0  0  0  0  0
  -21.8676   -7.1049   22.5948 O   0  0  0  0  0  0  0  0  0  0  0  0
  -26.4069  -23.2143   22.3877 O   0  0  0  0  0  0  0  0  0  1  0  0
  -18.6103   -7.6132   27.0147 F   0  0  0  0  0  0  0  0  0  0  0  0
  -22.3141   -5.5947   24.8670 F   0  0  0  0  0  0  0  0  0  0  0  0
  1  2  1  0  0  0  0
  1  5  2  0  0  0  0
  2  6  2  0  0  0  0
  3  8  2  0  0  0  0
  3 17  1  0  0  0  0
  4  9  1  0  0  0  0
  4 17  2  0  0  0  0
  5 20  1  0  0  0  0
  6 22  1  0  0  0  0
  7 10  2  0  0  0  0
  7 21  1  0  0  0  0
  8 27  1  0  0  0  0
  9 27  2  0  0  0  0
 10 28  1  0  0  0  0
 11 12  2  0  0  0  0
 11 29  1  0  0  0  0
 12 30  1  0  0  0  0
 13 23  1  0  0  0  0
 13 28  2  0  0  0  0
 14 24  1  0  0  0  0
 14 25  2  0  0  0  0
 15 25  1  0  0  0  0
 15 26  2  0  0  0  0
 16 30  2  0  0  0  0
 16 31  1  0  0  0  0
 17 32  1  0  0  0  0
 18 24  2  0  0  0  0
 18 26  1  0  0  0  0
 18 36  1  0  0  0  0
 19 32  1  0  0  0  0
 19 33  2  0  0  0  0
 19 37  1  0  0  0  0
 20 22  2  0  0  0  0
 20 43  1  0  0  0  0
 21 23  2  0  0  0  0
 21 44  1  0  0  0  0
 22 54  1  0  0  0  0
 23 45  1  0  0  0  0
 24 69  1  0  0  0  0
 25 72  1  0  0  0  0
 26 75  1  0  0  0  0
 27 86  1  0  0  0  0
 28 87  1  0  0  0  0
 29 31  2  0  0  0  0
 29 86  1  0  0  0  0
 30 88  1  0  0  0  0
 31 89  1  0  0  0  0
 32 67  2  0  0  0  0
 33 68  1  0  0  0  0
 33 73  1  0  0  0  0
 34 35  1  0  0  0  0
 34 38  2  0  0  0  0
 34 46  1  0  0  0  0
 35 69  1  0  0  0  0
 35 79  2  0  0  0  0
 36 57  1  0  0  0  0
 36 80  2  0  0  0  0
 37 74  1  0  0  0  0
 37 81  2  0  0  0  0
 38 58  1  0  0  0  0
 38 87  1  0  0  0  0
 39 55  1  0  0  0  0
 39 76  1  0  0  0  0
 39 82  2  0  0  0  0
 40 64  1  0  0  0  0
 40 70  1  0  0  0  0
 40 83  2  0  0  0  0
 41 65  1  0  0  0  0
 41 77  1  0  0  0  0
 41 84  2  0  0  0  0
 42 71  1  0  0  0  0
 42 75  1  0  0  0  0
 42 85  2  0  0  0  0
 43 47  1  0  0  0  0
 44 55  1  0  0  0  0
 45 70  1  0  0  0  0
 46 51  1  0  0  0  0
 47 49  1  0  0  0  0
 48 50  1  0  0  0  0
 48 52  1  0  0  0  0
 49 54  1  0  0  0  0
 50 56  1  0  0  0  0
 51 69  1  0  0  0  0
 52 71  1  0  0  0  0
 53 56  1  0  0  0  0
 53 71  1  0  0  0  0
 54 76  1  0  0  0  0
 55 70  1  0  0  0  0
 56 68  1  0  0  0  0
 59 65  1  0  0  0  0
 60 66  1  0  0  0  0
 61 66  1  0  0  0  0
 62 66  1  0  0  0  0
 63 78  1  0  0  0  0
 64 66  1  0  0  0  0
 64 77  1  0  0  0  0
 65 78  1  0  0  0  0
 67 68  1  0  0  0  0
M  CHG  1  78   1
M  ISO  4  38 101  42 100  75 100  87 101
M  END
> <Batch ID>
0157

> <Smiles>
CNC(C)C(=O)NC(C(=O)N1Cc2cc([101O:1][101C:1](C)=C3CCN(c4cc(N)cc([100NH:0][100C:0](=O)N5CCCC(n6nc(-c7ccc(Oc8ccc(F)cc8F)cc7)c(C(N)=O)c6N)C5)c4C(C)=O)C3=O)ccc2CC1C(=O)NC1CCCc2ccccc21)C(C)(C)C

> <Shape>
0.279

> <Color>
0.167

> <Negative vol penalty>
0.000

$$$$

  -OEChem-04052303413D

 84 92  0     1  0  0  0  0  0999 V2000
  -27.4007  -25.6912   15.6741 C   0  0  0  0  0  0  0  0  0  0  0  0
  -26.2840  -25.7823   16.4988 C   0  0  0  0  0  0  0  0  0  0  0  0
  -27.7996  -14.1948   22.2490 C   0  0  0  0  0  0  0  0  0  0  0  0
  -26.5149  -15.2617   20.5032 C   0  0  0  0  0  0  0  0  0  0  0  0
  -28.6383  -26.1478   16.1255 C   0  0  0  0  0  0  0  0  0  0  0  0
  -26.4046  -26.3290   17.7759 C   0  0  0  0  0  0  0  0  0  0  0  0
  -22.6732  -29.5771   18.8587 C   0  0  0  0  0  0  0  0  0  0  0  0
  -27.2191  -12.9682   21.9266 C   0  0  0  0  0  0  0  0  0  0  0  0
  -25.9344  -14.0350   20.1807 C   0  0  0  0  0  0  0  0  0  0  0  0
  -21.4398  -29.0339   19.2155 C   0  0  0  0  0  0  0  0  0  0  0  0
  -24.2922  -11.3738   22.4882 C   0  0  0  0  0  0  0  0  0  0  0  0
  -23.8421  -10.5745   23.5389 C   0  0  0  0  0  0  0  0  0  0  0  0
  -23.7110  -23.3290   21.3693 C   0  0  0  0  0  0  0  0  0  0  0  0
  -21.9499  -29.4189   21.5416 C   0  0  0  0  0  0  0  0  0  0  0  0
  -25.3551   -8.8204   22.8528 C   0  0  0  0  0  0  0  0  0  0  0  0
  -27.4474  -15.3416   21.5373 C   0  0  0  0  0  0  0  0  0  0  0  0
  -23.0317  -24.5706   21.3587 C   0  0  0  0  0  0  0  0  0  0  0  0
  -29.2275  -17.1578   21.3361 C   0  0  0  0  0  0  0  0  0  0  0  0
  -28.7722  -26.7092   17.4052 C   0  0  0  0  0  0  0  0  0  0  0  0
  -23.5604  -30.0360   19.8430 C   0  0  0  0  0  0  0  0  0  0  0  0
  -27.6454  -26.7923   18.2453 C   0  0  0  0  0  0  0  0  0  0  0  0
  -23.1930  -29.9698   21.1945 C   0  0  0  0  0  0  0  0  0  0  0  0
  -26.2866  -12.8882   20.8924 C   0  0  0  0  0  0  0  0  0  0  0  0
  -21.0792  -28.9520   20.5573 C   0  0  0  0  0  0  0  0  0  0  0  0
  -25.2737  -10.8964   21.6196 C   0  0  0  0  0  0  0  0  0  0  0  0
  -24.3735   -9.2978   23.7213 C   0  0  0  0  0  0  0  0  0  0  0  0
  -25.8052   -9.6197   21.8019 C   0  0  0  0  0  0  0  0  0  0  0  0
  -28.0463  -16.6091   21.8703 C   0  0  0  0  0  0  0  0  0  0  0  0
  -29.3636  -18.3667   21.9736 C   0  0  0  0  0  0  0  0  0  0  0  0
  -24.2202  -23.1829   22.6386 C   0  0  0  0  0  0  0  0  0  0  0  0
  -23.1739  -25.0946   22.6226 C   0  0  0  0  0  0  0  0  0  0  0  0
  -22.3165  -25.1740   20.2164 C   0  0  0  0  0  0  0  0  0  0  0  0
  -30.1218  -16.6225   20.3515 C   0  0  0  0  0  0  0  0  0  0  0  0
  -26.4957  -29.2380   20.7652 C   0  0  0  0  0  0  0  0  0  0  0  0
  -26.1820  -31.8397   22.6770 C   0  0  0  0  0  0  0  0  0  0  0  0
  -24.1069  -34.0016   24.3102 C   0  0  0  0  0  0  0  0  0  0  0  0
  -25.4584  -22.0900   24.5410 C   0  0  0  0  0  0  0  0  0  0  0  0
  -30.1399  -27.1458   17.8669 C   0  0  0  0  0  0  0  0  0  0  0  0
  -24.8759  -30.6438   19.4401 C   0  0  0  0  0  0  0  0  0  0  0  0
  -24.1009  -30.4673   22.2884 C   0  0  0  0  0  0  0  0  0  0  0  0
  -30.1075  -28.0552   19.0926 C   0  0  0  0  0  0  0  0  0  0  0  0
  -28.2865  -20.5746   26.0844 C   0  0  0  0  0  0  0  0  0  0  0  0
  -29.1690  -27.4884   20.1532 C   0  0  0  0  0  0  0  0  0  0  0  0
  -28.6571  -19.4395   25.1272 C   0  0  0  0  0  0  0  0  0  0  0  0
  -26.7738  -20.7645   26.1804 C   0  0  0  0  0  0  0  0  0  0  0  0
  -26.4569  -19.7981   23.9365 C   0  0  0  0  0  0  0  0  0  0  0  0
  -27.7309  -27.4019   19.6278 C   0  0  1  0  0  0  0  0  0  0  0  0
  -25.9168  -30.6085   20.5549 C   0  0  1  0  0  0  0  0  0  0  0  0
  -27.9724  -19.6115   23.7571 C   0  0  2  0  0  0  0  0  0  0  0  0
  -24.1434  -36.0035   25.8230 C   0  0  0  0  0  0  0  0  0  0  0  0
  -26.9252  -30.0450   25.0299 C   0  0  0  0  0  0  0  0  0  0  0  0
  -26.0335  -31.8087   26.5669 C   0  0  0  0  0  0  0  0  0  0  0  0
  -27.9707  -32.3163   25.0794 C   0  0  0  0  0  0  0  0  0  0  0  0
  -18.4762  -28.1212   18.9967 C   0  0  0  0  0  0  0  0  0  0  0  0
  -18.4599  -26.4935   20.9019 C   0  0  0  0  0  0  0  0  0  0  0  0
  -22.6725  -35.6691   22.3301 C   0  0  0  0  0  0  0  0  0  0  0  0
  -20.4815  -26.6227   19.4221 C   0  0  0  0  0  0  0  0  0  0  0  0
  -25.6629  -32.0840   24.0734 C   0  0  1  0  0  0  0  0  0  0  0  0
  -24.0872  -35.5178   24.3830 C   0  0  2  0  0  0  0  0  0  0  0  0
  -26.6315  -31.5523   25.1672 C   0  0  0  0  0  0  0  0  0  0  0  0
  -19.3333  -27.4188   20.0506 C   0  0  0  0  0  0  0  0  0  1  0  0
  -27.4728  -17.4042   22.7775 N   0  0  0  0  0  0  0  0  0  0  0  0
  -28.2973  -18.4647   22.8183 N   0  0  0  0  0  0  0  0  0  0  0  0
  -25.3791  -31.0474   21.8443 N   0  0  0  0  0  0  0  0  0  0  0  0
  -26.1945  -20.9254   24.8449 N   0  0  0  0  0  0  0  0  0  0  0  0
  -30.2902  -19.3448   21.8884 N   0  0  0  0  0  0  0  0  0  0  0  0
  -22.7373  -26.2433   23.1804 N   0  0  0  0  0  0  0  0  0  0  0  0
  -22.7495  -24.8963   18.9866 N   0  0  0  0  0  0  0  0  0  0  0  0
  -29.8328  -15.3675   19.7983 N   0  0  0  0  0  0  0  0  0  0  0  0
  -24.9840  -22.1468   23.2309 N   0  0  0  0  0  0  0  0  0  0  0  0
  -27.1071  -28.7076   19.6452 N   0  0  0  0  0  0  0  0  0  0  0  0
  -25.3882  -33.5140   24.1624 N   0  0  0  0  0  0  0  0  0  0  0  0
  -21.2722  -25.9702   20.4707 N   0  3  0  0  0  0  0  0  0  0  0  0
  -22.8448  -36.0504   23.7555 N   0  3  0  0  0  0  0  0  0  0  0  0
  -31.1556  -17.2314   19.9854 O   0  0  0  0  0  0  0  0  0  0  0  0
  -26.3965  -28.7021   21.8628 O   0  0  0  0  0  0  0  0  0  0  0  0
  -27.2566  -32.3397   22.3353 O   0  0  0  0  0  0  0  0  0  0  0  0
  -23.0880  -33.3180   24.3813 O   0  0  0  0  0  0  0  0  0  0  0  0
  -25.2864  -22.9846   25.3729 O   0  0  0  0  0  0  0  0  0  0  0  0
  -23.8971  -24.2548   23.4089 O   0  0  0  0  0  0  0  0  0  0  0  0
  -25.7201  -11.6914   20.5774 O   0  0  0  0  0  0  0  0  0  0  0  0
  -19.8761  -28.4217   20.9084 O   0  0  0  0  0  0  0  0  0  1  0  0
  -23.9423   -8.5310   24.7313 F   0  0  0  0  0  0  0  0  0  0  0  0
  -26.7492   -9.1560   20.9715 F   0  0  0  0  0  0  0  0  0  0  0  0
  1  2  1  0  0  0  0
  1  5  2  0  0  0  0
  2  6  2  0  0  0  0
  3  8  2  0  0  0  0
  3 16  1  0  0  0  0
  4  9  1  0  0  0  0
  4 16  2  0  0  0  0
  5 19  1  0  0  0  0
  6 21  1  0  0  0  0
  7 10  2  0  0  0  0
  7 20  1  0  0  0  0
  8 23  1  0  0  0  0
  9 23  2  0  0  0  0
 10 24  1  0  0  0  0
 11 12  2  0  0  0  0
 11 25  1  0  0  0  0
 12 26  1  0  0  0  0
 13 17  1  0  0  0  0
 13 30  2  0  0  0  0
 14 22  1  0  0  0  0
 14 24  2  0  0  0  0
 15 26  2  0  0  0  0
 15 27  1  0  0  0  0
 16 28  1  0  0  0  0
 17 31  2  0  0  0  0
 17 32  1  0  0  0  0
 18 28  1  0  0  0  0
 18 29  2  0  0  0  0
 18 33  1  0  0  0  0
 19 21  2  0  0  0  0
 19 38  1  0  0  0  0
 20 22  2  0  0  0  0
 20 39  1  0  0  0  0
 21 47  1  0  0  0  0
 22 40  1  0  0  0  0
 23 81  1  0  0  0  0
 24 82  1  0  0  0  0
 25 27  2  0  0  0  0
 25 81  1  0  0  0  0
 26 83  1  0  0  0  0
 27 84  1  0  0  0  0
 28 62  2  0  0  0  0
 29 63  1  0  0  0  0
 29 66  1  0  0  0  0
 30 70  1  0  0  0  0
 30 80  1  0  0  0  0
 31 67  1  0  0  0  0
 31 80  1  0  0  0  0
 32 68  1  0  0  0  0
 32 73  2  0  0  0  0
 33 69  1  0  0  0  0
 33 75  2  0  0  0  0
 34 48  1  0  0  0  0
 34 71  1  0  0  0  0
 34 76  2  0  0  0  0
 35 58  1  0  0  0  0
 35 64  1  0  0  0  0
 35 77  2  0  0  0  0
 36 59  1  0  0  0  0
 36 72  1  0  0  0  0
 36 78  2  0  0  0  0
 37 65  1  0  0  0  0
 37 70  1  0  0  0  0
 37 79  2  0  0  0  0
 38 41  1  0  0  0  0
 39 48  1  0  0  0  0
 40 64  1  0  0  0  0
 41 43  1  0  0  0  0
 42 44  1  0  0  0  0
 42 45  1  0  0  0  0
 43 47  1  0  0  0  0
 44 49  1  0  0  0  0
 45 65  1  0  0  0  0
 46 49  1  0  0  0  0
 46 65  1  0  0  0  0
 47 71  1  0  0  0  0
 48 64  1  0  0  0  0
 49 63  1  0  0  0  0
 50 59  1  0  0  0  0
 51 60  1  0  0  0  0
 52 60  1  0  0  0  0
 53 60  1  0  0  0  0
 54 61  1  0  0  0  0
 55 61  1  0  0  0  0
 56 74  1  0  0  0  0
 57 61  1  0  0  0  0
 57 73  1  0  0  0  0
 58 60  1  0  0  0  0
 58 72  1  0  0  0  0
 59 74  1  0  0  0  0
 61 82  1  0  0  0  0
 62 63  1  0  0  0  0
M  CHG  2  73   1  74   1
M  ISO  4  37 100  61 101  70 100  82 101
M  END
> <Batch ID>
0157

> <Smiles>
CNC(C)C(=O)NC(C(=O)N1Cc2cc([101O:1][101C:1](C)(C)CNC(=N)c3cc([100NH:0][100C:0](=O)N4CCCC(n5nc(-c6ccc(Oc7ccc(F)cc7F)cc6)c(C(N)=O)c5N)C4)oc3N)ccc2CC1C(=O)NC1CCCc2ccccc21)C(C)(C)C

> <Shape>
0.243

> <Color>
0.073

> <Negative vol penalty>
0.000

$$$$

  -OEChem-04052303413D

 83 92  0     1  0  0  0  0  0999 V2000
  -17.5246  -26.1500   22.8949 C   0  0  0  0  0  0  0  0  0  0  0  0
  -18.8081  -25.7254   22.5665 C   0  0  0  0  0  0  0  0  0  0  0  0
  -25.4370  -13.3442   22.0733 C   0  0  0  0  0  0  0  0  0  0  0  0
  -26.1763  -13.7123   19.8028 C   0  0  0  0  0  0  0  0  0  0  0  0
  -17.1728  -27.4897   22.7362 C   0  0  0  0  0  0  0  0  0  0  0  0
  -19.7402  -26.6403   22.0780 C   0  0  0  0  0  0  0  0  0  0  0  0
  -25.7798  -26.6399   23.0925 C   0  0  0  0  0  0  0  0  0  0  0  0
  -24.4741  -12.4456   21.6141 C   0  0  0  0  0  0  0  0  0  0  0  0
  -25.2134  -12.8137   19.3436 C   0  0  0  0  0  0  0  0  0  0  0  0
  -26.8581  -26.1841   22.3354 C   0  0  0  0  0  0  0  0  0  0  0  0
  -24.3614   -9.2286   20.5791 C   0  0  0  0  0  0  0  0  0  0  0  0
  -24.2207   -8.0225   21.2654 C   0  0  0  0  0  0  0  0  0  0  0  0
  -27.1868  -28.4129   21.4730 C   0  0  0  0  0  0  0  0  0  0  0  0
  -21.9206   -8.5723   21.7599 C   0  0  0  0  0  0  0  0  0  0  0  0
  -26.2881  -13.9776   21.1676 C   0  0  0  0  0  0  0  0  0  0  0  0
  -28.6053  -14.6136   22.0243 C   0  0  0  0  0  0  0  0  0  0  0  0
  -18.1040  -28.4233   22.2547 C   0  0  0  0  0  0  0  0  0  0  0  0
  -25.3894  -27.9856   23.0372 C   0  0  0  0  0  0  0  0  0  0  0  0
  -19.4001  -27.9936   21.9114 C   0  0  0  0  0  0  0  0  0  0  0  0
  -26.1048  -28.8837   22.2324 C   0  0  0  0  0  0  0  0  0  0  0  0
  -24.3622  -12.1803   20.2493 C   0  0  0  0  0  0  0  0  0  0  0  0
  -27.5599  -27.0700   21.5232 C   0  0  0  0  0  0  0  0  0  0  0  0
  -23.2818  -10.1067   20.4832 C   0  0  0  0  0  0  0  0  0  0  0  0
  -23.0003   -7.6943   21.8558 C   0  0  0  0  0  0  0  0  0  0  0  0
  -22.0614   -9.7785   21.0736 C   0  0  0  0  0  0  0  0  0  0  0  0
  -27.2826  -14.9064   21.6413 C   0  0  0  0  0  0  0  0  0  0  0  0
  -29.4209  -23.3746   17.2610 C   0  0  0  0  0  0  0  0  0  0  0  0
  -29.1329  -15.8272   22.3920 C   0  0  0  0  0  0  0  0  0  0  0  0
  -29.5881  -22.3231   16.3843 C   0  0  0  0  0  0  0  0  0  0  0  0
  -28.7218  -21.7498   18.5576 C   0  0  0  0  0  0  0  0  0  0  0  0
  -29.5032  -26.3718   18.6149 C   0  0  0  0  0  0  0  0  0  0  0  0
  -29.2952  -13.3569   22.0457 C   0  0  0  0  0  0  0  0  0  0  0  0
  -22.7564  -29.5222   22.1373 C   0  0  0  0  0  0  0  0  0  0  0  0
  -24.3399  -32.1078   23.2904 C   0  0  0  0  0  0  0  0  0  0  0  0
  -27.3254  -33.5695   24.0632 C   0  0  0  0  0  0  0  0  0  0  0  0
  -27.8333  -21.4649   20.8976 C   0  0  0  0  0  0  0  0  0  0  0  0
  -17.6631  -29.8518   22.0554 C   0  0  0  0  0  0  0  0  0  0  0  0
  -24.2408  -28.4670   23.8806 C   0  0  0  0  0  0  0  0  0  0  0  0
  -25.7386  -30.3425   22.1532 C   0  0  0  0  0  0  0  0  0  0  0  0
  -18.8232  -30.8293   21.8857 C   0  0  0  0  0  0  0  0  0  0  0  0
  -27.8508  -20.0815   24.1783 C   0  0  0  0  0  0  0  0  0  0  0  0
  -19.8456  -30.2779   20.8970 C   0  0  0  0  0  0  0  0  0  0  0  0
  -27.8336  -18.5707   23.9349 C   0  0  0  0  0  0  0  0  0  0  0  0
  -27.0028  -20.8311   23.1523 C   0  0  0  0  0  0  0  0  0  0  0  0
  -27.3018  -19.0229   21.5059 C   0  0  0  0  0  0  0  0  0  0  0  0
  -31.1163  -25.2297   17.4905 C   0  0  0  0  0  0  0  0  0  0  0  0
  -20.4467  -28.9607   21.4020 C   0  0  1  0  0  0  0  0  0  0  0  0
  -29.7200  -24.7907   16.9890 C   0  0  2  0  0  0  0  0  0  0  0  0
  -23.6093  -29.7516   23.3529 C   0  0  1  0  0  0  0  0  0  0  0  0
  -28.1943  -18.2310   22.4754 C   0  0  2  0  0  0  0  0  0  0  0  0
  -28.3024  -35.7028   24.9531 C   0  0  0  0  0  0  0  0  0  0  0  0
  -23.8495  -33.4534   20.5962 C   0  0  0  0  0  0  0  0  0  0  0  0
  -25.6139  -35.1275   21.1898 C   0  0  0  0  0  0  0  0  0  0  0  0
  -23.5496  -34.9480   22.5788 C   0  0  0  0  0  0  0  0  0  0  0  0
  -28.5211  -32.1869   26.3908 C   0  0  0  0  0  0  0  0  0  0  0  0
  -28.8701  -27.3028   19.5521 C   0  0  0  0  0  0  0  0  0  1  0  0
  -25.2945  -33.1232   22.7102 C   0  0  1  0  0  0  0  0  0  0  0  0
  -27.7922  -34.3131   25.3016 C   0  0  2  0  0  0  0  0  0  0  0  0
  -24.5828  -34.1352   21.7686 C   0  0  0  0  0  0  0  0  0  0  0  0
  -26.9881  -16.2042   21.7553 N   0  0  0  0  0  0  0  0  0  0  0  0
  -28.9239  -23.0478   18.5076 N   0  0  0  0  0  0  0  0  0  0  0  0
  -28.1331  -16.7376   22.2141 N   0  0  0  0  0  0  0  0  0  0  0  0
  -28.7994  -25.6245   17.7844 N   0  0  0  0  0  0  0  0  0  0  0  0
  -24.6041  -30.7636   22.9918 N   0  0  0  0  0  0  0  0  0  0  0  0
  -27.4037  -20.4624   21.7928 N   0  0  0  0  0  0  0  0  0  0  0  0
  -30.8114  -26.2150   18.5369 N   0  3  0  0  0  0  0  0  0  0  0  0
  -30.3499  -16.1937   22.8469 N   0  0  0  0  0  0  0  0  0  0  0  0
  -30.0524  -22.3615   15.1117 N   0  0  0  0  0  0  0  0  0  0  0  0
  -28.6046  -12.2085   21.6354 N   0  0  0  0  0  0  0  0  0  0  0  0
  -28.2204  -20.9914   19.6444 N   0  0  0  0  0  0  0  0  0  0  0  0
  -21.4395  -29.2169   22.4234 N   0  0  0  0  0  0  0  0  0  0  0  0
  -25.9746  -33.7389   23.8446 N   0  0  0  0  0  0  0  0  0  0  0  0
  -28.8916  -33.5634   25.9724 N   0  3  0  0  0  0  0  0  0  0  0  0
  -30.4837  -13.2530   22.4332 O   0  0  0  0  0  0  0  0  0  0  0  0
  -23.2559  -29.6168   21.0222 O   0  0  0  0  0  0  0  0  0  0  0  0
  -23.3989  -32.4925   23.9890 O   0  0  0  0  0  0  0  0  0  0  0  0
  -28.0840  -32.9077   23.3582 O   0  0  0  0  0  0  0  0  0  0  0  0
  -27.8818  -22.6525   21.2280 O   0  0  0  0  0  0  0  0  0  0  0  0
  -23.4229  -11.3034   19.8008 O   0  0  0  0  0  0  0  0  0  0  0  0
  -28.6124  -26.6277   20.7826 O   0  0  0  0  0  0  0  0  0  1  0  0
  -22.8648   -6.5353   22.5135 F   0  0  0  0  0  0  0  0  0  0  0  0
  -21.0202  -10.6174   20.9838 F   0  0  0  0  0  0  0  0  0  0  0  0
  -29.1084  -20.8610   17.1414 S   0  0  0  0  0  0  0  0  0  0  0  0
  1  2  1  0  0  0  0
  1  5  2  0  0  0  0
  2  6  2  0  0  0  0
  3  8  2  0  0  0  0
  3 15  1  0  0  0  0
  4  9  1  0  0  0  0
  4 15  2  0  0  0  0
  5 17  1  0  0  0  0
  6 19  1  0  0  0  0
  7 10  2  0  0  0  0
  7 18  1  0  0  0  0
  8 21  1  0  0  0  0
  9 21  2  0  0  0  0
 10 22  1  0  0  0  0
 11 12  2  0  0  0  0
 11 23  1  0  0  0  0
 12 24  1  0  0  0  0
 13 20  1  0  0  0  0
 13 22  2  0  0  0  0
 14 24  2  0  0  0  0
 14 25  1  0  0  0  0
 15 26  1  0  0  0  0
 16 26  1  0  0  0  0
 16 28  2  0  0  0  0
 16 32  1  0  0  0  0
 17 19  2  0  0  0  0
 17 37  1  0  0  0  0
 18 20  2  0  0  0  0
 18 38  1  0  0  0  0
 19 47  1  0  0  0  0
 20 39  1  0  0  0  0
 21 79  1  0  0  0  0
 22 80  1  0  0  0  0
 23 25  2  0  0  0  0
 23 79  1  0  0  0  0
 24 81  1  0  0  0  0
 25 82  1  0  0  0  0
 26 60  2  0  0  0  0
 27 29  2  0  0  0  0
 27 48  1  0  0  0  0
 27 61  1  0  0  0  0
 28 62  1  0  0  0  0
 28 67  1  0  0  0  0
 29 68  1  0  0  0  0
 29 83  1  0  0  0  0
 30 61  2  0  0  0  0
 30 70  1  0  0  0  0
 30 83  1  0  0  0  0
 31 56  1  0  0  0  0
 31 63  1  0  0  0  0
 31 66  2  0  0  0  0
 32 69  1  0  0  0  0
 32 74  2  0  0  0  0
 33 49  1  0  0  0  0
 33 71  1  0  0  0  0
 33 75  2  0  0  0  0
 34 57  1  0  0  0  0
 34 64  1  0  0  0  0
 34 76  2  0  0  0  0
 35 58  1  0  0  0  0
 35 72  1  0  0  0  0
 35 77  2  0  0  0  0
 36 65  1  0  0  0  0
 36 70  1  0  0  0  0
 36 78  2  0  0  0  0
 37 40  1  0  0  0  0
 38 49  1  0  0  0  0
 39 64  1  0  0  0  0
 40 42  1  0  0  0  0
 41 43  1  0  0  0  0
 41 44  1  0  0  0  0
 42 47  1  0  0  0  0
 43 50  1  0  0  0  0
 44 65  1  0  0  0  0
 45 50  1  0  0  0  0
 45 65  1  0  0  0  0
 46 48  1  0  0  0  0
 46 66  1  0  0  0  0
 47 71  1  0  0  0  0
 48 63  1  0  0  0  0
 49 64  1  0  0  0  0
 50 62  1  0  0  0  0
 51 58  1  0  0  0  0
 52 59  1  0  0  0  0
 53 59  1  0  0  0  0
 54 59  1  0  0  0  0
 55 73  1  0  0  0  0
 56 80  1  0  0  0  0
 57 59  1  0  0  0  0
 57 72  1  0  0  0  0
 58 73  1  0  0  0  0
 60 62  1  0  0  0  0
M  CHG  2  66   1  73   1
M  ISO  4  36 100  56 101  70 100  80 101
M  END
> <Batch ID>
0157

> <Smiles>
CNC(C)C(=O)NC(C(=O)N1Cc2cc([101O:1][101CH2:1]C3=NCC(c4nc([100NH:0][100C:0](=O)N5CCCC(n6nc(-c7ccc(Oc8ccc(F)cc8F)cc7)c(C(N)=O)c6N)C5)sc4N)N3)ccc2CC1C(=O)NC1CCCc2ccccc21)C(C)(C)C

> <Shape>
0.315

> <Color>
0.110

> <Negative vol penalty>
0.000

$$$$

  -OEChem-04052303413D

 85 94  0     1  0  0  0  0  0999 V2000
  -28.4290  -37.4193   25.2757 C   0  0  0  0  0  0  0  0  0  0  0  0
  -28.7935  -36.1637   25.7512 C   0  0  0  0  0  0  0  0  0  0  0  0
  -22.9895   -9.7678   20.0270 C   0  0  0  0  0  0  0  0  0  0  0  0
  -24.5080   -9.1450   21.7999 C   0  0  0  0  0  0  0  0  0  0  0  0
  -27.1100  -37.6638   24.8960 C   0  0  0  0  0  0  0  0  0  0  0  0
  -27.8387  -35.1521   25.8482 C   0  0  0  0  0  0  0  0  0  0  0  0
  -28.6665  -28.9219   22.3282 C   0  0  0  0  0  0  0  0  0  0  0  0
  -21.9497   -9.1138   20.6877 C   0  0  0  0  0  0  0  0  0  0  0  0
  -23.4682   -8.4909   22.4607 C   0  0  0  0  0  0  0  0  0  0  0  0
  -28.8549  -27.6232   21.8547 C   0  0  0  0  0  0  0  0  0  0  0  0
  -21.8276   -5.5444   22.2213 C   0  0  0  0  0  0  0  0  0  0  0  0
  -22.0868   -4.2768   22.7425 C   0  0  0  0  0  0  0  0  0  0  0  0
  -25.2186  -19.8189   18.8251 C   0  0  0  0  0  0  0  0  0  0  0  0
  -25.1294  -18.4178   19.0041 C   0  0  0  0  0  0  0  0  0  0  0  0
  -26.6864  -26.9841   22.7132 C   0  0  0  0  0  0  0  0  0  0  0  0
  -21.5553   -5.0793   24.9585 C   0  0  0  0  0  0  0  0  0  0  0  0
  -24.2687   -9.7834   20.5830 C   0  0  0  0  0  0  0  0  0  0  0  0
  -25.8405  -10.1802   18.6133 C   0  0  0  0  0  0  0  0  0  0  0  0
  -26.1406  -36.6518   24.9793 C   0  0  0  0  0  0  0  0  0  0  0  0
  -27.4793  -29.2609   22.9832 C   0  0  0  0  0  0  0  0  0  0  0  0
  -26.5051  -35.3836   25.4705 C   0  0  0  0  0  0  0  0  0  0  0  0
  -26.4867  -28.2865   23.1786 C   0  0  0  0  0  0  0  0  0  0  0  0
  -22.1890   -8.4753   21.9046 C   0  0  0  0  0  0  0  0  0  0  0  0
  -27.8674  -26.6567   22.0470 C   0  0  0  0  0  0  0  0  0  0  0  0
  -21.4323   -6.5795   23.0688 C   0  0  0  0  0  0  0  0  0  0  0  0
  -21.9507   -4.0442   24.1111 C   0  0  0  0  0  0  0  0  0  0  0  0
  -21.2962   -6.3469   24.4373 C   0  0  0  0  0  0  0  0  0  0  0  0
  -25.3433  -10.4584   19.9007 C   0  0  0  0  0  0  0  0  0  0  0  0
  -26.8502  -11.0932   18.4305 C   0  0  0  0  0  0  0  0  0  0  0  0
  -26.4197  -20.1988   19.3772 C   0  0  0  0  0  0  0  0  0  0  0  0
  -26.2825  -18.0413   19.6527 C   0  0  0  0  0  0  0  0  0  0  0  0
  -25.4265   -9.1855   17.6674 C   0  0  0  0  0  0  0  0  0  0  0  0
  -25.4611  -31.9276   24.6836 C   0  0  0  0  0  0  0  0  0  0  0  0
  -23.5122  -30.2917   22.9701 C   0  0  0  0  0  0  0  0  0  0  0  0
  -20.9305  -29.2047   21.0232 C   0  0  0  0  0  0  0  0  0  0  0  0
  -27.9407  -16.4923   20.7469 C   0  0  0  0  0  0  0  0  0  0  0  0
  -24.7172  -36.9771   24.6018 C   0  0  0  0  0  0  0  0  0  0  0  0
  -27.2591  -30.6313   23.5640 C   0  0  0  0  0  0  0  0  0  0  0  0
  -25.2403  -28.6876   23.9192 C   0  0  0  0  0  0  0  0  0  0  0  0
  -23.8477  -35.7418   24.3822 C   0  0  0  0  0  0  0  0  0  0  0  0
  -30.0778  -13.6476   20.8783 C   0  0  0  0  0  0  0  0  0  0  0  0
  -24.0499  -34.7387   25.5134 C   0  0  0  0  0  0  0  0  0  0  0  0
  -29.1528  -12.4823   20.5194 C   0  0  0  0  0  0  0  0  0  0  0  0
  -26.8720  -23.9045   19.6539 C   0  0  0  0  0  0  0  0  0  0  0  0
  -29.0167  -22.7360   20.2184 C   0  0  0  0  0  0  0  0  0  0  0  0
  -29.3616  -14.7014   21.7210 C   0  0  0  0  0  0  0  0  0  0  0  0
  -26.3676  -22.6369   18.9596 C   0  0  0  0  0  0  0  0  0  0  0  0
  -28.5086  -21.4744   19.5180 C   0  0  0  0  0  0  0  0  0  0  0  0
  -27.1786  -14.0362   20.7931 C   0  0  0  0  0  0  0  0  0  0  0  0
  -25.5036  -34.2533   25.5670 C   0  0  1  0  0  0  0  0  0  0  0  0
  -25.7932  -31.0933   23.4815 C   0  0  1  0  0  0  0  0  0  0  0  0
  -27.8371  -12.9805   19.8900 C   0  0  2  0  0  0  0  0  0  0  0  0
  -28.4003  -24.0132   19.6352 C   0  0  0  0  0  0  0  0  0  0  0  0
  -18.4247  -29.0839   20.9621 C   0  0  0  0  0  0  0  0  0  0  0  0
  -23.5776  -27.9978   24.9794 C   0  0  0  0  0  0  0  0  0  0  0  0
  -21.3059  -27.3211   24.1735 C   0  0  0  0  0  0  0  0  0  0  0  0
  -21.6367  -29.5541   25.2351 C   0  0  0  0  0  0  0  0  0  0  0  0
  -20.7954  -30.8471   18.5648 C   0  0  0  0  0  0  0  0  0  0  0  0
  -30.2321  -24.2705   18.1858 C   0  0  0  0  0  0  0  0  0  0  0  0
  -28.8633  -25.2468   20.4105 C   0  0  0  0  0  0  0  0  0  1  0  0
  -22.5399  -29.1410   22.9100 C   0  0  1  0  0  0  0  0  0  0  0  0
  -19.6537  -29.8888   20.5690 C   0  0  2  0  0  0  0  0  0  0  0  0
  -22.2868  -28.5055   24.3063 C   0  0  0  0  0  0  0  0  0  0  0  0
  -25.9845  -11.4690   20.4937 N   0  0  0  0  0  0  0  0  0  0  0  0
  -26.8950  -11.8337   19.5750 N   0  0  0  0  0  0  0  0  0  0  0  0
  -27.0405  -21.4490   19.4936 N   0  0  0  0  0  0  0  0  0  0  0  0
  -24.7916  -30.0136   23.4663 N   0  0  0  0  0  0  0  0  0  0  0  0
  -28.1265  -15.1292   21.0603 N   0  0  0  0  0  0  0  0  0  0  0  0
  -27.6953  -11.3267   17.4040 N   0  0  0  0  0  0  0  0  0  0  0  0
  -24.3732   -8.3292   18.0160 N   0  0  0  0  0  0  0  0  0  0  0  0
  -26.7431  -16.7750   20.0907 N   0  0  0  0  0  0  0  0  0  0  0  0
  -25.7469  -33.2711   24.5323 N   0  0  0  0  0  0  0  0  0  0  0  0
  -21.3387  -29.6549   22.2609 N   0  0  0  0  0  0  0  0  0  0  0  0
  -19.6532  -30.0542   19.0880 N   0  3  0  0  0  0  0  0  0  0  0  0
  -25.9854   -9.0490   16.5526 O   0  0  0  0  0  0  0  0  0  0  0  0
  -24.9795  -31.3932   25.6756 O   0  0  0  0  0  0  0  0  0  0  0  0
  -23.1482  -31.4092   22.5931 O   0  0  0  0  0  0  0  0  0  0  0  0
  -21.5061  -28.3533   20.3491 O   0  0  0  0  0  0  0  0  0  0  0  0
  -28.7941  -17.3420   21.0148 O   0  0  0  0  0  0  0  0  0  0  0  0
  -27.0744  -19.1212   19.8837 O   0  0  0  0  0  0  0  0  0  0  0  0
  -21.1746   -7.8372   22.5497 O   0  0  0  0  0  0  0  0  0  0  0  0
  -28.0560  -25.3920   21.5782 O   0  0  0  0  0  0  0  0  0  1  0  0
  -28.8210  -24.1635   18.2773 O   0  0  0  0  0  0  0  0  0  0  0  0
  -22.1981   -2.8265   24.6112 F   0  0  0  0  0  0  0  0  0  0  0  0
  -20.9156   -7.3370   25.2563 F   0  0  0  0  0  0  0  0  0  0  0  0
  1  2  1  0  0  0  0
  1  5  2  0  0  0  0
  2  6  2  0  0  0  0
  3  8  2  0  0  0  0
  3 17  1  0  0  0  0
  4  9  1  0  0  0  0
  4 17  2  0  0  0  0
  5 19  1  0  0  0  0
  6 21  1  0  0  0  0
  7 10  2  0  0  0  0
  7 20  1  0  0  0  0
  8 23  1  0  0  0  0
  9 23  2  0  0  0  0
 10 24  1  0  0  0  0
 11 12  2  0  0  0  0
 11 25  1  0  0  0  0
 12 26  1  0  0  0  0
 13 14  1  0  0  0  0
 13 30  2  0  0  0  0
 14 31  2  0  0  0  0
 15 22  1  0  0  0  0
 15 24  2  0  0  0  0
 16 26  2  0  0  0  0
 16 27  1  0  0  0  0
 17 28  1  0  0  0  0
 18 28  1  0  0  0  0
 18 29  2  0  0  0  0
 18 32  1  0  0  0  0
 19 21  2  0  0  0  0
 19 37  1  0  0  0  0
 20 22  2  0  0  0  0
 20 38  1  0  0  0  0
 21 50  1  0  0  0  0
 22 39  1  0  0  0  0
 23 81  1  0  0  0  0
 24 82  1  0  0  0  0
 25 27  2  0  0  0  0
 25 81  1  0  0  0  0
 26 84  1  0  0  0  0
 27 85  1  0  0  0  0
 28 64  2  0  0  0  0
 29 65  1  0  0  0  0
 29 69  1  0  0  0  0
 30 66  1  0  0  0  0
 30 80  1  0  0  0  0
 31 71  1  0  0  0  0
 31 80  1  0  0  0  0
 32 70  1  0  0  0  0
 32 75  2  0  0  0  0
 33 51  1  0  0  0  0
 33 72  1  0  0  0  0
 33 76  2  0  0  0  0
 34 61  1  0  0  0  0
 34 67  1  0  0  0  0
 34 77  2  0  0  0  0
 35 62  1  0  0  0  0
 35 73  1  0  0  0  0
 35 78  2  0  0  0  0
 36 68  1  0  0  0  0
 36 71  1  0  0  0  0
 36 79  2  0  0  0  0
 37 40  1  0  0  0  0
 38 51  1  0  0  0  0
 39 67  1  0  0  0  0
 40 42  1  0  0  0  0
 41 43  1  0  0  0  0
 41 46  1  0  0  0  0
 42 50  1  0  0  0  0
 43 52  1  0  0  0  0
 44 47  1  0  0  0  0
 44 53  1  0  0  0  0
 45 48  1  0  0  0  0
 45 53  1  0  0  0  0
 46 68  1  0  0  0  0
 47 66  1  0  0  0  0
 48 66  1  0  0  0  0
 49 52  1  0  0  0  0
 49 68  1  0  0  0  0
 50 72  1  0  0  0  0
 51 67  1  0  0  0  0
 52 65  1  0  0  0  0
 53 60  1  0  0  0  0
 53 83  1  0  0  0  0
 54 62  1  0  0  0  0
 55 63  1  0  0  0  0
 56 63  1  0  0  0  0
 57 63  1  0  0  0  0
 58 74  1  0  0  0  0
 59 83  1  0  0  0  0
 60 82  1  0  0  0  0
 61 63  1  0  0  0  0
 61 73  1  0  0  0  0
 62 74  1  0  0  0  0
 64 65  1  0  0  0  0
M  CHG  1  74   1
M  ISO  4  36 100  60 101  71 100  82 101
M  END
> <Batch ID>
0157

> <Smiles>
CNC(C)C(=O)NC(C(=O)N1Cc2cc([101O:1][101CH2:1]C3(OC)CCN(c4ccc([100NH:0][100C:0](=O)N5CCCC(n6nc(-c7ccc(Oc8ccc(F)cc8F)cc7)c(C(N)=O)c6N)C5)o4)CC3)ccc2CC1C(=O)NC1CCCc2ccccc21)C(C)(C)C

> <Shape>
0.320

> <Color>
0.095

> <Negative vol penalty>
0.000

$$$$

  -OEChem-04052303413D

 84 93  0     1  0  0  0  0  0999 V2000
  -26.3261  -34.6535   24.6478 C   0  0  0  0  0  0  0  0  0  0  0  0
  -26.8443  -33.4705   24.1307 C   0  0  0  0  0  0  0  0  0  0  0  0
  -25.0906  -12.9507   22.5929 C   0  0  0  0  0  0  0  0  0  0  0  0
  -26.4006  -13.4486   20.6249 C   0  0  0  0  0  0  0  0  0  0  0  0
  -25.0347  -34.6768   25.1730 C   0  0  0  0  0  0  0  0  0  0  0  0
  -26.0717  -32.3097   24.1396 C   0  0  0  0  0  0  0  0  0  0  0  0
  -26.2896  -29.7973   19.7481 C   0  0  0  0  0  0  0  0  0  0  0  0
  -29.6635  -20.8239   19.4172 C   0  0  0  0  0  0  0  0  0  0  0  0
  -24.2414  -12.1532   21.8259 C   0  0  0  0  0  0  0  0  0  0  0  0
  -25.5514  -12.6510   19.8578 C   0  0  0  0  0  0  0  0  0  0  0  0
  -27.4283  -29.0290   19.5099 C   0  0  0  0  0  0  0  0  0  0  0  0
  -24.2662   -9.0407   20.5050 C   0  0  0  0  0  0  0  0  0  0  0  0
  -23.9055   -7.7957   21.0201 C   0  0  0  0  0  0  0  0  0  0  0  0
  -29.9047  -21.6138   18.2986 C   0  0  0  0  0  0  0  0  0  0  0  0
  -26.2187  -27.0456   20.1597 C   0  0  0  0  0  0  0  0  0  0  0  0
  -21.5799   -8.4483   20.9689 C   0  0  0  0  0  0  0  0  0  0  0  0
  -28.5490  -22.6717   20.4173 C   0  0  0  0  0  0  0  0  0  0  0  0
  -26.1702  -13.5985   21.9924 C   0  0  0  0  0  0  0  0  0  0  0  0
  -28.2150  -14.0186   23.4586 C   0  0  0  0  0  0  0  0  0  0  0  0
  -24.2425  -33.5179   25.1795 C   0  0  0  0  0  0  0  0  0  0  0  0
  -25.1081  -29.1960   20.2051 C   0  0  0  0  0  0  0  0  0  0  0  0
  -24.7691  -32.3171   24.6667 C   0  0  0  0  0  0  0  0  0  0  0  0
  -25.0656  -27.8082   20.4005 C   0  0  0  0  0  0  0  0  0  0  0  0
  -28.9734  -21.3554   20.5010 C   0  0  0  0  0  0  0  0  0  0  0  0
  -24.4718  -12.0033   20.4584 C   0  0  0  0  0  0  0  0  0  0  0  0
  -27.3939  -27.6534   19.7184 C   0  0  0  0  0  0  0  0  0  0  0  0
  -23.2838   -9.9896   20.2218 C   0  0  0  0  0  0  0  0  0  0  0  0
  -22.5624   -7.4995   21.2521 C   0  0  0  0  0  0  0  0  0  0  0  0
  -21.9406   -9.6934   20.4538 C   0  0  0  0  0  0  0  0  0  0  0  0
  -27.0475  -14.4230   22.7841 C   0  0  0  0  0  0  0  0  0  0  0  0
  -29.4383  -22.9185   18.3134 C   0  0  0  0  0  0  0  0  0  0  0  0
  -28.6801  -15.1641   24.0570 C   0  0  0  0  0  0  0  0  0  0  0  0
  -28.8247  -12.7233   23.5373 C   0  0  0  0  0  0  0  0  0  0  0  0
  -23.3238  -29.4600   22.8225 C   0  0  0  0  0  0  0  0  0  0  0  0
  -21.3405  -27.4714   21.1995 C   0  0  0  0  0  0  0  0  0  0  0  0
  -20.9633  -25.1042   18.7702 C   0  0  0  0  0  0  0  0  0  0  0  0
  -28.0372  -20.9720   22.8081 C   0  0  0  0  0  0  0  0  0  0  0  0
  -22.8697  -33.5806   25.8010 C   0  0  0  0  0  0  0  0  0  0  0  0
  -23.8804  -30.0351   20.4318 C   0  0  0  0  0  0  0  0  0  0  0  0
  -23.8159  -27.1114   20.8709 C   0  0  0  0  0  0  0  0  0  0  0  0
  -21.9792  -32.3970   25.4316 C   0  0  0  0  0  0  0  0  0  0  0  0
  -27.1582  -19.3373   25.8466 C   0  0  0  0  0  0  0  0  0  0  0  0
  -29.0534  -24.5608   14.9532 C   0  0  0  0  0  0  0  0  0  0  0  0
  -22.7450  -31.0861   25.5797 C   0  0  0  0  0  0  0  0  0  0  0  0
  -29.0184  -23.3227   15.8274 C   0  0  0  0  0  0  0  0  0  0  0  0
  -27.1423  -17.8543   25.4689 C   0  0  0  0  0  0  0  0  0  0  0  0
  -26.6323  -20.2167   24.7136 C   0  0  0  0  0  0  0  0  0  0  0  0
  -27.2686  -18.5281   23.0364 C   0  0  0  0  0  0  0  0  0  0  0  0
  -28.6587  -25.6804   15.8970 C   0  0  0  0  0  0  0  0  0  0  0  0
  -23.9529  -31.0431   24.6360 C   0  0  1  0  0  0  0  0  0  0  0  0
  -29.6821  -23.8040   17.1174 C   0  0  1  0  0  0  0  0  0  0  0  0
  -22.8829  -29.3884   21.3878 C   0  0  1  0  0  0  0  0  0  0  0  0
  -27.8503  -17.6081   24.1222 C   0  0  2  0  0  0  0  0  0  0  0  0
  -19.2301  -23.6384   17.7002 C   0  0  0  0  0  0  0  0  0  0  0  0
  -21.3970  -25.6320   23.6333 C   0  0  0  0  0  0  0  0  0  0  0  0
  -20.4706  -23.8083   22.1895 C   0  0  0  0  0  0  0  0  0  0  0  0
  -19.1473  -25.8882   22.5713 C   0  0  0  0  0  0  0  0  0  0  0  0
  -21.3839  -26.3459   16.1169 C   0  0  0  0  0  0  0  0  0  0  0  0
  -30.1426  -26.1794   17.8820 C   0  0  0  0  0  0  0  0  0  0  0  0
  -29.4008  -27.3603   18.4766 C   0  0  0  0  0  0  0  0  0  1  0  0
  -21.1890  -25.9739   21.0826 C   0  0  1  0  0  0  0  0  0  0  0  0
  -19.9586  -24.9720   17.6399 C   0  0  2  0  0  0  0  0  0  0  0  0
  -20.5753  -25.3387   22.3622 C   0  0  0  0  0  0  0  0  0  0  0  0
  -28.7644  -23.4698   19.3476 N   0  0  0  0  0  0  0  0  0  0  0  0
  -26.7868  -15.7238   22.9390 N   0  0  0  0  0  0  0  0  0  0  0  0
  -27.7971  -16.1466   23.7179 N   0  0  0  0  0  0  0  0  0  0  0  0
  -22.6436  -27.9759   21.0847 N   0  0  0  0  0  0  0  0  0  0  0  0
  -27.3523  -19.9314   23.4706 N   0  0  0  0  0  0  0  0  0  0  0  0
  -29.7541  -15.4166   24.8348 N   0  0  0  0  0  0  0  0  0  0  0  0
  -28.2158  -11.6562   22.8629 N   0  0  0  0  0  0  0  0  0  0  0  0
  -28.7125  -20.5749   21.6545 N   0  0  0  0  0  0  0  0  0  0  0  0
  -23.5281  -30.7461   23.2847 N   0  0  0  0  0  0  0  0  0  0  0  0
  -20.4172  -25.7353   19.8678 N   0  0  0  0  0  0  0  0  0  0  0  0
  -29.1564  -25.2370   17.2623 N   0  3  1  0  0  0  0  0  0  0  0  0
  -20.6460  -25.0729   16.3215 N   0  3  0  0  0  0  0  0  0  0  0  0
  -29.8693  -12.5149   24.1998 O   0  0  0  0  0  0  0  0  0  0  0  0
  -23.4666  -28.4251   23.4630 O   0  0  0  0  0  0  0  0  0  0  0  0
  -20.3386  -28.1684   21.3786 O   0  0  0  0  0  0  0  0  0  0  0  0
  -22.1161  -24.6859   18.6890 O   0  0  0  0  0  0  0  0  0  0  0  0
  -28.0480  -22.1247   23.2477 O   0  0  0  0  0  0  0  0  0  0  0  0
  -23.6435  -11.2249   19.7097 O   0  0  0  0  0  0  0  0  0  0  0  0
  -28.5042  -26.9012   19.4873 O   0  0  0  0  0  0  0  0  0  1  0  0
  -22.2160   -6.3033   21.7453 F   0  0  0  0  0  0  0  0  0  0  0  0
  -20.9922  -10.6005   20.1826 F   0  0  0  0  0  0  0  0  0  0  0  0
  1  2  1  0  0  0  0
  1  5  2  0  0  0  0
  2  6  2  0  0  0  0
  3  9  2  0  0  0  0
  3 18  1  0  0  0  0
  4 10  1  0  0  0  0
  4 18  2  0  0  0  0
  5 20  1  0  0  0  0
  6 22  1  0  0  0  0
  7 11  2  0  0  0  0
  7 21  1  0  0  0  0
  8 14  2  0  0  0  0
  8 24  1  0  0  0  0
  9 25  1  0  0  0  0
 10 25  2  0  0  0  0
 11 26  1  0  0  0  0
 12 13  2  0  0  0  0
 12 27  1  0  0  0  0
 13 28  1  0  0  0  0
 14 31  1  0  0  0  0
 15 23  1  0  0  0  0
 15 26  2  0  0  0  0
 16 28  2  0  0  0  0
 16 29  1  0  0  0  0
 17 24  2  0  0  0  0
 17 64  1  0  0  0  0
 18 30  1  0  0  0  0
 19 30  1  0  0  0  0
 19 32  2  0  0  0  0
 19 33  1  0  0  0  0
 20 22  2  0  0  0  0
 20 38  1  0  0  0  0
 21 23  2  0  0  0  0
 21 39  1  0  0  0  0
 22 50  1  0  0  0  0
 23 40  1  0  0  0  0
 24 71  1  0  0  0  0
 25 81  1  0  0  0  0
 26 82  1  0  0  0  0
 27 29  2  0  0  0  0
 27 81  1  0  0  0  0
 28 83  1  0  0  0  0
 29 84  1  0  0  0  0
 30 65  2  0  0  0  0
 31 51  1  0  0  0  0
 31 64  2  0  0  0  0
 32 66  1  0  0  0  0
 32 69  1  0  0  0  0
 33 70  1  0  0  0  0
 33 76  2  0  0  0  0
 34 52  1  0  0  0  0
 34 72  1  0  0  0  0
 34 77  2  0  0  0  0
 35 61  1  0  0  0  0
 35 67  1  0  0  0  0
 35 78  2  0  0  0  0
 36 62  1  0  0  0  0
 36 73  1  0  0  0  0
 36 79  2  0  0  0  0
 37 68  1  0  0  0  0
 37 71  1  0  0  0  0
 37 80  2  0  0  0  0
 38 41  1  0  0  0  0
 39 52  1  0  0  0  0
 40 67  1  0  0  0  0
 41 44  1  0  0  0  0
 42 46  1  0  0  0  0
 42 47  1  0  0  0  0
 43 45  1  0  0  0  0
 43 49  1  0  0  0  0
 44 50  1  0  0  0  0
 45 51  1  0  0  0  0
 46 53  1  0  0  0  0
 47 68  1  0  0  0  0
 48 53  1  0  0  0  0
 48 68  1  0  0  0  0
 49 74  1  0  0  0  0
 50 72  1  0  0  0  0
 51 74  1  0  0  0  0
 52 67  1  0  0  0  0
 53 66  1  0  0  0  0
 54 62  1  0  0  0  0
 55 63  1  0  0  0  0
 56 63  1  0  0  0  0
 57 63  1  0  0  0  0
 58 75  1  0  0  0  0
 59 60  1  0  0  0  0
 59 74  1  0  0  0  0
 60 82  1  0  0  0  0
 61 63  1  0  0  0  0
 61 73  1  0  0  0  0
 62 75  1  0  0  0  0
 65 66  1  0  0  0  0
M  CHG  2  74   1  75   1
M  ISO  4  37 100  60 101  71 100  82 101
M  END
> <Batch ID>
0157

> <Smiles>
CNC(C)C(=O)NC(C(=O)N1Cc2cc([101O:1][101CH2:1]CN3CCCC3c3ccc([100NH:0][100C:0](=O)N4CCCC(n5nc(-c6ccc(Oc7ccc(F)cc7F)cc6)c(C(N)=O)c5N)C4)cn3)ccc2CC1C(=O)NC1CCCc2ccccc21)C(C)(C)C

> <Shape>
0.253

> <Color>
0.083

> <Negative vol penalty>
0.000

$$$$

  -OEChem-04052303413D

 86 95  0     1  0  0  0  0  0999 V2000
  -28.3200  -31.6857   27.5594 C   0  0  0  0  0  0  0  0  0  0  0  0
  -28.2939  -30.6502   26.6307 C   0  0  0  0  0  0  0  0  0  0  0  0
  -22.9964  -12.0663   22.5733 C   0  0  0  0  0  0  0  0  0  0  0  0
  -24.9642  -10.9304   23.3945 C   0  0  0  0  0  0  0  0  0  0  0  0
  -27.1482  -32.3773   27.8636 C   0  0  0  0  0  0  0  0  0  0  0  0
  -27.0957  -30.3049   26.0066 C   0  0  0  0  0  0  0  0  0  0  0  0
  -27.6374  -29.5890   21.0227 C   0  0  0  0  0  0  0  0  0  0  0  0
  -22.2887  -11.6573   23.7036 C   0  0  0  0  0  0  0  0  0  0  0  0
  -24.2566  -10.5215   24.5248 C   0  0  0  0  0  0  0  0  0  0  0  0
  -28.1928  -28.3787   20.6099 C   0  0  0  0  0  0  0  0  0  0  0  0
  -21.9978   -8.1353   25.3217 C   0  0  0  0  0  0  0  0  0  0  0  0
  -22.1333   -6.8072   25.7258 C   0  0  0  0  0  0  0  0  0  0  0  0
  -25.9852  -27.5410   20.1160 C   0  0  0  0  0  0  0  0  0  0  0  0
  -26.5592  -19.9072   20.0687 C   0  0  0  0  0  0  0  0  0  0  0  0
  -23.0021   -7.5442   27.8564 C   0  0  0  0  0  0  0  0  0  0  0  0
  -24.3341  -11.7028   22.4187 C   0  0  0  0  0  0  0  0  0  0  0  0
  -24.7667  -11.8277   19.9078 C   0  0  0  0  0  0  0  0  0  0  0  0
  -25.9369  -32.0467   27.2358 C   0  0  0  0  0  0  0  0  0  0  0  0
  -26.2485  -29.7809   20.9954 C   0  0  0  0  0  0  0  0  0  0  0  0
  -25.9064  -30.9918   26.3037 C   0  0  0  0  0  0  0  0  0  0  0  0
  -25.4148  -28.7556   20.5265 C   0  0  0  0  0  0  0  0  0  0  0  0
  -26.9168  -21.2458   19.7794 C   0  0  0  0  0  0  0  0  0  0  0  0
  -22.9188  -10.8850   24.6794 C   0  0  0  0  0  0  0  0  0  0  0  0
  -27.3665  -27.3534   20.1592 C   0  0  0  0  0  0  0  0  0  0  0  0
  -22.3645   -9.1679   26.1849 C   0  0  0  0  0  0  0  0  0  0  0  0
  -22.6354   -6.5116   26.9932 C   0  0  0  0  0  0  0  0  0  0  0  0
  -22.8666   -8.8723   27.4522 C   0  0  0  0  0  0  0  0  0  0  0  0
  -25.0655  -12.1244   21.2511 C   0  0  0  0  0  0  0  0  0  0  0  0
  -25.7545  -12.4560   19.1895 C   0  0  0  0  0  0  0  0  0  0  0  0
  -28.2849  -21.2534   19.6368 C   0  0  0  0  0  0  0  0  0  0  0  0
  -27.7343  -19.1923   20.0820 C   0  0  0  0  0  0  0  0  0  0  0  0
  -30.5660  -24.5141   18.3355 C   0  0  0  0  0  0  0  0  0  0  0  0
  -29.7436  -24.6724   19.3812 C   0  0  0  0  0  0  0  0  0  0  0  0
  -30.9799  -23.1600   17.9152 C   0  0  0  0  0  0  0  0  0  0  0  0
  -23.6922  -11.0536   19.3584 C   0  0  0  0  0  0  0  0  0  0  0  0
  -24.0226  -30.3738   23.1857 C   0  0  0  0  0  0  0  0  0  0  0  0
  -22.0990  -30.6607   20.5896 C   0  0  0  0  0  0  0  0  0  0  0  0
  -21.5088  -29.8788   17.3204 C   0  0  0  0  0  0  0  0  0  0  0  0
  -29.2362  -17.1822   20.3058 C   0  0  0  0  0  0  0  0  0  0  0  0
  -24.6868  -32.7916   27.6321 C   0  0  0  0  0  0  0  0  0  0  0  0
  -25.6670  -31.1018   21.4188 C   0  0  0  0  0  0  0  0  0  0  0  0
  -23.9191  -28.9184   20.4585 C   0  0  0  0  0  0  0  0  0  0  0  0
  -30.4236  -21.9535   18.6292 C   0  0  0  0  0  0  0  0  0  0  0  0
  -23.5327  -32.6108   26.6494 C   0  0  0  0  0  0  0  0  0  0  0  0
  -30.3145  -13.8760   19.5419 C   0  0  0  0  0  0  0  0  0  0  0  0
  -23.3720  -31.1397   26.2796 C   0  0  0  0  0  0  0  0  0  0  0  0
  -29.0620  -13.0255   19.7654 C   0  0  0  0  0  0  0  0  0  0  0  0
  -30.4182  -15.0111   20.5591 C   0  0  0  0  0  0  0  0  0  0  0  0
  -27.9759  -15.0154   20.8823 C   0  0  0  0  0  0  0  0  0  0  0  0
  -24.6311  -30.6041   25.5872 C   0  0  1  0  0  0  0  0  0  0  0  0
  -29.1636  -23.5117   20.1624 C   0  0  2  0  0  0  0  0  0  0  0  0
  -24.2022  -31.0044   21.8337 C   0  0  1  0  0  0  0  0  0  0  0  0
  -27.7941  -13.8985   19.8415 C   0  0  2  0  0  0  0  0  0  0  0  0
  -25.9998  -22.3946   19.6586 C   0  0  0  0  0  0  0  0  0  0  0  0
  -29.9153  -23.2958   21.4804 C   0  0  0  0  0  0  0  0  0  0  0  0
  -19.8360  -30.2275   15.4826 C   0  0  0  0  0  0  0  0  0  0  0  0
  -20.2425  -28.6216   21.8956 C   0  0  0  0  0  0  0  0  0  0  0  0
  -19.1398  -28.3042   19.6704 C   0  0  0  0  0  0  0  0  0  0  0  0
  -19.0751  -30.5346   20.7857 C   0  0  0  0  0  0  0  0  0  0  0  0
  -23.4997  -31.2460   15.6100 C   0  0  0  0  0  0  0  0  0  0  0  0
  -29.3263  -26.0490   19.8219 C   0  0  0  0  0  0  0  0  0  1  0  0
  -21.2452  -29.7133   19.7817 C   0  0  1  0  0  0  0  0  0  0  0  0
  -21.1109  -30.7394   16.1349 C   0  0  2  0  0  0  0  0  0  0  0  0
  -19.9536  -29.2893   20.5363 C   0  0  0  0  0  0  0  0  0  0  0  0
  -26.1578  -12.8820   21.3812 N   0  0  0  0  0  0  0  0  0  0  0  0
  -26.5540  -13.0667   20.1103 N   0  0  0  0  0  0  0  0  0  0  0  0
  -29.1942  -22.2813   19.3496 N   0  0  2  0  0  0  0  0  0  0  0  0
  -23.3979  -30.2262   20.8894 N   0  0  0  0  0  0  0  0  0  0  0  0
  -29.1830  -15.7977   20.5726 N   0  0  0  0  0  0  0  0  0  0  0  0
  -26.0086  -12.5401   17.8663 N   0  0  0  0  0  0  0  0  0  0  0  0
  -23.8871   -9.6782   19.1717 N   0  0  0  0  0  0  0  0  0  0  0  0
  -27.9957  -17.8191   20.3141 N   0  0  0  0  0  0  0  0  0  0  0  0
  -24.6729  -31.0389   24.2075 N   0  0  0  0  0  0  0  0  0  0  0  0
  -21.0012  -30.3729   18.5034 N   0  0  0  0  0  0  0  0  0  0  0  0
  -22.1938  -30.7433   15.1111 N   0  3  0  0  0  0  0  0  0  0  0  0
  -31.8043  -23.0380   17.0090 O   0  0  0  0  0  0  0  0  0  0  0  0
  -22.5977  -11.5691   19.0271 O   0  0  0  0  0  0  0  0  0  0  0  0
  -23.3430  -29.3598   23.2940 O   0  0  0  0  0  0  0  0  0  0  0  0
  -21.6330  -31.7492   20.9356 O   0  0  0  0  0  0  0  0  0  0  0  0
  -22.1976  -28.8672   17.2078 O   0  0  0  0  0  0  0  0  0  0  0  0
  -30.3007  -17.7551   20.0594 O   0  0  0  0  0  0  0  0  0  0  0  0
  -28.7908  -20.0055   19.8196 O   0  0  0  0  0  0  0  0  0  0  0  0
  -22.2286  -10.4860   25.7825 O   0  0  0  0  0  0  0  0  0  0  0  0
  -27.9060  -26.1708   19.7564 O   0  0  0  0  0  0  0  0  0  1  0  0
  -22.7641   -5.2362   27.3817 F   0  0  0  0  0  0  0  0  0  0  0  0
  -23.2194   -9.8600   28.2864 F   0  0  0  0  0  0  0  0  0  0  0  0
  1  2  1  0  0  0  0
  1  5  2  0  0  0  0
  2  6  2  0  0  0  0
  3  8  2  0  0  0  0
  3 16  1  0  0  0  0
  4  9  1  0  0  0  0
  4 16  2  0  0  0  0
  5 18  1  0  0  0  0
  6 20  1  0  0  0  0
  7 10  2  0  0  0  0
  7 19  1  0  0  0  0
  8 23  1  0  0  0  0
  9 23  2  0  0  0  0
 10 24  1  0  0  0  0
 11 12  2  0  0  0  0
 11 25  1  0  0  0  0
 12 26  1  0  0  0  0
 13 21  1  0  0  0  0
 13 24  2  0  0  0  0
 14 22  1  0  0  0  0
 14 31  2  0  0  0  0
 15 26  2  0  0  0  0
 15 27  1  0  0  0  0
 16 28  1  0  0  0  0
 17 28  1  0  0  0  0
 17 29  2  0  0  0  0
 17 35  1  0  0  0  0
 18 20  2  0  0  0  0
 18 40  1  0  0  0  0
 19 21  2  0  0  0  0
 19 41  1  0  0  0  0
 20 50  1  0  0  0  0
 21 42  1  0  0  0  0
 22 30  2  0  0  0  0
 22 54  1  0  0  0  0
 23 83  1  0  0  0  0
 24 84  1  0  0  0  0
 25 27  2  0  0  0  0
 25 83  1  0  0  0  0
 26 85  1  0  0  0  0
 27 86  1  0  0  0  0
 28 65  2  0  0  0  0
 29 66  1  0  0  0  0
 29 70  1  0  0  0  0
 30 67  1  0  0  0  0
 30 82  1  0  0  0  0
 31 72  1  0  0  0  0
 31 82  1  0  0  0  0
 32 33  2  0  0  0  0
 32 34  1  0  0  0  0
 33 51  1  0  0  0  0
 33 61  1  0  0  0  0
 34 43  1  0  0  0  0
 34 76  2  0  0  0  0
 35 71  1  0  0  0  0
 35 77  2  0  0  0  0
 36 52  1  0  0  0  0
 36 73  1  0  0  0  0
 36 78  2  0  0  0  0
 37 62  1  0  0  0  0
 37 68  1  0  0  0  0
 37 79  2  0  0  0  0
 38 63  1  0  0  0  0
 38 74  1  0  0  0  0
 38 80  2  0  0  0  0
 39 69  1  0  0  0  0
 39 72  1  0  0  0  0
 39 81  2  0  0  0  0
 40 44  1  0  0  0  0
 41 52  1  0  0  0  0
 42 68  1  0  0  0  0
 43 67  1  0  0  0  0
 44 46  1  0  0  0  0
 45 47  1  0  0  0  0
 45 48  1  0  0  0  0
 46 50  1  0  0  0  0
 47 53  1  0  0  0  0
 48 69  1  0  0  0  0
 49 53  1  0  0  0  0
 49 69  1  0  0  0  0
 50 73  1  0  0  0  0
 51 55  1  0  0  0  0
 51 67  1  0  0  0  0
 52 68  1  0  0  0  0
 53 66  1  0  0  0  0
 56 63  1  0  0  0  0
 57 64  1  0  0  0  0
 58 64  1  0  0  0  0
 59 64  1  0  0  0  0
 60 75  1  0  0  0  0
 61 84  1  0  0  0  0
 62 64  1  0  0  0  0
 62 74  1  0  0  0  0
 63 75  1  0  0  0  0
 65 66  1  0  0  0  0
M  CHG  1  75   1
M  ISO  4  39 100  61 101  72 100  84 101
M  END
> <Batch ID>
0157

> <Smiles>
CNC(C)C(=O)NC(C(=O)N1Cc2cc([101O:1][101CH2:1]C3=C(C)N(c4oc([100NH:0][100C:0](=O)N5CCCC(n6nc(-c7ccc(Oc8ccc(F)cc8F)cc7)c(C(N)=O)c6N)C5)cc4C)CC(=O)C3)ccc2CC1C(=O)NC1CCCc2ccccc21)C(C)(C)C

> <Shape>
0.293

> <Color>
0.100

> <Negative vol penalty>
0.000

$$$$

  -OEChem-04052303413D

 84 93  0     1  0  0  0  0  0999 V2000
  -28.7137  -34.9397   16.8642 C   0  0  0  0  0  0  0  0  0  0  0  0
  -28.7727  -33.5559   16.9951 C   0  0  0  0  0  0  0  0  0  0  0  0
  -23.2421   -9.8024   21.3726 C   0  0  0  0  0  0  0  0  0  0  0  0
  -23.9306  -10.7104   23.5030 C   0  0  0  0  0  0  0  0  0  0  0  0
  -28.4806  -35.7355   17.9850 C   0  0  0  0  0  0  0  0  0  0  0  0
  -28.5995  -32.9672   18.2473 C   0  0  0  0  0  0  0  0  0  0  0  0
  -25.8976  -27.6050   19.4525 C   0  0  0  0  0  0  0  0  0  0  0  0
  -22.5733   -8.7693   22.0290 C   0  0  0  0  0  0  0  0  0  0  0  0
  -23.2617   -9.6773   24.1594 C   0  0  0  0  0  0  0  0  0  0  0  0
  -26.4083  -26.3294   19.6884 C   0  0  0  0  0  0  0  0  0  0  0  0
  -23.3667   -5.8444   23.5256 C   0  0  0  0  0  0  0  0  0  0  0  0
  -23.5333   -4.5499   23.0336 C   0  0  0  0  0  0  0  0  0  0  0  0
  -31.3490  -18.2362   20.1962 C   0  0  0  0  0  0  0  0  0  0  0  0
  -26.2769  -26.7229   22.0648 C   0  0  0  0  0  0  0  0  0  0  0  0
  -21.1546   -4.3932   22.6404 C   0  0  0  0  0  0  0  0  0  0  0  0
  -23.9208  -10.7730   22.1095 C   0  0  0  0  0  0  0  0  0  0  0  0
  -31.3295  -19.6530   20.3465 C   0  0  0  0  0  0  0  0  0  0  0  0
  -24.0892  -13.0949   21.0665 C   0  0  0  0  0  0  0  0  0  0  0  0
  -28.2949  -35.1557   19.2499 C   0  0  0  0  0  0  0  0  0  0  0  0
  -25.5823  -28.4547   20.5226 C   0  0  0  0  0  0  0  0  0  0  0  0
  -28.3650  -33.7561   19.3863 C   0  0  0  0  0  0  0  0  0  0  0  0
  -25.7598  -28.0079   21.8398 C   0  0  0  0  0  0  0  0  0  0  0  0
  -22.5831   -8.7067   23.4224 C   0  0  0  0  0  0  0  0  0  0  0  0
  -26.6008  -25.8892   20.9947 C   0  0  0  0  0  0  0  0  0  0  0  0
  -22.0940   -6.4133   23.5752 C   0  0  0  0  0  0  0  0  0  0  0  0
  -22.4273   -3.8243   22.5909 C   0  0  0  0  0  0  0  0  0  0  0  0
  -20.9880   -5.6877   23.1325 C   0  0  0  0  0  0  0  0  0  0  0  0
  -24.6124  -11.8401   21.4320 C   0  0  0  0  0  0  0  0  0  0  0  0
  -25.1368  -13.7387   20.4546 C   0  0  0  0  0  0  0  0  0  0  0  0
  -30.1439  -20.0997   20.8869 C   0  0  0  0  0  0  0  0  0  0  0  0
  -30.1774  -17.6540   20.6278 C   0  0  0  0  0  0  0  0  0  0  0  0
  -28.9227  -23.1587   20.8991 C   0  0  0  0  0  0  0  0  0  0  0  0
  -28.3372  -24.3445   20.7314 C   0  0  0  0  0  0  0  0  0  1  0  0
  -32.4284  -20.5007   19.9720 C   0  0  0  0  0  0  0  0  0  0  0  0
  -22.7738  -13.6307   21.2627 C   0  0  0  0  0  0  0  0  0  0  0  0
  -26.6162  -31.2924   21.5135 C   0  0  0  0  0  0  0  0  0  0  0  0
  -24.1988  -30.9904   23.6553 C   0  0  0  0  0  0  0  0  0  0  0  0
  -22.1007  -28.9275   25.3842 C   0  0  0  0  0  0  0  0  0  0  0  0
  -30.5091  -15.1867   20.2427 C   0  0  0  0  0  0  0  0  0  0  0  0
  -28.0926  -36.0596   20.4401 C   0  0  0  0  0  0  0  0  0  0  0  0
  -25.0071  -29.8178   20.2516 C   0  0  0  0  0  0  0  0  0  0  0  0
  -25.4181  -28.8738   23.0238 C   0  0  0  0  0  0  0  0  0  0  0  0
  -30.2374  -22.5586   20.4802 C   0  0  0  0  0  0  0  0  0  0  0  0
  -28.5382  -21.8758   21.5850 C   0  0  0  0  0  0  0  0  0  0  0  0
  -27.5468  -35.3361   21.6686 C   0  0  0  0  0  0  0  0  0  0  0  0
  -29.6372  -11.9938   18.9303 C   0  0  0  0  0  0  0  0  0  0  0  0
  -28.3133  -34.0394   21.9088 C   0  0  0  0  0  0  0  0  0  0  0  0
  -28.2092  -11.7724   19.4341 C   0  0  0  0  0  0  0  0  0  0  0  0
  -30.4977  -12.7173   19.9646 C   0  0  0  0  0  0  0  0  0  0  0  0
  -28.5043  -13.7523   20.9768 C   0  0  0  0  0  0  0  0  0  0  0  0
  -28.1575  -33.0788   20.7236 C   0  0  1  0  0  0  0  0  0  0  0  0
  -25.2038  -30.7904   21.4104 C   0  0  1  0  0  0  0  0  0  0  0  0
  -27.5817  -13.0846   19.9440 C   0  0  2  0  0  0  0  0  0  0  0  0
  -20.2591  -28.9698   27.0883 C   0  0  0  0  0  0  0  0  0  0  0  0
  -26.2486  -31.5140   25.8539 C   0  0  0  0  0  0  0  0  0  0  0  0
  -24.5981  -30.6184   27.5098 C   0  0  0  0  0  0  0  0  0  0  0  0
  -24.0498  -32.6588   26.1836 C   0  0  0  0  0  0  0  0  0  0  0  0
  -20.1778  -27.6873   23.5072 C   0  0  0  0  0  0  0  0  0  0  0  0
  -24.0643  -30.4041   25.0399 C   0  0  1  0  0  0  0  0  0  0  0  0
  -20.5997  -28.9737   25.6062 C   0  0  2  0  0  0  0  0  0  0  0  0
  -24.7485  -31.2830   26.1247 C   0  0  0  0  0  0  0  0  0  0  0  0
  -25.8928  -11.6934   21.0814 N   0  0  0  0  0  0  0  0  0  0  0  0
  -26.1830  -12.8643   20.4891 N   0  0  0  0  0  0  0  0  0  0  0  0
  -29.8076  -21.3700   21.1546 N   0  0  0  0  0  0  0  0  0  0  0  0
  -24.8645  -30.2007   22.7071 N   0  0  0  0  0  0  0  0  0  0  0  0
  -29.8422  -13.9531   20.3983 N   0  0  0  0  0  0  0  0  0  0  0  0
  -25.2560  -14.9617   19.8956 N   0  0  0  0  0  0  0  0  0  0  0  0
  -33.4004  -20.8008   20.8565 N   0  0  0  0  0  0  0  0  0  0  0  0
  -21.8181  -12.8354   21.9096 N   0  0  0  0  0  0  0  0  0  0  0  0
  -29.7746  -16.2959   20.6605 N   0  0  0  0  0  0  0  0  0  0  0  0
  -26.8656  -32.4281   20.7669 N   0  0  0  0  0  0  0  0  0  0  0  0
  -22.6373  -30.1912   25.2561 N   0  0  0  0  0  0  0  0  0  0  0  0
  -32.5117  -21.0125   18.7277 N   0  3  0  0  0  0  0  0  0  0  0  0
  -19.9456  -27.7952   24.9706 N   0  3  0  0  0  0  0  0  0  0  0  0
  -22.4507  -14.7743   20.8612 O   0  0  0  0  0  0  0  0  0  0  0  0
  -27.4199  -30.6945   22.2194 O   0  0  0  0  0  0  0  0  0  0  0  0
  -23.7243  -32.1048   23.4217 O   0  0  0  0  0  0  0  0  0  0  0  0
  -22.7345  -27.8756   25.3335 O   0  0  0  0  0  0  0  0  0  0  0  0
  -31.6372  -15.2566   19.7483 O   0  0  0  0  0  0  0  0  0  0  0  0
  -21.9304   -7.6988   24.0633 O   0  0  0  0  0  0  0  0  0  0  0  0
  -27.0998  -24.6448   21.2278 O   0  0  0  0  0  0  0  0  0  1  0  0
  -22.5876   -2.5818   22.1170 F   0  0  0  0  0  0  0  0  0  0  0  0
  -19.7631   -6.2294   23.1765 F   0  0  0  0  0  0  0  0  0  0  0  0
  -29.0605  -18.8137   21.2109 S   0  0  0  0  0  0  0  0  0  0  0  0
  1  2  1  0  0  0  0
  1  5  2  0  0  0  0
  2  6  2  0  0  0  0
  3  8  2  0  0  0  0
  3 16  1  0  0  0  0
  4  9  1  0  0  0  0
  4 16  2  0  0  0  0
  5 19  1  0  0  0  0
  6 21  1  0  0  0  0
  7 10  2  0  0  0  0
  7 20  1  0  0  0  0
  8 23  1  0  0  0  0
  9 23  2  0  0  0  0
 10 24  1  0  0  0  0
 11 12  2  0  0  0  0
 11 25  1  0  0  0  0
 12 26  1  0  0  0  0
 13 17  1  0  0  0  0
 13 31  2  0  0  0  0
 14 22  1  0  0  0  0
 14 24  2  0  0  0  0
 15 26  2  0  0  0  0
 15 27  1  0  0  0  0
 16 28  1  0  0  0  0
 17 30  2  0  0  0  0
 17 34  1  0  0  0  0
 18 28  1  0  0  0  0
 18 29  2  0  0  0  0
 18 35  1  0  0  0  0
 19 21  2  0  0  0  0
 19 40  1  0  0  0  0
 20 22  2  0  0  0  0
 20 41  1  0  0  0  0
 21 51  1  0  0  0  0
 22 42  1  0  0  0  0
 23 80  1  0  0  0  0
 24 81  1  0  0  0  0
 25 27  2  0  0  0  0
 25 80  1  0  0  0  0
 26 82  1  0  0  0  0
 27 83  1  0  0  0  0
 28 62  2  0  0  0  0
 29 63  1  0  0  0  0
 29 67  1  0  0  0  0
 30 64  1  0  0  0  0
 30 84  1  0  0  0  0
 31 70  1  0  0  0  0
 31 84  1  0  0  0  0
 32 33  2  0  0  0  0
 32 43  1  0  0  0  0
 32 44  1  0  0  0  0
 33 81  1  0  0  0  0
 34 68  1  0  0  0  0
 34 73  2  0  0  0  0
 35 69  1  0  0  0  0
 35 75  2  0  0  0  0
 36 52  1  0  0  0  0
 36 71  1  0  0  0  0
 36 76  2  0  0  0  0
 37 59  1  0  0  0  0
 37 65  1  0  0  0  0
 37 77  2  0  0  0  0
 38 60  1  0  0  0  0
 38 72  1  0  0  0  0
 38 78  2  0  0  0  0
 39 66  1  0  0  0  0
 39 70  1  0  0  0  0
 39 79  2  0  0  0  0
 40 45  1  0  0  0  0
 41 52  1  0  0  0  0
 42 65  1  0  0  0  0
 43 64  1  0  0  0  0
 44 64  1  0  0  0  0
 45 47  1  0  0  0  0
 46 48  1  0  0  0  0
 46 49  1  0  0  0  0
 47 51  1  0  0  0  0
 48 53  1  0  0  0  0
 49 66  1  0  0  0  0
 50 53  1  0  0  0  0
 50 66  1  0  0  0  0
 51 71  1  0  0  0  0
 52 65  1  0  0  0  0
 53 63  1  0  0  0  0
 54 60  1  0  0  0  0
 55 61  1  0  0  0  0
 56 61  1  0  0  0  0
 57 61  1  0  0  0  0
 58 74  1  0  0  0  0
 59 61  1  0  0  0  0
 59 72  1  0  0  0  0
 60 74  1  0  0  0  0
 62 63  1  0  0  0  0
M  CHG  2  73   1  74   1
M  ISO  4  33 101  39 100  70 100  81 101
M  END
> <Batch ID>
0157

> <Smiles>
CNC(C)C(=O)NC(C(=O)N1Cc2cc([101O:1][101CH:1]=C3CN(c4sc([100NH:0][100C:0](=O)N5CCCC(n6nc(-c7ccc(Oc8ccc(F)cc8F)cc7)c(C(N)=O)c6N)C5)cc4C(=N)N)C3)ccc2CC1C(=O)NC1CCCc2ccccc21)C(C)(C)C

> <Shape>
0.300

> <Color>
0.170

> <Negative vol penalty>
0.000

$$$$

  -OEChem-04052303413D

 86 95  0     1  0  0  0  0  0999 V2000
  -28.0608  -32.7060   27.4069 C   0  0  0  0  0  0  0  0  0  0  0  0
  -28.2684  -31.7251   26.4424 C   0  0  0  0  0  0  0  0  0  0  0  0
  -23.8596   -9.4240   22.0201 C   0  0  0  0  0  0  0  0  0  0  0  0
  -24.4258  -10.9442   23.8105 C   0  0  0  0  0  0  0  0  0  0  0  0
  -26.7640  -33.0236   27.8087 C   0  0  0  0  0  0  0  0  0  0  0  0
  -27.1792  -31.0605   25.8799 C   0  0  0  0  0  0  0  0  0  0  0  0
  -27.5548  -30.6274   20.8484 C   0  0  0  0  0  0  0  0  0  0  0  0
  -23.4120   -8.4902   22.9545 C   0  0  0  0  0  0  0  0  0  0  0  0
  -23.9782  -10.0103   24.7450 C   0  0  0  0  0  0  0  0  0  0  0  0
  -28.4041  -29.6373   20.3562 C   0  0  0  0  0  0  0  0  0  0  0  0
  -20.6602   -7.9896   24.8545 C   0  0  0  0  0  0  0  0  0  0  0  0
  -19.4450   -7.3524   24.6033 C   0  0  0  0  0  0  0  0  0  0  0  0
  -29.3506  -21.4585   20.1283 C   0  0  0  0  0  0  0  0  0  0  0  0
  -26.5009  -28.2072   19.9664 C   0  0  0  0  0  0  0  0  0  0  0  0
  -31.5502  -20.4628   20.2150 C   0  0  0  0  0  0  0  0  0  0  0  0
  -31.3156  -22.8523   19.9456 C   0  0  0  0  0  0  0  0  0  0  0  0
  -20.5673   -5.2129   24.6012 C   0  0  0  0  0  0  0  0  0  0  0  0
  -24.3665  -10.6510   22.4481 C   0  0  0  0  0  0  0  0  0  0  0  0
  -24.0731  -12.6284   20.8633 C   0  0  0  0  0  0  0  0  0  0  0  0
  -25.6579  -32.3693   27.2439 C   0  0  0  0  0  0  0  0  0  0  0  0
  -26.1710  -30.4103   20.9136 C   0  0  0  0  0  0  0  0  0  0  0  0
  -25.8665  -31.3687   26.2755 C   0  0  0  0  0  0  0  0  0  0  0  0
  -30.1620  -20.3301   20.2470 C   0  0  0  0  0  0  0  0  0  0  0  0
  -25.6360  -29.1971   20.4575 C   0  0  0  0  0  0  0  0  0  0  0  0
  -29.9274  -22.7196   19.9775 C   0  0  0  0  0  0  0  0  0  0  0  0
  -23.4713   -8.7833   24.3170 C   0  0  0  0  0  0  0  0  0  0  0  0
  -27.8774  -28.4259   19.9178 C   0  0  0  0  0  0  0  0  0  0  0  0
  -21.8289   -7.2384   24.9789 C   0  0  0  0  0  0  0  0  0  0  0  0
  -19.3986   -5.9641   24.4767 C   0  0  0  0  0  0  0  0  0  0  0  0
  -32.1270  -21.7239   20.0643 C   0  0  0  0  0  0  0  0  0  0  0  0
  -21.7825   -5.8501   24.8523 C   0  0  0  0  0  0  0  0  0  0  0  0
  -24.8296  -11.6159   21.4834 C   0  0  0  0  0  0  0  0  0  0  0  0
  -24.9662  -13.2681   20.0388 C   0  0  0  0  0  0  0  0  0  0  0  0
  -22.6871  -12.9609   21.0187 C   0  0  0  0  0  0  0  0  0  0  0  0
  -24.0268  -30.2927   23.2571 C   0  0  0  0  0  0  0  0  0  0  0  0
  -21.9257  -30.0614   20.7966 C   0  0  0  0  0  0  0  0  0  0  0  0
  -29.5091  -25.1858   19.7006 C   0  0  0  0  0  0  0  0  0  0  0  0
  -21.3584  -29.2053   17.5420 C   0  0  0  0  0  0  0  0  0  0  0  0
  -30.0040  -15.4919   19.1601 C   0  0  0  0  0  0  0  0  0  0  0  0
  -24.2775  -32.7134   27.7443 C   0  0  0  0  0  0  0  0  0  0  0  0
  -25.2658  -31.4986   21.4223 C   0  0  0  0  0  0  0  0  0  0  0  0
  -24.1555  -28.9222   20.4874 C   0  0  0  0  0  0  0  0  0  0  0  0
  -23.1582  -32.2259   26.8279 C   0  0  0  0  0  0  0  0  0  0  0  0
  -29.6384  -12.0196   18.6196 C   0  0  0  0  0  0  0  0  0  0  0  0
  -23.4010  -30.7784   26.4122 C   0  0  0  0  0  0  0  0  0  0  0  0
  -28.3127  -11.6718   19.2909 C   0  0  0  0  0  0  0  0  0  0  0  0
  -29.9278  -18.1677   21.6677 C   0  0  0  0  0  0  0  0  0  0  0  0
  -30.3942  -13.0675   19.4255 C   0  0  0  0  0  0  0  0  0  0  0  0
  -29.4828  -16.7511   21.3296 C   0  0  0  0  0  0  0  0  0  0  0  0
  -29.8925  -17.9615   19.3025 C   0  0  0  0  0  0  0  0  0  0  0  0
  -28.2724  -14.0145   20.2923 C   0  0  0  0  0  0  0  0  0  0  0  0
  -29.5371  -18.9623   20.4110 C   0  0  2  0  0  0  0  0  0  0  0  0
  -24.7094  -30.6429   25.6240 C   0  0  1  0  0  0  0  0  0  0  0  0
  -23.9232  -30.9741   21.9220 C   0  0  1  0  0  0  0  0  0  0  0  0
  -27.4756  -12.9388   19.5256 C   0  0  2  0  0  0  0  0  0  0  0  0
  -19.5321  -29.0911   15.8248 C   0  0  0  0  0  0  0  0  0  0  0  0
  -20.8282  -27.5483   22.1343 C   0  0  0  0  0  0  0  0  0  0  0  0
  -19.7107  -26.9686   19.9702 C   0  0  0  0  0  0  0  0  0  0  0  0
  -19.0865  -29.0634   21.1723 C   0  0  0  0  0  0  0  0  0  0  0  0
  -22.7490  -31.1220   15.7668 C   0  0  0  0  0  0  0  0  0  0  0  0
  -28.3067  -26.1070   19.6103 C   0  0  0  0  0  0  0  0  0  1  0  0
  -21.3256  -28.9235   20.0066 C   0  0  1  0  0  0  0  0  0  0  0  0
  -20.6487  -29.9368   16.4171 C   0  0  2  0  0  0  0  0  0  0  0  0
  -20.2659  -28.1301   20.8220 C   0  0  0  0  0  0  0  0  0  0  0  0
  -26.1049  -11.6089   21.0867 N   0  0  0  0  0  0  0  0  0  0  0  0
  -26.1568  -12.6247   20.2084 N   0  0  0  0  0  0  0  0  0  0  0  0
  -23.3123  -30.0150   20.9994 N   0  0  0  0  0  0  0  0  0  0  0  0
  -29.5791  -14.2593   19.6680 N   0  0  0  0  0  0  0  0  0  0  0  0
  -29.6917  -16.6397   19.8875 N   0  0  0  0  0  0  0  0  0  0  0  0
  -24.8413  -14.3124   19.1926 N   0  0  0  0  0  0  0  0  0  0  0  0
  -21.9134  -12.2016   21.9070 N   0  0  0  0  0  0  0  0  0  0  0  0
  -29.1161  -23.8484   19.8585 N   0  0  0  0  0  0  0  0  0  0  0  0
  -24.5284  -31.0976   24.2621 N   0  0  0  0  0  0  0  0  0  0  0  0
  -20.8141  -29.5089   18.7720 N   0  0  0  0  0  0  0  0  0  0  0  0
  -21.6108  -30.2731   15.3298 N   0  3  0  0  0  0  0  0  0  0  0  0
  -22.1468  -13.8930   20.3762 O   0  0  0  0  0  0  0  0  0  0  0  0
  -23.6761  -29.1238   23.3677 O   0  0  0  0  0  0  0  0  0  0  0  0
  -21.1923  -30.9620   21.2121 O   0  0  0  0  0  0  0  0  0  0  0  0
  -30.6555  -25.6175   19.6372 O   0  0  0  0  0  0  0  0  0  0  0  0
  -22.2990  -28.4382   17.3486 O   0  0  0  0  0  0  0  0  0  0  0  0
  -30.6719  -15.5625   18.1195 O   0  0  0  0  0  0  0  0  0  0  0  0
  -23.0344   -7.8723   25.2291 O   0  0  0  0  0  0  0  0  0  0  0  0
  -28.7127  -27.4475   19.4325 O   0  0  0  0  0  0  0  0  0  1  0  0
  -18.2314   -5.3523   24.2371 F   0  0  0  0  0  0  0  0  0  0  0  0
  -33.4600  -21.8513   20.0337 F   0  0  0  0  0  0  0  0  0  0  0  0
  -22.9018   -5.1230   24.9721 F   0  0  0  0  0  0  0  0  0  0  0  0
  1  2  1  0  0  0  0
  1  5  2  0  0  0  0
  2  6  2  0  0  0  0
  3  8  2  0  0  0  0
  3 18  1  0  0  0  0
  4  9  1  0  0  0  0
  4 18  2  0  0  0  0
  5 20  1  0  0  0  0
  6 22  1  0  0  0  0
  7 10  2  0  0  0  0
  7 21  1  0  0  0  0
  8 26  1  0  0  0  0
  9 26  2  0  0  0  0
 10 27  1  0  0  0  0
 11 12  2  0  0  0  0
 11 28  1  0  0  0  0
 12 29  1  0  0  0  0
 13 23  1  0  0  0  0
 13 25  2  0  0  0  0
 14 24  1  0  0  0  0
 14 27  2  0  0  0  0
 15 23  2  0  0  0  0
 15 30  1  0  0  0  0
 16 25  1  0  0  0  0
 16 30  2  0  0  0  0
 17 29  2  0  0  0  0
 17 31  1  0  0  0  0
 18 32  1  0  0  0  0
 19 32  1  0  0  0  0
 19 33  2  0  0  0  0
 19 34  1  0  0  0  0
 20 22  2  0  0  0  0
 20 40  1  0  0  0  0
 21 24  2  0  0  0  0
 21 41  1  0  0  0  0
 22 53  1  0  0  0  0
 23 52  1  0  0  0  0
 24 42  1  0  0  0  0
 25 72  1  0  0  0  0
 26 82  1  0  0  0  0
 27 83  1  0  0  0  0
 28 31  2  0  0  0  0
 28 82  1  0  0  0  0
 29 84  1  0  0  0  0
 30 85  1  0  0  0  0
 31 86  1  0  0  0  0
 32 65  2  0  0  0  0
 33 66  1  0  0  0  0
 33 70  1  0  0  0  0
 34 71  1  0  0  0  0
 34 76  2  0  0  0  0
 35 54  1  0  0  0  0
 35 73  1  0  0  0  0
 35 77  2  0  0  0  0
 36 62  1  0  0  0  0
 36 67  1  0  0  0  0
 36 78  2  0  0  0  0
 37 61  1  0  0  0  0
 37 72  1  0  0  0  0
 37 79  2  0  0  0  0
 38 63  1  0  0  0  0
 38 74  1  0  0  0  0
 38 80  2  0  0  0  0
 39 68  1  0  0  0  0
 39 69  1  0  0  0  0
 39 81  2  0  0  0  0
 40 43  1  0  0  0  0
 41 54  1  0  0  0  0
 42 67  1  0  0  0  0
 43 45  1  0  0  0  0
 44 46  1  0  0  0  0
 44 48  1  0  0  0  0
 45 53  1  0  0  0  0
 46 55  1  0  0  0  0
 47 49  1  0  0  0  0
 47 52  1  0  0  0  0
 48 68  1  0  0  0  0
 49 69  1  0  0  0  0
 50 52  1  0  0  0  0
 50 69  1  0  0  0  0
 51 55  1  0  0  0  0
 51 68  1  0  0  0  0
 53 73  1  0  0  0  0
 54 67  1  0  0  0  0
 55 66  1  0  0  0  0
 56 63  1  0  0  0  0
 57 64  1  0  0  0  0
 58 64  1  0  0  0  0
 59 64  1  0  0  0  0
 60 75  1  0  0  0  0
 61 83  1  0  0  0  0
 62 64  1  0  0  0  0
 62 74  1  0  0  0  0
 63 75  1  0  0  0  0
 65 66  1  0  0  0  0
M  CHG  1  75   1
M  ISO  4  39 100  61 101  69 100  83 101
M  END
> <Batch ID>
0157

> <Smiles>
CNC(C)C(=O)NC(C(=O)N1Cc2cc([101O:1][101CH2:1]C(=O)Nc3cc(F)cc(C4CC[100N:0]([100C:0](=O)N5CCCC(n6nc(-c7ccc(Oc8ccc(F)cc8F)cc7)c(C(N)=O)c6N)C5)C4)c3)ccc2CC1C(=O)NC1CCCc2ccccc21)C(C)(C)C

> <Shape>
0.340

> <Color>
0.148

> <Negative vol penalty>
0.000

$$$$

  -OEChem-04052303413D

 85 94  0     1  0  0  0  0  0999 V2000
  -29.6240  -26.4426   12.9814 C   0  0  0  0  0  0  0  0  0  0  0  0
  -29.2761  -25.4239   13.8627 C   0  0  0  0  0  0  0  0  0  0  0  0
  -22.8897   -9.9236   20.1943 C   0  0  0  0  0  0  0  0  0  0  0  0
  -24.2958   -9.6041   22.1328 C   0  0  0  0  0  0  0  0  0  0  0  0
  -30.5183  -27.4343   13.3821 C   0  0  0  0  0  0  0  0  0  0  0  0
  -29.8233  -25.3958   15.1450 C   0  0  0  0  0  0  0  0  0  0  0  0
  -27.0787  -23.4911   20.2777 C   0  0  0  0  0  0  0  0  0  0  0  0
  -22.2337   -8.7246   20.4725 C   0  0  0  0  0  0  0  0  0  0  0  0
  -23.6397   -8.4051   22.4111 C   0  0  0  0  0  0  0  0  0  0  0  0
  -27.1293  -22.2859   20.9768 C   0  0  0  0  0  0  0  0  0  0  0  0
  -19.8354   -7.6306   22.5901 C   0  0  0  0  0  0  0  0  0  0  0  0
  -18.4428   -7.6204   22.5120 C   0  0  0  0  0  0  0  0  0  0  0  0
  -28.8131  -23.2101   22.4362 C   0  0  0  0  0  0  0  0  0  0  0  0
  -18.5512   -5.9181   20.8009 C   0  0  0  0  0  0  0  0  0  0  0  0
  -30.7609  -16.1963   23.5436 C   0  0  0  0  0  0  0  0  0  0  0  0
  -23.9209  -10.3634   21.0244 C   0  0  0  0  0  0  0  0  0  0  0  0
  -24.0288  -12.8865   20.6638 C   0  0  0  0  0  0  0  0  0  0  0  0
  -31.0693  -27.4237   14.6732 C   0  0  0  0  0  0  0  0  0  0  0  0
  -27.9041  -24.5631   20.6465 C   0  0  0  0  0  0  0  0  0  0  0  0
  -30.7269  -26.3876   15.5629 C   0  0  0  0  0  0  0  0  0  0  0  0
  -28.7692  -24.4287   21.7418 C   0  0  0  0  0  0  0  0  0  0  0  0
  -22.6086   -7.9653   21.5809 C   0  0  0  0  0  0  0  0  0  0  0  0
  -27.9987  -22.1443   22.0543 C   0  0  0  0  0  0  0  0  0  0  0  0
  -20.5859   -6.7846   21.7736 C   0  0  0  0  0  0  0  0  0  0  0  0
  -17.8007   -6.7642   21.6175 C   0  0  0  0  0  0  0  0  0  0  0  0
  -19.9439   -5.9284   20.8790 C   0  0  0  0  0  0  0  0  0  0  0  0
  -24.5994  -11.6016   20.7372 C   0  0  0  0  0  0  0  0  0  0  0  0
  -31.7711  -15.1923   23.5497 C   0  0  0  0  0  0  0  0  0  0  0  0
  -25.0837  -13.7141   20.3660 C   0  0  0  0  0  0  0  0  0  0  0  0
  -31.3339  -17.4437   23.4232 C   0  0  0  0  0  0  0  0  0  0  0  0
  -22.6670  -13.2953   20.8485 C   0  0  0  0  0  0  0  0  0  0  0  0
  -30.2221  -26.2038   19.2186 C   0  0  0  0  0  0  0  0  0  0  0  0
  -30.0423  -28.0322   21.8920 C   0  0  0  0  0  0  0  0  0  0  0  0
  -29.4501  -19.1126   23.4285 C   0  0  0  0  0  0  0  0  0  0  0  0
  -29.1780  -28.2729   25.1847 C   0  0  0  0  0  0  0  0  0  0  0  0
  -30.9861  -13.2855   21.2768 C   0  0  0  0  0  0  0  0  0  0  0  0
  -32.0682  -28.4908   15.0450 C   0  0  0  0  0  0  0  0  0  0  0  0
  -27.8182  -25.8655   19.8990 C   0  0  0  0  0  0  0  0  0  0  0  0
  -29.6614  -25.5561   22.1906 C   0  0  0  0  0  0  0  0  0  0  0  0
  -32.3142  -28.5978   16.5478 C   0  0  0  0  0  0  0  0  0  0  0  0
  -33.3079  -12.8101   25.0777 C   0  0  0  0  0  0  0  0  0  0  0  0
  -32.1521  -13.2550   25.9716 C   0  0  0  0  0  0  0  0  0  0  0  0
  -29.3276  -13.7240   18.1569 C   0  0  0  0  0  0  0  0  0  0  0  0
  -32.5242  -27.2140   17.1542 C   0  0  0  0  0  0  0  0  0  0  0  0
  -27.8763  -13.3457   18.4578 C   0  0  0  0  0  0  0  0  0  0  0  0
  -32.7457  -12.7655   23.6556 C   0  0  0  0  0  0  0  0  0  0  0  0
  -30.9305  -13.3328   25.0575 C   0  0  0  0  0  0  0  0  0  0  0  0
  -30.3110  -12.8510   18.9333 C   0  0  0  0  0  0  0  0  0  0  0  0
  -28.6352  -12.4326   20.6914 C   0  0  0  0  0  0  0  0  0  0  0  0
  -31.2801  -26.3366   16.9706 C   0  0  1  0  0  0  0  0  0  0  0  0
  -29.0745  -26.7194   20.0401 C   0  0  1  0  0  0  0  0  0  0  0  0
  -27.6057  -13.3225   19.9742 C   0  0  2  0  0  0  0  0  0  0  0  0
  -31.5088  -13.6876   23.6693 C   0  0  0  0  0  0  0  0  0  0  0  0
  -29.1845  -29.8818   27.1105 C   0  0  0  0  0  0  0  0  0  0  0  0
  -33.0451  -27.6103   22.2313 C   0  0  0  0  0  0  0  0  0  0  0  0
  -32.8183  -28.3999   24.5963 C   0  0  0  0  0  0  0  0  0  0  0  0
  -32.2574  -29.9348   22.7116 C   0  0  0  0  0  0  0  0  0  0  0  0
  -26.2311  -28.1644   25.4358 C   0  0  0  0  0  0  0  0  0  0  0  0
  -29.2985  -20.6195   23.3356 C   0  0  0  0  0  0  0  0  0  1  0  0
  -30.7059  -28.0119   23.2478 C   0  0  1  0  0  0  0  0  0  0  0  0
  -28.3855  -29.3216   25.9440 C   0  0  2  0  0  0  0  0  0  0  0  0
  -32.1914  -28.4671   23.1873 C   0  0  0  0  0  0  0  0  0  0  0  0
  -25.9146  -11.6074   20.5045 N   0  0  0  0  0  0  0  0  0  0  0  0
  -33.0341  -15.5984   23.4432 N   0  0  0  0  0  0  0  0  0  0  0  0
  -26.1793  -12.9061   20.2819 N   0  0  0  0  0  0  0  0  0  0  0  0
  -29.5455  -26.8075   21.4238 N   0  0  0  0  0  0  0  0  0  0  0  0
  -30.0004  -12.8737   20.3647 N   0  0  0  0  0  0  0  0  0  0  0  0
  -25.1717  -15.0469   20.1703 N   0  0  0  0  0  0  0  0  0  0  0  0
  -22.2444  -13.6486   22.1372 N   0  0  0  0  0  0  0  0  0  0  0  0
  -30.7912  -18.7494   23.3686 N   0  0  0  0  0  0  0  0  0  0  0  0
  -30.2591  -26.7002   17.9296 N   0  0  0  0  0  0  0  0  0  0  0  0
  -29.8678  -28.8223   24.1247 N   0  0  0  0  0  0  0  0  0  0  0  0
  -30.6070  -13.2838   22.6136 N   0  0  0  0  0  0  0  0  0  0  0  0
  -27.1250  -28.7324   26.4777 N   0  3  0  0  0  0  0  0  0  0  0  0
  -21.8449  -13.3300   19.9017 O   0  0  0  0  0  0  0  0  0  0  0  0
  -31.0161  -25.4151   19.7178 O   0  0  0  0  0  0  0  0  0  0  0  0
  -29.9611  -29.0969   21.2744 O   0  0  0  0  0  0  0  0  0  0  0  0
  -28.4767  -18.3746   23.5400 O   0  0  0  0  0  0  0  0  0  0  0  0
  -29.1874  -27.0857   25.5025 O   0  0  0  0  0  0  0  0  0  0  0  0
  -32.1182  -13.6344   20.9253 O   0  0  0  0  0  0  0  0  0  0  0  0
  -21.9684   -6.7954   21.8529 O   0  0  0  0  0  0  0  0  0  0  0  0
  -28.0506  -20.9688   22.7380 O   0  0  0  0  0  0  0  0  0  1  0  0
  -16.4633   -6.7534   21.5437 F   0  0  0  0  0  0  0  0  0  0  0  0
  -20.6595   -5.1125   20.0929 F   0  0  0  0  0  0  0  0  0  0  0  0
  -33.0339  -17.2564   23.3302 S   0  0  0  0  0  0  0  0  0  0  0  0
  1  2  1  0  0  0  0
  1  5  2  0  0  0  0
  2  6  2  0  0  0  0
  3  8  2  0  0  0  0
  3 16  1  0  0  0  0
  4  9  1  0  0  0  0
  4 16  2  0  0  0  0
  5 18  1  0  0  0  0
  6 20  1  0  0  0  0
  7 10  2  0  0  0  0
  7 19  1  0  0  0  0
  8 22  1  0  0  0  0
  9 22  2  0  0  0  0
 10 23  1  0  0  0  0
 11 12  2  0  0  0  0
 11 24  1  0  0  0  0
 12 25  1  0  0  0  0
 13 21  1  0  0  0  0
 13 23  2  0  0  0  0
 14 25  2  0  0  0  0
 14 26  1  0  0  0  0
 15 28  1  0  0  0  0
 15 30  2  0  0  0  0
 16 27  1  0  0  0  0
 17 27  1  0  0  0  0
 17 29  2  0  0  0  0
 17 31  1  0  0  0  0
 18 20  2  0  0  0  0
 18 37  1  0  0  0  0
 19 21  2  0  0  0  0
 19 38  1  0  0  0  0
 20 50  1  0  0  0  0
 21 39  1  0  0  0  0
 22 81  1  0  0  0  0
 23 82  1  0  0  0  0
 24 26  2  0  0  0  0
 24 81  1  0  0  0  0
 25 83  1  0  0  0  0
 26 84  1  0  0  0  0
 27 63  2  0  0  0  0
 28 53  1  0  0  0  0
 28 64  2  0  0  0  0
 29 65  1  0  0  0  0
 29 68  1  0  0  0  0
 30 70  1  0  0  0  0
 30 85  1  0  0  0  0
 31 69  1  0  0  0  0
 31 75  2  0  0  0  0
 32 51  1  0  0  0  0
 32 71  1  0  0  0  0
 32 76  2  0  0  0  0
 33 60  1  0  0  0  0
 33 66  1  0  0  0  0
 33 77  2  0  0  0  0
 34 59  1  0  0  0  0
 34 70  1  0  0  0  0
 34 78  2  0  0  0  0
 35 61  1  0  0  0  0
 35 72  1  0  0  0  0
 35 79  2  0  0  0  0
 36 67  1  0  0  0  0
 36 73  1  0  0  0  0
 36 80  2  0  0  0  0
 37 40  1  0  0  0  0
 38 51  1  0  0  0  0
 39 66  1  0  0  0  0
 40 44  1  0  0  0  0
 41 42  1  0  0  0  0
 41 46  1  0  0  0  0
 42 47  1  0  0  0  0
 43 45  1  0  0  0  0
 43 48  1  0  0  0  0
 44 50  1  0  0  0  0
 45 52  1  0  0  0  0
 46 53  1  0  0  0  0
 47 53  1  0  0  0  0
 48 67  1  0  0  0  0
 49 52  1  0  0  0  0
 49 67  1  0  0  0  0
 50 71  1  0  0  0  0
 51 66  1  0  0  0  0
 52 65  1  0  0  0  0
 53 73  1  0  0  0  0
 54 61  1  0  0  0  0
 55 62  1  0  0  0  0
 56 62  1  0  0  0  0
 57 62  1  0  0  0  0
 58 74  1  0  0  0  0
 59 82  1  0  0  0  0
 60 62  1  0  0  0  0
 60 72  1  0  0  0  0
 61 74  1  0  0  0  0
 63 65  1  0  0  0  0
 64 85  1  0  0  0  0
M  CHG  1  74   1
M  ISO  4  36 100  59 101  73 100  82 101
M  END
> <Batch ID>
0157

> <Smiles>
CNC(C)C(=O)NC(C(=O)N1Cc2cc([101O:1][101CH2:1]C(=O)Nc3cc(C4([100NH:0][100C:0](=O)N5CCCC(n6nc(-c7ccc(Oc8ccc(F)cc8F)cc7)c(C(N)=O)c6N)C5)CCCC4)ns3)ccc2CC1C(=O)NC1CCCc2ccccc21)C(C)(C)C

> <Shape>
0.199

> <Color>
0.157

> <Negative vol penalty>
0.000

$$$$

  -OEChem-04052303413D

 88 97  0     1  0  0  0  0  0999 V2000
  -29.4911  -32.4529   25.5068 C   0  0  0  0  0  0  0  0  0  0  0  0
  -29.3031  -31.4070   24.6090 C   0  0  0  0  0  0  0  0  0  0  0  0
  -23.2972  -11.1712   21.9195 C   0  0  0  0  0  0  0  0  0  0  0  0
  -21.9240  -11.2016   19.9319 C   0  0  0  0  0  0  0  0  0  0  0  0
  -28.4355  -32.8759   26.3134 C   0  0  0  0  0  0  0  0  0  0  0  0
  -28.0595  -30.7828   24.5179 C   0  0  0  0  0  0  0  0  0  0  0  0
  -26.6055  -30.0387   19.7245 C   0  0  0  0  0  0  0  0  0  0  0  0
  -23.7669   -9.9037   21.5756 C   0  0  0  0  0  0  0  0  0  0  0  0
  -22.3937   -9.9341   19.5880 C   0  0  0  0  0  0  0  0  0  0  0  0
  -27.1841  -28.9693   19.0423 C   0  0  0  0  0  0  0  0  0  0  0  0
  -22.6692   -6.7112   21.7423 C   0  0  0  0  0  0  0  0  0  0  0  0
  -22.7269   -5.7472   22.7487 C   0  0  0  0  0  0  0  0  0  0  0  0
  -26.4960  -20.2020   19.3022 C   0  0  0  0  0  0  0  0  0  0  0  0
  -25.2110  -27.6450   19.4571 C   0  0  0  0  0  0  0  0  0  0  0  0
  -27.0104  -18.8334   21.2256 C   0  0  0  0  0  0  0  0  0  0  0  0
  -25.1110   -5.5419   22.4153 C   0  0  0  0  0  0  0  0  0  0  0  0
  -22.3757  -11.8202   21.0977 C   0  0  0  0  0  0  0  0  0  0  0  0
  -27.8114  -20.6655   19.2802 C   0  0  0  0  0  0  0  0  0  0  0  0
  -21.1922  -13.4891   22.6214 C   0  0  0  0  0  0  0  0  0  0  0  0
  -27.1757  -32.2630   26.2254 C   0  0  0  0  0  0  0  0  0  0  0  0
  -25.3276  -29.9154   20.2885 C   0  0  0  0  0  0  0  0  0  0  0  0
  -26.9864  -31.1972   25.3250 C   0  0  0  0  0  0  0  0  0  0  0  0
  -24.6174  -28.7151   20.1438 C   0  0  0  0  0  0  0  0  0  0  0  0
  -26.0955  -19.2860   20.2750 C   0  0  0  0  0  0  0  0  0  0  0  0
  -28.7263  -20.2129   20.2309 C   0  0  0  0  0  0  0  0  0  0  0  0
  -23.3152   -9.2851   20.4098 C   0  0  0  0  0  0  0  0  0  0  0  0
  -26.4881  -27.7713   18.9110 C   0  0  0  0  0  0  0  0  0  0  0  0
  -23.8323   -7.0906   21.0722 C   0  0  0  0  0  0  0  0  0  0  0  0
  -23.9478   -5.1626   23.0853 C   0  0  0  0  0  0  0  0  0  0  0  0
  -28.3258  -19.2969   21.2036 C   0  0  0  0  0  0  0  0  0  0  0  0
  -25.0532   -6.5059   21.4088 C   0  0  0  0  0  0  0  0  0  0  0  0
  -21.8897  -13.1293   21.4527 C   0  0  0  0  0  0  0  0  0  0  0  0
  -20.9586  -14.8353   22.4811 C   0  0  0  0  0  0  0  0  0  0  0  0
  -28.2099  -21.6331   18.2424 C   0  0  0  0  0  0  0  0  0  0  0  0
  -20.7913  -12.6789   23.7343 C   0  0  0  0  0  0  0  0  0  0  0  0
  -24.1529  -30.0709   23.2380 C   0  0  0  0  0  0  0  0  0  0  0  0
  -21.3073  -29.8349   21.6988 C   0  0  0  0  0  0  0  0  0  0  0  0
  -19.9532  -27.9402   18.9431 C   0  0  0  0  0  0  0  0  0  0  0  0
  -23.7262  -19.1624   19.4280 C   0  0  0  0  0  0  0  0  0  0  0  0
  -26.0780  -32.7236   27.1514 C   0  0  0  0  0  0  0  0  0  0  0  0
  -24.7065  -31.0872   20.9982 C   0  0  0  0  0  0  0  0  0  0  0  0
  -23.2343  -28.5384   20.7133 C   0  0  0  0  0  0  0  0  0  0  0  0
  -24.6876  -32.2576   26.7272 C   0  0  0  0  0  0  0  0  0  0  0  0
  -20.3126  -18.1948   19.1299 C   0  0  0  0  0  0  0  0  0  0  0  0
  -24.7088  -30.7760   26.3647 C   0  0  0  0  0  0  0  0  0  0  0  0
  -20.2650  -16.8215   19.8035 C   0  0  0  0  0  0  0  0  0  0  0  0
  -28.9438  -25.1957   18.1476 C   0  0  0  0  0  0  0  0  0  0  0  0
  -26.8684  -24.7444   19.5714 C   0  0  0  0  0  0  0  0  0  0  0  0
  -21.6150  -18.4036   18.3592 C   0  0  0  0  0  0  0  0  0  0  0  0
  -28.4851  -23.9196   17.4543 C   0  0  0  0  0  0  0  0  0  0  0  0
  -27.5622  -23.4049   19.7804 C   0  0  0  0  0  0  0  0  0  0  0  0
  -22.7921  -16.7963   19.8084 C   0  0  0  0  0  0  0  0  0  0  0  0
  -25.6453  -30.5114   25.1796 C   0  0  1  0  0  0  0  0  0  0  0  0
  -23.6091  -30.6799   21.9766 C   0  0  1  0  0  0  0  0  0  0  0  0
  -21.5268  -16.5652   20.6506 C   0  0  2  0  0  0  0  0  0  0  0  0
  -27.8306  -25.8103   19.0159 C   0  0  0  0  0  0  0  0  0  1  0  0
  -18.0811  -28.4743   17.3597 C   0  0  0  0  0  0  0  0  0  0  0  0
  -19.5835  -28.2602   23.6631 C   0  0  0  0  0  0  0  0  0  0  0  0
  -18.3412  -27.3137   21.7063 C   0  0  0  0  0  0  0  0  0  0  0  0
  -18.3064  -29.7712   22.1333 C   0  0  0  0  0  0  0  0  0  0  0  0
  -21.6889  -27.5537   16.5774 C   0  0  0  0  0  0  0  0  0  0  0  0
  -20.4207  -28.6947   21.2597 C   0  0  1  0  0  0  0  0  0  0  0  0
  -19.5874  -28.4703   17.5685 C   0  0  2  0  0  0  0  0  0  0  0  0
  -19.1912  -28.5069   22.1927 C   0  0  0  0  0  0  0  0  0  0  0  0
  -22.0862  -14.1635   20.6305 N   0  0  0  0  0  0  0  0  0  0  0  0
  -21.5086  -15.1863   21.2835 N   0  0  0  0  0  0  0  0  0  0  0  0
  -28.0908  -22.9322   18.4825 N   0  0  0  0  0  0  0  0  0  0  0  0
  -22.6724  -29.7109   21.4040 N   0  0  0  0  0  0  0  0  0  0  0  0
  -22.7671  -18.1474   19.2263 N   0  0  0  0  0  0  0  0  0  0  0  0
  -30.0619  -20.6725   20.2223 N   0  0  0  0  0  0  0  0  0  0  0  0
  -20.3383  -15.7412   23.2667 N   0  0  0  0  0  0  0  0  0  0  0  0
  -21.1119  -11.3146   23.7173 N   0  0  0  0  0  0  0  0  0  0  0  0
  -24.7593  -18.8149   20.2977 N   0  0  0  0  0  0  0  0  0  0  0  0
  -25.0106  -30.8981   23.9377 N   0  0  0  0  0  0  0  0  0  0  0  0
  -20.0786  -28.9570   19.8659 N   0  0  0  0  0  0  0  0  0  0  0  0
  -28.6844  -21.1887   17.0824 N   0  3  0  0  0  0  0  0  0  0  0  0
  -20.2069  -27.6277   16.5067 N   0  3  0  0  0  0  0  0  0  0  0  0
  -20.1530  -13.1474   24.7071 O   0  0  0  0  0  0  0  0  0  0  0  0
  -23.8179  -28.9353   23.5539 O   0  0  0  0  0  0  0  0  0  0  0  0
  -20.8060  -30.8033   22.2755 O   0  0  0  0  0  0  0  0  0  0  0  0
  -20.1083  -26.7434   19.1759 O   0  0  0  0  0  0  0  0  0  0  0  0
  -23.6229  -20.2686   18.8915 O   0  0  0  0  0  0  0  0  0  0  0  0
  -28.4651  -26.5104   20.0861 O   0  0  0  0  0  0  0  0  0  0  0  0
  -23.7735   -8.0483   20.0738 O   0  0  0  0  0  0  0  0  0  0  0  0
  -27.0508  -26.7257   18.2462 O   0  0  0  0  0  0  0  0  0  1  0  0
  -24.0034   -4.2380   24.0528 F   0  0  0  0  0  0  0  0  0  0  0  0
  -29.1963  -18.8547   22.1225 F   0  0  0  0  0  0  0  0  0  0  0  0
  -26.1742   -6.8671   20.7695 F   0  0  0  0  0  0  0  0  0  0  0  0
  1  2  1  0  0  0  0
  1  5  2  0  0  0  0
  2  6  2  0  0  0  0
  3  8  2  0  0  0  0
  3 17  1  0  0  0  0
  4  9  1  0  0  0  0
  4 17  2  0  0  0  0
  5 20  1  0  0  0  0
  6 22  1  0  0  0  0
  7 10  2  0  0  0  0
  7 21  1  0  0  0  0
  8 26  1  0  0  0  0
  9 26  2  0  0  0  0
 10 27  1  0  0  0  0
 11 12  2  0  0  0  0
 11 28  1  0  0  0  0
 12 29  1  0  0  0  0
 13 18  1  0  0  0  0
 13 24  2  0  0  0  0
 14 23  1  0  0  0  0
 14 27  2  0  0  0  0
 15 24  1  0  0  0  0
 15 30  2  0  0  0  0
 16 29  2  0  0  0  0
 16 31  1  0  0  0  0
 17 32  1  0  0  0  0
 18 25  2  0  0  0  0
 18 34  1  0  0  0  0
 19 32  1  0  0  0  0
 19 33  2  0  0  0  0
 19 35  1  0  0  0  0
 20 22  2  0  0  0  0
 20 40  1  0  0  0  0
 21 23  2  0  0  0  0
 21 41  1  0  0  0  0
 22 53  1  0  0  0  0
 23 42  1  0  0  0  0
 24 73  1  0  0  0  0
 25 30  1  0  0  0  0
 25 70  1  0  0  0  0
 26 84  1  0  0  0  0
 27 85  1  0  0  0  0
 28 31  2  0  0  0  0
 28 84  1  0  0  0  0
 29 86  1  0  0  0  0
 30 87  1  0  0  0  0
 31 88  1  0  0  0  0
 32 65  2  0  0  0  0
 33 66  1  0  0  0  0
 33 71  1  0  0  0  0
 34 67  1  0  0  0  0
 34 76  2  0  0  0  0
 35 72  1  0  0  0  0
 35 78  2  0  0  0  0
 36 54  1  0  0  0  0
 36 74  1  0  0  0  0
 36 79  2  0  0  0  0
 37 62  1  0  0  0  0
 37 68  1  0  0  0  0
 37 80  2  0  0  0  0
 38 63  1  0  0  0  0
 38 75  1  0  0  0  0
 38 81  2  0  0  0  0
 39 69  1  0  0  0  0
 39 73  1  0  0  0  0
 39 82  2  0  0  0  0
 40 43  1  0  0  0  0
 41 54  1  0  0  0  0
 42 68  1  0  0  0  0
 43 45  1  0  0  0  0
 44 46  1  0  0  0  0
 44 49  1  0  0  0  0
 45 53  1  0  0  0  0
 46 55  1  0  0  0  0
 47 50  1  0  0  0  0
 47 56  1  0  0  0  0
 48 51  1  0  0  0  0
 48 56  1  0  0  0  0
 49 69  1  0  0  0  0
 50 67  1  0  0  0  0
 51 67  1  0  0  0  0
 52 55  1  0  0  0  0
 52 69  1  0  0  0  0
 53 74  1  0  0  0  0
 54 68  1  0  0  0  0
 55 66  1  0  0  0  0
 56 83  1  0  0  0  0
 56 85  1  0  0  0  0
 57 63  1  0  0  0  0
 58 64  1  0  0  0  0
 59 64  1  0  0  0  0
 60 64  1  0  0  0  0
 61 77  1  0  0  0  0
 62 64  1  0  0  0  0
 62 75  1  0  0  0  0
 63 77  1  0  0  0  0
 65 66  1  0  0  0  0
M  CHG  2  76   1  77   1
M  ISO  4  39 100  56 101  73 100  85 101
M  END
> <Batch ID>
0157

> <Smiles>
CNC(C)C(=O)NC(C(=O)N1Cc2cc([101O:1][101C:1]3(O)CCN(C(=N)c4cc([100NH:0][100C:0](=O)N5CCCC(n6nc(-c7ccc(Oc8ccc(F)cc8F)cc7)c(C(N)=O)c6N)C5)cc(F)c4N)CC3)ccc2CC1C(=O)NC1CCCc2ccccc21)C(C)(C)C

> <Shape>
0.260

> <Color>
0.075

> <Negative vol penalty>
0.000

$$$$

  -OEChem-04052303413D

 85 94  0     1  0  0  0  0  0999 V2000
  -25.6344  -35.2005   24.9168 C   0  0  0  0  0  0  0  0  0  0  0  0
  -26.5366  -34.1417   24.8964 C   0  0  0  0  0  0  0  0  0  0  0  0
  -23.0373  -10.7775   22.2269 C   0  0  0  0  0  0  0  0  0  0  0  0
  -24.5276   -8.9666   21.6465 C   0  0  0  0  0  0  0  0  0  0  0  0
  -24.3243  -35.0070   24.4808 C   0  0  0  0  0  0  0  0  0  0  0  0
  -26.1289  -32.8885   24.4409 C   0  0  0  0  0  0  0  0  0  0  0  0
  -28.6129  -27.1225   20.9914 C   0  0  0  0  0  0  0  0  0  0  0  0
  -22.4330   -9.9711   23.1913 C   0  0  0  0  0  0  0  0  0  0  0  0
  -23.9233   -8.1602   22.6110 C   0  0  0  0  0  0  0  0  0  0  0  0
  -28.6895  -25.7369   21.1258 C   0  0  0  0  0  0  0  0  0  0  0  0
  -21.0952   -6.3323   22.9140 C   0  0  0  0  0  0  0  0  0  0  0  0
  -20.7777   -5.0220   22.5568 C   0  0  0  0  0  0  0  0  0  0  0  0
  -26.4234  -25.5398   20.3224 C   0  0  0  0  0  0  0  0  0  0  0  0
  -30.7678  -17.5487   21.9113 C   0  0  0  0  0  0  0  0  0  0  0  0
  -22.2158   -4.1947   24.3131 C   0  0  0  0  0  0  0  0  0  0  0  0
  -24.0845  -10.2752   21.4544 C   0  0  0  0  0  0  0  0  0  0  0  0
  -24.0924  -11.7054   19.3420 C   0  0  0  0  0  0  0  0  0  0  0  0
  -23.9030  -33.7532   24.0107 C   0  0  0  0  0  0  0  0  0  0  0  0
  -27.4353  -27.7290   20.5310 C   0  0  0  0  0  0  0  0  0  0  0  0
  -24.8115  -32.6777   23.9995 C   0  0  0  0  0  0  0  0  0  0  0  0
  -26.3354  -26.9331   20.1806 C   0  0  0  0  0  0  0  0  0  0  0  0
  -30.5809  -18.7715   22.6184 C   0  0  0  0  0  0  0  0  0  0  0  0
  -22.8760   -8.6625   23.3835 C   0  0  0  0  0  0  0  0  0  0  0  0
  -27.5937  -24.9456   20.7941 C   0  0  0  0  0  0  0  0  0  0  0  0
  -21.9731   -6.5739   23.9707 C   0  0  0  0  0  0  0  0  0  0  0  0
  -21.3380   -3.9531   23.2563 C   0  0  0  0  0  0  0  0  0  0  0  0
  -22.5334   -5.5051   24.6703 C   0  0  0  0  0  0  0  0  0  0  0  0
  -24.7088  -11.1075   20.4575 C   0  0  0  0  0  0  0  0  0  0  0  0
  -29.3201  -18.8654   23.1653 C   0  0  0  0  0  0  0  0  0  0  0  0
  -25.1059  -12.3872   18.7141 C   0  0  0  0  0  0  0  0  0  0  0  0
  -29.6426  -16.7545   21.9448 C   0  0  0  0  0  0  0  0  0  0  0  0
  -28.5009  -21.5773   21.9917 C   0  0  0  0  0  0  0  0  0  0  0  0
  -22.7257  -11.6497   18.9120 C   0  0  0  0  0  0  0  0  0  0  0  0
  -28.7260  -19.9490   23.9613 C   0  0  0  0  0  0  0  0  0  0  0  0
  -25.3509  -29.7950   21.7518 C   0  0  0  0  0  0  0  0  0  0  0  0
  -24.0848  -29.6837   18.7673 C   0  0  0  0  0  0  0  0  0  0  0  0
  -23.6929  -27.9587   15.8489 C   0  0  0  0  0  0  0  0  0  0  0  0
  -30.2716  -14.6982   20.6324 C   0  0  0  0  0  0  0  0  0  0  0  0
  -22.4638  -33.5803   23.5940 C   0  0  0  0  0  0  0  0  0  0  0  0
  -27.3779  -29.2229   20.3662 C   0  0  0  0  0  0  0  0  0  0  0  0
  -25.0550  -27.5337   19.6624 C   0  0  0  0  0  0  0  0  0  0  0  0
  -22.2145  -32.3166   22.7748 C   0  0  0  0  0  0  0  0  0  0  0  0
  -29.8484  -12.2759   18.0574 C   0  0  0  0  0  0  0  0  0  0  0  0
  -22.8940  -31.1158   23.4254 C   0  0  0  0  0  0  0  0  0  0  0  0
  -28.4241  -11.7602   18.2754 C   0  0  0  0  0  0  0  0  0  0  0  0
  -28.0490  -23.4944   23.3237 C   0  0  0  0  0  0  0  0  0  0  0  0
  -30.5536  -12.5704   19.3802 C   0  0  0  0  0  0  0  0  0  0  0  0
  -28.6271  -22.4073   24.2012 C   0  0  0  0  0  0  0  0  0  0  0  0
  -28.3956  -12.9431   20.5085 C   0  0  0  0  0  0  0  0  0  0  0  0
  -24.4138  -31.3096   23.4892 C   0  0  1  0  0  0  0  0  0  0  0  0
  -28.5070  -23.0917   21.9323 C   0  0  2  0  0  0  0  0  0  1  0  0
  -25.9541  -29.7708   20.3759 C   0  0  1  0  0  0  0  0  0  0  0  0
  -27.6224  -12.6940   19.2032 C   0  0  2  0  0  0  0  0  0  0  0  0
  -22.5732  -28.1071   13.6080 C   0  0  0  0  0  0  0  0  0  0  0  0
  -21.4055  -29.0136   20.0644 C   0  0  0  0  0  0  0  0  0  0  0  0
  -20.5897  -28.2530   17.8229 C   0  0  0  0  0  0  0  0  0  0  0  0
  -21.2678  -30.6297   18.1608 C   0  0  0  0  0  0  0  0  0  0  0  0
  -26.2817  -27.8496   14.4187 C   0  0  0  0  0  0  0  0  0  0  0  0
  -23.0451  -28.8335   18.0781 C   0  0  1  0  0  0  0  0  0  0  0  0
  -23.8419  -28.3844   14.3994 C   0  0  2  0  0  0  0  0  0  0  0  0
  -21.6003  -29.1709   18.5431 C   0  0  0  0  0  0  0  0  0  0  0  0
  -26.0130  -11.3848   20.5362 N   0  0  0  0  0  0  0  0  0  0  0  0
  -26.2244  -12.1645   19.4622 N   0  0  0  0  0  0  0  0  0  0  0  0
  -28.6378  -21.2192   23.3646 N   0  0  0  0  0  0  0  0  0  0  0  0
  -25.0459  -28.9994   19.5249 N   0  0  0  0  0  0  0  0  0  0  0  0
  -29.7376  -13.4642   20.2048 N   0  0  0  0  0  0  0  0  0  0  0  0
  -31.5372  -19.7234   22.7343 N   0  0  0  0  0  0  0  0  0  0  0  0
  -25.1407  -13.1493   17.6004 N   0  0  0  0  0  0  0  0  0  0  0  0
  -21.8156  -10.9040   19.6735 N   0  0  0  0  0  0  0  0  0  0  0  0
  -29.3924  -15.4779   21.3832 N   0  0  0  0  0  0  0  0  0  0  0  0
  -25.0101  -31.0588   22.1946 N   0  0  0  0  0  0  0  0  0  0  0  0
  -23.2659  -28.9999   16.6456 N   0  0  0  0  0  0  0  0  0  0  0  0
  -24.9671  -27.6485   13.7564 N   0  3  0  0  0  0  0  0  0  0  0  0
  -28.3875  -20.8493   21.0168 O   0  0  0  0  0  0  0  0  0  0  0  0
  -22.3270  -12.2301   17.8739 O   0  0  0  0  0  0  0  0  0  0  0  0
  -28.3336  -19.6688   25.0924 O   0  0  0  0  0  0  0  0  0  0  0  0
  -25.2040  -28.7446   22.3656 O   0  0  0  0  0  0  0  0  0  0  0  0
  -24.0499  -30.9094   18.6325 O   0  0  0  0  0  0  0  0  0  0  0  0
  -23.9280  -26.8158   16.2350 O   0  0  0  0  0  0  0  0  0  0  0  0
  -31.4148  -15.0502   20.3301 O   0  0  0  0  0  0  0  0  0  0  0  0
  -22.2868   -7.8755   24.3247 O   0  0  0  0  0  0  0  0  0  0  0  0
  -27.6655  -23.5929   20.9250 O   0  0  0  0  0  0  0  0  0  1  0  0
  -21.0317   -2.6948   22.9141 F   0  0  0  0  0  0  0  0  0  0  0  0
  -23.3765   -5.7310   25.6871 F   0  0  0  0  0  0  0  0  0  0  0  0
  -28.3679  -17.4832   22.8259 S   0  0  0  0  0  0  0  0  0  0  0  0
  1  2  1  0  0  0  0
  1  5  2  0  0  0  0
  2  6  2  0  0  0  0
  3  8  2  0  0  0  0
  3 16  1  0  0  0  0
  4  9  1  0  0  0  0
  4 16  2  0  0  0  0
  5 18  1  0  0  0  0
  6 20  1  0  0  0  0
  7 10  2  0  0  0  0
  7 19  1  0  0  0  0
  8 23  1  0  0  0  0
  9 23  2  0  0  0  0
 10 24  1  0  0  0  0
 11 12  2  0  0  0  0
 11 25  1  0  0  0  0
 12 26  1  0  0  0  0
 13 21  1  0  0  0  0
 13 24  2  0  0  0  0
 14 22  1  0  0  0  0
 14 31  2  0  0  0  0
 15 26  2  0  0  0  0
 15 27  1  0  0  0  0
 16 28  1  0  0  0  0
 17 28  1  0  0  0  0
 17 30  2  0  0  0  0
 17 33  1  0  0  0  0
 18 20  2  0  0  0  0
 18 39  1  0  0  0  0
 19 21  2  0  0  0  0
 19 40  1  0  0  0  0
 20 50  1  0  0  0  0
 21 41  1  0  0  0  0
 22 29  2  0  0  0  0
 22 67  1  0  0  0  0
 23 81  1  0  0  0  0
 24 82  1  0  0  0  0
 25 27  2  0  0  0  0
 25 81  1  0  0  0  0
 26 83  1  0  0  0  0
 27 84  1  0  0  0  0
 28 62  2  0  0  0  0
 29 34  1  0  0  0  0
 29 85  1  0  0  0  0
 30 63  1  0  0  0  0
 30 68  1  0  0  0  0
 31 70  1  0  0  0  0
 31 85  1  0  0  0  0
 32 51  1  0  0  0  0
 32 64  1  0  0  0  0
 32 74  2  0  0  0  0
 33 69  1  0  0  0  0
 33 75  2  0  0  0  0
 34 64  1  0  0  0  0
 34 76  2  0  0  0  0
 35 52  1  0  0  0  0
 35 71  1  0  0  0  0
 35 77  2  0  0  0  0
 36 59  1  0  0  0  0
 36 65  1  0  0  0  0
 36 78  2  0  0  0  0
 37 60  1  0  0  0  0
 37 72  1  0  0  0  0
 37 79  2  0  0  0  0
 38 66  1  0  0  0  0
 38 70  1  0  0  0  0
 38 80  2  0  0  0  0
 39 42  1  0  0  0  0
 40 52  1  0  0  0  0
 41 65  1  0  0  0  0
 42 44  1  0  0  0  0
 43 45  1  0  0  0  0
 43 47  1  0  0  0  0
 44 50  1  0  0  0  0
 45 53  1  0  0  0  0
 46 48  1  0  0  0  0
 46 51  1  0  0  0  0
 47 66  1  0  0  0  0
 48 64  1  0  0  0  0
 49 53  1  0  0  0  0
 49 66  1  0  0  0  0
 50 71  1  0  0  0  0
 51 82  1  0  0  0  0
 52 65  1  0  0  0  0
 53 63  1  0  0  0  0
 54 60  1  0  0  0  0
 55 61  1  0  0  0  0
 56 61  1  0  0  0  0
 57 61  1  0  0  0  0
 58 73  1  0  0  0  0
 59 61  1  0  0  0  0
 59 72  1  0  0  0  0
 60 73  1  0  0  0  0
 62 63  1  0  0  0  0
M  CHG  1  73   1
M  ISO  4  38 100  51 101  70 100  82 101
M  END
> <Batch ID>
0157

> <Smiles>
CNC(C)C(=O)NC(C(=O)N1Cc2cc([101O:1][101CH:1]3CCN(C(=O)c4sc([100NH:0][100C:0](=O)N5CCCC(n6nc(-c7ccc(Oc8ccc(F)cc8F)cc7)c(C(N)=O)c6N)C5)cc4N)C3=O)ccc2CC1C(=O)NC1CCCc2ccccc21)C(C)(C)C

> <Shape>
0.288

> <Color>
0.092

> <Negative vol penalty>
0.000

$$$$

  -OEChem-04052303413D

 85 94  0     1  0  0  0  0  0999 V2000
  -22.8832   -8.6584   20.5573 C   0  0  0  0  0  0  0  0  0  0  0  0
  -22.2516   -9.8910   20.6884 C   0  0  0  0  0  0  0  0  0  0  0  0
  -29.6182  -28.2360   20.4597 C   0  0  0  0  0  0  0  0  0  0  0  0
  -27.8894  -27.1156   19.1976 C   0  0  0  0  0  0  0  0  0  0  0  0
  -24.2046   -8.5056   20.9749 C   0  0  0  0  0  0  0  0  0  0  0  0
  -22.9409  -10.9713   21.2383 C   0  0  0  0  0  0  0  0  0  0  0  0
  -22.3832  -16.8692   19.6861 C   0  0  0  0  0  0  0  0  0  0  0  0
  -30.4718  -27.1525   20.2524 C   0  0  0  0  0  0  0  0  0  0  0  0
  -28.7430  -26.0321   18.9903 C   0  0  0  0  0  0  0  0  0  0  0  0
  -21.6684  -17.9244   20.2514 C   0  0  0  0  0  0  0  0  0  0  0  0
  -33.2287  -24.8370   19.7496 C   0  0  0  0  0  0  0  0  0  0  0  0
  -34.5450  -25.1102   19.3777 C   0  0  0  0  0  0  0  0  0  0  0  0
  -23.6455  -18.6145   21.4487 C   0  0  0  0  0  0  0  0  0  0  0  0
  -33.7504  -26.2388   17.3948 C   0  0  0  0  0  0  0  0  0  0  0  0
  -19.1354  -24.8111   21.2734 C   0  0  0  0  0  0  0  0  0  0  0  0
  -28.3270  -28.2175   19.9323 C   0  0  0  0  0  0  0  0  0  0  0  0
  -27.3018  -30.4748   19.3310 C   0  0  0  0  0  0  0  0  0  0  0  0
  -24.9135   -9.5871   21.5213 C   0  0  0  0  0  0  0  0  0  0  0  0
  -23.7340  -16.6720   20.0070 C   0  0  0  0  0  0  0  0  0  0  0  0
  -24.2726  -10.8324   21.6649 C   0  0  0  0  0  0  0  0  0  0  0  0
  -24.3759  -17.5577   20.8843 C   0  0  0  0  0  0  0  0  0  0  0  0
  -30.0342  -26.0505   19.5177 C   0  0  0  0  0  0  0  0  0  0  0  0
  -22.2987  -18.7955   21.1350 C   0  0  0  0  0  0  0  0  0  0  0  0
  -32.1733  -25.2646   18.9440 C   0  0  0  0  0  0  0  0  0  0  0  0
  -34.8059  -25.8112   18.2003 C   0  0  0  0  0  0  0  0  0  0  0  0
  -32.4341  -25.9655   17.7666 C   0  0  0  0  0  0  0  0  0  0  0  0
  -27.4446  -29.3363   20.1466 C   0  0  0  0  0  0  0  0  0  0  0  0
  -18.2956  -25.9084   20.9285 C   0  0  0  0  0  0  0  0  0  0  0  0
  -26.3473  -31.2330   19.9638 C   0  0  0  0  0  0  0  0  0  0  0  0
  -18.7733  -23.6933   20.5535 C   0  0  0  0  0  0  0  0  0  0  0  0
  -27.9721  -30.8164   18.1105 C   0  0  0  0  0  0  0  0  0  0  0  0
  -25.3928  -14.3432   21.3957 C   0  0  0  0  0  0  0  0  0  0  0  0
  -27.9306  -16.1833   20.5615 C   0  0  0  0  0  0  0  0  0  0  0  0
  -20.3249  -21.8410   21.2575 C   0  0  0  0  0  0  0  0  0  0  0  0
  -29.1305  -19.2808   19.7785 C   0  0  0  0  0  0  0  0  0  0  0  0
  -21.8951  -29.8717   23.7290 C   0  0  0  0  0  0  0  0  0  0  0  0
  -26.3250   -9.3612   22.0022 C   0  0  0  0  0  0  0  0  0  0  0  0
  -24.4981  -15.5450   19.3681 C   0  0  0  0  0  0  0  0  0  0  0  0
  -25.8297  -17.4015   21.2456 C   0  0  0  0  0  0  0  0  0  0  0  0
  -27.1053  -10.6534   22.2291 C   0  0  0  0  0  0  0  0  0  0  0  0
  -24.5689  -32.1499   24.3098 C   0  0  0  0  0  0  0  0  0  0  0  0
  -26.2619  -11.6562   23.0102 C   0  0  0  0  0  0  0  0  0  0  0  0
  -18.2073  -27.3549   23.0511 C   0  0  0  0  0  0  0  0  0  0  0  0
  -25.5962  -31.7899   23.2351 C   0  0  0  0  0  0  0  0  0  0  0  0
  -19.5143  -27.9056   23.6150 C   0  0  0  0  0  0  0  0  0  0  0  0
  -19.7672  -27.9532   21.2464 C   0  0  0  0  0  0  0  0  0  0  0  0
  -23.8496  -30.9117   24.8403 C   0  0  0  0  0  0  0  0  0  0  0  0
  -24.2554  -29.7052   22.7300 C   0  0  0  0  0  0  0  0  0  0  0  0
  -24.9948  -12.0345   22.2337 C   0  0  1  0  0  0  0  0  0  0  0  0
  -18.4007  -27.2960   21.5204 C   0  0  1  0  0  0  0  0  0  0  0  0
  -25.7329  -15.1336   20.1640 C   0  0  1  0  0  0  0  0  0  0  0  0
  -24.9671  -30.9273   22.1246 C   0  0  2  0  0  0  0  0  0  0  0  0
  -20.0357  -28.7898   22.4916 C   0  0  2  0  0  0  0  0  0  0  0  0
  -30.7811  -21.0192   19.0364 C   0  0  0  0  0  0  0  0  0  0  0  0
  -28.8135  -16.0691   23.4799 C   0  0  0  0  0  0  0  0  0  0  0  0
  -30.3381  -18.0014   23.0218 C   0  0  0  0  0  0  0  0  0  0  0  0
  -30.6692  -15.8413   21.8189 C   0  0  0  0  0  0  0  0  0  0  0  0
  -28.4318  -18.8945   16.9287 C   0  0  0  0  0  0  0  0  0  0  0  0
  -20.5360  -20.3772   20.9182 C   0  0  0  0  0  0  0  0  0  1  0  0
  -28.6984  -17.3060   21.2166 C   0  0  1  0  0  0  0  0  0  0  0  0
  -30.0240  -19.7587   18.6482 C   0  0  2  0  0  0  0  0  0  0  0  0
  -29.6019  -16.8065   22.3792 C   0  0  0  0  0  0  0  0  0  0  0  0
  -26.6448  -29.3645   21.2160 N   0  0  0  0  0  0  0  0  0  0  0  0
  -17.3505  -25.6893   20.0173 N   0  0  0  0  0  0  0  0  0  0  0  0
  -25.9905  -30.5301   21.0768 N   0  0  0  0  0  0  0  0  0  0  0  0
  -26.5324  -16.2804   20.5998 N   0  0  0  0  0  0  0  0  0  0  0  0
  -23.2742  -30.1384   23.7372 N   0  0  0  0  0  0  0  0  0  0  0  0
  -25.7868  -32.4258   19.6713 N   0  0  0  0  0  0  0  0  0  0  0  0
  -28.9246  -29.9245   17.5991 N   0  0  0  0  0  0  0  0  0  0  0  0
  -19.2721  -22.3695   20.5183 N   0  0  0  0  0  0  0  0  0  0  0  0
  -25.3087  -12.9803   21.1842 N   0  0  0  0  0  0  0  0  0  0  0  0
  -29.4220  -17.9843   20.1466 N   0  0  0  0  0  0  0  0  0  0  0  0
  -21.4308  -29.1381   22.6441 N   0  0  0  0  0  0  0  0  0  0  0  0
  -29.2110  -20.0538   17.4346 N   0  3  0  0  0  0  0  0  0  0  0  0
  -27.7454  -31.8888   17.5004 O   0  0  0  0  0  0  0  0  0  0  0  0
  -25.2209  -14.9266   22.4596 O   0  0  0  0  0  0  0  0  0  0  0  0
  -28.5486  -15.2581   20.0290 O   0  0  0  0  0  0  0  0  0  0  0  0
  -21.0263  -22.4169   22.0828 O   0  0  0  0  0  0  0  0  0  0  0  0
  -28.2634  -19.9881   20.2868 O   0  0  0  0  0  0  0  0  0  0  0  0
  -21.1333  -30.2631   24.6196 O   0  0  0  0  0  0  0  0  0  0  0  0
  -30.8670  -24.9932   19.3150 O   0  0  0  0  0  0  0  0  0  0  0  0
  -21.6031  -19.8258   21.6887 O   0  0  0  0  0  0  0  0  0  1  0  0
  -36.0699  -26.0749   17.8441 F   0  0  0  0  0  0  0  0  0  0  0  0
  -31.4243  -26.3799   16.9893 F   0  0  0  0  0  0  0  0  0  0  0  0
  -17.4549  -24.1012   19.5390 S   0  0  0  0  0  0  0  0  0  0  0  0
  1  2  1  0  0  0  0
  1  5  2  0  0  0  0
  2  6  2  0  0  0  0
  3  8  2  0  0  0  0
  3 16  1  0  0  0  0
  4  9  1  0  0  0  0
  4 16  2  0  0  0  0
  5 18  1  0  0  0  0
  6 20  1  0  0  0  0
  7 10  2  0  0  0  0
  7 19  1  0  0  0  0
  8 22  1  0  0  0  0
  9 22  2  0  0  0  0
 10 23  1  0  0  0  0
 11 12  2  0  0  0  0
 11 24  1  0  0  0  0
 12 25  1  0  0  0  0
 13 21  1  0  0  0  0
 13 23  2  0  0  0  0
 14 25  2  0  0  0  0
 14 26  1  0  0  0  0
 15 28  1  0  0  0  0
 15 30  2  0  0  0  0
 16 27  1  0  0  0  0
 17 27  1  0  0  0  0
 17 29  2  0  0  0  0
 17 31  1  0  0  0  0
 18 20  2  0  0  0  0
 18 37  1  0  0  0  0
 19 21  2  0  0  0  0
 19 38  1  0  0  0  0
 20 49  1  0  0  0  0
 21 39  1  0  0  0  0
 22 81  1  0  0  0  0
 23 82  1  0  0  0  0
 24 26  2  0  0  0  0
 24 81  1  0  0  0  0
 25 83  1  0  0  0  0
 26 84  1  0  0  0  0
 27 63  2  0  0  0  0
 28 50  1  0  0  0  0
 28 64  2  0  0  0  0
 29 65  1  0  0  0  0
 29 68  1  0  0  0  0
 30 70  1  0  0  0  0
 30 85  1  0  0  0  0
 31 69  1  0  0  0  0
 31 75  2  0  0  0  0
 32 51  1  0  0  0  0
 32 71  1  0  0  0  0
 32 76  2  0  0  0  0
 33 60  1  0  0  0  0
 33 66  1  0  0  0  0
 33 77  2  0  0  0  0
 34 59  1  0  0  0  0
 34 70  1  0  0  0  0
 34 78  2  0  0  0  0
 35 61  1  0  0  0  0
 35 72  1  0  0  0  0
 35 79  2  0  0  0  0
 36 67  1  0  0  0  0
 36 73  1  0  0  0  0
 36 80  2  0  0  0  0
 37 40  1  0  0  0  0
 38 51  1  0  0  0  0
 39 66  1  0  0  0  0
 40 42  1  0  0  0  0
 41 44  1  0  0  0  0
 41 47  1  0  0  0  0
 42 49  1  0  0  0  0
 43 45  1  0  0  0  0
 43 50  1  0  0  0  0
 44 52  1  0  0  0  0
 45 53  1  0  0  0  0
 46 50  1  0  0  0  0
 46 53  1  0  0  0  0
 47 67  1  0  0  0  0
 48 52  1  0  0  0  0
 48 67  1  0  0  0  0
 49 71  1  0  0  0  0
 51 66  1  0  0  0  0
 52 65  1  0  0  0  0
 53 73  1  0  0  0  0
 54 61  1  0  0  0  0
 55 62  1  0  0  0  0
 56 62  1  0  0  0  0
 57 62  1  0  0  0  0
 58 74  1  0  0  0  0
 59 82  1  0  0  0  0
 60 62  1  0  0  0  0
 60 72  1  0  0  0  0
 61 74  1  0  0  0  0
 63 65  1  0  0  0  0
 64 85  1  0  0  0  0
M  CHG  1  74   1
M  ISO  4  36 100  59 101  73 100  82 101
M  END
> <Batch ID>
0157

> <Smiles>
CNC(C)C(=O)NC(C(=O)N1Cc2cc([101O:1][101CH2:1]C(=O)Nc3cc(C4CCC([100NH:0][100C:0](=O)N5CCCC(n6nc(-c7ccc(Oc8ccc(F)cc8F)cc7)c(C(N)=O)c6N)C5)C4)ns3)ccc2CC1C(=O)NC1CCCc2ccccc21)C(C)(C)C

> <Shape>
0.260

> <Color>
0.066

> <Negative vol penalty>
0.000

$$$$
