
  -OEChem-04052303443D

 88 97  0     1  0  0  0  0  0999 V2000
  -28.3431  -33.0218   26.0659 C   0  0  0  0  0  0  0  0  0  0  0  0
  -28.4839  -31.7391   25.5460 C   0  0  0  0  0  0  0  0  0  0  0  0
  -23.2545   -9.8092   19.9227 C   0  0  0  0  0  0  0  0  0  0  0  0
  -23.8467   -9.9630   22.2600 C   0  0  0  0  0  0  0  0  0  0  0  0
  -27.0729  -33.5774   26.2135 C   0  0  0  0  0  0  0  0  0  0  0  0
  -27.3543  -31.0108   25.1744 C   0  0  0  0  0  0  0  0  0  0  0  0
  -27.9114  -28.7116   20.6969 C   0  0  0  0  0  0  0  0  0  0  0  0
  -30.9023  -19.5099   20.6860 C   0  0  0  0  0  0  0  0  0  0  0  0
  -30.7985  -18.1204   20.7504 C   0  0  0  0  0  0  0  0  0  0  0  0
  -22.5632   -8.6244   20.1758 C   0  0  0  0  0  0  0  0  0  0  0  0
  -23.1554   -8.7782   22.5131 C   0  0  0  0  0  0  0  0  0  0  0  0
  -28.6662  -27.5396   20.6725 C   0  0  0  0  0  0  0  0  0  0  0  0
  -19.9444   -7.8102   22.9296 C   0  0  0  0  0  0  0  0  0  0  0  0
  -19.1093   -7.7748   24.0462 C   0  0  0  0  0  0  0  0  0  0  0  0
  -26.6348  -26.2386   20.6711 C   0  0  0  0  0  0  0  0  0  0  0  0
  -29.1431  -19.7176   22.3289 C   0  0  0  0  0  0  0  0  0  0  0  0
  -20.4058   -5.9514   24.9581 C   0  0  0  0  0  0  0  0  0  0  0  0
  -23.8963  -10.4785   20.9648 C   0  0  0  0  0  0  0  0  0  0  0  0
  -24.0979  -13.0122   20.7479 C   0  0  0  0  0  0  0  0  0  0  0  0
  -25.9278  -32.8593   25.8346 C   0  0  0  0  0  0  0  0  0  0  0  0
  -26.5104  -28.6556   20.7197 C   0  0  0  0  0  0  0  0  0  0  0  0
  -26.0675  -31.5568   25.3183 C   0  0  0  0  0  0  0  0  0  0  0  0
  -25.8645  -27.4113   20.6932 C   0  0  0  0  0  0  0  0  0  0  0  0
  -30.0746  -20.3085   21.4752 C   0  0  0  0  0  0  0  0  0  0  0  0
  -29.8670  -17.5295   21.6041 C   0  0  0  0  0  0  0  0  0  0  0  0
  -29.0393  -18.3281   22.3933 C   0  0  0  0  0  0  0  0  0  0  0  0
  -22.5136   -8.1089   21.4710 C   0  0  0  0  0  0  0  0  0  0  0  0
  -28.0280  -26.3028   20.6625 C   0  0  0  0  0  0  0  0  0  0  0  0
  -21.0103   -6.9161   22.8272 C   0  0  0  0  0  0  0  0  0  0  0  0
  -19.3400   -6.8455   25.0605 C   0  0  0  0  0  0  0  0  0  0  0  0
  -21.2409   -5.9868   23.8415 C   0  0  0  0  0  0  0  0  0  0  0  0
  -24.6110  -11.7021   20.7039 C   0  0  0  0  0  0  0  0  0  0  0  0
  -25.1676  -13.8110   20.4252 C   0  0  0  0  0  0  0  0  0  0  0  0
  -29.0567  -23.6264   22.4643 C   0  0  0  0  0  0  0  0  0  0  0  0
  -29.8936  -22.5556   22.5076 C   0  0  0  0  0  0  0  0  0  0  0  0
  -29.0669  -22.4896   19.3914 C   0  0  0  0  0  0  0  0  0  0  0  0
  -22.7728  -13.4666   21.0533 C   0  0  0  0  0  0  0  0  0  0  0  0
  -24.2604  -29.6028   22.7553 C   0  0  0  0  0  0  0  0  0  0  0  0
  -22.2628  -28.6593   20.3801 C   0  0  0  0  0  0  0  0  0  0  0  0
  -21.7543  -26.7101   17.6253 C   0  0  0  0  0  0  0  0  0  0  0  0
  -30.5369  -15.1978   20.9253 C   0  0  0  0  0  0  0  0  0  0  0  0
  -24.5729  -33.4834   26.0570 C   0  0  0  0  0  0  0  0  0  0  0  0
  -25.7104  -29.9293   20.7189 C   0  0  0  0  0  0  0  0  0  0  0  0
  -24.3627  -27.2971   20.6962 C   0  0  0  0  0  0  0  0  0  0  0  0
  -27.8764  -22.9383   20.2142 C   0  0  0  0  0  0  0  0  0  0  0  0
  -30.3942  -22.3228   20.0857 C   0  0  0  0  0  0  0  0  0  0  0  0
  -23.4497  -32.7902   25.2901 C   0  0  0  0  0  0  0  0  0  0  0  0
  -29.7376  -12.6189   18.6042 C   0  0  0  0  0  0  0  0  0  0  0  0
  -23.5477  -31.2766   25.4521 C   0  0  0  0  0  0  0  0  0  0  0  0
  -28.2904  -12.2583   18.9472 C   0  0  0  0  0  0  0  0  0  0  0  0
  -30.5495  -12.9559   19.8536 C   0  0  0  0  0  0  0  0  0  0  0  0
  -28.5096  -13.6211   21.0642 C   0  0  0  0  0  0  0  0  0  0  0  0
  -24.8677  -30.7449   24.8808 C   0  0  1  0  0  0  0  0  0  0  0  0
  -28.1928  -24.0076   21.2656 C   0  0  2  0  0  0  0  0  0  1  0  0
  -24.2957  -29.7466   21.2601 C   0  0  1  0  0  0  0  0  0  0  0  0
  -27.6353  -13.3370   19.8319 C   0  0  2  0  0  0  0  0  0  0  0  0
  -28.8365  -24.5528   23.6427 C   0  0  0  0  0  0  0  0  0  0  0  0
  -30.6781  -22.2336   23.7660 C   0  0  0  0  0  0  0  0  0  0  0  0
  -20.0082  -26.1267   15.9200 C   0  0  0  0  0  0  0  0  0  0  0  0
  -20.8298  -26.9275   22.4434 C   0  0  0  0  0  0  0  0  0  0  0  0
  -19.7557  -25.6862   20.5529 C   0  0  0  0  0  0  0  0  0  0  0  0
  -19.3153  -28.1232   20.8526 C   0  0  0  0  0  0  0  0  0  0  0  0
  -23.4316  -27.7027   15.3981 C   0  0  0  0  0  0  0  0  0  0  0  0
  -21.5761  -27.3666   20.0111 C   0  0  1  0  0  0  0  0  0  0  0  0
  -21.1839  -27.0311   16.2556 C   0  0  2  0  0  0  0  0  0  0  0  0
  -20.3976  -27.0277   20.9669 C   0  0  0  0  0  0  0  0  0  0  0  0
  -25.9060  -11.6661   20.3787 N   0  0  0  0  0  0  0  0  0  0  0  0
  -26.2156  -12.9637   20.2154 N   0  0  0  0  0  0  0  0  0  0  0  0
  -30.1813  -21.7265   21.4096 N   0  0  0  0  0  0  0  0  0  0  0  0
  -23.6245  -28.5709   20.7021 N   0  0  0  0  0  0  0  0  0  0  0  0
  -29.8700  -13.9876   20.6402 N   0  0  0  0  0  0  0  0  0  0  0  0
  -28.0891  -17.7505   23.2654 N   0  0  0  0  0  0  0  0  0  0  0  0
  -25.3046  -15.1484   20.3032 N   0  0  0  0  0  0  0  0  0  0  0  0
  -21.7941  -12.5124   21.3633 N   0  0  0  0  0  0  0  0  0  0  0  0
  -29.7798  -16.1161   21.6521 N   0  0  0  0  0  0  0  0  0  0  0  0
  -24.8021  -30.6760   23.4367 N   0  0  0  0  0  0  0  0  0  0  0  0
  -21.1911  -27.4944   18.6097 N   0  0  0  0  0  0  0  0  0  0  0  0
  -22.2269  -26.8549   15.2059 N   0  3  0  0  0  0  0  0  0  0  0  0
  -28.9526  -22.2621   18.1858 O   0  0  0  0  0  0  0  0  0  0  0  0
  -22.4616  -14.6817   21.0353 O   0  0  0  0  0  0  0  0  0  0  0  0
  -23.7762  -28.5936   23.2539 O   0  0  0  0  0  0  0  0  0  0  0  0
  -21.6165  -29.7100   20.3757 O   0  0  0  0  0  0  0  0  0  0  0  0
  -22.6109  -25.8472   17.8046 O   0  0  0  0  0  0  0  0  0  0  0  0
  -31.6848  -15.4152   20.5290 O   0  0  0  0  0  0  0  0  0  0  0  0
  -21.8390   -6.9530   21.7183 O   0  0  0  0  0  0  0  0  0  0  0  0
  -28.7623  -25.1574   20.6394 O   0  0  0  0  0  0  0  0  0  1  0  0
  -18.5388   -6.8126   26.1335 F   0  0  0  0  0  0  0  0  0  0  0  0
  -22.2640   -5.1261   23.7492 F   0  0  0  0  0  0  0  0  0  0  0  0
  1  2  1  0  0  0  0
  1  5  2  0  0  0  0
  2  6  2  0  0  0  0
  3 10  2  0  0  0  0
  3 18  1  0  0  0  0
  4 11  1  0  0  0  0
  4 18  2  0  0  0  0
  5 20  1  0  0  0  0
  6 22  1  0  0  0  0
  7 12  2  0  0  0  0
  7 21  1  0  0  0  0
  8  9  2  0  0  0  0
  8 24  1  0  0  0  0
  9 25  1  0  0  0  0
 10 27  1  0  0  0  0
 11 27  2  0  0  0  0
 12 28  1  0  0  0  0
 13 14  2  0  0  0  0
 13 29  1  0  0  0  0
 14 30  1  0  0  0  0
 15 23  1  0  0  0  0
 15 28  2  0  0  0  0
 16 24  2  0  0  0  0
 16 26  1  0  0  0  0
 17 30  2  0  0  0  0
 17 31  1  0  0  0  0
 18 32  1  0  0  0  0
 19 32  1  0  0  0  0
 19 33  2  0  0  0  0
 19 37  1  0  0  0  0
 20 22  2  0  0  0  0
 20 42  1  0  0  0  0
 21 23  2  0  0  0  0
 21 43  1  0  0  0  0
 22 53  1  0  0  0  0
 23 44  1  0  0  0  0
 24 69  1  0  0  0  0
 25 26  2  0  0  0  0
 25 75  1  0  0  0  0
 26 72  1  0  0  0  0
 27 85  1  0  0  0  0
 28 86  1  0  0  0  0
 29 31  2  0  0  0  0
 29 85  1  0  0  0  0
 30 87  1  0  0  0  0
 31 88  1  0  0  0  0
 32 67  2  0  0  0  0
 33 68  1  0  0  0  0
 33 73  1  0  0  0  0
 34 35  2  0  0  0  0
 34 54  1  0  0  0  0
 34 57  1  0  0  0  0
 35 58  1  0  0  0  0
 35 69  1  0  0  0  0
 36 45  1  0  0  0  0
 36 46  1  0  0  0  0
 36 79  2  0  0  0  0
 37 74  1  0  0  0  0
 37 80  2  0  0  0  0
 38 55  1  0  0  0  0
 38 76  1  0  0  0  0
 38 81  2  0  0  0  0
 39 64  1  0  0  0  0
 39 70  1  0  0  0  0
 39 82  2  0  0  0  0
 40 65  1  0  0  0  0
 40 77  1  0  0  0  0
 40 83  2  0  0  0  0
 41 71  1  0  0  0  0
 41 75  1  0  0  0  0
 41 84  2  0  0  0  0
 42 47  1  0  0  0  0
 43 55  1  0  0  0  0
 44 70  1  0  0  0  0
 45 54  1  0  0  0  0
 46 69  1  0  0  0  0
 47 49  1  0  0  0  0
 48 50  1  0  0  0  0
 48 51  1  0  0  0  0
 49 53  1  0  0  0  0
 50 56  1  0  0  0  0
 51 71  1  0  0  0  0
 52 56  1  0  0  0  0
 52 71  1  0  0  0  0
 53 76  1  0  0  0  0
 54 86  1  0  0  0  0
 55 70  1  0  0  0  0
 56 68  1  0  0  0  0
 59 65  1  0  0  0  0
 60 66  1  0  0  0  0
 61 66  1  0  0  0  0
 62 66  1  0  0  0  0
 63 78  1  0  0  0  0
 64 66  1  0  0  0  0
 64 77  1  0  0  0  0
 65 78  1  0  0  0  0
 67 68  1  0  0  0  0
M  CHG  1  78   1
M  ISO  4  41 100  54 101  75 100  86 101
M  END
> <Batch ID>
0158

> <Smiles>
CNC(C)C(=O)NC(C(=O)N1Cc2cc([101O:1][101CH:1]3CC(=O)CN(c4ccc([100NH:0][100C:0](=O)N5CCCC(n6nc(-c7ccc(Oc8ccc(F)cc8F)cc7)c(C(N)=O)c6N)C5)c(N)c4)C(C)=C3C)ccc2CC1C(=O)NC1CCCc2ccccc21)C(C)(C)C

> <Shape>
0.381

> <Color>
0.212

> <Negative vol penalty>
0.000

$$$$

  -OEChem-04052303443D

 86 95  0     1  0  0  0  0  0999 V2000
  -17.0646  -28.4774   24.3996 C   0  0  0  0  0  0  0  0  0  0  0  0
  -17.7484  -27.5684   23.5987 C   0  0  0  0  0  0  0  0  0  0  0  0
  -29.6080  -21.1394   20.3299 C   0  0  0  0  0  0  0  0  0  0  0  0
  -31.7220  -20.4177   21.2503 C   0  0  0  0  0  0  0  0  0  0  0  0
  -17.3922  -29.8318   24.3511 C   0  0  0  0  0  0  0  0  0  0  0  0
  -18.7597  -28.0135   22.7479 C   0  0  0  0  0  0  0  0  0  0  0  0
  -22.8767  -25.0696   22.9176 C   0  0  0  0  0  0  0  0  0  0  0  0
  -29.7400  -22.3631   20.9862 C   0  0  0  0  0  0  0  0  0  0  0  0
  -31.8540  -21.6414   21.9066 C   0  0  0  0  0  0  0  0  0  0  0  0
  -22.8275  -23.8651   22.2172 C   0  0  0  0  0  0  0  0  0  0  0  0
  -32.7640  -24.8004   21.1236 C   0  0  0  0  0  0  0  0  0  0  0  0
  -34.0046  -25.4353   21.0644 C   0  0  0  0  0  0  0  0  0  0  0  0
  -23.6707  -17.0237   19.0083 C   0  0  0  0  0  0  0  0  0  0  0  0
  -24.0738  -24.8703   20.4129 C   0  0  0  0  0  0  0  0  0  0  0  0
  -34.1645  -25.3475   23.4735 C   0  0  0  0  0  0  0  0  0  0  0  0
  -30.5990  -20.1666   20.4620 C   0  0  0  0  0  0  0  0  0  0  0  0
  -23.5272  -15.6113   18.8864 C   0  0  0  0  0  0  0  0  0  0  0  0
  -30.9152  -18.5773   18.4918 C   0  0  0  0  0  0  0  0  0  0  0  0
  -18.4146  -30.2923   23.5065 C   0  0  0  0  0  0  0  0  0  0  0  0
  -23.5165  -26.1885   22.3652 C   0  0  0  0  0  0  0  0  0  0  0  0
  -19.1004  -29.3754   22.6871 C   0  0  0  0  0  0  0  0  0  0  0  0
  -24.1320  -26.0871   21.1094 C   0  0  0  0  0  0  0  0  0  0  0  0
  -30.8630  -22.6141   21.7745 C   0  0  0  0  0  0  0  0  0  0  0  0
  -23.4236  -23.7661   20.9634 C   0  0  0  0  0  0  0  0  0  0  0  0
  -32.2236  -24.4391   22.3578 C   0  0  0  0  0  0  0  0  0  0  0  0
  -34.7048  -25.7089   22.2393 C   0  0  0  0  0  0  0  0  0  0  0  0
  -32.9239  -24.7127   23.5327 C   0  0  0  0  0  0  0  0  0  0  0  0
  -30.4629  -18.9021   19.7848 C   0  0  0  0  0  0  0  0  0  0  0  0
  -22.4569  -15.2666   18.0907 C   0  0  0  0  0  0  0  0  0  0  0  0
  -30.5444  -17.2663   18.3177 C   0  0  0  0  0  0  0  0  0  0  0  0
  -22.7044  -17.7047   18.3008 C   0  0  0  0  0  0  0  0  0  0  0  0
  -24.4079  -14.6184   19.5268 C   0  0  0  0  0  0  0  0  0  0  0  0
  -31.6086  -19.3880   17.5339 C   0  0  0  0  0  0  0  0  0  0  0  0
  -22.5886  -29.1028   21.4993 C   0  0  0  0  0  0  0  0  0  0  0  0
  -25.7644  -29.5444   21.0078 C   0  0  0  0  0  0  0  0  0  0  0  0
  -23.2079  -20.1401   18.7002 C   0  0  0  0  0  0  0  0  0  0  0  0
  -28.8167  -28.1599   20.3647 C   0  0  0  0  0  0  0  0  0  0  0  0
  -26.1914  -13.9865   20.8350 C   0  0  0  0  0  0  0  0  0  0  0  0
  -18.7011  -31.7721   23.4536 C   0  0  0  0  0  0  0  0  0  0  0  0
  -23.5840  -27.4729   23.1451 C   0  0  0  0  0  0  0  0  0  0  0  0
  -24.8489  -27.2532   20.4811 C   0  0  0  0  0  0  0  0  0  0  0  0
  -20.0391  -32.1105   22.8013 C   0  0  0  0  0  0  0  0  0  0  0  0
  -21.6583  -12.2506   16.2969 C   0  0  0  0  0  0  0  0  0  0  0  0
  -29.7189  -13.2410   20.7557 C   0  0  0  0  0  0  0  0  0  0  0  0
  -20.2143  -31.3265   21.5046 C   0  0  0  0  0  0  0  0  0  0  0  0
  -20.9192  -13.5495   16.6706 C   0  0  0  0  0  0  0  0  0  0  0  0
  -22.9384  -12.9156   16.8385 C   0  0  0  0  0  0  0  0  0  0  0  0
  -30.3510  -14.5898   20.4124 C   0  0  0  0  0  0  0  0  0  0  0  0
  -28.4830  -13.4092   21.6343 C   0  0  0  0  0  0  0  0  0  0  0  0
  -28.0810  -15.6751   20.7107 C   0  0  0  0  0  0  0  0  0  0  0  0
  -20.2203  -29.8161   21.7697 C   0  0  1  0  0  0  0  0  0  0  0  0
  -22.0189  -13.7831   17.7503 C   0  0  0  0  0  0  0  0  0  0  0  0
  -23.8168  -28.6959   22.2632 C   0  0  1  0  0  0  0  0  0  0  0  0
  -29.3132  -15.5466   19.7989 C   0  0  1  0  0  0  0  0  0  0  0  0
  -31.3028  -28.0517   20.0404 C   0  0  0  0  0  0  0  0  0  0  0  0
  -25.0715  -30.4694   18.1839 C   0  0  0  0  0  0  0  0  0  0  0  0
  -27.4776  -30.1573   17.5663 C   0  0  0  0  0  0  0  0  0  0  0  0
  -26.8466  -31.8181   19.3173 C   0  0  0  0  0  0  0  0  0  0  0  0
  -29.2910  -27.7220   23.2529 C   0  0  0  0  0  0  0  0  0  0  0  0
  -22.6200  -21.4824   18.2799 C   0  0  0  0  0  0  0  0  0  0  0  0
  -23.3762  -22.6716   18.8526 C   0  0  0  0  0  0  0  0  0  1  0  0
  -26.7031  -29.3490   19.8418 C   0  0  1  0  0  0  0  0  0  0  0  0
  -30.1748  -28.3718   21.0089 C   0  0  2  0  0  0  0  0  0  0  0  0
  -26.5096  -30.4268   18.7380 C   0  0  0  0  0  0  0  0  0  0  0  0
  -29.8514  -17.8799   20.3891 N   0  0  0  0  0  0  0  0  0  0  0  0
  -25.4070  -14.9722   20.2671 N   0  0  0  0  0  0  0  0  0  0  0  0
  -29.9168  -16.9000   19.4718 N   0  0  0  0  0  0  0  0  0  0  0  0
  -24.8822  -28.4893   21.2802 N   0  0  0  0  0  0  0  0  0  0  0  0
  -27.5357  -14.3503   21.0351 N   0  0  0  0  0  0  0  0  0  0  0  0
  -30.6973  -16.4027   17.2914 N   0  0  0  0  0  0  0  0  0  0  0  0
  -31.9117  -20.7132   17.8749 N   0  0  0  0  0  0  0  0  0  0  0  0
  -22.4759  -19.0929   18.1470 N   0  0  0  0  0  0  0  0  0  0  0  0
  -21.5017  -29.4009   22.2988 N   0  0  0  0  0  0  0  0  0  0  0  0
  -28.0486  -29.3044   20.4040 N   0  0  0  0  0  0  0  0  0  0  0  0
  -30.3218  -27.4976   22.2070 N   0  3  0  0  0  0  0  0  0  0  0  0
  -31.9347  -18.9552   16.4026 O   0  0  0  0  0  0  0  0  0  0  0  0
  -22.6248  -29.1447   20.2751 O   0  0  0  0  0  0  0  0  0  0  0  0
  -25.8170  -30.5917   21.6576 O   0  0  0  0  0  0  0  0  0  0  0  0
  -24.1917  -20.0575   19.4280 O   0  0  0  0  0  0  0  0  0  0  0  0
  -28.4730  -27.0876   19.8722 O   0  0  0  0  0  0  0  0  0  0  0  0
  -25.7706  -12.8722   21.1550 O   0  0  0  0  0  0  0  0  0  0  0  0
  -30.9923  -23.8082   22.4149 O   0  0  0  0  0  0  0  0  0  0  0  0
  -23.3764  -22.5918   20.2773 O   0  0  0  0  0  0  0  0  0  1  0  0
  -35.8968  -26.3172   22.1822 F   0  0  0  0  0  0  0  0  0  0  0  0
  -32.4104  -24.3669   24.7212 F   0  0  0  0  0  0  0  0  0  0  0  0
  -21.6302  -16.6427   17.4944 S   0  0  0  0  0  0  0  0  0  0  0  0
  1  2  1  0  0  0  0
  1  5  2  0  0  0  0
  2  6  2  0  0  0  0
  3  8  2  0  0  0  0
  3 16  1  0  0  0  0
  4  9  1  0  0  0  0
  4 16  2  0  0  0  0
  5 19  1  0  0  0  0
  6 21  1  0  0  0  0
  7 10  2  0  0  0  0
  7 20  1  0  0  0  0
  8 23  1  0  0  0  0
  9 23  2  0  0  0  0
 10 24  1  0  0  0  0
 11 12  2  0  0  0  0
 11 25  1  0  0  0  0
 12 26  1  0  0  0  0
 13 17  1  0  0  0  0
 13 31  2  0  0  0  0
 14 22  1  0  0  0  0
 14 24  2  0  0  0  0
 15 26  2  0  0  0  0
 15 27  1  0  0  0  0
 16 28  1  0  0  0  0
 17 29  2  0  0  0  0
 17 32  1  0  0  0  0
 18 28  1  0  0  0  0
 18 30  2  0  0  0  0
 18 33  1  0  0  0  0
 19 21  2  0  0  0  0
 19 39  1  0  0  0  0
 20 22  2  0  0  0  0
 20 40  1  0  0  0  0
 21 51  1  0  0  0  0
 22 41  1  0  0  0  0
 23 82  1  0  0  0  0
 24 83  1  0  0  0  0
 25 27  2  0  0  0  0
 25 82  1  0  0  0  0
 26 84  1  0  0  0  0
 27 85  1  0  0  0  0
 28 65  2  0  0  0  0
 29 52  1  0  0  0  0
 29 86  1  0  0  0  0
 30 67  1  0  0  0  0
 30 70  1  0  0  0  0
 31 72  1  0  0  0  0
 31 86  1  0  0  0  0
 32 66  2  0  0  0  0
 33 71  1  0  0  0  0
 33 76  2  0  0  0  0
 34 53  1  0  0  0  0
 34 73  1  0  0  0  0
 34 77  2  0  0  0  0
 35 62  1  0  0  0  0
 35 68  1  0  0  0  0
 35 78  2  0  0  0  0
 36 60  1  0  0  0  0
 36 72  1  0  0  0  0
 36 79  2  0  0  0  0
 37 63  1  0  0  0  0
 37 74  1  0  0  0  0
 37 80  2  0  0  0  0
 38 66  1  0  0  0  0
 38 69  1  0  0  0  0
 38 81  2  0  0  0  0
 39 42  1  0  0  0  0
 40 53  1  0  0  0  0
 41 68  1  0  0  0  0
 42 45  1  0  0  0  0
 43 46  1  0  0  0  0
 43 47  1  0  0  0  0
 44 48  1  0  0  0  0
 44 49  1  0  0  0  0
 45 51  1  0  0  0  0
 46 52  1  0  0  0  0
 47 52  1  0  0  0  0
 48 54  1  0  0  0  0
 49 69  1  0  0  0  0
 50 54  1  0  0  0  0
 50 69  1  0  0  0  0
 51 73  1  0  0  0  0
 53 68  1  0  0  0  0
 54 67  1  0  0  0  0
 55 63  1  0  0  0  0
 56 64  1  0  0  0  0
 57 64  1  0  0  0  0
 58 64  1  0  0  0  0
 59 75  1  0  0  0  0
 60 61  1  0  0  0  0
 61 83  1  0  0  0  0
 62 64  1  0  0  0  0
 62 74  1  0  0  0  0
 63 75  1  0  0  0  0
 65 67  1  0  0  0  0
M  CHG  1  75   1
M  ISO  4  38 100  61 101  66 100  83 101
M  END
> <Batch ID>
0158

> <Smiles>
CNC(C)C(=O)NC(C(=O)N1Cc2cc([101O:1][101CH2:1]CC(=O)Nc3cc(C=[100N:0][100C:0](=O)N4CCCC(n5nc(-c6ccc(Oc7ccc(F)cc7F)cc6)c(C(N)=O)c5N)C4)c(C4CCC4)s3)ccc2CC1C(=O)NC1CCCc2ccccc21)C(C)(C)C

> <Shape>
0.192

> <Color>
0.101

> <Negative vol penalty>
0.000

$$$$

  -OEChem-04052303443D

 85 93  0     1  0  0  0  0  0999 V2000
  -17.1362  -28.2812   20.9888 C   0  0  0  0  0  0  0  0  0  0  0  0
  -18.2205  -27.6263   20.4137 C   0  0  0  0  0  0  0  0  0  0  0  0
  -31.9731  -19.2990   21.0819 C   0  0  0  0  0  0  0  0  0  0  0  0
  -23.4533   -9.8599   21.7790 C   0  0  0  0  0  0  0  0  0  0  0  0
  -24.0974  -11.0563   23.7767 C   0  0  0  0  0  0  0  0  0  0  0  0
  -17.3473  -29.3879   21.8101 C   0  0  0  0  0  0  0  0  0  0  0  0
  -19.5166  -28.0784   20.6588 C   0  0  0  0  0  0  0  0  0  0  0  0
  -24.5708  -24.6597   21.1818 C   0  0  0  0  0  0  0  0  0  0  0  0
  -31.5283  -18.0270   20.7215 C   0  0  0  0  0  0  0  0  0  0  0  0
  -22.8266   -8.8903   22.5617 C   0  0  0  0  0  0  0  0  0  0  0  0
  -23.4707  -10.0866   24.5594 C   0  0  0  0  0  0  0  0  0  0  0  0
  -25.5890  -24.3471   20.2822 C   0  0  0  0  0  0  0  0  0  0  0  0
  -19.9150   -8.5490   24.2467 C   0  0  0  0  0  0  0  0  0  0  0  0
  -18.6454   -8.1226   23.8570 C   0  0  0  0  0  0  0  0  0  0  0  0
  -31.0512  -20.3168   21.3265 C   0  0  0  0  0  0  0  0  0  0  0  0
  -26.9278  -26.1398   21.1839 C   0  0  0  0  0  0  0  0  0  0  0  0
  -29.2398  -18.7907   20.8502 C   0  0  0  0  0  0  0  0  0  0  0  0
  -19.4734   -5.8642   23.6307 C   0  0  0  0  0  0  0  0  0  0  0  0
  -24.0888  -10.9429   22.3865 C   0  0  0  0  0  0  0  0  0  0  0  0
  -24.1625  -13.1205   21.0598 C   0  0  0  0  0  0  0  0  0  0  0  0
  -18.6473  -29.8479   22.0732 C   0  0  0  0  0  0  0  0  0  0  0  0
  -24.7193  -25.7234   22.0834 C   0  0  0  0  0  0  0  0  0  0  0  0
  -19.7453  -29.1931   21.4833 C   0  0  0  0  0  0  0  0  0  0  0  0
  -25.9110  -26.4622   22.0957 C   0  0  0  0  0  0  0  0  0  0  0  0
  -30.1617  -17.7728   20.6057 C   0  0  0  0  0  0  0  0  0  0  0  0
  -22.8353   -9.0036   23.9519 C   0  0  0  0  0  0  0  0  0  0  0  0
  -26.7666  -25.0890   20.2812 C   0  0  0  0  0  0  0  0  0  0  0  0
  -20.9639   -7.6330   24.3282 C   0  0  0  0  0  0  0  0  0  0  0  0
  -18.4246   -6.7802   23.5491 C   0  0  0  0  0  0  0  0  0  0  0  0
  -20.7431   -6.2906   24.0203 C   0  0  0  0  0  0  0  0  0  0  0  0
  -29.6846  -20.0627   21.2106 C   0  0  0  0  0  0  0  0  0  0  0  0
  -24.7368  -11.9446   21.5785 C   0  0  0  0  0  0  0  0  0  0  0  0
  -25.1839  -13.7257   20.3691 C   0  0  0  0  0  0  0  0  0  0  0  0
  -22.8253  -13.6211   21.1906 C   0  0  0  0  0  0  0  0  0  0  0  0
  -23.1974  -28.4688   22.5839 C   0  0  0  0  0  0  0  0  0  0  0  0
  -25.1788  -28.6506   25.1458 C   0  0  0  0  0  0  0  0  0  0  0  0
  -28.1164  -27.7139   26.6087 C   0  0  0  0  0  0  0  0  0  0  0  0
  -30.4913  -15.3594   19.9629 C   0  0  0  0  0  0  0  0  0  0  0  0
  -18.8230  -31.0770   22.9294 C   0  0  0  0  0  0  0  0  0  0  0  0
  -23.6223  -26.0308   23.0655 C   0  0  0  0  0  0  0  0  0  0  0  0
  -26.1282  -27.6010   23.0572 C   0  0  0  0  0  0  0  0  0  0  0  0
  -20.2492  -31.2645   23.4403 C   0  0  0  0  0  0  0  0  0  0  0  0
  -29.7575  -11.9933   19.0642 C   0  0  0  0  0  0  0  0  0  0  0  0
  -21.2524  -31.0618   22.3093 C   0  0  0  0  0  0  0  0  0  0  0  0
  -28.3386  -11.7773   19.5955 C   0  0  0  0  0  0  0  0  0  0  0  0
  -30.5841  -12.8764   19.9971 C   0  0  0  0  0  0  0  0  0  0  0  0
  -28.5464  -13.9458   20.8766 C   0  0  0  0  0  0  0  0  0  0  0  0
  -21.1677  -29.6383   21.7453 C   0  0  1  0  0  0  0  0  0  0  0  0
  -23.6751  -27.4618   23.5916 C   0  0  1  0  0  0  0  0  0  0  0  0
  -27.6554  -13.1156   19.9383 C   0  0  2  0  0  0  0  0  0  0  0  0
  -29.4772  -28.0543   28.6895 C   0  0  0  0  0  0  0  0  0  0  0  0
  -30.0710  -25.4236   19.4836 C   0  0  0  0  0  0  0  0  0  0  0  0
  -26.0198  -31.4065   24.1420 C   0  0  0  0  0  0  0  0  0  0  0  0
  -28.0033  -31.2789   25.6643 C   0  0  0  0  0  0  0  0  0  0  0  0
  -25.6981  -31.2512   26.6172 C   0  0  0  0  0  0  0  0  0  0  0  0
  -27.8196  -21.2044   18.8624 C   0  0  0  0  0  0  0  0  0  0  0  0
  -27.9960  -24.8381   27.2973 C   0  0  0  0  0  0  0  0  0  0  0  0
  -29.3693  -23.0096   19.4951 C   0  0  0  0  0  0  0  0  0  0  0  0
  -26.5577  -29.2130   25.3930 C   0  0  1  0  0  0  0  0  0  0  0  0
  -28.4279  -27.1954   28.0011 C   0  0  2  0  0  0  0  0  0  0  0  0
  -29.0261  -24.4221   19.9561 C   0  0  2  0  0  0  0  0  0  1  0  0
  -26.5652  -30.7672   25.4346 C   0  0  0  0  0  0  0  0  0  0  0  0
  -26.0232  -11.8087   21.2457 N   0  0  0  0  0  0  0  0  0  0  0  0
  -26.2656  -12.9072   20.5103 N   0  0  0  0  0  0  0  0  0  0  0  0
  -25.0237  -27.8668   23.9936 N   0  0  0  0  0  0  0  0  0  0  0  0
  -29.8762  -14.1283   20.2739 N   0  0  0  0  0  0  0  0  0  0  0  0
  -25.2532  -14.8728   19.6607 N   0  0  0  0  0  0  0  0  0  0  0  0
  -21.9021  -12.8741   21.9347 N   0  0  0  0  0  0  0  0  0  0  0  0
  -29.7098  -16.4806   20.2399 N   0  0  0  0  0  0  0  0  0  0  0  0
  -21.8366  -28.7050   22.6262 N   0  0  0  0  0  0  0  0  0  0  0  0
  -27.0437  -28.5803   26.6145 N   0  0  0  0  0  0  0  0  0  0  0  0
  -28.3222  -22.0699   19.9610 N   0  0  2  0  0  0  0  0  0  0  0  0
  -28.9376  -25.7968   27.9309 N   0  3  0  0  0  0  0  0  0  0  0  0
  -22.4557  -14.6907   20.6495 O   0  0  0  0  0  0  0  0  0  0  0  0
  -24.0040  -28.9936   21.8251 O   0  0  0  0  0  0  0  0  0  0  0  0
  -24.2744  -28.8917   25.9492 O   0  0  0  0  0  0  0  0  0  0  0  0
  -28.7625  -27.3862   25.6159 O   0  0  0  0  0  0  0  0  0  0  0  0
  -31.6168  -15.4139   19.4606 O   0  0  0  0  0  0  0  0  0  0  0  0
  -27.2697  -20.7240   21.9175 O   0  0  0  0  0  0  0  0  0  0  0  0
  -29.1498  -22.3058   22.4147 O   0  0  0  0  0  0  0  0  0  0  0  0
  -22.2236   -8.0578   24.7159 O   0  0  0  0  0  0  0  0  0  0  0  0
  -27.7618  -24.7864   19.4038 O   0  0  0  0  0  0  0  0  0  1  0  0
  -17.2049   -6.3705   23.1764 F   0  0  0  0  0  0  0  0  0  0  0  0
  -21.7465   -5.4058   24.0979 F   0  0  0  0  0  0  0  0  0  0  0  0
  -28.5146  -21.3556   21.5203 S   0  0  0  0  0  0  0  0  0  0  0  0
  1  2  1  0  0  0  0
  1  6  2  0  0  0  0
  2  7  2  0  0  0  0
  3  9  1  0  0  0  0
  3 15  2  0  0  0  0
  4 10  2  0  0  0  0
  4 19  1  0  0  0  0
  5 11  1  0  0  0  0
  5 19  2  0  0  0  0
  6 21  1  0  0  0  0
  7 23  1  0  0  0  0
  8 12  2  0  0  0  0
  8 22  1  0  0  0  0
  9 25  2  0  0  0  0
 10 26  1  0  0  0  0
 11 26  2  0  0  0  0
 12 27  1  0  0  0  0
 13 14  2  0  0  0  0
 13 28  1  0  0  0  0
 14 29  1  0  0  0  0
 15 31  1  0  0  0  0
 16 24  1  0  0  0  0
 16 27  2  0  0  0  0
 17 25  1  0  0  0  0
 17 31  2  0  0  0  0
 18 29  2  0  0  0  0
 18 30  1  0  0  0  0
 19 32  1  0  0  0  0
 20 32  1  0  0  0  0
 20 33  2  0  0  0  0
 20 34  1  0  0  0  0
 21 23  2  0  0  0  0
 21 39  1  0  0  0  0
 22 24  2  0  0  0  0
 22 40  1  0  0  0  0
 23 48  1  0  0  0  0
 24 41  1  0  0  0  0
 25 69  1  0  0  0  0
 26 81  1  0  0  0  0
 27 82  1  0  0  0  0
 28 30  2  0  0  0  0
 28 81  1  0  0  0  0
 29 83  1  0  0  0  0
 30 84  1  0  0  0  0
 31 85  1  0  0  0  0
 32 63  2  0  0  0  0
 33 64  1  0  0  0  0
 33 67  1  0  0  0  0
 34 68  1  0  0  0  0
 34 74  2  0  0  0  0
 35 49  1  0  0  0  0
 35 70  1  0  0  0  0
 35 75  2  0  0  0  0
 36 59  1  0  0  0  0
 36 65  1  0  0  0  0
 36 76  2  0  0  0  0
 37 60  1  0  0  0  0
 37 71  1  0  0  0  0
 37 77  2  0  0  0  0
 38 66  1  0  0  0  0
 38 69  1  0  0  0  0
 38 78  2  0  0  0  0
 39 42  1  0  0  0  0
 40 49  1  0  0  0  0
 41 65  1  0  0  0  0
 42 44  1  0  0  0  0
 43 45  1  0  0  0  0
 43 46  1  0  0  0  0
 44 48  1  0  0  0  0
 45 50  1  0  0  0  0
 46 66  1  0  0  0  0
 47 50  1  0  0  0  0
 47 66  1  0  0  0  0
 48 70  1  0  0  0  0
 49 65  1  0  0  0  0
 50 64  1  0  0  0  0
 51 60  1  0  0  0  0
 52 61  1  0  0  0  0
 53 62  1  0  0  0  0
 54 62  1  0  0  0  0
 55 62  1  0  0  0  0
 56 72  1  0  0  0  0
 57 73  1  0  0  0  0
 58 61  1  0  0  0  0
 58 72  1  0  0  0  0
 59 62  1  0  0  0  0
 59 71  1  0  0  0  0
 60 73  1  0  0  0  0
 61 82  1  0  0  0  0
 63 64  1  0  0  0  0
 72 85  1  0  0  0  0
 79 85  2  0  0  0  0
 80 85  2  0  0  0  0
M  CHG  1  73   1
M  ISO  4  38 100  61 101  69 100  82 101
M  END
> <Batch ID>
0158

> <Smiles>
CNC(C)C(=O)NC(C(=O)N1Cc2cc([101O:1][101CH:1](C)CN(C)S(=O)(=O)c3cccc([100NH:0][100C:0](=O)N4CCCC(n5nc(-c6ccc(Oc7ccc(F)cc7F)cc6)c(C(N)=O)c5N)C4)c3)ccc2CC1C(=O)NC1CCCc2ccccc21)C(C)(C)C

> <Shape>
0.277

> <Color>
0.150

> <Negative vol penalty>
0.000

$$$$

  -OEChem-04052303443D

 87 96  0     1  0  0  0  0  0999 V2000
  -28.1495  -12.9957   17.8935 C   0  0  0  0  0  0  0  0  0  0  0  0
  -27.4011  -14.1593   17.7474 C   0  0  0  0  0  0  0  0  0  0  0  0
  -18.1861  -28.2330   23.4127 C   0  0  0  0  0  0  0  0  0  0  0  0
  -27.3312  -26.2190   17.9183 C   0  0  0  0  0  0  0  0  0  0  0  0
  -28.3978  -26.5270   20.0641 C   0  0  0  0  0  0  0  0  0  0  0  0
  -27.7267  -12.0025   18.7760 C   0  0  0  0  0  0  0  0  0  0  0  0
  -26.2287  -14.3298   18.4829 C   0  0  0  0  0  0  0  0  0  0  0  0
  -24.0355  -19.5795   20.7493 C   0  0  0  0  0  0  0  0  0  0  0  0
  -18.0112  -26.9601   22.8697 C   0  0  0  0  0  0  0  0  0  0  0  0
  -19.3674  -28.9360   23.1760 C   0  0  0  0  0  0  0  0  0  0  0  0
  -27.8045  -24.9078   17.8712 C   0  0  0  0  0  0  0  0  0  0  0  0
  -28.8711  -25.2158   20.0170 C   0  0  0  0  0  0  0  0  0  0  0  0
  -23.0597  -20.4638   20.2914 C   0  0  0  0  0  0  0  0  0  0  0  0
  -27.6569  -22.1099   20.5645 C   0  0  0  0  0  0  0  0  0  0  0  0
  -27.5354  -21.3368   21.7191 C   0  0  0  0  0  0  0  0  0  0  0  0
  -21.4278  -19.3842   21.7022 C   0  0  0  0  0  0  0  0  0  0  0  0
  -20.1989  -27.0931   21.8532 C   0  0  0  0  0  0  0  0  0  0  0  0
  -29.9346  -21.0604   21.7866 C   0  0  0  0  0  0  0  0  0  0  0  0
  -27.6279  -27.0287   19.0147 C   0  0  0  0  0  0  0  0  0  0  0  0
  -27.4114  -29.4185   18.1491 C   0  0  0  0  0  0  0  0  0  0  0  0
  -26.5537  -12.1652   19.5298 C   0  0  0  0  0  0  0  0  0  0  0  0
  -23.7117  -18.5823   21.6805 C   0  0  0  0  0  0  0  0  0  0  0  0
  -25.7891  -13.3373   19.3752 C   0  0  0  0  0  0  0  0  0  0  0  0
  -22.4019  -18.4901   22.1723 C   0  0  0  0  0  0  0  0  0  0  0  0
  -19.0176  -26.3902   22.0900 C   0  0  0  0  0  0  0  0  0  0  0  0
  -20.3738  -28.3660   22.3962 C   0  0  0  0  0  0  0  0  0  0  0  0
  -28.5745  -24.4062   18.9205 C   0  0  0  0  0  0  0  0  0  0  0  0
  -21.7550  -20.3644   20.7657 C   0  0  0  0  0  0  0  0  0  0  0  0
  -28.9173  -22.3582   20.0209 C   0  0  0  0  0  0  0  0  0  0  0  0
  -28.6742  -20.8121   22.3302 C   0  0  0  0  0  0  0  0  0  0  0  0
  -30.0561  -21.8335   20.6319 C   0  0  0  0  0  0  0  0  0  0  0  0
  -27.1397  -28.3834   19.0637 C   0  0  0  0  0  0  0  0  0  0  0  0
  -26.7178  -30.4989   18.6373 C   0  0  0  0  0  0  0  0  0  0  0  0
  -20.1087  -23.5249   20.1413 C   0  0  0  0  0  0  0  0  0  0  0  0
  -19.9172  -24.2185   21.2957 C   0  0  0  0  0  0  0  0  0  0  0  0
  -17.4087  -25.2838   19.5807 C   0  0  0  0  0  0  0  0  0  0  0  0
  -28.2184  -29.4047   16.9641 C   0  0  0  0  0  0  0  0  0  0  0  0
  -23.7640  -15.4041   21.6731 C   0  0  0  0  0  0  0  0  0  0  0  0
  -22.9829  -15.7722   24.7999 C   0  0  0  0  0  0  0  0  0  0  0  0
  -21.9012  -15.6598   28.0347 C   0  0  0  0  0  0  0  0  0  0  0  0
  -21.9167  -30.3535   22.6189 C   0  0  0  0  0  0  0  0  0  0  0  0
  -26.1117  -11.0434   20.4359 C   0  0  0  0  0  0  0  0  0  0  0  0
  -24.7818  -17.6531   22.1847 C   0  0  0  0  0  0  0  0  0  0  0  0
  -22.0074  -17.4501   23.1879 C   0  0  0  0  0  0  0  0  0  0  0  0
  -19.2465  -23.6749   18.8923 C   0  0  0  0  0  0  0  0  0  0  0  0
  -18.5857  -25.0341   18.6635 C   0  0  0  0  0  0  0  0  0  0  0  0
  -17.5024  -24.7918   21.0042 C   0  0  0  0  0  0  0  0  0  0  0  0
  -25.0570  -11.4642   21.4561 C   0  0  0  0  0  0  0  0  0  0  0  0
  -25.1677  -32.0800   22.9485 C   0  0  0  0  0  0  0  0  0  0  0  0
  -23.9590  -12.2813   20.7828 C   0  0  0  0  0  0  0  0  0  0  0  0
  -26.0151  -31.6182   21.7618 C   0  0  0  0  0  0  0  0  0  0  0  0
  -23.6774  -32.1042   22.6382 C   0  0  0  0  0  0  0  0  0  0  0  0
  -24.0910  -30.0118   21.3261 C   0  0  0  0  0  0  0  0  0  0  0  0
  -24.5250  -13.5699   20.1739 C   0  0  1  0  0  0  0  0  0  0  0  0
  -24.2245  -16.3490   22.7468 C   0  0  1  0  0  0  0  0  0  0  0  0
  -25.2011  -30.8668   20.6952 C   0  0  2  0  0  0  0  0  0  0  0  0
  -20.8464  -24.0141   22.4788 C   0  0  0  0  0  0  0  0  0  0  0  0
  -20.7530  -14.1487   29.6765 C   0  0  0  0  0  0  0  0  0  0  0  0
  -20.3098  -16.3266   23.4370 C   0  0  0  0  0  0  0  0  0  0  0  0
  -19.1666  -15.6456   25.5577 C   0  0  0  0  0  0  0  0  0  0  0  0
  -20.5701  -13.9996   24.3155 C   0  0  0  0  0  0  0  0  0  0  0  0
  -24.2377  -15.6660   29.8511 C   0  0  0  0  0  0  0  0  0  0  0  0
  -21.2314  -22.5314   19.9377 C   0  0  0  0  0  0  0  0  0  1  0  0
  -21.6912  -15.8847   25.5730 C   0  0  1  0  0  0  0  0  0  0  0  0
  -22.0894  -14.6196   29.1242 C   0  0  2  0  0  0  0  0  0  0  0  0
  -20.4536  -15.4851   24.7208 C   0  0  0  0  0  0  0  0  0  0  0  0
  -26.3364  -28.7714   20.0578 N   0  0  0  0  0  0  0  0  0  0  0  0
  -26.0973  -30.0623   19.7707 N   0  0  0  0  0  0  0  0  0  0  0  0
  -18.8384  -25.0910   21.5352 N   0  0  0  0  0  0  0  0  0  0  0  0
  -23.0879  -16.5608   23.6454 N   0  0  0  0  0  0  0  0  0  0  0  0
  -23.1980  -30.7896   22.2020 N   0  0  0  0  0  0  0  0  0  0  0  0
  -26.5843  -31.7702   18.2033 N   0  0  0  0  0  0  0  0  0  0  0  0
  -29.5774  -29.7284   17.0775 N   0  0  0  0  0  0  0  0  0  0  0  0
  -21.5743  -29.0801   22.1570 N   0  0  0  0  0  0  0  0  0  0  0  0
  -24.7523  -14.5590   21.2056 N   0  0  0  0  0  0  0  0  0  0  0  0
  -21.8677  -15.0863   26.7812 N   0  0  0  0  0  0  0  0  0  0  0  0
  -22.8892  -15.1849   30.2474 N   0  3  0  0  0  0  0  0  0  0  0  0
  -16.4079  -25.8797   19.1801 O   0  0  0  0  0  0  0  0  0  0  0  0
  -27.7448  -29.1299   15.8355 O   0  0  0  0  0  0  0  0  0  0  0  0
  -22.5980  -15.4381   21.2977 O   0  0  0  0  0  0  0  0  0  0  0  0
  -23.8690  -15.0180   25.2092 O   0  0  0  0  0  0  0  0  0  0  0  0
  -21.7908  -16.8607   28.2721 O   0  0  0  0  0  0  0  0  0  0  0  0
  -21.1974  -31.0508   23.3375 O   0  0  0  0  0  0  0  0  0  0  0  0
  -29.0363  -23.1266   18.8750 O   0  0  0  0  0  0  0  0  0  0  0  0
  -20.8005  -21.2258   20.3199 O   0  0  0  0  0  0  0  0  0  1  0  0
  -28.5575  -20.0710   23.4398 F   0  0  0  0  0  0  0  0  0  0  0  0
  -31.2697  -22.0697   20.1150 F   0  0  0  0  0  0  0  0  0  0  0  0
  1  2  1  0  0  0  0
  1  6  2  0  0  0  0
  2  7  2  0  0  0  0
  3  9  2  0  0  0  0
  3 10  1  0  0  0  0
  4 11  2  0  0  0  0
  4 19  1  0  0  0  0
  5 12  1  0  0  0  0
  5 19  2  0  0  0  0
  6 21  1  0  0  0  0
  7 23  1  0  0  0  0
  8 13  2  0  0  0  0
  8 22  1  0  0  0  0
  9 25  1  0  0  0  0
 10 26  2  0  0  0  0
 11 27  1  0  0  0  0
 12 27  2  0  0  0  0
 13 28  1  0  0  0  0
 14 15  2  0  0  0  0
 14 29  1  0  0  0  0
 15 30  1  0  0  0  0
 16 24  1  0  0  0  0
 16 28  2  0  0  0  0
 17 25  2  0  0  0  0
 17 26  1  0  0  0  0
 18 30  2  0  0  0  0
 18 31  1  0  0  0  0
 19 32  1  0  0  0  0
 20 32  1  0  0  0  0
 20 33  2  0  0  0  0
 20 37  1  0  0  0  0
 21 23  2  0  0  0  0
 21 42  1  0  0  0  0
 22 24  2  0  0  0  0
 22 43  1  0  0  0  0
 23 54  1  0  0  0  0
 24 44  1  0  0  0  0
 25 69  1  0  0  0  0
 26 74  1  0  0  0  0
 27 84  1  0  0  0  0
 28 85  1  0  0  0  0
 29 31  2  0  0  0  0
 29 84  1  0  0  0  0
 30 86  1  0  0  0  0
 31 87  1  0  0  0  0
 32 67  2  0  0  0  0
 33 68  1  0  0  0  0
 33 72  1  0  0  0  0
 34 35  2  0  0  0  0
 34 45  1  0  0  0  0
 34 63  1  0  0  0  0
 35 57  1  0  0  0  0
 35 69  1  0  0  0  0
 36 46  1  0  0  0  0
 36 47  1  0  0  0  0
 36 78  2  0  0  0  0
 37 73  1  0  0  0  0
 37 79  2  0  0  0  0
 38 55  1  0  0  0  0
 38 75  1  0  0  0  0
 38 80  2  0  0  0  0
 39 64  1  0  0  0  0
 39 70  1  0  0  0  0
 39 81  2  0  0  0  0
 40 65  1  0  0  0  0
 40 76  1  0  0  0  0
 40 82  2  0  0  0  0
 41 71  1  0  0  0  0
 41 74  1  0  0  0  0
 41 83  2  0  0  0  0
 42 48  1  0  0  0  0
 43 55  1  0  0  0  0
 44 70  1  0  0  0  0
 45 46  1  0  0  0  0
 47 69  1  0  0  0  0
 48 50  1  0  0  0  0
 49 51  1  0  0  0  0
 49 52  1  0  0  0  0
 50 54  1  0  0  0  0
 51 56  1  0  0  0  0
 52 71  1  0  0  0  0
 53 56  1  0  0  0  0
 53 71  1  0  0  0  0
 54 75  1  0  0  0  0
 55 70  1  0  0  0  0
 56 68  1  0  0  0  0
 58 65  1  0  0  0  0
 59 66  1  0  0  0  0
 60 66  1  0  0  0  0
 61 66  1  0  0  0  0
 62 77  1  0  0  0  0
 63 85  1  0  0  0  0
 64 66  1  0  0  0  0
 64 76  1  0  0  0  0
 65 77  1  0  0  0  0
 67 68  1  0  0  0  0
M  CHG  1  77   1
M  ISO  4  41 100  63 101  74 100  85 101
M  END
> <Batch ID>
0158

> <Smiles>
CNC(C)C(=O)NC(C(=O)N1Cc2cc([101O:1][101CH2:1]C3=C(C)N(c4cccc([100NH:0][100C:0](=O)N5CCCC(n6nc(-c7ccc(Oc8ccc(F)cc8F)cc7)c(C(N)=O)c6N)C5)c4)CC(=O)CC3)ccc2CC1C(=O)NC1CCCc2ccccc21)C(C)(C)C

> <Shape>
0.206

> <Color>
0.083

> <Negative vol penalty>
0.000

$$$$

  -OEChem-04052303443D

 85 93  0     1  0  0  0  0  0999 V2000
  -23.4055   -8.2278   23.8569 C   0  0  0  0  0  0  0  0  0  0  0  0
  -24.2931   -9.1011   23.2365 C   0  0  0  0  0  0  0  0  0  0  0  0
  -24.7425  -31.2685   20.7664 C   0  0  0  0  0  0  0  0  0  0  0  0
  -24.3799  -29.8595   22.6952 C   0  0  0  0  0  0  0  0  0  0  0  0
  -30.0440  -20.5118   20.5736 C   0  0  0  0  0  0  0  0  0  0  0  0
  -22.0313   -8.4063   23.7026 C   0  0  0  0  0  0  0  0  0  0  0  0
  -23.8071  -10.1528   22.4605 C   0  0  0  0  0  0  0  0  0  0  0  0
  -26.1954  -14.5200   23.3924 C   0  0  0  0  0  0  0  0  0  0  0  0
  -23.9848  -32.2775   21.3609 C   0  0  0  0  0  0  0  0  0  0  0  0
  -23.6223  -30.8685   23.2898 C   0  0  0  0  0  0  0  0  0  0  0  0
  -27.4558  -14.6908   22.8216 C   0  0  0  0  0  0  0  0  0  0  0  0
  -22.4473  -35.3587   22.5258 C   0  0  0  0  0  0  0  0  0  0  0  0
  -22.9466  -36.6601   22.4751 C   0  0  0  0  0  0  0  0  0  0  0  0
  -29.1212  -21.5446   20.4510 C   0  0  0  0  0  0  0  0  0  0  0  0
  -26.4747  -16.0284   21.0701 C   0  0  0  0  0  0  0  0  0  0  0  0
  -24.9161  -35.9513   23.6817 C   0  0  0  0  0  0  0  0  0  0  0  0
  -24.9401  -30.0595   21.4335 C   0  0  0  0  0  0  0  0  0  0  0  0
  -29.9325  -19.3875   19.7632 C   0  0  0  0  0  0  0  0  0  0  0  0
  -27.1108  -28.8161   20.9343 C   0  0  0  0  0  0  0  0  0  0  0  0
  -21.5281   -9.4664   22.9322 C   0  0  0  0  0  0  0  0  0  0  0  0
  -25.0617  -15.0940   22.7993 C   0  0  0  0  0  0  0  0  0  0  0  0
  -22.4249  -10.3448   22.2947 C   0  0  0  0  0  0  0  0  0  0  0  0
  -25.2013  -15.8655   21.6368 C   0  0  0  0  0  0  0  0  0  0  0  0
  -23.4247  -32.0775   22.6226 C   0  0  0  0  0  0  0  0  0  0  0  0
  -27.5952  -15.4427   21.6587 C   0  0  0  0  0  0  0  0  0  0  0  0
  -23.1823  -34.3536   23.1545 C   0  0  0  0  0  0  0  0  0  0  0  0
  -24.1811  -36.9564   23.0531 C   0  0  0  0  0  0  0  0  0  0  0  0
  -24.4167  -34.6499   23.7324 C   0  0  0  0  0  0  0  0  0  0  0  0
  -25.7222  -29.0167   20.8196 C   0  0  0  0  0  0  0  0  0  0  0  0
  -28.1135  -21.4057   19.5102 C   0  0  0  0  0  0  0  0  0  0  0  0
  -28.8884  -19.3450   18.8533 C   0  0  0  0  0  0  0  0  0  0  0  0
  -27.3613  -27.7031   20.1694 C   0  0  0  0  0  0  0  0  0  0  0  0
  -30.9131  -18.2911   19.8940 C   0  0  0  0  0  0  0  0  0  0  0  0
  -28.0871  -29.5684   21.6669 C   0  0  0  0  0  0  0  0  0  0  0  0
  -22.3749  -13.9604   21.5344 C   0  0  0  0  0  0  0  0  0  0  0  0
  -31.1807  -15.3136   20.9826 C   0  0  0  0  0  0  0  0  0  0  0  0
  -21.5937  -17.1035   21.3527 C   0  0  0  0  0  0  0  0  0  0  0  0
  -22.6461  -20.3463   21.1997 C   0  0  0  0  0  0  0  0  0  0  0  0
  -26.0914  -22.5380   18.5226 C   0  0  0  0  0  0  0  0  0  0  0  0
  -20.0354   -9.5909   22.7558 C   0  0  0  0  0  0  0  0  0  0  0  0
  -23.7127  -14.9226   23.4423 C   0  0  0  0  0  0  0  0  0  0  0  0
  -24.0185  -16.5195   20.9723 C   0  0  0  0  0  0  0  0  0  0  0  0
  -19.5965  -10.9525   22.2232 C   0  0  0  0  0  0  0  0  0  0  0  0
  -24.4016  -25.2190   16.8997 C   0  0  0  0  0  0  0  0  0  0  0  0
  -20.4684  -11.3707   21.0436 C   0  0  0  0  0  0  0  0  0  0  0  0
  -24.7087  -26.4295   17.7843 C   0  0  0  0  0  0  0  0  0  0  0  0
  -24.2072  -23.9483   17.7250 C   0  0  0  0  0  0  0  0  0  0  0  0
  -25.6073  -24.8499   19.5406 C   0  0  0  0  0  0  0  0  0  0  0  0
  -21.9360  -11.5122   21.4651 C   0  0  1  0  0  0  0  0  0  0  0  0
  -22.5564  -15.1238   22.4678 C   0  0  1  0  0  0  0  0  0  0  0  0
  -25.8751  -26.1407   18.7495 C   0  0  2  0  0  0  0  0  0  0  0  0
  -21.7762  -22.6932   21.0194 C   0  0  0  0  0  0  0  0  0  0  0  0
  -21.0232  -16.6616   18.3880 C   0  0  0  0  0  0  0  0  0  0  0  0
  -21.0928  -19.1448   18.0760 C   0  0  0  0  0  0  0  0  0  0  0  0
  -19.3688  -18.1241   19.5621 C   0  0  0  0  0  0  0  0  0  0  0  0
  -23.8425  -21.1128   23.7958 C   0  0  0  0  0  0  0  0  0  0  0  0
  -31.9425  -16.5603   21.3228 C   0  0  0  0  0  0  0  0  0  0  0  0
  -29.9276  -14.9882   21.7562 C   0  0  0  0  0  0  0  0  0  1  0  0
  -21.7783  -18.1933   20.3245 C   0  0  1  0  0  0  0  0  0  0  0  0
  -22.2111  -21.5836   21.9640 C   0  0  2  0  0  0  0  0  0  0  0  0
  -20.8380  -18.0171   19.0988 C   0  0  0  0  0  0  0  0  0  0  0  0
  -25.1319  -28.1044   20.0428 N   0  0  0  0  0  0  0  0  0  0  0  0
  -27.9729  -20.3287   18.7053 N   0  0  0  0  0  0  0  0  0  0  0  0
  -31.6038  -14.5439   20.0331 N   0  0  0  0  0  0  0  0  0  0  0  0
  -26.1546  -27.3199   19.6625 N   0  0  0  0  0  0  0  0  0  0  0  0
  -22.7197  -16.3175   21.6356 N   0  0  0  0  0  0  0  0  0  0  0  0
  -25.3528  -23.7368   18.6126 N   0  0  0  0  0  0  0  0  0  0  0  0
  -28.7685  -18.2007   18.0258 N   0  0  0  0  0  0  0  0  0  0  0  0
  -28.4940  -27.0247   19.8877 N   0  0  0  0  0  0  0  0  0  0  0  0
  -27.6588  -30.6835   22.4000 N   0  0  0  0  0  0  0  0  0  0  0  0
  -27.1778  -22.4633   19.3937 N   0  0  0  0  0  0  0  0  0  0  0  0
  -31.0281  -17.6627   21.0775 N   0  0  0  0  0  0  0  0  0  0  0  0
  -22.1406  -12.7577   22.1732 N   0  0  0  0  0  0  0  0  0  0  0  0
  -21.6058  -19.4567   21.0333 N   0  0  0  0  0  0  0  0  0  0  0  0
  -31.6463  -17.9735   18.8269 N   0  3  0  0  0  0  0  0  0  0  0  0
  -23.3311  -22.0938   22.8043 N   0  3  0  0  0  0  0  0  0  0  0  0
  -29.3056  -29.2707   21.6580 O   0  0  0  0  0  0  0  0  0  0  0  0
  -22.4411  -14.1408   20.3241 O   0  0  0  0  0  0  0  0  0  0  0  0
  -20.4929  -16.9596   21.8904 O   0  0  0  0  0  0  0  0  0  0  0  0
  -23.7931  -20.1867   20.7879 O   0  0  0  0  0  0  0  0  0  0  0  0
  -25.7992  -21.6550   17.7121 O   0  0  0  0  0  0  0  0  0  0  0  0
  -22.6855  -33.0619   23.2032 O   0  0  0  0  0  0  0  0  0  0  0  0
  -28.8243  -15.6105   21.0991 O   0  0  0  0  0  0  0  0  0  1  0  0
  -24.6612  -38.2059   23.0030 F   0  0  0  0  0  0  0  0  0  0  0  0
  -25.1279  -33.6882   24.3367 F   0  0  0  0  0  0  0  0  0  0  0  0
  1  2  1  0  0  0  0
  1  6  2  0  0  0  0
  2  7  2  0  0  0  0
  3  9  2  0  0  0  0
  3 17  1  0  0  0  0
  4 10  1  0  0  0  0
  4 17  2  0  0  0  0
  5 14  2  0  0  0  0
  5 18  1  0  0  0  0
  6 20  1  0  0  0  0
  7 22  1  0  0  0  0
  8 11  2  0  0  0  0
  8 21  1  0  0  0  0
  9 24  1  0  0  0  0
 10 24  2  0  0  0  0
 11 25  1  0  0  0  0
 12 13  2  0  0  0  0
 12 26  1  0  0  0  0
 13 27  1  0  0  0  0
 14 30  1  0  0  0  0
 15 23  1  0  0  0  0
 15 25  2  0  0  0  0
 16 27  2  0  0  0  0
 16 28  1  0  0  0  0
 17 29  1  0  0  0  0
 18 31  2  0  0  0  0
 18 33  1  0  0  0  0
 19 29  1  0  0  0  0
 19 32  2  0  0  0  0
 19 34  1  0  0  0  0
 20 22  2  0  0  0  0
 20 40  1  0  0  0  0
 21 23  2  0  0  0  0
 21 41  1  0  0  0  0
 22 49  1  0  0  0  0
 23 42  1  0  0  0  0
 24 82  1  0  0  0  0
 25 83  1  0  0  0  0
 26 28  2  0  0  0  0
 26 82  1  0  0  0  0
 27 84  1  0  0  0  0
 28 85  1  0  0  0  0
 29 62  2  0  0  0  0
 30 63  2  0  0  0  0
 30 71  1  0  0  0  0
 31 63  1  0  0  0  0
 31 68  1  0  0  0  0
 32 65  1  0  0  0  0
 32 69  1  0  0  0  0
 33 72  1  0  0  0  0
 33 75  2  0  0  0  0
 34 70  1  0  0  0  0
 34 77  2  0  0  0  0
 35 50  1  0  0  0  0
 35 73  1  0  0  0  0
 35 78  2  0  0  0  0
 36 57  1  0  0  0  0
 36 58  1  0  0  0  0
 36 64  2  0  0  0  0
 37 59  1  0  0  0  0
 37 66  1  0  0  0  0
 37 79  2  0  0  0  0
 38 60  1  0  0  0  0
 38 74  1  0  0  0  0
 38 80  2  0  0  0  0
 39 67  1  0  0  0  0
 39 71  1  0  0  0  0
 39 81  2  0  0  0  0
 40 43  1  0  0  0  0
 41 50  1  0  0  0  0
 42 66  1  0  0  0  0
 43 45  1  0  0  0  0
 44 46  1  0  0  0  0
 44 47  1  0  0  0  0
 45 49  1  0  0  0  0
 46 51  1  0  0  0  0
 47 67  1  0  0  0  0
 48 51  1  0  0  0  0
 48 67  1  0  0  0  0
 49 73  1  0  0  0  0
 50 66  1  0  0  0  0
 51 65  1  0  0  0  0
 52 60  1  0  0  0  0
 53 61  1  0  0  0  0
 54 61  1  0  0  0  0
 55 61  1  0  0  0  0
 56 76  1  0  0  0  0
 57 72  1  0  0  0  0
 58 83  1  0  0  0  0
 59 61  1  0  0  0  0
 59 74  1  0  0  0  0
 60 76  1  0  0  0  0
 62 65  1  0  0  0  0
M  CHG  2  75   1  76   1
M  ISO  4  39 100  58 101  71 100  83 101
M  END
> <Batch ID>
0158

> <Smiles>
CNC(C)C(=O)NC(C(=O)N1Cc2cc([101O:1][101CH2:1]C(=N)CNC(=N)c3ccc([100NH:0][100C:0](=O)N4CCCC(n5nc(-c6ccc(Oc7ccc(F)cc7F)cc6)c(C(N)=O)c5N)C4)nc3N)ccc2CC1C(=O)NC1CCCc2ccccc21)C(C)(C)C

> <Shape>
0.227

> <Color>
0.083

> <Negative vol penalty>
0.000

$$$$

  -OEChem-04052303443D

 85 93  0     1  0  0  0  0  0999 V2000
  -20.6617  -34.2650   24.1727 C   0  0  0  0  0  0  0  0  0  0  0  0
  -21.9021  -33.8080   23.7392 C   0  0  0  0  0  0  0  0  0  0  0  0
  -27.1408  -12.8754   21.0145 C   0  0  0  0  0  0  0  0  0  0  0  0
  -27.1143  -13.1975   18.6202 C   0  0  0  0  0  0  0  0  0  0  0  0
  -19.6775  -33.3530   24.5513 C   0  0  0  0  0  0  0  0  0  0  0  0
  -22.1594  -32.4386   23.6851 C   0  0  0  0  0  0  0  0  0  0  0  0
  -25.6218  -29.5027   19.5743 C   0  0  0  0  0  0  0  0  0  0  0  0
  -26.4273  -11.6865   20.8625 C   0  0  0  0  0  0  0  0  0  0  0  0
  -26.4009  -12.0086   18.4682 C   0  0  0  0  0  0  0  0  0  0  0  0
  -26.9397  -29.0494   19.6107 C   0  0  0  0  0  0  0  0  0  0  0  0
  -23.2229  -10.7569   20.3222 C   0  0  0  0  0  0  0  0  0  0  0  0
  -22.1501  -10.5309   21.1845 C   0  0  0  0  0  0  0  0  0  0  0  0
  -26.1616  -26.8576   20.2509 C   0  0  0  0  0  0  0  0  0  0  0  0
  -31.9594  -21.9247   17.2794 C   0  0  0  0  0  0  0  0  0  0  0  0
  -23.2248   -8.5250   21.9960 C   0  0  0  0  0  0  0  0  0  0  0  0
  -30.6629  -23.6192   17.9989 C   0  0  0  0  0  0  0  0  0  0  0  0
  -27.4842  -13.6309   19.8934 C   0  0  0  0  0  0  0  0  0  0  0  0
  -29.6196  -15.0171   20.0554 C   0  0  0  0  0  0  0  0  0  0  0  0
  -19.9195  -31.9714   24.4927 C   0  0  0  0  0  0  0  0  0  0  0  0
  -24.5628  -28.6383   19.8870 C   0  0  0  0  0  0  0  0  0  0  0  0
  -21.1779  -31.5072   24.0646 C   0  0  0  0  0  0  0  0  0  0  0  0
  -24.8310  -27.3017   20.2152 C   0  0  0  0  0  0  0  0  0  0  0  0
  -30.7409  -22.2459   17.9268 C   0  0  0  0  0  0  0  0  0  0  0  0
  -26.0574  -11.2531   19.5893 C   0  0  0  0  0  0  0  0  0  0  0  0
  -27.2100  -27.7274   19.9518 C   0  0  0  0  0  0  0  0  0  0  0  0
  -24.2966   -9.8668   20.2967 C   0  0  0  0  0  0  0  0  0  0  0  0
  -22.1510   -9.4151   22.0215 C   0  0  0  0  0  0  0  0  0  0  0  0
  -24.2976   -8.7509   21.1336 C   0  0  0  0  0  0  0  0  0  0  0  0
  -28.2207  -14.8594   20.0498 C   0  0  0  0  0  0  0  0  0  0  0  0
  -32.5891  -23.1116   16.9758 C   0  0  0  0  0  0  0  0  0  0  0  0
  -29.8125  -16.3652   20.2337 C   0  0  0  0  0  0  0  0  0  0  0  0
  -30.6524  -14.0329   19.9120 C   0  0  0  0  0  0  0  0  0  0  0  0
  -33.8465  -23.2546   16.3195 C   0  0  0  0  0  0  0  0  0  0  0  0
  -30.8997  -26.4968   17.5821 C   0  0  0  0  0  0  0  0  0  0  0  0
  -30.5581  -26.9441   18.8173 C   0  0  0  0  0  0  0  0  0  0  0  0
  -22.3091  -28.5710   22.1275 C   0  0  0  0  0  0  0  0  0  0  0  0
  -21.2252  -26.0414   20.4104 C   0  0  0  0  0  0  0  0  0  0  0  0
  -21.9134  -23.5246   18.2106 C   0  0  0  0  0  0  0  0  0  0  0  0
  -28.5653  -21.6622   19.0549 C   0  0  0  0  0  0  0  0  0  0  0  0
  -18.8409  -31.0251   24.9571 C   0  0  0  0  0  0  0  0  0  0  0  0
  -23.1450  -29.1358   19.8171 C   0  0  0  0  0  0  0  0  0  0  0  0
  -23.7285  -26.3282   20.5396 C   0  0  0  0  0  0  0  0  0  0  0  0
  -19.0652  -29.5815   24.5145 C   0  0  0  0  0  0  0  0  0  0  0  0
  -26.5451  -20.0229   21.4857 C   0  0  0  0  0  0  0  0  0  0  0  0
  -20.5091  -29.1624   24.7719 C   0  0  0  0  0  0  0  0  0  0  0  0
  -26.9160  -18.5464   21.3293 C   0  0  0  0  0  0  0  0  0  0  0  0
  -26.5259  -20.7483   20.1414 C   0  0  0  0  0  0  0  0  0  0  0  0
  -28.1213  -19.1321   19.1865 C   0  0  0  0  0  0  0  0  0  0  0  0
  -21.4866  -30.0288   23.9685 C   0  0  1  0  0  0  0  0  0  0  0  0
  -22.1781  -28.3045   20.6546 C   0  0  1  0  0  0  0  0  0  0  0  0
  -28.2171  -18.3748   20.5210 C   0  0  2  0  0  0  0  0  0  0  0  0
  -30.1373  -26.8842   16.3324 C   0  0  0  0  0  0  0  0  0  0  0  0
  -31.3151  -26.5613   20.0708 C   0  0  0  0  0  0  0  0  0  0  0  0
  -20.8329  -21.5957   17.0234 C   0  0  0  0  0  0  0  0  0  0  0  0
  -21.2782  -24.4230   22.9966 C   0  0  0  0  0  0  0  0  0  0  0  0
  -21.1238  -22.3409   21.6149 C   0  0  0  0  0  0  0  0  0  0  0  0
  -19.2771  -24.0168   21.5526 C   0  0  0  0  0  0  0  0  0  0  0  0
  -22.5037  -24.6806   15.5509 C   0  0  0  0  0  0  0  0  0  0  0  0
  -32.1001  -25.6087   17.2916 C   0  0  0  0  0  0  0  0  0  0  0  0
  -29.4235  -27.9033   19.1002 C   0  0  0  0  0  0  0  0  0  1  0  0
  -21.4759  -24.5528   20.4256 C   0  0  1  0  0  0  0  0  0  0  0  0
  -21.2046  -23.0684   16.9481 C   0  0  2  0  0  0  0  0  0  0  0  0
  -20.8099  -23.8520   21.6432 C   0  0  0  0  0  0  0  0  0  0  0  0
  -27.5709  -16.0151   20.2119 N   0  0  0  0  0  0  0  0  0  0  0  0
  -31.7920  -24.1349   17.4180 N   0  0  0  0  0  0  0  0  0  0  0  0
  -28.5660  -16.9118   20.3211 N   0  0  0  0  0  0  0  0  0  0  0  0
  -22.3593  -26.8640   20.4636 N   0  0  0  0  0  0  0  0  0  0  0  0
  -27.7920  -20.5446   19.4341 N   0  0  0  0  0  0  0  0  0  0  0  0
  -30.9251  -17.1246   20.3228 N   0  0  0  0  0  0  0  0  0  0  0  0
  -30.2792  -12.6934   19.7367 N   0  0  0  0  0  0  0  0  0  0  0  0
  -34.5576  -22.1728   15.9223 N   0  0  0  0  0  0  0  0  0  0  0  0
  -29.7643  -21.3442   18.4178 N   0  0  0  0  0  0  0  0  0  0  0  0
  -21.5164  -29.6065   22.5846 N   0  0  0  0  0  0  0  0  0  0  0  0
  -21.0307  -24.0507   19.1301 N   0  0  0  0  0  0  0  0  0  0  0  0
  -34.3723  -24.4771   16.0691 N   0  3  0  0  0  0  0  0  0  0  0  0
  -22.0808  -23.2718   15.7599 N   0  3  0  0  0  0  0  0  0  0  0  0
  -31.8703  -14.3303   19.9550 O   0  0  0  0  0  0  0  0  0  0  0  0
  -23.0717  -27.8868   22.7999 O   0  0  0  0  0  0  0  0  0  0  0  0
  -20.0662  -26.4588   20.3464 O   0  0  0  0  0  0  0  0  0  0  0  0
  -23.1280  -23.4209   18.3671 O   0  0  0  0  0  0  0  0  0  0  0  0
  -28.2044  -22.8155   19.3031 O   0  0  0  0  0  0  0  0  0  0  0  0
  -25.3614  -10.0929   19.4406 O   0  0  0  0  0  0  0  0  0  0  0  0
  -28.4955  -27.2824   19.9888 O   0  0  0  0  0  0  0  0  0  1  0  0
  -21.1214   -9.1991   22.8506 F   0  0  0  0  0  0  0  0  0  0  0  0
  -25.3268   -7.8930   21.1145 F   0  0  0  0  0  0  0  0  0  0  0  0
  1  2  1  0  0  0  0
  1  5  2  0  0  0  0
  2  6  2  0  0  0  0
  3  8  2  0  0  0  0
  3 17  1  0  0  0  0
  4  9  1  0  0  0  0
  4 17  2  0  0  0  0
  5 19  1  0  0  0  0
  6 21  1  0  0  0  0
  7 10  2  0  0  0  0
  7 20  1  0  0  0  0
  8 24  1  0  0  0  0
  9 24  2  0  0  0  0
 10 25  1  0  0  0  0
 11 12  2  0  0  0  0
 11 26  1  0  0  0  0
 12 27  1  0  0  0  0
 13 22  1  0  0  0  0
 13 25  2  0  0  0  0
 14 23  1  0  0  0  0
 14 30  2  0  0  0  0
 15 27  2  0  0  0  0
 15 28  1  0  0  0  0
 16 23  2  0  0  0  0
 16 65  1  0  0  0  0
 17 29  1  0  0  0  0
 18 29  1  0  0  0  0
 18 31  2  0  0  0  0
 18 32  1  0  0  0  0
 19 21  2  0  0  0  0
 19 40  1  0  0  0  0
 20 22  2  0  0  0  0
 20 41  1  0  0  0  0
 21 49  1  0  0  0  0
 22 42  1  0  0  0  0
 23 72  1  0  0  0  0
 24 82  1  0  0  0  0
 25 83  1  0  0  0  0
 26 28  2  0  0  0  0
 26 82  1  0  0  0  0
 27 84  1  0  0  0  0
 28 85  1  0  0  0  0
 29 64  2  0  0  0  0
 30 33  1  0  0  0  0
 30 65  1  0  0  0  0
 31 66  1  0  0  0  0
 31 69  1  0  0  0  0
 32 70  1  0  0  0  0
 32 77  2  0  0  0  0
 33 71  1  0  0  0  0
 33 75  2  0  0  0  0
 34 35  2  0  0  0  0
 34 52  1  0  0  0  0
 34 59  1  0  0  0  0
 35 53  1  0  0  0  0
 35 60  1  0  0  0  0
 36 50  1  0  0  0  0
 36 73  1  0  0  0  0
 36 78  2  0  0  0  0
 37 61  1  0  0  0  0
 37 67  1  0  0  0  0
 37 79  2  0  0  0  0
 38 62  1  0  0  0  0
 38 74  1  0  0  0  0
 38 80  2  0  0  0  0
 39 68  1  0  0  0  0
 39 72  1  0  0  0  0
 39 81  2  0  0  0  0
 40 43  1  0  0  0  0
 41 50  1  0  0  0  0
 42 67  1  0  0  0  0
 43 45  1  0  0  0  0
 44 46  1  0  0  0  0
 44 47  1  0  0  0  0
 45 49  1  0  0  0  0
 46 51  1  0  0  0  0
 47 68  1  0  0  0  0
 48 51  1  0  0  0  0
 48 68  1  0  0  0  0
 49 73  1  0  0  0  0
 50 67  1  0  0  0  0
 51 66  1  0  0  0  0
 54 62  1  0  0  0  0
 55 63  1  0  0  0  0
 56 63  1  0  0  0  0
 57 63  1  0  0  0  0
 58 76  1  0  0  0  0
 59 65  1  0  0  0  0
 60 83  1  0  0  0  0
 61 63  1  0  0  0  0
 61 74  1  0  0  0  0
 62 76  1  0  0  0  0
 64 66  1  0  0  0  0
M  CHG  2  75   1  76   1
M  ISO  4  39 100  60 101  72 100  83 101
M  END
> <Batch ID>
0158

> <Smiles>
CNC(C)C(=O)NC(C(=O)N1Cc2cc([101O:1][101CH2:1]C(C)=C(C)Cn3cc([100NH:0][100C:0](=O)N4CCCC(n5nc(-c6ccc(Oc7ccc(F)cc7F)cc6)c(C(N)=O)c5N)C4)cc3C(=N)N)ccc2CC1C(=O)NC1CCCc2ccccc21)C(C)(C)C

> <Shape>
0.251

> <Color>
0.103

> <Negative vol penalty>
0.000

$$$$

  -OEChem-04052303443D

 85 93  0     1  0  0  0  0  0999 V2000
  -20.2590  -31.0425   22.7430 C   0  0  0  0  0  0  0  0  0  0  0  0
  -21.5360  -30.5023   22.6292 C   0  0  0  0  0  0  0  0  0  0  0  0
  -25.6732  -13.5014   21.8697 C   0  0  0  0  0  0  0  0  0  0  0  0
  -25.3613  -14.3213   19.6186 C   0  0  0  0  0  0  0  0  0  0  0  0
  -19.1476  -30.2012   22.7724 C   0  0  0  0  0  0  0  0  0  0  0  0
  -21.7023  -29.1204   22.5458 C   0  0  0  0  0  0  0  0  0  0  0  0
  -25.0067  -27.7747   18.9520 C   0  0  0  0  0  0  0  0  0  0  0  0
  -24.6180  -12.6071   21.6902 C   0  0  0  0  0  0  0  0  0  0  0  0
  -24.3061  -13.4269   19.4390 C   0  0  0  0  0  0  0  0  0  0  0  0
  -26.3619  -27.9126   19.2492 C   0  0  0  0  0  0  0  0  0  0  0  0
  -24.1133   -9.6187   20.1909 C   0  0  0  0  0  0  0  0  0  0  0  0
  -24.2963   -8.3051   20.6228 C   0  0  0  0  0  0  0  0  0  0  0  0
  -32.4163  -23.5282   17.2576 C   0  0  0  0  0  0  0  0  0  0  0  0
  -30.8141  -23.4376   19.0636 C   0  0  0  0  0  0  0  0  0  0  0  0
  -26.4901  -25.5525   19.7316 C   0  0  0  0  0  0  0  0  0  0  0  0
  -31.9023  -21.4159   18.3116 C   0  0  0  0  0  0  0  0  0  0  0  0
  -22.4244   -8.5405   22.1320 C   0  0  0  0  0  0  0  0  0  0  0  0
  -26.0448  -14.3586   20.8339 C   0  0  0  0  0  0  0  0  0  0  0  0
  -31.5194  -24.1719   18.1103 C   0  0  0  0  0  0  0  0  0  0  0  0
  -28.4970  -15.0565   20.7474 C   0  0  0  0  0  0  0  0  0  0  0  0
  -19.2997  -28.8088   22.6796 C   0  0  0  0  0  0  0  0  0  0  0  0
  -24.3795  -26.5246   19.0531 C   0  0  0  0  0  0  0  0  0  0  0  0
  -20.5920  -28.2596   22.5753 C   0  0  0  0  0  0  0  0  0  0  0  0
  -25.1275  -25.4009   19.4327 C   0  0  0  0  0  0  0  0  0  0  0  0
  -32.6077  -22.1502   17.3583 C   0  0  0  0  0  0  0  0  0  0  0  0
  -31.0055  -22.0595   19.1643 C   0  0  0  0  0  0  0  0  0  0  0  0
  -23.9345  -12.5698   20.4749 C   0  0  0  0  0  0  0  0  0  0  0  0
  -27.1031  -26.8020   19.6419 C   0  0  0  0  0  0  0  0  0  0  0  0
  -23.0858  -10.3932   20.7297 C   0  0  0  0  0  0  0  0  0  0  0  0
  -23.4519   -7.7660   21.5933 C   0  0  0  0  0  0  0  0  0  0  0  0
  -22.2414   -9.8541   21.7002 C   0  0  0  0  0  0  0  0  0  0  0  0
  -27.1344  -15.2831   21.0189 C   0  0  0  0  0  0  0  0  0  0  0  0
  -29.1158  -16.2340   21.0896 C   0  0  0  0  0  0  0  0  0  0  0  0
  -31.3166  -25.6307   18.0038 C   0  0  0  0  0  0  0  0  0  0  0  0
  -29.1454  -13.8863   20.2318 C   0  0  0  0  0  0  0  0  0  0  0  0
  -22.0066  -25.3407   20.8057 C   0  0  0  0  0  0  0  0  0  0  0  0
  -30.4540  -28.1532   20.1664 C   0  0  0  0  0  0  0  0  0  0  0  0
  -22.4316  -22.7371   18.9181 C   0  0  0  0  0  0  0  0  0  0  0  0
  -24.5093  -20.9249   16.9066 C   0  0  0  0  0  0  0  0  0  0  0  0
  -29.3616  -21.7965   21.0550 C   0  0  0  0  0  0  0  0  0  0  0  0
  -18.0717  -27.9372   22.7633 C   0  0  0  0  0  0  0  0  0  0  0  0
  -22.9231  -26.3875   18.7032 C   0  0  0  0  0  0  0  0  0  0  0  0
  -24.5060  -24.0329   19.5371 C   0  0  0  0  0  0  0  0  0  0  0  0
  -18.3085  -26.5045   22.2926 C   0  0  0  0  0  0  0  0  0  0  0  0
  -27.3578  -20.2775   23.5758 C   0  0  0  0  0  0  0  0  0  0  0  0
  -19.5926  -25.9484   22.8997 C   0  0  0  0  0  0  0  0  0  0  0  0
  -27.2331  -18.8241   23.1130 C   0  0  0  0  0  0  0  0  0  0  0  0
  -27.3436  -21.2508   22.3985 C   0  0  0  0  0  0  0  0  0  0  0  0
  -28.1982  -19.5092   20.8800 C   0  0  0  0  0  0  0  0  0  0  0  0
  -20.8115  -26.7669   22.4575 C   0  0  1  0  0  0  0  0  0  0  0  0
  -22.2690  -25.1635   19.3369 C   0  0  1  0  0  0  0  0  0  0  0  0
  -28.2731  -18.4875   22.0264 C   0  0  2  0  0  0  0  0  0  0  0  0
  -24.5862  -18.8236   15.5369 C   0  0  0  0  0  0  0  0  0  0  0  0
  -22.7025  -21.0865   21.4700 C   0  0  0  0  0  0  0  0  0  0  0  0
  -23.7007  -19.2493   20.0929 C   0  0  0  0  0  0  0  0  0  0  0  0
  -21.3608  -19.9986   19.6615 C   0  0  0  0  0  0  0  0  0  0  0  0
  -25.0190  -22.4321   14.4111 C   0  0  0  0  0  0  0  0  0  0  0  0
  -31.4451  -27.8481   19.0825 C   0  0  0  0  0  0  0  0  0  0  0  0
  -28.9898  -28.2395   19.8153 C   0  0  0  0  0  0  0  0  0  1  0  0
  -23.2851  -21.4938   18.9880 C   0  0  1  0  0  0  0  0  0  0  0  0
  -24.3022  -20.3176   15.5308 C   0  0  2  0  0  0  0  0  0  0  0  0
  -22.7738  -20.4831   20.0531 C   0  0  0  0  0  0  0  0  0  0  0  0
  -26.9007  -16.5082   21.4970 N   0  0  0  0  0  0  0  0  0  0  0  0
  -30.8664  -28.3310   21.3794 N   0  0  0  0  0  0  0  0  0  0  0  0
  -28.1248  -17.0620   21.5285 N   0  0  0  0  0  0  0  0  0  0  0  0
  -23.0774  -23.9514   19.1907 N   0  0  0  0  0  0  0  0  0  0  0  0
  -28.3572  -20.8719   21.4117 N   0  0  0  0  0  0  0  0  0  0  0  0
  -33.5141  -21.4992   16.4958 N   0  0  0  0  0  0  0  0  0  0  0  0
  -30.4054  -16.6315   21.0549 N   0  0  0  0  0  0  0  0  0  0  0  0
  -28.3603  -12.7644   19.9328 N   0  0  0  0  0  0  0  0  0  0  0  0
  -30.2889  -21.3132   20.1324 N   0  0  0  0  0  0  0  0  0  0  0  0
  -31.5879  -26.4021   19.0716 N   0  0  0  0  0  0  0  0  0  0  0  0
  -21.1926  -26.4161   21.1061 N   0  0  0  0  0  0  0  0  0  0  0  0
  -23.3372  -20.9578   17.6321 N   0  0  0  0  0  0  0  0  0  0  0  0
  -30.8686  -26.1200   16.8474 N   0  3  0  0  0  0  0  0  0  0  0  0
  -25.2063  -20.9638   14.5379 N   0  3  0  0  0  0  0  0  0  0  0  0
  -30.3864  -13.8313   20.0574 O   0  0  0  0  0  0  0  0  0  0  0  0
  -22.5046  -24.5586   21.6070 O   0  0  0  0  0  0  0  0  0  0  0  0
  -21.2377  -22.6353   18.6253 O   0  0  0  0  0  0  0  0  0  0  0  0
  -25.6023  -21.3264   17.2998 O   0  0  0  0  0  0  0  0  0  0  0  0
  -29.4123  -22.9239   21.5533 O   0  0  0  0  0  0  0  0  0  0  0  0
  -22.9049  -11.6970   20.2993 O   0  0  0  0  0  0  0  0  0  0  0  0
  -28.4259  -26.9339   19.9331 O   0  0  0  0  0  0  0  0  0  1  0  0
  -23.6268   -6.5040   22.0068 F   0  0  0  0  0  0  0  0  0  0  0  0
  -21.2519  -10.5929   22.2205 F   0  0  0  0  0  0  0  0  0  0  0  0
  1  2  1  0  0  0  0
  1  5  2  0  0  0  0
  2  6  2  0  0  0  0
  3  8  2  0  0  0  0
  3 18  1  0  0  0  0
  4  9  1  0  0  0  0
  4 18  2  0  0  0  0
  5 21  1  0  0  0  0
  6 23  1  0  0  0  0
  7 10  2  0  0  0  0
  7 22  1  0  0  0  0
  8 27  1  0  0  0  0
  9 27  2  0  0  0  0
 10 28  1  0  0  0  0
 11 12  2  0  0  0  0
 11 29  1  0  0  0  0
 12 30  1  0  0  0  0
 13 19  1  0  0  0  0
 13 25  2  0  0  0  0
 14 19  2  0  0  0  0
 14 26  1  0  0  0  0
 15 24  1  0  0  0  0
 15 28  2  0  0  0  0
 16 25  1  0  0  0  0
 16 26  2  0  0  0  0
 17 30  2  0  0  0  0
 17 31  1  0  0  0  0
 18 32  1  0  0  0  0
 19 34  1  0  0  0  0
 20 32  1  0  0  0  0
 20 33  2  0  0  0  0
 20 35  1  0  0  0  0
 21 23  2  0  0  0  0
 21 41  1  0  0  0  0
 22 24  2  0  0  0  0
 22 42  1  0  0  0  0
 23 50  1  0  0  0  0
 24 43  1  0  0  0  0
 25 68  1  0  0  0  0
 26 71  1  0  0  0  0
 27 82  1  0  0  0  0
 28 83  1  0  0  0  0
 29 31  2  0  0  0  0
 29 82  1  0  0  0  0
 30 84  1  0  0  0  0
 31 85  1  0  0  0  0
 32 63  2  0  0  0  0
 33 65  1  0  0  0  0
 33 69  1  0  0  0  0
 34 72  1  0  0  0  0
 34 75  2  0  0  0  0
 35 70  1  0  0  0  0
 35 77  2  0  0  0  0
 36 51  1  0  0  0  0
 36 73  1  0  0  0  0
 36 78  2  0  0  0  0
 37 58  1  0  0  0  0
 37 59  1  0  0  0  0
 37 64  2  0  0  0  0
 38 60  1  0  0  0  0
 38 66  1  0  0  0  0
 38 79  2  0  0  0  0
 39 61  1  0  0  0  0
 39 74  1  0  0  0  0
 39 80  2  0  0  0  0
 40 67  1  0  0  0  0
 40 71  1  0  0  0  0
 40 81  2  0  0  0  0
 41 44  1  0  0  0  0
 42 51  1  0  0  0  0
 43 66  1  0  0  0  0
 44 46  1  0  0  0  0
 45 47  1  0  0  0  0
 45 48  1  0  0  0  0
 46 50  1  0  0  0  0
 47 52  1  0  0  0  0
 48 67  1  0  0  0  0
 49 52  1  0  0  0  0
 49 67  1  0  0  0  0
 50 73  1  0  0  0  0
 51 66  1  0  0  0  0
 52 65  1  0  0  0  0
 53 61  1  0  0  0  0
 54 62  1  0  0  0  0
 55 62  1  0  0  0  0
 56 62  1  0  0  0  0
 57 76  1  0  0  0  0
 58 72  1  0  0  0  0
 59 83  1  0  0  0  0
 60 62  1  0  0  0  0
 60 74  1  0  0  0  0
 61 76  1  0  0  0  0
 63 65  1  0  0  0  0
M  CHG  2  75   1  76   1
M  ISO  4  40 100  59 101  71 100  83 101
M  END
> <Batch ID>
0158

> <Smiles>
CNC(C)C(=O)NC(C(=O)N1Cc2cc([101O:1][101CH2:1]C(=N)CNC(=N)c3cc(N)cc([100NH:0][100C:0](=O)N4CCCC(n5nc(-c6ccc(Oc7ccc(F)cc7F)cc6)c(C(N)=O)c5N)C4)c3)ccc2CC1C(=O)NC1CCCc2ccccc21)C(C)(C)C

> <Shape>
0.261

> <Color>
0.062

> <Negative vol penalty>
0.000

$$$$

  -OEChem-04052303443D

 87 96  0     1  0  0  0  0  0999 V2000
  -26.2243  -35.0265   26.8873 C   0  0  0  0  0  0  0  0  0  0  0  0
  -26.8096  -33.9135   26.2924 C   0  0  0  0  0  0  0  0  0  0  0  0
  -23.2966   -9.1291   19.6201 C   0  0  0  0  0  0  0  0  0  0  0  0
  -24.4925   -8.9540   21.7120 C   0  0  0  0  0  0  0  0  0  0  0  0
  -24.8358  -35.1487   26.9201 C   0  0  0  0  0  0  0  0  0  0  0  0
  -26.0066  -32.9214   25.7308 C   0  0  0  0  0  0  0  0  0  0  0  0
  -27.2405  -29.5612   20.7616 C   0  0  0  0  0  0  0  0  0  0  0  0
  -22.2051   -8.4731   20.1892 C   0  0  0  0  0  0  0  0  0  0  0  0
  -23.4010   -8.2980   22.2811 C   0  0  0  0  0  0  0  0  0  0  0  0
  -27.7498  -28.2731   20.6031 C   0  0  0  0  0  0  0  0  0  0  0  0
  -22.0766   -5.1873   22.2615 C   0  0  0  0  0  0  0  0  0  0  0  0
  -22.3315   -4.0501   23.0278 C   0  0  0  0  0  0  0  0  0  0  0  0
  -23.8957  -19.7153   18.3360 C   0  0  0  0  0  0  0  0  0  0  0  0
  -25.7568  -18.7508   19.5372 C   0  0  0  0  0  0  0  0  0  0  0  0
  -25.5038  -27.4163   20.4015 C   0  0  0  0  0  0  0  0  0  0  0  0
  -24.5243  -17.4155   17.9451 C   0  0  0  0  0  0  0  0  0  0  0  0
  -21.3236   -5.1173   24.9468 C   0  0  0  0  0  0  0  0  0  0  0  0
  -24.4403   -9.3695   20.3815 C   0  0  0  0  0  0  0  0  0  0  0  0
  -24.9269  -19.8389   19.2671 C   0  0  0  0  0  0  0  0  0  0  0  0
  -26.3233   -9.6319   18.6805 C   0  0  0  0  0  0  0  0  0  0  0  0
  -24.0156  -34.1623   26.3500 C   0  0  0  0  0  0  0  0  0  0  0  0
  -25.8562  -29.7854   20.7521 C   0  0  0  0  0  0  0  0  0  0  0  0
  -24.6058  -33.0299   25.7571 C   0  0  0  0  0  0  0  0  0  0  0  0
  -24.9795  -28.7086   20.5576 C   0  0  0  0  0  0  0  0  0  0  0  0
  -23.6944  -18.5035   17.6750 C   0  0  0  0  0  0  0  0  0  0  0  0
  -25.5555  -17.5391   18.8762 C   0  0  0  0  0  0  0  0  0  0  0  0
  -22.2572   -8.0575   21.5197 C   0  0  0  0  0  0  0  0  0  0  0  0
  -26.8814  -27.2000   20.4259 C   0  0  0  0  0  0  0  0  0  0  0  0
  -21.4453   -6.2896   22.8378 C   0  0  0  0  0  0  0  0  0  0  0  0
  -21.9549   -4.0150   24.3705 C   0  0  0  0  0  0  0  0  0  0  0  0
  -21.0687   -6.2546   24.1804 C   0  0  0  0  0  0  0  0  0  0  0  0
  -25.5684  -10.0466   19.7941 C   0  0  0  0  0  0  0  0  0  0  0  0
  -27.2733  -10.6116   18.5255 C   0  0  0  0  0  0  0  0  0  0  0  0
  -26.2586  -23.3117   19.9930 C   0  0  0  0  0  0  0  0  0  0  0  0
  -25.1397  -21.1191   19.9656 C   0  0  0  0  0  0  0  0  0  0  0  0
  -26.1786   -8.4653   17.8596 C   0  0  0  0  0  0  0  0  0  0  0  0
  -23.7523  -30.9141   22.8506 C   0  0  0  0  0  0  0  0  0  0  0  0
  -21.7111  -30.6830   20.3402 C   0  0  0  0  0  0  0  0  0  0  0  0
  -20.9463  -29.2205   17.3530 C   0  0  0  0  0  0  0  0  0  0  0  0
  -27.4666  -16.3872   20.0455 C   0  0  0  0  0  0  0  0  0  0  0  0
  -22.5186  -34.3152   26.4516 C   0  0  0  0  0  0  0  0  0  0  0  0
  -25.3236  -31.1846   20.8977 C   0  0  0  0  0  0  0  0  0  0  0  0
  -23.4859  -28.8988   20.5194 C   0  0  0  0  0  0  0  0  0  0  0  0
  -21.7473  -33.4020   25.5023 C   0  0  0  0  0  0  0  0  0  0  0  0
  -29.7588  -13.8477   21.0324 C   0  0  0  0  0  0  0  0  0  0  0  0
  -22.3017  -31.9821   25.5593 C   0  0  0  0  0  0  0  0  0  0  0  0
  -29.0154  -12.5470   20.7198 C   0  0  0  0  0  0  0  0  0  0  0  0
  -26.9967  -23.2377   17.7508 C   0  0  0  0  0  0  0  0  0  0  0  0
  -28.8129  -14.9325   21.5444 C   0  0  0  0  0  0  0  0  0  0  0  0
  -26.6620  -21.8094   18.1670 C   0  0  0  0  0  0  0  0  0  0  0  0
  -26.9079  -13.8981   20.3738 C   0  0  0  0  0  0  0  0  0  0  0  0
  -23.7690  -31.9446   25.1152 C   0  0  1  0  0  0  0  0  0  0  0  0
  -27.2452  -23.9741   19.0694 C   0  0  1  0  0  0  0  0  0  0  0  0
  -23.8790  -31.2262   21.3863 C   0  0  1  0  0  0  0  0  0  0  0  0
  -27.8091  -12.7960   19.7934 C   0  0  2  0  0  0  0  0  0  0  0  0
  -19.1937  -29.2086   15.5570 C   0  0  0  0  0  0  0  0  0  0  0  0
  -19.8783  -29.0394   22.1429 C   0  0  0  0  0  0  0  0  0  0  0  0
  -18.6622  -28.2752   20.0922 C   0  0  0  0  0  0  0  0  0  0  0  0
  -18.6983  -30.6970   20.6888 C   0  0  0  0  0  0  0  0  0  0  0  0
  -22.8797  -30.1159   15.2990 C   0  0  0  0  0  0  0  0  0  0  0  0
  -20.7995  -29.6082   19.7990 C   0  0  1  0  0  0  0  0  0  0  0  0
  -20.5092  -29.8115   16.0248 C   0  0  2  0  0  0  0  0  0  0  0  0
  -19.5376  -29.4008   20.6833 C   0  0  0  0  0  0  0  0  0  0  0  0
  -26.0016  -11.1999   20.3101 N   0  0  0  0  0  0  0  0  0  0  0  0
  -27.0391  -11.5181   19.5173 N   0  0  0  0  0  0  0  0  0  0  0  0
  -25.9481  -22.0203   19.4369 N   0  0  0  0  0  0  0  0  0  0  0  0
  -23.0137  -30.2849   20.6726 N   0  0  0  0  0  0  0  0  0  0  0  0
  -27.6970  -15.1165   20.6138 N   0  0  0  0  0  0  0  0  0  0  0  0
  -22.6514  -18.3784   16.7339 N   0  0  0  0  0  0  0  0  0  0  0  0
  -28.2778  -10.7775   17.6391 N   0  0  0  0  0  0  0  0  0  0  0  0
  -25.1496   -7.5617   18.1580 N   0  0  0  0  0  0  0  0  0  0  0  0
  -26.3981  -16.4334   19.1506 N   0  0  0  0  0  0  0  0  0  0  0  0
  -23.8626  -32.0190   23.6730 N   0  0  0  0  0  0  0  0  0  0  0  0
  -20.5073  -29.9780   18.4183 N   0  0  0  0  0  0  0  0  0  0  0  0
  -26.9612  -25.3925   18.9809 N   0  0  0  0  0  0  0  0  0  1  0  0
  -24.5132  -21.3477   21.1161 N   0  3  0  0  0  0  0  0  0  0  0  0
  -21.5409  -29.5567   14.9800 N   0  3  0  0  0  0  0  0  0  0  0  0
  -25.8023  -23.7173   21.0467 O   0  0  0  0  0  0  0  0  0  0  0  0
  -26.9494   -8.2229   16.9001 O   0  0  0  0  0  0  0  0  0  0  0  0
  -23.5667  -29.7566   23.2078 O   0  0  0  0  0  0  0  0  0  0  0  0
  -21.2853  -31.8348   20.4568 O   0  0  0  0  0  0  0  0  0  0  0  0
  -21.6076  -28.1880   17.4373 O   0  0  0  0  0  0  0  0  0  0  0  0
  -28.1825  -17.3563   20.3108 O   0  0  0  0  0  0  0  0  0  0  0  0
  -21.1922   -7.4176   22.0754 O   0  0  0  0  0  0  0  0  0  0  0  0
  -27.3758  -25.9416   20.2716 O   0  0  0  0  0  0  0  0  0  1  0  0
  -22.1984   -2.9223   25.1059 F   0  0  0  0  0  0  0  0  0  0  0  0
  -20.4609   -7.3100   24.7392 F   0  0  0  0  0  0  0  0  0  0  0  0
  1  2  1  0  0  0  0
  1  5  2  0  0  0  0
  2  6  2  0  0  0  0
  3  8  2  0  0  0  0
  3 18  1  0  0  0  0
  4  9  1  0  0  0  0
  4 18  2  0  0  0  0
  5 21  1  0  0  0  0
  6 23  1  0  0  0  0
  7 10  2  0  0  0  0
  7 22  1  0  0  0  0
  8 27  1  0  0  0  0
  9 27  2  0  0  0  0
 10 28  1  0  0  0  0
 11 12  2  0  0  0  0
 11 29  1  0  0  0  0
 12 30  1  0  0  0  0
 13 19  1  0  0  0  0
 13 25  2  0  0  0  0
 14 19  2  0  0  0  0
 14 26  1  0  0  0  0
 15 24  1  0  0  0  0
 15 28  2  0  0  0  0
 16 25  1  0  0  0  0
 16 26  2  0  0  0  0
 17 30  2  0  0  0  0
 17 31  1  0  0  0  0
 18 32  1  0  0  0  0
 19 35  1  0  0  0  0
 20 32  1  0  0  0  0
 20 33  2  0  0  0  0
 20 36  1  0  0  0  0
 21 23  2  0  0  0  0
 21 41  1  0  0  0  0
 22 24  2  0  0  0  0
 22 42  1  0  0  0  0
 23 52  1  0  0  0  0
 24 43  1  0  0  0  0
 25 69  1  0  0  0  0
 26 72  1  0  0  0  0
 27 84  1  0  0  0  0
 28 85  1  0  0  0  0
 29 31  2  0  0  0  0
 29 84  1  0  0  0  0
 30 86  1  0  0  0  0
 31 87  1  0  0  0  0
 32 64  2  0  0  0  0
 33 65  1  0  0  0  0
 33 70  1  0  0  0  0
 34 53  1  0  0  0  0
 34 66  1  0  0  0  0
 34 78  2  0  0  0  0
 35 66  1  0  0  0  0
 35 76  2  0  0  0  0
 36 71  1  0  0  0  0
 36 79  2  0  0  0  0
 37 54  1  0  0  0  0
 37 73  1  0  0  0  0
 37 80  2  0  0  0  0
 38 61  1  0  0  0  0
 38 67  1  0  0  0  0
 38 81  2  0  0  0  0
 39 62  1  0  0  0  0
 39 74  1  0  0  0  0
 39 82  2  0  0  0  0
 40 68  1  0  0  0  0
 40 72  1  0  0  0  0
 40 83  2  0  0  0  0
 41 44  1  0  0  0  0
 42 54  1  0  0  0  0
 43 67  1  0  0  0  0
 44 46  1  0  0  0  0
 45 47  1  0  0  0  0
 45 49  1  0  0  0  0
 46 52  1  0  0  0  0
 47 55  1  0  0  0  0
 48 50  1  0  0  0  0
 48 53  1  0  0  0  0
 49 68  1  0  0  0  0
 50 66  1  0  0  0  0
 51 55  1  0  0  0  0
 51 68  1  0  0  0  0
 52 73  1  0  0  0  0
 53 75  1  0  0  0  0
 54 67  1  0  0  0  0
 55 65  1  0  0  0  0
 56 62  1  0  0  0  0
 57 63  1  0  0  0  0
 58 63  1  0  0  0  0
 59 63  1  0  0  0  0
 60 77  1  0  0  0  0
 61 63  1  0  0  0  0
 61 74  1  0  0  0  0
 62 77  1  0  0  0  0
 64 65  1  0  0  0  0
 75 85  1  0  0  0  0
M  CHG  2  76   1  77   1
M  ISO  4  40 100  72 100  75 101  85 101
M  END
> <Batch ID>
0158

> <Smiles>
CNC(C)C(=O)NC(C(=O)N1Cc2cc([101O:1][101NH:1]C3CCN(C(=N)c4cc(N)cc([100NH:0][100C:0](=O)N5CCCC(n6nc(-c7ccc(Oc8ccc(F)cc8F)cc7)c(C(N)=O)c6N)C5)c4)C3=O)ccc2CC1C(=O)NC1CCCc2ccccc21)C(C)(C)C

> <Shape>
0.236

> <Color>
0.092

> <Negative vol penalty>
0.000

$$$$

  -OEChem-04052303443D

 85 94  0     1  0  0  0  0  0999 V2000
  -25.0477  -19.0464   30.3800 C   0  0  0  0  0  0  0  0  0  0  0  0
  -25.3595  -18.9183   29.0303 C   0  0  0  0  0  0  0  0  0  0  0  0
  -26.6595  -12.7628   21.5196 C   0  0  0  0  0  0  0  0  0  0  0  0
  -26.2250  -13.6779   19.3262 C   0  0  0  0  0  0  0  0  0  0  0  0
  -23.9993  -19.8757   30.7764 C   0  0  0  0  0  0  0  0  0  0  0  0
  -24.6223  -19.6186   28.0760 C   0  0  0  0  0  0  0  0  0  0  0  0
  -27.8212  -24.2638   23.5949 C   0  0  0  0  0  0  0  0  0  0  0  0
  -25.3694  -12.2338   21.5545 C   0  0  0  0  0  0  0  0  0  0  0  0
  -24.9348  -13.1489   19.3611 C   0  0  0  0  0  0  0  0  0  0  0  0
  -28.3904  -25.0108   22.5633 C   0  0  0  0  0  0  0  0  0  0  0  0
  -23.7355   -9.5660   20.2716 C   0  0  0  0  0  0  0  0  0  0  0  0
  -23.5856   -8.2514   20.7131 C   0  0  0  0  0  0  0  0  0  0  0  0
  -26.1890  -25.5103   21.6960 C   0  0  0  0  0  0  0  0  0  0  0  0
  -30.7468  -22.4341   18.2951 C   0  0  0  0  0  0  0  0  0  0  0  0
  -22.1625   -9.0169   22.5092 C   0  0  0  0  0  0  0  0  0  0  0  0
  -29.6708  -20.9237   16.8941 C   0  0  0  0  0  0  0  0  0  0  0  0
  -27.0874  -13.4849   20.4054 C   0  0  0  0  0  0  0  0  0  0  0  0
  -29.5821  -13.4077   19.8781 C   0  0  0  0  0  0  0  0  0  0  0  0
  -23.2551  -20.5940   29.8273 C   0  0  0  0  0  0  0  0  0  0  0  0
  -26.4315  -24.1498   23.6899 C   0  0  0  0  0  0  0  0  0  0  0  0
  -23.5622  -20.4572   28.4601 C   0  0  0  0  0  0  0  0  0  0  0  0
  -25.6127  -24.7737   22.7343 C   0  0  0  0  0  0  0  0  0  0  0  0
  -30.1673  -21.1395   18.1608 C   0  0  0  0  0  0  0  0  0  0  0  0
  -24.5070  -12.4268   20.4753 C   0  0  0  0  0  0  0  0  0  0  0  0
  -27.5763  -25.6323   21.6161 C   0  0  0  0  0  0  0  0  0  0  0  0
  -23.0989  -10.6061   20.9489 C   0  0  0  0  0  0  0  0  0  0  0  0
  -22.7991   -7.9768   21.8319 C   0  0  0  0  0  0  0  0  0  0  0  0
  -22.3124  -10.3315   22.0677 C   0  0  0  0  0  0  0  0  0  0  0  0
  -28.4198  -14.0321   20.3690 C   0  0  0  0  0  0  0  0  0  0  0  0
  -30.6714  -23.1586   17.1257 C   0  0  0  0  0  0  0  0  0  0  0  0
  -30.5766  -14.3359   20.0674 C   0  0  0  0  0  0  0  0  0  0  0  0
  -28.4520  -26.5822   18.2812 C   0  0  0  0  0  0  0  0  0  0  0  0
  -29.7479  -12.1051   19.3023 C   0  0  0  0  0  0  0  0  0  0  0  0
  -31.1915  -24.5281   16.9643 C   0  0  0  0  0  0  0  0  0  0  0  0
  -23.4980  -22.7597   25.5709 C   0  0  0  0  0  0  0  0  0  0  0  0
  -22.7487  -25.6145   24.7349 C   0  0  0  0  0  0  0  0  0  0  0  0
  -22.4769  -28.9329   23.9919 C   0  0  0  0  0  0  0  0  0  0  0  0
  -30.5697  -20.2955   20.5000 C   0  0  0  0  0  0  0  0  0  0  0  0
  -22.1006  -21.4413   30.3002 C   0  0  0  0  0  0  0  0  0  0  0  0
  -25.7770  -23.3045   24.7486 C   0  0  0  0  0  0  0  0  0  0  0  0
  -24.1241  -24.5951   22.8561 C   0  0  0  0  0  0  0  0  0  0  0  0
  -29.0205  -25.3326   17.6659 C   0  0  0  0  0  0  0  0  0  0  0  0
  -21.6094  -22.4395   29.2549 C   0  0  0  0  0  0  0  0  0  0  0  0
  -31.7987  -17.9866   22.9157 C   0  0  0  0  0  0  0  0  0  0  0  0
  -21.4567  -21.7598   27.8980 C   0  0  0  0  0  0  0  0  0  0  0  0
  -31.1823  -16.6525   22.4886 C   0  0  0  0  0  0  0  0  0  0  0  0
  -29.7250  -27.8510   16.7974 C   0  0  0  0  0  0  0  0  0  0  0  0
  -30.8383  -19.1531   22.6904 C   0  0  0  0  0  0  0  0  0  0  0  0
  -30.9024  -26.9347   17.0703 C   0  0  0  0  0  0  0  0  0  0  0  0
  -29.6742  -17.9185   20.9044 C   0  0  0  0  0  0  0  0  0  0  0  0
  -22.8016  -21.2198   27.3969 C   0  0  1  0  0  0  0  0  0  0  0  0
  -24.4370  -23.8819   25.2389 C   0  0  1  0  0  0  0  0  0  0  0  0
  -30.6283  -16.7220   21.0520 C   0  0  2  0  0  0  0  0  0  0  0  0
  -20.8909  -30.8689   24.1749 C   0  0  0  0  0  0  0  0  0  0  0  0
  -21.1086  -24.4846   22.4246 C   0  0  0  0  0  0  0  0  0  0  0  0
  -20.2008  -26.7854   22.0370 C   0  0  0  0  0  0  0  0  0  0  0  0
  -19.7644  -25.6224   24.2002 C   0  0  0  0  0  0  0  0  0  0  0  0
  -24.3673  -30.4727   25.6695 C   0  0  0  0  0  0  0  0  0  0  0  0
  -27.4316  -26.4182   19.3758 C   0  0  0  0  0  0  0  0  0  1  0  0
  -22.0845  -26.4995   23.7106 C   0  0  1  0  0  0  0  0  0  0  0  0
  -22.0411  -30.1207   24.8306 C   0  0  2  0  0  0  0  0  0  0  0  0
  -20.8176  -25.8432   23.0927 C   0  0  0  0  0  0  0  0  0  0  0  0
  -28.6529  -15.2618   20.8354 N   0  0  0  0  0  0  0  0  0  0  0  0
  -28.7558  -27.7754   17.8915 N   0  0  0  0  0  0  0  0  0  0  0  0
  -29.9731  -15.4175   20.6383 N   0  0  0  0  0  0  0  0  0  0  0  0
  -30.3998  -25.5606   17.2233 N   0  0  0  0  0  0  0  0  0  0  0  0
  -23.7168  -24.7190   24.2645 N   0  0  0  0  0  0  0  0  0  0  0  0
  -30.3578  -19.1577   21.3069 N   0  0  0  0  0  0  0  0  0  0  0  0
  -31.8997  -14.3241   19.7996 N   0  0  0  0  0  0  0  0  0  0  0  0
  -28.6217  -11.2796   19.1818 N   0  0  0  0  0  0  0  0  0  0  0  0
  -30.0984  -20.1717   19.1935 N   0  0  0  0  0  0  0  0  0  0  0  0
  -23.6123  -22.2952   26.8673 N   0  0  0  0  0  0  0  0  0  0  0  0
  -21.8339  -27.7745   24.3739 N   0  0  0  0  0  0  0  0  0  0  0  0
  -32.4466  -24.7073   16.5634 N   0  3  0  0  0  0  0  0  0  0  0  0
  -23.1755  -31.0697   25.0135 N   0  3  0  0  0  0  0  0  0  0  0  0
  -30.8647  -11.6794   18.9214 O   0  0  0  0  0  0  0  0  0  0  0  0
  -22.7248  -22.3457   24.7150 O   0  0  0  0  0  0  0  0  0  0  0  0
  -22.4160  -25.7086   25.9197 O   0  0  0  0  0  0  0  0  0  0  0  0
  -23.3023  -29.0242   23.0858 O   0  0  0  0  0  0  0  0  0  0  0  0
  -31.1525  -21.2951   20.9280 O   0  0  0  0  0  0  0  0  0  0  0  0
  -23.2481  -11.9106   20.5089 O   0  0  0  0  0  0  0  0  0  0  0  0
  -28.1384  -26.3638   20.6142 O   0  0  0  0  0  0  0  0  0  1  0  0
  -22.6540   -6.7142   22.2549 F   0  0  0  0  0  0  0  0  0  0  0  0
  -21.6975  -11.3264   22.7218 F   0  0  0  0  0  0  0  0  0  0  0  0
  -29.9041  -22.2785   15.8731 S   0  0  0  0  0  0  0  0  0  0  0  0
  1  2  1  0  0  0  0
  1  5  2  0  0  0  0
  2  6  2  0  0  0  0
  3  8  2  0  0  0  0
  3 17  1  0  0  0  0
  4  9  1  0  0  0  0
  4 17  2  0  0  0  0
  5 19  1  0  0  0  0
  6 21  1  0  0  0  0
  7 10  2  0  0  0  0
  7 20  1  0  0  0  0
  8 24  1  0  0  0  0
  9 24  2  0  0  0  0
 10 25  1  0  0  0  0
 11 12  2  0  0  0  0
 11 26  1  0  0  0  0
 12 27  1  0  0  0  0
 13 22  1  0  0  0  0
 13 25  2  0  0  0  0
 14 23  1  0  0  0  0
 14 30  2  0  0  0  0
 15 27  2  0  0  0  0
 15 28  1  0  0  0  0
 16 23  2  0  0  0  0
 16 85  1  0  0  0  0
 17 29  1  0  0  0  0
 18 29  1  0  0  0  0
 18 31  2  0  0  0  0
 18 33  1  0  0  0  0
 19 21  2  0  0  0  0
 19 39  1  0  0  0  0
 20 22  2  0  0  0  0
 20 40  1  0  0  0  0
 21 51  1  0  0  0  0
 22 41  1  0  0  0  0
 23 71  1  0  0  0  0
 24 81  1  0  0  0  0
 25 82  1  0  0  0  0
 26 28  2  0  0  0  0
 26 81  1  0  0  0  0
 27 83  1  0  0  0  0
 28 84  1  0  0  0  0
 29 63  2  0  0  0  0
 30 34  1  0  0  0  0
 30 85  1  0  0  0  0
 31 65  1  0  0  0  0
 31 69  1  0  0  0  0
 32 42  1  0  0  0  0
 32 59  1  0  0  0  0
 32 64  2  0  0  0  0
 33 70  1  0  0  0  0
 33 76  2  0  0  0  0
 34 66  1  0  0  0  0
 34 74  2  0  0  0  0
 35 52  1  0  0  0  0
 35 72  1  0  0  0  0
 35 77  2  0  0  0  0
 36 60  1  0  0  0  0
 36 67  1  0  0  0  0
 36 78  2  0  0  0  0
 37 61  1  0  0  0  0
 37 73  1  0  0  0  0
 37 79  2  0  0  0  0
 38 68  1  0  0  0  0
 38 71  1  0  0  0  0
 38 80  2  0  0  0  0
 39 43  1  0  0  0  0
 40 52  1  0  0  0  0
 41 67  1  0  0  0  0
 42 66  1  0  0  0  0
 43 45  1  0  0  0  0
 44 46  1  0  0  0  0
 44 48  1  0  0  0  0
 45 51  1  0  0  0  0
 46 53  1  0  0  0  0
 47 49  1  0  0  0  0
 47 64  1  0  0  0  0
 48 68  1  0  0  0  0
 49 66  1  0  0  0  0
 50 53  1  0  0  0  0
 50 68  1  0  0  0  0
 51 72  1  0  0  0  0
 52 67  1  0  0  0  0
 53 65  1  0  0  0  0
 54 61  1  0  0  0  0
 55 62  1  0  0  0  0
 56 62  1  0  0  0  0
 57 62  1  0  0  0  0
 58 75  1  0  0  0  0
 59 82  1  0  0  0  0
 60 62  1  0  0  0  0
 60 73  1  0  0  0  0
 61 75  1  0  0  0  0
 63 65  1  0  0  0  0
M  CHG  2  74   1  75   1
M  ISO  4  38 100  59 101  71 100  82 101
M  END
> <Batch ID>
0158

> <Smiles>
CNC(C)C(=O)NC(C(=O)N1Cc2cc([101O:1][101CH2:1]C3=NCCN(C(=N)c4cc([100NH:0][100C:0](=O)N5CCCC(n6nc(-c7ccc(Oc8ccc(F)cc8F)cc7)c(C(N)=O)c6N)C5)cs4)C3)ccc2CC1C(=O)NC1CCCc2ccccc21)C(C)(C)C

> <Shape>
0.216

> <Color>
0.072

> <Negative vol penalty>
0.000

$$$$

  -OEChem-04052303443D

 81 89  0     1  0  0  0  0  0999 V2000
  -17.9836  -24.0360   22.1518 C   0  0  0  0  0  0  0  0  0  0  0  0
  -19.2536  -23.9900   21.5858 C   0  0  0  0  0  0  0  0  0  0  0  0
  -23.1549  -12.9145   20.0780 C   0  0  0  0  0  0  0  0  0  0  0  0
  -25.2209  -12.4273   18.9241 C   0  0  0  0  0  0  0  0  0  0  0  0
  -17.5264  -25.2141   22.7408 C   0  0  0  0  0  0  0  0  0  0  0  0
  -20.0668  -25.1226   21.6074 C   0  0  0  0  0  0  0  0  0  0  0  0
  -26.1635  -25.2672   22.1686 C   0  0  0  0  0  0  0  0  0  0  0  0
  -22.4779  -12.0283   19.2403 C   0  0  0  0  0  0  0  0  0  0  0  0
  -24.5439  -11.5410   18.0863 C   0  0  0  0  0  0  0  0  0  0  0  0
  -27.1888  -25.3948   21.2325 C   0  0  0  0  0  0  0  0  0  0  0  0
  -23.4265   -8.8786   15.8771 C   0  0  0  0  0  0  0  0  0  0  0  0
  -24.0176   -7.6398   15.6289 C   0  0  0  0  0  0  0  0  0  0  0  0
  -27.2752  -27.7674   21.6595 C   0  0  0  0  0  0  0  0  0  0  0  0
  -23.9551   -7.1368   17.9912 C   0  0  0  0  0  0  0  0  0  0  0  0
  -30.8080  -22.4691   17.2340 C   0  0  0  0  0  0  0  0  0  0  0  0
  -24.5264  -13.1141   19.9199 C   0  0  0  0  0  0  0  0  0  0  0  0
  -25.8437  -13.7341   22.0147 C   0  0  0  0  0  0  0  0  0  0  0  0
  -18.3381  -26.3588   22.7783 C   0  0  0  0  0  0  0  0  0  0  0  0
  -25.6781  -26.3923   22.8503 C   0  0  0  0  0  0  0  0  0  0  0  0
  -19.6195  -26.3175   22.1963 C   0  0  0  0  0  0  0  0  0  0  0  0
  -26.2454  -27.6510   22.6056 C   0  0  0  0  0  0  0  0  0  0  0  0
  -23.1724  -11.3415   18.2444 C   0  0  0  0  0  0  0  0  0  0  0  0
  -27.7429  -26.6454   20.9757 C   0  0  0  0  0  0  0  0  0  0  0  0
  -23.0997   -9.2466   17.1823 C   0  0  0  0  0  0  0  0  0  0  0  0
  -24.2819   -6.7689   16.6860 C   0  0  0  0  0  0  0  0  0  0  0  0
  -23.3640   -8.3757   18.2393 C   0  0  0  0  0  0  0  0  0  0  0  0
  -25.2261  -14.0299   20.7847 C   0  0  0  0  0  0  0  0  0  0  0  0
  -26.3627  -14.9340   22.4356 C   0  0  0  0  0  0  0  0  0  0  0  0
  -30.3484  -23.5514   17.9426 C   0  0  0  0  0  0  0  0  0  0  0  0
  -29.2790  -21.7866   18.5066 C   0  0  0  0  0  0  0  0  0  0  0  0
  -25.9396  -12.4862   22.7142 C   0  0  0  0  0  0  0  0  0  0  0  0
  -22.8686  -27.8685   23.0274 C   0  0  0  0  0  0  0  0  0  0  0  0
  -24.3788  -29.6354   25.2901 C   0  0  0  0  0  0  0  0  0  0  0  0
  -30.3141  -25.9077   18.4967 C   0  0  0  0  0  0  0  0  0  0  0  0
  -27.3194  -30.8041   26.5682 C   0  0  0  0  0  0  0  0  0  0  0  0
  -28.0344  -19.6835   19.1487 C   0  0  0  0  0  0  0  0  0  0  0  0
  -17.7823  -27.6233   23.3840 C   0  0  0  0  0  0  0  0  0  0  0  0
  -24.5898  -26.2338   23.8765 C   0  0  0  0  0  0  0  0  0  0  0  0
  -25.7738  -28.8870   23.3255 C   0  0  0  0  0  0  0  0  0  0  0  0
  -18.8496  -28.6686   23.6979 C   0  0  0  0  0  0  0  0  0  0  0  0
  -25.0272  -19.4948   21.5247 C   0  0  0  0  0  0  0  0  0  0  0  0
  -19.8027  -28.8293   22.5178 C   0  0  0  0  0  0  0  0  0  0  0  0
  -25.3215  -18.1576   22.2004 C   0  0  0  0  0  0  0  0  0  0  0  0
  -26.2807  -20.1363   20.9431 C   0  0  0  0  0  0  0  0  0  0  0  0
  -26.6161  -17.8357   20.0207 C   0  0  0  0  0  0  0  0  0  0  0  0
  -20.5406  -27.5179   22.2221 C   0  0  1  0  0  0  0  0  0  0  0  0
  -23.8217  -27.5259   24.1372 C   0  0  1  0  0  0  0  0  0  0  0  0
  -26.3745  -17.3200   21.4480 C   0  0  2  0  0  0  0  0  0  0  0  0
  -28.2322  -32.2572   28.3992 C   0  0  0  0  0  0  0  0  0  0  0  0
  -23.5284  -32.1210   23.7381 C   0  0  0  0  0  0  0  0  0  0  0  0
  -25.2244  -33.4269   25.0367 C   0  0  0  0  0  0  0  0  0  0  0  0
  -23.3277  -32.3231   26.2227 C   0  0  0  0  0  0  0  0  0  0  0  0
  -31.8512  -27.6911   17.6444 C   0  0  0  0  0  0  0  0  0  0  0  0
  -28.8355  -28.5563   27.7548 C   0  0  0  0  0  0  0  0  0  0  0  0
  -29.1768  -25.5835   19.4035 C   0  0  0  0  0  0  0  0  0  1  0  0
  -25.1981  -30.9033   25.2858 C   0  0  1  0  0  0  0  0  0  0  0  0
  -27.8563  -30.8423   27.9876 C   0  0  2  0  0  0  0  0  0  0  0  0
  -24.3274  -32.1708   25.0557 C   0  0  0  0  0  0  0  0  0  0  0  0
  -30.1191  -21.3411   17.5999 N   0  0  0  0  0  0  0  0  0  0  0  0
  -25.3412  -15.3168   20.4463 N   0  0  0  0  0  0  0  0  0  0  0  0
  -26.0369  -15.8404   21.4699 N   0  0  0  0  0  0  0  0  0  0  0  0
  -24.7032  -28.6815   24.3151 N   0  0  0  0  0  0  0  0  0  0  0  0
  -27.0114  -19.2489   20.0266 N   0  0  0  0  0  0  0  0  0  0  0  0
  -27.0614  -15.2917   23.5340 N   0  0  0  0  0  0  0  0  0  0  0  0
  -25.3504  -11.3514   22.1401 N   0  0  0  0  0  0  0  0  0  0  0  0
  -30.7981  -24.8426   17.8430 N   0  0  0  0  0  0  0  0  0  0  0  0
  -28.3108  -21.0506   19.2344 N   0  0  0  0  0  0  0  0  0  0  0  0
  -21.6112  -27.3146   23.1744 N   0  0  0  0  0  0  0  0  0  0  0  0
  -25.9450  -30.9109   26.5390 N   0  0  0  0  0  0  0  0  0  0  0  0
  -30.7501  -27.1742   18.4660 N   0  3  0  0  0  0  0  0  0  0  0  0
  -29.0666  -29.9809   28.1070 N   0  3  0  0  0  0  0  0  0  0  0  0
  -26.5160  -12.3839   23.8236 O   0  0  0  0  0  0  0  0  0  0  0  0
  -23.2456  -28.5839   22.1065 O   0  0  0  0  0  0  0  0  0  0  0  0
  -23.4886  -29.4934   26.1321 O   0  0  0  0  0  0  0  0  0  0  0  0
  -28.0468  -30.6945   25.5836 O   0  0  0  0  0  0  0  0  0  0  0  0
  -28.6193  -18.9003   18.3974 O   0  0  0  0  0  0  0  0  0  0  0  0
  -29.3568  -23.1197   18.7707 O   0  0  0  0  0  0  0  0  0  0  0  0
  -22.5122  -10.4765   17.4269 O   0  0  0  0  0  0  0  0  0  0  0  0
  -28.7433  -26.7729   20.0621 O   0  0  0  0  0  0  0  0  0  1  0  0
  -24.8481   -5.5787   16.4474 F   0  0  0  0  0  0  0  0  0  0  0  0
  -23.0513   -8.7231   19.4952 F   0  0  0  0  0  0  0  0  0  0  0  0
  1  2  1  0  0  0  0
  1  5  2  0  0  0  0
  2  6  2  0  0  0  0
  3  8  2  0  0  0  0
  3 16  1  0  0  0  0
  4  9  1  0  0  0  0
  4 16  2  0  0  0  0
  5 18  1  0  0  0  0
  6 20  1  0  0  0  0
  7 10  2  0  0  0  0
  7 19  1  0  0  0  0
  8 22  1  0  0  0  0
  9 22  2  0  0  0  0
 10 23  1  0  0  0  0
 11 12  2  0  0  0  0
 11 24  1  0  0  0  0
 12 25  1  0  0  0  0
 13 21  1  0  0  0  0
 13 23  2  0  0  0  0
 14 25  2  0  0  0  0
 14 26  1  0  0  0  0
 15 29  2  0  0  0  0
 15 59  1  0  0  0  0
 16 27  1  0  0  0  0
 17 27  1  0  0  0  0
 17 28  2  0  0  0  0
 17 31  1  0  0  0  0
 18 20  2  0  0  0  0
 18 37  1  0  0  0  0
 19 21  2  0  0  0  0
 19 38  1  0  0  0  0
 20 46  1  0  0  0  0
 21 39  1  0  0  0  0
 22 78  1  0  0  0  0
 23 79  1  0  0  0  0
 24 26  2  0  0  0  0
 24 78  1  0  0  0  0
 25 80  1  0  0  0  0
 26 81  1  0  0  0  0
 27 60  2  0  0  0  0
 28 61  1  0  0  0  0
 28 64  1  0  0  0  0
 29 66  1  0  0  0  0
 29 77  1  0  0  0  0
 30 59  2  0  0  0  0
 30 67  1  0  0  0  0
 30 77  1  0  0  0  0
 31 65  1  0  0  0  0
 31 72  2  0  0  0  0
 32 47  1  0  0  0  0
 32 68  1  0  0  0  0
 32 73  2  0  0  0  0
 33 56  1  0  0  0  0
 33 62  1  0  0  0  0
 33 74  2  0  0  0  0
 34 55  1  0  0  0  0
 34 66  1  0  0  0  0
 34 70  2  0  0  0  0
 35 57  1  0  0  0  0
 35 69  1  0  0  0  0
 35 75  2  0  0  0  0
 36 63  1  0  0  0  0
 36 67  1  0  0  0  0
 36 76  2  0  0  0  0
 37 40  1  0  0  0  0
 38 47  1  0  0  0  0
 39 62  1  0  0  0  0
 40 42  1  0  0  0  0
 41 43  1  0  0  0  0
 41 44  1  0  0  0  0
 42 46  1  0  0  0  0
 43 48  1  0  0  0  0
 44 63  1  0  0  0  0
 45 48  1  0  0  0  0
 45 63  1  0  0  0  0
 46 68  1  0  0  0  0
 47 62  1  0  0  0  0
 48 61  1  0  0  0  0
 49 57  1  0  0  0  0
 50 58  1  0  0  0  0
 51 58  1  0  0  0  0
 52 58  1  0  0  0  0
 53 70  1  0  0  0  0
 54 71  1  0  0  0  0
 55 79  1  0  0  0  0
 56 58  1  0  0  0  0
 56 69  1  0  0  0  0
 57 71  1  0  0  0  0
 60 61  1  0  0  0  0
M  CHG  2  70   1  71   1
M  ISO  4  36 100  55 101  67 100  79 101
M  END
> <Batch ID>
0158

> <Smiles>
CN=C(Nc1cnc([100NH:0][100C:0](=O)N2CCCC(n3nc(-c4ccc(Oc5ccc(F)cc5F)cc4)c(C(N)=O)c3N)C2)o1)[101CH2:1][101O:1]c1ccc2c(c1)CN(C(=O)C(NC(=O)C(C)NC)C(C)(C)C)C(C(=O)NC1CCCc3ccccc31)C2

> <Shape>
0.223

> <Color>
0.055

> <Negative vol penalty>
0.000

$$$$

  -OEChem-04052303443D

 81 89  0     1  0  0  0  0  0999 V2000
  -16.7086  -30.0940   24.1681 C   0  0  0  0  0  0  0  0  0  0  0  0
  -17.8902  -30.5870   24.7124 C   0  0  0  0  0  0  0  0  0  0  0  0
  -29.2982  -19.8561   20.3474 C   0  0  0  0  0  0  0  0  0  0  0  0
  -31.2253  -21.0928   21.1180 C   0  0  0  0  0  0  0  0  0  0  0  0
  -16.7474  -29.0272   23.2712 C   0  0  0  0  0  0  0  0  0  0  0  0
  -19.1113  -30.0127   24.3609 C   0  0  0  0  0  0  0  0  0  0  0  0
  -25.9938  -31.7167   23.3395 C   0  0  0  0  0  0  0  0  0  0  0  0
  -29.8767  -18.6712   20.8021 C   0  0  0  0  0  0  0  0  0  0  0  0
  -31.8038  -19.9078   21.5728 C   0  0  0  0  0  0  0  0  0  0  0  0
  -27.2710  -31.3252   23.7387 C   0  0  0  0  0  0  0  0  0  0  0  0
  -31.4991  -17.8516   24.2373 C   0  0  0  0  0  0  0  0  0  0  0  0
  -32.0809  -17.8610   25.5049 C   0  0  0  0  0  0  0  0  0  0  0  0
  -27.2230  -29.5383   22.1189 C   0  0  0  0  0  0  0  0  0  0  0  0
  -30.9879  -30.1473   19.0443 C   0  0  0  0  0  0  0  0  0  0  0  0
  -34.2108  -17.2660   24.5319 C   0  0  0  0  0  0  0  0  0  0  0  0
  -29.8834  -31.0266   17.1979 C   0  0  0  0  0  0  0  0  0  0  0  0
  -29.9725  -21.0669   20.5052 C   0  0  0  0  0  0  0  0  0  0  0  0
  -28.5319  -23.1572   20.7562 C   0  0  0  0  0  0  0  0  0  0  0  0
  -17.9704  -28.4459   22.9011 C   0  0  0  0  0  0  0  0  0  0  0  0
  -25.3161  -31.0140   22.3329 C   0  0  0  0  0  0  0  0  0  0  0  0
  -19.1664  -28.9363   23.4592 C   0  0  0  0  0  0  0  0  0  0  0  0
  -25.9383  -29.9244   21.7070 C   0  0  0  0  0  0  0  0  0  0  0  0
  -30.8375  -30.1307   17.6276 C   0  0  0  0  0  0  0  0  0  0  0  0
  -31.1295  -18.6970   21.4148 C   0  0  0  0  0  0  0  0  0  0  0  0
  -27.8846  -30.2341   23.1304 C   0  0  0  0  0  0  0  0  0  0  0  0
  -32.2731  -17.5492   23.1169 C   0  0  0  0  0  0  0  0  0  0  0  0
  -33.4367  -17.5683   25.6523 C   0  0  0  0  0  0  0  0  0  0  0  0
  -33.6289  -17.2564   23.2642 C   0  0  0  0  0  0  0  0  0  0  0  0
  -29.3757  -22.2912   20.0352 C   0  0  0  0  0  0  0  0  0  0  0  0
  -28.2390  -24.1664   19.8718 C   0  0  0  0  0  0  0  0  0  0  0  0
  -30.1431  -31.0557   19.6436 C   0  0  0  0  0  0  0  0  0  0  0  0
  -28.0555  -23.0583   22.1049 C   0  0  0  0  0  0  0  0  0  0  0  0
  -22.6123  -29.3488   22.1909 C   0  0  0  0  0  0  0  0  0  0  0  0
  -23.3005  -29.2425   19.0227 C   0  0  0  0  0  0  0  0  0  0  0  0
  -25.6608  -29.4089   16.5635 C   0  0  0  0  0  0  0  0  0  0  0  0
  -30.6914  -27.2325   15.6175 C   0  0  0  0  0  0  0  0  0  0  0  0
  -17.9583  -27.2638   21.9644 C   0  0  0  0  0  0  0  0  0  0  0  0
  -23.9497  -31.4653   21.8952 C   0  0  0  0  0  0  0  0  0  0  0  0
  -25.2615  -29.1491   20.6073 C   0  0  0  0  0  0  0  0  0  0  0  0
  -19.3237  -26.9551   21.3557 C   0  0  0  0  0  0  0  0  0  0  0  0
  -28.3553  -24.6296   14.9510 C   0  0  0  0  0  0  0  0  0  0  0  0
  -20.4043  -26.9720   22.4321 C   0  0  0  0  0  0  0  0  0  0  0  0
  -28.3018  -23.8418   16.2611 C   0  0  0  0  0  0  0  0  0  0  0  0
  -29.7628  -25.1453   14.6596 C   0  0  0  0  0  0  0  0  0  0  0  0
  -30.3203  -25.1403   17.0602 C   0  0  0  0  0  0  0  0  0  0  0  0
  -20.5126  -28.3560   23.0835 C   0  0  1  0  0  0  0  0  0  0  0  0
  -23.1446  -30.3613   21.2167 C   0  0  1  0  0  0  0  0  0  0  0  0
  -28.9095  -24.6475   17.4251 C   0  0  2  0  0  0  0  0  0  0  0  0
  -26.5975  -29.4923   14.2369 C   0  0  0  0  0  0  0  0  0  0  0  0
  -31.1802  -30.5654   24.4965 C   0  0  0  0  0  0  0  0  0  0  0  0
  -23.0209  -26.2088   19.1914 C   0  0  0  0  0  0  0  0  0  0  0  0
  -24.2001  -26.0475   16.9887 C   0  0  0  0  0  0  0  0  0  0  0  0
  -22.0133  -27.2372   17.1465 C   0  0  0  0  0  0  0  0  0  0  0  0
  -25.4120  -32.3556   16.4443 C   0  0  0  0  0  0  0  0  0  0  0  0
  -31.6163  -29.2522   16.7241 C   0  0  0  0  0  0  0  0  0  0  0  0
  -30.8356  -30.6456   22.0054 C   0  0  0  0  0  0  0  0  0  0  0  0
  -24.0813  -28.3095   18.1290 C   0  0  1  0  0  0  0  0  0  0  0  0
  -25.6999  -30.1780   15.2553 C   0  0  2  0  0  0  0  0  0  0  0  0
  -30.1800  -30.8061   23.3751 C   0  0  1  0  0  0  0  0  0  1  0  0
  -23.3412  -26.9640   17.8859 C   0  0  0  0  0  0  0  0  0  0  0  0
  -29.6039  -22.7133   18.7887 N   0  0  0  0  0  0  0  0  0  0  0  0
  -28.8992  -23.8555   18.7196 N   0  0  0  0  0  0  0  0  0  0  0  0
  -23.9237  -29.6253   20.2189 N   0  0  0  0  0  0  0  0  0  0  0  0
  -30.2807  -25.9020   15.8020 N   0  0  0  0  0  0  0  0  0  0  0  0
  -27.4837  -25.2805   19.9751 N   0  0  0  0  0  0  0  0  0  0  0  0
  -28.4535  -21.9569   22.8749 N   0  0  0  0  0  0  0  0  0  0  0  0
  -30.0418  -31.3153   21.0001 N   0  0  0  0  0  0  0  0  0  0  0  0
  -21.2332  -29.2663   22.2194 N   0  0  0  0  0  0  0  0  0  0  0  0
  -24.3734  -29.0592   16.9121 N   0  0  0  0  0  0  0  0  0  0  0  0
  -31.1633  -27.8793   16.7531 N   0  0  0  0  0  0  0  0  0  0  0  0
  -26.2142  -31.5584   15.4810 N   0  3  0  0  0  0  0  0  0  0  0  0
  -27.2862  -23.9125   22.6069 O   0  0  0  0  0  0  0  0  0  0  0  0
  -23.3948  -28.6900   22.8657 O   0  0  0  0  0  0  0  0  0  0  0  0
  -22.1818  -29.6235   18.6691 O   0  0  0  0  0  0  0  0  0  0  0  0
  -26.6716  -29.1418   17.2096 O   0  0  0  0  0  0  0  0  0  0  0  0
  -30.6363  -27.8035   14.5230 O   0  0  0  0  0  0  0  0  0  0  0  0
  -31.6942  -17.5409   21.8589 O   0  0  0  0  0  0  0  0  0  0  0  0
  -29.1309  -29.8495   23.5185 O   0  0  0  0  0  0  0  0  0  1  0  0
  -33.9956  -17.5790   26.8695 F   0  0  0  0  0  0  0  0  0  0  0  0
  -34.3778  -16.9664   22.1914 F   0  0  0  0  0  0  0  0  0  0  0  0
  -29.1738  -31.8831   18.4999 S   0  0  0  0  0  0  0  0  0  0  0  0
  1  2  1  0  0  0  0
  1  5  2  0  0  0  0
  2  6  2  0  0  0  0
  3  8  2  0  0  0  0
  3 17  1  0  0  0  0
  4  9  1  0  0  0  0
  4 17  2  0  0  0  0
  5 19  1  0  0  0  0
  6 21  1  0  0  0  0
  7 10  2  0  0  0  0
  7 20  1  0  0  0  0
  8 24  1  0  0  0  0
  9 24  2  0  0  0  0
 10 25  1  0  0  0  0
 11 12  2  0  0  0  0
 11 26  1  0  0  0  0
 12 27  1  0  0  0  0
 13 22  1  0  0  0  0
 13 25  2  0  0  0  0
 14 23  1  0  0  0  0
 14 31  2  0  0  0  0
 15 27  2  0  0  0  0
 15 28  1  0  0  0  0
 16 23  2  0  0  0  0
 16 81  1  0  0  0  0
 17 29  1  0  0  0  0
 18 29  1  0  0  0  0
 18 30  2  0  0  0  0
 18 32  1  0  0  0  0
 19 21  2  0  0  0  0
 19 37  1  0  0  0  0
 20 22  2  0  0  0  0
 20 38  1  0  0  0  0
 21 46  1  0  0  0  0
 22 39  1  0  0  0  0
 23 55  1  0  0  0  0
 24 77  1  0  0  0  0
 25 78  1  0  0  0  0
 26 28  2  0  0  0  0
 26 77  1  0  0  0  0
 27 79  1  0  0  0  0
 28 80  1  0  0  0  0
 29 61  2  0  0  0  0
 30 62  1  0  0  0  0
 30 65  1  0  0  0  0
 31 67  1  0  0  0  0
 31 81  1  0  0  0  0
 32 66  1  0  0  0  0
 32 72  2  0  0  0  0
 33 47  1  0  0  0  0
 33 68  1  0  0  0  0
 33 73  2  0  0  0  0
 34 57  1  0  0  0  0
 34 63  1  0  0  0  0
 34 74  2  0  0  0  0
 35 58  1  0  0  0  0
 35 69  1  0  0  0  0
 35 75  2  0  0  0  0
 36 64  1  0  0  0  0
 36 70  1  0  0  0  0
 36 76  2  0  0  0  0
 37 40  1  0  0  0  0
 38 47  1  0  0  0  0
 39 63  1  0  0  0  0
 40 42  1  0  0  0  0
 41 43  1  0  0  0  0
 41 44  1  0  0  0  0
 42 46  1  0  0  0  0
 43 48  1  0  0  0  0
 44 64  1  0  0  0  0
 45 48  1  0  0  0  0
 45 64  1  0  0  0  0
 46 68  1  0  0  0  0
 47 63  1  0  0  0  0
 48 62  1  0  0  0  0
 49 58  1  0  0  0  0
 50 59  1  0  0  0  0
 51 60  1  0  0  0  0
 52 60  1  0  0  0  0
 53 60  1  0  0  0  0
 54 71  1  0  0  0  0
 55 70  1  0  0  0  0
 56 59  1  0  0  0  0
 56 67  1  0  0  0  0
 57 60  1  0  0  0  0
 57 69  1  0  0  0  0
 58 71  1  0  0  0  0
 59 78  1  0  0  0  0
 61 62  1  0  0  0  0
M  CHG  1  71   1
M  ISO  4  36 100  59 101  70 100  78 101
M  END
> <Batch ID>
0158

> <Smiles>
CNC(C)C(=O)NC(C(=O)N1Cc2cc([101O:1][101CH:1](C)CNc3cc(C[100NH:0][100C:0](=O)N4CCCC(n5nc(-c6ccc(Oc7ccc(F)cc7F)cc6)c(C(N)=O)c5N)C4)cs3)ccc2CC1C(=O)NC1CCCc2ccccc21)C(C)(C)C

> <Shape>
0.215

> <Color>
0.103

> <Negative vol penalty>
0.000

$$$$

  -OEChem-04052303443D

 85 95  0     1  0  0  0  0  0999 V2000
  -15.6698  -27.6502   21.4768 C   0  0  0  0  0  0  0  0  0  0  0  0
  -16.3608  -27.1577   20.3743 C   0  0  0  0  0  0  0  0  0  0  0  0
  -25.8288  -15.4784   21.5943 C   0  0  0  0  0  0  0  0  0  0  0  0
  -25.3931  -16.3112   19.3686 C   0  0  0  0  0  0  0  0  0  0  0  0
  -16.3724  -28.1128   22.5887 C   0  0  0  0  0  0  0  0  0  0  0  0
  -17.7549  -27.1286   20.3828 C   0  0  0  0  0  0  0  0  0  0  0  0
  -23.2734  -23.2768   17.9280 C   0  0  0  0  0  0  0  0  0  0  0  0
  -24.5606  -14.8985   21.6256 C   0  0  0  0  0  0  0  0  0  0  0  0
  -24.1249  -15.7312   19.3999 C   0  0  0  0  0  0  0  0  0  0  0  0
  -24.4602  -23.4299   17.2126 C   0  0  0  0  0  0  0  0  0  0  0  0
  -21.5749  -12.8921   22.1501 C   0  0  0  0  0  0  0  0  0  0  0  0
  -21.4703  -11.5872   22.6314 C   0  0  0  0  0  0  0  0  0  0  0  0
  -25.5663  -24.1818   19.2202 C   0  0  0  0  0  0  0  0  0  0  0  0
  -22.9514  -10.8232   20.8821 C   0  0  0  0  0  0  0  0  0  0  0  0
  -26.2450  -16.1848   20.4658 C   0  0  0  0  0  0  0  0  0  0  0  0
  -28.7490  -16.1942   19.9782 C   0  0  0  0  0  0  0  0  0  0  0  0
  -17.7756  -28.0804   22.6146 C   0  0  0  0  0  0  0  0  0  0  0  0
  -23.2212  -23.5859   19.2948 C   0  0  0  0  0  0  0  0  0  0  0  0
  -18.4769  -27.5925   21.4955 C   0  0  0  0  0  0  0  0  0  0  0  0
  -24.3782  -24.0293   19.9512 C   0  0  0  0  0  0  0  0  0  0  0  0
  -23.7087  -15.0249   20.5285 C   0  0  0  0  0  0  0  0  0  0  0  0
  -25.6062  -23.8853   17.8580 C   0  0  0  0  0  0  0  0  0  0  0  0
  -22.3677  -13.1627   21.0347 C   0  0  0  0  0  0  0  0  0  0  0  0
  -22.1585  -10.5527   21.9974 C   0  0  0  0  0  0  0  0  0  0  0  0
  -23.0560  -12.1282   20.4008 C   0  0  0  0  0  0  0  0  0  0  0  0
  -27.5547  -16.7846   20.4331 C   0  0  0  0  0  0  0  0  0  0  0  0
  -29.7021  -17.1673   20.1548 C   0  0  0  0  0  0  0  0  0  0  0  0
  -30.0853  -27.3979   17.2422 C   0  0  0  0  0  0  0  0  0  0  0  0
  -30.7662  -27.4960   19.2879 C   0  0  0  0  0  0  0  0  0  0  0  0
  -30.1321  -25.3240   20.0051 C   0  0  0  0  0  0  0  0  0  0  0  0
  -28.9764  -14.8834   19.4437 C   0  0  0  0  0  0  0  0  0  0  0  0
  -21.6077  -25.6787   21.0612 C   0  0  0  0  0  0  0  0  0  0  0  0
  -23.0051  -24.0907   23.5204 C   0  0  0  0  0  0  0  0  0  0  0  0
  -25.5766  -22.1329   24.6166 C   0  0  0  0  0  0  0  0  0  0  0  0
  -29.3326  -23.0524   20.3221 C   0  0  0  0  0  0  0  0  0  0  0  0
  -18.4924  -28.6352   23.8200 C   0  0  0  0  0  0  0  0  0  0  0  0
  -21.9401  -23.3898   20.0581 C   0  0  0  0  0  0  0  0  0  0  0  0
  -24.3800  -24.3554   21.4216 C   0  0  0  0  0  0  0  0  0  0  0  0
  -19.9599  -28.2225   23.8994 C   0  0  0  0  0  0  0  0  0  0  0  0
  -30.7303  -20.9468   22.9081 C   0  0  0  0  0  0  0  0  0  0  0  0
  -20.6400  -28.4063   22.5465 C   0  0  0  0  0  0  0  0  0  0  0  0
  -30.2087  -25.6024   15.4989 C   0  0  0  0  0  0  0  0  0  0  0  0
  -29.1802  -24.4791   15.5844 C   0  0  0  0  0  0  0  0  0  0  0  0
  -30.1831  -19.5742   22.5112 C   0  0  0  0  0  0  0  0  0  0  0  0
  -28.0169  -26.4611   16.2057 C   0  0  0  0  0  0  0  0  0  0  0  0
  -29.7010  -22.0448   22.6574 C   0  0  0  0  0  0  0  0  0  0  0  0
  -28.6421  -20.7336   20.8609 C   0  0  0  0  0  0  0  0  0  0  0  0
  -19.9885  -27.5216   21.4768 C   0  0  1  0  0  0  0  0  0  0  0  0
  -29.4860  -26.8725   15.9947 C   0  0  1  0  0  0  0  0  0  0  0  0
  -21.8705  -24.2246   21.3331 C   0  0  1  0  0  0  0  0  0  0  0  0
  -27.8509  -25.1943   15.3687 C   0  0  2  0  0  0  0  0  0  0  0  0
  -29.6417  -19.5812   21.0691 C   0  0  2  0  0  0  0  0  0  0  0  0
  -26.4672  -21.0275   26.6859 C   0  0  0  0  0  0  0  0  0  0  0  0
  -24.0177  -26.7888   24.5230 C   0  0  0  0  0  0  0  0  0  0  0  0
  -25.6379  -25.5596   25.9832 C   0  0  0  0  0  0  0  0  0  0  0  0
  -23.1842  -25.2560   26.3147 C   0  0  0  0  0  0  0  0  0  0  0  0
  -25.3357  -19.4367   23.4202 C   0  0  0  0  0  0  0  0  0  0  0  0
  -26.6543  -24.3622   15.7772 C   0  0  0  0  0  0  0  0  0  1  0  0
  -24.2971  -24.2328   24.2883 C   0  0  1  0  0  0  0  0  0  0  0  0
  -25.5924  -20.8659   25.4525 C   0  0  2  0  0  0  0  0  0  0  0  0
  -24.2840  -25.4551   25.2491 C   0  0  0  0  0  0  0  0  0  0  0  0
  -27.7305  -18.0358   20.8663 N   0  0  0  0  0  0  0  0  0  0  0  0
  -30.6203  -28.5906   17.4457 N   0  0  0  0  0  0  0  0  0  0  0  0
  -31.0605  -28.6530   18.7690 N   0  0  0  0  0  0  0  0  0  0  0  0
  -29.7840  -25.4355   18.7545 N   0  0  0  0  0  0  0  0  0  0  0  0
  -29.0464  -18.2395   20.6844 N   0  0  0  0  0  0  0  0  0  0  0  0
  -30.1634  -26.6824   18.3922 N   0  0  0  0  0  0  0  0  0  0  0  0
  -23.1014  -24.1535   22.1231 N   0  0  0  0  0  0  0  0  0  0  0  0
  -29.2459  -22.0091   21.2604 N   0  0  0  0  0  0  0  0  0  0  0  0
  -31.0287  -17.2018   19.9072 N   0  0  0  0  0  0  0  0  0  0  0  0
  -27.8866  -14.0094   19.3309 N   0  0  0  0  0  0  0  0  0  0  0  0
  -29.9394  -24.2239   20.7790 N   0  0  0  0  0  0  0  0  0  0  0  0
  -20.4331  -26.1513   21.6147 N   0  0  0  0  0  0  0  0  0  0  0  0
  -24.5202  -22.9531   24.9523 N   0  0  0  0  0  0  0  0  0  0  0  0
  -26.1158  -19.7234   24.6515 N   0  3  0  0  0  0  0  0  0  0  0  0
  -30.1155  -14.4928   19.0922 O   0  0  0  0  0  0  0  0  0  0  0  0
  -22.4119  -26.3246   20.3995 O   0  0  0  0  0  0  0  0  0  0  0  0
  -21.9503  -23.9227   24.1375 O   0  0  0  0  0  0  0  0  0  0  0  0
  -26.4193  -22.3729   23.7548 O   0  0  0  0  0  0  0  0  0  0  0  0
  -28.9246  -22.9416   19.1610 O   0  0  0  0  0  0  0  0  0  0  0  0
  -22.4712  -14.4589   20.5586 O   0  0  0  0  0  0  0  0  0  0  0  0
  -26.7657  -24.0363   17.1620 O   0  0  0  0  0  0  0  0  0  1  0  0
  -22.0592   -9.2998   22.4607 F   0  0  0  0  0  0  0  0  0  0  0  0
  -23.8201  -12.3822   19.3296 F   0  0  0  0  0  0  0  0  0  0  0  0
  -30.9243  -26.7017   20.7933 S   0  0  0  0  0  0  0  0  0  0  0  0
  1  2  1  0  0  0  0
  1  5  2  0  0  0  0
  2  6  2  0  0  0  0
  3  8  2  0  0  0  0
  3 15  1  0  0  0  0
  4  9  1  0  0  0  0
  4 15  2  0  0  0  0
  5 17  1  0  0  0  0
  6 19  1  0  0  0  0
  7 10  2  0  0  0  0
  7 18  1  0  0  0  0
  8 21  1  0  0  0  0
  9 21  2  0  0  0  0
 10 22  1  0  0  0  0
 11 12  2  0  0  0  0
 11 23  1  0  0  0  0
 12 24  1  0  0  0  0
 13 20  1  0  0  0  0
 13 22  2  0  0  0  0
 14 24  2  0  0  0  0
 14 25  1  0  0  0  0
 15 26  1  0  0  0  0
 16 26  1  0  0  0  0
 16 27  2  0  0  0  0
 16 31  1  0  0  0  0
 17 19  2  0  0  0  0
 17 36  1  0  0  0  0
 18 20  2  0  0  0  0
 18 37  1  0  0  0  0
 19 48  1  0  0  0  0
 20 38  1  0  0  0  0
 21 81  1  0  0  0  0
 22 82  1  0  0  0  0
 23 25  2  0  0  0  0
 23 81  1  0  0  0  0
 24 83  1  0  0  0  0
 25 84  1  0  0  0  0
 26 62  2  0  0  0  0
 27 66  1  0  0  0  0
 27 70  1  0  0  0  0
 28 49  1  0  0  0  0
 28 63  2  0  0  0  0
 28 67  1  0  0  0  0
 29 64  2  0  0  0  0
 29 67  1  0  0  0  0
 29 85  1  0  0  0  0
 30 65  2  0  0  0  0
 30 72  1  0  0  0  0
 30 85  1  0  0  0  0
 31 71  1  0  0  0  0
 31 76  2  0  0  0  0
 32 50  1  0  0  0  0
 32 73  1  0  0  0  0
 32 77  2  0  0  0  0
 33 59  1  0  0  0  0
 33 68  1  0  0  0  0
 33 78  2  0  0  0  0
 34 60  1  0  0  0  0
 34 74  1  0  0  0  0
 34 79  2  0  0  0  0
 35 69  1  0  0  0  0
 35 72  1  0  0  0  0
 35 80  2  0  0  0  0
 36 39  1  0  0  0  0
 37 50  1  0  0  0  0
 38 68  1  0  0  0  0
 39 41  1  0  0  0  0
 40 44  1  0  0  0  0
 40 46  1  0  0  0  0
 41 48  1  0  0  0  0
 42 43  1  0  0  0  0
 42 49  1  0  0  0  0
 43 51  1  0  0  0  0
 44 52  1  0  0  0  0
 45 49  1  0  0  0  0
 45 51  1  0  0  0  0
 46 69  1  0  0  0  0
 47 52  1  0  0  0  0
 47 69  1  0  0  0  0
 48 73  1  0  0  0  0
 50 68  1  0  0  0  0
 51 58  1  0  0  0  0
 52 66  1  0  0  0  0
 53 60  1  0  0  0  0
 54 61  1  0  0  0  0
 55 61  1  0  0  0  0
 56 61  1  0  0  0  0
 57 75  1  0  0  0  0
 58 82  1  0  0  0  0
 59 61  1  0  0  0  0
 59 74  1  0  0  0  0
 60 75  1  0  0  0  0
 62 66  1  0  0  0  0
 63 64  1  0  0  0  0
 65 67  1  0  0  0  0
M  CHG  1  75   1
M  ISO  4  35 100  58 101  72 100  82 101
M  END
> <Batch ID>
0158

> <Smiles>
CNC(C)C(=O)NC(C(=O)N1Cc2cc([101O:1][101CH2:1]C3CCC(c4nnc5sc([100NH:0][100C:0](=O)N6CCCC(n7nc(-c8ccc(Oc9ccc(F)cc9F)cc8)c(C(N)=O)c7N)C6)nn45)C3)ccc2CC1C(=O)NC1CCCc2ccccc21)C(C)(C)C

> <Shape>
0.205

> <Color>
0.062

> <Negative vol penalty>
0.000

$$$$

  -OEChem-04052303443D

 86 94  0     1  0  0  0  0  0999 V2000
  -30.2332  -18.1803   28.0448 C   0  0  0  0  0  0  0  0  0  0  0  0
  -30.4991  -18.4835   26.7134 C   0  0  0  0  0  0  0  0  0  0  0  0
  -22.9359   -9.8609   20.0320 C   0  0  0  0  0  0  0  0  0  0  0  0
  -23.6382   -9.9853   22.3403 C   0  0  0  0  0  0  0  0  0  0  0  0
  -29.0634  -18.6454   28.6442 C   0  0  0  0  0  0  0  0  0  0  0  0
  -29.5948  -19.2510   25.9802 C   0  0  0  0  0  0  0  0  0  0  0  0
  -31.8750  -22.8406   23.2305 C   0  0  0  0  0  0  0  0  0  0  0  0
  -22.1480   -8.7496   20.3316 C   0  0  0  0  0  0  0  0  0  0  0  0
  -22.8503   -8.8740   22.6399 C   0  0  0  0  0  0  0  0  0  0  0  0
  -32.4870  -22.4407   22.0434 C   0  0  0  0  0  0  0  0  0  0  0  0
  -23.0441   -5.5163   22.2938 C   0  0  0  0  0  0  0  0  0  0  0  0
  -23.6070   -4.5183   23.0891 C   0  0  0  0  0  0  0  0  0  0  0  0
  -30.2136  -19.4019   19.2915 C   0  0  0  0  0  0  0  0  0  0  0  0
  -30.5737  -23.2237   20.8003 C   0  0  0  0  0  0  0  0  0  0  0  0
  -21.8703   -4.8508   24.7355 C   0  0  0  0  0  0  0  0  0  0  0  0
  -23.6810  -10.4788   21.0364 C   0  0  0  0  0  0  0  0  0  0  0  0
  -29.7093  -18.6318   20.3666 C   0  0  0  0  0  0  0  0  0  0  0  0
  -24.1097  -12.9796   20.7721 C   0  0  0  0  0  0  0  0  0  0  0  0
  -28.1490  -19.4271   27.9208 C   0  0  0  0  0  0  0  0  0  0  0  0
  -30.6009  -23.4260   23.2124 C   0  0  0  0  0  0  0  0  0  0  0  0
  -28.4111  -19.7258   26.5701 C   0  0  0  0  0  0  0  0  0  0  0  0
  -29.9488  -23.6324   21.9883 C   0  0  0  0  0  0  0  0  0  0  0  0
  -22.1051   -8.2561   21.6355 C   0  0  0  0  0  0  0  0  0  0  0  0
  -31.8352  -22.6296   20.8283 C   0  0  0  0  0  0  0  0  0  0  0  0
  -21.8943   -6.1817   22.7194 C   0  0  0  0  0  0  0  0  0  0  0  0
  -23.0201   -4.1854   24.3100 C   0  0  0  0  0  0  0  0  0  0  0  0
  -21.3075   -5.8489   23.9402 C   0  0  0  0  0  0  0  0  0  0  0  0
  -24.4956  -11.6265   20.7274 C   0  0  0  0  0  0  0  0  0  0  0  0
  -30.7258  -17.7828   20.7381 C   0  0  0  0  0  0  0  0  0  0  0  0
  -31.5023  -18.9688   19.0828 C   0  0  0  0  0  0  0  0  0  0  0  0
  -25.2350  -13.6702   20.3934 C   0  0  0  0  0  0  0  0  0  0  0  0
  -28.4123  -18.6930   20.9729 C   0  0  0  0  0  0  0  0  0  0  0  0
  -22.8471  -13.5603   21.1246 C   0  0  0  0  0  0  0  0  0  0  0  0
  -27.3431  -19.6665   20.4968 C   0  0  0  0  0  0  0  0  0  0  0  0
  -27.7612  -22.6561   24.4152 C   0  0  0  0  0  0  0  0  0  0  0  0
  -33.2524  -20.3797   18.4185 C   0  0  0  0  0  0  0  0  0  0  0  0
  -26.9257  -25.5812   23.2890 C   0  0  0  0  0  0  0  0  0  0  0  0
  -27.5273  -28.1182   21.0870 C   0  0  0  0  0  0  0  0  0  0  0  0
  -30.7433  -14.5243   20.6668 C   0  0  0  0  0  0  0  0  0  0  0  0
  -26.8753  -19.8673   28.5979 C   0  0  0  0  0  0  0  0  0  0  0  0
  -29.9657  -23.8763   24.4993 C   0  0  0  0  0  0  0  0  0  0  0  0
  -28.5886  -24.2749   21.9129 C   0  0  0  0  0  0  0  0  0  0  0  0
  -26.1495  -20.9893   27.8599 C   0  0  0  0  0  0  0  0  0  0  0  0
  -29.5866  -12.0344   18.3999 C   0  0  0  0  0  0  0  0  0  0  0  0
  -26.0676  -20.6813   26.3681 C   0  0  0  0  0  0  0  0  0  0  0  0
  -28.1298  -11.8137   18.8110 C   0  0  0  0  0  0  0  0  0  0  0  0
  -30.4804  -12.2996   19.6093 C   0  0  0  0  0  0  0  0  0  0  0  0
  -28.5701  -13.1749   20.8972 C   0  0  0  0  0  0  0  0  0  0  0  0
  -27.4665  -20.5764   25.7489 C   0  0  1  0  0  0  0  0  0  0  0  0
  -28.4474  -23.9928   24.4075 C   0  0  1  0  0  0  0  0  0  0  0  0
  -27.6203  -12.9590   19.7066 C   0  0  2  0  0  0  0  0  0  0  0  0
  -26.4111  -19.2045   19.4218 C   0  0  0  0  0  0  0  0  0  0  0  0
  -34.2532  -20.7817   17.3612 C   0  0  0  0  0  0  0  0  0  0  0  0
  -26.6530  -30.3616   20.3798 C   0  0  0  0  0  0  0  0  0  0  0  0
  -24.6318  -24.2181   21.8092 C   0  0  0  0  0  0  0  0  0  0  0  0
  -24.3985  -26.2826   20.4123 C   0  0  0  0  0  0  0  0  0  0  0  0
  -24.0344  -26.3991   22.8773 C   0  0  0  0  0  0  0  0  0  0  0  0
  -30.0628  -29.4631   21.8089 C   0  0  0  0  0  0  0  0  0  0  0  0
  -30.8499  -16.7439   21.7719 C   0  0  0  0  0  0  0  0  0  0  0  0
  -33.3190  -21.1254   19.7366 C   0  0  0  0  0  0  0  0  0  1  0  0
  -26.3815  -26.1087   21.9835 C   0  0  1  0  0  0  0  0  0  0  0  0
  -27.6260  -29.6202   21.2834 C   0  0  2  0  0  0  0  0  0  0  0  0
  -24.8863  -25.7382   21.7718 C   0  0  0  0  0  0  0  0  0  0  0  0
  -25.7666  -11.4649   20.3499 N   0  0  0  0  0  0  0  0  0  0  0  0
  -28.0261  -17.9308   21.9776 N   0  0  0  0  0  0  0  0  0  0  0  0
  -27.2964  -20.8314   21.0494 N   0  0  0  0  0  0  0  0  0  0  0  0
  -32.4389  -19.4070   18.1352 N   0  0  0  0  0  0  0  0  0  0  0  0
  -26.1891  -12.7255   20.1539 N   0  0  0  0  0  0  0  0  0  0  0  0
  -28.0063  -24.6923   23.1991 N   0  0  0  0  0  0  0  0  0  0  0  0
  -29.9425  -13.3978   20.4159 N   0  0  0  0  0  0  0  0  0  0  0  0
  -25.4914  -14.9872   20.2452 N   0  0  0  0  0  0  0  0  0  0  0  0
  -21.7974  -12.7063   21.4892 N   0  0  0  0  0  0  0  0  0  0  0  0
  -28.0257  -21.8943   25.5373 N   0  0  0  0  0  0  0  0  0  0  0  0
  -26.6479  -27.5431   21.9799 N   0  0  0  0  0  0  0  0  0  0  0  0
  -30.1546  -15.5218   21.4344 N   0  0  0  0  0  0  0  0  0  0  0  0
  -29.0056  -30.0931   20.9767 N   0  3  0  0  0  0  0  0  0  0  0  0
  -22.6507  -14.7990   21.1005 O   0  0  0  0  0  0  0  0  0  0  0  0
  -27.0436  -22.3400   23.4735 O   0  0  0  0  0  0  0  0  0  0  0  0
  -26.4157  -25.9500   24.3499 O   0  0  0  0  0  0  0  0  0  0  0  0
  -28.1635  -27.5158   20.2251 O   0  0  0  0  0  0  0  0  0  0  0  0
  -31.8954  -14.6353   20.2341 O   0  0  0  0  0  0  0  0  0  0  0  0
  -31.8223  -17.9820   19.9605 O   0  0  0  0  0  0  0  0  0  0  0  0
  -21.3362   -7.1719   21.9283 O   0  0  0  0  0  0  0  0  0  0  0  0
  -32.4300  -22.2396   19.6681 O   0  0  0  0  0  0  0  0  0  1  0  0
  -23.5599   -3.2259   25.0729 F   0  0  0  0  0  0  0  0  0  0  0  0
  -20.2022   -6.4838   24.3538 F   0  0  0  0  0  0  0  0  0  0  0  0
  1  2  1  0  0  0  0
  1  5  2  0  0  0  0
  2  6  2  0  0  0  0
  3  8  2  0  0  0  0
  3 16  1  0  0  0  0
  4  9  1  0  0  0  0
  4 16  2  0  0  0  0
  5 19  1  0  0  0  0
  6 21  1  0  0  0  0
  7 10  2  0  0  0  0
  7 20  1  0  0  0  0
  8 23  1  0  0  0  0
  9 23  2  0  0  0  0
 10 24  1  0  0  0  0
 11 12  2  0  0  0  0
 11 25  1  0  0  0  0
 12 26  1  0  0  0  0
 13 17  1  0  0  0  0
 13 30  2  0  0  0  0
 14 22  1  0  0  0  0
 14 24  2  0  0  0  0
 15 26  2  0  0  0  0
 15 27  1  0  0  0  0
 16 28  1  0  0  0  0
 17 29  2  0  0  0  0
 17 32  1  0  0  0  0
 18 28  1  0  0  0  0
 18 31  2  0  0  0  0
 18 33  1  0  0  0  0
 19 21  2  0  0  0  0
 19 40  1  0  0  0  0
 20 22  2  0  0  0  0
 20 41  1  0  0  0  0
 21 49  1  0  0  0  0
 22 42  1  0  0  0  0
 23 83  1  0  0  0  0
 24 84  1  0  0  0  0
 25 27  2  0  0  0  0
 25 83  1  0  0  0  0
 26 85  1  0  0  0  0
 27 86  1  0  0  0  0
 28 64  2  0  0  0  0
 29 59  1  0  0  0  0
 29 82  1  0  0  0  0
 30 67  1  0  0  0  0
 30 82  1  0  0  0  0
 31 68  1  0  0  0  0
 31 71  1  0  0  0  0
 32 34  1  0  0  0  0
 32 65  2  0  0  0  0
 33 72  1  0  0  0  0
 33 77  2  0  0  0  0
 34 52  1  0  0  0  0
 34 66  2  0  0  0  0
 35 50  1  0  0  0  0
 35 73  1  0  0  0  0
 35 78  2  0  0  0  0
 36 53  1  0  0  0  0
 36 60  1  0  0  0  0
 36 67  2  0  0  0  0
 37 61  1  0  0  0  0
 37 69  1  0  0  0  0
 37 79  2  0  0  0  0
 38 62  1  0  0  0  0
 38 74  1  0  0  0  0
 38 80  2  0  0  0  0
 39 70  1  0  0  0  0
 39 75  1  0  0  0  0
 39 81  2  0  0  0  0
 40 43  1  0  0  0  0
 41 50  1  0  0  0  0
 42 69  1  0  0  0  0
 43 45  1  0  0  0  0
 44 46  1  0  0  0  0
 44 47  1  0  0  0  0
 45 49  1  0  0  0  0
 46 51  1  0  0  0  0
 47 70  1  0  0  0  0
 48 51  1  0  0  0  0
 48 70  1  0  0  0  0
 49 73  1  0  0  0  0
 50 69  1  0  0  0  0
 51 68  1  0  0  0  0
 54 62  1  0  0  0  0
 55 63  1  0  0  0  0
 56 63  1  0  0  0  0
 57 63  1  0  0  0  0
 58 76  1  0  0  0  0
 59 75  1  0  0  0  0
 60 84  1  0  0  0  0
 61 63  1  0  0  0  0
 61 74  1  0  0  0  0
 62 76  1  0  0  0  0
 64 68  1  0  0  0  0
M  CHG  1  76   1
M  ISO  4  39 100  60 101  75 100  84 101
M  END
> <Batch ID>
0158

> <Smiles>
CNC(C)C(=O)NC(C(=O)N1Cc2cc([101O:1][101CH:1]=C(C)Nc3cc(C(=N)C(C)=N)c(C[100NH:0][100C:0](=O)N4CCCC(n5nc(-c6ccc(Oc7ccc(F)cc7F)cc6)c(C(N)=O)c5N)C4)o3)ccc2CC1C(=O)NC1CCCc2ccccc21)C(C)(C)C

> <Shape>
0.244

> <Color>
0.193

> <Negative vol penalty>
0.000

$$$$

  -OEChem-04052303443D

 85 94  0     1  0  0  0  0  0999 V2000
  -28.0599  -24.7489   16.3944 C   0  0  0  0  0  0  0  0  0  0  0  0
  -26.9295  -24.8456   17.1995 C   0  0  0  0  0  0  0  0  0  0  0  0
  -19.3654  -20.7029   24.8996 C   0  0  0  0  0  0  0  0  0  0  0  0
  -25.0199  -12.9654   19.9713 C   0  0  0  0  0  0  0  0  0  0  0  0
  -24.8932  -13.9322   22.1818 C   0  0  0  0  0  0  0  0  0  0  0  0
  -18.9732  -21.9540   24.4236 C   0  0  0  0  0  0  0  0  0  0  0  0
  -29.2536  -25.3468   16.7960 C   0  0  0  0  0  0  0  0  0  0  0  0
  -26.9925  -25.5394   18.4074 C   0  0  0  0  0  0  0  0  0  0  0  0
  -23.0123  -28.5918   19.1044 C   0  0  0  0  0  0  0  0  0  0  0  0
  -19.3660  -19.6004   24.0451 C   0  0  0  0  0  0  0  0  0  0  0  0
  -26.4110  -12.9287   20.0670 C   0  0  0  0  0  0  0  0  0  0  0  0
  -26.2843  -13.8955   22.2776 C   0  0  0  0  0  0  0  0  0  0  0  0
  -21.8194  -27.9987   19.5156 C   0  0  0  0  0  0  0  0  0  0  0  0
  -28.7561  -10.9885   21.5396 C   0  0  0  0  0  0  0  0  0  0  0  0
  -29.4032   -9.8212   21.1344 C   0  0  0  0  0  0  0  0  0  0  0  0
  -18.5821  -21.0000   22.2386 C   0  0  0  0  0  0  0  0  0  0  0  0
  -22.2703  -28.6797   21.7854 C   0  0  0  0  0  0  0  0  0  0  0  0
  -30.6247  -11.0761   19.4700 C   0  0  0  0  0  0  0  0  0  0  0  0
  -24.2610  -13.4672   21.0287 C   0  0  0  0  0  0  0  0  0  0  0  0
  -18.5815  -22.1025   23.0932 C   0  0  0  0  0  0  0  0  0  0  0  0
  -21.9180  -12.5008   21.3180 C   0  0  0  0  0  0  0  0  0  0  0  0
  -29.3287  -26.0566   18.0048 C   0  0  0  0  0  0  0  0  0  0  0  0
  -23.8499  -29.2248   20.0340 C   0  0  0  0  0  0  0  0  0  0  0  0
  -28.1887  -26.1463   18.8262 C   0  0  0  0  0  0  0  0  0  0  0  0
  -23.4721  -29.2823   21.3831 C   0  0  0  0  0  0  0  0  0  0  0  0
  -18.9743  -19.7489   22.7146 C   0  0  0  0  0  0  0  0  0  0  0  0
  -27.0432  -13.3937   21.2202 C   0  0  0  0  0  0  0  0  0  0  0  0
  -21.4497  -28.0401   20.8568 C   0  0  0  0  0  0  0  0  0  0  0  0
  -29.0433  -12.1996   20.9100 C   0  0  0  0  0  0  0  0  0  0  0  0
  -30.3375   -9.8650   20.0996 C   0  0  0  0  0  0  0  0  0  0  0  0
  -29.9776  -12.2434   19.8753 C   0  0  0  0  0  0  0  0  0  0  0  0
  -22.8240  -13.5059   20.9301 C   0  0  0  0  0  0  0  0  0  0  0  0
  -20.6815  -13.0199   21.0211 C   0  0  0  0  0  0  0  0  0  0  0  0
  -18.8301  -25.5489   21.5409 C   0  0  0  0  0  0  0  0  0  0  0  0
  -18.1674  -23.4242   22.5891 C   0  0  0  0  0  0  0  0  0  0  0  0
  -22.1713  -11.2130   21.8952 C   0  0  0  0  0  0  0  0  0  0  0  0
  -26.8259  -28.7630   21.0507 C   0  0  0  0  0  0  0  0  0  0  0  0
  -26.2920  -31.5305   22.6565 C   0  0  0  0  0  0  0  0  0  0  0  0
  -24.0389  -33.6957   24.0285 C   0  0  0  0  0  0  0  0  0  0  0  0
  -18.6158  -18.6026   20.5002 C   0  0  0  0  0  0  0  0  0  0  0  0
  -30.6537  -26.6459   18.4195 C   0  0  0  0  0  0  0  0  0  0  0  0
  -25.1203  -29.8831   19.5700 C   0  0  0  0  0  0  0  0  0  0  0  0
  -24.3262  -29.9673   22.4173 C   0  0  0  0  0  0  0  0  0  0  0  0
  -30.5373  -27.6816   19.5349 C   0  0  0  0  0  0  0  0  0  0  0  0
  -18.5182  -16.0554   18.0144 C   0  0  0  0  0  0  0  0  0  0  0  0
  -29.6316  -27.1666   20.6491 C   0  0  0  0  0  0  0  0  0  0  0  0
  -19.5244  -15.0182   18.5184 C   0  0  0  0  0  0  0  0  0  0  0  0
  -21.1582  -25.2503   21.8209 C   0  0  0  0  0  0  0  0  0  0  0  0
  -18.9769  -17.4818   18.3120 C   0  0  0  0  0  0  0  0  0  0  0  0
  -20.5003  -23.8841   21.9756 C   0  0  0  0  0  0  0  0  0  0  0  0
  -20.3296  -16.7054   20.2190 C   0  0  0  0  0  0  0  0  0  0  0  0
  -28.2108  -26.9115   20.1316 C   0  0  1  0  0  0  0  0  0  0  0  0
  -20.1461  -26.0834   21.0354 C   0  0  2  0  0  0  0  0  0  1  0  0
  -26.1471  -30.0528   20.6855 C   0  0  1  0  0  0  0  0  0  0  0  0
  -19.8801  -15.2516   19.9998 C   0  0  2  0  0  0  0  0  0  0  0  0
  -23.9048  -35.8511   25.3066 C   0  0  0  0  0  0  0  0  0  0  0  0
  -27.1406  -30.0728   25.1991 C   0  0  0  0  0  0  0  0  0  0  0  0
  -26.0989  -31.9237   26.5247 C   0  0  0  0  0  0  0  0  0  0  0  0
  -28.0099  -32.4090   24.9965 C   0  0  0  0  0  0  0  0  0  0  0  0
  -22.5063  -35.0159   21.8682 C   0  0  0  0  0  0  0  0  0  0  0  0
  -25.7389  -31.8889   24.0146 C   0  0  1  0  0  0  0  0  0  0  0  0
  -23.9032  -35.2044   23.9302 C   0  0  2  0  0  0  0  0  0  0  0  0
  -26.7317  -31.5589   25.1648 C   0  0  0  0  0  0  0  0  0  0  0  0
  -22.2151  -14.5821   20.4251 N   0  0  0  0  0  0  0  0  0  0  0  0
  -20.9131  -14.2561   20.4936 N   0  0  0  0  0  0  0  0  0  0  0  0
  -19.0736  -24.2347   22.0723 N   0  0  0  0  0  0  0  0  0  0  0  0
  -25.5619  -30.5906   21.9153 N   0  0  0  0  0  0  0  0  0  0  0  0
  -19.2923  -17.6295   19.7345 N   0  0  0  0  0  0  0  0  0  0  0  0
  -19.4296  -12.5348   21.1622 N   0  0  0  0  0  0  0  0  0  0  0  0
  -23.5004  -10.8379   22.1346 N   0  0  0  0  0  0  0  0  0  0  0  0
  -18.9753  -18.6284   21.8474 N   0  0  0  0  0  0  0  0  0  0  0  0
  -27.4894  -28.1592   19.9998 N   0  0  0  0  0  0  0  0  0  0  0  0
  -25.3553  -33.2945   23.9412 N   0  0  0  0  0  0  0  0  0  0  0  0
  -16.8879  -23.7793   22.6609 N   0  3  0  0  0  0  0  0  0  0  0  0
  -22.6317  -35.5664   23.2423 N   0  3  0  0  0  0  0  0  0  0  0  0
  -17.7358  -26.0821   21.5233 O   0  0  0  0  0  0  0  0  0  0  0  0
  -21.2475  -10.4119   22.1748 O   0  0  0  0  0  0  0  0  0  0  0  0
  -26.7543  -28.3473   22.2013 O   0  0  0  0  0  0  0  0  0  0  0  0
  -27.3297  -32.0702   22.2646 O   0  0  0  0  0  0  0  0  0  0  0  0
  -23.0741  -32.9480   24.1724 O   0  0  0  0  0  0  0  0  0  0  0  0
  -17.7595  -19.3390   20.0038 O   0  0  0  0  0  0  0  0  0  0  0  0
  -28.4006  -13.3578   21.3140 O   0  0  0  0  0  0  0  0  0  0  0  0
  -20.2862  -27.4615   21.2609 O   0  0  0  0  0  0  0  0  0  1  0  0
  -30.9600   -8.7442   19.7116 F   0  0  0  0  0  0  0  0  0  0  0  0
  -30.2585  -13.4042   19.2674 F   0  0  0  0  0  0  0  0  0  0  0  0
  1  2  1  0  0  0  0
  1  7  2  0  0  0  0
  2  8  2  0  0  0  0
  3  6  2  0  0  0  0
  3 10  1  0  0  0  0
  4 11  2  0  0  0  0
  4 19  1  0  0  0  0
  5 12  1  0  0  0  0
  5 19  2  0  0  0  0
  6 20  1  0  0  0  0
  7 22  1  0  0  0  0
  8 24  1  0  0  0  0
  9 13  2  0  0  0  0
  9 23  1  0  0  0  0
 10 26  2  0  0  0  0
 11 27  1  0  0  0  0
 12 27  2  0  0  0  0
 13 28  1  0  0  0  0
 14 15  2  0  0  0  0
 14 29  1  0  0  0  0
 15 30  1  0  0  0  0
 16 20  2  0  0  0  0
 16 26  1  0  0  0  0
 17 25  1  0  0  0  0
 17 28  2  0  0  0  0
 18 30  2  0  0  0  0
 18 31  1  0  0  0  0
 19 32  1  0  0  0  0
 20 35  1  0  0  0  0
 21 32  1  0  0  0  0
 21 33  2  0  0  0  0
 21 36  1  0  0  0  0
 22 24  2  0  0  0  0
 22 41  1  0  0  0  0
 23 25  2  0  0  0  0
 23 42  1  0  0  0  0
 24 52  1  0  0  0  0
 25 43  1  0  0  0  0
 26 71  1  0  0  0  0
 27 82  1  0  0  0  0
 28 83  1  0  0  0  0
 29 31  2  0  0  0  0
 29 82  1  0  0  0  0
 30 84  1  0  0  0  0
 31 85  1  0  0  0  0
 32 64  2  0  0  0  0
 33 65  1  0  0  0  0
 33 69  1  0  0  0  0
 34 53  1  0  0  0  0
 34 66  1  0  0  0  0
 34 76  2  0  0  0  0
 35 66  1  0  0  0  0
 35 74  2  0  0  0  0
 36 70  1  0  0  0  0
 36 77  2  0  0  0  0
 37 54  1  0  0  0  0
 37 72  1  0  0  0  0
 37 78  2  0  0  0  0
 38 61  1  0  0  0  0
 38 67  1  0  0  0  0
 38 79  2  0  0  0  0
 39 62  1  0  0  0  0
 39 73  1  0  0  0  0
 39 80  2  0  0  0  0
 40 68  1  0  0  0  0
 40 71  1  0  0  0  0
 40 81  2  0  0  0  0
 41 44  1  0  0  0  0
 42 54  1  0  0  0  0
 43 67  1  0  0  0  0
 44 46  1  0  0  0  0
 45 47  1  0  0  0  0
 45 49  1  0  0  0  0
 46 52  1  0  0  0  0
 47 55  1  0  0  0  0
 48 50  1  0  0  0  0
 48 53  1  0  0  0  0
 49 68  1  0  0  0  0
 50 66  1  0  0  0  0
 51 55  1  0  0  0  0
 51 68  1  0  0  0  0
 52 72  1  0  0  0  0
 53 83  1  0  0  0  0
 54 67  1  0  0  0  0
 55 65  1  0  0  0  0
 56 62  1  0  0  0  0
 57 63  1  0  0  0  0
 58 63  1  0  0  0  0
 59 63  1  0  0  0  0
 60 75  1  0  0  0  0
 61 63  1  0  0  0  0
 61 73  1  0  0  0  0
 62 75  1  0  0  0  0
 64 65  1  0  0  0  0
M  CHG  2  74   1  75   1
M  ISO  4  40 100  53 101  71 100  83 101
M  END
> <Batch ID>
0158

> <Smiles>
CNC(C)C(=O)NC(C(=O)N1Cc2cc([101O:1][101CH:1]3CCN(C(=N)c4cccc([100NH:0][100C:0](=O)N5CCCC(n6nc(-c7ccc(Oc8ccc(F)cc8F)cc7)c(C(N)=O)c6N)C5)c4)C3=O)ccc2CC1C(=O)NC1CCCc2ccccc21)C(C)(C)C

> <Shape>
0.278

> <Color>
0.077

> <Negative vol penalty>
0.000

$$$$

  -OEChem-04052303443D

 86 95  0     1  0  0  0  0  0999 V2000
  -27.1934  -25.2770   15.7144 C   0  0  0  0  0  0  0  0  0  0  0  0
  -26.0501  -25.4924   16.4772 C   0  0  0  0  0  0  0  0  0  0  0  0
  -26.9807  -14.9032   19.1950 C   0  0  0  0  0  0  0  0  0  0  0  0
  -24.6278  -15.0856   19.7125 C   0  0  0  0  0  0  0  0  0  0  0  0
  -28.4474  -25.5933   16.2353 C   0  0  0  0  0  0  0  0  0  0  0  0
  -26.1602  -26.0234   17.7618 C   0  0  0  0  0  0  0  0  0  0  0  0
  -22.7593  -29.6675   18.6560 C   0  0  0  0  0  0  0  0  0  0  0  0
  -27.0122  -13.6392   19.7839 C   0  0  0  0  0  0  0  0  0  0  0  0
  -24.6593  -13.8216   20.3014 C   0  0  0  0  0  0  0  0  0  0  0  0
  -21.4553  -29.2652   18.9419 C   0  0  0  0  0  0  0  0  0  0  0  0
  -24.6430  -10.5995   19.2822 C   0  0  0  0  0  0  0  0  0  0  0  0
  -23.6095   -9.7157   18.9719 C   0  0  0  0  0  0  0  0  0  0  0  0
  -21.8764  -29.5930   21.2944 C   0  0  0  0  0  0  0  0  0  0  0  0
  -19.5281  -22.6496   20.9220 C   0  0  0  0  0  0  0  0  0  0  0  0
  -23.0018   -9.6062   21.3077 C   0  0  0  0  0  0  0  0  0  0  0  0
  -19.1901  -20.9311   19.3940 C   0  0  0  0  0  0  0  0  0  0  0  0
  -25.7885  -15.6264   19.1593 C   0  0  0  0  0  0  0  0  0  0  0  0
  -26.0628  -17.2569   17.2166 C   0  0  0  0  0  0  0  0  0  0  0  0
  -28.5722  -26.1375   17.5233 C   0  0  0  0  0  0  0  0  0  0  0  0
  -23.6364  -30.0257   19.6897 C   0  0  0  0  0  0  0  0  0  0  0  0
  -27.4172  -26.3461   18.3010 C   0  0  0  0  0  0  0  0  0  0  0  0
  -23.1902  -30.0019   21.0188 C   0  0  0  0  0  0  0  0  0  0  0  0
  -20.1236  -21.7473   19.9939 C   0  0  0  0  0  0  0  0  0  0  0  0
  -25.8516  -13.0983   20.3371 C   0  0  0  0  0  0  0  0  0  0  0  0
  -21.0146  -29.2251   20.2614 C   0  0  0  0  0  0  0  0  0  0  0  0
  -24.8560  -10.9867   20.6053 C   0  0  0  0  0  0  0  0  0  0  0  0
  -22.7889   -9.2191   19.9846 C   0  0  0  0  0  0  0  0  0  0  0  0
  -24.0353  -10.4901   21.6180 C   0  0  0  0  0  0  0  0  0  0  0  0
  -25.7554  -16.9324   18.5515 C   0  0  0  0  0  0  0  0  0  0  0  0
  -18.1618  -22.4888   20.9959 C   0  0  0  0  0  0  0  0  0  0  0  0
  -25.8793  -18.6161   17.1426 C   0  0  0  0  0  0  0  0  0  0  0  0
  -26.4771  -16.4058   16.1397 C   0  0  0  0  0  0  0  0  0  0  0  0
  -17.2797  -23.2851   21.8676 C   0  0  0  0  0  0  0  0  0  0  0  0
  -26.4097  -28.9067   20.7670 C   0  0  0  0  0  0  0  0  0  0  0  0
  -26.2825  -31.5288   22.6725 C   0  0  0  0  0  0  0  0  0  0  0  0
  -24.3740  -33.9095   24.2011 C   0  0  0  0  0  0  0  0  0  0  0  0
  -22.5261  -22.4581   20.2570 C   0  0  0  0  0  0  0  0  0  0  0  0
  -29.9526  -26.4195   18.0616 C   0  0  0  0  0  0  0  0  0  0  0  0
  -25.0316  -30.4829   19.3627 C   0  0  0  0  0  0  0  0  0  0  0  0
  -24.0863  -30.3961   22.1634 C   0  0  0  0  0  0  0  0  0  0  0  0
  -29.9541  -27.3278   19.2884 C   0  0  0  0  0  0  0  0  0  0  0  0
  -26.0599  -22.5713   19.8368 C   0  0  0  0  0  0  0  0  0  0  0  0
  -28.9015  -26.8699   20.2930 C   0  0  0  0  0  0  0  0  0  0  0  0
  -26.4100  -21.1695   19.3322 C   0  0  0  0  0  0  0  0  0  0  0  0
  -18.0862  -26.4931   22.9865 C   0  0  0  0  0  0  0  0  0  0  0  0
  -18.5921  -26.2271   20.5192 C   0  0  0  0  0  0  0  0  0  0  0  0
  -24.9334  -22.5378   20.8681 C   0  0  0  0  0  0  0  0  0  0  0  0
  -16.9426  -25.4937   22.8529 C   0  0  0  0  0  0  0  0  0  0  0  0
  -17.4464  -25.2286   20.3986 C   0  0  0  0  0  0  0  0  0  0  0  0
  -24.0709  -20.4269   19.9357 C   0  0  0  0  0  0  0  0  0  0  0  0
  -27.4938  -26.9435   19.6893 C   0  0  1  0  0  0  0  0  0  0  0  0
  -25.9992  -30.3329   20.5326 C   0  0  1  0  0  0  0  0  0  0  0  0
  -25.1563  -20.4158   18.8469 C   0  0  2  0  0  0  0  0  0  0  0  0
  -18.3560  -27.2204   21.6636 C   0  0  0  0  0  0  0  0  0  0  0  0
  -24.5496  -35.8961   25.7242 C   0  0  0  0  0  0  0  0  0  0  0  0
  -26.6910  -29.6644   25.0531 C   0  0  0  0  0  0  0  0  0  0  0  0
  -25.9179  -31.5177   26.5483 C   0  0  0  0  0  0  0  0  0  0  0  0
  -27.9782  -31.8053   25.1718 C   0  0  0  0  0  0  0  0  0  0  0  0
  -23.2449  -35.7246   22.1543 C   0  0  0  0  0  0  0  0  0  0  0  0
  -19.5244  -28.1896   21.7986 C   0  0  0  0  0  0  0  0  0  1  0  0
  -25.7178  -31.8304   24.0397 C   0  0  1  0  0  0  0  0  0  0  0  0
  -24.5190  -35.4185   24.2807 C   0  0  2  0  0  0  0  0  0  0  0  0
  -26.5597  -31.1951   25.1820 C   0  0  0  0  0  0  0  0  0  0  0  0
  -25.4034  -17.9995   19.2736 N   0  0  0  0  0  0  0  0  0  0  0  0
  -25.4887  -19.0079   18.3893 N   0  0  0  0  0  0  0  0  0  0  0  0
  -17.2287  -24.6010   21.7149 N   0  0  0  0  0  0  0  0  0  0  0  0
  -25.4435  -30.8300   21.7929 N   0  0  0  0  0  0  0  0  0  0  0  0
  -23.7777  -21.8117   20.3372 N   0  0  0  0  0  0  0  0  0  0  0  0
  -26.0157  -19.5024   16.1335 N   0  0  0  0  0  0  0  0  0  0  0  0
  -25.4919  -15.8331   15.3238 N   0  0  0  0  0  0  0  0  0  0  0  0
  -21.5092  -21.6794   19.7055 N   0  0  0  0  0  0  0  0  0  0  0  0
  -27.0190  -28.3106   19.6794 N   0  0  0  0  0  0  0  0  0  0  0  0
  -25.5993  -33.2822   24.1211 N   0  0  0  0  0  0  0  0  0  0  0  0
  -16.5474  -22.6711   22.7922 N   0  3  0  0  0  0  0  0  0  0  0  0
  -23.3798  -36.0855   23.5890 N   0  3  0  0  0  0  0  0  0  0  0  0
  -27.6844  -16.1473   15.9181 O   0  0  0  0  0  0  0  0  0  0  0  0
  -26.1913  -28.3861   21.8547 O   0  0  0  0  0  0  0  0  0  0  0  0
  -27.4232  -31.9057   22.3928 O   0  0  0  0  0  0  0  0  0  0  0  0
  -23.2830  -33.3436   24.2127 O   0  0  0  0  0  0  0  0  0  0  0  0
  -22.3743  -23.6263   20.6236 O   0  0  0  0  0  0  0  0  0  0  0  0
  -25.8820  -11.8648   20.9117 O   0  0  0  0  0  0  0  0  0  0  0  0
  -19.7426  -28.8323   20.5433 O   0  0  0  0  0  0  0  0  0  1  0  0
  -21.7955   -8.3715   19.6863 F   0  0  0  0  0  0  0  0  0  0  0  0
  -24.2343  -10.8593   22.8908 F   0  0  0  0  0  0  0  0  0  0  0  0
  -17.2491  -27.9608   21.3570 F   0  0  0  0  0  0  0  0  0  0  0  0
  -17.6028  -21.2539   19.9496 S   0  0  0  0  0  0  0  0  0  0  0  0
  1  2  1  0  0  0  0
  1  5  2  0  0  0  0
  2  6  2  0  0  0  0
  3  8  2  0  0  0  0
  3 17  1  0  0  0  0
  4  9  1  0  0  0  0
  4 17  2  0  0  0  0
  5 19  1  0  0  0  0
  6 21  1  0  0  0  0
  7 10  2  0  0  0  0
  7 20  1  0  0  0  0
  8 24  1  0  0  0  0
  9 24  2  0  0  0  0
 10 25  1  0  0  0  0
 11 12  2  0  0  0  0
 11 26  1  0  0  0  0
 12 27  1  0  0  0  0
 13 22  1  0  0  0  0
 13 25  2  0  0  0  0
 14 23  1  0  0  0  0
 14 30  2  0  0  0  0
 15 27  2  0  0  0  0
 15 28  1  0  0  0  0
 16 23  2  0  0  0  0
 16 86  1  0  0  0  0
 17 29  1  0  0  0  0
 18 29  1  0  0  0  0
 18 31  2  0  0  0  0
 18 32  1  0  0  0  0
 19 21  2  0  0  0  0
 19 38  1  0  0  0  0
 20 22  2  0  0  0  0
 20 39  1  0  0  0  0
 21 51  1  0  0  0  0
 22 40  1  0  0  0  0
 23 71  1  0  0  0  0
 24 81  1  0  0  0  0
 25 82  1  0  0  0  0
 26 28  2  0  0  0  0
 26 81  1  0  0  0  0
 27 83  1  0  0  0  0
 28 84  1  0  0  0  0
 29 64  2  0  0  0  0
 30 33  1  0  0  0  0
 30 86  1  0  0  0  0
 31 65  1  0  0  0  0
 31 69  1  0  0  0  0
 32 70  1  0  0  0  0
 32 76  2  0  0  0  0
 33 66  1  0  0  0  0
 33 74  2  0  0  0  0
 34 52  1  0  0  0  0
 34 72  1  0  0  0  0
 34 77  2  0  0  0  0
 35 61  1  0  0  0  0
 35 67  1  0  0  0  0
 35 78  2  0  0  0  0
 36 62  1  0  0  0  0
 36 73  1  0  0  0  0
 36 79  2  0  0  0  0
 37 68  1  0  0  0  0
 37 71  1  0  0  0  0
 37 80  2  0  0  0  0
 38 41  1  0  0  0  0
 39 52  1  0  0  0  0
 40 67  1  0  0  0  0
 41 43  1  0  0  0  0
 42 44  1  0  0  0  0
 42 47  1  0  0  0  0
 43 51  1  0  0  0  0
 44 53  1  0  0  0  0
 45 48  1  0  0  0  0
 45 54  1  0  0  0  0
 46 49  1  0  0  0  0
 46 54  1  0  0  0  0
 47 68  1  0  0  0  0
 48 66  1  0  0  0  0
 49 66  1  0  0  0  0
 50 53  1  0  0  0  0
 50 68  1  0  0  0  0
 51 72  1  0  0  0  0
 52 67  1  0  0  0  0
 53 65  1  0  0  0  0
 54 60  1  0  0  0  0
 54 85  1  0  0  0  0
 55 62  1  0  0  0  0
 56 63  1  0  0  0  0
 57 63  1  0  0  0  0
 58 63  1  0  0  0  0
 59 75  1  0  0  0  0
 60 82  1  0  0  0  0
 61 63  1  0  0  0  0
 61 73  1  0  0  0  0
 62 75  1  0  0  0  0
 64 65  1  0  0  0  0
M  CHG  2  74   1  75   1
M  ISO  4  37 100  60 101  71 100  82 101
M  END
> <Batch ID>
0158

> <Smiles>
CNC(C)C(=O)NC(C(=O)N1Cc2cc([101O:1][101CH2:1]C3(F)CCN(C(=N)c4cc([100NH:0][100C:0](=O)N5CCCC(n6nc(-c7ccc(Oc8ccc(F)cc8F)cc7)c(C(N)=O)c6N)C5)cs4)CC3)ccc2CC1C(=O)NC1CCCc2ccccc21)C(C)(C)C

> <Shape>
0.257

> <Color>
0.067

> <Negative vol penalty>
0.000

$$$$

  -OEChem-04052303443D

 82 90  0     1  0  0  0  0  0999 V2000
  -16.3683  -28.8352   23.5168 C   0  0  0  0  0  0  0  0  0  0  0  0
  -17.4459  -27.9685   23.6679 C   0  0  0  0  0  0  0  0  0  0  0  0
  -22.9350  -10.3901   21.1814 C   0  0  0  0  0  0  0  0  0  0  0  0
  -24.6644   -8.9310   22.0283 C   0  0  0  0  0  0  0  0  0  0  0  0
  -16.5929  -30.1970   23.3189 C   0  0  0  0  0  0  0  0  0  0  0  0
  -18.7489  -28.4628   23.6200 C   0  0  0  0  0  0  0  0  0  0  0  0
  -21.6811  -26.5692   27.2889 C   0  0  0  0  0  0  0  0  0  0  0  0
  -22.0941   -9.2913   21.0052 C   0  0  0  0  0  0  0  0  0  0  0  0
  -23.8235   -7.8321   21.8521 C   0  0  0  0  0  0  0  0  0  0  0  0
  -22.1725  -25.2770   27.1081 C   0  0  0  0  0  0  0  0  0  0  0  0
  -21.2138   -6.4114   23.4620 C   0  0  0  0  0  0  0  0  0  0  0  0
  -21.1409   -5.4804   24.4981 C   0  0  0  0  0  0  0  0  0  0  0  0
  -26.1029  -18.7668   22.2362 C   0  0  0  0  0  0  0  0  0  0  0  0
  -25.5127  -19.6616   23.1749 C   0  0  0  0  0  0  0  0  0  0  0  0
  -24.2892  -26.1881   26.3952 C   0  0  0  0  0  0  0  0  0  0  0  0
  -21.9313   -3.7549   23.0031 C   0  0  0  0  0  0  0  0  0  0  0  0
  -24.2201  -10.2100   21.6929 C   0  0  0  0  0  0  0  0  0  0  0  0
  -25.2070  -12.1502   23.0231 C   0  0  0  0  0  0  0  0  0  0  0  0
  -17.8990  -30.7097   23.2782 C   0  0  0  0  0  0  0  0  0  0  0  0
  -22.4880  -27.6825   27.0133 C   0  0  0  0  0  0  0  0  0  0  0  0
  -18.9912  -29.8325   23.4200 C   0  0  0  0  0  0  0  0  0  0  0  0
  -23.8066  -27.4933   26.5757 C   0  0  0  0  0  0  0  0  0  0  0  0
  -22.5383   -8.0123   21.3406 C   0  0  0  0  0  0  0  0  0  0  0  0
  -23.4757  -25.0863   26.6584 C   0  0  0  0  0  0  0  0  0  0  0  0
  -21.6454   -6.0141   22.1964 C   0  0  0  0  0  0  0  0  0  0  0  0
  -21.4997   -4.1521   24.2687 C   0  0  0  0  0  0  0  0  0  0  0  0
  -22.0042   -4.6859   21.9670 C   0  0  0  0  0  0  0  0  0  0  0  0
  -25.0895  -11.3446   21.8746 C   0  0  0  0  0  0  0  0  0  0  0  0
  -27.1414  -19.3520   21.5459 C   0  0  0  0  0  0  0  0  0  0  0  0
  -26.1583  -13.0838   22.6917 C   0  0  0  0  0  0  0  0  0  0  0  0
  -26.1230  -20.8967   23.1664 C   0  0  0  0  0  0  0  0  0  0  0  0
  -24.5180  -12.0622   24.2773 C   0  0  0  0  0  0  0  0  0  0  0  0
  -28.0082  -18.7648   20.4919 C   0  0  0  0  0  0  0  0  0  0  0  0
  -22.3295  -30.1188   24.9779 C   0  0  0  0  0  0  0  0  0  0  0  0
  -24.9357  -31.1474   26.6124 C   0  0  0  0  0  0  0  0  0  0  0  0
  -24.8857  -22.2407   24.8975 C   0  0  0  0  0  0  0  0  0  0  0  0
  -27.6185  -30.3702   28.5734 C   0  0  0  0  0  0  0  0  0  0  0  0
  -28.3998  -16.7167   19.1595 C   0  0  0  0  0  0  0  0  0  0  0  0
  -18.0931  -32.1820   23.0148 C   0  0  0  0  0  0  0  0  0  0  0  0
  -21.9519  -29.0696   27.2390 C   0  0  0  0  0  0  0  0  0  0  0  0
  -24.7201  -28.6550   26.2851 C   0  0  0  0  0  0  0  0  0  0  0  0
  -19.4959  -32.6812   23.3510 C   0  0  0  0  0  0  0  0  0  0  0  0
  -29.3001  -13.3257   18.7263 C   0  0  0  0  0  0  0  0  0  0  0  0
  -20.5494  -31.7339   22.7858 C   0  0  0  0  0  0  0  0  0  0  0  0
  -28.3004  -12.5713   19.6072 C   0  0  0  0  0  0  0  0  0  0  0  0
  -28.6535  -14.5235   18.0320 C   0  0  0  0  0  0  0  0  0  0  0  0
  -26.9473  -14.6966   19.7974 C   0  0  0  0  0  0  0  0  0  0  0  0
  -20.4187  -30.3344   23.3989 C   0  0  1  0  0  0  0  0  0  0  0  0
  -22.6925  -30.1344   26.4358 C   0  0  1  0  0  0  0  0  0  0  0  0
  -27.5671  -13.5232   20.5734 C   0  0  1  0  0  0  0  0  0  0  0  0
  -29.5894  -31.4177   29.7205 C   0  0  0  0  0  0  0  0  0  0  0  0
  -26.3730  -31.3743   23.9305 C   0  0  0  0  0  0  0  0  0  0  0  0
  -28.5394  -31.4891   25.1802 C   0  0  0  0  0  0  0  0  0  0  0  0
  -26.8141  -33.2597   25.5132 C   0  0  0  0  0  0  0  0  0  0  0  0
  -26.6677  -29.5138   31.2420 C   0  0  0  0  0  0  0  0  0  0  0  0
  -24.9461  -23.6458   25.4673 C   0  0  0  0  0  0  0  0  0  1  0  0
  -26.4269  -30.9548   26.4775 C   0  0  1  0  0  0  0  0  0  0  0  0
  -28.1378  -30.9861   29.8600 C   0  0  2  0  0  0  0  0  0  0  0  0
  -27.0208  -31.7474   25.2789 C   0  0  0  0  0  0  0  0  0  0  0  0
  -25.9010  -11.7327   20.8873 N   0  0  0  0  0  0  0  0  0  0  0  0
  -26.5376  -12.7924   21.4144 N   0  0  0  0  0  0  0  0  0  0  0  0
  -24.1477  -29.9918   26.5151 N   0  0  0  0  0  0  0  0  0  0  0  0
  -27.9891  -15.3799   19.0161 N   0  0  0  0  0  0  0  0  0  0  0  0
  -26.6988  -14.1176   23.3711 N   0  0  0  0  0  0  0  0  0  0  0  0
  -23.5721  -11.0426   24.4500 N   0  0  0  0  0  0  0  0  0  0  0  0
  -25.8627  -22.0634   23.9238 N   0  0  0  0  0  0  0  0  0  0  0  0
  -27.7328  -17.4393   20.1550 N   0  0  0  0  0  0  0  0  0  0  0  0
  -20.9836  -30.3114   24.7311 N   0  0  0  0  0  0  0  0  0  0  0  0
  -27.0027  -31.3072   27.7708 N   0  0  0  0  0  0  0  0  0  0  0  0
  -28.0446  -30.0054   30.9783 N   0  3  0  0  0  0  0  0  0  0  0  0
  -24.7229  -12.8742   25.2113 O   0  0  0  0  0  0  0  0  0  0  0  0
  -28.8659  -19.4669   19.9632 O   0  0  0  0  0  0  0  0  0  0  0  0
  -23.2058  -29.9463   24.1388 O   0  0  0  0  0  0  0  0  0  0  0  0
  -24.4872  -32.2803   26.8044 O   0  0  0  0  0  0  0  0  0  0  0  0
  -24.0596  -21.4233   25.2899 O   0  0  0  0  0  0  0  0  0  0  0  0
  -27.7496  -29.1780   28.3053 O   0  0  0  0  0  0  0  0  0  0  0  0
  -29.3081  -17.2134   18.4860 O   0  0  0  0  0  0  0  0  0  0  0  0
  -21.7179   -6.9398   21.1690 O   0  0  0  0  0  0  0  0  0  0  0  0
  -23.9576  -23.8261   26.4805 O   0  0  0  0  0  0  0  0  0  1  0  0
  -21.4311   -3.2585   25.2641 F   0  0  0  0  0  0  0  0  0  0  0  0
  -22.4207   -4.2986   20.7536 F   0  0  0  0  0  0  0  0  0  0  0  0
  -27.4016  -20.9738   22.0300 S   0  0  0  0  0  0  0  0  0  0  0  0
  1  2  1  0  0  0  0
  1  5  2  0  0  0  0
  2  6  2  0  0  0  0
  3  8  2  0  0  0  0
  3 17  1  0  0  0  0
  4  9  1  0  0  0  0
  4 17  2  0  0  0  0
  5 19  1  0  0  0  0
  6 21  1  0  0  0  0
  7 10  2  0  0  0  0
  7 20  1  0  0  0  0
  8 23  1  0  0  0  0
  9 23  2  0  0  0  0
 10 24  1  0  0  0  0
 11 12  2  0  0  0  0
 11 25  1  0  0  0  0
 12 26  1  0  0  0  0
 13 14  1  0  0  0  0
 13 29  2  0  0  0  0
 14 31  2  0  0  0  0
 15 22  1  0  0  0  0
 15 24  2  0  0  0  0
 16 26  2  0  0  0  0
 16 27  1  0  0  0  0
 17 28  1  0  0  0  0
 18 28  1  0  0  0  0
 18 30  2  0  0  0  0
 18 32  1  0  0  0  0
 19 21  2  0  0  0  0
 19 39  1  0  0  0  0
 20 22  2  0  0  0  0
 20 40  1  0  0  0  0
 21 48  1  0  0  0  0
 22 41  1  0  0  0  0
 23 78  1  0  0  0  0
 24 79  1  0  0  0  0
 25 27  2  0  0  0  0
 25 78  1  0  0  0  0
 26 80  1  0  0  0  0
 27 81  1  0  0  0  0
 28 60  2  0  0  0  0
 29 33  1  0  0  0  0
 29 82  1  0  0  0  0
 30 61  1  0  0  0  0
 30 64  1  0  0  0  0
 31 66  1  0  0  0  0
 31 82  1  0  0  0  0
 32 65  1  0  0  0  0
 32 71  2  0  0  0  0
 33 67  1  0  0  0  0
 33 72  2  0  0  0  0
 34 49  1  0  0  0  0
 34 68  1  0  0  0  0
 34 73  2  0  0  0  0
 35 57  1  0  0  0  0
 35 62  1  0  0  0  0
 35 74  2  0  0  0  0
 36 56  1  0  0  0  0
 36 66  1  0  0  0  0
 36 75  2  0  0  0  0
 37 58  1  0  0  0  0
 37 69  1  0  0  0  0
 37 76  2  0  0  0  0
 38 63  1  0  0  0  0
 38 67  1  0  0  0  0
 38 77  2  0  0  0  0
 39 42  1  0  0  0  0
 40 49  1  0  0  0  0
 41 62  1  0  0  0  0
 42 44  1  0  0  0  0
 43 45  1  0  0  0  0
 43 46  1  0  0  0  0
 44 48  1  0  0  0  0
 45 50  1  0  0  0  0
 46 63  1  0  0  0  0
 47 50  1  0  0  0  0
 47 63  1  0  0  0  0
 48 68  1  0  0  0  0
 49 62  1  0  0  0  0
 50 61  1  0  0  0  0
 51 58  1  0  0  0  0
 52 59  1  0  0  0  0
 53 59  1  0  0  0  0
 54 59  1  0  0  0  0
 55 70  1  0  0  0  0
 56 79  1  0  0  0  0
 57 59  1  0  0  0  0
 57 69  1  0  0  0  0
 58 70  1  0  0  0  0
 60 61  1  0  0  0  0
M  CHG  1  70   1
M  ISO  4  38 100  56 101  67 100  79 101
M  END
> <Batch ID>
0158

> <Smiles>
CNC(C)C(=O)NC(C(=O)N1Cc2cc([101O:1][101CH2:1]C(=O)Nc3ccc(C(=O)[100NH:0][100C:0](=O)N4CCCC(n5nc(-c6ccc(Oc7ccc(F)cc7F)cc6)c(C(N)=O)c5N)C4)s3)ccc2CC1C(=O)NC1CCCc2ccccc21)C(C)(C)C

> <Shape>
0.237

> <Color>
0.110

> <Negative vol penalty>
0.000

$$$$

  -OEChem-04052303443D

 88 97  0     1  0  0  0  0  0999 V2000
  -31.7377  -34.5733   22.6053 C   0  0  0  0  0  0  0  0  0  0  0  0
  -31.4469  -33.3667   21.9769 C   0  0  0  0  0  0  0  0  0  0  0  0
  -23.9688   -8.2466   20.6387 C   0  0  0  0  0  0  0  0  0  0  0  0
  -23.7085  -10.6328   20.9133 C   0  0  0  0  0  0  0  0  0  0  0  0
  -31.0173  -34.9615   23.7341 C   0  0  0  0  0  0  0  0  0  0  0  0
  -30.4360  -32.5470   22.4776 C   0  0  0  0  0  0  0  0  0  0  0  0
  -26.6326  -28.9997   19.2440 C   0  0  0  0  0  0  0  0  0  0  0  0
  -22.8599   -8.0315   21.4571 C   0  0  0  0  0  0  0  0  0  0  0  0
  -22.5995  -10.4177   21.7317 C   0  0  0  0  0  0  0  0  0  0  0  0
  -26.6438  -27.6371   18.9491 C   0  0  0  0  0  0  0  0  0  0  0  0
  -19.4928   -8.1506   21.1717 C   0  0  0  0  0  0  0  0  0  0  0  0
  -18.5492   -7.2133   20.7514 C   0  0  0  0  0  0  0  0  0  0  0  0
  -25.1555  -27.2298   20.8034 C   0  0  0  0  0  0  0  0  0  0  0  0
  -30.0946  -17.1585   20.2437 C   0  0  0  0  0  0  0  0  0  0  0  0
  -28.0248  -17.0064   19.0071 C   0  0  0  0  0  0  0  0  0  0  0  0
  -18.9338   -5.9259   22.7594 C   0  0  0  0  0  0  0  0  0  0  0  0
  -24.3931   -9.5473   20.3669 C   0  0  0  0  0  0  0  0  0  0  0  0
  -25.6957   -9.3740   18.1804 C   0  0  0  0  0  0  0  0  0  0  0  0
  -29.9906  -34.1507   24.2432 C   0  0  0  0  0  0  0  0  0  0  0  0
  -25.8902  -29.4870   20.3293 C   0  0  0  0  0  0  0  0  0  0  0  0
  -29.7020  -32.9241   23.6150 C   0  0  0  0  0  0  0  0  0  0  0  0
  -25.1345  -28.5993   21.1084 C   0  0  0  0  0  0  0  0  0  0  0  0
  -28.7720  -19.1423   19.8536 C   0  0  0  0  0  0  0  0  0  0  0  0
  -29.1556  -16.3958   19.5494 C   0  0  0  0  0  0  0  0  0  0  0  0
  -29.9028  -18.5317   20.3959 C   0  0  0  0  0  0  0  0  0  0  0  0
  -22.1753   -9.1169   22.0035 C   0  0  0  0  0  0  0  0  0  0  0  0
  -25.9075  -26.7515   19.7306 C   0  0  0  0  0  0  0  0  0  0  0  0
  -20.1570   -7.9755   22.3857 C   0  0  0  0  0  0  0  0  0  0  0  0
  -18.2696   -6.1010   21.5453 C   0  0  0  0  0  0  0  0  0  0  0  0
  -27.8329  -18.3796   19.1592 C   0  0  0  0  0  0  0  0  0  0  0  0
  -19.8775   -6.8632   23.1796 C   0  0  0  0  0  0  0  0  0  0  0  0
  -25.5388   -9.7703   19.5221 C   0  0  0  0  0  0  0  0  0  0  0  0
  -26.9483   -9.8192   17.8351 C   0  0  0  0  0  0  0  0  0  0  0  0
  -27.2948  -22.2386   21.5129 C   0  0  0  0  0  0  0  0  0  0  0  0
  -24.7901   -8.6667   17.3229 C   0  0  0  0  0  0  0  0  0  0  0  0
  -26.5986  -31.0059   23.0302 C   0  0  0  0  0  0  0  0  0  0  0  0
  -23.3725  -31.1673   23.3286 C   0  0  0  0  0  0  0  0  0  0  0  0
  -20.3199  -29.8728   22.5209 C   0  0  0  0  0  0  0  0  0  0  0  0
  -30.4155  -14.2385   19.8732 C   0  0  0  0  0  0  0  0  0  0  0  0
  -29.2710  -34.5901   25.4937 C   0  0  0  0  0  0  0  0  0  0  0  0
  -25.8672  -30.9630   20.6178 C   0  0  0  0  0  0  0  0  0  0  0  0
  -24.3048  -29.0744   22.2722 C   0  0  0  0  0  0  0  0  0  0  0  0
  -27.2445  -20.9131   20.7861 C   0  0  0  0  0  0  0  0  0  0  0  0
  -27.9640  -33.8407   25.7396 C   0  0  0  0  0  0  0  0  0  0  0  0
  -31.2381  -10.7770   19.7363 C   0  0  0  0  0  0  0  0  0  0  0  0
  -28.5472  -21.3077   18.6178 C   0  0  0  0  0  0  0  0  0  0  0  0
  -28.1649  -32.3406   25.5496 C   0  0  0  0  0  0  0  0  0  0  0  0
  -29.8849  -10.0904   19.5376 C   0  0  0  0  0  0  0  0  0  0  0  0
  -28.5301  -22.8372   18.6401 C   0  0  0  0  0  0  0  0  0  0  0  0
  -31.1284  -11.9908   20.6573 C   0  0  0  0  0  0  0  0  0  0  0  0
  -28.7534  -12.2858   20.0730 C   0  0  0  0  0  0  0  0  0  0  0  0
  -28.5402  -20.6401   20.0053 C   0  0  2  0  0  0  0  0  0  0  0  0
  -28.5961  -32.0193   24.1135 C   0  0  1  0  0  0  0  0  0  0  0  0
  -25.4858  -31.2841   22.0596 C   0  0  1  0  0  0  0  0  0  0  0  0
  -28.8015  -11.0958   19.1007 C   0  0  2  0  0  0  0  0  0  0  0  0
  -27.2716  -23.4376   19.2783 C   0  0  2  0  0  0  0  0  0  0  0  0
  -17.8680  -30.1953   22.9474 C   0  0  0  0  0  0  0  0  0  0  0  0
  -23.6907  -29.9131   26.0919 C   0  0  0  0  0  0  0  0  0  0  0  0
  -21.2419  -29.3931   26.0612 C   0  0  0  0  0  0  0  0  0  0  0  0
  -22.0130  -31.7639   25.9732 C   0  0  0  0  0  0  0  0  0  0  0  0
  -19.7690  -30.3729   19.6564 C   0  0  0  0  0  0  0  0  0  0  0  0
  -27.0997  -24.8940   18.8451 C   0  0  0  0  0  0  0  0  0  1  0  0
  -22.3103  -30.2876   23.9424 C   0  0  1  0  0  0  0  0  0  0  0  0
  -19.0407  -30.5338   22.0402 C   0  0  2  0  0  0  0  0  0  0  0  0
  -22.3310  -30.3299   25.4965 C   0  0  0  0  0  0  0  0  0  0  0  0
  -26.6065  -10.4173   19.9968 N   0  0  0  0  0  0  0  0  0  0  0  0
  -27.4463  -10.4310   18.9477 N   0  0  0  0  0  0  0  0  0  0  0  0
  -27.3309  -23.3720   20.7371 N   0  0  0  0  0  0  0  0  0  0  0  0
  -24.3199  -30.5259   22.5181 N   0  0  0  0  0  0  0  0  0  0  0  0
  -30.0856  -12.9011   20.1789 N   0  0  0  0  0  0  0  0  0  0  0  0
  -30.8644  -19.2883   21.1015 N   0  0  0  0  0  0  0  0  0  0  0  0
  -27.6614   -9.7430   16.6914 N   0  0  0  0  0  0  0  0  0  0  0  0
  -23.8850   -9.4075   16.5506 N   0  0  0  0  0  0  0  0  0  0  0  0
  -29.3496  -15.0006   19.3961 N   0  0  0  0  0  0  0  0  0  0  0  0
  -27.4583  -32.0708   23.2206 N   0  0  0  0  0  0  0  0  0  0  0  0
  -21.0436  -30.7034   23.3501 N   0  0  0  0  0  0  0  0  0  0  0  0
  -18.7117  -30.0820   20.6586 N   0  3  0  0  0  0  0  0  0  0  0  0
  -27.3053  -22.2840   22.7444 O   0  0  0  0  0  0  0  0  0  0  0  0
  -24.7726   -7.4142   17.2561 O   0  0  0  0  0  0  0  0  0  0  0  0
  -26.6709  -29.9070   23.5676 O   0  0  0  0  0  0  0  0  0  0  0  0
  -23.3579  -32.3800   23.5540 O   0  0  0  0  0  0  0  0  0  0  0  0
  -20.6429  -28.7322   22.1965 O   0  0  0  0  0  0  0  0  0  0  0  0
  -31.5653  -14.6680   19.9977 O   0  0  0  0  0  0  0  0  0  0  0  0
  -21.0931   -8.9073   22.8019 O   0  0  0  0  0  0  0  0  0  0  0  0
  -25.9172  -25.4209   19.4454 O   0  0  0  0  0  0  0  0  0  1  0  0
  -17.3623   -5.2018   21.1423 F   0  0  0  0  0  0  0  0  0  0  0  0
  -26.7432  -18.9568   18.6335 F   0  0  0  0  0  0  0  0  0  0  0  0
  -20.5114   -6.6902   24.3475 F   0  0  0  0  0  0  0  0  0  0  0  0
  1  2  1  0  0  0  0
  1  5  2  0  0  0  0
  2  6  2  0  0  0  0
  3  8  2  0  0  0  0
  3 17  1  0  0  0  0
  4  9  1  0  0  0  0
  4 17  2  0  0  0  0
  5 19  1  0  0  0  0
  6 21  1  0  0  0  0
  7 10  2  0  0  0  0
  7 20  1  0  0  0  0
  8 26  1  0  0  0  0
  9 26  2  0  0  0  0
 10 27  1  0  0  0  0
 11 12  2  0  0  0  0
 11 28  1  0  0  0  0
 12 29  1  0  0  0  0
 13 22  1  0  0  0  0
 13 27  2  0  0  0  0
 14 24  1  0  0  0  0
 14 25  2  0  0  0  0
 15 24  2  0  0  0  0
 15 30  1  0  0  0  0
 16 29  2  0  0  0  0
 16 31  1  0  0  0  0
 17 32  1  0  0  0  0
 18 32  1  0  0  0  0
 18 33  2  0  0  0  0
 18 35  1  0  0  0  0
 19 21  2  0  0  0  0
 19 40  1  0  0  0  0
 20 22  2  0  0  0  0
 20 41  1  0  0  0  0
 21 53  1  0  0  0  0
 22 42  1  0  0  0  0
 23 25  1  0  0  0  0
 23 30  2  0  0  0  0
 23 52  1  0  0  0  0
 24 74  1  0  0  0  0
 25 71  1  0  0  0  0
 26 84  1  0  0  0  0
 27 85  1  0  0  0  0
 28 31  2  0  0  0  0
 28 84  1  0  0  0  0
 29 86  1  0  0  0  0
 30 87  1  0  0  0  0
 31 88  1  0  0  0  0
 32 66  2  0  0  0  0
 33 67  1  0  0  0  0
 33 72  1  0  0  0  0
 34 43  1  0  0  0  0
 34 68  1  0  0  0  0
 34 78  2  0  0  0  0
 35 73  1  0  0  0  0
 35 79  2  0  0  0  0
 36 54  1  0  0  0  0
 36 75  1  0  0  0  0
 36 80  2  0  0  0  0
 37 63  1  0  0  0  0
 37 69  1  0  0  0  0
 37 81  2  0  0  0  0
 38 64  1  0  0  0  0
 38 76  1  0  0  0  0
 38 82  2  0  0  0  0
 39 70  1  0  0  0  0
 39 74  1  0  0  0  0
 39 83  2  0  0  0  0
 40 44  1  0  0  0  0
 41 54  1  0  0  0  0
 42 69  1  0  0  0  0
 43 52  1  0  0  0  0
 44 47  1  0  0  0  0
 45 48  1  0  0  0  0
 45 50  1  0  0  0  0
 46 49  1  0  0  0  0
 46 52  1  0  0  0  0
 47 53  1  0  0  0  0
 48 55  1  0  0  0  0
 49 56  1  0  0  0  0
 50 70  1  0  0  0  0
 51 55  1  0  0  0  0
 51 70  1  0  0  0  0
 53 75  1  0  0  0  0
 54 69  1  0  0  0  0
 55 67  1  0  0  0  0
 56 62  1  0  0  0  0
 56 68  1  0  0  0  0
 57 64  1  0  0  0  0
 58 65  1  0  0  0  0
 59 65  1  0  0  0  0
 60 65  1  0  0  0  0
 61 77  1  0  0  0  0
 62 85  1  0  0  0  0
 63 65  1  0  0  0  0
 63 76  1  0  0  0  0
 64 77  1  0  0  0  0
 66 67  1  0  0  0  0
M  CHG  1  77   1
M  ISO  4  39 100  62 101  74 100  85 101
M  END
> <Batch ID>
0158

> <Smiles>
CNC(C)C(=O)NC(C(=O)N1Cc2cc([101O:1][101CH2:1]C3CCC(c4c(N)cc([100NH:0][100C:0](=O)N5CCCC(n6nc(-c7ccc(Oc8ccc(F)cc8F)cc7)c(C(N)=O)c6N)C5)cc4F)CC(=O)N3)ccc2CC1C(=O)NC1CCCc2ccccc21)C(C)(C)C

> <Shape>
0.251

> <Color>
0.085

> <Negative vol penalty>
0.000

$$$$

  -OEChem-04052303443D

 81 89  0     1  0  0  0  0  0999 V2000
  -28.2521  -34.4640   25.1990 C   0  0  0  0  0  0  0  0  0  0  0  0
  -29.0192  -33.7367   24.2946 C   0  0  0  0  0  0  0  0  0  0  0  0
  -24.0201   -9.8310   22.5283 C   0  0  0  0  0  0  0  0  0  0  0  0
  -24.3563  -11.5685   24.1731 C   0  0  0  0  0  0  0  0  0  0  0  0
  -27.1757  -33.8570   25.8446 C   0  0  0  0  0  0  0  0  0  0  0  0
  -28.7110  -32.4015   24.0361 C   0  0  0  0  0  0  0  0  0  0  0  0
  -28.8714  -27.5545   18.7638 C   0  0  0  0  0  0  0  0  0  0  0  0
  -23.5871   -8.9646   23.5320 C   0  0  0  0  0  0  0  0  0  0  0  0
  -23.9233  -10.7021   25.1768 C   0  0  0  0  0  0  0  0  0  0  0  0
  -29.3363  -26.2673   18.4979 C   0  0  0  0  0  0  0  0  0  0  0  0
  -20.9803   -9.5339   26.3578 C   0  0  0  0  0  0  0  0  0  0  0  0
  -20.0787  -10.0327   27.2979 C   0  0  0  0  0  0  0  0  0  0  0  0
  -27.4053  -25.3462   19.6124 C   0  0  0  0  0  0  0  0  0  0  0  0
  -21.6595   -9.5627   29.0635 C   0  0  0  0  0  0  0  0  0  0  0  0
  -29.8857  -18.5787   21.6905 C   0  0  0  0  0  0  0  0  0  0  0  0
  -24.4048  -11.1330   22.8488 C   0  0  0  0  0  0  0  0  0  0  0  0
  -24.0620  -12.9061   21.0471 C   0  0  0  0  0  0  0  0  0  0  0  0
  -26.8482  -32.5165   25.5867 C   0  0  0  0  0  0  0  0  0  0  0  0
  -27.6734  -27.7476   19.4667 C   0  0  0  0  0  0  0  0  0  0  0  0
  -27.6301  -31.7756   24.6799 C   0  0  0  0  0  0  0  0  0  0  0  0
  -26.9261  -26.6369   19.8837 C   0  0  0  0  0  0  0  0  0  0  0  0
  -23.5386   -9.4002   24.8563 C   0  0  0  0  0  0  0  0  0  0  0  0
  -28.6047  -25.1629   18.9247 C   0  0  0  0  0  0  0  0  0  0  0  0
  -22.2215   -9.0493   26.7705 C   0  0  0  0  0  0  0  0  0  0  0  0
  -20.4183  -10.0472   28.6507 C   0  0  0  0  0  0  0  0  0  0  0  0
  -22.5611   -9.0638   28.1233 C   0  0  0  0  0  0  0  0  0  0  0  0
  -24.8528  -12.0282   21.8125 C   0  0  0  0  0  0  0  0  0  0  0  0
  -30.9913  -17.7278   21.5195 C   0  0  0  0  0  0  0  0  0  0  0  0
  -24.9538  -13.5287   20.2084 C   0  0  0  0  0  0  0  0  0  0  0  0
  -30.1370  -19.6159   20.8318 C   0  0  0  0  0  0  0  0  0  0  0  0
  -22.6478  -13.1381   21.0905 C   0  0  0  0  0  0  0  0  0  0  0  0
  -26.8876  -29.1139   22.2271 C   0  0  0  0  0  0  0  0  0  0  0  0
  -23.8648  -28.4964   21.2250 C   0  0  0  0  0  0  0  0  0  0  0  0
  -29.7645  -21.7945   19.6282 C   0  0  0  0  0  0  0  0  0  0  0  0
  -21.7852  -26.6192   19.2761 C   0  0  0  0  0  0  0  0  0  0  0  0
  -30.8311  -14.6097   20.5828 C   0  0  0  0  0  0  0  0  0  0  0  0
  -25.7045  -31.8899   26.3443 C   0  0  0  0  0  0  0  0  0  0  0  0
  -27.1720  -29.1425   19.7222 C   0  0  0  0  0  0  0  0  0  0  0  0
  -25.6235  -26.7902   20.6242 C   0  0  0  0  0  0  0  0  0  0  0  0
  -25.2148  -30.5793   25.7337 C   0  0  0  0  0  0  0  0  0  0  0  0
  -29.1427  -12.8233   18.0070 C   0  0  0  0  0  0  0  0  0  0  0  0
  -26.3952  -29.6751   25.3932 C   0  0  0  0  0  0  0  0  0  0  0  0
  -27.7805  -12.4962   18.6211 C   0  0  0  0  0  0  0  0  0  0  0  0
  -30.2610  -12.7536   19.0446 C   0  0  0  0  0  0  0  0  0  0  0  0
  -28.6750  -13.2432   20.8663 C   0  0  0  0  0  0  0  0  0  0  0  0
  -27.3120  -30.3324   24.3545 C   0  0  1  0  0  0  0  0  0  0  0  0
  -26.2001  -29.2225   20.8954 C   0  0  1  0  0  0  0  0  0  0  0  0
  -27.5078  -13.3552   19.8705 C   0  0  2  0  0  0  0  0  0  0  0  0
  -19.3613  -26.3235   18.6979 C   0  0  0  0  0  0  0  0  0  0  0  0
  -23.4042  -27.0822   23.8892 C   0  0  0  0  0  0  0  0  0  0  0  0
  -21.3694  -26.0171   22.8925 C   0  0  0  0  0  0  0  0  0  0  0  0
  -21.4936  -28.4985   23.1159 C   0  0  0  0  0  0  0  0  0  0  0  0
  -22.2671  -27.2597   16.4272 C   0  0  0  0  0  0  0  0  0  0  0  0
  -31.2567  -16.4477   22.1951 C   0  0  0  0  0  0  0  0  0  0  0  0
  -28.7110  -22.8863   19.6043 C   0  0  0  0  0  0  0  0  0  1  0  0
  -22.9063  -27.3391   21.3688 C   0  0  1  0  0  0  0  0  0  0  0  0
  -20.6662  -27.0115   18.3284 C   0  0  2  0  0  0  0  0  0  0  0  0
  -22.3189  -27.2310   22.8044 C   0  0  0  0  0  0  0  0  0  0  0  0
  -26.1473  -12.0851   21.4886 N   0  0  0  0  0  0  0  0  0  0  0  0
  -31.8617  -18.2010   20.6232 N   0  0  0  0  0  0  0  0  0  0  0  0
  -26.1768  -13.0061   20.5104 N   0  0  0  0  0  0  0  0  0  0  0  0
  -25.1784  -28.1743   20.8555 N   0  0  0  0  0  0  0  0  0  0  0  0
  -29.9414  -13.5913   20.2030 N   0  0  0  0  0  0  0  0  0  0  0  0
  -24.8033  -14.4668   19.2493 N   0  0  0  0  0  0  0  0  0  0  0  0
  -21.8798  -12.4133   22.0120 N   0  0  0  0  0  0  0  0  0  0  0  0
  -29.4146  -20.7943   20.5289 N   0  0  0  0  0  0  0  0  0  0  0  0
  -26.7344  -30.2267   23.0317 N   0  0  0  0  0  0  0  0  0  0  0  0
  -21.9025  -27.5081   20.3237 N   0  0  0  0  0  0  0  0  0  0  0  0
  -30.4492  -15.3610   21.6876 N   0  0  0  0  0  0  0  0  0  0  0  0
  -21.0163  -26.6351   16.9295 N   0  3  0  0  0  0  0  0  0  0  0  0
  -22.0796  -13.9517   20.3232 O   0  0  0  0  0  0  0  0  0  0  0  0
  -27.5096  -28.0951   22.5046 O   0  0  0  0  0  0  0  0  0  0  0  0
  -23.4611  -29.6446   21.4258 O   0  0  0  0  0  0  0  0  0  0  0  0
  -30.7653  -21.8518   18.9213 O   0  0  0  0  0  0  0  0  0  0  0  0
  -22.4829  -25.6217   19.1063 O   0  0  0  0  0  0  0  0  0  0  0  0
  -31.8849  -14.8364   19.9787 O   0  0  0  0  0  0  0  0  0  0  0  0
  -31.3135  -19.4019   20.1890 O   0  0  0  0  0  0  0  0  0  0  0  0
  -23.1159   -8.5551   25.8359 O   0  0  0  0  0  0  0  0  0  0  0  0
  -29.0566  -23.9054   18.6671 O   0  0  0  0  0  0  0  0  0  1  0  0
  -19.5529  -10.5277   29.5532 F   0  0  0  0  0  0  0  0  0  0  0  0
  -23.7525   -8.6007   28.5257 F   0  0  0  0  0  0  0  0  0  0  0  0
  1  2  1  0  0  0  0
  1  5  2  0  0  0  0
  2  6  2  0  0  0  0
  3  8  2  0  0  0  0
  3 16  1  0  0  0  0
  4  9  1  0  0  0  0
  4 16  2  0  0  0  0
  5 18  1  0  0  0  0
  6 20  1  0  0  0  0
  7 10  2  0  0  0  0
  7 19  1  0  0  0  0
  8 22  1  0  0  0  0
  9 22  2  0  0  0  0
 10 23  1  0  0  0  0
 11 12  2  0  0  0  0
 11 24  1  0  0  0  0
 12 25  1  0  0  0  0
 13 21  1  0  0  0  0
 13 23  2  0  0  0  0
 14 25  2  0  0  0  0
 14 26  1  0  0  0  0
 15 28  1  0  0  0  0
 15 30  2  0  0  0  0
 16 27  1  0  0  0  0
 17 27  1  0  0  0  0
 17 29  2  0  0  0  0
 17 31  1  0  0  0  0
 18 20  2  0  0  0  0
 18 37  1  0  0  0  0
 19 21  2  0  0  0  0
 19 38  1  0  0  0  0
 20 46  1  0  0  0  0
 21 39  1  0  0  0  0
 22 78  1  0  0  0  0
 23 79  1  0  0  0  0
 24 26  2  0  0  0  0
 24 78  1  0  0  0  0
 25 80  1  0  0  0  0
 26 81  1  0  0  0  0
 27 59  2  0  0  0  0
 28 54  1  0  0  0  0
 28 60  2  0  0  0  0
 29 61  1  0  0  0  0
 29 64  1  0  0  0  0
 30 66  1  0  0  0  0
 30 77  1  0  0  0  0
 31 65  1  0  0  0  0
 31 71  2  0  0  0  0
 32 47  1  0  0  0  0
 32 67  1  0  0  0  0
 32 72  2  0  0  0  0
 33 56  1  0  0  0  0
 33 62  1  0  0  0  0
 33 73  2  0  0  0  0
 34 55  1  0  0  0  0
 34 66  1  0  0  0  0
 34 74  2  0  0  0  0
 35 57  1  0  0  0  0
 35 68  1  0  0  0  0
 35 75  2  0  0  0  0
 36 63  1  0  0  0  0
 36 69  1  0  0  0  0
 36 76  2  0  0  0  0
 37 40  1  0  0  0  0
 38 47  1  0  0  0  0
 39 62  1  0  0  0  0
 40 42  1  0  0  0  0
 41 43  1  0  0  0  0
 41 44  1  0  0  0  0
 42 46  1  0  0  0  0
 43 48  1  0  0  0  0
 44 63  1  0  0  0  0
 45 48  1  0  0  0  0
 45 63  1  0  0  0  0
 46 67  1  0  0  0  0
 47 62  1  0  0  0  0
 48 61  1  0  0  0  0
 49 57  1  0  0  0  0
 50 58  1  0  0  0  0
 51 58  1  0  0  0  0
 52 58  1  0  0  0  0
 53 70  1  0  0  0  0
 54 69  1  0  0  0  0
 55 79  1  0  0  0  0
 56 58  1  0  0  0  0
 56 68  1  0  0  0  0
 57 70  1  0  0  0  0
 59 61  1  0  0  0  0
 60 77  1  0  0  0  0
M  CHG  1  70   1
M  ISO  4  36 100  55 101  69 100  79 101
M  END
> <Batch ID>
0158

> <Smiles>
CNC(C)C(=O)NC(C(=O)N1Cc2cc([101O:1][101CH2:1]C(=O)Nc3cc(C[100NH:0][100C:0](=O)N4CCCC(n5nc(-c6ccc(Oc7ccc(F)cc7F)cc6)c(C(N)=O)c5N)C4)no3)ccc2CC1C(=O)NC1CCCc2ccccc21)C(C)(C)C

> <Shape>
0.301

> <Color>
0.117

> <Negative vol penalty>
0.000

$$$$

  -OEChem-04052303443D

 82 90  0     1  0  0  0  0  0999 V2000
  -28.7514  -30.1329   27.1770 C   0  0  0  0  0  0  0  0  0  0  0  0
  -28.6333  -29.2135   26.1396 C   0  0  0  0  0  0  0  0  0  0  0  0
  -22.9064  -10.8068   19.5257 C   0  0  0  0  0  0  0  0  0  0  0  0
  -23.4968   -9.8485   21.6635 C   0  0  0  0  0  0  0  0  0  0  0  0
  -27.6138  -30.7581   27.6858 C   0  0  0  0  0  0  0  0  0  0  0  0
  -27.3772  -28.9180   25.6111 C   0  0  0  0  0  0  0  0  0  0  0  0
  -27.3771  -28.8056   20.5483 C   0  0  0  0  0  0  0  0  0  0  0  0
  -21.9950   -9.7724   19.3137 C   0  0  0  0  0  0  0  0  0  0  0  0
  -22.5853   -8.8141   21.4515 C   0  0  0  0  0  0  0  0  0  0  0  0
  -27.8948  -27.6646   19.9368 C   0  0  0  0  0  0  0  0  0  0  0  0
  -22.4542   -5.9312   19.6902 C   0  0  0  0  0  0  0  0  0  0  0  0
  -22.8705   -4.6315   19.9783 C   0  0  0  0  0  0  0  0  0  0  0  0
  -25.6540  -26.8428   19.5865 C   0  0  0  0  0  0  0  0  0  0  0  0
  -28.7452  -20.2002   18.9123 C   0  0  0  0  0  0  0  0  0  0  0  0
  -21.0934   -4.4221   21.6017 C   0  0  0  0  0  0  0  0  0  0  0  0
  -26.6332  -19.5132   19.1219 C   0  0  0  0  0  0  0  0  0  0  0  0
  -23.6573  -10.8448   20.7006 C   0  0  0  0  0  0  0  0  0  0  0  0
  -24.3514  -13.1504   21.5433 C   0  0  0  0  0  0  0  0  0  0  0  0
  -26.3442  -30.4772   27.1568 C   0  0  0  0  0  0  0  0  0  0  0  0
  -25.9919  -28.9689   20.6936 C   0  0  0  0  0  0  0  0  0  0  0  0
  -26.2213  -29.5390   26.1143 C   0  0  0  0  0  0  0  0  0  0  0  0
  -25.1211  -27.9879   20.1980 C   0  0  0  0  0  0  0  0  0  0  0  0
  -27.4066  -20.6463   19.0226 C   0  0  0  0  0  0  0  0  0  0  0  0
  -21.8344   -8.7761   20.2766 C   0  0  0  0  0  0  0  0  0  0  0  0
  -27.0334  -26.6817   19.4583 C   0  0  0  0  0  0  0  0  0  0  0  0
  -21.3576   -6.4765   20.3579 C   0  0  0  0  0  0  0  0  0  0  0  0
  -22.1901   -3.8769   20.9340 C   0  0  0  0  0  0  0  0  0  0  0  0
  -20.6772   -5.7219   21.3136 C   0  0  0  0  0  0  0  0  0  0  0  0
  -24.5994  -11.9128   20.9199 C   0  0  0  0  0  0  0  0  0  0  0  0
  -28.6945  -18.8262   18.9523 C   0  0  0  0  0  0  0  0  0  0  0  0
  -25.5593  -13.8031   21.5033 C   0  0  0  0  0  0  0  0  0  0  0  0
  -23.1379  -13.6641   22.1082 C   0  0  0  0  0  0  0  0  0  0  0  0
  -29.7652  -17.7990   18.8806 C   0  0  0  0  0  0  0  0  0  0  0  0
  -24.0135  -29.2512   23.1654 C   0  0  0  0  0  0  0  0  0  0  0  0
  -21.8151  -29.7994   20.8440 C   0  0  0  0  0  0  0  0  0  0  0  0
  -27.6768  -23.1469   18.9320 C   0  0  0  0  0  0  0  0  0  0  0  0
  -20.8781  -29.3950   17.5875 C   0  0  0  0  0  0  0  0  0  0  0  0
  -30.1741  -15.3584   18.8607 C   0  0  0  0  0  0  0  0  0  0  0  0
  -25.1383  -31.1428   27.7713 C   0  0  0  0  0  0  0  0  0  0  0  0
  -25.4484  -30.2178   21.3316 C   0  0  0  0  0  0  0  0  0  0  0  0
  -23.6255  -28.1249   20.3111 C   0  0  0  0  0  0  0  0  0  0  0  0
  -23.8854  -31.0537   26.9039 C   0  0  0  0  0  0  0  0  0  0  0  0
  -30.1773  -12.1206   20.2797 C   0  0  0  0  0  0  0  0  0  0  0  0
  -23.6982  -29.6332   26.3805 C   0  0  0  0  0  0  0  0  0  0  0  0
  -28.7071  -11.8797   20.6328 C   0  0  0  0  0  0  0  0  0  0  0  0
  -30.3272  -12.8863   18.9659 C   0  0  0  0  0  0  0  0  0  0  0  0
  -28.0975  -13.8936   19.2340 C   0  0  0  0  0  0  0  0  0  0  0  0
  -24.8788  -29.2105   25.4979 C   0  0  1  0  0  0  0  0  0  0  0  0
  -24.0386  -30.0402   21.8870 C   0  0  1  0  0  0  0  0  0  0  0  0
  -27.8919  -13.1875   20.5840 C   0  0  1  0  0  0  0  0  0  0  0  0
  -19.0114  -29.9209   15.9949 C   0  0  0  0  0  0  0  0  0  0  0  0
  -20.1309  -27.5807   22.0892 C   0  0  0  0  0  0  0  0  0  0  0  0
  -18.7944  -27.5034   19.9736 C   0  0  0  0  0  0  0  0  0  0  0  0
  -18.8321  -29.5850   21.3476 C   0  0  0  0  0  0  0  0  0  0  0  0
  -22.6578  -30.9972   15.8484 C   0  0  0  0  0  0  0  0  0  0  0  0
  -26.7748  -24.3660   18.9826 C   0  0  0  0  0  0  0  0  0  1  0  0
  -20.8867  -28.9353   20.0253 C   0  0  1  0  0  0  0  0  0  0  0  0
  -20.3453  -30.3802   16.5628 C   0  0  2  0  0  0  0  0  0  0  0  0
  -19.6892  -28.3973   20.8584 C   0  0  0  0  0  0  0  0  0  0  0  0
  -25.8652  -11.7846   20.5135 N   0  0  0  0  0  0  0  0  0  0  0  0
  -26.4235  -12.9501   20.8822 N   0  0  0  0  0  0  0  0  0  0  0  0
  -23.1429  -29.3612   20.9485 N   0  0  0  0  0  0  0  0  0  0  0  0
  -29.5329  -14.1156   19.0040 N   0  0  0  0  0  0  0  0  0  0  0  0
  -25.9558  -15.0177   21.9391 N   0  0  0  0  0  0  0  0  0  0  0  0
  -21.9891  -12.8623   22.0651 N   0  0  0  0  0  0  0  0  0  0  0  0
  -26.9292  -21.9785   19.0313 N   0  0  0  0  0  0  0  0  0  0  0  0
  -29.3345  -16.4740   18.9542 N   0  0  0  0  0  0  0  0  0  0  0  0
  -24.7657  -29.8055   24.1835 N   0  0  0  0  0  0  0  0  0  0  0  0
  -20.4985  -29.7352   18.8687 N   0  0  0  0  0  0  0  0  0  0  0  0
  -21.3097  -30.5283   15.4364 N   0  3  0  0  0  0  0  0  0  0  0  0
  -23.0700  -14.8070   22.6207 O   0  0  0  0  0  0  0  0  0  0  0  0
  -30.9292  -18.1581   18.7254 O   0  0  0  0  0  0  0  0  0  0  0  0
  -23.3590  -28.2169   23.2243 O   0  0  0  0  0  0  0  0  0  0  0  0
  -21.3801  -30.8292   21.3656 O   0  0  0  0  0  0  0  0  0  0  0  0
  -28.8936  -23.2523   18.8179 O   0  0  0  0  0  0  0  0  0  0  0  0
  -21.5595  -28.4189   17.2816 O   0  0  0  0  0  0  0  0  0  0  0  0
  -31.3939  -15.4675   18.7016 O   0  0  0  0  0  0  0  0  0  0  0  0
  -27.4107  -18.3995   19.0800 O   0  0  0  0  0  0  0  0  0  0  0  0
  -20.9450   -7.7667   20.0702 O   0  0  0  0  0  0  0  0  0  0  0  0
  -27.5361  -25.5668   18.8616 O   0  0  0  0  0  0  0  0  0  1  0  0
  -22.5890   -2.6283   21.2094 F   0  0  0  0  0  0  0  0  0  0  0  0
  -19.6222   -6.2399   21.9574 F   0  0  0  0  0  0  0  0  0  0  0  0
  1  2  1  0  0  0  0
  1  5  2  0  0  0  0
  2  6  2  0  0  0  0
  3  8  2  0  0  0  0
  3 17  1  0  0  0  0
  4  9  1  0  0  0  0
  4 17  2  0  0  0  0
  5 19  1  0  0  0  0
  6 21  1  0  0  0  0
  7 10  2  0  0  0  0
  7 20  1  0  0  0  0
  8 24  1  0  0  0  0
  9 24  2  0  0  0  0
 10 25  1  0  0  0  0
 11 12  2  0  0  0  0
 11 26  1  0  0  0  0
 12 27  1  0  0  0  0
 13 22  1  0  0  0  0
 13 25  2  0  0  0  0
 14 23  1  0  0  0  0
 14 30  2  0  0  0  0
 15 27  2  0  0  0  0
 15 28  1  0  0  0  0
 16 23  2  0  0  0  0
 16 78  1  0  0  0  0
 17 29  1  0  0  0  0
 18 29  1  0  0  0  0
 18 31  2  0  0  0  0
 18 32  1  0  0  0  0
 19 21  2  0  0  0  0
 19 39  1  0  0  0  0
 20 22  2  0  0  0  0
 20 40  1  0  0  0  0
 21 48  1  0  0  0  0
 22 41  1  0  0  0  0
 23 66  1  0  0  0  0
 24 79  1  0  0  0  0
 25 80  1  0  0  0  0
 26 28  2  0  0  0  0
 26 79  1  0  0  0  0
 27 81  1  0  0  0  0
 28 82  1  0  0  0  0
 29 60  2  0  0  0  0
 30 33  1  0  0  0  0
 30 78  1  0  0  0  0
 31 61  1  0  0  0  0
 31 64  1  0  0  0  0
 32 65  1  0  0  0  0
 32 71  2  0  0  0  0
 33 67  1  0  0  0  0
 33 72  2  0  0  0  0
 34 49  1  0  0  0  0
 34 68  1  0  0  0  0
 34 73  2  0  0  0  0
 35 57  1  0  0  0  0
 35 62  1  0  0  0  0
 35 74  2  0  0  0  0
 36 56  1  0  0  0  0
 36 66  1  0  0  0  0
 36 75  2  0  0  0  0
 37 58  1  0  0  0  0
 37 69  1  0  0  0  0
 37 76  2  0  0  0  0
 38 63  1  0  0  0  0
 38 67  1  0  0  0  0
 38 77  2  0  0  0  0
 39 42  1  0  0  0  0
 40 49  1  0  0  0  0
 41 62  1  0  0  0  0
 42 44  1  0  0  0  0
 43 45  1  0  0  0  0
 43 46  1  0  0  0  0
 44 48  1  0  0  0  0
 45 50  1  0  0  0  0
 46 63  1  0  0  0  0
 47 50  1  0  0  0  0
 47 63  1  0  0  0  0
 48 68  1  0  0  0  0
 49 62  1  0  0  0  0
 50 61  1  0  0  0  0
 51 58  1  0  0  0  0
 52 59  1  0  0  0  0
 53 59  1  0  0  0  0
 54 59  1  0  0  0  0
 55 70  1  0  0  0  0
 56 80  1  0  0  0  0
 57 59  1  0  0  0  0
 57 69  1  0  0  0  0
 58 70  1  0  0  0  0
 60 61  1  0  0  0  0
M  CHG  1  70   1
M  ISO  4  38 100  56 101  67 100  80 101
M  END
> <Batch ID>
0158

> <Smiles>
CNC(C)C(=O)NC(C(=O)N1Cc2cc([101O:1][101CH2:1]C(=O)Nc3coc(C(=O)[100NH:0][100C:0](=O)N4CCCC(n5nc(-c6ccc(Oc7ccc(F)cc7F)cc6)c(C(N)=O)c5N)C4)c3)ccc2CC1C(=O)NC1CCCc2ccccc21)C(C)(C)C

> <Shape>
0.292

> <Color>
0.141

> <Negative vol penalty>
0.000

$$$$

  -OEChem-04052303443D

 87 96  0     1  0  0  0  0  0999 V2000
  -19.2094  -28.8819   23.3155 C   0  0  0  0  0  0  0  0  0  0  0  0
  -20.5320  -28.4961   23.1225 C   0  0  0  0  0  0  0  0  0  0  0  0
  -32.5553  -22.6502   18.3867 C   0  0  0  0  0  0  0  0  0  0  0  0
  -24.3554  -13.8186   22.1920 C   0  0  0  0  0  0  0  0  0  0  0  0
  -26.2812  -13.9843   20.7425 C   0  0  0  0  0  0  0  0  0  0  0  0
  -18.1746  -28.0993   22.8051 C   0  0  0  0  0  0  0  0  0  0  0  0
  -20.8205  -27.3267   22.4198 C   0  0  0  0  0  0  0  0  0  0  0  0
  -24.5618  -27.9495   19.0642 C   0  0  0  0  0  0  0  0  0  0  0  0
  -32.6436  -24.0407   18.3216 C   0  0  0  0  0  0  0  0  0  0  0  0
  -31.4732  -22.0494   19.0300 C   0  0  0  0  0  0  0  0  0  0  0  0
  -23.8849  -12.7397   21.4435 C   0  0  0  0  0  0  0  0  0  0  0  0
  -25.8107  -12.9054   19.9941 C   0  0  0  0  0  0  0  0  0  0  0  0
  -25.8650  -27.9649   19.5593 C   0  0  0  0  0  0  0  0  0  0  0  0
  -24.5247   -9.4309   21.1686 C   0  0  0  0  0  0  0  0  0  0  0  0
  -24.0493   -8.3185   21.8629 C   0  0  0  0  0  0  0  0  0  0  0  0
  -26.1419  -25.6653   18.8852 C   0  0  0  0  0  0  0  0  0  0  0  0
  -30.5678  -24.2297   19.5433 C   0  0  0  0  0  0  0  0  0  0  0  0
  -21.8846   -8.5969   20.8266 C   0  0  0  0  0  0  0  0  0  0  0  0
  -25.5535  -14.4409   21.8415 C   0  0  0  0  0  0  0  0  0  0  0  0
  -26.3662  -15.5633   23.9833 C   0  0  0  0  0  0  0  0  0  0  0  0
  -18.4508  -26.9249   22.0875 C   0  0  0  0  0  0  0  0  0  0  0  0
  -24.0342  -26.7865   18.4848 C   0  0  0  0  0  0  0  0  0  0  0  0
  -19.7883  -26.5269   21.9005 C   0  0  0  0  0  0  0  0  0  0  0  0
  -24.8326  -25.6385   18.3812 C   0  0  0  0  0  0  0  0  0  0  0  0
  -31.6499  -24.8304   18.8999 C   0  0  0  0  0  0  0  0  0  0  0  0
  -30.4795  -22.8391   19.6083 C   0  0  0  0  0  0  0  0  0  0  0  0
  -24.6125  -12.2831   20.3446 C   0  0  0  0  0  0  0  0  0  0  0  0
  -26.6543  -26.8219   19.4724 C   0  0  0  0  0  0  0  0  0  0  0  0
  -23.6801  -10.1264   20.3033 C   0  0  0  0  0  0  0  0  0  0  0  0
  -22.7293   -7.9015   21.6919 C   0  0  0  0  0  0  0  0  0  0  0  0
  -22.3601   -9.7094   20.1324 C   0  0  0  0  0  0  0  0  0  0  0  0
  -26.0398  -15.5558   22.6139 C   0  0  0  0  0  0  0  0  0  0  0  0
  -26.7755  -16.8507   24.2317 C   0  0  0  0  0  0  0  0  0  0  0  0
  -30.9097  -28.2913   20.7920 C   0  0  0  0  0  0  0  0  0  0  0  0
  -30.1088  -27.8376   19.8108 C   0  0  0  0  0  0  0  0  0  0  0  0
  -32.3898  -28.1778   20.8161 C   0  0  0  0  0  0  0  0  0  0  0  0
  -26.3051  -14.5015   24.9448 C   0  0  0  0  0  0  0  0  0  0  0  0
  -21.6082  -24.8464   19.1588 C   0  0  0  0  0  0  0  0  0  0  0  0
  -22.4319  -23.4726   16.3381 C   0  0  0  0  0  0  0  0  0  0  0  0
  -23.0931  -21.5509   13.5964 C   0  0  0  0  0  0  0  0  0  0  0  0
  -29.1332  -20.8622   20.4231 C   0  0  0  0  0  0  0  0  0  0  0  0
  -17.2975  -26.0866   21.5955 C   0  0  0  0  0  0  0  0  0  0  0  0
  -22.6356  -26.7942   17.9314 C   0  0  0  0  0  0  0  0  0  0  0  0
  -24.3203  -24.3706   17.7499 C   0  0  0  0  0  0  0  0  0  0  0  0
  -33.1310  -28.1858   19.5031 C   0  0  0  0  0  0  0  0  0  0  0  0
  -17.6980  -25.0595   20.5396 C   0  0  0  0  0  0  0  0  0  0  0  0
  -25.6700  -21.0345   22.0664 C   0  0  0  0  0  0  0  0  0  0  0  0
  -18.9584  -24.3155   20.9695 C   0  0  0  0  0  0  0  0  0  0  0  0
  -25.8076  -19.8907   23.0684 C   0  0  0  0  0  0  0  0  0  0  0  0
  -33.0673  -26.8443   18.7912 C   0  0  0  0  0  0  0  0  0  0  0  0
  -27.0208  -21.5995   21.6457 C   0  0  0  0  0  0  0  0  0  0  0  0
  -27.5588  -19.1747   21.3505 C   0  0  0  0  0  0  0  0  0  0  0  0
  -20.1422  -25.2782   21.1223 C   0  0  1  0  0  0  0  0  0  0  0  0
  -30.5141  -27.0153   18.5943 C   0  0  1  0  0  0  0  0  0  0  0  0
  -22.0271  -25.3993   17.8259 C   0  0  1  0  0  0  0  0  0  0  0  0
  -27.0041  -18.9661   22.7683 C   0  0  2  0  0  0  0  0  0  0  0  0
  -30.6051  -27.8360   17.3032 C   0  0  0  0  0  0  0  0  0  0  0  0
  -22.7291  -19.2466   12.6718 C   0  0  0  0  0  0  0  0  0  0  0  0
  -24.5953  -22.3879   18.1963 C   0  0  0  0  0  0  0  0  0  0  0  0
  -24.8577  -20.4431   16.6415 C   0  0  0  0  0  0  0  0  0  0  0  0
  -22.6820  -20.8270   17.7997 C   0  0  0  0  0  0  0  0  0  0  0  0
  -21.5778  -22.5945   11.2784 C   0  0  0  0  0  0  0  0  0  0  0  0
  -28.6213  -28.0801   19.9239 C   0  0  0  0  0  0  0  0  0  1  0  0
  -23.3752  -22.3703   15.9210 C   0  0  1  0  0  0  0  0  0  0  0  0
  -22.1977  -20.6696   12.7444 C   0  0  2  0  0  0  0  0  0  0  0  0
  -23.8807  -21.5337   17.1301 C   0  0  0  0  0  0  0  0  0  0  0  0
  -26.2255  -16.7441   22.0330 N   0  0  0  0  0  0  0  0  0  0  0  0
  -26.6729  -17.5104   23.0424 N   0  0  0  0  0  0  0  0  0  0  0  0
  -31.7385  -26.2272   18.8339 N   0  0  3  0  0  0  0  0  0  0  0  0
  -22.9443  -24.4262   17.2292 N   0  0  0  0  0  0  0  0  0  0  0  0
  -27.9401  -20.5746   21.1302 N   0  0  0  0  0  0  0  0  0  0  0  0
  -27.2093  -17.4715   25.3492 N   0  0  0  0  0  0  0  0  0  0  0  0
  -27.4355  -13.6914   25.1184 N   0  0  0  0  0  0  0  0  0  0  0  0
  -29.3808  -22.2281   20.2630 N   0  0  0  0  0  0  0  0  0  0  0  0
  -20.6818  -25.6256   19.8251 N   0  0  0  0  0  0  0  0  0  0  0  0
  -22.6706  -21.5915   14.9084 N   0  0  0  0  0  0  0  0  0  0  0  0
  -22.1079  -21.2090   11.3580 N   0  3  0  0  0  0  0  0  0  0  0  0
  -32.9799  -28.1331   21.8939 O   0  0  0  0  0  0  0  0  0  0  0  0
  -25.2729  -14.2675   25.6181 O   0  0  0  0  0  0  0  0  0  0  0  0
  -22.0889  -23.7903   19.5529 O   0  0  0  0  0  0  0  0  0  0  0  0
  -21.2851  -23.4912   15.8842 O   0  0  0  0  0  0  0  0  0  0  0  0
  -24.0718  -22.1410   13.1443 O   0  0  0  0  0  0  0  0  0  0  0  0
  -29.8732  -19.9669   20.0098 O   0  0  0  0  0  0  0  0  0  0  0  0
  -24.1538  -11.2302   19.6141 O   0  0  0  0  0  0  0  0  0  0  0  0
  -27.9265  -26.8341   19.9554 O   0  0  0  0  0  0  0  0  0  1  0  0
  -22.2733   -6.8323   22.3575 F   0  0  0  0  0  0  0  0  0  0  0  0
  -21.5442  -10.3728   19.3016 F   0  0  0  0  0  0  0  0  0  0  0  0
  1  2  1  0  0  0  0
  1  6  2  0  0  0  0
  2  7  2  0  0  0  0
  3  9  2  0  0  0  0
  3 10  1  0  0  0  0
  4 11  2  0  0  0  0
  4 19  1  0  0  0  0
  5 12  1  0  0  0  0
  5 19  2  0  0  0  0
  6 21  1  0  0  0  0
  7 23  1  0  0  0  0
  8 13  2  0  0  0  0
  8 22  1  0  0  0  0
  9 25  1  0  0  0  0
 10 26  2  0  0  0  0
 11 27  1  0  0  0  0
 12 27  2  0  0  0  0
 13 28  1  0  0  0  0
 14 15  2  0  0  0  0
 14 29  1  0  0  0  0
 15 30  1  0  0  0  0
 16 24  1  0  0  0  0
 16 28  2  0  0  0  0
 17 25  2  0  0  0  0
 17 26  1  0  0  0  0
 18 30  2  0  0  0  0
 18 31  1  0  0  0  0
 19 32  1  0  0  0  0
 20 32  1  0  0  0  0
 20 33  2  0  0  0  0
 20 37  1  0  0  0  0
 21 23  2  0  0  0  0
 21 42  1  0  0  0  0
 22 24  2  0  0  0  0
 22 43  1  0  0  0  0
 23 53  1  0  0  0  0
 24 44  1  0  0  0  0
 25 69  1  0  0  0  0
 26 74  1  0  0  0  0
 27 84  1  0  0  0  0
 28 85  1  0  0  0  0
 29 31  2  0  0  0  0
 29 84  1  0  0  0  0
 30 86  1  0  0  0  0
 31 87  1  0  0  0  0
 32 67  2  0  0  0  0
 33 68  1  0  0  0  0
 33 72  1  0  0  0  0
 34 35  2  0  0  0  0
 34 36  1  0  0  0  0
 35 54  1  0  0  0  0
 35 63  1  0  0  0  0
 36 45  1  0  0  0  0
 36 78  2  0  0  0  0
 37 73  1  0  0  0  0
 37 79  2  0  0  0  0
 38 55  1  0  0  0  0
 38 75  1  0  0  0  0
 38 80  2  0  0  0  0
 39 64  1  0  0  0  0
 39 70  1  0  0  0  0
 39 81  2  0  0  0  0
 40 65  1  0  0  0  0
 40 76  1  0  0  0  0
 40 82  2  0  0  0  0
 41 71  1  0  0  0  0
 41 74  1  0  0  0  0
 41 83  2  0  0  0  0
 42 46  1  0  0  0  0
 43 55  1  0  0  0  0
 44 70  1  0  0  0  0
 45 50  1  0  0  0  0
 46 48  1  0  0  0  0
 47 49  1  0  0  0  0
 47 51  1  0  0  0  0
 48 53  1  0  0  0  0
 49 56  1  0  0  0  0
 50 69  1  0  0  0  0
 51 71  1  0  0  0  0
 52 56  1  0  0  0  0
 52 71  1  0  0  0  0
 53 75  1  0  0  0  0
 54 57  1  0  0  0  0
 54 69  1  0  0  0  0
 55 70  1  0  0  0  0
 56 68  1  0  0  0  0
 58 65  1  0  0  0  0
 59 66  1  0  0  0  0
 60 66  1  0  0  0  0
 61 66  1  0  0  0  0
 62 77  1  0  0  0  0
 63 85  1  0  0  0  0
 64 66  1  0  0  0  0
 64 76  1  0  0  0  0
 65 77  1  0  0  0  0
 67 68  1  0  0  0  0
M  CHG  1  77   1
M  ISO  4  41 100  63 101  74 100  85 101
M  END
> <Batch ID>
0158

> <Smiles>
CNC(C)C(=O)NC(C(=O)N1Cc2cc([101O:1][101CH2:1]C3=C(C)N(c4cccc([100NH:0][100C:0](=O)N5CCCC(n6nc(-c7ccc(Oc8ccc(F)cc8F)cc7)c(C(N)=O)c6N)C5)c4)CCC(=O)C3)ccc2CC1C(=O)NC1CCCc2ccccc21)C(C)(C)C

> <Shape>
0.219

> <Color>
0.073

> <Negative vol penalty>
0.000

$$$$

  -OEChem-04052303443D

 82 90  0     1  0  0  0  0  0999 V2000
  -26.6177  -36.7436   24.0673 C   0  0  0  0  0  0  0  0  0  0  0  0
  -27.2775  -35.6504   23.5150 C   0  0  0  0  0  0  0  0  0  0  0  0
  -26.6216  -11.1437   21.4747 C   0  0  0  0  0  0  0  0  0  0  0  0
  -26.0755  -11.1344   19.1213 C   0  0  0  0  0  0  0  0  0  0  0  0
  -25.4280  -36.5563   24.7698 C   0  0  0  0  0  0  0  0  0  0  0  0
  -26.7486  -34.3691   23.6658 C   0  0  0  0  0  0  0  0  0  0  0  0
  -27.0020  -29.7815   19.6167 C   0  0  0  0  0  0  0  0  0  0  0  0
  -25.4951  -10.3649   21.7392 C   0  0  0  0  0  0  0  0  0  0  0  0
  -24.9490  -10.3556   19.3857 C   0  0  0  0  0  0  0  0  0  0  0  0
  -27.8417  -28.6741   19.5052 C   0  0  0  0  0  0  0  0  0  0  0  0
  -22.9617   -8.0769   22.9892 C   0  0  0  0  0  0  0  0  0  0  0  0
  -23.1106   -6.9947   23.8564 C   0  0  0  0  0  0  0  0  0  0  0  0
  -26.2062  -27.3256   20.6567 C   0  0  0  0  0  0  0  0  0  0  0  0
  -30.5527  -22.3240   16.9715 C   0  0  0  0  0  0  0  0  0  0  0  0
  -24.7518   -6.0289   22.3696 C   0  0  0  0  0  0  0  0  0  0  0  0
  -31.6488  -23.6788   15.5788 C   0  0  0  0  0  0  0  0  0  0  0  0
  -26.9118  -11.5285   20.1657 C   0  0  0  0  0  0  0  0  0  0  0  0
  -29.3729  -11.8778   19.5924 C   0  0  0  0  0  0  0  0  0  0  0  0
  -24.8791  -35.2731   24.9210 C   0  0  0  0  0  0  0  0  0  0  0  0
  -25.7607  -29.6716   20.2597 C   0  0  0  0  0  0  0  0  0  0  0  0
  -25.5511  -34.1642   24.3721 C   0  0  0  0  0  0  0  0  0  0  0  0
  -25.3515  -28.4324   20.7728 C   0  0  0  0  0  0  0  0  0  0  0  0
  -30.7982  -23.6826   16.6598 C   0  0  0  0  0  0  0  0  0  0  0  0
  -24.6588   -9.9708   20.6947 C   0  0  0  0  0  0  0  0  0  0  0  0
  -27.4451  -27.4466   20.0278 C   0  0  0  0  0  0  0  0  0  0  0  0
  -23.7079   -8.1351   21.8120 C   0  0  0  0  0  0  0  0  0  0  0  0
  -24.0056   -5.9707   23.5467 C   0  0  0  0  0  0  0  0  0  0  0  0
  -24.6029   -7.1111   21.5023 C   0  0  0  0  0  0  0  0  0  0  0  0
  -28.0751  -12.3335   19.8920 C   0  0  0  0  0  0  0  0  0  0  0  0
  -31.2706  -21.5869   16.0586 C   0  0  0  0  0  0  0  0  0  0  0  0
  -30.1075  -13.0249   19.4166 C   0  0  0  0  0  0  0  0  0  0  0  0
  -29.8700  -10.5374   19.4828 C   0  0  0  0  0  0  0  0  0  0  0  0
  -31.3104  -20.1104   16.0060 C   0  0  0  0  0  0  0  0  0  0  0  0
  -24.4423  -30.9938   22.8321 C   0  0  0  0  0  0  0  0  0  0  0  0
  -21.8028  -29.4054   21.8160 C   0  0  0  0  0  0  0  0  0  0  0  0
  -29.4305  -24.8772   18.4022 C   0  0  0  0  0  0  0  0  0  0  0  0
  -20.4917  -26.8147   20.0226 C   0  0  0  0  0  0  0  0  0  0  0  0
  -30.5092  -17.9878   17.0205 C   0  0  0  0  0  0  0  0  0  0  0  0
  -23.6157  -35.1146   25.7292 C   0  0  0  0  0  0  0  0  0  0  0  0
  -24.8550  -30.8692   20.3482 C   0  0  0  0  0  0  0  0  0  0  0  0
  -24.0200  -28.2570   21.4544 C   0  0  0  0  0  0  0  0  0  0  0  0
  -22.9256  -33.7687   25.5231 C   0  0  0  0  0  0  0  0  0  0  0  0
  -29.0216  -17.8381   20.4149 C   0  0  0  0  0  0  0  0  0  0  0  0
  -23.9399  -32.6318   25.5974 C   0  0  0  0  0  0  0  0  0  0  0  0
  -28.6818  -16.3550   20.5123 C   0  0  0  0  0  0  0  0  0  0  0  0
  -28.9200  -18.3613   18.9827 C   0  0  0  0  0  0  0  0  0  0  0  0
  -29.3925  -16.0837   18.1078 C   0  0  0  0  0  0  0  0  0  0  0  0
  -24.9959  -32.7617   24.4931 C   0  0  1  0  0  0  0  0  0  0  0  0
  -23.8345  -30.7645   21.4773 C   0  0  1  0  0  0  0  0  0  0  0  0
  -29.5449  -15.5424   19.5366 C   0  0  2  0  0  0  0  0  0  0  0  0
  -18.3026  -25.7517   19.4100 C   0  0  0  0  0  0  0  0  0  0  0  0
  -21.6222  -28.1771   24.6032 C   0  0  0  0  0  0  0  0  0  0  0  0
  -20.0567  -26.4608   23.6694 C   0  0  0  0  0  0  0  0  0  0  0  0
  -19.4281  -28.8745   23.6263 C   0  0  0  0  0  0  0  0  0  0  0  0
  -20.9324  -27.2977   17.1361 C   0  0  0  0  0  0  0  0  0  0  0  0
  -29.1283  -26.3134   18.7873 C   0  0  0  0  0  0  0  0  0  1  0  0
  -21.2224  -28.0327   22.0565 C   0  0  1  0  0  0  0  0  0  0  0  0
  -19.3656  -26.7615   19.0060 C   0  0  2  0  0  0  0  0  0  0  0  0
  -20.6083  -27.8897   23.4778 C   0  0  0  0  0  0  0  0  0  0  0  0
  -27.9871  -13.6662   19.9066 N   0  0  0  0  0  0  0  0  0  0  0  0
  -29.2390  -14.0577   19.6142 N   0  0  0  0  0  0  0  0  0  0  0  0
  -23.1726  -29.4591   21.5216 N   0  0  0  0  0  0  0  0  0  0  0  0
  -29.6661  -17.5230   18.0342 N   0  0  0  0  0  0  0  0  0  0  0  0
  -31.4053  -13.2408   19.1139 N   0  0  0  0  0  0  0  0  0  0  0  0
  -28.9801   -9.4755   19.6942 N   0  0  0  0  0  0  0  0  0  0  0  0
  -30.2887  -24.8322   17.3089 N   0  0  0  0  0  0  0  0  0  0  0  0
  -30.5949  -19.4284   16.9138 N   0  0  0  0  0  0  0  0  0  0  0  0
  -24.4580  -32.3186   23.2247 N   0  0  0  0  0  0  0  0  0  0  0  0
  -20.2780  -27.7928   20.9707 N   0  0  0  0  0  0  0  0  0  0  0  0
  -32.0616  -19.5471   15.0601 N   0  3  0  0  0  0  0  0  0  0  0  0
  -19.8944  -26.3768   17.6668 N   0  3  0  0  0  0  0  0  0  0  0  0
  -31.0714  -10.2889   19.2218 O   0  0  0  0  0  0  0  0  0  0  0  0
  -24.8642  -30.0393   23.4744 O   0  0  0  0  0  0  0  0  0  0  0  0
  -21.0664  -30.3930   21.8796 O   0  0  0  0  0  0  0  0  0  0  0  0
  -28.9476  -23.9320   19.0171 O   0  0  0  0  0  0  0  0  0  0  0  0
  -21.4619  -26.0614   19.9820 O   0  0  0  0  0  0  0  0  0  0  0  0
  -31.1302  -17.2846   16.2307 O   0  0  0  0  0  0  0  0  0  0  0  0
  -31.9415  -22.4052   15.2061 O   0  0  0  0  0  0  0  0  0  0  0  0
  -23.5595   -9.2106   20.9524 O   0  0  0  0  0  0  0  0  0  0  0  0
  -28.2631  -26.3643   19.9209 O   0  0  0  0  0  0  0  0  0  1  0  0
  -24.1496   -4.9322   24.3804 F   0  0  0  0  0  0  0  0  0  0  0  0
  -25.3234   -7.1621   20.3735 F   0  0  0  0  0  0  0  0  0  0  0  0
  1  2  1  0  0  0  0
  1  5  2  0  0  0  0
  2  6  2  0  0  0  0
  3  8  2  0  0  0  0
  3 17  1  0  0  0  0
  4  9  1  0  0  0  0
  4 17  2  0  0  0  0
  5 19  1  0  0  0  0
  6 21  1  0  0  0  0
  7 10  2  0  0  0  0
  7 20  1  0  0  0  0
  8 24  1  0  0  0  0
  9 24  2  0  0  0  0
 10 25  1  0  0  0  0
 11 12  2  0  0  0  0
 11 26  1  0  0  0  0
 12 27  1  0  0  0  0
 13 22  1  0  0  0  0
 13 25  2  0  0  0  0
 14 23  1  0  0  0  0
 14 30  2  0  0  0  0
 15 27  2  0  0  0  0
 15 28  1  0  0  0  0
 16 23  2  0  0  0  0
 16 78  1  0  0  0  0
 17 29  1  0  0  0  0
 18 29  1  0  0  0  0
 18 31  2  0  0  0  0
 18 32  1  0  0  0  0
 19 21  2  0  0  0  0
 19 39  1  0  0  0  0
 20 22  2  0  0  0  0
 20 40  1  0  0  0  0
 21 48  1  0  0  0  0
 22 41  1  0  0  0  0
 23 66  1  0  0  0  0
 24 79  1  0  0  0  0
 25 80  1  0  0  0  0
 26 28  2  0  0  0  0
 26 79  1  0  0  0  0
 27 81  1  0  0  0  0
 28 82  1  0  0  0  0
 29 60  2  0  0  0  0
 30 33  1  0  0  0  0
 30 78  1  0  0  0  0
 31 61  1  0  0  0  0
 31 64  1  0  0  0  0
 32 65  1  0  0  0  0
 32 72  2  0  0  0  0
 33 67  1  0  0  0  0
 33 70  2  0  0  0  0
 34 49  1  0  0  0  0
 34 68  1  0  0  0  0
 34 73  2  0  0  0  0
 35 57  1  0  0  0  0
 35 62  1  0  0  0  0
 35 74  2  0  0  0  0
 36 56  1  0  0  0  0
 36 66  1  0  0  0  0
 36 75  2  0  0  0  0
 37 58  1  0  0  0  0
 37 69  1  0  0  0  0
 37 76  2  0  0  0  0
 38 63  1  0  0  0  0
 38 67  1  0  0  0  0
 38 77  2  0  0  0  0
 39 42  1  0  0  0  0
 40 49  1  0  0  0  0
 41 62  1  0  0  0  0
 42 44  1  0  0  0  0
 43 45  1  0  0  0  0
 43 46  1  0  0  0  0
 44 48  1  0  0  0  0
 45 50  1  0  0  0  0
 46 63  1  0  0  0  0
 47 50  1  0  0  0  0
 47 63  1  0  0  0  0
 48 68  1  0  0  0  0
 49 62  1  0  0  0  0
 50 61  1  0  0  0  0
 51 58  1  0  0  0  0
 52 59  1  0  0  0  0
 53 59  1  0  0  0  0
 54 59  1  0  0  0  0
 55 71  1  0  0  0  0
 56 80  1  0  0  0  0
 57 59  1  0  0  0  0
 57 69  1  0  0  0  0
 58 71  1  0  0  0  0
 60 61  1  0  0  0  0
M  CHG  2  70   1  71   1
M  ISO  4  38 100  56 101  67 100  80 101
M  END
> <Batch ID>
0158

> <Smiles>
CNC(C)C(=O)NC(C(=O)N1Cc2cc([101O:1][101CH2:1]C(=O)Nc3coc(C(=N)[100NH:0][100C:0](=O)N4CCCC(n5nc(-c6ccc(Oc7ccc(F)cc7F)cc6)c(C(N)=O)c5N)C4)c3)ccc2CC1C(=O)NC1CCCc2ccccc21)C(C)(C)C

> <Shape>
0.311

> <Color>
0.068

> <Negative vol penalty>
0.000

$$$$

  -OEChem-04052303443D

 83 92  0     1  0  0  0  0  0999 V2000
  -16.9885  -29.1344   24.0197 C   0  0  0  0  0  0  0  0  0  0  0  0
  -17.6819  -28.0881   24.6196 C   0  0  0  0  0  0  0  0  0  0  0  0
  -23.3079   -9.6997   20.0604 C   0  0  0  0  0  0  0  0  0  0  0  0
  -23.7585  -10.0843   22.4026 C   0  0  0  0  0  0  0  0  0  0  0  0
  -17.5454  -29.8048   22.9314 C   0  0  0  0  0  0  0  0  0  0  0  0
  -18.9321  -27.7108   24.1308 C   0  0  0  0  0  0  0  0  0  0  0  0
  -25.2307  -25.1011   26.3294 C   0  0  0  0  0  0  0  0  0  0  0  0
  -22.6164   -8.5327   20.3851 C   0  0  0  0  0  0  0  0  0  0  0  0
  -23.0669   -8.9173   22.7273 C   0  0  0  0  0  0  0  0  0  0  0  0
  -26.1251  -24.0686   26.0508 C   0  0  0  0  0  0  0  0  0  0  0  0
  -19.8481   -7.9388   23.0475 C   0  0  0  0  0  0  0  0  0  0  0  0
  -18.9486   -7.9953   24.1120 C   0  0  0  0  0  0  0  0  0  0  0  0
  -27.0237  -25.3504   24.2153 C   0  0  0  0  0  0  0  0  0  0  0  0
  -29.1123  -18.2038   22.9080 C   0  0  0  0  0  0  0  0  0  0  0  0
  -31.4030  -17.4778   22.7095 C   0  0  0  0  0  0  0  0  0  0  0  0
  -20.2092   -6.2889   25.2678 C   0  0  0  0  0  0  0  0  0  0  0  0
  -23.8791  -10.4755   21.0692 C   0  0  0  0  0  0  0  0  0  0  0  0
  -24.0644  -12.9803   20.6231 C   0  0  0  0  0  0  0  0  0  0  0  0
  -18.8074  -29.4418   22.4351 C   0  0  0  0  0  0  0  0  0  0  0  0
  -25.2186  -26.2634   25.5450 C   0  0  0  0  0  0  0  0  0  0  0  0
  -19.5058  -28.3760   23.0340 C   0  0  0  0  0  0  0  0  0  0  0  0
  -26.1298  -26.3973   24.4877 C   0  0  0  0  0  0  0  0  0  0  0  0
  -29.5063  -19.2579   23.7418 C   0  0  0  0  0  0  0  0  0  0  0  0
  -30.8614  -19.4158   24.0711 C   0  0  0  0  0  0  0  0  0  0  0  0
  -30.0567  -17.3145   22.3973 C   0  0  0  0  0  0  0  0  0  0  0  0
  -31.8037  -18.5263   23.5380 C   0  0  0  0  0  0  0  0  0  0  0  0
  -22.4958   -8.1415   21.7185 C   0  0  0  0  0  0  0  0  0  0  0  0
  -27.0198  -24.1919   24.9918 C   0  0  0  0  0  0  0  0  0  0  0  0
  -20.9282   -7.0573   23.0930 C   0  0  0  0  0  0  0  0  0  0  0  0
  -19.1291   -7.1704   25.2222 C   0  0  0  0  0  0  0  0  0  0  0  0
  -21.1087   -6.2324   24.2032 C   0  0  0  0  0  0  0  0  0  0  0  0
  -24.5941  -11.6808   20.7344 C   0  0  0  0  0  0  0  0  0  0  0  0
  -25.1423  -13.7629   20.2881 C   0  0  0  0  0  0  0  0  0  0  0  0
  -28.8836  -21.0651   25.0604 C   0  0  0  0  0  0  0  0  0  0  0  0
  -22.7184  -13.4391   20.8062 C   0  0  0  0  0  0  0  0  0  0  0  0
  -23.0788  -27.6833   23.6718 C   0  0  0  0  0  0  0  0  0  0  0  0
  -25.3333  -30.0106   23.5194 C   0  0  0  0  0  0  0  0  0  0  0  0
  -28.6221  -30.8806   23.7904 C   0  0  0  0  0  0  0  0  0  0  0  0
  -30.4563  -15.2818   20.9640 C   0  0  0  0  0  0  0  0  0  0  0  0
  -19.3477  -30.1648   21.2268 C   0  0  0  0  0  0  0  0  0  0  0  0
  -24.2657  -27.3794   25.8752 C   0  0  0  0  0  0  0  0  0  0  0  0
  -26.1710  -27.6333   23.6280 C   0  0  0  0  0  0  0  0  0  0  0  0
  -30.2685  -21.1801   25.6558 C   0  0  0  0  0  0  0  0  0  0  0  0
  -20.8426  -29.9488   21.0057 C   0  0  0  0  0  0  0  0  0  0  0  0
  -29.8256  -12.4813   18.8576 C   0  0  0  0  0  0  0  0  0  0  0  0
  -21.1940  -28.4706   21.1401 C   0  0  0  0  0  0  0  0  0  0  0  0
  -28.3647  -12.1303   19.1490 C   0  0  0  0  0  0  0  0  0  0  0  0
  -30.5579  -12.9489   20.1141 C   0  0  0  0  0  0  0  0  0  0  0  0
  -28.4423  -13.6912   21.1351 C   0  0  0  0  0  0  0  0  0  0  0  0
  -20.8754  -27.9536   22.5482 C   0  0  1  0  0  0  0  0  0  0  0  0
  -23.9928  -28.3020   24.6913 C   0  0  1  0  0  0  0  0  0  0  0  0
  -27.6460  -13.2768   19.8870 C   0  0  2  0  0  0  0  0  0  0  0  0
  -30.1636  -32.8488   23.5722 C   0  0  0  0  0  0  0  0  0  0  0  0
  -25.1570  -29.8086   20.4800 C   0  0  0  0  0  0  0  0  0  0  0  0
  -27.3239  -31.0549   20.3411 C   0  0  0  0  0  0  0  0  0  0  0  0
  -25.3248  -32.1426   21.3623 C   0  0  0  0  0  0  0  0  0  0  0  0
  -29.4575  -30.6878   26.6231 C   0  0  0  0  0  0  0  0  0  0  0  0
  -27.8387  -22.0312   25.5548 C   0  0  0  0  0  0  0  0  0  1  0  0
  -26.5122  -30.2999   22.6219 C   0  0  1  0  0  0  0  0  0  0  0  0
  -29.3048  -32.0244   24.5186 C   0  0  2  0  0  0  0  0  0  0  0  0
  -26.0776  -30.8023   21.2161 C   0  0  0  0  0  0  0  0  0  0  0  0
  -25.9064  -11.6362   20.4898 N   0  0  0  0  0  0  0  0  0  0  0  0
  -28.5318  -20.1602   24.2003 N   0  0  0  0  0  0  0  0  0  0  0  0
  -26.2104  -12.9174   20.2214 N   0  0  0  0  0  0  0  0  0  0  0  0
  -31.2573  -20.4631   24.8856 N   0  0  0  0  0  0  0  0  0  0  0  0
  -25.2152  -28.6940   23.9868 N   0  0  0  0  0  0  0  0  0  0  0  0
  -29.8213  -14.0389   20.7576 N   0  0  0  0  0  0  0  0  0  0  0  0
  -33.1793  -18.6709   23.8364 N   0  0  0  0  0  0  0  0  0  0  0  0
  -25.2711  -15.0849   20.0469 N   0  0  0  0  0  0  0  0  0  0  0  0
  -21.7340  -12.5021   21.1487 N   0  0  0  0  0  0  0  0  0  0  0  0
  -29.6470  -16.2518   21.5544 N   0  0  0  0  0  0  0  0  0  0  0  0
  -21.8965  -28.3735   23.4838 N   0  0  0  0  0  0  0  0  0  0  0  0
  -27.3627  -31.2328   23.3532 N   0  0  0  0  0  0  0  0  0  0  0  0
  -30.1766  -31.4987   25.6070 N   0  3  0  0  0  0  0  0  0  0  0  0
  -22.3951  -14.6415   20.6541 O   0  0  0  0  0  0  0  0  0  0  0  0
  -23.4215  -26.6566   23.0972 O   0  0  0  0  0  0  0  0  0  0  0  0
  -24.5501  -30.9210   23.8013 O   0  0  0  0  0  0  0  0  0  0  0  0
  -29.1544  -29.7856   23.6228 O   0  0  0  0  0  0  0  0  0  0  0  0
  -31.6232  -15.4800   20.6159 O   0  0  0  0  0  0  0  0  0  0  0  0
  -21.8208   -7.0030   22.0357 O   0  0  0  0  0  0  0  0  0  0  0  0
  -27.8935  -23.1853   24.7173 O   0  0  0  0  0  0  0  0  0  1  0  0
  -18.2661   -7.2258   26.2450 F   0  0  0  0  0  0  0  0  0  0  0  0
  -22.1451   -5.3843   24.2532 F   0  0  0  0  0  0  0  0  0  0  0  0
  1  2  1  0  0  0  0
  1  5  2  0  0  0  0
  2  6  2  0  0  0  0
  3  8  2  0  0  0  0
  3 17  1  0  0  0  0
  4  9  1  0  0  0  0
  4 17  2  0  0  0  0
  5 19  1  0  0  0  0
  6 21  1  0  0  0  0
  7 10  2  0  0  0  0
  7 20  1  0  0  0  0
  8 27  1  0  0  0  0
  9 27  2  0  0  0  0
 10 28  1  0  0  0  0
 11 12  2  0  0  0  0
 11 29  1  0  0  0  0
 12 30  1  0  0  0  0
 13 22  1  0  0  0  0
 13 28  2  0  0  0  0
 14 23  1  0  0  0  0
 14 25  2  0  0  0  0
 15 25  1  0  0  0  0
 15 26  2  0  0  0  0
 16 30  2  0  0  0  0
 16 31  1  0  0  0  0
 17 32  1  0  0  0  0
 18 32  1  0  0  0  0
 18 33  2  0  0  0  0
 18 35  1  0  0  0  0
 19 21  2  0  0  0  0
 19 40  1  0  0  0  0
 20 22  2  0  0  0  0
 20 41  1  0  0  0  0
 21 50  1  0  0  0  0
 22 42  1  0  0  0  0
 23 24  2  0  0  0  0
 23 63  1  0  0  0  0
 24 26  1  0  0  0  0
 24 65  1  0  0  0  0
 25 71  1  0  0  0  0
 26 68  1  0  0  0  0
 27 80  1  0  0  0  0
 28 81  1  0  0  0  0
 29 31  2  0  0  0  0
 29 80  1  0  0  0  0
 30 82  1  0  0  0  0
 31 83  1  0  0  0  0
 32 62  2  0  0  0  0
 33 64  1  0  0  0  0
 33 69  1  0  0  0  0
 34 43  1  0  0  0  0
 34 58  1  0  0  0  0
 34 63  2  0  0  0  0
 35 70  1  0  0  0  0
 35 75  2  0  0  0  0
 36 51  1  0  0  0  0
 36 72  1  0  0  0  0
 36 76  2  0  0  0  0
 37 59  1  0  0  0  0
 37 66  1  0  0  0  0
 37 77  2  0  0  0  0
 38 60  1  0  0  0  0
 38 73  1  0  0  0  0
 38 78  2  0  0  0  0
 39 67  1  0  0  0  0
 39 71  1  0  0  0  0
 39 79  2  0  0  0  0
 40 44  1  0  0  0  0
 41 51  1  0  0  0  0
 42 66  1  0  0  0  0
 43 65  1  0  0  0  0
 44 46  1  0  0  0  0
 45 47  1  0  0  0  0
 45 48  1  0  0  0  0
 46 50  1  0  0  0  0
 47 52  1  0  0  0  0
 48 67  1  0  0  0  0
 49 52  1  0  0  0  0
 49 67  1  0  0  0  0
 50 72  1  0  0  0  0
 51 66  1  0  0  0  0
 52 64  1  0  0  0  0
 53 60  1  0  0  0  0
 54 61  1  0  0  0  0
 55 61  1  0  0  0  0
 56 61  1  0  0  0  0
 57 74  1  0  0  0  0
 58 81  1  0  0  0  0
 59 61  1  0  0  0  0
 59 73  1  0  0  0  0
 60 74  1  0  0  0  0
 62 64  1  0  0  0  0
M  CHG  1  74   1
M  ISO  4  39 100  58 101  71 100  81 101
M  END
> <Batch ID>
0158

> <Smiles>
CNC(C)C(=O)NC(C(=O)N1Cc2cc([101O:1][101CH2:1]C3=Nc4cc([100NH:0][100C:0](=O)N5CCCC(n6nc(-c7ccc(Oc8ccc(F)cc8F)cc7)c(C(N)=O)c6N)C5)cc(N)c4NC3)ccc2CC1C(=O)NC1CCCc2ccccc21)C(C)(C)C

> <Shape>
0.276

> <Color>
0.171

> <Negative vol penalty>
0.000

$$$$

  -OEChem-04052303443D

 90 99  0     1  0  0  0  0  0999 V2000
  -19.6020  -31.6368   14.6652 C   0  0  0  0  0  0  0  0  0  0  0  0
  -20.5862  -30.7079   14.9876 C   0  0  0  0  0  0  0  0  0  0  0  0
  -23.6342   -9.0892   21.4065 C   0  0  0  0  0  0  0  0  0  0  0  0
  -25.8427   -8.9984   22.3819 C   0  0  0  0  0  0  0  0  0  0  0  0
  -19.7455  -32.9671   15.0572 C   0  0  0  0  0  0  0  0  0  0  0  0
  -21.7150  -31.1090   15.7012 C   0  0  0  0  0  0  0  0  0  0  0  0
  -24.8004  -27.8333   19.8553 C   0  0  0  0  0  0  0  0  0  0  0  0
  -23.5180   -7.7058   21.5407 C   0  0  0  0  0  0  0  0  0  0  0  0
  -25.7264   -7.6149   22.5162 C   0  0  0  0  0  0  0  0  0  0  0  0
  -25.9690  -27.0774   19.7741 C   0  0  0  0  0  0  0  0  0  0  0  0
  -22.8302   -5.4909   24.0013 C   0  0  0  0  0  0  0  0  0  0  0  0
  -21.6321   -4.9871   24.5076 C   0  0  0  0  0  0  0  0  0  0  0  0
  -27.2375  -28.9621   20.5852 C   0  0  0  0  0  0  0  0  0  0  0  0
  -21.2953   -3.7377   22.4673 C   0  0  0  0  0  0  0  0  0  0  0  0
  -28.2257  -20.0460   22.3032 C   0  0  0  0  0  0  0  0  0  0  0  0
  -28.1367  -19.3872   20.1648 C   0  0  0  0  0  0  0  0  0  0  0  0
  -24.7966   -9.7356   21.8270 C   0  0  0  0  0  0  0  0  0  0  0  0
  -24.5433  -12.1447   22.6269 C   0  0  0  0  0  0  0  0  0  0  0  0
  -20.8721  -33.3827   15.7843 C   0  0  0  0  0  0  0  0  0  0  0  0
  -24.8431  -29.1651   20.2925 C   0  0  0  0  0  0  0  0  0  0  0  0
  -21.8744  -32.4464   16.1021 C   0  0  0  0  0  0  0  0  0  0  0  0
  -26.0677  -29.7321   20.6735 C   0  0  0  0  0  0  0  0  0  0  0  0
  -28.3652  -18.6757   22.2889 C   0  0  0  0  0  0  0  0  0  0  0  0
  -28.3088  -18.2589   20.9360 C   0  0  0  0  0  0  0  0  0  0  0  0
  -24.5641   -6.9686   22.0956 C   0  0  0  0  0  0  0  0  0  0  0  0
  -27.1882  -27.6426   20.1363 C   0  0  0  0  0  0  0  0  0  0  0  0
  -23.2608   -5.1182   22.7279 C   0  0  0  0  0  0  0  0  0  0  0  0
  -20.8647   -4.1105   23.7407 C   0  0  0  0  0  0  0  0  0  0  0  0
  -22.4934   -4.2416   21.9610 C   0  0  0  0  0  0  0  0  0  0  0  0
  -24.9174  -11.1646   21.6881 C   0  0  0  0  0  0  0  0  0  0  0  0
  -24.8599  -13.3371   22.0232 C   0  0  0  0  0  0  0  0  0  0  0  0
  -29.8075  -25.6550   18.6549 C   0  0  0  0  0  0  0  0  0  0  0  0
  -30.1854  -24.3977   18.9492 C   0  0  0  0  0  0  0  0  0  0  0  0
  -23.9617  -11.9909   23.9283 C   0  0  0  0  0  0  0  0  0  0  0  0
  -24.1258  -31.9763   18.9940 C   0  0  0  0  0  0  0  0  0  0  0  0
  -29.1963  -22.3655   19.9787 C   0  0  0  0  0  0  0  0  0  0  0  0
  -24.7507  -33.0764   21.9809 C   0  0  0  0  0  0  0  0  0  0  0  0
  -26.3441  -32.6160   24.9635 C   0  0  0  0  0  0  0  0  0  0  0  0
  -28.3500  -16.5390   19.0958 C   0  0  0  0  0  0  0  0  0  0  0  0
  -21.0058  -34.8410   16.1451 C   0  0  0  0  0  0  0  0  0  0  0  0
  -23.5700  -29.9588   20.3999 C   0  0  0  0  0  0  0  0  0  0  0  0
  -26.1646  -31.1512   21.1686 C   0  0  0  0  0  0  0  0  0  0  0  0
  -22.0528  -35.1083   17.2233 C   0  0  0  0  0  0  0  0  0  0  0  0
  -26.2227  -14.3557   17.2559 C   0  0  0  0  0  0  0  0  0  0  0  0
  -23.3413  -34.3523   16.9152 C   0  0  0  0  0  0  0  0  0  0  0  0
  -25.6627  -13.4115   18.3222 C   0  0  0  0  0  0  0  0  0  0  0  0
  -27.6784  -14.7262   17.5344 C   0  0  0  0  0  0  0  0  0  0  0  0
  -27.9549  -24.5512   19.6290 C   0  0  0  0  0  0  0  0  0  0  0  0
  -27.3773  -14.3144   19.9446 C   0  0  0  0  0  0  0  0  0  0  0  0
  -23.1015  -32.8378   16.8965 C   0  0  1  0  0  0  0  0  0  0  0  0
  -28.3819  -25.9000   19.0606 C   0  0  1  0  0  0  0  0  0  1  0  0
  -23.8014  -31.4664   20.3697 C   0  0  1  0  0  0  0  0  0  0  0  0
  -25.8939  -13.9645   19.7422 C   0  0  2  0  0  0  0  0  0  0  0  0
  -30.5815  -26.7528   18.0086 C   0  0  0  0  0  0  0  0  0  0  0  0
  -31.5223  -23.7823   18.7038 C   0  0  0  0  0  0  0  0  0  0  0  0
  -26.6960  -33.7037   27.1974 C   0  0  0  0  0  0  0  0  0  0  0  0
  -26.7048  -35.0460   20.7114 C   0  0  0  0  0  0  0  0  0  0  0  0
  -27.6945  -35.4192   22.9806 C   0  0  0  0  0  0  0  0  0  0  0  0
  -25.3074  -36.0026   22.5517 C   0  0  0  0  0  0  0  0  0  0  0  0
  -25.1065  -30.3411   26.3960 C   0  0  0  0  0  0  0  0  0  0  0  0
  -27.5302  -16.1794   25.0611 C   0  0  0  0  0  0  0  0  0  0  0  0
  -26.1069  -17.9238   23.9971 C   0  0  0  0  0  0  0  0  0  0  0  0
  -28.5389  -17.8122   23.4742 C   0  0  0  0  0  0  0  0  0  0  0  0
  -27.9162  -21.8446   20.5897 C   0  0  0  0  0  0  0  0  0  0  0  0
  -25.9811  -33.5704   22.7026 C   0  0  1  0  0  0  0  0  0  0  0  0
  -25.8524  -32.7249   26.3956 C   0  0  2  0  0  0  0  0  0  0  0  0
  -26.4208  -34.9834   22.2254 C   0  0  0  0  0  0  0  0  0  0  0  0
  -25.4322  -11.6889   20.5727 N   0  0  0  0  0  0  0  0  0  0  0  0
  -28.0879  -20.4676   21.0065 N   0  0  0  0  0  0  0  0  0  0  0  0
  -25.3837  -13.0114   20.8067 N   0  0  0  0  0  0  0  0  0  0  0  0
  -29.1472  -23.6877   19.5413 N   0  0  0  0  0  0  0  0  0  0  0  0
  -24.8928  -31.8884   21.2499 N   0  0  0  0  0  0  0  0  0  0  0  0
  -27.8203  -15.2466   18.8960 N   0  0  0  0  0  0  0  0  0  0  0  0
  -24.7385  -14.6218   22.4195 N   0  0  0  0  0  0  0  0  0  0  0  0
  -23.7014  -10.6953   24.3951 N   0  0  0  0  0  0  0  0  0  0  0  0
  -28.4069  -16.9388   20.4305 N   0  0  0  0  0  0  0  0  0  0  0  0
  -23.0165  -32.3229   18.2464 N   0  0  0  0  0  0  0  0  0  0  0  0
  -25.6793  -33.4880   24.1276 N   0  0  0  0  0  0  0  0  0  0  0  0
  -25.9110  -31.3951   27.0659 N   0  3  0  0  0  0  0  0  0  0  0  0
  -27.3145  -17.0389   23.8448 N   0  3  0  0  0  0  0  0  0  0  0  0
  -23.6659  -12.9741   24.6491 O   0  0  0  0  0  0  0  0  0  0  0  0
  -25.2959  -32.0512   18.6378 O   0  0  0  0  0  0  0  0  0  0  0  0
  -30.1738  -21.6193   19.9068 O   0  0  0  0  0  0  0  0  0  0  0  0
  -23.7001  -33.7169   22.0687 O   0  0  0  0  0  0  0  0  0  0  0  0
  -27.2319  -31.8380   24.6214 O   0  0  0  0  0  0  0  0  0  0  0  0
  -28.7003  -17.2500   18.1504 O   0  0  0  0  0  0  0  0  0  0  0  0
  -24.4509   -5.6186   22.2270 O   0  0  0  0  0  0  0  0  0  0  0  0
  -28.3304  -26.9072   20.0573 O   0  0  0  0  0  0  0  0  0  1  0  0
  -19.7149   -3.6256   24.2276 F   0  0  0  0  0  0  0  0  0  0  0  0
  -22.9025   -3.8789   20.7375 F   0  0  0  0  0  0  0  0  0  0  0  0
  1  2  1  0  0  0  0
  1  5  2  0  0  0  0
  2  6  2  0  0  0  0
  3  8  2  0  0  0  0
  3 17  1  0  0  0  0
  4  9  1  0  0  0  0
  4 17  2  0  0  0  0
  5 19  1  0  0  0  0
  6 21  1  0  0  0  0
  7 10  2  0  0  0  0
  7 20  1  0  0  0  0
  8 25  1  0  0  0  0
  9 25  2  0  0  0  0
 10 26  1  0  0  0  0
 11 12  2  0  0  0  0
 11 27  1  0  0  0  0
 12 28  1  0  0  0  0
 13 22  1  0  0  0  0
 13 26  2  0  0  0  0
 14 28  2  0  0  0  0
 14 29  1  0  0  0  0
 15 23  2  0  0  0  0
 15 69  1  0  0  0  0
 16 24  2  0  0  0  0
 16 69  1  0  0  0  0
 17 30  1  0  0  0  0
 18 30  1  0  0  0  0
 18 31  2  0  0  0  0
 18 34  1  0  0  0  0
 19 21  2  0  0  0  0
 19 40  1  0  0  0  0
 20 22  2  0  0  0  0
 20 41  1  0  0  0  0
 21 50  1  0  0  0  0
 22 42  1  0  0  0  0
 23 24  1  0  0  0  0
 23 63  1  0  0  0  0
 24 76  1  0  0  0  0
 25 87  1  0  0  0  0
 26 88  1  0  0  0  0
 27 29  2  0  0  0  0
 27 87  1  0  0  0  0
 28 89  1  0  0  0  0
 29 90  1  0  0  0  0
 30 68  2  0  0  0  0
 31 70  1  0  0  0  0
 31 74  1  0  0  0  0
 32 33  2  0  0  0  0
 32 51  1  0  0  0  0
 32 54  1  0  0  0  0
 33 55  1  0  0  0  0
 33 71  1  0  0  0  0
 34 75  1  0  0  0  0
 34 81  2  0  0  0  0
 35 52  1  0  0  0  0
 35 77  1  0  0  0  0
 35 82  2  0  0  0  0
 36 64  1  0  0  0  0
 36 71  1  0  0  0  0
 36 83  2  0  0  0  0
 37 65  1  0  0  0  0
 37 72  1  0  0  0  0
 37 84  2  0  0  0  0
 38 66  1  0  0  0  0
 38 78  1  0  0  0  0
 38 85  2  0  0  0  0
 39 73  1  0  0  0  0
 39 76  1  0  0  0  0
 39 86  2  0  0  0  0
 40 43  1  0  0  0  0
 41 52  1  0  0  0  0
 42 72  1  0  0  0  0
 43 45  1  0  0  0  0
 44 46  1  0  0  0  0
 44 47  1  0  0  0  0
 45 50  1  0  0  0  0
 46 53  1  0  0  0  0
 47 73  1  0  0  0  0
 48 51  1  0  0  0  0
 48 71  1  0  0  0  0
 49 53  1  0  0  0  0
 49 73  1  0  0  0  0
 50 77  1  0  0  0  0
 51 88  1  0  0  0  0
 52 72  1  0  0  0  0
 53 70  1  0  0  0  0
 56 66  1  0  0  0  0
 57 67  1  0  0  0  0
 58 67  1  0  0  0  0
 59 67  1  0  0  0  0
 60 79  1  0  0  0  0
 61 80  1  0  0  0  0
 62 80  1  0  0  0  0
 63 80  1  0  0  0  0
 64 69  1  0  0  0  0
 65 67  1  0  0  0  0
 65 78  1  0  0  0  0
 66 79  1  0  0  0  0
 68 70  1  0  0  0  0
M  CHG  2  79   1  80   1
M  ISO  4  39 100  51 101  76 100  88 101
M  END
> <Batch ID>
0158

> <Smiles>
CNC(C)C(=O)NC(C(=O)N1Cc2cc([101O:1][101CH:1]3CN(C(=O)Cn4cc(CN(C)C)c([100NH:0][100C:0](=O)N5CCCC(n6nc(-c7ccc(Oc8ccc(F)cc8F)cc7)c(C(N)=O)c6N)C5)c4)C(C)=C3C)ccc2CC1C(=O)NC1CCCc2ccccc21)C(C)(C)C

> <Shape>
0.296

> <Color>
0.102

> <Negative vol penalty>
0.000

$$$$

  -OEChem-04052303443D

 85 94  0     1  0  0  0  0  0999 V2000
  -27.5422  -37.7204   23.2917 C   0  0  0  0  0  0  0  0  0  0  0  0
  -28.0593  -36.7691   22.4182 C   0  0  0  0  0  0  0  0  0  0  0  0
  -27.0500  -10.2044   21.3433 C   0  0  0  0  0  0  0  0  0  0  0  0
  -26.4856  -10.1369   18.9951 C   0  0  0  0  0  0  0  0  0  0  0  0
  -26.7797  -37.3177   24.3873 C   0  0  0  0  0  0  0  0  0  0  0  0
  -27.8152  -35.4144   22.6405 C   0  0  0  0  0  0  0  0  0  0  0  0
  -26.8057  -29.2692   19.1000 C   0  0  0  0  0  0  0  0  0  0  0  0
  -27.8250   -9.0548   21.1901 C   0  0  0  0  0  0  0  0  0  0  0  0
  -27.2606   -8.9873   18.8419 C   0  0  0  0  0  0  0  0  0  0  0  0
  -27.2865  -27.9614   19.0536 C   0  0  0  0  0  0  0  0  0  0  0  0
  -27.3159   -5.7221   20.9487 C   0  0  0  0  0  0  0  0  0  0  0  0
  -27.1818   -4.7184   21.9079 C   0  0  0  0  0  0  0  0  0  0  0  0
  -25.8894  -27.3874   20.9345 C   0  0  0  0  0  0  0  0  0  0  0  0
  -29.5263   -4.9260   22.4531 C   0  0  0  0  0  0  0  0  0  0  0  0
  -28.5973  -20.3653   20.9624 C   0  0  0  0  0  0  0  0  0  0  0  0
  -26.3803  -10.7454   20.2458 C   0  0  0  0  0  0  0  0  0  0  0  0
  -24.4620  -12.0988   21.2440 C   0  0  0  0  0  0  0  0  0  0  0  0
  -26.5180  -35.9579   24.6177 C   0  0  0  0  0  0  0  0  0  0  0  0
  -25.8696  -29.6493   20.0725 C   0  0  0  0  0  0  0  0  0  0  0  0
  -27.0496  -34.9930   23.7410 C   0  0  0  0  0  0  0  0  0  0  0  0
  -25.3963  -28.7000   20.9895 C   0  0  0  0  0  0  0  0  0  0  0  0
  -27.9303   -8.4463   19.9394 C   0  0  0  0  0  0  0  0  0  0  0  0
  -26.8306  -27.0210   19.9727 C   0  0  0  0  0  0  0  0  0  0  0  0
  -28.5553   -6.3277   20.7416 C   0  0  0  0  0  0  0  0  0  0  0  0
  -28.2870   -4.3203   22.6601 C   0  0  0  0  0  0  0  0  0  0  0  0
  -29.6604   -5.9297   21.4938 C   0  0  0  0  0  0  0  0  0  0  0  0
  -25.5791  -11.9326   20.4036 C   0  0  0  0  0  0  0  0  0  0  0  0
  -29.4075  -20.8496   22.0290 C   0  0  0  0  0  0  0  0  0  0  0  0
  -24.0615  -13.3951   21.0303 C   0  0  0  0  0  0  0  0  0  0  0  0
  -28.3595  -19.0175   21.1230 C   0  0  0  0  0  0  0  0  0  0  0  0
  -23.8420  -11.1650   22.1380 C   0  0  0  0  0  0  0  0  0  0  0  0
  -25.8452  -31.7408   22.4660 C   0  0  0  0  0  0  0  0  0  0  0  0
  -28.4976  -24.0506   21.0674 C   0  0  0  0  0  0  0  0  0  0  0  0
  -22.7340  -30.8518   22.6954 C   0  0  0  0  0  0  0  0  0  0  0  0
  -20.8525  -27.7790   22.5069 C   0  0  0  0  0  0  0  0  0  0  0  0
  -26.9271  -18.3006   19.1786 C   0  0  0  0  0  0  0  0  0  0  0  0
  -25.7281  -35.5679   25.8419 C   0  0  0  0  0  0  0  0  0  0  0  0
  -25.3407  -31.0573   20.0924 C   0  0  0  0  0  0  0  0  0  0  0  0
  -24.3765  -29.0522   22.0404 C   0  0  0  0  0  0  0  0  0  0  0  0
  -25.2014  -34.1359   25.7963 C   0  0  0  0  0  0  0  0  0  0  0  0
  -30.0493  -22.7395   24.7097 C   0  0  0  0  0  0  0  0  0  0  0  0
  -28.8499  -23.6759   24.6045 C   0  0  0  0  0  0  0  0  0  0  0  0
  -24.0650  -16.8106   17.6735 C   0  0  0  0  0  0  0  0  0  0  0  0
  -26.3002  -33.1770   25.3492 C   0  0  0  0  0  0  0  0  0  0  0  0
  -30.7951  -22.6299   23.3773 C   0  0  0  0  0  0  0  0  0  0  0  0
  -24.0233  -15.4078   18.2839 C   0  0  0  0  0  0  0  0  0  0  0  0
  -27.9532  -23.2973   23.4316 C   0  0  0  0  0  0  0  0  0  0  0  0
  -25.4977  -17.2774   17.4222 C   0  0  0  0  0  0  0  0  0  0  0  0
  -26.3482  -15.7946   19.1962 C   0  0  0  0  0  0  0  0  0  0  0  0
  -26.7858  -33.5155   23.9345 C   0  0  1  0  0  0  0  0  0  0  0  0
  -29.8742  -22.2964   22.1829 C   0  0  2  0  0  0  0  0  0  0  0  0
  -24.7742  -31.4636   21.4493 C   0  0  1  0  0  0  0  0  0  0  0  0
  -24.9282  -15.3073   19.5275 C   0  0  2  0  0  0  0  0  0  0  0  0
  -18.4671  -27.3645   21.8470 C   0  0  0  0  0  0  0  0  0  0  0  0
  -22.1767  -31.0402   25.6894 C   0  0  0  0  0  0  0  0  0  0  0  0
  -20.5092  -29.1915   25.4246 C   0  0  0  0  0  0  0  0  0  0  0  0
  -20.1686  -31.3562   24.2326 C   0  0  0  0  0  0  0  0  0  0  0  0
  -21.6451  -25.8262   20.4291 C   0  0  0  0  0  0  0  0  0  0  0  0
  -27.3572  -25.0320   21.1654 C   0  0  0  0  0  0  0  0  0  1  0  0
  -21.9811  -29.7793   23.4449 C   0  0  1  0  0  0  0  0  0  0  0  0
  -19.9174  -27.3531   21.3895 C   0  0  2  0  0  0  0  0  0  0  0  0
  -21.2359  -30.3381   24.6899 C   0  0  0  0  0  0  0  0  0  0  0  0
  -25.8695  -13.0351   19.7078 N   0  0  0  0  0  0  0  0  0  0  0  0
  -29.7821  -19.9717   22.9565 N   0  0  0  0  0  0  0  0  0  0  0  0
  -24.9290  -13.9065   20.1105 N   0  0  0  0  0  0  0  0  0  0  0  0
  -23.8945  -30.4432   22.0230 N   0  0  0  0  0  0  0  0  0  0  0  0
  -28.7332  -23.2455   22.1864 N   0  0  0  0  0  0  0  0  0  0  0  0
  -26.2947  -17.1578   18.6451 N   0  0  0  0  0  0  0  0  0  0  0  0
  -23.0553  -14.1359   21.5413 N   0  0  0  0  0  0  0  0  0  0  0  0
  -24.3813   -9.8751   22.2362 N   0  0  0  0  0  0  0  0  0  0  0  0
  -27.6299  -18.0715   20.3610 N   0  0  0  0  0  0  0  0  0  0  0  0
  -25.8419  -33.0359   22.9479 N   0  0  0  0  0  0  0  0  0  0  0  0
  -21.1112  -29.1329   22.4682 N   0  0  0  0  0  0  0  0  0  0  0  0
  -20.2541  -25.9764   20.9287 N   0  3  0  0  0  0  0  0  0  0  0  0
  -22.8294  -11.4604   22.8170 O   0  0  0  0  0  0  0  0  0  0  0  0
  -26.6164  -30.8455   22.7905 O   0  0  0  0  0  0  0  0  0  0  0  0
  -29.1579  -23.9998   20.0263 O   0  0  0  0  0  0  0  0  0  0  0  0
  -22.3043  -32.0081   22.7003 O   0  0  0  0  0  0  0  0  0  0  0  0
  -21.3050  -26.9903   23.3337 O   0  0  0  0  0  0  0  0  0  0  0  0
  -26.8284  -19.4070   18.6418 O   0  0  0  0  0  0  0  0  0  0  0  0
  -28.6866   -7.3246   19.7894 O   0  0  0  0  0  0  0  0  0  0  0  0
  -27.2988  -25.7439   19.9301 O   0  0  0  0  0  0  0  0  0  1  0  0
  -28.1577   -3.3575   23.5823 F   0  0  0  0  0  0  0  0  0  0  0  0
  -30.8534   -6.5087   21.3001 F   0  0  0  0  0  0  0  0  0  0  0  0
  -29.1456  -18.4911   22.5507 S   0  0  0  0  0  0  0  0  0  0  0  0
  1  2  1  0  0  0  0
  1  5  2  0  0  0  0
  2  6  2  0  0  0  0
  3  8  2  0  0  0  0
  3 16  1  0  0  0  0
  4  9  1  0  0  0  0
  4 16  2  0  0  0  0
  5 18  1  0  0  0  0
  6 20  1  0  0  0  0
  7 10  2  0  0  0  0
  7 19  1  0  0  0  0
  8 22  1  0  0  0  0
  9 22  2  0  0  0  0
 10 23  1  0  0  0  0
 11 12  2  0  0  0  0
 11 24  1  0  0  0  0
 12 25  1  0  0  0  0
 13 21  1  0  0  0  0
 13 23  2  0  0  0  0
 14 25  2  0  0  0  0
 14 26  1  0  0  0  0
 15 28  1  0  0  0  0
 15 30  2  0  0  0  0
 16 27  1  0  0  0  0
 17 27  1  0  0  0  0
 17 29  2  0  0  0  0
 17 31  1  0  0  0  0
 18 20  2  0  0  0  0
 18 37  1  0  0  0  0
 19 21  2  0  0  0  0
 19 38  1  0  0  0  0
 20 50  1  0  0  0  0
 21 39  1  0  0  0  0
 22 81  1  0  0  0  0
 23 82  1  0  0  0  0
 24 26  2  0  0  0  0
 24 81  1  0  0  0  0
 25 83  1  0  0  0  0
 26 84  1  0  0  0  0
 27 63  2  0  0  0  0
 28 51  1  0  0  0  0
 28 64  2  0  0  0  0
 29 65  1  0  0  0  0
 29 69  1  0  0  0  0
 30 71  1  0  0  0  0
 30 85  1  0  0  0  0
 31 70  1  0  0  0  0
 31 75  2  0  0  0  0
 32 52  1  0  0  0  0
 32 72  1  0  0  0  0
 32 76  2  0  0  0  0
 33 59  1  0  0  0  0
 33 67  1  0  0  0  0
 33 77  2  0  0  0  0
 34 60  1  0  0  0  0
 34 66  1  0  0  0  0
 34 78  2  0  0  0  0
 35 61  1  0  0  0  0
 35 73  1  0  0  0  0
 35 79  2  0  0  0  0
 36 68  1  0  0  0  0
 36 71  1  0  0  0  0
 36 80  2  0  0  0  0
 37 40  1  0  0  0  0
 38 52  1  0  0  0  0
 39 66  1  0  0  0  0
 40 44  1  0  0  0  0
 41 42  1  0  0  0  0
 41 45  1  0  0  0  0
 42 47  1  0  0  0  0
 43 46  1  0  0  0  0
 43 48  1  0  0  0  0
 44 50  1  0  0  0  0
 45 51  1  0  0  0  0
 46 53  1  0  0  0  0
 47 67  1  0  0  0  0
 48 68  1  0  0  0  0
 49 53  1  0  0  0  0
 49 68  1  0  0  0  0
 50 72  1  0  0  0  0
 51 67  1  0  0  0  0
 52 66  1  0  0  0  0
 53 65  1  0  0  0  0
 54 61  1  0  0  0  0
 55 62  1  0  0  0  0
 56 62  1  0  0  0  0
 57 62  1  0  0  0  0
 58 74  1  0  0  0  0
 59 82  1  0  0  0  0
 60 62  1  0  0  0  0
 60 73  1  0  0  0  0
 61 74  1  0  0  0  0
 63 65  1  0  0  0  0
 64 85  1  0  0  0  0
M  CHG  1  74   1
M  ISO  4  36 100  59 101  71 100  82 101
M  END
> <Batch ID>
0158

> <Smiles>
CNC(C)C(=O)NC(C(=O)N1Cc2cc([101O:1][101CH2:1]C(=O)N3CCCCC3c3cc([100NH:0][100C:0](=O)N4CCCC(n5nc(-c6ccc(Oc7ccc(F)cc7F)cc6)c(C(N)=O)c5N)C4)sn3)ccc2CC1C(=O)NC1CCCc2ccccc21)C(C)(C)C

> <Shape>
0.260

> <Color>
0.082

> <Negative vol penalty>
0.000

$$$$

  -OEChem-04052303443D

 84 92  0     1  0  0  0  0  0999 V2000
  -38.4845  -26.8658   18.7128 C   0  0  0  0  0  0  0  0  0  0  0  0
  -37.6298  -26.0287   19.4229 C   0  0  0  0  0  0  0  0  0  0  0  0
  -23.0752   -9.8656   19.9425 C   0  0  0  0  0  0  0  0  0  0  0  0
  -23.8352   -9.8757   22.2358 C   0  0  0  0  0  0  0  0  0  0  0  0
  -39.8621  -26.7847   18.9119 C   0  0  0  0  0  0  0  0  0  0  0  0
  -38.1523  -25.1092   20.3317 C   0  0  0  0  0  0  0  0  0  0  0  0
  -35.5950  -25.0294   24.7019 C   0  0  0  0  0  0  0  0  0  0  0  0
  -22.3319   -8.7124   20.1938 C   0  0  0  0  0  0  0  0  0  0  0  0
  -23.0918   -8.7225   22.4872 C   0  0  0  0  0  0  0  0  0  0  0  0
  -34.3813  -24.3436   24.7170 C   0  0  0  0  0  0  0  0  0  0  0  0
  -19.8640   -7.9239   23.0908 C   0  0  0  0  0  0  0  0  0  0  0  0
  -19.1071   -7.8851   24.2617 C   0  0  0  0  0  0  0  0  0  0  0  0
  -35.4694  -22.4526   25.7461 C   0  0  0  0  0  0  0  0  0  0  0  0
  -30.2869  -18.9639   23.1165 C   0  0  0  0  0  0  0  0  0  0  0  0
  -20.3494   -5.9491   25.0005 C   0  0  0  0  0  0  0  0  0  0  0  0
  -23.8269  -10.4472   20.9635 C   0  0  0  0  0  0  0  0  0  0  0  0
  -24.1676  -12.9724   20.8404 C   0  0  0  0  0  0  0  0  0  0  0  0
  -40.4011  -25.8704   19.8308 C   0  0  0  0  0  0  0  0  0  0  0  0
  -36.7593  -24.4268   25.1997 C   0  0  0  0  0  0  0  0  0  0  0  0
  -39.5385  -25.0149   20.5423 C   0  0  0  0  0  0  0  0  0  0  0  0
  -36.6961  -23.1338   25.7386 C   0  0  0  0  0  0  0  0  0  0  0  0
  -29.7807  -17.7413   22.7115 C   0  0  0  0  0  0  0  0  0  0  0  0
  -22.3401   -8.1409   21.4662 C   0  0  0  0  0  0  0  0  0  0  0  0
  -34.3189  -23.0539   25.2364 C   0  0  0  0  0  0  0  0  0  0  0  0
  -20.8636   -6.9753   22.8746 C   0  0  0  0  0  0  0  0  0  0  0  0
  -19.3498   -6.8977   25.2166 C   0  0  0  0  0  0  0  0  0  0  0  0
  -21.1063   -5.9879   23.8295 C   0  0  0  0  0  0  0  0  0  0  0  0
  -24.5954  -11.6382   20.7043 C   0  0  0  0  0  0  0  0  0  0  0  0
  -31.5485  -19.3168   22.6815 C   0  0  0  0  0  0  0  0  0  0  0  0
  -30.5696  -16.9528   21.8981 C   0  0  0  0  0  0  0  0  0  0  0  0
  -25.2594  -13.7220   20.4762 C   0  0  0  0  0  0  0  0  0  0  0  0
  -22.8969  -13.4881   21.2587 C   0  0  0  0  0  0  0  0  0  0  0  0
  -39.5653  -23.6006   23.9558 C   0  0  0  0  0  0  0  0  0  0  0  0
  -31.3302  -23.8422   24.6731 C   0  0  0  0  0  0  0  0  0  0  0  0
  -40.2850  -22.8962   27.0393 C   0  0  0  0  0  0  0  0  0  0  0  0
  -39.1729  -22.0634   30.1565 C   0  0  0  0  0  0  0  0  0  0  0  0
  -30.7251  -14.7703   20.6496 C   0  0  0  0  0  0  0  0  0  0  0  0
  -41.8998  -25.7867   19.9773 C   0  0  0  0  0  0  0  0  0  0  0  0
  -38.0554  -25.1900   25.2008 C   0  0  0  0  0  0  0  0  0  0  0  0
  -37.9132  -22.4500   26.3038 C   0  0  0  0  0  0  0  0  0  0  0  0
  -42.3485  -25.0444   21.2335 C   0  0  0  0  0  0  0  0  0  0  0  0
  -29.6118  -12.3531   18.2842 C   0  0  0  0  0  0  0  0  0  0  0  0
  -41.5653  -23.7454   21.3943 C   0  0  0  0  0  0  0  0  0  0  0  0
  -28.1722  -12.0614   18.7142 C   0  0  0  0  0  0  0  0  0  0  0  0
  -30.5268  -12.5838   19.4856 C   0  0  0  0  0  0  0  0  0  0  0  0
  -28.6195  -13.3090   20.8660 C   0  0  0  0  0  0  0  0  0  0  0  0
  -40.0655  -24.0217   21.5551 C   0  0  1  0  0  0  0  0  0  0  0  0
  -39.2818  -24.2848   25.2632 C   0  0  1  0  0  0  0  0  0  0  0  0
  -27.6468  -13.1339   19.6884 C   0  0  2  0  0  0  0  0  0  0  0  0
  -30.8169  -24.8031   23.6383 C   0  0  0  0  0  0  0  0  0  0  0  0
  -39.9995  -21.5151   32.4616 C   0  0  0  0  0  0  0  0  0  0  0  0
  -41.1037  -20.1170   26.0822 C   0  0  0  0  0  0  0  0  0  0  0  0
  -41.0015  -19.3438   28.4612 C   0  0  0  0  0  0  0  0  0  0  0  0
  -42.6231  -21.1193   27.7973 C   0  0  0  0  0  0  0  0  0  0  0  0
  -37.7528  -24.3740   31.3411 C   0  0  0  0  0  0  0  0  0  0  0  0
  -31.3382  -21.4626   23.9374 C   0  0  0  0  0  0  0  0  0  0  0  0
  -32.2019  -22.6873   24.2166 C   0  0  2  0  0  0  0  0  0  1  0  0
  -40.1587  -21.6721   27.9138 C   0  0  1  0  0  0  0  0  0  0  0  0
  -39.5156  -22.6145   31.5288 C   0  0  2  0  0  0  0  0  0  0  0  0
  -41.1990  -20.5749   27.5513 C   0  0  0  0  0  0  0  0  0  0  0  0
  -25.8603  -11.5424   20.2861 N   0  0  0  0  0  0  0  0  0  0  0  0
  -32.2984  -18.5252   21.8858 N   0  0  0  0  0  0  0  0  0  0  0  0
  -31.8007  -17.3238   21.4875 N   0  0  0  0  0  0  0  0  0  0  0  0
  -30.9904  -23.9933   25.9125 N   0  0  0  0  0  0  0  0  0  0  0  0
  -26.2367  -12.8260   20.1562 N   0  0  0  0  0  0  0  0  0  0  0  0
  -39.1584  -23.2350   26.2765 N   0  0  0  0  0  0  0  0  0  0  0  0
  -29.9673  -13.6154   20.3617 N   0  0  0  0  0  0  0  0  0  0  0  0
  -28.4985  -17.3396   23.1308 N   0  0  0  0  0  0  0  0  0  0  0  0
  -25.4692  -15.0534   20.4016 N   0  0  0  0  0  0  0  0  0  0  0  0
  -21.8854  -12.5789   21.5971 N   0  0  0  0  0  0  0  0  0  0  0  0
  -30.0773  -15.6960   21.4669 N   0  0  0  0  0  0  0  0  0  0  0  0
  -32.0554  -20.5403   23.0874 N   0  0  0  0  0  0  0  0  0  0  0  0
  -39.7753  -24.4680   22.9008 N   0  0  0  0  0  0  0  0  0  0  0  0
  -40.2438  -22.1442   29.2916 N   0  0  0  0  0  0  0  0  0  0  0  0
  -38.3196  -23.2584   32.1418 N   0  3  0  0  0  0  0  0  0  0  0  0
  -22.6600  -14.7187   21.3146 O   0  0  0  0  0  0  0  0  0  0  0  0
  -39.5931  -22.3764   23.9081 O   0  0  0  0  0  0  0  0  0  0  0  0
  -41.3418  -23.5325   27.0386 O   0  0  0  0  0  0  0  0  0  0  0  0
  -38.0671  -21.6035   29.8805 O   0  0  0  0  0  0  0  0  0  0  0  0
  -31.8541  -14.9390   20.1817 O   0  0  0  0  0  0  0  0  0  0  0  0
  -21.6147   -7.0157   21.7119 O   0  0  0  0  0  0  0  0  0  0  0  0
  -33.1355  -22.3821   25.2517 O   0  0  0  0  0  0  0  0  0  1  0  0
  -18.6239   -6.8614   26.3417 F   0  0  0  0  0  0  0  0  0  0  0  0
  -22.0660   -5.0746   23.6279 F   0  0  0  0  0  0  0  0  0  0  0  0
  1  2  1  0  0  0  0
  1  5  2  0  0  0  0
  2  6  2  0  0  0  0
  3  8  2  0  0  0  0
  3 16  1  0  0  0  0
  4  9  1  0  0  0  0
  4 16  2  0  0  0  0
  5 18  1  0  0  0  0
  6 20  1  0  0  0  0
  7 10  2  0  0  0  0
  7 19  1  0  0  0  0
  8 23  1  0  0  0  0
  9 23  2  0  0  0  0
 10 24  1  0  0  0  0
 11 12  2  0  0  0  0
 11 25  1  0  0  0  0
 12 26  1  0  0  0  0
 13 21  1  0  0  0  0
 13 24  2  0  0  0  0
 14 22  2  0  0  0  0
 14 29  1  0  0  0  0
 15 26  2  0  0  0  0
 15 27  1  0  0  0  0
 16 28  1  0  0  0  0
 17 28  1  0  0  0  0
 17 31  2  0  0  0  0
 17 32  1  0  0  0  0
 18 20  2  0  0  0  0
 18 38  1  0  0  0  0
 19 21  2  0  0  0  0
 19 39  1  0  0  0  0
 20 47  1  0  0  0  0
 21 40  1  0  0  0  0
 22 30  1  0  0  0  0
 22 68  1  0  0  0  0
 23 81  1  0  0  0  0
 24 82  1  0  0  0  0
 25 27  2  0  0  0  0
 25 81  1  0  0  0  0
 26 83  1  0  0  0  0
 27 84  1  0  0  0  0
 28 61  2  0  0  0  0
 29 62  2  0  0  0  0
 29 72  1  0  0  0  0
 30 63  2  0  0  0  0
 30 71  1  0  0  0  0
 31 65  1  0  0  0  0
 31 69  1  0  0  0  0
 32 70  1  0  0  0  0
 32 76  2  0  0  0  0
 33 48  1  0  0  0  0
 33 73  1  0  0  0  0
 33 77  2  0  0  0  0
 34 50  1  0  0  0  0
 34 57  1  0  0  0  0
 34 64  2  0  0  0  0
 35 58  1  0  0  0  0
 35 66  1  0  0  0  0
 35 78  2  0  0  0  0
 36 59  1  0  0  0  0
 36 74  1  0  0  0  0
 36 79  2  0  0  0  0
 37 67  1  0  0  0  0
 37 71  1  0  0  0  0
 37 80  2  0  0  0  0
 38 41  1  0  0  0  0
 39 48  1  0  0  0  0
 40 66  1  0  0  0  0
 41 43  1  0  0  0  0
 42 44  1  0  0  0  0
 42 45  1  0  0  0  0
 43 47  1  0  0  0  0
 44 49  1  0  0  0  0
 45 67  1  0  0  0  0
 46 49  1  0  0  0  0
 46 67  1  0  0  0  0
 47 73  1  0  0  0  0
 48 66  1  0  0  0  0
 49 65  1  0  0  0  0
 51 59  1  0  0  0  0
 52 60  1  0  0  0  0
 53 60  1  0  0  0  0
 54 60  1  0  0  0  0
 55 75  1  0  0  0  0
 56 57  1  0  0  0  0
 56 72  1  0  0  0  0
 57 82  1  0  0  0  0
 58 60  1  0  0  0  0
 58 74  1  0  0  0  0
 59 75  1  0  0  0  0
 61 65  1  0  0  0  0
 62 63  1  0  0  0  0
M  CHG  1  75   1
M  ISO  4  37 100  57 101  71 100  82 101
M  END
> <Batch ID>
0158

> <Smiles>
CNC(C)C(=O)NC(C(=O)N1Cc2cc([101O:1][101CH:1](CNc3cc(N)c([100NH:0][100C:0](=O)N4CCCC(n5nc(-c6ccc(Oc7ccc(F)cc7F)cc6)c(C(N)=O)c5N)C4)nn3)C(C)=N)ccc2CC1C(=O)NC1CCCc2ccccc21)C(C)(C)C

> <Shape>
0.170

> <Color>
0.172

> <Negative vol penalty>
0.000

$$$$

  -OEChem-04052303443D

 84 92  0     1  0  0  0  0  0999 V2000
  -23.8484  -18.5309   21.5703 C   0  0  0  0  0  0  0  0  0  0  0  0
  -25.0397  -18.7903   22.2404 C   0  0  0  0  0  0  0  0  0  0  0  0
  -22.9995   -9.8935   19.9822 C   0  0  0  0  0  0  0  0  0  0  0  0
  -23.7222   -9.9481   22.2869 C   0  0  0  0  0  0  0  0  0  0  0  0
  -23.0648  -19.5880   21.1095 C   0  0  0  0  0  0  0  0  0  0  0  0
  -25.4485  -20.1070   22.4492 C   0  0  0  0  0  0  0  0  0  0  0  0
  -27.1201  -20.8979   27.1635 C   0  0  0  0  0  0  0  0  0  0  0  0
  -22.2325   -8.7596   20.2495 C   0  0  0  0  0  0  0  0  0  0  0  0
  -22.9551   -8.8142   22.5542 C   0  0  0  0  0  0  0  0  0  0  0  0
  -28.4083  -20.4578   27.4646 C   0  0  0  0  0  0  0  0  0  0  0  0
  -21.4716   -5.7234   23.7609 C   0  0  0  0  0  0  0  0  0  0  0  0
  -22.0565   -4.7087   24.5184 C   0  0  0  0  0  0  0  0  0  0  0  0
  -31.7567  -18.7315   22.3824 C   0  0  0  0  0  0  0  0  0  0  0  0
  -31.8117  -17.4907   21.7038 C   0  0  0  0  0  0  0  0  0  0  0  0
  -29.2345  -22.7075   27.1900 C   0  0  0  0  0  0  0  0  0  0  0  0
  -23.7846   -4.4584   22.8487 C   0  0  0  0  0  0  0  0  0  0  0  0
  -23.7445  -10.4877   21.0009 C   0  0  0  0  0  0  0  0  0  0  0  0
  -24.1306  -13.0029   20.8212 C   0  0  0  0  0  0  0  0  0  0  0  0
  -23.4594  -20.9185   21.3212 C   0  0  0  0  0  0  0  0  0  0  0  0
  -26.8809  -22.2464   26.8623 C   0  0  0  0  0  0  0  0  0  0  0  0
  -24.6701  -21.1828   21.9896 C   0  0  0  0  0  0  0  0  0  0  0  0
  -27.9420  -23.1626   26.8879 C   0  0  0  0  0  0  0  0  0  0  0  0
  -22.2102   -8.2200   21.5355 C   0  0  0  0  0  0  0  0  0  0  0  0
  -29.4662  -21.3621   27.4750 C   0  0  0  0  0  0  0  0  0  0  0  0
  -22.0431   -6.1056   22.5473 C   0  0  0  0  0  0  0  0  0  0  0  0
  -23.2131   -4.0762   24.0623 C   0  0  0  0  0  0  0  0  0  0  0  0
  -23.1996   -5.4731   22.0912 C   0  0  0  0  0  0  0  0  0  0  0  0
  -24.5375  -11.6587   20.7252 C   0  0  0  0  0  0  0  0  0  0  0  0
  -30.5086  -18.7979   22.9567 C   0  0  0  0  0  0  0  0  0  0  0  0
  -25.2409  -13.7247   20.4569 C   0  0  0  0  0  0  0  0  0  0  0  0
  -30.5934  -16.8871   21.9121 C   0  0  0  0  0  0  0  0  0  0  0  0
  -22.8623  -13.5503   21.2055 C   0  0  0  0  0  0  0  0  0  0  0  0
  -25.7928  -23.8187   24.3230 C   0  0  0  0  0  0  0  0  0  0  0  0
  -25.9270  -26.3650   26.3282 C   0  0  0  0  0  0  0  0  0  0  0  0
  -27.2915  -27.7917   29.1119 C   0  0  0  0  0  0  0  0  0  0  0  0
  -30.2175  -19.2238   26.1849 C   0  0  0  0  0  0  0  0  0  0  0  0
  -30.7203  -14.6848   20.6955 C   0  0  0  0  0  0  0  0  0  0  0  0
  -22.6028  -22.0273   20.7632 C   0  0  0  0  0  0  0  0  0  0  0  0
  -25.4811  -22.7101   26.5658 C   0  0  0  0  0  0  0  0  0  0  0  0
  -27.7346  -24.6247   26.5915 C   0  0  0  0  0  0  0  0  0  0  0  0
  -22.9202  -23.3985   21.3543 C   0  0  0  0  0  0  0  0  0  0  0  0
  -29.6040  -12.2286   18.3721 C   0  0  0  0  0  0  0  0  0  0  0  0
  -24.4270  -23.6345   21.3764 C   0  0  0  0  0  0  0  0  0  0  0  0
  -28.1529  -11.9719   18.7851 C   0  0  0  0  0  0  0  0  0  0  0  0
  -30.5033  -12.4736   19.5825 C   0  0  0  0  0  0  0  0  0  0  0  0
  -28.5866  -13.2650   20.9127 C   0  0  0  0  0  0  0  0  0  0  0  0
  -25.1350  -22.5979   22.2572 C   0  0  1  0  0  0  0  0  0  0  0  0
  -25.4385  -24.0113   25.7705 C   0  0  1  0  0  0  0  0  0  0  0  0
  -27.6302  -13.0771   19.7237 C   0  0  2  0  0  0  0  0  0  0  0  0
  -29.6710  -21.1797   23.0878 C   0  0  0  0  0  0  0  0  0  0  0  0
  -27.2311  -29.8958   30.4781 C   0  0  0  0  0  0  0  0  0  0  0  0
  -30.7216  -18.6932   28.6106 C   0  0  0  0  0  0  0  0  0  0  0  0
  -32.5455  -19.5627   27.1021 C   0  0  0  0  0  0  0  0  0  0  0  0
  -27.6038  -27.7849   24.2111 C   0  0  0  0  0  0  0  0  0  0  0  0
  -28.2935  -29.4344   25.9637 C   0  0  0  0  0  0  0  0  0  0  0  0
  -25.8910  -29.2270   25.3252 C   0  0  0  0  0  0  0  0  0  0  0  0
  -26.3561  -26.3416   31.5163 C   0  0  0  0  0  0  0  0  0  0  0  0
  -29.8138  -19.8397   23.8066 C   0  0  2  0  0  0  0  0  0  0  0  0
  -26.9753  -27.3913   26.6842 C   0  0  1  0  0  0  0  0  0  0  0  0
  -26.6566  -28.4997   30.2952 C   0  0  2  0  0  0  0  0  0  0  0  0
  -31.0520  -19.5906   27.4190 C   0  0  0  0  0  0  0  0  0  1  0  0
  -27.1955  -28.4316   25.5498 C   0  0  0  0  0  0  0  0  0  0  0  0
  -25.8072  -11.5313   20.3307 N   0  0  0  0  0  0  0  0  0  0  0  0
  -26.2076  -12.8047   20.1755 N   0  0  0  0  0  0  0  0  0  0  0  0
  -26.3488  -25.0281   26.3012 N   0  0  0  0  0  0  0  0  0  0  0  0
  -29.9476  -13.5360   20.4236 N   0  0  0  0  0  0  0  0  0  0  0  0
  -25.4748  -15.0502   20.3530 N   0  0  0  0  0  0  0  0  0  0  0  0
  -21.8299  -12.6669   21.5493 N   0  0  0  0  0  0  0  0  0  0  0  0
  -30.0755  -15.6414   21.4789 N   0  0  0  0  0  0  0  0  0  0  0  0
  -24.9724  -22.9284   23.6567 N   0  0  0  0  0  0  0  0  0  0  0  0
  -30.4828  -20.0123   25.0761 N   0  0  0  0  0  0  0  0  0  0  0  0
  -26.5614  -27.9732   27.9564 N   0  0  0  0  0  0  0  0  0  0  0  0
  -26.8912  -27.7271   31.5478 N   0  3  0  0  0  0  0  0  0  0  0  0
  -22.6458  -14.7857   21.2270 O   0  0  0  0  0  0  0  0  0  0  0  0
  -26.7393  -24.4334   23.8457 O   0  0  0  0  0  0  0  0  0  0  0  0
  -24.7747  -26.7351   26.0901 O   0  0  0  0  0  0  0  0  0  0  0  0
  -28.3332  -27.1457   29.2028 O   0  0  0  0  0  0  0  0  0  0  0  0
  -29.3964  -18.3071   26.2049 O   0  0  0  0  0  0  0  0  0  0  0  0
  -31.8595  -14.8227   20.2425 O   0  0  0  0  0  0  0  0  0  0  0  0
  -29.7933  -17.6774   22.6749 O   0  0  0  0  0  0  0  0  0  0  0  0
  -21.4616   -7.1137   21.7968 O   0  0  0  0  0  0  0  0  0  0  0  0
  -30.7247  -20.9350   27.7678 O   0  0  0  0  0  0  0  0  0  1  0  0
  -23.7756   -3.1029   24.7906 F   0  0  0  0  0  0  0  0  0  0  0  0
  -23.7540   -5.8368   20.9266 F   0  0  0  0  0  0  0  0  0  0  0  0
  1  2  1  0  0  0  0
  1  5  2  0  0  0  0
  2  6  2  0  0  0  0
  3  8  2  0  0  0  0
  3 17  1  0  0  0  0
  4  9  1  0  0  0  0
  4 17  2  0  0  0  0
  5 19  1  0  0  0  0
  6 21  1  0  0  0  0
  7 10  2  0  0  0  0
  7 20  1  0  0  0  0
  8 23  1  0  0  0  0
  9 23  2  0  0  0  0
 10 24  1  0  0  0  0
 11 12  2  0  0  0  0
 11 25  1  0  0  0  0
 12 26  1  0  0  0  0
 13 14  1  0  0  0  0
 13 29  2  0  0  0  0
 14 31  2  0  0  0  0
 15 22  1  0  0  0  0
 15 24  2  0  0  0  0
 16 26  2  0  0  0  0
 16 27  1  0  0  0  0
 17 28  1  0  0  0  0
 18 28  1  0  0  0  0
 18 30  2  0  0  0  0
 18 32  1  0  0  0  0
 19 21  2  0  0  0  0
 19 38  1  0  0  0  0
 20 22  2  0  0  0  0
 20 39  1  0  0  0  0
 21 47  1  0  0  0  0
 22 40  1  0  0  0  0
 23 81  1  0  0  0  0
 24 82  1  0  0  0  0
 25 27  2  0  0  0  0
 25 81  1  0  0  0  0
 26 83  1  0  0  0  0
 27 84  1  0  0  0  0
 28 63  2  0  0  0  0
 29 58  1  0  0  0  0
 29 80  1  0  0  0  0
 30 64  1  0  0  0  0
 30 67  1  0  0  0  0
 31 69  1  0  0  0  0
 31 80  1  0  0  0  0
 32 68  1  0  0  0  0
 32 74  2  0  0  0  0
 33 48  1  0  0  0  0
 33 70  1  0  0  0  0
 33 75  2  0  0  0  0
 34 59  1  0  0  0  0
 34 65  1  0  0  0  0
 34 76  2  0  0  0  0
 35 60  1  0  0  0  0
 35 72  1  0  0  0  0
 35 77  2  0  0  0  0
 36 61  1  0  0  0  0
 36 71  1  0  0  0  0
 36 78  2  0  0  0  0
 37 66  1  0  0  0  0
 37 69  1  0  0  0  0
 37 79  2  0  0  0  0
 38 41  1  0  0  0  0
 39 48  1  0  0  0  0
 40 65  1  0  0  0  0
 41 43  1  0  0  0  0
 42 44  1  0  0  0  0
 42 45  1  0  0  0  0
 43 47  1  0  0  0  0
 44 49  1  0  0  0  0
 45 66  1  0  0  0  0
 46 49  1  0  0  0  0
 46 66  1  0  0  0  0
 47 70  1  0  0  0  0
 48 65  1  0  0  0  0
 49 64  1  0  0  0  0
 50 58  1  0  0  0  0
 51 60  1  0  0  0  0
 52 61  1  0  0  0  0
 53 61  1  0  0  0  0
 54 62  1  0  0  0  0
 55 62  1  0  0  0  0
 56 62  1  0  0  0  0
 57 73  1  0  0  0  0
 58 71  1  0  0  0  0
 59 62  1  0  0  0  0
 59 72  1  0  0  0  0
 60 73  1  0  0  0  0
 61 82  1  0  0  0  0
 63 64  1  0  0  0  0
M  CHG  1  73   1
M  ISO  4  37 100  61 101  69 100  82 101
M  END
> <Batch ID>
0158

> <Smiles>
CNC(C)C(=O)NC(C(=O)N1Cc2cc([101O:1][101C:1](C)(C)C(=O)NC(C)c3ccc([100NH:0][100C:0](=O)N4CCCC(n5nc(-c6ccc(Oc7ccc(F)cc7F)cc6)c(C(N)=O)c5N)C4)o3)ccc2CC1C(=O)NC1CCCc2ccccc21)C(C)(C)C

> <Shape>
0.182

> <Color>
0.190

> <Negative vol penalty>
0.000

$$$$

  -OEChem-04052303443D

 86 94  0     1  0  0  0  0  0999 V2000
  -19.1802  -32.0674   21.5172 C   0  0  0  0  0  0  0  0  0  0  0  0
  -20.3385  -31.3238   21.7192 C   0  0  0  0  0  0  0  0  0  0  0  0
  -23.1038   -9.8043   20.7267 C   0  0  0  0  0  0  0  0  0  0  0  0
  -23.7582  -10.4101   22.9720 C   0  0  0  0  0  0  0  0  0  0  0  0
  -17.9739  -31.6409   22.0711 C   0  0  0  0  0  0  0  0  0  0  0  0
  -20.2914  -30.1537   22.4763 C   0  0  0  0  0  0  0  0  0  0  0  0
  -23.5823  -25.0644   21.5965 C   0  0  0  0  0  0  0  0  0  0  0  0
  -22.3558   -8.7408   21.2316 C   0  0  0  0  0  0  0  0  0  0  0  0
  -23.0101   -9.3466   23.4770 C   0  0  0  0  0  0  0  0  0  0  0  0
  -24.7472  -24.5856   22.1943 C   0  0  0  0  0  0  0  0  0  0  0  0
  -22.9328   -5.6171   22.3866 C   0  0  0  0  0  0  0  0  0  0  0  0
  -23.0482   -4.3832   21.7467 C   0  0  0  0  0  0  0  0  0  0  0  0
  -31.6280  -19.2512   23.0428 C   0  0  0  0  0  0  0  0  0  0  0  0
  -31.9245  -17.1416   21.9032 C   0  0  0  0  0  0  0  0  0  0  0  0
  -23.4181  -23.2481   23.6989 C   0  0  0  0  0  0  0  0  0  0  0  0
  -29.7108  -18.0739   22.1623 C   0  0  0  0  0  0  0  0  0  0  0  0
  -20.6813   -4.4128   21.2628 C   0  0  0  0  0  0  0  0  0  0  0  0
  -23.8050  -10.6390   21.5969 C   0  0  0  0  0  0  0  0  0  0  0  0
  -32.4647  -18.2373   22.5766 C   0  0  0  0  0  0  0  0  0  0  0  0
  -24.1378  -13.0551   20.8490 C   0  0  0  0  0  0  0  0  0  0  0  0
  -17.9101  -30.4599   22.8273 C   0  0  0  0  0  0  0  0  0  0  0  0
  -22.3242  -24.6463   22.0532 C   0  0  0  0  0  0  0  0  0  0  0  0
  -19.0834  -29.7118   23.0420 C   0  0  0  0  0  0  0  0  0  0  0  0
  -22.2388  -23.7211   23.1034 C   0  0  0  0  0  0  0  0  0  0  0  0
  -30.2510  -19.1695   22.8356 C   0  0  0  0  0  0  0  0  0  0  0  0
  -30.5475  -17.0600   21.6960 C   0  0  0  0  0  0  0  0  0  0  0  0
  -22.3089   -8.5119   22.6067 C   0  0  0  0  0  0  0  0  0  0  0  0
  -24.6652  -23.6795   23.2476 C   0  0  0  0  0  0  0  0  0  0  0  0
  -21.6917   -6.2489   22.4648 C   0  0  0  0  0  0  0  0  0  0  0  0
  -21.9225   -3.7810   21.1847 C   0  0  0  0  0  0  0  0  0  0  0  0
  -20.5659   -5.6468   21.9028 C   0  0  0  0  0  0  0  0  0  0  0  0
  -24.5784  -11.7374   21.0759 C   0  0  0  0  0  0  0  0  0  0  0  0
  -25.2412  -13.7054   20.3529 C   0  0  0  0  0  0  0  0  0  0  0  0
  -26.3651  -22.0748   23.3255 C   0  0  0  0  0  0  0  0  0  1  0  0
  -33.8924  -18.3220   22.7910 C   0  0  0  0  0  0  0  0  0  0  0  0
  -22.8466  -13.6390   21.0673 C   0  0  0  0  0  0  0  0  0  0  0  0
  -27.4803  -21.5266   23.8229 C   0  0  0  0  0  0  0  0  0  0  0  0
  -28.0206  -20.2779   23.1927 C   0  0  0  0  0  0  0  0  0  0  0  0
  -19.8080  -26.1008   23.3404 C   0  0  0  0  0  0  0  0  0  0  0  0
  -18.4548  -23.1669   23.0519 C   0  0  0  0  0  0  0  0  0  0  0  0
  -18.8837  -19.7903   22.8036 C   0  0  0  0  0  0  0  0  0  0  0  0
  -30.6877  -14.8543   20.4870 C   0  0  0  0  0  0  0  0  0  0  0  0
  -16.5926  -30.0642   23.4457 C   0  0  0  0  0  0  0  0  0  0  0  0
  -21.0776  -25.1516   21.3800 C   0  0  0  0  0  0  0  0  0  0  0  0
  -20.9128  -23.2253   23.6176 C   0  0  0  0  0  0  0  0  0  0  0  0
  -16.5542  -28.6142   23.9215 C   0  0  0  0  0  0  0  0  0  0  0  0
  -29.6961  -11.8967   18.7705 C   0  0  0  0  0  0  0  0  0  0  0  0
  -17.8159  -28.2775   24.7100 C   0  0  0  0  0  0  0  0  0  0  0  0
  -28.2400  -11.7000   19.1986 C   0  0  0  0  0  0  0  0  0  0  0  0
  -30.5541  -12.4406   19.9114 C   0  0  0  0  0  0  0  0  0  0  0  0
  -28.5821  -13.4613   20.9784 C   0  0  0  0  0  0  0  0  0  0  0  0
  -19.0678  -28.4239   23.8366 C   0  0  1  0  0  0  0  0  0  0  0  0
  -19.8387  -25.0523   22.2646 C   0  0  1  0  0  0  0  0  0  0  0  0
  -27.6650  -12.9762   19.8439 C   0  0  2  0  0  0  0  0  0  0  0  0
  -17.5891  -17.6484   22.6195 C   0  0  0  0  0  0  0  0  0  0  0  0
  -17.7686  -23.3292   26.0205 C   0  0  0  0  0  0  0  0  0  0  0  0
  -17.3614  -20.8591   25.9901 C   0  0  0  0  0  0  0  0  0  0  0  0
  -15.9611  -22.3697   24.5829 C   0  0  0  0  0  0  0  0  0  0  0  0
  -20.0986  -19.1459   20.1830 C   0  0  0  0  0  0  0  0  0  0  0  0
  -18.3648  -21.9403   23.9273 C   0  0  1  0  0  0  0  0  0  0  0  0
  -18.2845  -18.7657   21.8572 C   0  0  2  0  0  0  0  0  0  0  0  0
  -17.3891  -22.1352   25.1220 C   0  0  0  0  0  0  0  0  0  0  0  0
  -25.8615  -11.5595   20.7504 N   0  0  0  0  0  0  0  0  0  0  0  0
  -26.2367  -12.7740   20.3139 N   0  0  0  0  0  0  0  0  0  0  0  0
  -19.7225  -23.7535   22.9309 N   0  0  0  0  0  0  0  0  0  0  0  0
  -29.9499  -13.6517   20.4709 N   0  0  0  0  0  0  0  0  0  0  0  0
  -25.4472  -14.9774   19.9504 N   0  0  0  0  0  0  0  0  0  0  0  0
  -34.4225  -19.3734   23.4381 N   0  0  0  0  0  0  0  0  0  0  0  0
  -21.8255  -12.8290   21.5826 N   0  0  0  0  0  0  0  0  0  0  0  0
  -29.4017  -20.1989   23.3085 N   0  0  0  0  0  0  0  0  0  0  0  0
  -29.9985  -15.9465   21.0129 N   0  0  0  0  0  0  0  0  0  0  0  0
  -19.2059  -27.2837   22.9560 N   0  0  0  0  0  0  0  0  0  0  0  0
  -18.0144  -20.8333   23.0441 N   0  0  0  0  0  0  0  0  0  0  0  0
  -34.7066  -17.3496   22.3475 N   0  3  0  0  0  0  0  0  0  0  0  0
  -19.3485  -18.1624   21.0058 N   0  3  0  0  0  0  0  0  0  0  0  0
  -22.6011  -14.8392   20.7975 O   0  0  0  0  0  0  0  0  0  0  0  0
  -27.2720  -19.4678   22.6570 O   0  0  0  0  0  0  0  0  0  0  0  0
  -20.2932  -25.8544   24.4383 O   0  0  0  0  0  0  0  0  0  0  0  0
  -17.4392  -23.5848   22.4902 O   0  0  0  0  0  0  0  0  0  0  0  0
  -20.0088  -19.6750   23.2845 O   0  0  0  0  0  0  0  0  0  0  0  0
  -31.8360  -14.9172   20.0404 O   0  0  0  0  0  0  0  0  0  0  0  0
  -28.1577  -22.0671   24.8969 O   0  0  0  0  0  0  0  0  0  0  0  0
  -21.5789   -7.4744   23.0998 O   0  0  0  0  0  0  0  0  0  0  0  0
  -25.8007  -23.2111   23.8334 O   0  0  0  0  0  0  0  0  0  1  0  0
  -22.0337   -2.5967   20.5688 F   0  0  0  0  0  0  0  0  0  0  0  0
  -19.3711   -6.2495   21.9737 F   0  0  0  0  0  0  0  0  0  0  0  0
  1  2  1  0  0  0  0
  1  5  2  0  0  0  0
  2  6  2  0  0  0  0
  3  8  2  0  0  0  0
  3 18  1  0  0  0  0
  4  9  1  0  0  0  0
  4 18  2  0  0  0  0
  5 21  1  0  0  0  0
  6 23  1  0  0  0  0
  7 10  2  0  0  0  0
  7 22  1  0  0  0  0
  8 27  1  0  0  0  0
  9 27  2  0  0  0  0
 10 28  1  0  0  0  0
 11 12  2  0  0  0  0
 11 29  1  0  0  0  0
 12 30  1  0  0  0  0
 13 19  1  0  0  0  0
 13 25  2  0  0  0  0
 14 19  2  0  0  0  0
 14 26  1  0  0  0  0
 15 24  1  0  0  0  0
 15 28  2  0  0  0  0
 16 25  1  0  0  0  0
 16 26  2  0  0  0  0
 17 30  2  0  0  0  0
 17 31  1  0  0  0  0
 18 32  1  0  0  0  0
 19 35  1  0  0  0  0
 20 32  1  0  0  0  0
 20 33  2  0  0  0  0
 20 36  1  0  0  0  0
 21 23  2  0  0  0  0
 21 43  1  0  0  0  0
 22 24  2  0  0  0  0
 22 44  1  0  0  0  0
 23 52  1  0  0  0  0
 24 45  1  0  0  0  0
 25 70  1  0  0  0  0
 26 71  1  0  0  0  0
 27 83  1  0  0  0  0
 28 84  1  0  0  0  0
 29 31  2  0  0  0  0
 29 83  1  0  0  0  0
 30 85  1  0  0  0  0
 31 86  1  0  0  0  0
 32 63  2  0  0  0  0
 33 64  1  0  0  0  0
 33 67  1  0  0  0  0
 34 37  2  0  0  0  0
 34 84  1  0  0  0  0
 35 68  1  0  0  0  0
 35 74  2  0  0  0  0
 36 69  1  0  0  0  0
 36 76  2  0  0  0  0
 37 38  1  0  0  0  0
 37 82  1  0  0  0  0
 38 70  1  0  0  0  0
 38 77  2  0  0  0  0
 39 53  1  0  0  0  0
 39 72  1  0  0  0  0
 39 78  2  0  0  0  0
 40 60  1  0  0  0  0
 40 65  1  0  0  0  0
 40 79  2  0  0  0  0
 41 61  1  0  0  0  0
 41 73  1  0  0  0  0
 41 80  2  0  0  0  0
 42 66  1  0  0  0  0
 42 71  1  0  0  0  0
 42 81  2  0  0  0  0
 43 46  1  0  0  0  0
 44 53  1  0  0  0  0
 45 65  1  0  0  0  0
 46 48  1  0  0  0  0
 47 49  1  0  0  0  0
 47 50  1  0  0  0  0
 48 52  1  0  0  0  0
 49 54  1  0  0  0  0
 50 66  1  0  0  0  0
 51 54  1  0  0  0  0
 51 66  1  0  0  0  0
 52 72  1  0  0  0  0
 53 65  1  0  0  0  0
 54 64  1  0  0  0  0
 55 61  1  0  0  0  0
 56 62  1  0  0  0  0
 57 62  1  0  0  0  0
 58 62  1  0  0  0  0
 59 75  1  0  0  0  0
 60 62  1  0  0  0  0
 60 73  1  0  0  0  0
 61 75  1  0  0  0  0
 63 64  1  0  0  0  0
M  CHG  2  74   1  75   1
M  ISO  4  34 101  42 100  71 100  84 101
M  END
> <Batch ID>
0158

> <Smiles>
CNC(C)C(=O)NC(C(=O)N1Cc2cc([101O:1][101CH2:1]C(=O)C(=O)Nc3cc([100NH:0][100C:0](=O)N4CCCC(n5nc(-c6ccc(Oc7ccc(F)cc7F)cc6)c(C(N)=O)c5N)C4)cc(C(=N)N)c3)ccc2CC1C(=O)NC1CCCc2ccccc21)C(C)(C)C

> <Shape>
0.219

> <Color>
0.164

> <Negative vol penalty>
0.000

$$$$

  -OEChem-04052303443D

 87 96  0     1  0  0  0  0  0999 V2000
  -24.2687  -21.5727   20.8356 C   0  0  0  0  0  0  0  0  0  0  0  0
  -25.6505  -21.6654   20.9677 C   0  0  0  0  0  0  0  0  0  0  0  0
  -22.6618  -10.1278   20.1637 C   0  0  0  0  0  0  0  0  0  0  0  0
  -24.3889   -9.2684   21.6182 C   0  0  0  0  0  0  0  0  0  0  0  0
  -23.5528  -22.6207   20.2586 C   0  0  0  0  0  0  0  0  0  0  0  0
  -26.3174  -22.8060   20.5218 C   0  0  0  0  0  0  0  0  0  0  0  0
  -29.7646  -24.4631   23.8407 C   0  0  0  0  0  0  0  0  0  0  0  0
  -30.2809  -18.6061   23.9052 C   0  0  0  0  0  0  0  0  0  0  0  0
  -29.7839  -17.4468   23.3096 C   0  0  0  0  0  0  0  0  0  0  0  0
  -21.9623   -8.9271   20.2847 C   0  0  0  0  0  0  0  0  0  0  0  0
  -23.6894   -8.0676   21.7393 C   0  0  0  0  0  0  0  0  0  0  0  0
  -30.9796  -23.7811   23.8908 C   0  0  0  0  0  0  0  0  0  0  0  0
  -21.0299   -6.8994   23.4664 C   0  0  0  0  0  0  0  0  0  0  0  0
  -20.9037   -6.3505   24.7425 C   0  0  0  0  0  0  0  0  0  0  0  0
  -31.9946  -25.5024   22.5394 C   0  0  0  0  0  0  0  0  0  0  0  0
  -31.7758  -17.2905   21.9514 C   0  0  0  0  0  0  0  0  0  0  0  0
  -22.0547   -4.3602   24.0001 C   0  0  0  0  0  0  0  0  0  0  0  0
  -23.8751  -10.2984   20.8304 C   0  0  0  0  0  0  0  0  0  0  0  0
  -24.1507  -12.8236   21.0648 C   0  0  0  0  0  0  0  0  0  0  0  0
  -24.2101  -23.7788   19.8142 C   0  0  0  0  0  0  0  0  0  0  0  0
  -29.6526  -25.6663   23.1293 C   0  0  0  0  0  0  0  0  0  0  0  0
  -25.6097  -23.8700   19.9371 C   0  0  0  0  0  0  0  0  0  0  0  0
  -30.7777  -26.1990   22.4839 C   0  0  0  0  0  0  0  0  0  0  0  0
  -31.5254  -19.1076   23.5238 C   0  0  0  0  0  0  0  0  0  0  0  0
  -30.5313  -16.7890   22.3328 C   0  0  0  0  0  0  0  0  0  0  0  0
  -32.2728  -18.4498   22.5469 C   0  0  0  0  0  0  0  0  0  0  0  0
  -22.4761   -7.8970   21.0725 C   0  0  0  0  0  0  0  0  0  0  0  0
  -32.0941  -24.2992   23.2376 C   0  0  0  0  0  0  0  0  0  0  0  0
  -21.6685   -6.1787   22.4572 C   0  0  0  0  0  0  0  0  0  0  0  0
  -21.4161   -5.0809   25.0094 C   0  0  0  0  0  0  0  0  0  0  0  0
  -22.1809   -4.9091   22.7240 C   0  0  0  0  0  0  0  0  0  0  0  0
  -24.5984  -11.5383   20.7053 C   0  0  0  0  0  0  0  0  0  0  0  0
  -25.1995  -13.6529   20.7505 C   0  0  0  0  0  0  0  0  0  0  0  0
  -32.7538  -21.4957   26.2531 C   0  0  0  0  0  0  0  0  0  0  0  0
  -32.3046  -21.4547   23.3860 C   0  0  0  0  0  0  0  0  0  0  0  0
  -22.8987  -13.2315   21.6323 C   0  0  0  0  0  0  0  0  0  0  0  0
  -27.9517  -26.6432   20.6280 C   0  0  0  0  0  0  0  0  0  0  0  0
  -29.2544  -29.5224   21.3600 C   0  0  0  0  0  0  0  0  0  0  0  0
  -31.7904  -31.2633   22.8382 C   0  0  0  0  0  0  0  0  0  0  0  0
  -30.6402  -14.8369   20.7441 C   0  0  0  0  0  0  0  0  0  0  0  0
  -23.3992  -24.8656   19.1539 C   0  0  0  0  0  0  0  0  0  0  0  0
  -28.3417  -26.4035   23.1072 C   0  0  0  0  0  0  0  0  0  0  0  0
  -30.7151  -27.4976   21.7235 C   0  0  0  0  0  0  0  0  0  0  0  0
  -32.9466  -22.7486   25.4522 C   0  0  0  0  0  0  0  0  0  0  0  0
  -31.9508  -20.3877   25.6189 C   0  0  0  0  0  0  0  0  0  0  0  0
  -24.1375  -26.1976   19.0484 C   0  0  0  0  0  0  0  0  0  0  0  0
  -29.4293  -12.7610   18.1171 C   0  0  0  0  0  0  0  0  0  0  0  0
  -25.5557  -25.9822   18.5294 C   0  0  0  0  0  0  0  0  0  0  0  0
  -28.0277  -12.3635   18.5858 C   0  0  0  0  0  0  0  0  0  0  0  0
  -30.4152  -12.8408   19.2812 C   0  0  0  0  0  0  0  0  0  0  0  0
  -28.5862  -13.2937   20.8683 C   0  0  0  0  0  0  0  0  0  0  0  0
  -26.3661  -25.1014   19.4880 C   0  0  1  0  0  0  0  0  0  0  0  0
  -28.2125  -27.3576   21.9239 C   0  0  1  0  0  0  0  0  0  0  0  0
  -27.5430  -13.2635   19.7394 C   0  0  2  0  0  0  0  0  0  0  0  0
  -33.3131  -22.4144   24.0201 C   0  0  1  0  0  0  0  0  0  1  0  0
  -34.7232  -21.8266   23.9084 C   0  0  0  0  0  0  0  0  0  0  0  0
  -32.6001  -33.6043   23.2400 C   0  0  0  0  0  0  0  0  0  0  0  0
  -30.2054  -29.6875   18.4655 C   0  0  0  0  0  0  0  0  0  0  0  0
  -31.7707  -31.5150   19.1572 C   0  0  0  0  0  0  0  0  0  0  0  0
  -29.3073  -31.8297   19.3924 C   0  0  0  0  0  0  0  0  0  0  0  0
  -31.6186  -30.9426   25.7753 C   0  0  0  0  0  0  0  0  0  0  0  0
  -30.5118  -30.2584   20.9648 C   0  0  1  0  0  0  0  0  0  0  0  0
  -31.7794  -32.4473   23.7882 C   0  0  2  0  0  0  0  0  0  0  0  0
  -30.4498  -30.7972   19.5076 C   0  0  0  0  0  0  0  0  0  0  0  0
  -25.8352  -11.5454   20.2010 N   0  0  0  0  0  0  0  0  0  0  0  0
  -26.1736  -12.8454   20.2414 N   0  0  0  0  0  0  0  0  0  0  0  0
  -32.0192  -20.3131   24.1547 N   0  0  0  0  0  0  0  0  0  0  0  0
  -29.4094  -28.1778   21.7259 N   0  0  0  0  0  0  0  0  0  0  0  0
  -29.8912  -13.7137   20.3340 N   0  0  0  0  0  0  0  0  0  0  0  0
  -33.5353  -18.9412   22.1446 N   0  0  0  0  0  0  0  0  0  0  0  0
  -25.3743  -14.9868   20.8627 N   0  0  0  0  0  0  0  0  0  0  0  0
  -22.7775  -13.2661   23.0281 N   0  0  0  0  0  0  0  0  0  0  0  0
  -30.0265  -15.6110   21.7284 N   0  0  0  0  0  0  0  0  0  0  0  0
  -26.8057  -25.8711   20.6321 N   0  0  0  0  0  0  0  0  0  0  0  0
  -30.7152  -31.2908   21.9753 N   0  0  0  0  0  0  0  0  0  0  0  0
  -32.3440  -32.0556   25.1106 N   0  3  0  0  0  0  0  0  0  0  0  0
  -33.0673  -21.4504   27.4433 O   0  0  0  0  0  0  0  0  0  0  0  0
  -31.8648  -21.6787   22.2561 O   0  0  0  0  0  0  0  0  0  0  0  0
  -21.9116  -13.5399   20.9225 O   0  0  0  0  0  0  0  0  0  0  0  0
  -28.7315  -26.7834   19.6932 O   0  0  0  0  0  0  0  0  0  0  0  0
  -28.1756  -30.1204   21.3516 O   0  0  0  0  0  0  0  0  0  0  0  0
  -32.6672  -30.4022   22.8571 O   0  0  0  0  0  0  0  0  0  0  0  0
  -31.7323  -15.1085   20.2386 O   0  0  0  0  0  0  0  0  0  0  0  0
  -21.7937   -6.7253   21.1910 O   0  0  0  0  0  0  0  0  0  0  0  0
  -33.2810  -23.6352   23.2844 O   0  0  0  0  0  0  0  0  0  1  0  0
  -21.2962   -4.5545   26.2352 F   0  0  0  0  0  0  0  0  0  0  0  0
  -22.7964   -4.2124   21.7589 F   0  0  0  0  0  0  0  0  0  0  0  0
  1  2  1  0  0  0  0
  1  5  2  0  0  0  0
  2  6  2  0  0  0  0
  3 10  2  0  0  0  0
  3 18  1  0  0  0  0
  4 11  1  0  0  0  0
  4 18  2  0  0  0  0
  5 20  1  0  0  0  0
  6 22  1  0  0  0  0
  7 12  2  0  0  0  0
  7 21  1  0  0  0  0
  8  9  2  0  0  0  0
  8 24  1  0  0  0  0
  9 25  1  0  0  0  0
 10 27  1  0  0  0  0
 11 27  2  0  0  0  0
 12 28  1  0  0  0  0
 13 14  2  0  0  0  0
 13 29  1  0  0  0  0
 14 30  1  0  0  0  0
 15 23  1  0  0  0  0
 15 28  2  0  0  0  0
 16 25  2  0  0  0  0
 16 26  1  0  0  0  0
 17 30  2  0  0  0  0
 17 31  1  0  0  0  0
 18 32  1  0  0  0  0
 19 32  1  0  0  0  0
 19 33  2  0  0  0  0
 19 36  1  0  0  0  0
 20 22  2  0  0  0  0
 20 41  1  0  0  0  0
 21 23  2  0  0  0  0
 21 42  1  0  0  0  0
 22 52  1  0  0  0  0
 23 43  1  0  0  0  0
 24 26  2  0  0  0  0
 24 67  1  0  0  0  0
 25 73  1  0  0  0  0
 26 70  1  0  0  0  0
 27 84  1  0  0  0  0
 28 85  1  0  0  0  0
 29 31  2  0  0  0  0
 29 84  1  0  0  0  0
 30 86  1  0  0  0  0
 31 87  1  0  0  0  0
 32 65  2  0  0  0  0
 33 66  1  0  0  0  0
 33 71  1  0  0  0  0
 34 44  1  0  0  0  0
 34 45  1  0  0  0  0
 34 77  2  0  0  0  0
 35 55  1  0  0  0  0
 35 67  1  0  0  0  0
 35 78  2  0  0  0  0
 36 72  1  0  0  0  0
 36 79  2  0  0  0  0
 37 53  1  0  0  0  0
 37 74  1  0  0  0  0
 37 80  2  0  0  0  0
 38 62  1  0  0  0  0
 38 68  1  0  0  0  0
 38 81  2  0  0  0  0
 39 63  1  0  0  0  0
 39 75  1  0  0  0  0
 39 82  2  0  0  0  0
 40 69  1  0  0  0  0
 40 73  1  0  0  0  0
 40 83  2  0  0  0  0
 41 46  1  0  0  0  0
 42 53  1  0  0  0  0
 43 68  1  0  0  0  0
 44 55  1  0  0  0  0
 45 67  1  0  0  0  0
 46 48  1  0  0  0  0
 47 49  1  0  0  0  0
 47 50  1  0  0  0  0
 48 52  1  0  0  0  0
 49 54  1  0  0  0  0
 50 69  1  0  0  0  0
 51 54  1  0  0  0  0
 51 69  1  0  0  0  0
 52 74  1  0  0  0  0
 53 68  1  0  0  0  0
 54 66  1  0  0  0  0
 55 56  1  0  0  0  0
 55 85  1  0  0  0  0
 57 63  1  0  0  0  0
 58 64  1  0  0  0  0
 59 64  1  0  0  0  0
 60 64  1  0  0  0  0
 61 76  1  0  0  0  0
 62 64  1  0  0  0  0
 62 75  1  0  0  0  0
 63 76  1  0  0  0  0
 65 66  1  0  0  0  0
M  CHG  1  76   1
M  ISO  4  40 100  55 101  73 100  85 101
M  END
> <Batch ID>
0158

> <Smiles>
CNC(C)C(=O)NC(C(=O)N1Cc2cc([101O:1][101C:1]3(C)CC(=O)CN(c4ccc([100NH:0][100C:0](=O)N5CCCC(n6nc(-c7ccc(Oc8ccc(F)cc8F)cc7)c(C(N)=O)c6N)C5)cc4N)C3=O)ccc2CC1C(=O)NC1CCCc2ccccc21)C(C)(C)C

> <Shape>
0.228

> <Color>
0.179

> <Negative vol penalty>
0.000

$$$$

  -OEChem-04052303443D

 89 98  0     1  0  0  0  0  0999 V2000
  -16.4542  -23.3679   21.0358 C   0  0  0  0  0  0  0  0  0  0  0  0
  -17.7343  -23.0736   21.4944 C   0  0  0  0  0  0  0  0  0  0  0  0
  -23.1893   -9.7727   20.6645 C   0  0  0  0  0  0  0  0  0  0  0  0
  -23.8503  -10.3473   22.9162 C   0  0  0  0  0  0  0  0  0  0  0  0
  -16.2627  -24.4071   20.1262 C   0  0  0  0  0  0  0  0  0  0  0  0
  -18.8237  -23.8177   21.0428 C   0  0  0  0  0  0  0  0  0  0  0  0
  -23.8236  -25.3350   24.2372 C   0  0  0  0  0  0  0  0  0  0  0  0
  -22.4735   -8.6800   21.1535 C   0  0  0  0  0  0  0  0  0  0  0  0
  -23.1344   -9.2545   23.4052 C   0  0  0  0  0  0  0  0  0  0  0  0
  -25.1031  -24.7841   24.2946 C   0  0  0  0  0  0  0  0  0  0  0  0
  -19.9114   -8.4857   24.0693 C   0  0  0  0  0  0  0  0  0  0  0  0
  -19.1070   -8.6890   25.1905 C   0  0  0  0  0  0  0  0  0  0  0  0
  -25.8664  -26.4035   22.6778 C   0  0  0  0  0  0  0  0  0  0  0  0
  -31.5714  -18.0148   20.8673 C   0  0  0  0  0  0  0  0  0  0  0  0
  -20.3785   -7.0309   26.4034 C   0  0  0  0  0  0  0  0  0  0  0  0
  -23.8777  -10.6064   21.5459 C   0  0  0  0  0  0  0  0  0  0  0  0
  -24.1417  -13.0455   20.8469 C   0  0  0  0  0  0  0  0  0  0  0  0
  -17.3491  -25.1705   19.6706 C   0  0  0  0  0  0  0  0  0  0  0  0
  -23.5529  -26.4193   23.3901 C   0  0  0  0  0  0  0  0  0  0  0  0
  -18.6467  -24.8672   20.1253 C   0  0  0  0  0  0  0  0  0  0  0  0
  -24.5833  -26.9680   22.6134 C   0  0  0  0  0  0  0  0  0  0  0  0
  -31.5900  -19.3963   21.2155 C   0  0  0  0  0  0  0  0  0  0  0  0
  -22.4461   -8.4209   22.5238 C   0  0  0  0  0  0  0  0  0  0  0  0
  -26.1240  -25.3164   23.5127 C   0  0  0  0  0  0  0  0  0  0  0  0
  -20.9493   -7.5549   24.1151 C   0  0  0  0  0  0  0  0  0  0  0  0
  -19.3406   -7.9617   26.3576 C   0  0  0  0  0  0  0  0  0  0  0  0
  -21.1829   -6.8276   25.2821 C   0  0  0  0  0  0  0  0  0  0  0  0
  -24.6178  -11.7351   21.0414 C   0  0  0  0  0  0  0  0  0  0  0  0
  -25.2233  -13.7342   20.3546 C   0  0  0  0  0  0  0  0  0  0  0  0
  -30.3725  -17.4166   21.1872 C   0  0  0  0  0  0  0  0  0  0  0  0
  -30.4043  -19.8014   21.7882 C   0  0  0  0  0  0  0  0  0  0  0  0
  -27.5248  -23.4657   23.2243 C   0  0  0  0  0  0  0  0  0  1  0  0
  -22.8384  -13.5915   21.0897 C   0  0  0  0  0  0  0  0  0  0  0  0
  -28.7062  -22.8367   23.2410 C   0  0  0  0  0  0  0  0  0  0  0  0
  -28.7665  -21.3914   22.8465 C   0  0  0  0  0  0  0  0  0  0  0  0
  -21.6361  -26.8961   20.8997 C   0  0  0  0  0  0  0  0  0  0  0  0
  -22.6725  -29.9567   21.1836 C   0  0  0  0  0  0  0  0  0  0  0  0
  -25.0884  -32.1085   22.2698 C   0  0  0  0  0  0  0  0  0  0  0  0
  -30.6401  -15.0187   20.4627 C   0  0  0  0  0  0  0  0  0  0  0  0
  -17.0986  -26.2534   18.6512 C   0  0  0  0  0  0  0  0  0  0  0  0
  -22.1739  -27.0192   23.3597 C   0  0  0  0  0  0  0  0  0  0  0  0
  -24.3495  -28.1447   21.7029 C   0  0  0  0  0  0  0  0  0  0  0  0
  -18.2582  -27.2360   18.5090 C   0  0  0  0  0  0  0  0  0  0  0  0
  -29.7068  -12.0740   18.6922 C   0  0  0  0  0  0  0  0  0  0  0  0
  -33.0759  -20.3879   19.4832 C   0  0  0  0  0  0  0  0  0  0  0  0
  -33.9816  -19.7982   21.7745 C   0  0  0  0  0  0  0  0  0  0  0  0
  -19.5834  -26.4872   18.4095 C   0  0  0  0  0  0  0  0  0  0  0  0
  -34.2969  -21.2722   19.2315 C   0  0  0  0  0  0  0  0  0  0  0  0
  -35.2004  -20.6840   21.5174 C   0  0  0  0  0  0  0  0  0  0  0  0
  -28.2605  -11.8311   19.1295 C   0  0  0  0  0  0  0  0  0  0  0  0
  -30.5620  -12.6152   19.8365 C   0  0  0  0  0  0  0  0  0  0  0  0
  -28.5754  -13.5623   20.9436 C   0  0  0  0  0  0  0  0  0  0  0  0
  -32.7546  -20.2841   20.9840 C   0  0  0  0  0  0  0  0  0  0  0  0
  -19.8505  -25.6676   19.6777 C   0  0  1  0  0  0  0  0  0  0  0  0
  -21.8878  -27.7946   22.0774 C   0  0  1  0  0  0  0  0  0  0  0  0
  -35.5204  -20.7880   20.0205 C   0  0  0  0  0  0  0  0  0  0  0  0
  -27.6597  -13.0781   19.8075 C   0  0  2  0  0  0  0  0  0  0  0  0
  -36.7120  -21.7154   19.7881 C   0  0  0  0  0  0  0  0  0  0  0  0
  -25.6734  -34.5482   22.3248 C   0  0  0  0  0  0  0  0  0  0  0  0
  -23.4534  -29.8335   18.2365 C   0  0  0  0  0  0  0  0  0  0  0  0
  -24.8562  -31.8761   18.5948 C   0  0  0  0  0  0  0  0  0  0  0  0
  -22.3887  -31.9828   18.9447 C   0  0  0  0  0  0  0  0  0  0  0  0
  -25.0997  -32.1579   25.2289 C   0  0  0  0  0  0  0  0  0  0  0  0
  -23.8261  -30.7514   20.6208 C   0  0  1  0  0  0  0  0  0  0  0  0
  -25.0044  -33.3996   23.0637 C   0  0  2  0  0  0  0  0  0  0  0  0
  -23.6354  -31.0875   19.1148 C   0  0  0  0  0  0  0  0  0  0  0  0
  -25.9018  -11.5970   20.7002 N   0  0  0  0  0  0  0  0  0  0  0  0
  -26.2417  -12.8295   20.2864 N   0  0  0  0  0  0  0  0  0  0  0  0
  -22.9827  -28.6921   21.7034 N   0  0  0  0  0  0  0  0  0  0  0  0
  -29.9329  -13.7983   20.4275 N   0  0  0  0  0  0  0  0  0  0  0  0
  -25.3930  -15.0193   19.9776 N   0  0  0  0  0  0  0  0  0  0  0  0
  -21.8433  -12.7450   21.5971 N   0  0  0  0  0  0  0  0  0  0  0  0
  -29.9892  -21.0637   22.2768 N   0  0  0  0  0  0  0  0  0  0  0  0
  -29.9286  -16.0816   21.0183 N   0  0  0  0  0  0  0  0  0  0  0  0
  -20.3134  -26.5266   20.7465 N   0  0  0  0  0  0  0  0  0  0  0  0
  -23.9737  -31.9211   21.4801 N   0  0  0  0  0  0  0  0  0  0  0  0
  -25.6725  -33.2389   24.3861 N   0  3  0  0  0  0  0  0  0  0  0  0
  -22.5599  -14.7905   20.8480 O   0  0  0  0  0  0  0  0  0  0  0  0
  -27.8109  -20.6464   23.0354 O   0  0  0  0  0  0  0  0  0  0  0  0
  -22.5724  -26.5638   20.1822 O   0  0  0  0  0  0  0  0  0  0  0  0
  -21.5390  -30.4432   21.1692 O   0  0  0  0  0  0  0  0  0  0  0  0
  -26.0487  -31.3446   22.3400 O   0  0  0  0  0  0  0  0  0  0  0  0
  -31.7819  -15.1204   20.0068 O   0  0  0  0  0  0  0  0  0  0  0  0
  -29.8778  -23.4676   23.6071 O   0  0  0  0  0  0  0  0  0  0  0  0
  -21.7475   -7.3548   23.0013 O   0  0  0  0  0  0  0  0  0  0  0  0
  -27.3736  -24.7801   23.5663 O   0  0  0  0  0  0  0  0  0  1  0  0
  -18.5690   -8.1582   27.4348 F   0  0  0  0  0  0  0  0  0  0  0  0
  -22.1793   -5.9329   25.3325 F   0  0  0  0  0  0  0  0  0  0  0  0
  -29.2757  -18.5189   21.9043 S   0  0  0  0  0  0  0  0  0  0  0  0
  1  2  1  0  0  0  0
  1  5  2  0  0  0  0
  2  6  2  0  0  0  0
  3  8  2  0  0  0  0
  3 16  1  0  0  0  0
  4  9  1  0  0  0  0
  4 16  2  0  0  0  0
  5 18  1  0  0  0  0
  6 20  1  0  0  0  0
  7 10  2  0  0  0  0
  7 19  1  0  0  0  0
  8 23  1  0  0  0  0
  9 23  2  0  0  0  0
 10 24  1  0  0  0  0
 11 12  2  0  0  0  0
 11 25  1  0  0  0  0
 12 26  1  0  0  0  0
 13 21  1  0  0  0  0
 13 24  2  0  0  0  0
 14 22  1  0  0  0  0
 14 30  2  0  0  0  0
 15 26  2  0  0  0  0
 15 27  1  0  0  0  0
 16 28  1  0  0  0  0
 17 28  1  0  0  0  0
 17 29  2  0  0  0  0
 17 33  1  0  0  0  0
 18 20  2  0  0  0  0
 18 40  1  0  0  0  0
 19 21  2  0  0  0  0
 19 41  1  0  0  0  0
 20 54  1  0  0  0  0
 21 42  1  0  0  0  0
 22 31  2  0  0  0  0
 22 53  1  0  0  0  0
 23 85  1  0  0  0  0
 24 86  1  0  0  0  0
 25 27  2  0  0  0  0
 25 85  1  0  0  0  0
 26 87  1  0  0  0  0
 27 88  1  0  0  0  0
 28 67  2  0  0  0  0
 29 68  1  0  0  0  0
 29 71  1  0  0  0  0
 30 74  1  0  0  0  0
 30 89  1  0  0  0  0
 31 73  1  0  0  0  0
 31 89  1  0  0  0  0
 32 34  2  0  0  0  0
 32 86  1  0  0  0  0
 33 72  1  0  0  0  0
 33 78  2  0  0  0  0
 34 35  1  0  0  0  0
 34 84  1  0  0  0  0
 35 73  1  0  0  0  0
 35 79  2  0  0  0  0
 36 55  1  0  0  0  0
 36 75  1  0  0  0  0
 36 80  2  0  0  0  0
 37 64  1  0  0  0  0
 37 69  1  0  0  0  0
 37 81  2  0  0  0  0
 38 65  1  0  0  0  0
 38 76  1  0  0  0  0
 38 82  2  0  0  0  0
 39 70  1  0  0  0  0
 39 74  1  0  0  0  0
 39 83  2  0  0  0  0
 40 43  1  0  0  0  0
 41 55  1  0  0  0  0
 42 69  1  0  0  0  0
 43 47  1  0  0  0  0
 44 50  1  0  0  0  0
 44 51  1  0  0  0  0
 45 48  1  0  0  0  0
 45 53  1  0  0  0  0
 46 49  1  0  0  0  0
 46 53  1  0  0  0  0
 47 54  1  0  0  0  0
 48 56  1  0  0  0  0
 49 56  1  0  0  0  0
 50 57  1  0  0  0  0
 51 70  1  0  0  0  0
 52 57  1  0  0  0  0
 52 70  1  0  0  0  0
 54 75  1  0  0  0  0
 55 69  1  0  0  0  0
 56 58  1  0  0  0  0
 57 68  1  0  0  0  0
 59 65  1  0  0  0  0
 60 66  1  0  0  0  0
 61 66  1  0  0  0  0
 62 66  1  0  0  0  0
 63 77  1  0  0  0  0
 64 66  1  0  0  0  0
 64 76  1  0  0  0  0
 65 77  1  0  0  0  0
 67 68  1  0  0  0  0
M  CHG  1  77   1
M  ISO  4  32 101  39 100  74 100  86 101
M  END
> <Batch ID>
0158

> <Smiles>
CNC(C)C(=O)NC(C(=O)N1Cc2cc([101O:1][101CH2:1]C(=O)C(=O)Nc3sc([100NH:0][100C:0](=O)N4CCCC(n5nc(-c6ccc(Oc7ccc(F)cc7F)cc6)c(C(N)=O)c5N)C4)cc3C3CCC(C)CC3)ccc2CC1C(=O)NC1CCCc2ccccc21)C(C)(C)C

> <Shape>
0.257

> <Color>
0.165

> <Negative vol penalty>
0.000

$$$$

  -OEChem-04052303443D

 83 91  0     1  0  0  0  0  0999 V2000
  -30.1299  -31.2012   26.0302 C   0  0  0  0  0  0  0  0  0  0  0  0
  -29.4605  -30.1288   25.4493 C   0  0  0  0  0  0  0  0  0  0  0  0
  -22.8158  -10.9387   19.2024 C   0  0  0  0  0  0  0  0  0  0  0  0
  -23.2210   -9.7655   21.2752 C   0  0  0  0  0  0  0  0  0  0  0  0
  -29.4487  -32.3905   26.2864 C   0  0  0  0  0  0  0  0  0  0  0  0
  -28.1093  -30.2447   25.1253 C   0  0  0  0  0  0  0  0  0  0  0  0
  -27.0488  -28.4021   20.5290 C   0  0  0  0  0  0  0  0  0  0  0  0
  -21.8738   -9.9756   18.8414 C   0  0  0  0  0  0  0  0  0  0  0  0
  -22.2788   -8.8024   20.9142 C   0  0  0  0  0  0  0  0  0  0  0  0
  -26.9523  -27.0168   20.4051 C   0  0  0  0  0  0  0  0  0  0  0  0
  -22.1309   -6.0976   18.8911 C   0  0  0  0  0  0  0  0  0  0  0  0
  -22.4675   -4.7577   19.0835 C   0  0  0  0  0  0  0  0  0  0  0  0
  -24.5471  -27.1831   20.4875 C   0  0  0  0  0  0  0  0  0  0  0  0
  -20.5806   -4.4971   20.5697 C   0  0  0  0  0  0  0  0  0  0  0  0
  -26.8392  -19.8528   19.8602 C   0  0  0  0  0  0  0  0  0  0  0  0
  -23.4895  -10.8337   20.4194 C   0  0  0  0  0  0  0  0  0  0  0  0
  -24.2321  -13.0166   21.5107 C   0  0  0  0  0  0  0  0  0  0  0  0
  -28.0908  -32.5243   25.9564 C   0  0  0  0  0  0  0  0  0  0  0  0
  -25.8936  -29.1887   20.6442 C   0  0  0  0  0  0  0  0  0  0  0  0
  -27.4089  -31.4364   25.3785 C   0  0  0  0  0  0  0  0  0  0  0  0
  -24.6316  -28.5784   20.6101 C   0  0  0  0  0  0  0  0  0  0  0  0
  -27.9096  -20.7193   19.8894 C   0  0  0  0  0  0  0  0  0  0  0  0
  -29.1559  -20.0333   19.8082 C   0  0  0  0  0  0  0  0  0  0  0  0
  -21.6052   -8.9074   19.6973 C   0  0  0  0  0  0  0  0  0  0  0  0
  -25.7014  -26.4068   20.3872 C   0  0  0  0  0  0  0  0  0  0  0  0
  -21.0192   -6.6373   19.5381 C   0  0  0  0  0  0  0  0  0  0  0  0
  -21.6924   -3.9575   19.9228 C   0  0  0  0  0  0  0  0  0  0  0  0
  -20.2440   -5.8370   20.3774 C   0  0  0  0  0  0  0  0  0  0  0  0
  -24.4632  -11.8280   20.7926 C   0  0  0  0  0  0  0  0  0  0  0  0
  -28.9904  -18.6685   19.7203 C   0  0  0  0  0  0  0  0  0  0  0  0
  -25.4686  -13.6072   21.6043 C   0  0  0  0  0  0  0  0  0  0  0  0
  -23.0091  -13.5400   22.0455 C   0  0  0  0  0  0  0  0  0  0  0  0
  -30.0153  -17.5978   19.6199 C   0  0  0  0  0  0  0  0  0  0  0  0
  -24.7174  -31.1351   22.8650 C   0  0  0  0  0  0  0  0  0  0  0  0
  -22.4828  -31.7424   20.5934 C   0  0  0  0  0  0  0  0  0  0  0  0
  -26.5547  -22.8324   20.0705 C   0  0  0  0  0  0  0  0  0  0  0  0
  -20.8288  -30.6869   17.8011 C   0  0  0  0  0  0  0  0  0  0  0  0
  -30.3123  -15.1509   19.4010 C   0  0  0  0  0  0  0  0  0  0  0  0
  -27.3849  -33.8132   26.2957 C   0  0  0  0  0  0  0  0  0  0  0  0
  -26.0139  -30.6842   20.7503 C   0  0  0  0  0  0  0  0  0  0  0  0
  -23.3603  -29.3798   20.7101 C   0  0  0  0  0  0  0  0  0  0  0  0
  -26.0480  -33.9825   25.5785 C   0  0  0  0  0  0  0  0  0  0  0  0
  -30.0746  -11.8041   20.5145 C   0  0  0  0  0  0  0  0  0  0  0  0
  -25.2266  -32.7005   25.6707 C   0  0  0  0  0  0  0  0  0  0  0  0
  -28.5750  -11.6089   20.7540 C   0  0  0  0  0  0  0  0  0  0  0  0
  -30.3448  -12.6746   19.2880 C   0  0  0  0  0  0  0  0  0  0  0  0
  -28.1508  -13.7676   19.5114 C   0  0  0  0  0  0  0  0  0  0  0  0
  -25.9495  -31.5320   24.9899 C   0  0  1  0  0  0  0  0  0  0  0  0
  -24.7874  -31.3393   21.3780 C   0  0  1  0  0  0  0  0  0  0  0  0
  -27.8255  -12.9562   20.7759 C   0  0  1  0  0  0  0  0  0  0  0  0
  -19.0307  -31.3836   16.1952 C   0  0  0  0  0  0  0  0  0  0  0  0
  -20.3606  -31.0559   22.6755 C   0  0  0  0  0  0  0  0  0  0  0  0
  -18.7022  -30.8400   20.8124 C   0  0  0  0  0  0  0  0  0  0  0  0
  -19.8149  -33.0310   21.2417 C   0  0  0  0  0  0  0  0  0  0  0  0
  -22.7000  -30.6482   15.5085 C   0  0  0  0  0  0  0  0  0  0  0  0
  -26.8249  -24.3227   20.1637 C   0  0  0  0  0  0  0  0  0  1  0  0
  -21.1490  -31.1428   20.2185 C   0  0  1  0  0  0  0  0  0  0  0  0
  -20.5231  -31.3838   16.4876 C   0  0  2  0  0  0  0  0  0  0  0  0
  -20.0305  -31.5018   21.2371 C   0  0  0  0  0  0  0  0  0  0  0  0
  -25.7456  -11.6713   20.4538 N   0  0  0  0  0  0  0  0  0  0  0  0
  -26.3315  -12.7693   20.9612 N   0  0  0  0  0  0  0  0  0  0  0  0
  -23.5304  -30.8382   20.8185 N   0  0  0  0  0  0  0  0  0  0  0  0
  -29.6069  -13.9349   19.3904 N   0  0  0  0  0  0  0  0  0  0  0  0
  -30.3648  -20.6465   19.8190 N   0  0  0  0  0  0  0  0  0  0  0  0
  -25.8911  -14.7563   22.1729 N   0  0  0  0  0  0  0  0  0  0  0  0
  -21.8301  -12.8055   21.8593 N   0  0  0  0  0  0  0  0  0  0  0  0
  -27.7472  -22.1215   19.9888 N   0  0  0  0  0  0  0  0  0  0  0  0
  -29.5204  -16.2955   19.5452 N   0  0  0  0  0  0  0  0  0  0  0  0
  -25.8130  -31.6222   23.5519 N   0  0  0  0  0  0  0  0  0  0  0  0
  -20.8755  -31.5772   18.8529 N   0  0  0  0  0  0  0  0  0  0  0  0
  -21.2224  -30.6999   15.3633 N   0  3  0  0  0  0  0  0  0  0  0  0
  -22.9604  -14.6349   22.6557 O   0  0  0  0  0  0  0  0  0  0  0  0
  -31.2021  -17.9089   19.5693 O   0  0  0  0  0  0  0  0  0  0  0  0
  -23.7410  -30.5783   23.3530 O   0  0  0  0  0  0  0  0  0  0  0  0
  -22.5929  -32.9682   20.6762 O   0  0  0  0  0  0  0  0  0  0  0  0
  -25.4126  -22.3852   20.0721 O   0  0  0  0  0  0  0  0  0  0  0  0
  -21.0046  -29.4734   17.8861 O   0  0  0  0  0  0  0  0  0  0  0  0
  -31.5437  -15.2106   19.3271 O   0  0  0  0  0  0  0  0  0  0  0  0
  -20.6858   -7.9675   19.3454 O   0  0  0  0  0  0  0  0  0  0  0  0
  -25.6044  -25.0548   20.2671 O   0  0  0  0  0  0  0  0  0  1  0  0
  -22.0148   -2.6704   20.1062 F   0  0  0  0  0  0  0  0  0  0  0  0
  -19.1742   -6.3496   21.0007 F   0  0  0  0  0  0  0  0  0  0  0  0
  -27.3380  -18.2194   19.7355 S   0  0  0  0  0  0  0  0  0  0  0  0
  1  2  1  0  0  0  0
  1  5  2  0  0  0  0
  2  6  2  0  0  0  0
  3  8  2  0  0  0  0
  3 16  1  0  0  0  0
  4  9  1  0  0  0  0
  4 16  2  0  0  0  0
  5 18  1  0  0  0  0
  6 20  1  0  0  0  0
  7 10  2  0  0  0  0
  7 19  1  0  0  0  0
  8 24  1  0  0  0  0
  9 24  2  0  0  0  0
 10 25  1  0  0  0  0
 11 12  2  0  0  0  0
 11 26  1  0  0  0  0
 12 27  1  0  0  0  0
 13 21  1  0  0  0  0
 13 25  2  0  0  0  0
 14 27  2  0  0  0  0
 14 28  1  0  0  0  0
 15 22  2  0  0  0  0
 15 83  1  0  0  0  0
 16 29  1  0  0  0  0
 17 29  1  0  0  0  0
 17 31  2  0  0  0  0
 17 32  1  0  0  0  0
 18 20  2  0  0  0  0
 18 39  1  0  0  0  0
 19 21  2  0  0  0  0
 19 40  1  0  0  0  0
 20 48  1  0  0  0  0
 21 41  1  0  0  0  0
 22 23  1  0  0  0  0
 22 67  1  0  0  0  0
 23 30  2  0  0  0  0
 23 64  1  0  0  0  0
 24 79  1  0  0  0  0
 25 80  1  0  0  0  0
 26 28  2  0  0  0  0
 26 79  1  0  0  0  0
 27 81  1  0  0  0  0
 28 82  1  0  0  0  0
 29 60  2  0  0  0  0
 30 33  1  0  0  0  0
 30 83  1  0  0  0  0
 31 61  1  0  0  0  0
 31 65  1  0  0  0  0
 32 66  1  0  0  0  0
 32 72  2  0  0  0  0
 33 68  1  0  0  0  0
 33 73  2  0  0  0  0
 34 49  1  0  0  0  0
 34 69  1  0  0  0  0
 34 74  2  0  0  0  0
 35 57  1  0  0  0  0
 35 62  1  0  0  0  0
 35 75  2  0  0  0  0
 36 56  1  0  0  0  0
 36 67  1  0  0  0  0
 36 76  2  0  0  0  0
 37 58  1  0  0  0  0
 37 70  1  0  0  0  0
 37 77  2  0  0  0  0
 38 63  1  0  0  0  0
 38 68  1  0  0  0  0
 38 78  2  0  0  0  0
 39 42  1  0  0  0  0
 40 49  1  0  0  0  0
 41 62  1  0  0  0  0
 42 44  1  0  0  0  0
 43 45  1  0  0  0  0
 43 46  1  0  0  0  0
 44 48  1  0  0  0  0
 45 50  1  0  0  0  0
 46 63  1  0  0  0  0
 47 50  1  0  0  0  0
 47 63  1  0  0  0  0
 48 69  1  0  0  0  0
 49 62  1  0  0  0  0
 50 61  1  0  0  0  0
 51 58  1  0  0  0  0
 52 59  1  0  0  0  0
 53 59  1  0  0  0  0
 54 59  1  0  0  0  0
 55 71  1  0  0  0  0
 56 80  1  0  0  0  0
 57 59  1  0  0  0  0
 57 70  1  0  0  0  0
 58 71  1  0  0  0  0
 60 61  1  0  0  0  0
M  CHG  1  71   1
M  ISO  4  38 100  56 101  68 100  80 101
M  END
> <Batch ID>
0158

> <Smiles>
CNC(C)C(=O)NC(C(=O)N1Cc2cc([101O:1][101CH2:1]C(=O)Nc3csc(C(=O)[100NH:0][100C:0](=O)N4CCCC(n5nc(-c6ccc(Oc7ccc(F)cc7F)cc6)c(C(N)=O)c5N)C4)c3N)ccc2CC1C(=O)NC1CCCc2ccccc21)C(C)(C)C

> <Shape>
0.294

> <Color>
0.127

> <Negative vol penalty>
0.000

$$$$

  -OEChem-04052303443D

 85 94  0     1  0  0  0  0  0999 V2000
  -27.7723  -33.0527   26.8350 C   0  0  0  0  0  0  0  0  0  0  0  0
  -27.9701  -31.9409   26.0224 C   0  0  0  0  0  0  0  0  0  0  0  0
  -26.8567  -12.4152   18.5745 C   0  0  0  0  0  0  0  0  0  0  0  0
  -26.2553  -12.9112   20.8612 C   0  0  0  0  0  0  0  0  0  0  0  0
  -26.4801  -33.4231   27.2051 C   0  0  0  0  0  0  0  0  0  0  0  0
  -26.8758  -31.1982   25.5804 C   0  0  0  0  0  0  0  0  0  0  0  0
  -27.1801  -30.0296   20.6624 C   0  0  0  0  0  0  0  0  0  0  0  0
  -25.6665  -11.7055   18.4154 C   0  0  0  0  0  0  0  0  0  0  0  0
  -25.0650  -12.2016   20.7021 C   0  0  0  0  0  0  0  0  0  0  0  0
  -28.0264  -28.9797   20.3086 C   0  0  0  0  0  0  0  0  0  0  0  0
  -24.0773   -8.9683   20.6713 C   0  0  0  0  0  0  0  0  0  0  0  0
  -23.7079   -8.0864   21.6868 C   0  0  0  0  0  0  0  0  0  0  0  0
  -26.1241  -27.5036   20.1623 C   0  0  0  0  0  0  0  0  0  0  0  0
  -30.0875  -22.1122   17.2270 C   0  0  0  0  0  0  0  0  0  0  0  0
  -21.6660   -9.3325   22.0261 C   0  0  0  0  0  0  0  0  0  0  0  0
  -29.5496  -20.3068   15.8656 C   0  0  0  0  0  0  0  0  0  0  0  0
  -27.1512  -13.0180   19.7975 C   0  0  0  0  0  0  0  0  0  0  0  0
  -29.6910  -13.2552   19.8225 C   0  0  0  0  0  0  0  0  0  0  0  0
  -25.3688  -32.6903   26.7594 C   0  0  0  0  0  0  0  0  0  0  0  0
  -25.7983  -29.8215   20.7796 C   0  0  0  0  0  0  0  0  0  0  0  0
  -25.5676  -31.5585   25.9459 C   0  0  0  0  0  0  0  0  0  0  0  0
  -25.2621  -28.5531   20.5152 C   0  0  0  0  0  0  0  0  0  0  0  0
  -29.7145  -20.7385   17.1632 C   0  0  0  0  0  0  0  0  0  0  0  0
  -24.7706  -11.5987   19.4791 C   0  0  0  0  0  0  0  0  0  0  0  0
  -27.4988  -27.7157   20.0613 C   0  0  0  0  0  0  0  0  0  0  0  0
  -23.2412  -10.0323   20.3332 C   0  0  0  0  0  0  0  0  0  0  0  0
  -22.5022   -8.2685   22.3642 C   0  0  0  0  0  0  0  0  0  0  0  0
  -22.0355  -10.2144   21.0106 C   0  0  0  0  0  0  0  0  0  0  0  0
  -28.3808  -13.7507   19.9626 C   0  0  0  0  0  0  0  0  0  0  0  0
  -30.1937  -22.6780   15.9754 C   0  0  0  0  0  0  0  0  0  0  0  0
  -30.4967  -14.3375   20.0798 C   0  0  0  0  0  0  0  0  0  0  0  0
  -30.1397  -11.9348   19.4896 C   0  0  0  0  0  0  0  0  0  0  0  0
  -30.5677  -24.0823   15.7299 C   0  0  0  0  0  0  0  0  0  0  0  0
  -23.6890  -30.0457   23.1468 C   0  0  0  0  0  0  0  0  0  0  0  0
  -21.5534  -29.4498   20.7790 C   0  0  0  0  0  0  0  0  0  0  0  0
  -21.3416  -27.2715   17.9106 C   0  0  0  0  0  0  0  0  0  0  0  0
  -29.6720  -20.2387   19.6320 C   0  0  0  0  0  0  0  0  0  0  0  0
  -23.9942  -33.1014   27.2244 C   0  0  0  0  0  0  0  0  0  0  0  0
  -24.8959  -30.9708   21.1360 C   0  0  0  0  0  0  0  0  0  0  0  0
  -23.7834  -28.2823   20.6075 C   0  0  0  0  0  0  0  0  0  0  0  0
  -22.8639  -32.4818   26.4067 C   0  0  0  0  0  0  0  0  0  0  0  0
  -30.5875  -18.4327   22.5607 C   0  0  0  0  0  0  0  0  0  0  0  0
  -23.1070  -30.9894   26.2051 C   0  0  0  0  0  0  0  0  0  0  0  0
  -30.2504  -16.9813   22.2118 C   0  0  0  0  0  0  0  0  0  0  0  0
  -30.0687  -26.6337   18.0626 C   0  0  0  0  0  0  0  0  0  0  0  0
  -28.0288  -25.1464   17.8808 C   0  0  0  0  0  0  0  0  0  0  0  0
  -29.5702  -19.4085   21.9720 C   0  0  0  0  0  0  0  0  0  0  0  0
  -30.3958  -26.3577   16.6011 C   0  0  0  0  0  0  0  0  0  0  0  0
  -28.3624  -24.8737   16.4201 C   0  0  0  0  0  0  0  0  0  0  0  0
  -29.0015  -17.8167   20.1798 C   0  0  0  0  0  0  0  0  0  0  0  0
  -24.4044  -30.7421   25.4259 C   0  0  1  0  0  0  0  0  0  0  0  0
  -23.5630  -30.5227   21.7276 C   0  0  1  0  0  0  0  0  0  0  0  0
  -30.0341  -16.8016   20.6964 C   0  0  2  0  0  0  0  0  0  0  0  0
  -28.5734  -26.4990   18.3333 C   0  0  0  0  0  0  0  0  0  1  0  0
  -20.0825  -27.5297   15.7554 C   0  0  0  0  0  0  0  0  0  0  0  0
  -19.3789  -27.8429   22.1930 C   0  0  0  0  0  0  0  0  0  0  0  0
  -18.9378  -26.6662   20.0276 C   0  0  0  0  0  0  0  0  0  0  0  0
  -18.5938  -29.1310   20.1983 C   0  0  0  0  0  0  0  0  0  0  0  0
  -23.7963  -26.9061   16.2982 C   0  0  0  0  0  0  0  0  0  0  0  0
  -20.9469  -28.2067   20.1743 C   0  0  1  0  0  0  0  0  0  0  0  0
  -21.4264  -27.6800   16.4511 C   0  0  2  0  0  0  0  0  0  0  0  0
  -19.4903  -27.9614   20.6598 C   0  0  0  0  0  0  0  0  0  0  0  0
  -28.3512  -15.0468   20.2841 N   0  0  0  0  0  0  0  0  0  0  0  0
  -29.6529  -15.3749   20.3482 N   0  0  0  0  0  0  0  0  0  0  0  0
  -29.8147  -25.0533   16.2274 N   0  0  0  0  0  0  0  0  0  0  0  0
  -22.9429  -29.4369   20.9656 N   0  0  0  0  0  0  0  0  0  0  0  0
  -29.4207  -19.1822   20.5328 N   0  0  0  0  0  0  0  0  0  0  0  0
  -31.8374  -14.4934   20.1003 N   0  0  0  0  0  0  0  0  0  0  0  0
  -29.1787  -10.9416   19.2564 N   0  0  0  0  0  0  0  0  0  0  0  0
  -29.5294  -19.8965   18.2877 N   0  0  0  0  0  0  0  0  0  0  0  0
  -24.2016  -30.9909   24.0147 N   0  0  0  0  0  0  0  0  0  0  0  0
  -21.0785  -28.3501   18.7284 N   0  0  0  0  0  0  0  0  0  0  0  0
  -31.6555  -24.3533   15.0146 N   0  3  0  0  0  0  0  0  0  0  0  0
  -22.4238  -26.8361   15.7341 N   0  3  0  0  0  0  0  0  0  0  0  0
  -31.3569  -11.6403   19.4176 O   0  0  0  0  0  0  0  0  0  0  0  0
  -23.3450  -28.9050   23.4336 O   0  0  0  0  0  0  0  0  0  0  0  0
  -20.8222  -30.4002   21.0683 O   0  0  0  0  0  0  0  0  0  0  0  0
  -21.4900  -26.1110   18.2872 O   0  0  0  0  0  0  0  0  0  0  0  0
  -30.0168  -21.3568   20.0231 O   0  0  0  0  0  0  0  0  0  0  0  0
  -23.6090  -10.9065   19.3242 O   0  0  0  0  0  0  0  0  0  0  0  0
  -28.3227  -26.6890   19.7165 O   0  0  0  0  0  0  0  0  0  1  0  0
  -22.1468   -7.4206   23.3384 F   0  0  0  0  0  0  0  0  0  0  0  0
  -21.2275  -11.2341   20.6894 F   0  0  0  0  0  0  0  0  0  0  0  0
  -27.9133  -27.4865   17.6712 F   0  0  0  0  0  0  0  0  0  0  0  0
  -29.8442  -21.5550   14.7309 S   0  0  0  0  0  0  0  0  0  0  0  0
  1  2  1  0  0  0  0
  1  5  2  0  0  0  0
  2  6  2  0  0  0  0
  3  8  2  0  0  0  0
  3 17  1  0  0  0  0
  4  9  1  0  0  0  0
  4 17  2  0  0  0  0
  5 19  1  0  0  0  0
  6 21  1  0  0  0  0
  7 10  2  0  0  0  0
  7 20  1  0  0  0  0
  8 24  1  0  0  0  0
  9 24  2  0  0  0  0
 10 25  1  0  0  0  0
 11 12  2  0  0  0  0
 11 26  1  0  0  0  0
 12 27  1  0  0  0  0
 13 22  1  0  0  0  0
 13 25  2  0  0  0  0
 14 23  1  0  0  0  0
 14 30  2  0  0  0  0
 15 27  2  0  0  0  0
 15 28  1  0  0  0  0
 16 23  2  0  0  0  0
 16 85  1  0  0  0  0
 17 29  1  0  0  0  0
 18 29  1  0  0  0  0
 18 31  2  0  0  0  0
 18 32  1  0  0  0  0
 19 21  2  0  0  0  0
 19 38  1  0  0  0  0
 20 22  2  0  0  0  0
 20 39  1  0  0  0  0
 21 51  1  0  0  0  0
 22 40  1  0  0  0  0
 23 70  1  0  0  0  0
 24 80  1  0  0  0  0
 25 81  1  0  0  0  0
 26 28  2  0  0  0  0
 26 80  1  0  0  0  0
 27 82  1  0  0  0  0
 28 83  1  0  0  0  0
 29 63  2  0  0  0  0
 30 33  1  0  0  0  0
 30 85  1  0  0  0  0
 31 64  1  0  0  0  0
 31 68  1  0  0  0  0
 32 69  1  0  0  0  0
 32 75  2  0  0  0  0
 33 65  1  0  0  0  0
 33 73  2  0  0  0  0
 34 52  1  0  0  0  0
 34 71  1  0  0  0  0
 34 76  2  0  0  0  0
 35 60  1  0  0  0  0
 35 66  1  0  0  0  0
 35 77  2  0  0  0  0
 36 61  1  0  0  0  0
 36 72  1  0  0  0  0
 36 78  2  0  0  0  0
 37 67  1  0  0  0  0
 37 70  1  0  0  0  0
 37 79  2  0  0  0  0
 38 41  1  0  0  0  0
 39 52  1  0  0  0  0
 40 66  1  0  0  0  0
 41 43  1  0  0  0  0
 42 44  1  0  0  0  0
 42 47  1  0  0  0  0
 43 51  1  0  0  0  0
 44 53  1  0  0  0  0
 45 48  1  0  0  0  0
 45 54  1  0  0  0  0
 46 49  1  0  0  0  0
 46 54  1  0  0  0  0
 47 67  1  0  0  0  0
 48 65  1  0  0  0  0
 49 65  1  0  0  0  0
 50 53  1  0  0  0  0
 50 67  1  0  0  0  0
 51 71  1  0  0  0  0
 52 66  1  0  0  0  0
 53 64  1  0  0  0  0
 54 81  1  0  0  0  0
 54 84  1  0  0  0  0
 55 61  1  0  0  0  0
 56 62  1  0  0  0  0
 57 62  1  0  0  0  0
 58 62  1  0  0  0  0
 59 74  1  0  0  0  0
 60 62  1  0  0  0  0
 60 72  1  0  0  0  0
 61 74  1  0  0  0  0
 63 64  1  0  0  0  0
M  CHG  2  73   1  74   1
M  ISO  4  37 100  54 101  70 100  81 101
M  END
> <Batch ID>
0158

> <Smiles>
CNC(C)C(=O)NC(C(=O)N1Cc2cc([101O:1][101C:1]3(F)CCN(C(=N)c4cc([100NH:0][100C:0](=O)N5CCCC(n6nc(-c7ccc(Oc8ccc(F)cc8F)cc7)c(C(N)=O)c6N)C5)cs4)CC3)ccc2CC1C(=O)NC1CCCc2ccccc21)C(C)(C)C

> <Shape>
0.326

> <Color>
0.105

> <Negative vol penalty>
0.000

$$$$

  -OEChem-04052303443D

 82 90  0     1  0  0  0  0  0999 V2000
  -22.1830   -8.1933   23.7873 C   0  0  0  0  0  0  0  0  0  0  0  0
  -23.0523   -8.6672   22.8100 C   0  0  0  0  0  0  0  0  0  0  0  0
  -27.4791  -28.5943   19.7372 C   0  0  0  0  0  0  0  0  0  0  0  0
  -25.7082  -27.1260   20.4758 C   0  0  0  0  0  0  0  0  0  0  0  0
  -21.0385   -8.9201   24.1124 C   0  0  0  0  0  0  0  0  0  0  0  0
  -22.7770   -9.8679   22.1565 C   0  0  0  0  0  0  0  0  0  0  0  0
  -26.8586  -12.8374   21.7472 C   0  0  0  0  0  0  0  0  0  0  0  0
  -26.6210  -29.6878   19.8538 C   0  0  0  0  0  0  0  0  0  0  0  0
  -24.8502  -28.2196   20.5924 C   0  0  0  0  0  0  0  0  0  0  0  0
  -27.7823  -12.5166   20.7534 C   0  0  0  0  0  0  0  0  0  0  0  0
  -22.9944  -30.1602   18.5380 C   0  0  0  0  0  0  0  0  0  0  0  0
  -21.7024  -30.0274   18.0292 C   0  0  0  0  0  0  0  0  0  0  0  0
  -30.1985  -17.2480   18.2556 C   0  0  0  0  0  0  0  0  0  0  0  0
  -26.8484  -14.2337   19.3396 C   0  0  0  0  0  0  0  0  0  0  0  0
  -20.7935  -30.4441   20.2286 C   0  0  0  0  0  0  0  0  0  0  0  0
  -27.0226  -27.3134   20.0482 C   0  0  0  0  0  0  0  0  0  0  0  0
  -30.5043  -16.2985   19.2596 C   0  0  0  0  0  0  0  0  0  0  0  0
  -28.7572  -25.6586   20.9203 C   0  0  0  0  0  0  0  0  0  0  0  0
  -20.7540  -10.1351   23.4693 C   0  0  0  0  0  0  0  0  0  0  0  0
  -25.9142  -13.8531   21.5401 C   0  0  0  0  0  0  0  0  0  0  0  0
  -21.6269  -10.6110   22.4723 C   0  0  0  0  0  0  0  0  0  0  0  0
  -25.9155  -14.5671   20.3334 C   0  0  0  0  0  0  0  0  0  0  0  0
  -25.3066  -29.5005   20.2814 C   0  0  0  0  0  0  0  0  0  0  0  0
  -27.7755  -13.2128   19.5483 C   0  0  0  0  0  0  0  0  0  0  0  0
  -23.1859  -30.4350   19.8921 C   0  0  0  0  0  0  0  0  0  0  0  0
  -20.6020  -30.1694   18.8745 C   0  0  0  0  0  0  0  0  0  0  0  0
  -22.0855  -30.5769   20.7374 C   0  0  0  0  0  0  0  0  0  0  0  0
  -27.9083  -26.1833   19.9274 C   0  0  0  0  0  0  0  0  0  0  0  0
  -29.3822  -24.5975   20.3121 C   0  0  0  0  0  0  0  0  0  0  0  0
  -29.7793  -18.3799   18.9152 C   0  0  0  0  0  0  0  0  0  0  0  0
  -30.2506  -16.9180   20.4612 C   0  0  0  0  0  0  0  0  0  0  0  0
  -31.0027  -14.9017   19.0871 C   0  0  0  0  0  0  0  0  0  0  0  0
  -28.9624  -26.0916   22.2717 C   0  0  0  0  0  0  0  0  0  0  0  0
  -22.7400  -13.9754   21.4261 C   0  0  0  0  0  0  0  0  0  0  0  0
  -23.2592  -17.1710   21.2235 C   0  0  0  0  0  0  0  0  0  0  0  0
  -25.3750  -19.7152   20.3888 C   0  0  0  0  0  0  0  0  0  0  0  0
  -29.2412  -20.0477   17.1054 C   0  0  0  0  0  0  0  0  0  0  0  0
  -19.4801  -10.8618   23.8212 C   0  0  0  0  0  0  0  0  0  0  0  0
  -24.9418  -14.2050   22.6324 C   0  0  0  0  0  0  0  0  0  0  0  0
  -24.9354  -15.6799   20.0693 C   0  0  0  0  0  0  0  0  0  0  0  0
  -19.4555  -12.3125   23.3468 C   0  0  0  0  0  0  0  0  0  0  0  0
  -29.5011  -23.1899   15.4514 C   0  0  0  0  0  0  0  0  0  0  0  0
  -19.9285  -12.4091   21.8998 C   0  0  0  0  0  0  0  0  0  0  0  0
  -29.1797  -24.2057   16.5501 C   0  0  0  0  0  0  0  0  0  0  0  0
  -28.6565  -21.9240   15.5847 C   0  0  0  0  0  0  0  0  0  0  0  0
  -28.3810  -22.2990   18.0040 C   0  0  0  0  0  0  0  0  0  0  0  0
  -21.3755  -11.9215   21.7586 C   0  0  1  0  0  0  0  0  0  0  0  0
  -23.6923  -14.9112   22.1153 C   0  0  1  0  0  0  0  0  0  0  0  0
  -29.2529  -23.5641   17.9496 C   0  0  2  0  0  0  0  0  0  0  0  0
  -25.5048  -22.2196   20.2973 C   0  0  0  0  0  0  0  0  0  0  0  0
  -28.6914  -13.5938   16.2825 C   0  0  0  0  0  0  0  0  0  0  0  0
  -21.5271  -17.1666   18.7115 C   0  0  0  0  0  0  0  0  0  0  0  0
  -22.4555  -19.4233   18.1517 C   0  0  0  0  0  0  0  0  0  0  0  0
  -21.1365  -19.1034   20.2446 C   0  0  0  0  0  0  0  0  0  0  0  0
  -27.6299  -19.7842   22.3044 C   0  0  0  0  0  0  0  0  0  0  0  0
  -30.6016  -14.1320   17.8339 C   0  0  0  0  0  0  0  0  0  0  0  0
  -23.4731  -18.1498   20.0943 C   0  0  1  0  0  0  0  0  0  0  0  0
  -25.7753  -20.9772   21.1316 C   0  0  2  0  0  0  0  0  0  0  0  0
  -29.0856  -13.9571   17.7083 C   0  0  2  0  0  0  0  0  0  1  0  0
  -22.1654  -18.4386   19.3045 C   0  0  0  0  0  0  0  0  0  0  0  0
  -27.9848  -25.5110   18.7758 N   0  0  0  0  0  0  0  0  0  0  0  0
  -28.8891  -24.5531   19.0412 N   0  0  0  0  0  0  0  0  0  0  0  0
  -24.0006  -15.9824   21.1657 N   0  0  0  0  0  0  0  0  0  0  0  0
  -28.7785  -21.3697   16.9348 N   0  0  0  0  0  0  0  0  0  0  0  0
  -30.3000  -23.7075   20.7457 N   0  0  0  0  0  0  0  0  0  0  0  0
  -30.3614  -16.4977   21.7394 N   0  0  0  0  0  0  0  0  0  0  0  0
  -28.2389  -27.1987   22.7356 N   0  0  0  0  0  0  0  0  0  0  0  0
  -29.3470  -19.6410   18.4351 N   0  0  0  0  0  0  0  0  0  0  0  0
  -22.2980  -12.9357   22.2219 N   0  0  0  0  0  0  0  0  0  0  0  0
  -24.0850  -19.3327   20.6899 N   0  0  0  0  0  0  0  0  0  0  0  0
  -27.2270  -20.9428   21.4664 N   0  3  0  0  0  0  0  0  0  0  0  0
  -31.7190  -14.4105   19.9563 O   0  0  0  0  0  0  0  0  0  0  0  0
  -29.7756  -25.5239   23.0397 O   0  0  0  0  0  0  0  0  0  0  0  0
  -22.4280  -14.1821   20.2593 O   0  0  0  0  0  0  0  0  0  0  0  0
  -22.4688  -17.4538   22.1273 O   0  0  0  0  0  0  0  0  0  0  0  0
  -26.1300  -19.1296   19.6157 O   0  0  0  0  0  0  0  0  0  0  0  0
  -29.5486  -19.3385   16.1439 O   0  0  0  0  0  0  0  0  0  0  0  0
  -29.8083  -18.1870   20.2600 O   0  0  0  0  0  0  0  0  0  0  0  0
  -24.4691  -30.5673   20.3955 O   0  0  0  0  0  0  0  0  0  0  0  0
  -28.6755  -12.9013   18.5764 O   0  0  0  0  0  0  0  0  0  1  0  0
  -19.3614  -30.0433   18.3855 F   0  0  0  0  0  0  0  0  0  0  0  0
  -22.2631  -30.8420   22.0389 F   0  0  0  0  0  0  0  0  0  0  0  0
  1  2  1  0  0  0  0
  1  5  2  0  0  0  0
  2  6  2  0  0  0  0
  3  8  2  0  0  0  0
  3 16  1  0  0  0  0
  4  9  1  0  0  0  0
  4 16  2  0  0  0  0
  5 19  1  0  0  0  0
  6 21  1  0  0  0  0
  7 10  2  0  0  0  0
  7 20  1  0  0  0  0
  8 23  1  0  0  0  0
  9 23  2  0  0  0  0
 10 24  1  0  0  0  0
 11 12  2  0  0  0  0
 11 25  1  0  0  0  0
 12 26  1  0  0  0  0
 13 17  1  0  0  0  0
 13 30  2  0  0  0  0
 14 22  1  0  0  0  0
 14 24  2  0  0  0  0
 15 26  2  0  0  0  0
 15 27  1  0  0  0  0
 16 28  1  0  0  0  0
 17 31  2  0  0  0  0
 17 32  1  0  0  0  0
 18 28  1  0  0  0  0
 18 29  2  0  0  0  0
 18 33  1  0  0  0  0
 19 21  2  0  0  0  0
 19 38  1  0  0  0  0
 20 22  2  0  0  0  0
 20 39  1  0  0  0  0
 21 47  1  0  0  0  0
 22 40  1  0  0  0  0
 23 79  1  0  0  0  0
 24 80  1  0  0  0  0
 25 27  2  0  0  0  0
 25 79  1  0  0  0  0
 26 81  1  0  0  0  0
 27 82  1  0  0  0  0
 28 61  2  0  0  0  0
 29 62  1  0  0  0  0
 29 65  1  0  0  0  0
 30 68  1  0  0  0  0
 30 78  1  0  0  0  0
 31 66  1  0  0  0  0
 31 78  1  0  0  0  0
 32 56  1  0  0  0  0
 32 72  2  0  0  0  0
 33 67  1  0  0  0  0
 33 73  2  0  0  0  0
 34 48  1  0  0  0  0
 34 69  1  0  0  0  0
 34 74  2  0  0  0  0
 35 57  1  0  0  0  0
 35 63  1  0  0  0  0
 35 75  2  0  0  0  0
 36 58  1  0  0  0  0
 36 70  1  0  0  0  0
 36 76  2  0  0  0  0
 37 64  1  0  0  0  0
 37 68  1  0  0  0  0
 37 77  2  0  0  0  0
 38 41  1  0  0  0  0
 39 48  1  0  0  0  0
 40 63  1  0  0  0  0
 41 43  1  0  0  0  0
 42 44  1  0  0  0  0
 42 45  1  0  0  0  0
 43 47  1  0  0  0  0
 44 49  1  0  0  0  0
 45 64  1  0  0  0  0
 46 49  1  0  0  0  0
 46 64  1  0  0  0  0
 47 69  1  0  0  0  0
 48 63  1  0  0  0  0
 49 62  1  0  0  0  0
 50 58  1  0  0  0  0
 51 59  1  0  0  0  0
 52 60  1  0  0  0  0
 53 60  1  0  0  0  0
 54 60  1  0  0  0  0
 55 71  1  0  0  0  0
 56 59  1  0  0  0  0
 57 60  1  0  0  0  0
 57 70  1  0  0  0  0
 58 71  1  0  0  0  0
 59 80  1  0  0  0  0
 61 62  1  0  0  0  0
M  CHG  1  71   1
M  ISO  4  37 100  59 101  68 100  80 101
M  END
> <Batch ID>
0158

> <Smiles>
CNC(C)C(=O)NC(C(=O)N1Cc2cc([101O:1][101CH:1](C)CC(=O)c3cc([100NH:0][100C:0](=O)N4CCCC(n5nc(-c6ccc(Oc7ccc(F)cc7F)cc6)c(C(N)=O)c5N)C4)oc3N)ccc2CC1C(=O)NC1CCCc2ccccc21)C(C)(C)C

> <Shape>
0.231

> <Color>
0.077

> <Negative vol penalty>
0.000

$$$$

  -OEChem-04052303443D

 86 95  0     1  0  0  0  0  0999 V2000
  -17.4457  -30.6624   24.5911 C   0  0  0  0  0  0  0  0  0  0  0  0
  -18.1765  -29.8929   25.4906 C   0  0  0  0  0  0  0  0  0  0  0  0
  -23.2898   -9.6215   20.5361 C   0  0  0  0  0  0  0  0  0  0  0  0
  -23.8441  -10.2480   22.8027 C   0  0  0  0  0  0  0  0  0  0  0  0
  -17.5056  -30.3824   23.2266 C   0  0  0  0  0  0  0  0  0  0  0  0
  -18.9668  -28.8422   25.0262 C   0  0  0  0  0  0  0  0  0  0  0  0
  -25.0776  -25.3929   26.4675 C   0  0  0  0  0  0  0  0  0  0  0  0
  -22.5834   -8.5177   21.0139 C   0  0  0  0  0  0  0  0  0  0  0  0
  -23.1376   -9.1443   23.2805 C   0  0  0  0  0  0  0  0  0  0  0  0
  -25.5631  -24.1023   26.6737 C   0  0  0  0  0  0  0  0  0  0  0  0
  -19.9112   -8.3005   23.8275 C   0  0  0  0  0  0  0  0  0  0  0  0
  -19.0571   -8.4996   24.9122 C   0  0  0  0  0  0  0  0  0  0  0  0
  -31.2474  -19.4512   21.3184 C   0  0  0  0  0  0  0  0  0  0  0  0
  -31.4325  -18.0987   20.9447 C   0  0  0  0  0  0  0  0  0  0  0  0
  -25.6517  -23.7610   24.2873 C   0  0  0  0  0  0  0  0  0  0  0  0
  -20.3211   -6.8948   26.2021 C   0  0  0  0  0  0  0  0  0  0  0  0
  -23.9202  -10.4866   21.4305 C   0  0  0  0  0  0  0  0  0  0  0  0
  -24.1490  -12.9208   20.7026 C   0  0  0  0  0  0  0  0  0  0  0  0
  -18.3047  -29.3338   22.7443 C   0  0  0  0  0  0  0  0  0  0  0  0
  -24.8648  -25.8741   25.1677 C   0  0  0  0  0  0  0  0  0  0  0  0
  -19.0365  -28.5470   23.6541 C   0  0  0  0  0  0  0  0  0  0  0  0
  -25.1658  -25.0589   24.0673 C   0  0  0  0  0  0  0  0  0  0  0  0
  -22.5072   -8.2791   22.3861 C   0  0  0  0  0  0  0  0  0  0  0  0
  -25.8475  -23.2851   25.5835 C   0  0  0  0  0  0  0  0  0  0  0  0
  -20.9702   -7.3984   23.9301 C   0  0  0  0  0  0  0  0  0  0  0  0
  -19.2620   -7.7968   26.0995 C   0  0  0  0  0  0  0  0  0  0  0  0
  -21.1751   -6.6956   25.1174 C   0  0  0  0  0  0  0  0  0  0  0  0
  -24.6506  -11.6266   20.9375 C   0  0  0  0  0  0  0  0  0  0  0  0
  -29.9606  -19.5430   21.7954 C   0  0  0  0  0  0  0  0  0  0  0  0
  -25.2314  -13.6303   20.2427 C   0  0  0  0  0  0  0  0  0  0  0  0
  -30.2456  -17.4604   21.2202 C   0  0  0  0  0  0  0  0  0  0  0  0
  -22.8233  -13.4357   20.8839 C   0  0  0  0  0  0  0  0  0  0  0  0
  -29.3319  -20.7772   22.2992 C   0  0  0  0  0  0  0  0  0  0  0  0
  -25.3468  -21.0880   23.8477 C   0  0  0  0  0  0  0  0  0  0  0  0
  -22.3285  -26.8734   23.5330 C   0  0  0  0  0  0  0  0  0  0  0  0
  -24.5528  -27.6190   21.2927 C   0  0  0  0  0  0  0  0  0  0  0  0
  -27.6567  -27.0542   19.9915 C   0  0  0  0  0  0  0  0  0  0  0  0
  -30.6043  -15.0596   20.5465 C   0  0  0  0  0  0  0  0  0  0  0  0
  -18.3006  -29.0392   21.2651 C   0  0  0  0  0  0  0  0  0  0  0  0
  -24.3658  -27.2781   24.9618 C   0  0  0  0  0  0  0  0  0  0  0  0
  -24.9740  -25.5353   22.6514 C   0  0  0  0  0  0  0  0  0  0  0  0
  -19.4550  -28.1456   20.8189 C   0  0  0  0  0  0  0  0  0  0  0  0
  -29.8201  -12.0642   18.7888 C   0  0  0  0  0  0  0  0  0  0  0  0
  -19.6024  -26.9541   21.7599 C   0  0  0  0  0  0  0  0  0  0  0  0
  -28.3640  -11.7898   19.1718 C   0  0  0  0  0  0  0  0  0  0  0  0
  -27.1592  -19.8869   25.0376 C   0  0  0  0  0  0  0  0  0  0  0  0
  -30.6139  -12.6455   19.9573 C   0  0  0  0  0  0  0  0  0  0  0  0
  -27.9464  -19.4263   23.8170 C   0  0  0  0  0  0  0  0  0  0  0  0
  -28.5603  -13.5564   20.9683 C   0  0  0  0  0  0  0  0  0  0  0  0
  -27.7152  -21.8722   23.7984 C   0  0  0  0  0  0  0  0  0  0  0  0
  -19.9247  -27.4145   23.1866 C   0  0  1  0  0  0  0  0  0  0  0  0
  -23.7002  -27.4825   23.6044 C   0  0  1  0  0  0  0  0  0  0  0  0
  -27.7042  -13.0307   19.8045 C   0  0  2  0  0  0  0  0  0  0  0  0
  -26.5896  -21.2464   24.6262 C   0  0  1  0  0  0  0  0  0  1  0  0
  -29.1792  -27.7900   18.1374 C   0  0  0  0  0  0  0  0  0  0  0  0
  -22.9128  -25.9884   19.3023 C   0  0  0  0  0  0  0  0  0  0  0  0
  -24.9064  -25.9618   17.7879 C   0  0  0  0  0  0  0  0  0  0  0  0
  -23.8299  -28.1296   18.3918 C   0  0  0  0  0  0  0  0  0  0  0  0
  -29.7085  -28.0090   21.8987 C   0  0  0  0  0  0  0  0  0  0  0  0
  -25.1852  -26.8919   20.1306 C   0  0  1  0  0  0  0  0  0  0  0  0
  -28.7671  -28.0062   19.5852 C   0  0  2  0  0  0  0  0  0  0  0  0
  -24.2104  -26.7330   18.9297 C   0  0  0  0  0  0  0  0  0  0  0  0
  -25.9505  -11.5174   20.6504 N   0  0  0  0  0  0  0  0  0  0  0  0
  -26.2748  -12.7520   20.2302 N   0  0  0  0  0  0  0  0  0  0  0  0
  -28.4029  -20.6970   23.2343 N   0  0  0  0  0  0  0  0  0  0  0  0
  -24.4780  -26.9134   22.5020 N   0  0  0  0  0  0  0  0  0  0  0  0
  -29.9310  -13.8205   20.5032 N   0  0  0  0  0  0  0  0  0  0  0  0
  -25.3830  -14.9135   19.8517 N   0  0  0  0  0  0  0  0  0  0  0  0
  -21.8307  -12.5709   21.3649 N   0  0  0  0  0  0  0  0  0  0  0  0
  -24.2069  -21.0607   24.5220 N   0  0  0  0  0  0  0  0  0  0  0  0
  -29.8437  -16.1117   21.0556 N   0  0  0  0  0  0  0  0  0  0  0  0
  -21.3191  -27.7866   23.2948 N   0  0  0  0  0  0  0  0  0  0  0  0
  -26.4107  -27.6171   19.8135 N   0  0  0  0  0  0  0  0  0  0  0  0
  -29.7114  -21.9522   21.8056 N   0  3  0  0  0  0  0  0  0  0  0  0
  -25.4460  -20.9888   22.5307 N   0  3  0  0  0  0  0  0  0  0  0  0
  -29.9643  -27.8048   20.4496 N   0  3  0  0  0  0  0  0  0  0  0  0
  -22.5238  -14.6230   20.6116 O   0  0  0  0  0  0  0  0  0  0  0  0
  -22.1959  -25.6643   23.6815 O   0  0  0  0  0  0  0  0  0  0  0  0
  -24.1468  -28.7731   21.1352 O   0  0  0  0  0  0  0  0  0  0  0  0
  -27.8730  -25.9228   20.4202 O   0  0  0  0  0  0  0  0  0  0  0  0
  -31.7607  -15.1846   20.1351 O   0  0  0  0  0  0  0  0  0  0  0  0
  -29.3432  -18.3338   21.7390 O   0  0  0  0  0  0  0  0  0  0  0  0
  -21.8178   -7.2024   22.8527 O   0  0  0  0  0  0  0  0  0  0  0  0
  -26.3209  -22.0248   25.7819 O   0  0  0  0  0  0  0  0  0  1  0  0
  -18.4427   -7.9893   27.1415 F   0  0  0  0  0  0  0  0  0  0  0  0
  -22.1915   -5.8285   25.2224 F   0  0  0  0  0  0  0  0  0  0  0  0
  1  2  1  0  0  0  0
  1  5  2  0  0  0  0
  2  6  2  0  0  0  0
  3  8  2  0  0  0  0
  3 17  1  0  0  0  0
  4  9  1  0  0  0  0
  4 17  2  0  0  0  0
  5 19  1  0  0  0  0
  6 21  1  0  0  0  0
  7 10  2  0  0  0  0
  7 20  1  0  0  0  0
  8 23  1  0  0  0  0
  9 23  2  0  0  0  0
 10 24  1  0  0  0  0
 11 12  2  0  0  0  0
 11 25  1  0  0  0  0
 12 26  1  0  0  0  0
 13 14  1  0  0  0  0
 13 29  2  0  0  0  0
 14 31  2  0  0  0  0
 15 22  1  0  0  0  0
 15 24  2  0  0  0  0
 16 26  2  0  0  0  0
 16 27  1  0  0  0  0
 17 28  1  0  0  0  0
 18 28  1  0  0  0  0
 18 30  2  0  0  0  0
 18 32  1  0  0  0  0
 19 21  2  0  0  0  0
 19 39  1  0  0  0  0
 20 22  2  0  0  0  0
 20 40  1  0  0  0  0
 21 51  1  0  0  0  0
 22 41  1  0  0  0  0
 23 83  1  0  0  0  0
 24 84  1  0  0  0  0
 25 27  2  0  0  0  0
 25 83  1  0  0  0  0
 26 85  1  0  0  0  0
 27 86  1  0  0  0  0
 28 63  2  0  0  0  0
 29 33  1  0  0  0  0
 29 82  1  0  0  0  0
 30 64  1  0  0  0  0
 30 68  1  0  0  0  0
 31 71  1  0  0  0  0
 31 82  1  0  0  0  0
 32 69  1  0  0  0  0
 32 77  2  0  0  0  0
 33 65  1  0  0  0  0
 33 74  2  0  0  0  0
 34 54  1  0  0  0  0
 34 70  1  0  0  0  0
 34 75  2  0  0  0  0
 35 52  1  0  0  0  0
 35 72  1  0  0  0  0
 35 78  2  0  0  0  0
 36 60  1  0  0  0  0
 36 66  1  0  0  0  0
 36 79  2  0  0  0  0
 37 61  1  0  0  0  0
 37 73  1  0  0  0  0
 37 80  2  0  0  0  0
 38 67  1  0  0  0  0
 38 71  1  0  0  0  0
 38 81  2  0  0  0  0
 39 42  1  0  0  0  0
 40 52  1  0  0  0  0
 41 66  1  0  0  0  0
 42 44  1  0  0  0  0
 43 45  1  0  0  0  0
 43 47  1  0  0  0  0
 44 51  1  0  0  0  0
 45 53  1  0  0  0  0
 46 48  1  0  0  0  0
 46 54  1  0  0  0  0
 47 67  1  0  0  0  0
 48 65  1  0  0  0  0
 49 53  1  0  0  0  0
 49 67  1  0  0  0  0
 50 54  1  0  0  0  0
 50 65  1  0  0  0  0
 51 72  1  0  0  0  0
 52 66  1  0  0  0  0
 53 64  1  0  0  0  0
 54 84  1  0  0  0  0
 55 61  1  0  0  0  0
 56 62  1  0  0  0  0
 57 62  1  0  0  0  0
 58 62  1  0  0  0  0
 59 76  1  0  0  0  0
 60 62  1  0  0  0  0
 60 73  1  0  0  0  0
 61 76  1  0  0  0  0
 63 64  1  0  0  0  0
M  CHG  3  74   1  75   1  76   1
M  ISO  4  38 100  54 101  71 100  84 101
M  END
> <Batch ID>
0158

> <Smiles>
CNC(C)C(=O)NC(C(=O)N1Cc2cc([101O:1][101C:1]3(C(=N)N)CCN(C(=N)c4ccc([100NH:0][100C:0](=O)N5CCCC(n6nc(-c7ccc(Oc8ccc(F)cc8F)cc7)c(C(N)=O)c6N)C5)o4)C3)ccc2CC1C(=O)NC1CCCc2ccccc21)C(C)(C)C

> <Shape>
0.286

> <Color>
0.168

> <Negative vol penalty>
0.000

$$$$

  -OEChem-04052303443D

 81 89  0     1  0  0  0  0  0999 V2000
  -37.7221  -33.6779   27.6413 C   0  0  0  0  0  0  0  0  0  0  0  0
  -37.3325  -32.3557   27.4533 C   0  0  0  0  0  0  0  0  0  0  0  0
  -23.1033   -9.8094   19.9640 C   0  0  0  0  0  0  0  0  0  0  0  0
  -23.8214   -9.8955   22.2692 C   0  0  0  0  0  0  0  0  0  0  0  0
  -36.7659  -34.6511   27.9287 C   0  0  0  0  0  0  0  0  0  0  0  0
  -35.9865  -32.0057   27.5537 C   0  0  0  0  0  0  0  0  0  0  0  0
  -33.0448  -27.7227   24.3119 C   0  0  0  0  0  0  0  0  0  0  0  0
  -22.3662   -8.6571   20.2366 C   0  0  0  0  0  0  0  0  0  0  0  0
  -23.0843   -8.7431   22.5419 C   0  0  0  0  0  0  0  0  0  0  0  0
  -32.6976  -26.4032   24.5983 C   0  0  0  0  0  0  0  0  0  0  0  0
  -19.4000   -7.8759   21.6594 C   0  0  0  0  0  0  0  0  0  0  0  0
  -18.1026   -7.8012   21.1526 C   0  0  0  0  0  0  0  0  0  0  0  0
  -30.5027  -27.1352   25.2808 C   0  0  0  0  0  0  0  0  0  0  0  0
  -18.7050   -5.8238   19.9019 C   0  0  0  0  0  0  0  0  0  0  0  0
  -31.7096  -18.8241   22.1511 C   0  0  0  0  0  0  0  0  0  0  0  0
  -23.8310  -10.4286   20.9803 C   0  0  0  0  0  0  0  0  0  0  0  0
  -24.1505  -12.9522   20.7875 C   0  0  0  0  0  0  0  0  0  0  0  0
  -35.4063  -34.3145   28.0231 C   0  0  0  0  0  0  0  0  0  0  0  0
  -32.1256  -28.7614   24.5185 C   0  0  0  0  0  0  0  0  0  0  0  0
  -35.0113  -32.9750   27.8439 C   0  0  0  0  0  0  0  0  0  0  0  0
  -30.8398  -28.4667   24.9938 C   0  0  0  0  0  0  0  0  0  0  0  0
  -22.3567   -8.1239   21.5255 C   0  0  0  0  0  0  0  0  0  0  0  0
  -31.4274  -26.1095   25.0856 C   0  0  0  0  0  0  0  0  0  0  0  0
  -20.3499   -6.9246   21.2874 C   0  0  0  0  0  0  0  0  0  0  0  0
  -17.7551   -6.7752   20.2739 C   0  0  0  0  0  0  0  0  0  0  0  0
  -20.0024   -5.8985   20.4087 C   0  0  0  0  0  0  0  0  0  0  0  0
  -24.5931  -11.6187   20.6992 C   0  0  0  0  0  0  0  0  0  0  0  0
  -25.2418  -13.7011   20.4205 C   0  0  0  0  0  0  0  0  0  0  0  0
  -30.5910  -19.2027   22.8635 C   0  0  0  0  0  0  0  0  0  0  0  0
  -30.4954  -17.0245   21.8393 C   0  0  0  0  0  0  0  0  0  0  0  0
  -22.8677  -13.4678   21.1674 C   0  0  0  0  0  0  0  0  0  0  0  0
  -32.0424  -31.3494   26.3621 C   0  0  0  0  0  0  0  0  0  0  0  0
  -30.7931  -22.6058   24.4321 C   0  0  0  0  0  0  0  0  0  0  0  0
  -29.3230  -31.9659   24.7045 C   0  0  0  0  0  0  0  0  0  0  0  0
  -26.7188  -30.7591   22.8583 C   0  0  0  0  0  0  0  0  0  0  0  0
  -30.6936  -14.8074   20.6598 C   0  0  0  0  0  0  0  0  0  0  0  0
  -34.4148  -35.3927   28.3823 C   0  0  0  0  0  0  0  0  0  0  0  0
  -32.5066  -30.1764   24.1794 C   0  0  0  0  0  0  0  0  0  0  0  0
  -29.8096  -29.5432   25.2137 C   0  0  0  0  0  0  0  0  0  0  0  0
  -32.9653  -35.0053   28.1013 C   0  0  0  0  0  0  0  0  0  0  0  0
  -29.6456  -12.3100   18.3486 C   0  0  0  0  0  0  0  0  0  0  0  0
  -32.6773  -33.6009   28.6226 C   0  0  0  0  0  0  0  0  0  0  0  0
  -28.2013  -12.0172   18.7613 C   0  0  0  0  0  0  0  0  0  0  0  0
  -30.5366  -12.5853   19.5586 C   0  0  0  0  0  0  0  0  0  0  0  0
  -28.5980  -13.3328   20.8824 C   0  0  0  0  0  0  0  0  0  0  0  0
  -33.5579  -32.5604   27.9201 C   0  0  1  0  0  0  0  0  0  0  0  0
  -31.6642  -31.2145   24.9142 C   0  0  1  0  0  0  0  0  0  0  0  0
  -27.6484  -13.1131   19.6934 C   0  0  2  0  0  0  0  0  0  0  0  0
  -24.6344  -31.4994   21.6733 C   0  0  0  0  0  0  0  0  0  0  0  0
  -27.8985  -32.2429   27.3885 C   0  0  0  0  0  0  0  0  0  0  0  0
  -25.7190  -32.0299   26.1748 C   0  0  0  0  0  0  0  0  0  0  0  0
  -27.2398  -33.9437   25.6775 C   0  0  0  0  0  0  0  0  0  0  0  0
  -27.7278  -29.8072   20.2440 C   0  0  0  0  0  0  0  0  0  0  0  0
  -31.3473  -21.4590   23.6137 C   0  0  0  0  0  0  0  0  0  0  0  0
  -31.7128  -23.8006   24.5924 C   0  0  0  0  0  0  0  0  0  1  0  0
  -27.8628  -31.6262   24.8816 C   0  0  1  0  0  0  0  0  0  0  0  0
  -26.1224  -31.2157   21.5392 C   0  0  2  0  0  0  0  0  0  0  0  0
  -27.1999  -32.4404   26.0284 C   0  0  0  0  0  0  0  0  0  0  0  0
  -31.6568  -17.5752   21.5634 N   0  0  0  0  0  0  0  0  0  0  0  0
  -25.8662  -11.5229   20.3067 N   0  0  0  0  0  0  0  0  0  0  0  0
  -26.2329  -12.8056   20.1451 N   0  0  0  0  0  0  0  0  0  0  0  0
  -30.2321  -30.9119   24.8734 N   0  0  0  0  0  0  0  0  0  0  0  0
  -29.9519  -13.6371   20.3933 N   0  0  0  0  0  0  0  0  0  0  0  0
  -25.4406  -15.0318   20.3096 N   0  0  0  0  0  0  0  0  0  0  0  0
  -21.8587  -12.5592   21.5149 N   0  0  0  0  0  0  0  0  0  0  0  0
  -30.3812  -20.3926   23.5457 N   0  0  0  0  0  0  0  0  0  0  0  0
  -30.0227  -15.7507   21.4373 N   0  0  0  0  0  0  0  0  0  0  0  0
  -33.0433  -32.2723   26.5986 N   0  0  0  0  0  0  0  0  0  0  0  0
  -27.2386  -31.8151   23.5766 N   0  0  0  0  0  0  0  0  0  0  0  0
  -26.3089  -30.1678   20.4960 N   0  3  0  0  0  0  0  0  0  0  0  0
  -22.6186  -14.6971   21.1820 O   0  0  0  0  0  0  0  0  0  0  0  0
  -31.4675  -30.6678   27.2028 O   0  0  0  0  0  0  0  0  0  0  0  0
  -29.6721  -22.5808   24.9386 O   0  0  0  0  0  0  0  0  0  0  0  0
  -29.6447  -33.1222   24.4196 O   0  0  0  0  0  0  0  0  0  0  0  0
  -26.7199  -29.5837   23.2175 O   0  0  0  0  0  0  0  0  0  0  0  0
  -31.8293  -14.9730   20.2073 O   0  0  0  0  0  0  0  0  0  0  0  0
  -21.6373   -6.9996   21.7920 O   0  0  0  0  0  0  0  0  0  0  0  0
  -31.0862  -24.8225   25.3666 O   0  0  0  0  0  0  0  0  0  1  0  0
  -16.5088   -6.7027   19.7886 F   0  0  0  0  0  0  0  0  0  0  0  0
  -20.9103   -4.9810   20.0486 F   0  0  0  0  0  0  0  0  0  0  0  0
  -29.4184  -17.9528   22.8002 S   0  0  0  0  0  0  0  0  0  0  0  0
  1  2  1  0  0  0  0
  1  5  2  0  0  0  0
  2  6  2  0  0  0  0
  3  8  2  0  0  0  0
  3 16  1  0  0  0  0
  4  9  1  0  0  0  0
  4 16  2  0  0  0  0
  5 18  1  0  0  0  0
  6 20  1  0  0  0  0
  7 10  2  0  0  0  0
  7 19  1  0  0  0  0
  8 22  1  0  0  0  0
  9 22  2  0  0  0  0
 10 23  1  0  0  0  0
 11 12  2  0  0  0  0
 11 24  1  0  0  0  0
 12 25  1  0  0  0  0
 13 21  1  0  0  0  0
 13 23  2  0  0  0  0
 14 25  2  0  0  0  0
 14 26  1  0  0  0  0
 15 29  2  0  0  0  0
 15 59  1  0  0  0  0
 16 27  1  0  0  0  0
 17 27  1  0  0  0  0
 17 28  2  0  0  0  0
 17 31  1  0  0  0  0
 18 20  2  0  0  0  0
 18 37  1  0  0  0  0
 19 21  2  0  0  0  0
 19 38  1  0  0  0  0
 20 46  1  0  0  0  0
 21 39  1  0  0  0  0
 22 77  1  0  0  0  0
 23 78  1  0  0  0  0
 24 26  2  0  0  0  0
 24 77  1  0  0  0  0
 25 79  1  0  0  0  0
 26 80  1  0  0  0  0
 27 60  2  0  0  0  0
 28 61  1  0  0  0  0
 28 64  1  0  0  0  0
 29 66  1  0  0  0  0
 29 81  1  0  0  0  0
 30 59  2  0  0  0  0
 30 67  1  0  0  0  0
 30 81  1  0  0  0  0
 31 65  1  0  0  0  0
 31 71  2  0  0  0  0
 32 47  1  0  0  0  0
 32 68  1  0  0  0  0
 32 72  2  0  0  0  0
 33 54  1  0  0  0  0
 33 55  1  0  0  0  0
 33 73  2  0  0  0  0
 34 56  1  0  0  0  0
 34 62  1  0  0  0  0
 34 74  2  0  0  0  0
 35 57  1  0  0  0  0
 35 69  1  0  0  0  0
 35 75  2  0  0  0  0
 36 63  1  0  0  0  0
 36 67  1  0  0  0  0
 36 76  2  0  0  0  0
 37 40  1  0  0  0  0
 38 47  1  0  0  0  0
 39 62  1  0  0  0  0
 40 42  1  0  0  0  0
 41 43  1  0  0  0  0
 41 44  1  0  0  0  0
 42 46  1  0  0  0  0
 43 48  1  0  0  0  0
 44 63  1  0  0  0  0
 45 48  1  0  0  0  0
 45 63  1  0  0  0  0
 46 68  1  0  0  0  0
 47 62  1  0  0  0  0
 48 61  1  0  0  0  0
 49 57  1  0  0  0  0
 50 58  1  0  0  0  0
 51 58  1  0  0  0  0
 52 58  1  0  0  0  0
 53 70  1  0  0  0  0
 54 66  1  0  0  0  0
 55 78  1  0  0  0  0
 56 58  1  0  0  0  0
 56 69  1  0  0  0  0
 57 70  1  0  0  0  0
 60 61  1  0  0  0  0
M  CHG  1  70   1
M  ISO  4  36 100  55 101  67 100  78 101
M  END
> <Batch ID>
0158

> <Smiles>
CNC(C)C(=O)NC(C(=O)N1Cc2cc([101O:1][101CH2:1]C(=O)CNc3cnc([100NH:0][100C:0](=O)N4CCCC(n5nc(-c6ccc(Oc7ccc(F)cc7F)cc6)c(C(N)=O)c5N)C4)s3)ccc2CC1C(=O)NC1CCCc2ccccc21)C(C)(C)C

> <Shape>
0.228

> <Color>
0.189

> <Negative vol penalty>
0.000

$$$$

  -OEChem-04052303443D

 87 96  0     1  0  0  0  0  0999 V2000
  -27.3771  -33.2387   27.0719 C   0  0  0  0  0  0  0  0  0  0  0  0
  -27.6814  -32.1631   26.2437 C   0  0  0  0  0  0  0  0  0  0  0  0
  -24.1475  -12.0254   21.3700 C   0  0  0  0  0  0  0  0  0  0  0  0
  -24.9680  -11.9947   19.0978 C   0  0  0  0  0  0  0  0  0  0  0  0
  -26.0485  -33.5200   27.3873 C   0  0  0  0  0  0  0  0  0  0  0  0
  -26.6572  -31.3675   25.7313 C   0  0  0  0  0  0  0  0  0  0  0  0
  -27.2648  -30.3514   20.8076 C   0  0  0  0  0  0  0  0  0  0  0  0
  -23.3319  -10.9289   21.0903 C   0  0  0  0  0  0  0  0  0  0  0  0
  -24.1525  -10.8981   18.8181 C   0  0  0  0  0  0  0  0  0  0  0  0
  -28.1901  -29.3645   20.4706 C   0  0  0  0  0  0  0  0  0  0  0  0
  -23.6797   -7.5795   20.7849 C   0  0  0  0  0  0  0  0  0  0  0  0
  -23.6492   -6.5404   21.7149 C   0  0  0  0  0  0  0  0  0  0  0  0
  -29.8589  -21.3339   17.6322 C   0  0  0  0  0  0  0  0  0  0  0  0
  -26.3918  -27.7802   20.1967 C   0  0  0  0  0  0  0  0  0  0  0  0
  -21.2736   -6.8707   22.0059 C   0  0  0  0  0  0  0  0  0  0  0  0
  -31.1873  -19.4672   18.2706 C   0  0  0  0  0  0  0  0  0  0  0  0
  -24.9655  -12.5583   20.3737 C   0  0  0  0  0  0  0  0  0  0  0  0
  -30.9430  -21.8198   16.9098 C   0  0  0  0  0  0  0  0  0  0  0  0
  -27.1315  -13.6668   21.1400 C   0  0  0  0  0  0  0  0  0  0  0  0
  -25.0069  -32.7334   26.8708 C   0  0  0  0  0  0  0  0  0  0  0  0
  -25.8945  -30.0567   20.8524 C   0  0  0  0  0  0  0  0  0  0  0  0
  -25.3135  -31.6378   26.0413 C   0  0  0  0  0  0  0  0  0  0  0  0
  -25.4508  -28.7657   20.5321 C   0  0  0  0  0  0  0  0  0  0  0  0
  -29.9751  -20.1359   18.3284 C   0  0  0  0  0  0  0  0  0  0  0  0
  -23.3345  -10.3652   19.8145 C   0  0  0  0  0  0  0  0  0  0  0  0
  -27.7540  -28.0780   20.1679 C   0  0  0  0  0  0  0  0  0  0  0  0
  -22.5072   -8.2643   20.4654 C   0  0  0  0  0  0  0  0  0  0  0  0
  -22.4461   -6.1860   22.3254 C   0  0  0  0  0  0  0  0  0  0  0  0
  -21.3042   -7.9098   21.0759 C   0  0  0  0  0  0  0  0  0  0  0  0
  -25.8077  -13.6914   20.6618 C   0  0  0  0  0  0  0  0  0  0  0  0
  -32.1119  -21.0758   16.9157 C   0  0  0  0  0  0  0  0  0  0  0  0
  -27.4823  -14.9904   21.2478 C   0  0  0  0  0  0  0  0  0  0  0  0
  -30.5456  -26.6002   16.9921 C   0  0  0  0  0  0  0  0  0  0  0  0
  -30.3786  -26.4384   18.3165 C   0  0  0  0  0  0  0  0  0  0  0  0
  -30.8192  -23.0897   16.1721 C   0  0  0  0  0  0  0  0  0  0  0  0
  -27.9693  -12.5476   21.4582 C   0  0  0  0  0  0  0  0  0  0  0  0
  -23.6661  -30.0892   23.1188 C   0  0  0  0  0  0  0  0  0  0  0  0
  -21.6854  -29.4284   20.6363 C   0  0  0  0  0  0  0  0  0  0  0  0
  -21.3040  -28.1493   17.4954 C   0  0  0  0  0  0  0  0  0  0  0  0
  -27.6191  -20.1740   19.2194 C   0  0  0  0  0  0  0  0  0  0  0  0
  -23.5892  -33.0478   27.2780 C   0  0  0  0  0  0  0  0  0  0  0  0
  -24.9069  -31.1393   21.1917 C   0  0  0  0  0  0  0  0  0  0  0  0
  -23.9890  -28.4034   20.5459 C   0  0  0  0  0  0  0  0  0  0  0  0
  -31.0140  -25.5179   16.0672 C   0  0  0  0  0  0  0  0  0  0  0  0
  -30.6977  -25.1327   18.9997 C   0  0  0  0  0  0  0  0  0  0  0  0
  -22.5392  -32.3827   26.3917 C   0  0  0  0  0  0  0  0  0  0  0  0
  -24.6613  -19.1816   20.9352 C   0  0  0  0  0  0  0  0  0  0  0  0
  -22.8833  -30.9138   26.1667 C   0  0  0  0  0  0  0  0  0  0  0  0
  -24.8048  -17.6627   21.0563 C   0  0  0  0  0  0  0  0  0  0  0  0
  -31.6150  -24.2423   18.1688 C   0  0  0  0  0  0  0  0  0  0  0  0
  -25.2109  -19.6990   19.6070 C   0  0  0  0  0  0  0  0  0  0  0  0
  -26.7307  -17.7688   19.4234 C   0  0  0  0  0  0  0  0  0  0  0  0
  -24.2288  -30.7666   25.4459 C   0  0  1  0  0  0  0  0  0  0  0  0
  -23.5779  -30.5955   21.7069 C   0  0  1  0  0  0  0  0  0  0  0  0
  -26.2500  -17.2088   20.7721 C   0  0  2  0  0  0  0  0  0  0  0  0
  -19.5599  -27.7123   15.7448 C   0  0  0  0  0  0  0  0  0  0  0  0
  -20.6829  -27.0319   22.2369 C   0  0  0  0  0  0  0  0  0  0  0  0
  -19.6915  -26.1243   20.1247 C   0  0  0  0  0  0  0  0  0  0  0  0
  -18.8966  -28.3058   21.0367 C   0  0  0  0  0  0  0  0  0  0  0  0
  -22.6518  -29.9204   15.5446 C   0  0  0  0  0  0  0  0  0  0  0  0
  -29.8545  -27.5369   19.1927 C   0  0  0  0  0  0  0  0  0  1  0  0
  -21.1861  -28.1674   19.9734 C   0  0  1  0  0  0  0  0  0  0  0  0
  -20.5996  -28.6925   16.2653 C   0  0  2  0  0  0  0  0  0  0  0  0
  -20.1420  -27.4134   20.8444 C   0  0  0  0  0  0  0  0  0  0  0  0
  -32.2625  -19.9079   17.5797 N   0  0  0  0  0  0  0  0  0  0  0  0
  -25.3486  -14.9322   20.4786 N   0  0  0  0  0  0  0  0  0  0  0  0
  -26.3896  -15.6996   20.8437 N   0  0  0  0  0  0  0  0  0  0  0  0
  -31.1273  -24.2283   16.7787 N   0  0  0  0  0  0  0  0  0  0  0  0
  -23.0628  -29.4948   20.8900 N   0  0  0  0  0  0  0  0  0  0  0  0
  -26.5849  -19.2328   19.4078 N   0  0  0  0  0  0  0  0  0  0  0  0
  -33.2206  -21.5669   16.1815 N   0  0  0  0  0  0  0  0  0  0  0  0
  -28.6156  -15.6051   21.6480 N   0  0  0  0  0  0  0  0  0  0  0  0
  -27.4516  -11.2562   21.2895 N   0  0  0  0  0  0  0  0  0  0  0  0
  -28.8880  -19.6147   19.0729 N   0  0  0  0  0  0  0  0  0  0  0  0
  -24.0778  -31.0402   24.0329 N   0  0  0  0  0  0  0  0  0  0  0  0
  -20.6926  -28.5650   18.6593 N   0  0  0  0  0  0  0  0  0  0  0  0
  -30.4023  -23.0739   14.9095 N   0  3  0  0  0  0  0  0  0  0  0  0
  -21.5844  -28.9545   15.1779 N   0  3  0  0  0  0  0  0  0  0  0  0
  -29.1366  -12.6888   21.8952 O   0  0  0  0  0  0  0  0  0  0  0  0
  -23.3802  -28.9225   23.3613 O   0  0  0  0  0  0  0  0  0  0  0  0
  -20.8840  -30.3246   20.9122 O   0  0  0  0  0  0  0  0  0  0  0  0
  -22.2951  -27.4254   17.4303 O   0  0  0  0  0  0  0  0  0  0  0  0
  -27.3993  -21.3879   19.2175 O   0  0  0  0  0  0  0  0  0  0  0  0
  -22.5390   -9.2951   19.5413 O   0  0  0  0  0  0  0  0  0  0  0  0
  -28.6551  -27.1127   19.8392 O   0  0  0  0  0  0  0  0  0  1  0  0
  -22.4167   -5.1871   23.2174 F   0  0  0  0  0  0  0  0  0  0  0  0
  -20.1743   -8.5632   20.7722 F   0  0  0  0  0  0  0  0  0  0  0  0
  1  2  1  0  0  0  0
  1  5  2  0  0  0  0
  2  6  2  0  0  0  0
  3  8  2  0  0  0  0
  3 17  1  0  0  0  0
  4  9  1  0  0  0  0
  4 17  2  0  0  0  0
  5 20  1  0  0  0  0
  6 22  1  0  0  0  0
  7 10  2  0  0  0  0
  7 21  1  0  0  0  0
  8 25  1  0  0  0  0
  9 25  2  0  0  0  0
 10 26  1  0  0  0  0
 11 12  2  0  0  0  0
 11 27  1  0  0  0  0
 12 28  1  0  0  0  0
 13 18  1  0  0  0  0
 13 24  2  0  0  0  0
 14 23  1  0  0  0  0
 14 26  2  0  0  0  0
 15 28  2  0  0  0  0
 15 29  1  0  0  0  0
 16 24  1  0  0  0  0
 16 65  2  0  0  0  0
 17 30  1  0  0  0  0
 18 31  2  0  0  0  0
 18 35  1  0  0  0  0
 19 30  1  0  0  0  0
 19 32  2  0  0  0  0
 19 36  1  0  0  0  0
 20 22  2  0  0  0  0
 20 41  1  0  0  0  0
 21 23  2  0  0  0  0
 21 42  1  0  0  0  0
 22 53  1  0  0  0  0
 23 43  1  0  0  0  0
 24 74  1  0  0  0  0
 25 84  1  0  0  0  0
 26 85  1  0  0  0  0
 27 29  2  0  0  0  0
 27 84  1  0  0  0  0
 28 86  1  0  0  0  0
 29 87  1  0  0  0  0
 30 66  2  0  0  0  0
 31 65  1  0  0  0  0
 31 71  1  0  0  0  0
 32 67  1  0  0  0  0
 32 72  1  0  0  0  0
 33 34  2  0  0  0  0
 33 44  1  0  0  0  0
 34 45  1  0  0  0  0
 34 61  1  0  0  0  0
 35 68  1  0  0  0  0
 35 77  2  0  0  0  0
 36 73  1  0  0  0  0
 36 79  2  0  0  0  0
 37 54  1  0  0  0  0
 37 75  1  0  0  0  0
 37 80  2  0  0  0  0
 38 62  1  0  0  0  0
 38 69  1  0  0  0  0
 38 81  2  0  0  0  0
 39 63  1  0  0  0  0
 39 76  1  0  0  0  0
 39 82  2  0  0  0  0
 40 70  1  0  0  0  0
 40 74  1  0  0  0  0
 40 83  2  0  0  0  0
 41 46  1  0  0  0  0
 42 54  1  0  0  0  0
 43 69  1  0  0  0  0
 44 68  1  0  0  0  0
 45 50  1  0  0  0  0
 46 48  1  0  0  0  0
 47 49  1  0  0  0  0
 47 51  1  0  0  0  0
 48 53  1  0  0  0  0
 49 55  1  0  0  0  0
 50 68  1  0  0  0  0
 51 70  1  0  0  0  0
 52 55  1  0  0  0  0
 52 70  1  0  0  0  0
 53 75  1  0  0  0  0
 54 69  1  0  0  0  0
 55 67  1  0  0  0  0
 56 63  1  0  0  0  0
 57 64  1  0  0  0  0
 58 64  1  0  0  0  0
 59 64  1  0  0  0  0
 60 78  1  0  0  0  0
 61 85  1  0  0  0  0
 62 64  1  0  0  0  0
 62 76  1  0  0  0  0
 63 78  1  0  0  0  0
 66 67  1  0  0  0  0
M  CHG  2  77   1  78   1
M  ISO  4  40 100  61 101  74 100  85 101
M  END
> <Batch ID>
0158

> <Smiles>
CNC(C)C(=O)NC(C(=O)N1Cc2cc([101O:1][101CH2:1]C3=CCN(C(=N)c4cc([100NH:0][100C:0](=O)N5CCCC(n6nc(-c7ccc(Oc8ccc(F)cc8F)cc7)c(C(N)=O)c6N)C5)cnc4N)CC3)ccc2CC1C(=O)NC1CCCc2ccccc21)C(C)(C)C

> <Shape>
0.299

> <Color>
0.068

> <Negative vol penalty>
0.000

$$$$

  -OEChem-04052303443D

 85 94  0     1  0  0  0  0  0999 V2000
  -18.9311  -20.3422   27.3397 C   0  0  0  0  0  0  0  0  0  0  0  0
  -20.2623  -20.5511   26.9940 C   0  0  0  0  0  0  0  0  0  0  0  0
  -23.0807   -9.8610   19.9560 C   0  0  0  0  0  0  0  0  0  0  0  0
  -23.8255   -9.8979   22.2540 C   0  0  0  0  0  0  0  0  0  0  0  0
  -17.9254  -21.0741   26.7097 C   0  0  0  0  0  0  0  0  0  0  0  0
  -20.5887  -21.4914   26.0174 C   0  0  0  0  0  0  0  0  0  0  0  0
  -24.5024  -24.4104   27.3616 C   0  0  0  0  0  0  0  0  0  0  0  0
  -22.3350   -8.7112   20.2161 C   0  0  0  0  0  0  0  0  0  0  0  0
  -23.0798   -8.7482   22.5142 C   0  0  0  0  0  0  0  0  0  0  0  0
  -25.7775  -23.8585   27.2460 C   0  0  0  0  0  0  0  0  0  0  0  0
  -21.0858   -6.0289   23.8734 C   0  0  0  0  0  0  0  0  0  0  0  0
  -20.3218   -6.0007   25.0401 C   0  0  0  0  0  0  0  0  0  0  0  0
  -26.0917  -25.0354   25.1639 C   0  0  0  0  0  0  0  0  0  0  0  0
  -31.7902  -17.5691   21.6803 C   0  0  0  0  0  0  0  0  0  0  0  0
  -19.0823   -7.9283   24.2751 C   0  0  0  0  0  0  0  0  0  0  0  0
  -23.8259  -10.4543   20.9750 C   0  0  0  0  0  0  0  0  0  0  0  0
  -24.1689  -12.9777   20.8242 C   0  0  0  0  0  0  0  0  0  0  0  0
  -18.2402  -22.0307   25.7317 C   0  0  0  0  0  0  0  0  0  0  0  0
  -24.0073  -25.2717   26.3720 C   0  0  0  0  0  0  0  0  0  0  0  0
  -19.5862  -22.2358   25.3728 C   0  0  0  0  0  0  0  0  0  0  0  0
  -24.8109  -25.5989   25.2705 C   0  0  0  0  0  0  0  0  0  0  0  0
  -31.8731  -18.8365   22.3260 C   0  0  0  0  0  0  0  0  0  0  0  0
  -22.3345   -8.1548   21.4952 C   0  0  0  0  0  0  0  0  0  0  0  0
  -26.5713  -24.1687   26.1456 C   0  0  0  0  0  0  0  0  0  0  0  0
  -20.8481   -7.0069   22.9076 C   0  0  0  0  0  0  0  0  0  0  0  0
  -19.3201   -6.9503   25.2409 C   0  0  0  0  0  0  0  0  0  0  0  0
  -19.8463   -7.9565   23.1084 C   0  0  0  0  0  0  0  0  0  0  0  0
  -24.5969  -11.6417   20.7067 C   0  0  0  0  0  0  0  0  0  0  0  0
  -25.2635  -13.7223   20.4583 C   0  0  0  0  0  0  0  0  0  0  0  0
  -30.5777  -16.9539   21.9016 C   0  0  0  0  0  0  0  0  0  0  0  0
  -30.7205  -19.1418   23.0161 C   0  0  0  0  0  0  0  0  0  0  0  0
  -27.9429  -22.4368   25.3776 C   0  0  0  0  0  0  0  0  0  1  0  0
  -22.8957  -13.4990   21.2279 C   0  0  0  0  0  0  0  0  0  0  0  0
  -29.1071  -21.8044   25.1968 C   0  0  0  0  0  0  0  0  0  0  0  0
  -29.1744  -20.4984   24.4655 C   0  0  0  0  0  0  0  0  0  0  0  0
  -21.5505  -25.1958   24.3566 C   0  0  0  0  0  0  0  0  0  0  0  0
  -22.5239  -28.2127   23.6686 C   0  0  0  0  0  0  0  0  0  0  0  0
  -25.0544  -30.5022   23.6286 C   0  0  0  0  0  0  0  0  0  0  0  0
  -30.7286  -14.7697   20.6553 C   0  0  0  0  0  0  0  0  0  0  0  0
  -17.1154  -22.7639   25.0447 C   0  0  0  0  0  0  0  0  0  0  0  0
  -22.6401  -25.8798   26.5247 C   0  0  0  0  0  0  0  0  0  0  0  0
  -24.3339  -26.5343   24.1908 C   0  0  0  0  0  0  0  0  0  0  0  0
  -17.5723  -24.0081   24.2874 C   0  0  0  0  0  0  0  0  0  0  0  0
  -29.6294  -12.3254   18.3114 C   0  0  0  0  0  0  0  0  0  0  0  0
  -34.4463  -19.1879   22.6826 C   0  0  0  0  0  0  0  0  0  0  0  0
  -33.7542  -20.1976   23.5438 C   0  0  0  0  0  0  0  0  0  0  0  0
  -18.8086  -23.6989   23.4492 C   0  0  0  0  0  0  0  0  0  0  0  0
  -28.1869  -12.0395   18.7353 C   0  0  0  0  0  0  0  0  0  0  0  0
  -30.5366  -12.5697   19.5160 C   0  0  0  0  0  0  0  0  0  0  0  0
  -28.6208  -13.3122   20.8751 C   0  0  0  0  0  0  0  0  0  0  0  0
  -33.1028  -19.7421   22.2537 C   0  0  0  0  0  0  0  0  0  0  0  0
  -19.9819  -23.2646   24.3359 C   0  0  1  0  0  0  0  0  0  0  0  0
  -22.0391  -26.3393   25.2000 C   0  0  1  0  0  0  0  0  0  0  0  0
  -27.6557  -13.1237   19.6933 C   0  0  2  0  0  0  0  0  0  0  0  0
  -25.5563  -32.8725   22.9748 C   0  0  0  0  0  0  0  0  0  0  0  0
  -22.6033  -27.3837   20.7333 C   0  0  0  0  0  0  0  0  0  0  0  0
  -23.9836  -29.4200   20.2677 C   0  0  0  0  0  0  0  0  0  0  0  0
  -21.6625  -29.6634   21.1484 C   0  0  0  0  0  0  0  0  0  0  0  0
  -25.7503  -31.2438   26.4079 C   0  0  0  0  0  0  0  0  0  0  0  0
  -23.4889  -28.8261   22.6830 C   0  0  1  0  0  0  0  0  0  0  0  0
  -25.1148  -31.9451   24.0964 C   0  0  2  0  0  0  0  0  0  0  0  0
  -22.9431  -28.8041   21.2273 C   0  0  0  0  0  0  0  0  0  0  0  0
  -25.8644  -11.5403   20.2981 N   0  0  0  0  0  0  0  0  0  0  0  0
  -26.2423  -12.8221   20.1554 N   0  0  0  0  0  0  0  0  0  0  0  0
  -22.9875  -27.0983   24.3822 N   0  0  0  0  0  0  0  0  0  0  0  0
  -29.9721  -13.6119   20.3762 N   0  0  0  0  0  0  0  0  0  0  0  0
  -25.4745  -15.0527   20.3693 N   0  0  0  0  0  0  0  0  0  0  0  0
  -21.8815  -12.5943   21.5704 N   0  0  0  0  0  0  0  0  0  0  0  0
  -30.3673  -20.2774   23.7897 N   0  0  0  0  0  0  0  0  0  0  0  0
  -30.0760  -15.7054   21.4574 N   0  0  0  0  0  0  0  0  0  0  0  0
  -20.5893  -24.4151   24.9697 N   0  0  0  0  0  0  0  0  0  0  0  0
  -23.7937  -30.1609   23.1868 N   0  0  0  0  0  0  0  0  0  0  0  0
  -30.2999  -22.3786   25.6919 N   0  3  0  0  0  0  0  0  0  0  0  0
  -26.0764  -32.0834   25.2265 N   0  3  0  0  0  0  0  0  0  0  0  0
  -22.6593  -14.7303   21.2676 O   0  0  0  0  0  0  0  0  0  0  0  0
  -28.2129  -19.7340   24.5118 O   0  0  0  0  0  0  0  0  0  0  0  0
  -22.0103  -25.0348   23.2322 O   0  0  0  0  0  0  0  0  0  0  0  0
  -21.4028  -28.7086   23.8058 O   0  0  0  0  0  0  0  0  0  0  0  0
  -26.0292  -29.7539   23.6493 O   0  0  0  0  0  0  0  0  0  0  0  0
  -31.8608  -14.9323   20.1930 O   0  0  0  0  0  0  0  0  0  0  0  0
  -21.6069   -7.0331   21.7495 O   0  0  0  0  0  0  0  0  0  0  0  0
  -27.8160  -23.6309   26.0301 O   0  0  0  0  0  0  0  0  0  1  0  0
  -18.5855   -6.9222   26.3607 F   0  0  0  0  0  0  0  0  0  0  0  0
  -19.6125   -8.8977   22.1836 F   0  0  0  0  0  0  0  0  0  0  0  0
  -29.5455  -17.9032   22.8843 S   0  0  0  0  0  0  0  0  0  0  0  0
  1  2  1  0  0  0  0
  1  5  2  0  0  0  0
  2  6  2  0  0  0  0
  3  8  2  0  0  0  0
  3 16  1  0  0  0  0
  4  9  1  0  0  0  0
  4 16  2  0  0  0  0
  5 18  1  0  0  0  0
  6 20  1  0  0  0  0
  7 10  2  0  0  0  0
  7 19  1  0  0  0  0
  8 23  1  0  0  0  0
  9 23  2  0  0  0  0
 10 24  1  0  0  0  0
 11 12  2  0  0  0  0
 11 25  1  0  0  0  0
 12 26  1  0  0  0  0
 13 21  1  0  0  0  0
 13 24  2  0  0  0  0
 14 22  1  0  0  0  0
 14 30  2  0  0  0  0
 15 26  2  0  0  0  0
 15 27  1  0  0  0  0
 16 28  1  0  0  0  0
 17 28  1  0  0  0  0
 17 29  2  0  0  0  0
 17 33  1  0  0  0  0
 18 20  2  0  0  0  0
 18 40  1  0  0  0  0
 19 21  2  0  0  0  0
 19 41  1  0  0  0  0
 20 52  1  0  0  0  0
 21 42  1  0  0  0  0
 22 31  2  0  0  0  0
 22 51  1  0  0  0  0
 23 81  1  0  0  0  0
 24 82  1  0  0  0  0
 25 27  2  0  0  0  0
 25 81  1  0  0  0  0
 26 83  1  0  0  0  0
 27 84  1  0  0  0  0
 28 63  2  0  0  0  0
 29 64  1  0  0  0  0
 29 67  1  0  0  0  0
 30 70  1  0  0  0  0
 30 85  1  0  0  0  0
 31 69  1  0  0  0  0
 31 85  1  0  0  0  0
 32 34  2  0  0  0  0
 32 82  1  0  0  0  0
 33 68  1  0  0  0  0
 33 75  2  0  0  0  0
 34 35  1  0  0  0  0
 34 73  1  0  0  0  0
 35 69  1  0  0  0  0
 35 76  2  0  0  0  0
 36 53  1  0  0  0  0
 36 71  1  0  0  0  0
 36 77  2  0  0  0  0
 37 60  1  0  0  0  0
 37 65  1  0  0  0  0
 37 78  2  0  0  0  0
 38 61  1  0  0  0  0
 38 72  1  0  0  0  0
 38 79  2  0  0  0  0
 39 66  1  0  0  0  0
 39 70  1  0  0  0  0
 39 80  2  0  0  0  0
 40 43  1  0  0  0  0
 41 53  1  0  0  0  0
 42 65  1  0  0  0  0
 43 47  1  0  0  0  0
 44 48  1  0  0  0  0
 44 49  1  0  0  0  0
 45 46  1  0  0  0  0
 45 51  1  0  0  0  0
 46 51  1  0  0  0  0
 47 52  1  0  0  0  0
 48 54  1  0  0  0  0
 49 66  1  0  0  0  0
 50 54  1  0  0  0  0
 50 66  1  0  0  0  0
 52 71  1  0  0  0  0
 53 65  1  0  0  0  0
 54 64  1  0  0  0  0
 55 61  1  0  0  0  0
 56 62  1  0  0  0  0
 57 62  1  0  0  0  0
 58 62  1  0  0  0  0
 59 74  1  0  0  0  0
 60 62  1  0  0  0  0
 60 72  1  0  0  0  0
 61 74  1  0  0  0  0
 63 64  1  0  0  0  0
M  CHG  2  73   1  74   1
M  ISO  4  32 101  39 100  70 100  82 101
M  END
> <Batch ID>
0158

> <Smiles>
CNC(C)C(=O)NC(C(=O)N1Cc2cc([101O:1][101CH2:1]C(=N)C(=O)Nc3sc([100NH:0][100C:0](=O)N4CCCC(n5nc(-c6ccc(Oc7ccc(F)cc7F)cc6)c(C(N)=O)c5N)C4)cc3C3CC3)ccc2CC1C(=O)NC1CCCc2ccccc21)C(C)(C)C

> <Shape>
0.246

> <Color>
0.184

> <Negative vol penalty>
0.000

$$$$

  -OEChem-04052303443D

 86 94  0     1  0  0  0  0  0999 V2000
  -17.6881  -25.1628   20.9822 C   0  0  0  0  0  0  0  0  0  0  0  0
  -19.0275  -24.8934   20.7195 C   0  0  0  0  0  0  0  0  0  0  0  0
  -22.5480  -10.3319   20.3888 C   0  0  0  0  0  0  0  0  0  0  0  0
  -24.4150   -9.4937   21.6728 C   0  0  0  0  0  0  0  0  0  0  0  0
  -17.3334  -26.3222   21.6706 C   0  0  0  0  0  0  0  0  0  0  0  0
  -20.0129  -25.7839   21.1441 C   0  0  0  0  0  0  0  0  0  0  0  0
  -23.9593  -23.4391   23.2825 C   0  0  0  0  0  0  0  0  0  0  0  0
  -21.9278   -9.0856   20.4770 C   0  0  0  0  0  0  0  0  0  0  0  0
  -23.7948   -8.2474   21.7611 C   0  0  0  0  0  0  0  0  0  0  0  0
  -24.8818  -22.8372   22.4278 C   0  0  0  0  0  0  0  0  0  0  0  0
  -21.3282   -6.8175   23.5755 C   0  0  0  0  0  0  0  0  0  0  0  0
  -21.3194   -6.1864   24.8194 C   0  0  0  0  0  0  0  0  0  0  0  0
  -26.3466  -24.7371   22.6804 C   0  0  0  0  0  0  0  0  0  0  0  0
  -22.5295   -4.3182   23.8799 C   0  0  0  0  0  0  0  0  0  0  0  0
  -30.4808  -19.6346   19.5569 C   0  0  0  0  0  0  0  0  0  0  0  0
  -23.7917  -10.5359   20.9867 C   0  0  0  0  0  0  0  0  0  0  0  0
  -24.3035  -12.9027   21.7892 C   0  0  0  0  0  0  0  0  0  0  0  0
  -18.3157  -27.2225   22.1124 C   0  0  0  0  0  0  0  0  0  0  0  0
  -24.2192  -24.7016   23.8348 C   0  0  0  0  0  0  0  0  0  0  0  0
  -19.6709  -26.9571   21.8380 C   0  0  0  0  0  0  0  0  0  0  0  0
  -25.4269  -25.3518   23.5438 C   0  0  0  0  0  0  0  0  0  0  0  0
  -22.5511   -8.0434   21.1632 C   0  0  0  0  0  0  0  0  0  0  0  0
  -26.0744  -23.4874   22.1244 C   0  0  0  0  0  0  0  0  0  0  0  0
  -21.9376   -6.1990   22.4838 C   0  0  0  0  0  0  0  0  0  0  0  0
  -21.9201   -4.9367   24.9715 C   0  0  0  0  0  0  0  0  0  0  0  0
  -22.5382   -4.9493   22.6360 C   0  0  0  0  0  0  0  0  0  0  0  0
  -30.7724  -18.7988   18.4526 C   0  0  0  0  0  0  0  0  0  0  0  0
  -24.4332  -11.8228   20.8953 C   0  0  0  0  0  0  0  0  0  0  0  0
  -30.0774  -19.3191   17.3857 C   0  0  0  0  0  0  0  0  0  0  0  0
  -25.1076  -13.8834   21.2618 C   0  0  0  0  0  0  0  0  0  0  0  0
  -29.6286  -20.6062   19.0861 C   0  0  0  0  0  0  0  0  0  0  0  0
  -23.5258  -13.0096   22.9889 C   0  0  0  0  0  0  0  0  0  0  0  0
  -22.8259  -27.5536   23.6664 C   0  0  0  0  0  0  0  0  0  0  0  0
  -28.7220  -24.4774   20.7361 C   0  0  0  0  0  0  0  0  0  0  0  0
  -25.0380  -28.3339   25.9069 C   0  0  0  0  0  0  0  0  0  0  0  0
  -28.0703  -27.6870   27.3330 C   0  0  0  0  0  0  0  0  0  0  0  0
  -29.8535  -15.4920   19.0817 C   0  0  0  0  0  0  0  0  0  0  0  0
  -17.8805  -28.4862   22.8113 C   0  0  0  0  0  0  0  0  0  0  0  0
  -23.2257  -25.3255   24.7762 C   0  0  0  0  0  0  0  0  0  0  0  0
  -25.7626  -26.6993   24.1270 C   0  0  0  0  0  0  0  0  0  0  0  0
  -19.0118  -29.1913   23.5552 C   0  0  0  0  0  0  0  0  0  0  0  0
  -27.4044  -14.2018   16.7687 C   0  0  0  0  0  0  0  0  0  0  0  0
  -20.2544  -29.2819   22.6751 C   0  0  0  0  0  0  0  0  0  0  0  0
  -26.3994  -13.5495   17.7193 C   0  0  0  0  0  0  0  0  0  0  0  0
  -28.8382  -14.0119   17.2572 C   0  0  0  0  0  0  0  0  0  0  0  0
  -28.0780  -13.8360   19.5961 C   0  0  0  0  0  0  0  0  0  0  0  0
  -20.7706  -27.8864   22.3041 C   0  0  1  0  0  0  0  0  0  0  0  0
  -23.3660  -26.8415   24.8742 C   0  0  1  0  0  0  0  0  0  0  0  0
  -26.6120  -14.0252   19.1682 C   0  0  2  0  0  0  0  0  0  0  0  0
  -29.9526  -18.9293   15.9734 C   0  0  0  0  0  0  0  0  0  0  0  0
  -30.1258  -24.9996   20.9061 C   0  0  0  0  0  0  0  0  0  0  0  0
  -29.6250  -28.5186   29.1187 C   0  0  0  0  0  0  0  0  0  0  0  0
  -25.8592  -30.6567   24.1068 C   0  0  0  0  0  0  0  0  0  0  0  0
  -27.9696  -30.8522   25.4395 C   0  0  0  0  0  0  0  0  0  0  0  0
  -25.7616  -31.2095   26.5439 C   0  0  0  0  0  0  0  0  0  0  0  0
  -27.9342  -25.1244   28.8073 C   0  0  0  0  0  0  0  0  0  0  0  0
  -29.1982  -22.0046   21.1073 C   0  0  0  0  0  0  0  0  0  0  0  0
  -28.3531  -23.2112   21.5024 C   0  0  2  0  0  0  0  0  0  1  0  0
  -26.4488  -28.8702   25.8751 C   0  0  1  0  0  0  0  0  0  0  0  0
  -28.4936  -27.5586   28.7851 C   0  0  2  0  0  0  0  0  0  0  0  0
  -26.5029  -30.3726   25.4787 C   0  0  0  0  0  0  0  0  0  0  0  0
  -25.2549  -12.0920   19.8773 N   0  0  0  0  0  0  0  0  0  0  0  0
  -25.6487  -13.3522   20.1282 N   0  0  0  0  0  0  0  0  0  0  0  0
  -24.7564  -27.2711   25.0369 N   0  0  0  0  0  0  0  0  0  0  0  0
  -28.9777  -14.4877   18.6384 N   0  0  0  0  0  0  0  0  0  0  0  0
  -25.3974  -15.1397   21.6619 N   0  0  0  0  0  0  0  0  0  0  0  0
  -22.7564  -11.9078   23.3869 N   0  0  0  0  0  0  0  0  0  0  0  0
  -29.0213  -21.6836   19.7085 N   0  0  0  0  0  0  0  0  0  0  0  0
  -21.4906  -27.3019   23.4151 N   0  0  0  0  0  0  0  0  0  0  0  0
  -27.0270  -28.5758   27.1818 N   0  0  0  0  0  0  0  0  0  0  0  0
  -30.6923  -16.1331   18.1057 N   0  0  0  0  0  0  0  0  0  0  0  0
  -28.9559  -26.1706   29.0691 N   0  3  0  0  0  0  0  0  0  0  0  0
  -23.5006  -14.0571   23.6786 O   0  0  0  0  0  0  0  0  0  0  0  0
  -23.5655  -28.2790   23.0117 O   0  0  0  0  0  0  0  0  0  0  0  0
  -27.9142  -25.0621   20.0139 O   0  0  0  0  0  0  0  0  0  0  0  0
  -24.2180  -28.8347   26.6805 O   0  0  0  0  0  0  0  0  0  0  0  0
  -28.6134  -27.0641   26.4232 O   0  0  0  0  0  0  0  0  0  0  0  0
  -29.9116  -15.8362   20.2628 O   0  0  0  0  0  0  0  0  0  0  0  0
  -32.7255  -17.5270   17.3263 O   0  0  0  0  0  0  0  0  0  0  0  0
  -32.3411  -17.1949   19.7931 O   0  0  0  0  0  0  0  0  0  0  0  0
  -29.3777  -20.4210   17.7635 O   0  0  0  0  0  0  0  0  0  0  0  0
  -21.9461   -6.8273   21.2498 O   0  0  0  0  0  0  0  0  0  0  0  0
  -26.9762  -22.9024   21.2899 O   0  0  0  0  0  0  0  0  0  1  0  0
  -21.9130   -4.3314   26.1664 F   0  0  0  0  0  0  0  0  0  0  0  0
  -23.1262   -4.3507   21.5911 F   0  0  0  0  0  0  0  0  0  0  0  0
  -31.8226  -17.3773   18.4511 S   0  0  0  0  0  0  0  0  0  0  0  0
  1  2  1  0  0  0  0
  1  5  2  0  0  0  0
  2  6  2  0  0  0  0
  3  8  2  0  0  0  0
  3 16  1  0  0  0  0
  4  9  1  0  0  0  0
  4 16  2  0  0  0  0
  5 18  1  0  0  0  0
  6 20  1  0  0  0  0
  7 10  2  0  0  0  0
  7 19  1  0  0  0  0
  8 22  1  0  0  0  0
  9 22  2  0  0  0  0
 10 23  1  0  0  0  0
 11 12  2  0  0  0  0
 11 24  1  0  0  0  0
 12 25  1  0  0  0  0
 13 21  1  0  0  0  0
 13 23  2  0  0  0  0
 14 25  2  0  0  0  0
 14 26  1  0  0  0  0
 15 27  1  0  0  0  0
 15 31  2  0  0  0  0
 16 28  1  0  0  0  0
 17 28  1  0  0  0  0
 17 30  2  0  0  0  0
 17 32  1  0  0  0  0
 18 20  2  0  0  0  0
 18 38  1  0  0  0  0
 19 21  2  0  0  0  0
 19 39  1  0  0  0  0
 20 47  1  0  0  0  0
 21 40  1  0  0  0  0
 22 82  1  0  0  0  0
 23 83  1  0  0  0  0
 24 26  2  0  0  0  0
 24 82  1  0  0  0  0
 25 84  1  0  0  0  0
 26 85  1  0  0  0  0
 27 29  2  0  0  0  0
 27 86  1  0  0  0  0
 28 62  2  0  0  0  0
 29 50  1  0  0  0  0
 29 81  1  0  0  0  0
 30 63  1  0  0  0  0
 30 66  1  0  0  0  0
 31 68  1  0  0  0  0
 31 81  1  0  0  0  0
 32 67  1  0  0  0  0
 32 73  2  0  0  0  0
 33 48  1  0  0  0  0
 33 69  1  0  0  0  0
 33 74  2  0  0  0  0
 34 51  1  0  0  0  0
 34 58  1  0  0  0  0
 34 75  2  0  0  0  0
 35 59  1  0  0  0  0
 35 64  1  0  0  0  0
 35 76  2  0  0  0  0
 36 60  1  0  0  0  0
 36 70  1  0  0  0  0
 36 77  2  0  0  0  0
 37 65  1  0  0  0  0
 37 71  1  0  0  0  0
 37 78  2  0  0  0  0
 38 41  1  0  0  0  0
 39 48  1  0  0  0  0
 40 64  1  0  0  0  0
 41 43  1  0  0  0  0
 42 44  1  0  0  0  0
 42 45  1  0  0  0  0
 43 47  1  0  0  0  0
 44 49  1  0  0  0  0
 45 65  1  0  0  0  0
 46 49  1  0  0  0  0
 46 65  1  0  0  0  0
 47 69  1  0  0  0  0
 48 64  1  0  0  0  0
 49 63  1  0  0  0  0
 52 60  1  0  0  0  0
 53 61  1  0  0  0  0
 54 61  1  0  0  0  0
 55 61  1  0  0  0  0
 56 72  1  0  0  0  0
 57 58  1  0  0  0  0
 57 68  1  0  0  0  0
 58 83  1  0  0  0  0
 59 61  1  0  0  0  0
 59 70  1  0  0  0  0
 60 72  1  0  0  0  0
 62 63  1  0  0  0  0
 71 86  1  0  0  0  0
 79 86  2  0  0  0  0
 80 86  2  0  0  0  0
M  CHG  1  72   1
M  ISO  4  37 100  58 101  71 100  83 101
M  END
> <Batch ID>
0158

> <Smiles>
CNC(C)C(=O)NC(C(=O)N1Cc2cc([101O:1][101CH:1](CNc3cc(S(=O)(=O)[100NH:0][100C:0](=O)N4CCCC(n5nc(-c6ccc(Oc7ccc(F)cc7F)cc6)c(C(N)=O)c5N)C4)c(C)o3)C(C)=O)ccc2CC1C(=O)NC1CCCc2ccccc21)C(C)(C)C

> <Shape>
0.268

> <Color>
0.124

> <Negative vol penalty>
0.000

$$$$

  -OEChem-04052303443D

 87 96  0     1  0  0  0  0  0999 V2000
  -28.6259  -36.0025   21.9842 C   0  0  0  0  0  0  0  0  0  0  0  0
  -28.8260  -34.6282   21.9028 C   0  0  0  0  0  0  0  0  0  0  0  0
  -23.9334   -9.6480   20.2265 C   0  0  0  0  0  0  0  0  0  0  0  0
  -23.3978   -9.9798   22.5589 C   0  0  0  0  0  0  0  0  0  0  0  0
  -27.4948  -36.5042   22.6267 C   0  0  0  0  0  0  0  0  0  0  0  0
  -27.8956  -33.7548   22.4648 C   0  0  0  0  0  0  0  0  0  0  0  0
  -26.7348  -29.8280   19.3463 C   0  0  0  0  0  0  0  0  0  0  0  0
  -23.0758   -8.5487   20.1859 C   0  0  0  0  0  0  0  0  0  0  0  0
  -22.5401   -8.8805   22.5183 C   0  0  0  0  0  0  0  0  0  0  0  0
  -27.6377  -28.7700   19.2490 C   0  0  0  0  0  0  0  0  0  0  0  0
  -22.8039   -5.5107   22.5951 C   0  0  0  0  0  0  0  0  0  0  0  0
  -22.8741   -4.5950   23.6448 C   0  0  0  0  0  0  0  0  0  0  0  0
  -26.3202  -27.5086   20.8274 C   0  0  0  0  0  0  0  0  0  0  0  0
  -28.8853  -18.3678   18.2188 C   0  0  0  0  0  0  0  0  0  0  0  0
  -20.5568   -5.0259   24.1755 C   0  0  0  0  0  0  0  0  0  0  0  0
  -24.0945  -10.3635   21.4130 C   0  0  0  0  0  0  0  0  0  0  0  0
  -26.3633  -11.5084   21.1913 C   0  0  0  0  0  0  0  0  0  0  0  0
  -26.5451  -35.6363   23.1884 C   0  0  0  0  0  0  0  0  0  0  0  0
  -25.6213  -29.7385   20.1942 C   0  0  0  0  0  0  0  0  0  0  0  0
  -26.7514  -34.2454   23.1165 C   0  0  0  0  0  0  0  0  0  0  0  0
  -25.4023  -28.5649   20.9300 C   0  0  0  0  0  0  0  0  0  0  0  0
  -29.5107  -19.5964   17.8984 C   0  0  0  0  0  0  0  0  0  0  0  0
  -22.3792   -8.1649   21.3318 C   0  0  0  0  0  0  0  0  0  0  0  0
  -27.4316  -27.6110   19.9914 C   0  0  0  0  0  0  0  0  0  0  0  0
  -21.6103   -6.1842   22.3355 C   0  0  0  0  0  0  0  0  0  0  0  0
  -21.7505   -4.3525   24.4350 C   0  0  0  0  0  0  0  0  0  0  0  0
  -20.4867   -5.9417   23.1257 C   0  0  0  0  0  0  0  0  0  0  0  0
  -24.9806  -11.4988   21.4557 C   0  0  0  0  0  0  0  0  0  0  0  0
  -26.7371  -12.8185   21.3654 C   0  0  0  0  0  0  0  0  0  0  0  0
  -27.8604  -18.6749   19.0832 C   0  0  0  0  0  0  0  0  0  0  0  0
  -28.8231  -20.5667   18.5897 C   0  0  0  0  0  0  0  0  0  0  0  0
  -27.2321  -10.4295   20.8214 C   0  0  0  0  0  0  0  0  0  0  0  0
  -24.5093  -31.3330   22.7372 C   0  0  0  0  0  0  0  0  0  0  0  0
  -28.5943  -24.2415   19.3148 C   0  0  0  0  0  0  0  0  0  0  0  0
  -21.9520  -29.2615   22.2654 C   0  0  0  0  0  0  0  0  0  0  0  0
  -20.0896  -31.1532   24.4084 C   0  0  0  0  0  0  0  0  0  0  0  0
  -25.8903  -18.2683   20.5997 C   0  0  0  0  0  0  0  0  0  0  0  0
  -25.3620  -36.2264   23.9141 C   0  0  0  0  0  0  0  0  0  0  0  0
  -24.6428  -30.8796   20.2617 C   0  0  0  0  0  0  0  0  0  0  0  0
  -24.2211  -28.4181   21.8507 C   0  0  0  0  0  0  0  0  0  0  0  0
  -24.2347  -35.2258   24.1558 C   0  0  0  0  0  0  0  0  0  0  0  0
  -33.1268  -19.6478   17.4342 C   0  0  0  0  0  0  0  0  0  0  0  0
  -32.6044  -18.2409   17.2151 C   0  0  0  0  0  0  0  0  0  0  0  0
  -24.2030  -16.7334   23.3336 C   0  0  0  0  0  0  0  0  0  0  0  0
  -24.7927  -33.9135   24.6974 C   0  0  0  0  0  0  0  0  0  0  0  0
  -24.3686  -15.2355   23.0670 C   0  0  0  0  0  0  0  0  0  0  0  0
  -31.8731  -20.4421   17.7800 C   0  0  0  0  0  0  0  0  0  0  0  0
  -31.3330  -18.4741   16.4085 C   0  0  0  0  0  0  0  0  0  0  0  0
  -24.0077  -17.5215   22.0396 C   0  0  0  0  0  0  0  0  0  0  0  0
  -25.1982  -15.7954   20.7464 C   0  0  0  0  0  0  0  0  0  0  0  0
  -25.7523  -33.2653   23.6922 C   0  0  1  0  0  0  0  0  0  0  0  0
  -23.7713  -30.8628   21.5158 C   0  0  1  0  0  0  0  0  0  0  0  0
  -25.4627  -14.9679   22.0149 C   0  0  2  0  0  0  0  0  0  0  0  0
  -30.7164  -19.7959   16.9650 C   0  0  0  0  0  0  0  0  0  0  0  0
  -30.3684  -20.6829   15.7470 C   0  0  0  0  0  0  0  0  0  0  0  0
  -17.7447  -31.4368   25.2562 C   0  0  0  0  0  0  0  0  0  0  0  0
  -21.1739  -30.6222   19.6484 C   0  0  0  0  0  0  0  0  0  0  0  0
  -19.2550  -31.6863   20.8541 C   0  0  0  0  0  0  0  0  0  0  0  0
  -19.3806  -29.2025   20.6597 C   0  0  0  0  0  0  0  0  0  0  0  0
  -20.9021  -30.5684   27.1935 C   0  0  0  0  0  0  0  0  0  0  0  0
  -28.1427  -22.8038   19.4604 C   0  0  0  0  0  0  0  0  0  0  0  0
  -27.7917  -25.2626   20.0974 C   0  0  0  0  0  0  0  0  0  1  0  0
  -20.9712  -30.4061   22.2132 C   0  0  1  0  0  0  0  0  0  0  0  0
  -19.0911  -30.7676   25.4849 C   0  0  2  0  0  0  0  0  0  0  0  0
  -20.2218  -30.4830   20.8530 C   0  0  0  0  0  0  0  0  0  0  0  0
  -24.5081  -12.7070   21.7737 N   0  0  0  0  0  0  0  0  0  0  0  0
  -25.6000  -13.4879   21.7104 N   0  0  0  0  0  0  0  0  0  0  0  0
  -23.2531  -29.5222   21.8170 N   0  0  0  0  0  0  0  0  0  0  0  0
  -25.0835  -17.2208   21.0924 N   0  0  0  0  0  0  0  0  0  0  0  0
  -27.9243  -13.4517   21.2556 N   0  0  0  0  0  0  0  0  0  0  0  0
  -27.8660   -9.7032   21.8388 N   0  0  0  0  0  0  0  0  0  0  0  0
  -26.9012  -17.8578   19.7313 N   0  0  0  0  0  0  0  0  0  0  0  0
  -28.9805  -21.9432   18.6650 N   0  0  0  0  0  0  0  0  0  0  0  0
  -25.0110  -32.6162   22.6321 N   0  0  0  0  0  0  0  0  0  0  0  0
  -20.0959  -30.2467   23.3694 N   0  0  0  0  0  0  0  0  0  0  0  0
  -19.5950  -31.1724   26.8278 N   0  3  0  0  0  0  0  0  0  0  0  0
  -27.4529  -10.1292   19.6237 O   0  0  0  0  0  0  0  0  0  0  0  0
  -24.6145  -30.5873   23.7039 O   0  0  0  0  0  0  0  0  0  0  0  0
  -29.5478  -24.5713   18.6106 O   0  0  0  0  0  0  0  0  0  0  0  0
  -21.5754  -28.1635   22.6845 O   0  0  0  0  0  0  0  0  0  0  0  0
  -20.7908  -32.1600   24.4802 O   0  0  0  0  0  0  0  0  0  0  0  0
  -25.7156  -19.4396   20.9454 O   0  0  0  0  0  0  0  0  0  0  0  0
  -27.8156  -20.0132   19.3143 O   0  0  0  0  0  0  0  0  0  0  0  0
  -21.5420   -7.0925   21.2924 O   0  0  0  0  0  0  0  0  0  0  0  0
  -28.3110  -26.5767   19.8978 O   0  0  0  0  0  0  0  0  0  1  0  0
  -21.8175   -3.4719   25.4421 F   0  0  0  0  0  0  0  0  0  0  0  0
  -19.3368   -6.5848   22.8805 F   0  0  0  0  0  0  0  0  0  0  0  0
  1  2  1  0  0  0  0
  1  5  2  0  0  0  0
  2  6  2  0  0  0  0
  3  8  2  0  0  0  0
  3 16  1  0  0  0  0
  4  9  1  0  0  0  0
  4 16  2  0  0  0  0
  5 18  1  0  0  0  0
  6 20  1  0  0  0  0
  7 10  2  0  0  0  0
  7 19  1  0  0  0  0
  8 23  1  0  0  0  0
  9 23  2  0  0  0  0
 10 24  1  0  0  0  0
 11 12  2  0  0  0  0
 11 25  1  0  0  0  0
 12 26  1  0  0  0  0
 13 21  1  0  0  0  0
 13 24  2  0  0  0  0
 14 22  1  0  0  0  0
 14 30  2  0  0  0  0
 15 26  2  0  0  0  0
 15 27  1  0  0  0  0
 16 28  1  0  0  0  0
 17 28  1  0  0  0  0
 17 29  2  0  0  0  0
 17 32  1  0  0  0  0
 18 20  2  0  0  0  0
 18 38  1  0  0  0  0
 19 21  2  0  0  0  0
 19 39  1  0  0  0  0
 20 51  1  0  0  0  0
 21 40  1  0  0  0  0
 22 31  2  0  0  0  0
 22 54  1  0  0  0  0
 23 84  1  0  0  0  0
 24 85  1  0  0  0  0
 25 27  2  0  0  0  0
 25 84  1  0  0  0  0
 26 86  1  0  0  0  0
 27 87  1  0  0  0  0
 28 66  2  0  0  0  0
 29 67  1  0  0  0  0
 29 70  1  0  0  0  0
 30 72  1  0  0  0  0
 30 83  1  0  0  0  0
 31 73  1  0  0  0  0
 31 83  1  0  0  0  0
 32 71  1  0  0  0  0
 32 77  2  0  0  0  0
 33 52  1  0  0  0  0
 33 74  1  0  0  0  0
 33 78  2  0  0  0  0
 34 61  1  0  0  0  0
 34 62  1  0  0  0  0
 34 79  2  0  0  0  0
 35 63  1  0  0  0  0
 35 68  1  0  0  0  0
 35 80  2  0  0  0  0
 36 64  1  0  0  0  0
 36 75  1  0  0  0  0
 36 81  2  0  0  0  0
 37 69  1  0  0  0  0
 37 72  1  0  0  0  0
 37 82  2  0  0  0  0
 38 41  1  0  0  0  0
 39 52  1  0  0  0  0
 40 68  1  0  0  0  0
 41 45  1  0  0  0  0
 42 43  1  0  0  0  0
 42 47  1  0  0  0  0
 43 48  1  0  0  0  0
 44 46  1  0  0  0  0
 44 49  1  0  0  0  0
 45 51  1  0  0  0  0
 46 53  1  0  0  0  0
 47 54  1  0  0  0  0
 48 54  1  0  0  0  0
 49 69  1  0  0  0  0
 50 53  1  0  0  0  0
 50 69  1  0  0  0  0
 51 74  1  0  0  0  0
 52 68  1  0  0  0  0
 53 67  1  0  0  0  0
 54 55  1  0  0  0  0
 56 64  1  0  0  0  0
 57 65  1  0  0  0  0
 58 65  1  0  0  0  0
 59 65  1  0  0  0  0
 60 76  1  0  0  0  0
 61 73  1  0  0  0  0
 62 85  1  0  0  0  0
 63 65  1  0  0  0  0
 63 75  1  0  0  0  0
 64 76  1  0  0  0  0
 66 67  1  0  0  0  0
M  CHG  1  76   1
M  ISO  4  37 100  62 101  72 100  85 101
M  END
> <Batch ID>
0158

> <Smiles>
CNC(C)C(=O)NC(C(=O)N1Cc2cc([101O:1][101CH2:1]C(=O)CNc3oc([100NH:0][100C:0](=O)N4CCCC(n5nc(-c6ccc(Oc7ccc(F)cc7F)cc6)c(C(N)=O)c5N)C4)cc3C3(C)CCCC3)ccc2CC1C(=O)NC1CCCc2ccccc21)C(C)(C)C

> <Shape>
0.295

> <Color>
0.113

> <Negative vol penalty>
0.000

$$$$

  -OEChem-04052303443D

 83 91  0     1  0  0  0  0  0999 V2000
  -27.3035  -29.4229   21.3470 C   0  0  0  0  0  0  0  0  0  0  0  0
  -26.5519  -28.4756   20.6591 C   0  0  0  0  0  0  0  0  0  0  0  0
  -24.1051  -24.5185   23.1922 C   0  0  0  0  0  0  0  0  0  0  0  0
  -22.5353  -24.6977   25.0200 C   0  0  0  0  0  0  0  0  0  0  0  0
  -28.6814  -29.2560   21.4790 C   0  0  0  0  0  0  0  0  0  0  0  0
  -27.1781  -27.3612   20.1019 C   0  0  0  0  0  0  0  0  0  0  0  0
  -24.8797  -21.7053   19.6176 C   0  0  0  0  0  0  0  0  0  0  0  0
  -23.6004  -25.6973   22.6432 C   0  0  0  0  0  0  0  0  0  0  0  0
  -22.0307  -25.8765   24.4710 C   0  0  0  0  0  0  0  0  0  0  0  0
  -24.2675  -21.0288   18.5635 C   0  0  0  0  0  0  0  0  0  0  0  0
  -20.0855  -28.7397   23.3626 C   0  0  0  0  0  0  0  0  0  0  0  0
  -18.6998  -28.8909   23.3138 C   0  0  0  0  0  0  0  0  0  0  0  0
  -26.3830  -20.0221   17.9887 C   0  0  0  0  0  0  0  0  0  0  0  0
  -18.5327  -26.9144   21.9343 C   0  0  0  0  0  0  0  0  0  0  0  0
  -23.8495  -15.7506   19.2241 C   0  0  0  0  0  0  0  0  0  0  0  0
  -23.5724  -24.0186   24.3806 C   0  0  0  0  0  0  0  0  0  0  0  0
  -25.1504  -22.6758   25.8686 C   0  0  0  0  0  0  0  0  0  0  0  0
  -29.3234  -28.1341   20.9314 C   0  0  0  0  0  0  0  0  0  0  0  0
  -26.2528  -21.5536   19.8589 C   0  0  0  0  0  0  0  0  0  0  0  0
  -28.5661  -27.1798   20.2255 C   0  0  0  0  0  0  0  0  0  0  0  0
  -27.0098  -20.6959   19.0481 C   0  0  0  0  0  0  0  0  0  0  0  0
  -22.5633  -26.3763   23.2826 C   0  0  0  0  0  0  0  0  0  0  0  0
  -25.0197  -20.1893   17.7471 C   0  0  0  0  0  0  0  0  0  0  0  0
  -20.6949  -27.6759   22.6972 C   0  0  0  0  0  0  0  0  0  0  0  0
  -17.9234  -27.9783   22.5997 C   0  0  0  0  0  0  0  0  0  0  0  0
  -19.9185  -26.7633   21.9831 C   0  0  0  0  0  0  0  0  0  0  0  0
  -24.0929  -22.8007   24.9479 C   0  0  0  0  0  0  0  0  0  0  0  0
  -24.2976  -15.0723   20.3935 C   0  0  0  0  0  0  0  0  0  0  0  0
  -25.2541  -21.3245   26.0913 C   0  0  0  0  0  0  0  0  0  0  0  0
  -24.9258  -16.1001   18.4379 C   0  0  0  0  0  0  0  0  0  0  0  0
  -25.9661  -23.6906   26.4691 C   0  0  0  0  0  0  0  0  0  0  0  0
  -23.3911  -14.5676   21.4384 C   0  0  0  0  0  0  0  0  0  0  0  0
  -28.7595  -23.5080   19.8597 C   0  0  0  0  0  0  0  0  0  0  0  0
  -30.3123  -20.8845   20.9682 C   0  0  0  0  0  0  0  0  0  0  0  0
  -30.4472  -17.4828   21.2064 C   0  0  0  0  0  0  0  0  0  0  0  0
  -23.6193  -16.7737   22.5653 C   0  0  0  0  0  0  0  0  0  0  0  0
  -30.8219  -28.0209   21.0591 C   0  0  0  0  0  0  0  0  0  0  0  0
  -26.8929  -22.2697   21.0164 C   0  0  0  0  0  0  0  0  0  0  0  0
  -28.4831  -20.4830   19.2776 C   0  0  0  0  0  0  0  0  0  0  0  0
  -31.3545  -26.6215   20.7619 C   0  0  0  0  0  0  0  0  0  0  0  0
  -22.6948  -17.3110   26.1210 C   0  0  0  0  0  0  0  0  0  0  0  0
  -30.7269  -26.0715   19.4851 C   0  0  0  0  0  0  0  0  0  0  0  0
  -22.9760  -18.8024   26.2657 C   0  0  0  0  0  0  0  0  0  0  0  0
  -22.2429  -16.9425   24.7085 C   0  0  0  0  0  0  0  0  0  0  0  0
  -23.4734  -18.8993   23.7953 C   0  0  0  0  0  0  0  0  0  0  0  0
  -29.2054  -25.9449   19.6284 C   0  0  1  0  0  0  0  0  0  0  0  0
  -28.4001  -22.4402   20.8538 C   0  0  1  0  0  0  0  0  0  0  0  0
  -23.9786  -19.2641   25.1987 C   0  0  1  0  0  0  0  0  0  0  0  0
  -31.8551  -15.6278   22.1414 C   0  0  0  0  0  0  0  0  0  0  0  0
  -22.1006  -19.1429   16.3731 C   0  0  0  0  0  0  0  0  0  0  0  0
  -32.3199  -21.2698   18.7030 C   0  0  0  0  0  0  0  0  0  0  0  0
  -33.1072  -18.9258   19.0955 C   0  0  0  0  0  0  0  0  0  0  0  0
  -33.3340  -20.6344   20.8989 C   0  0  0  0  0  0  0  0  0  0  0  0
  -21.9901  -12.6918   22.3117 C   0  0  0  0  0  0  0  0  0  0  0  0
  -28.2479  -16.5332   22.9444 C   0  0  0  0  0  0  0  0  0  0  0  0
  -23.7172  -17.2246   16.5670 C   0  0  0  0  0  0  0  0  0  0  0  0
  -31.0433  -19.7267   20.3325 C   0  0  1  0  0  0  0  0  0  0  0  0
  -30.6836  -16.5646   22.3920 C   0  0  2  0  0  0  0  0  0  0  0  0
  -23.3653  -18.6308   17.0469 C   0  0  1  0  0  0  0  0  0  1  0  0
  -32.4237  -20.1445   19.7517 C   0  0  0  0  0  0  0  0  0  0  0  0
  -23.5627  -21.6226   24.6087 N   0  0  0  0  0  0  0  0  0  0  0  0
  -25.6095  -14.8950   20.5298 N   0  0  0  0  0  0  0  0  0  0  0  0
  -24.2901  -20.7446   25.3201 N   0  0  0  0  0  0  0  0  0  0  0  0
  -29.0644  -21.2101   20.4181 N   0  0  0  0  0  0  0  0  0  0  0  0
  -23.1496  -17.4731   23.6811 N   0  0  0  0  0  0  0  0  0  0  0  0
  -26.0749  -20.5875   26.8694 N   0  0  0  0  0  0  0  0  0  0  0  0
  -25.7251  -25.0290   26.1299 N   0  0  0  0  0  0  0  0  0  0  0  0
  -24.9205  -16.7686   17.2251 N   0  0  0  0  0  0  0  0  0  0  0  0
  -23.1136  -15.4247   22.4345 N   0  0  0  0  0  0  0  0  0  0  0  0
  -28.8668  -24.7726   20.4064 N   0  0  0  0  0  0  0  0  0  0  0  0
  -31.1138  -18.6815   21.3478 N   0  0  0  0  0  0  0  0  0  0  0  0
  -22.8994  -13.3250   21.3495 N   0  3  0  0  0  0  0  0  0  0  0  0
  -29.4712  -15.7401   22.6585 N   0  3  0  0  0  0  0  0  0  0  0  0
  -26.8923  -23.4174   27.2698 O   0  0  0  0  0  0  0  0  0  0  0  0
  -28.9285  -23.2067   18.6840 O   0  0  0  0  0  0  0  0  0  0  0  0
  -30.8262  -21.4736   21.9224 O   0  0  0  0  0  0  0  0  0  0  0  0
  -29.7446  -17.1666   20.2488 O   0  0  0  0  0  0  0  0  0  0  0  0
  -24.3762  -17.2210   21.7103 O   0  0  0  0  0  0  0  0  0  0  0  0
  -22.0708  -27.5267   22.7473 O   0  0  0  0  0  0  0  0  0  0  0  0
  -24.4247  -19.5282   16.7171 O   0  0  0  0  0  0  0  0  0  1  0  0
  -16.5925  -28.1227   22.5542 F   0  0  0  0  0  0  0  0  0  0  0  0
  -20.4982  -25.7386   21.3429 F   0  0  0  0  0  0  0  0  0  0  0  0
  -26.3597  -15.5651   19.2069 S   0  0  0  0  0  0  0  0  0  0  0  0
  1  2  1  0  0  0  0
  1  5  2  0  0  0  0
  2  6  2  0  0  0  0
  3  8  2  0  0  0  0
  3 16  1  0  0  0  0
  4  9  1  0  0  0  0
  4 16  2  0  0  0  0
  5 18  1  0  0  0  0
  6 20  1  0  0  0  0
  7 10  2  0  0  0  0
  7 19  1  0  0  0  0
  8 22  1  0  0  0  0
  9 22  2  0  0  0  0
 10 23  1  0  0  0  0
 11 12  2  0  0  0  0
 11 24  1  0  0  0  0
 12 25  1  0  0  0  0
 13 21  1  0  0  0  0
 13 23  2  0  0  0  0
 14 25  2  0  0  0  0
 14 26  1  0  0  0  0
 15 28  1  0  0  0  0
 15 30  2  0  0  0  0
 16 27  1  0  0  0  0
 17 27  1  0  0  0  0
 17 29  2  0  0  0  0
 17 31  1  0  0  0  0
 18 20  2  0  0  0  0
 18 37  1  0  0  0  0
 19 21  2  0  0  0  0
 19 38  1  0  0  0  0
 20 46  1  0  0  0  0
 21 39  1  0  0  0  0
 22 79  1  0  0  0  0
 23 80  1  0  0  0  0
 24 26  2  0  0  0  0
 24 79  1  0  0  0  0
 25 81  1  0  0  0  0
 26 82  1  0  0  0  0
 27 61  2  0  0  0  0
 28 32  1  0  0  0  0
 28 62  2  0  0  0  0
 29 63  1  0  0  0  0
 29 66  1  0  0  0  0
 30 68  1  0  0  0  0
 30 83  1  0  0  0  0
 31 67  1  0  0  0  0
 31 74  2  0  0  0  0
 32 69  1  0  0  0  0
 32 72  2  0  0  0  0
 33 47  1  0  0  0  0
 33 70  1  0  0  0  0
 33 75  2  0  0  0  0
 34 57  1  0  0  0  0
 34 64  1  0  0  0  0
 34 76  2  0  0  0  0
 35 58  1  0  0  0  0
 35 71  1  0  0  0  0
 35 77  2  0  0  0  0
 36 65  1  0  0  0  0
 36 69  1  0  0  0  0
 36 78  2  0  0  0  0
 37 40  1  0  0  0  0
 38 47  1  0  0  0  0
 39 64  1  0  0  0  0
 40 42  1  0  0  0  0
 41 43  1  0  0  0  0
 41 44  1  0  0  0  0
 42 46  1  0  0  0  0
 43 48  1  0  0  0  0
 44 65  1  0  0  0  0
 45 48  1  0  0  0  0
 45 65  1  0  0  0  0
 46 70  1  0  0  0  0
 47 64  1  0  0  0  0
 48 63  1  0  0  0  0
 49 58  1  0  0  0  0
 50 59  1  0  0  0  0
 51 60  1  0  0  0  0
 52 60  1  0  0  0  0
 53 60  1  0  0  0  0
 54 72  1  0  0  0  0
 55 73  1  0  0  0  0
 56 59  1  0  0  0  0
 56 68  1  0  0  0  0
 57 60  1  0  0  0  0
 57 71  1  0  0  0  0
 58 73  1  0  0  0  0
 59 80  1  0  0  0  0
 61 63  1  0  0  0  0
 62 83  1  0  0  0  0
M  CHG  2  72   1  73   1
M  ISO  4  36 100  59 101  69 100  80 101
M  END
> <Batch ID>
0158

> <Smiles>
CN=C([100NH:0][100C:0](=O)N1CCCC(n2nc(-c3ccc(Oc4ccc(F)cc4F)cc3)c(C(N)=O)c2N)C1)c1cc(NC[101CH:1](C)[101O:1]c2ccc3c(c2)CN(C(=O)C(NC(=O)C(C)NC)C(C)(C)C)C(C(=O)NC2CCCc4ccccc42)C3)sn1

> <Shape>
0.209

> <Color>
0.066

> <Negative vol penalty>
0.000

$$$$

  -OEChem-04052303443D

 81 89  0     1  0  0  0  0  0999 V2000
  -28.8146  -35.9957   21.8420 C   0  0  0  0  0  0  0  0  0  0  0  0
  -28.9823  -34.6165   21.7689 C   0  0  0  0  0  0  0  0  0  0  0  0
  -23.8275   -9.6496   22.5393 C   0  0  0  0  0  0  0  0  0  0  0  0
  -23.4222  -10.0898   20.1986 C   0  0  0  0  0  0  0  0  0  0  0  0
  -27.7069  -36.5281   22.5004 C   0  0  0  0  0  0  0  0  0  0  0  0
  -28.0430  -33.7690   22.3552 C   0  0  0  0  0  0  0  0  0  0  0  0
  -26.7829  -29.8916   19.3514 C   0  0  0  0  0  0  0  0  0  0  0  0
  -22.9691   -8.5517   22.4815 C   0  0  0  0  0  0  0  0  0  0  0  0
  -22.5638   -8.9918   20.1408 C   0  0  0  0  0  0  0  0  0  0  0  0
  -27.6819  -28.8288   19.2727 C   0  0  0  0  0  0  0  0  0  0  0  0
  -23.0878   -5.3514   21.3968 C   0  0  0  0  0  0  0  0  0  0  0  0
  -23.5089   -4.1668   22.0009 C   0  0  0  0  0  0  0  0  0  0  0  0
  -28.9091  -18.4190   18.2936 C   0  0  0  0  0  0  0  0  0  0  0  0
  -29.5414  -19.6468   17.9842 C   0  0  0  0  0  0  0  0  0  0  0  0
  -26.3312  -27.5786   20.8320 C   0  0  0  0  0  0  0  0  0  0  0  0
  -21.5882   -4.2308   23.4651 C   0  0  0  0  0  0  0  0  0  0  0  0
  -24.0540  -10.4187   21.3979 C   0  0  0  0  0  0  0  0  0  0  0  0
  -26.3275  -11.5618   21.2182 C   0  0  0  0  0  0  0  0  0  0  0  0
  -26.7484  -35.6865   23.0866 C   0  0  0  0  0  0  0  0  0  0  0  0
  -25.6552  -29.8099   20.1808 C   0  0  0  0  0  0  0  0  0  0  0  0
  -26.9221  -34.2907   23.0232 C   0  0  0  0  0  0  0  0  0  0  0  0
  -25.4181  -28.6406   20.9176 C   0  0  0  0  0  0  0  0  0  0  0  0
  -22.3373   -8.2228   21.2823 C   0  0  0  0  0  0  0  0  0  0  0  0
  -27.4577  -27.6733   20.0153 C   0  0  0  0  0  0  0  0  0  0  0  0
  -21.9169   -5.9758   21.8268 C   0  0  0  0  0  0  0  0  0  0  0  0
  -22.7591   -3.6065   23.0351 C   0  0  0  0  0  0  0  0  0  0  0  0
  -21.1671   -5.4155   22.8610 C   0  0  0  0  0  0  0  0  0  0  0  0
  -24.9401  -11.5533   21.4571 C   0  0  0  0  0  0  0  0  0  0  0  0
  -26.6990  -12.8716   21.3993 C   0  0  0  0  0  0  0  0  0  0  0  0
  -27.8688  -18.7274   19.1390 C   0  0  0  0  0  0  0  0  0  0  0  0
  -28.8422  -20.6181   18.6623 C   0  0  0  0  0  0  0  0  0  0  0  0
  -27.2021  -10.4822   20.8643 C   0  0  0  0  0  0  0  0  0  0  0  0
  -24.6087  -31.4266   22.7096 C   0  0  0  0  0  0  0  0  0  0  0  0
  -28.6170  -24.2964   19.3707 C   0  0  0  0  0  0  0  0  0  0  0  0
  -21.9842  -29.5584   22.3299 C   0  0  0  0  0  0  0  0  0  0  0  0
  -20.6406  -26.6588   21.1325 C   0  0  0  0  0  0  0  0  0  0  0  0
  -25.8708  -18.3221   20.6188 C   0  0  0  0  0  0  0  0  0  0  0  0
  -25.5923  -36.3091   23.8285 C   0  0  0  0  0  0  0  0  0  0  0  0
  -24.6808  -30.9545   20.2341 C   0  0  0  0  0  0  0  0  0  0  0  0
  -24.2117  -28.4949   21.8074 C   0  0  0  0  0  0  0  0  0  0  0  0
  -24.4474  -35.3362   24.0991 C   0  0  0  0  0  0  0  0  0  0  0  0
  -24.1321  -16.7883   23.3209 C   0  0  0  0  0  0  0  0  0  0  0  0
  -24.9856  -34.0162   24.6420 C   0  0  0  0  0  0  0  0  0  0  0  0
  -24.3015  -15.2903   23.0573 C   0  0  0  0  0  0  0  0  0  0  0  0
  -23.9614  -17.5767   22.0236 C   0  0  0  0  0  0  0  0  0  0  0  0
  -25.1742  -15.8498   20.7524 C   0  0  0  0  0  0  0  0  0  0  0  0
  -25.9119  -33.3382   23.6252 C   0  0  1  0  0  0  0  0  0  0  0  0
  -23.8382  -30.9631   21.5058 C   0  0  1  0  0  0  0  0  0  0  0  0
  -25.4145  -15.0220   22.0254 C   0  0  2  0  0  0  0  0  0  0  0  0
  -18.4763  -25.3949   21.0073 C   0  0  0  0  0  0  0  0  0  0  0  0
  -22.2878  -28.7535   25.2574 C   0  0  0  0  0  0  0  0  0  0  0  0
  -20.7450  -26.8316   24.8166 C   0  0  0  0  0  0  0  0  0  0  0  0
  -19.9322  -29.1725   24.5296 C   0  0  0  0  0  0  0  0  0  0  0  0
  -20.6375  -26.7276   18.1737 C   0  0  0  0  0  0  0  0  0  0  0  0
  -28.1565  -22.8612   19.5133 C   0  0  0  0  0  0  0  0  0  0  0  0
  -27.8053  -25.3237   20.1357 C   0  0  0  0  0  0  0  0  0  1  0  0
  -21.5505  -28.2069   22.8441 C   0  0  1  0  0  0  0  0  0  0  0  0
  -19.3917  -26.3907   20.3122 C   0  0  2  0  0  0  0  0  0  0  0  0
  -21.1527  -28.2443   24.3467 C   0  0  0  0  0  0  0  0  0  0  0  0
  -24.4628  -12.7618   21.7665 N   0  0  0  0  0  0  0  0  0  0  0  0
  -25.5563  -13.5419   21.7234 N   0  0  0  0  0  0  0  0  0  0  0  0
  -23.2916  -29.6441   21.8306 N   0  0  0  0  0  0  0  0  0  0  0  0
  -25.0542  -17.2753   21.0964 N   0  0  0  0  0  0  0  0  0  0  0  0
  -27.8886  -13.5039   21.3115 N   0  0  0  0  0  0  0  0  0  0  0  0
  -26.6555   -9.1999   20.7185 N   0  0  0  0  0  0  0  0  0  0  0  0
  -26.8972  -17.9109   19.7692 N   0  0  0  0  0  0  0  0  0  0  0  0
  -29.0044  -21.9942   18.7357 N   0  0  0  0  0  0  0  0  0  0  0  0
  -25.1370  -32.6973   22.5844 N   0  0  0  0  0  0  0  0  0  0  0  0
  -20.4859  -27.7544   21.9552 N   0  0  0  0  0  0  0  0  0  0  0  0
  -19.7575  -25.8400   18.9766 N   0  3  0  0  0  0  0  0  0  0  0  0
  -28.4346  -10.6468   20.6986 O   0  0  0  0  0  0  0  0  0  0  0  0
  -24.7148  -30.6868   23.6807 O   0  0  0  0  0  0  0  0  0  0  0  0
  -29.5842  -24.6195   18.6823 O   0  0  0  0  0  0  0  0  0  0  0  0
  -21.1899  -30.5015   22.3633 O   0  0  0  0  0  0  0  0  0  0  0  0
  -21.6510  -25.9635   21.0541 O   0  0  0  0  0  0  0  0  0  0  0  0
  -25.6907  -19.4935   20.9614 O   0  0  0  0  0  0  0  0  0  0  0  0
  -27.8211  -20.0658   19.3686 O   0  0  0  0  0  0  0  0  0  0  0  0
  -21.4998   -7.1514   21.2255 O   0  0  0  0  0  0  0  0  0  0  0  0
  -28.3339  -26.6347   19.9407 O   0  0  0  0  0  0  0  0  0  1  0  0
  -23.1628   -2.4681   23.6141 F   0  0  0  0  0  0  0  0  0  0  0  0
  -20.0408   -6.0101   23.2776 F   0  0  0  0  0  0  0  0  0  0  0  0
  1  2  1  0  0  0  0
  1  5  2  0  0  0  0
  2  6  2  0  0  0  0
  3  8  2  0  0  0  0
  3 17  1  0  0  0  0
  4  9  1  0  0  0  0
  4 17  2  0  0  0  0
  5 19  1  0  0  0  0
  6 21  1  0  0  0  0
  7 10  2  0  0  0  0
  7 20  1  0  0  0  0
  8 23  1  0  0  0  0
  9 23  2  0  0  0  0
 10 24  1  0  0  0  0
 11 12  2  0  0  0  0
 11 25  1  0  0  0  0
 12 26  1  0  0  0  0
 13 14  1  0  0  0  0
 13 30  2  0  0  0  0
 14 31  2  0  0  0  0
 15 22  1  0  0  0  0
 15 24  2  0  0  0  0
 16 26  2  0  0  0  0
 16 27  1  0  0  0  0
 17 28  1  0  0  0  0
 18 28  1  0  0  0  0
 18 29  2  0  0  0  0
 18 32  1  0  0  0  0
 19 21  2  0  0  0  0
 19 38  1  0  0  0  0
 20 22  2  0  0  0  0
 20 39  1  0  0  0  0
 21 47  1  0  0  0  0
 22 40  1  0  0  0  0
 23 78  1  0  0  0  0
 24 79  1  0  0  0  0
 25 27  2  0  0  0  0
 25 78  1  0  0  0  0
 26 80  1  0  0  0  0
 27 81  1  0  0  0  0
 28 60  2  0  0  0  0
 29 61  1  0  0  0  0
 29 64  1  0  0  0  0
 30 66  1  0  0  0  0
 30 77  1  0  0  0  0
 31 67  1  0  0  0  0
 31 77  1  0  0  0  0
 32 65  1  0  0  0  0
 32 71  2  0  0  0  0
 33 48  1  0  0  0  0
 33 68  1  0  0  0  0
 33 72  2  0  0  0  0
 34 55  1  0  0  0  0
 34 56  1  0  0  0  0
 34 73  2  0  0  0  0
 35 57  1  0  0  0  0
 35 62  1  0  0  0  0
 35 74  2  0  0  0  0
 36 58  1  0  0  0  0
 36 69  1  0  0  0  0
 36 75  2  0  0  0  0
 37 63  1  0  0  0  0
 37 66  1  0  0  0  0
 37 76  2  0  0  0  0
 38 41  1  0  0  0  0
 39 48  1  0  0  0  0
 40 62  1  0  0  0  0
 41 43  1  0  0  0  0
 42 44  1  0  0  0  0
 42 45  1  0  0  0  0
 43 47  1  0  0  0  0
 44 49  1  0  0  0  0
 45 63  1  0  0  0  0
 46 49  1  0  0  0  0
 46 63  1  0  0  0  0
 47 68  1  0  0  0  0
 48 62  1  0  0  0  0
 49 61  1  0  0  0  0
 50 58  1  0  0  0  0
 51 59  1  0  0  0  0
 52 59  1  0  0  0  0
 53 59  1  0  0  0  0
 54 70  1  0  0  0  0
 55 67  1  0  0  0  0
 56 79  1  0  0  0  0
 57 59  1  0  0  0  0
 57 69  1  0  0  0  0
 58 70  1  0  0  0  0
 60 61  1  0  0  0  0
M  CHG  1  70   1
M  ISO  4  37 100  56 101  66 100  79 101
M  END
> <Batch ID>
0158

> <Smiles>
CNC(C)C(=O)NC(C(=O)N1Cc2cc([101O:1][101CH2:1]C(=O)CNc3ccc([100NH:0][100C:0](=O)N4CCCC(n5nc(-c6ccc(Oc7ccc(F)cc7F)cc6)c(C(N)=O)c5N)C4)o3)ccc2CC1C(=O)NC1CCCc2ccccc21)C(C)(C)C

> <Shape>
0.325

> <Color>
0.098

> <Negative vol penalty>
0.000

$$$$

  -OEChem-04052303443D

 83 91  0     1  0  0  0  0  0999 V2000
  -24.7344  -11.4367   19.9725 C   0  0  0  0  0  0  0  0  0  0  0  0
  -23.8771  -12.4036   20.4877 C   0  0  0  0  0  0  0  0  0  0  0  0
  -22.7516  -28.4218   19.5864 C   0  0  0  0  0  0  0  0  0  0  0  0
  -22.8307  -27.5859   21.8518 C   0  0  0  0  0  0  0  0  0  0  0  0
  -26.1132  -11.6415   20.0034 C   0  0  0  0  0  0  0  0  0  0  0  0
  -24.3981  -13.5755   21.0352 C   0  0  0  0  0  0  0  0  0  0  0  0
  -22.8870  -20.5367   21.7924 C   0  0  0  0  0  0  0  0  0  0  0  0
  -21.3622  -28.5132   19.6687 C   0  0  0  0  0  0  0  0  0  0  0  0
  -21.4413  -27.6773   21.9341 C   0  0  0  0  0  0  0  0  0  0  0  0
  -22.7983  -21.5186   22.7783 C   0  0  0  0  0  0  0  0  0  0  0  0
  -19.1308  -30.0930   22.4308 C   0  0  0  0  0  0  0  0  0  0  0  0
  -18.5870  -30.6518   23.5873 C   0  0  0  0  0  0  0  0  0  0  0  0
  -25.1932  -21.7991   22.7059 C   0  0  0  0  0  0  0  0  0  0  0  0
  -28.2863  -24.3339   28.3345 C   0  0  0  0  0  0  0  0  0  0  0  0
  -17.4015  -28.5926   24.0249 C   0  0  0  0  0  0  0  0  0  0  0  0
  -23.4859  -27.9581   20.6780 C   0  0  0  0  0  0  0  0  0  0  0  0
  -25.6698  -27.0911   19.6848 C   0  0  0  0  0  0  0  0  0  0  0  0
  -26.6510  -12.8207   20.5428 C   0  0  0  0  0  0  0  0  0  0  0  0
  -24.1327  -20.1704   21.2629 C   0  0  0  0  0  0  0  0  0  0  0  0
  -25.7854  -13.7956   21.0746 C   0  0  0  0  0  0  0  0  0  0  0  0
  -25.2947  -20.8141   21.7117 C   0  0  0  0  0  0  0  0  0  0  0  0
  -29.1797  -25.4316   28.3226 C   0  0  0  0  0  0  0  0  0  0  0  0
  -20.7070  -28.1410   20.8425 C   0  0  0  0  0  0  0  0  0  0  0  0
  -23.9517  -22.1479   23.2372 C   0  0  0  0  0  0  0  0  0  0  0  0
  -18.8099  -28.7840   22.0713 C   0  0  0  0  0  0  0  0  0  0  0  0
  -17.7224  -29.9016   24.3844 C   0  0  0  0  0  0  0  0  0  0  0  0
  -17.9453  -28.0338   22.8683 C   0  0  0  0  0  0  0  0  0  0  0  0
  -24.9211  -27.8629   20.5935 C   0  0  0  0  0  0  0  0  0  0  0  0
  -28.8471  -26.1829   27.2195 C   0  0  0  0  0  0  0  0  0  0  0  0
  -26.9785  -27.3451   20.0155 C   0  0  0  0  0  0  0  0  0  0  0  0
  -27.4712  -24.4929   27.2380 C   0  0  0  0  0  0  0  0  0  0  0  0
  -29.4087  -27.4320   26.6753 C   0  0  0  0  0  0  0  0  0  0  0  0
  -25.2224  -26.2224   18.6356 C   0  0  0  0  0  0  0  0  0  0  0  0
  -25.8373  -17.4885   21.1882 C   0  0  0  0  0  0  0  0  0  0  0  0
  -27.7828  -19.2386   19.2713 C   0  0  0  0  0  0  0  0  0  0  0  0
  -28.8845  -22.3187   18.2988 C   0  0  0  0  0  0  0  0  0  0  0  0
  -25.6300  -23.9476   25.6096 C   0  0  0  0  0  0  0  0  0  0  0  0
  -29.5152  -29.1496   25.1489 C   0  0  0  0  0  0  0  0  0  0  0  0
  -28.1501  -12.9764   20.5971 C   0  0  0  0  0  0  0  0  0  0  0  0
  -24.2088  -19.1283   20.1809 C   0  0  0  0  0  0  0  0  0  0  0  0
  -26.6541  -20.4715   21.1610 C   0  0  0  0  0  0  0  0  0  0  0  0
  -28.6046  -14.4108   20.8544 C   0  0  0  0  0  0  0  0  0  0  0  0
  -29.7877  -30.7133   21.9108 C   0  0  0  0  0  0  0  0  0  0  0  0
  -27.8046  -15.0274   21.9974 C   0  0  0  0  0  0  0  0  0  0  0  0
  -28.6159  -30.1117   21.1352 C   0  0  0  0  0  0  0  0  0  0  0  0
  -29.4420  -30.9108   23.3835 C   0  0  0  0  0  0  0  0  0  0  0  0
  -27.7916  -29.0626   23.2891 C   0  0  0  0  0  0  0  0  0  0  0  0
  -26.3113  -15.0908   21.6543 C   0  0  1  0  0  0  0  0  0  0  0  0
  -25.5816  -18.4706   20.0802 C   0  0  1  0  0  0  0  0  0  0  0  0
  -28.1146  -28.8198   21.8049 C   0  0  1  0  0  0  0  0  0  0  0  0
  -30.1366  -24.0250   16.9504 C   0  0  0  0  0  0  0  0  0  0  0  0
  -23.5799  -22.8396   26.5733 C   0  0  0  0  0  0  0  0  0  0  0  0
  -30.0817  -18.4913   21.1331 C   0  0  0  0  0  0  0  0  0  0  0  0
  -31.4204  -20.3429   20.1095 C   0  0  0  0  0  0  0  0  0  0  0  0
  -30.6507  -18.4352   18.6985 C   0  0  0  0  0  0  0  0  0  0  0  0
  -26.6852  -22.5481   16.3317 C   0  0  0  0  0  0  0  0  0  0  0  0
  -28.9682  -20.1464   19.4940 C   0  0  1  0  0  0  0  0  0  0  0  0
  -29.0816  -22.9300   16.9233 C   0  0  2  0  0  0  0  0  0  0  0  0
  -24.5703  -22.8656   25.4186 C   0  0  1  0  0  0  0  0  0  1  0  0
  -30.2550  -19.3593   19.8708 C   0  0  0  0  0  0  0  0  0  0  0  0
  -25.6902  -28.5551   21.4381 N   0  0  0  0  0  0  0  0  0  0  0  0
  -28.9382  -27.9788   25.6025 N   0  0  0  0  0  0  0  0  0  0  0  0
  -26.9358  -28.2192   21.0616 N   0  0  0  0  0  0  0  0  0  0  0  0
  -26.6771  -19.4418   20.1091 N   0  0  0  0  0  0  0  0  0  0  0  0
  -28.9382  -29.6712   23.9764 N   0  0  0  0  0  0  0  0  0  0  0  0
  -30.1592  -25.6842   29.2145 N   0  0  0  0  0  0  0  0  0  0  0  0
  -28.1501  -26.9037   19.5107 N   0  0  0  0  0  0  0  0  0  0  0  0
  -24.9977  -24.8721   18.9364 N   0  0  0  0  0  0  0  0  0  0  0  0
  -26.4006  -23.7107   26.7431 N   0  0  0  0  0  0  0  0  0  0  0  0
  -26.0459  -16.1931   20.7548 N   0  0  0  0  0  0  0  0  0  0  0  0
  -29.0948  -20.9560   18.2870 N   0  0  0  0  0  0  0  0  0  0  0  0
  -27.8047  -23.5196   16.4307 N   0  3  0  0  0  0  0  0  0  0  0  0
  -25.0433  -26.6280   17.4622 O   0  0  0  0  0  0  0  0  0  0  0  0
  -25.8463  -17.8775   22.3502 O   0  0  0  0  0  0  0  0  0  0  0  0
  -27.8332  -18.3854   18.3818 O   0  0  0  0  0  0  0  0  0  0  0  0
  -28.5785  -22.9841   19.2858 O   0  0  0  0  0  0  0  0  0  0  0  0
  -25.7432  -24.8751   24.8133 O   0  0  0  0  0  0  0  0  0  0  0  0
  -30.4563  -29.7148   25.7109 O   0  0  0  0  0  0  0  0  0  0  0  0
  -27.8064  -25.6177   26.5531 O   0  0  0  0  0  0  0  0  0  0  0  0
  -19.3513  -28.2303   20.9232 O   0  0  0  0  0  0  0  0  0  0  0  0
  -23.8680  -23.1061   24.1999 O   0  0  0  0  0  0  0  0  0  1  0  0
  -17.2014  -30.4379   25.4958 F   0  0  0  0  0  0  0  0  0  0  0  0
  -17.6343  -26.7753   22.5287 F   0  0  0  0  0  0  0  0  0  0  0  0
  1  2  1  0  0  0  0
  1  5  2  0  0  0  0
  2  6  2  0  0  0  0
  3  8  2  0  0  0  0
  3 16  1  0  0  0  0
  4  9  1  0  0  0  0
  4 16  2  0  0  0  0
  5 18  1  0  0  0  0
  6 20  1  0  0  0  0
  7 10  2  0  0  0  0
  7 19  1  0  0  0  0
  8 23  1  0  0  0  0
  9 23  2  0  0  0  0
 10 24  1  0  0  0  0
 11 12  2  0  0  0  0
 11 25  1  0  0  0  0
 12 26  1  0  0  0  0
 13 21  1  0  0  0  0
 13 24  2  0  0  0  0
 14 22  1  0  0  0  0
 14 31  2  0  0  0  0
 15 26  2  0  0  0  0
 15 27  1  0  0  0  0
 16 28  1  0  0  0  0
 17 28  1  0  0  0  0
 17 30  2  0  0  0  0
 17 33  1  0  0  0  0
 18 20  2  0  0  0  0
 18 39  1  0  0  0  0
 19 21  2  0  0  0  0
 19 40  1  0  0  0  0
 20 48  1  0  0  0  0
 21 41  1  0  0  0  0
 22 29  2  0  0  0  0
 22 66  1  0  0  0  0
 23 80  1  0  0  0  0
 24 81  1  0  0  0  0
 25 27  2  0  0  0  0
 25 80  1  0  0  0  0
 26 82  1  0  0  0  0
 27 83  1  0  0  0  0
 28 61  2  0  0  0  0
 29 32  1  0  0  0  0
 29 79  1  0  0  0  0
 30 63  1  0  0  0  0
 30 67  1  0  0  0  0
 31 69  1  0  0  0  0
 31 79  1  0  0  0  0
 32 62  2  0  0  0  0
 33 68  1  0  0  0  0
 33 73  2  0  0  0  0
 34 49  1  0  0  0  0
 34 70  1  0  0  0  0
 34 74  2  0  0  0  0
 35 57  1  0  0  0  0
 35 64  1  0  0  0  0
 35 75  2  0  0  0  0
 36 58  1  0  0  0  0
 36 71  1  0  0  0  0
 36 76  2  0  0  0  0
 37 59  1  0  0  0  0
 37 69  1  0  0  0  0
 37 77  2  0  0  0  0
 38 62  1  0  0  0  0
 38 65  1  0  0  0  0
 38 78  2  0  0  0  0
 39 42  1  0  0  0  0
 40 49  1  0  0  0  0
 41 64  1  0  0  0  0
 42 44  1  0  0  0  0
 43 45  1  0  0  0  0
 43 46  1  0  0  0  0
 44 48  1  0  0  0  0
 45 50  1  0  0  0  0
 46 65  1  0  0  0  0
 47 50  1  0  0  0  0
 47 65  1  0  0  0  0
 48 70  1  0  0  0  0
 49 64  1  0  0  0  0
 50 63  1  0  0  0  0
 51 58  1  0  0  0  0
 52 59  1  0  0  0  0
 53 60  1  0  0  0  0
 54 60  1  0  0  0  0
 55 60  1  0  0  0  0
 56 72  1  0  0  0  0
 57 60  1  0  0  0  0
 57 71  1  0  0  0  0
 58 72  1  0  0  0  0
 59 81  1  0  0  0  0
 61 63  1  0  0  0  0
M  CHG  1  72   1
M  ISO  4  38 100  59 101  62 100  81 101
M  END
> <Batch ID>
0158

> <Smiles>
CNC(C)C(=O)NC(C(=O)N1Cc2cc([101O:1][101CH:1](C)C(=O)Nc3cc(N)c(C=[100N:0][100C:0](=O)N4CCCC(n5nc(-c6ccc(Oc7ccc(F)cc7F)cc6)c(C(N)=O)c5N)C4)o3)ccc2CC1C(=O)NC1CCCc2ccccc21)C(C)(C)C

> <Shape>
0.207

> <Color>
0.073

> <Negative vol penalty>
0.000

$$$$

  -OEChem-04052303443D

 81 89  0     1  0  0  0  0  0999 V2000
  -16.9741  -26.2512   21.0798 C   0  0  0  0  0  0  0  0  0  0  0  0
  -18.2226  -26.4983   20.5178 C   0  0  0  0  0  0  0  0  0  0  0  0
  -27.8717  -11.7537   22.7309 C   0  0  0  0  0  0  0  0  0  0  0  0
  -27.2576  -11.5563   20.4026 C   0  0  0  0  0  0  0  0  0  0  0  0
  -16.5803  -26.9358   22.2287 C   0  0  0  0  0  0  0  0  0  0  0  0
  -19.0774  -27.4311   21.1039 C   0  0  0  0  0  0  0  0  0  0  0  0
  -23.8461  -25.7587   21.4321 C   0  0  0  0  0  0  0  0  0  0  0  0
  -26.9251  -10.7846   23.0628 C   0  0  0  0  0  0  0  0  0  0  0  0
  -26.3109  -10.5871   20.7345 C   0  0  0  0  0  0  0  0  0  0  0  0
  -24.6150  -25.7951   20.2697 C   0  0  0  0  0  0  0  0  0  0  0  0
  -23.1893  -10.4942   22.0297 C   0  0  0  0  0  0  0  0  0  0  0  0
  -21.9252  -10.5975   21.4494 C   0  0  0  0  0  0  0  0  0  0  0  0
  -30.7173  -23.6106   15.9280 C   0  0  0  0  0  0  0  0  0  0  0  0
  -30.1659  -24.8570   16.3097 C   0  0  0  0  0  0  0  0  0  0  0  0
  -25.6661  -27.8267   21.0358 C   0  0  0  0  0  0  0  0  0  0  0  0
  -22.2152   -8.4259   20.4309 C   0  0  0  0  0  0  0  0  0  0  0  0
  -28.0379  -12.1396   21.4007 C   0  0  0  0  0  0  0  0  0  0  0  0
  -30.3654  -12.9306   20.7189 C   0  0  0  0  0  0  0  0  0  0  0  0
  -17.4346  -27.8704   22.8347 C   0  0  0  0  0  0  0  0  0  0  0  0
  -23.9738  -26.7636   22.4017 C   0  0  0  0  0  0  0  0  0  0  0  0
  -18.6941  -28.1299   22.2613 C   0  0  0  0  0  0  0  0  0  0  0  0
  -24.8995  -27.7994   22.2108 C   0  0  0  0  0  0  0  0  0  0  0  0
  -26.1447  -10.2012   22.0646 C   0  0  0  0  0  0  0  0  0  0  0  0
  -25.5231  -26.8308   20.0700 C   0  0  0  0  0  0  0  0  0  0  0  0
  -23.9665   -9.3567   21.8106 C   0  0  0  0  0  0  0  0  0  0  0  0
  -21.4381   -9.5634   20.6500 C   0  0  0  0  0  0  0  0  0  0  0  0
  -23.4794   -8.3226   21.0112 C   0  0  0  0  0  0  0  0  0  0  0  0
  -29.0153  -13.1411   21.0573 C   0  0  0  0  0  0  0  0  0  0  0  0
  -30.2450  -22.6903   16.8346 C   0  0  0  0  0  0  0  0  0  0  0  0
  -30.8601  -14.1896   20.4807 C   0  0  0  0  0  0  0  0  0  0  0  0
  -29.3958  -24.6095   17.4222 C   0  0  0  0  0  0  0  0  0  0  0  0
  -31.1062  -11.7064   20.6278 C   0  0  0  0  0  0  0  0  0  0  0  0
  -30.5652  -21.2476   16.8227 C   0  0  0  0  0  0  0  0  0  0  0  0
  -22.0237  -28.9477   23.6389 C   0  0  0  0  0  0  0  0  0  0  0  0
  -24.5355  -29.5066   25.6139 C   0  0  0  0  0  0  0  0  0  0  0  0
  -27.9021  -29.3242   26.1423 C   0  0  0  0  0  0  0  0  0  0  0  0
  -30.2209  -19.0490   17.9291 C   0  0  0  0  0  0  0  0  0  0  0  0
  -16.9460  -28.6203   24.0486 C   0  0  0  0  0  0  0  0  0  0  0  0
  -23.1562  -26.6955   23.6624 C   0  0  0  0  0  0  0  0  0  0  0  0
  -25.0890  -28.8915   23.2305 C   0  0  0  0  0  0  0  0  0  0  0  0
  -18.0610  -29.3193   24.8224 C   0  0  0  0  0  0  0  0  0  0  0  0
  -28.9062  -18.7404   21.3837 C   0  0  0  0  0  0  0  0  0  0  0  0
  -18.9807  -30.0745   23.8681 C   0  0  0  0  0  0  0  0  0  0  0  0
  -28.8606  -17.2241   21.5371 C   0  0  0  0  0  0  0  0  0  0  0  0
  -28.6575  -19.1829   19.9423 C   0  0  0  0  0  0  0  0  0  0  0  0
  -29.5277  -17.0073   19.1147 C   0  0  0  0  0  0  0  0  0  0  0  0
  -19.6594  -29.1162   22.8820 C   0  0  1  0  0  0  0  0  0  0  0  0
  -22.9989  -28.0500   24.3465 C   0  0  1  0  0  0  0  0  0  0  0  0
  -29.8297  -16.5564   20.5511 C   0  0  2  0  0  0  0  0  0  0  0  0
  -29.6641  -29.8948   27.8356 C   0  0  0  0  0  0  0  0  0  0  0  0
  -24.3514  -32.4448   24.8118 C   0  0  0  0  0  0  0  0  0  0  0  0
  -26.6499  -32.7725   25.7488 C   0  0  0  0  0  0  0  0  0  0  0  0
  -24.7867  -32.0524   27.2431 C   0  0  0  0  0  0  0  0  0  0  0  0
  -28.6956  -26.4889   26.4433 C   0  0  0  0  0  0  0  0  0  0  0  0
  -28.4877  -26.8626   17.9917 C   0  0  0  0  0  0  0  0  0  0  0  0
  -27.5631  -27.4745   19.0309 C   0  0  0  0  0  0  0  0  0  1  0  0
  -25.7445  -30.4100   25.5766 C   0  0  1  0  0  0  0  0  0  0  0  0
  -28.7103  -28.8253   27.3265 C   0  0  2  0  0  0  0  0  0  0  0  0
  -25.3784  -31.9005   25.8248 C   0  0  0  0  0  0  0  0  0  0  0  0
  -28.6740  -14.4323   21.0373 N   0  0  0  0  0  0  0  0  0  0  0  0
  -29.8169  -15.0444   20.6835 N   0  0  0  0  0  0  0  0  0  0  0  0
  -24.2621  -28.7842   24.4438 N   0  0  0  0  0  0  0  0  0  0  0  0
  -29.5176  -18.4687   18.9889 N   0  0  0  0  0  0  0  0  0  0  0  0
  -32.0813  -14.6377   20.1199 N   0  0  0  0  0  0  0  0  0  0  0  0
  -30.4441  -10.5026   20.9053 N   0  0  0  0  0  0  0  0  0  0  0  0
  -28.6267  -25.4422   18.2181 N   0  0  0  0  0  0  0  0  0  0  0  0
  -30.0251  -20.4747   17.7778 N   0  0  0  0  0  0  0  0  0  0  0  0
  -20.7521  -28.4189   23.5258 N   0  0  0  0  0  0  0  0  0  0  0  0
  -26.6947  -29.8601   26.5374 N   0  0  0  0  0  0  0  0  0  0  0  0
  -31.3778  -20.8042   15.8638 N   0  3  0  0  0  0  0  0  0  0  0  0
  -29.5094  -27.6280   26.9407 N   0  3  0  0  0  0  0  0  0  0  0  0
  -32.3234  -11.6821   20.3257 O   0  0  0  0  0  0  0  0  0  0  0  0
  -22.3969  -30.0400   23.2273 O   0  0  0  0  0  0  0  0  0  0  0  0
  -23.8628  -29.4389   26.6457 O   0  0  0  0  0  0  0  0  0  0  0  0
  -28.3036  -29.2497   24.9831 O   0  0  0  0  0  0  0  0  0  0  0  0
  -30.9379  -18.4491   17.1354 O   0  0  0  0  0  0  0  0  0  0  0  0
  -29.4386  -23.2910   17.7486 O   0  0  0  0  0  0  0  0  0  0  0  0
  -25.2210   -9.2553   22.3881 O   0  0  0  0  0  0  0  0  0  0  0  0
  -26.2744  -26.8691   18.9360 O   0  0  0  0  0  0  0  0  0  1  0  0
  -20.2235   -9.6621   20.0940 F   0  0  0  0  0  0  0  0  0  0  0  0
  -24.2209   -7.2269   20.7980 F   0  0  0  0  0  0  0  0  0  0  0  0
  1  2  1  0  0  0  0
  1  5  2  0  0  0  0
  2  6  2  0  0  0  0
  3  8  2  0  0  0  0
  3 17  1  0  0  0  0
  4  9  1  0  0  0  0
  4 17  2  0  0  0  0
  5 19  1  0  0  0  0
  6 21  1  0  0  0  0
  7 10  2  0  0  0  0
  7 20  1  0  0  0  0
  8 23  1  0  0  0  0
  9 23  2  0  0  0  0
 10 24  1  0  0  0  0
 11 12  2  0  0  0  0
 11 25  1  0  0  0  0
 12 26  1  0  0  0  0
 13 14  1  0  0  0  0
 13 29  2  0  0  0  0
 14 31  2  0  0  0  0
 15 22  1  0  0  0  0
 15 24  2  0  0  0  0
 16 26  2  0  0  0  0
 16 27  1  0  0  0  0
 17 28  1  0  0  0  0
 18 28  1  0  0  0  0
 18 30  2  0  0  0  0
 18 32  1  0  0  0  0
 19 21  2  0  0  0  0
 19 38  1  0  0  0  0
 20 22  2  0  0  0  0
 20 39  1  0  0  0  0
 21 47  1  0  0  0  0
 22 40  1  0  0  0  0
 23 78  1  0  0  0  0
 24 79  1  0  0  0  0
 25 27  2  0  0  0  0
 25 78  1  0  0  0  0
 26 80  1  0  0  0  0
 27 81  1  0  0  0  0
 28 60  2  0  0  0  0
 29 33  1  0  0  0  0
 29 77  1  0  0  0  0
 30 61  1  0  0  0  0
 30 64  1  0  0  0  0
 31 66  1  0  0  0  0
 31 77  1  0  0  0  0
 32 65  1  0  0  0  0
 32 72  2  0  0  0  0
 33 67  1  0  0  0  0
 33 70  2  0  0  0  0
 34 48  1  0  0  0  0
 34 68  1  0  0  0  0
 34 73  2  0  0  0  0
 35 57  1  0  0  0  0
 35 62  1  0  0  0  0
 35 74  2  0  0  0  0
 36 58  1  0  0  0  0
 36 69  1  0  0  0  0
 36 75  2  0  0  0  0
 37 63  1  0  0  0  0
 37 67  1  0  0  0  0
 37 76  2  0  0  0  0
 38 41  1  0  0  0  0
 39 48  1  0  0  0  0
 40 62  1  0  0  0  0
 41 43  1  0  0  0  0
 42 44  1  0  0  0  0
 42 45  1  0  0  0  0
 43 47  1  0  0  0  0
 44 49  1  0  0  0  0
 45 63  1  0  0  0  0
 46 49  1  0  0  0  0
 46 63  1  0  0  0  0
 47 68  1  0  0  0  0
 48 62  1  0  0  0  0
 49 61  1  0  0  0  0
 50 58  1  0  0  0  0
 51 59  1  0  0  0  0
 52 59  1  0  0  0  0
 53 59  1  0  0  0  0
 54 71  1  0  0  0  0
 55 56  1  0  0  0  0
 55 66  1  0  0  0  0
 56 79  1  0  0  0  0
 57 59  1  0  0  0  0
 57 69  1  0  0  0  0
 58 71  1  0  0  0  0
 60 61  1  0  0  0  0
M  CHG  2  70   1  71   1
M  ISO  4  37 100  56 101  67 100  79 101
M  END
> <Batch ID>
0158

> <Smiles>
CNC(C)C(=O)NC(C(=O)N1Cc2cc([101O:1][101CH2:1]CNc3ccc(C(=N)[100NH:0][100C:0](=O)N4CCCC(n5nc(-c6ccc(Oc7ccc(F)cc7F)cc6)c(C(N)=O)c5N)C4)o3)ccc2CC1C(=O)NC1CCCc2ccccc21)C(C)(C)C

> <Shape>
0.291

> <Color>
0.052

> <Negative vol penalty>
0.000

$$$$

  -OEChem-04052303443D

 87 95  0     1  0  0  0  0  0999 V2000
  -27.9068  -35.0769   23.3431 C   0  0  0  0  0  0  0  0  0  0  0  0
  -28.1078  -33.7108   23.1729 C   0  0  0  0  0  0  0  0  0  0  0  0
  -24.6022   -9.0010   21.5901 C   0  0  0  0  0  0  0  0  0  0  0  0
  -23.1163  -10.7329   22.3836 C   0  0  0  0  0  0  0  0  0  0  0  0
  -26.6376  -35.5596   23.6591 C   0  0  0  0  0  0  0  0  0  0  0  0
  -27.0396  -32.8265   23.3196 C   0  0  0  0  0  0  0  0  0  0  0  0
  -26.8851  -29.3407   19.6495 C   0  0  0  0  0  0  0  0  0  0  0  0
  -24.0566   -8.1096   22.5138 C   0  0  0  0  0  0  0  0  0  0  0  0
  -22.5706   -9.8414   23.3074 C   0  0  0  0  0  0  0  0  0  0  0  0
  -27.7745  -28.2716   19.7489 C   0  0  0  0  0  0  0  0  0  0  0  0
  -21.2716   -6.2137   22.8007 C   0  0  0  0  0  0  0  0  0  0  0  0
  -20.9553   -4.9306   22.3545 C   0  0  0  0  0  0  0  0  0  0  0  0
  -25.2235  -18.7568   17.2837 C   0  0  0  0  0  0  0  0  0  0  0  0
  -26.0044  -26.8887   20.6285 C   0  0  0  0  0  0  0  0  0  0  0  0
  -26.9743  -19.8645   18.5266 C   0  0  0  0  0  0  0  0  0  0  0  0
  -22.4869   -3.9913   23.9698 C   0  0  0  0  0  0  0  0  0  0  0  0
  -24.1321  -10.3127   21.5250 C   0  0  0  0  0  0  0  0  0  0  0  0
  -24.7403  -19.9951   16.8608 C   0  0  0  0  0  0  0  0  0  0  0  0
  -24.2603  -11.4650   19.2527 C   0  0  0  0  0  0  0  0  0  0  0  0
  -25.5513  -34.6816   23.8003 C   0  0  0  0  0  0  0  0  0  0  0  0
  -25.5491  -29.1947   20.0497 C   0  0  0  0  0  0  0  0  0  0  0  0
  -25.7549  -33.2978   23.6391 C   0  0  0  0  0  0  0  0  0  0  0  0
  -25.0995  -27.9567   20.5308 C   0  0  0  0  0  0  0  0  0  0  0  0
  -26.3405  -18.6915   18.1166 C   0  0  0  0  0  0  0  0  0  0  0  0
  -26.4911  -21.1028   18.1037 C   0  0  0  0  0  0  0  0  0  0  0  0
  -25.3741  -21.1680   17.2708 C   0  0  0  0  0  0  0  0  0  0  0  0
  -23.0408   -8.5298   23.3725 C   0  0  0  0  0  0  0  0  0  0  0  0
  -27.3349  -27.0462   20.2412 C   0  0  0  0  0  0  0  0  0  0  0  0
  -22.1956   -6.3857   23.8314 C   0  0  0  0  0  0  0  0  0  0  0  0
  -21.5629   -3.8194   22.9391 C   0  0  0  0  0  0  0  0  0  0  0  0
  -22.8032   -5.2745   24.4160 C   0  0  0  0  0  0  0  0  0  0  0  0
  -24.6957  -11.2341   20.5714 C   0  0  0  0  0  0  0  0  0  0  0  0
  -25.1182  -12.4231   18.7706 C   0  0  0  0  0  0  0  0  0  0  0  0
  -23.5780  -20.0347   15.9966 C   0  0  0  0  0  0  0  0  0  0  0  0
  -23.1771  -10.8669   18.5283 C   0  0  0  0  0  0  0  0  0  0  0  0
  -28.6845  -23.7721   19.5948 C   0  0  0  0  0  0  0  0  0  0  0  0
  -28.2581  -22.3533   19.3514 C   0  0  0  0  0  0  0  0  0  0  0  0
  -23.7105  -30.5444   22.2637 C   0  0  0  0  0  0  0  0  0  0  0  0
  -21.3804  -28.7953   20.8375 C   0  0  0  0  0  0  0  0  0  0  0  0
  -20.5422  -26.0814   18.9457 C   0  0  0  0  0  0  0  0  0  0  0  0
  -27.9282  -17.1922   19.3726 C   0  0  0  0  0  0  0  0  0  0  0  0
  -24.2077  -35.2458   24.1890 C   0  0  0  0  0  0  0  0  0  0  0  0
  -24.5958  -30.3499   19.9111 C   0  0  0  0  0  0  0  0  0  0  0  0
  -23.6702  -27.7424   20.9547 C   0  0  0  0  0  0  0  0  0  0  0  0
  -23.0506  -34.2773   23.9582 C   0  0  0  0  0  0  0  0  0  0  0  0
  -29.4334  -14.2460   20.6884 C   0  0  0  0  0  0  0  0  0  0  0  0
  -23.3989  -32.8921   24.4937 C   0  0  0  0  0  0  0  0  0  0  0  0
  -28.2992  -13.2187   20.6668 C   0  0  0  0  0  0  0  0  0  0  0  0
  -28.9263  -15.6435   21.0400 C   0  0  0  0  0  0  0  0  0  0  0  0
  -26.6784  -15.0988   20.1918 C   0  0  0  0  0  0  0  0  0  0  0  0
  -24.6161  -32.3092   23.7656 C   0  0  1  0  0  0  0  0  0  0  0  0
  -23.3830  -30.2372   20.8298 C   0  0  1  0  0  0  0  0  0  0  0  0
  -27.1303  -13.6885   19.7787 C   0  0  2  0  0  0  0  0  0  0  0  0
  -18.5555  -24.8929   17.9773 C   0  0  0  0  0  0  0  0  0  0  0  0
  -20.7191  -27.6615   23.5920 C   0  0  0  0  0  0  0  0  0  0  0  0
  -19.4317  -25.8394   22.4559 C   0  0  0  0  0  0  0  0  0  0  0  0
  -18.7264  -28.2169   22.1866 C   0  0  0  0  0  0  0  0  0  0  0  0
  -21.5075  -26.4800   16.1765 C   0  0  0  0  0  0  0  0  0  0  0  0
  -27.6554  -24.6900   20.2012 C   0  0  0  0  0  0  0  0  0  1  0  0
  -20.8204  -27.4060   21.0248 C   0  0  1  0  0  0  0  0  0  0  0  0
  -19.6346  -25.9373   17.7374 C   0  0  2  0  0  0  0  0  0  0  0  0
  -19.9519  -27.2852   22.3087 C   0  0  0  0  0  0  0  0  0  0  0  0
  -25.7485  -11.9849   20.9057 N   0  0  0  0  0  0  0  0  0  0  0  0
  -25.9819  -12.6970   19.7900 N   0  0  0  0  0  0  0  0  0  0  0  0
  -22.7780  -28.9040   20.8061 N   0  0  0  0  0  0  0  0  0  0  0  0
  -27.8228  -16.0228   20.1551 N   0  0  0  0  0  0  0  0  0  0  0  0
  -24.8811  -22.4228   16.8403 N   0  0  0  0  0  0  0  0  0  0  0  0
  -25.2105  -13.0496   17.5784 N   0  0  0  0  0  0  0  0  0  0  0  0
  -23.7236  -20.0054   14.6626 N   0  0  0  0  0  0  0  0  0  0  0  0
  -22.3953   -9.8993   19.1739 N   0  0  0  0  0  0  0  0  0  0  0  0
  -27.1515  -22.2774   18.5334 N   0  0  0  0  0  0  0  0  0  0  0  0
  -26.8316  -17.4336   18.5458 N   0  0  0  0  0  0  0  0  0  0  0  0
  -24.2336  -31.8077   22.4631 N   0  0  0  0  0  0  0  0  0  0  0  0
  -20.1118  -27.0818   19.7914 N   0  0  0  0  0  0  0  0  0  0  0  0
  -22.3444  -20.0991   16.5214 N   0  3  0  0  0  0  0  0  0  0  0  0
  -20.4250  -25.5302   16.5414 N   0  3  0  0  0  0  0  0  0  0  0  0
  -22.9206  -11.1693   17.3383 O   0  0  0  0  0  0  0  0  0  0  0  0
  -29.8194  -24.0853   19.2685 O   0  0  0  0  0  0  0  0  0  0  0  0
  -28.9067  -21.4843   19.9101 O   0  0  0  0  0  0  0  0  0  0  0  0
  -23.5025  -29.6984   23.1255 O   0  0  0  0  0  0  0  0  0  0  0  0
  -20.6064  -29.7481   20.7161 O   0  0  0  0  0  0  0  0  0  0  0  0
  -21.5318  -25.3745   19.1236 O   0  0  0  0  0  0  0  0  0  0  0  0
  -28.9302  -17.9109   19.4116 O   0  0  0  0  0  0  0  0  0  0  0  0
  -22.5080   -7.6602   24.2738 O   0  0  0  0  0  0  0  0  0  0  0  0
  -28.2010  -26.0013   20.3399 O   0  0  0  0  0  0  0  0  0  1  0  0
  -21.2579   -2.5871   22.5115 F   0  0  0  0  0  0  0  0  0  0  0  0
  -23.6908   -5.4333   25.4074 F   0  0  0  0  0  0  0  0  0  0  0  0
  1  2  1  0  0  0  0
  1  5  2  0  0  0  0
  2  6  2  0  0  0  0
  3  8  2  0  0  0  0
  3 17  1  0  0  0  0
  4  9  1  0  0  0  0
  4 17  2  0  0  0  0
  5 20  1  0  0  0  0
  6 22  1  0  0  0  0
  7 10  2  0  0  0  0
  7 21  1  0  0  0  0
  8 27  1  0  0  0  0
  9 27  2  0  0  0  0
 10 28  1  0  0  0  0
 11 12  2  0  0  0  0
 11 29  1  0  0  0  0
 12 30  1  0  0  0  0
 13 18  2  0  0  0  0
 13 24  1  0  0  0  0
 14 23  1  0  0  0  0
 14 28  2  0  0  0  0
 15 24  2  0  0  0  0
 15 25  1  0  0  0  0
 16 30  2  0  0  0  0
 16 31  1  0  0  0  0
 17 32  1  0  0  0  0
 18 26  1  0  0  0  0
 18 34  1  0  0  0  0
 19 32  1  0  0  0  0
 19 33  2  0  0  0  0
 19 35  1  0  0  0  0
 20 22  2  0  0  0  0
 20 42  1  0  0  0  0
 21 23  2  0  0  0  0
 21 43  1  0  0  0  0
 22 51  1  0  0  0  0
 23 44  1  0  0  0  0
 24 72  1  0  0  0  0
 25 26  2  0  0  0  0
 25 71  1  0  0  0  0
 26 67  1  0  0  0  0
 27 84  1  0  0  0  0
 28 85  1  0  0  0  0
 29 31  2  0  0  0  0
 29 84  1  0  0  0  0
 30 86  1  0  0  0  0
 31 87  1  0  0  0  0
 32 63  2  0  0  0  0
 33 64  1  0  0  0  0
 33 68  1  0  0  0  0
 34 69  1  0  0  0  0
 34 75  2  0  0  0  0
 35 70  1  0  0  0  0
 35 77  2  0  0  0  0
 36 37  1  0  0  0  0
 36 59  1  0  0  0  0
 36 78  2  0  0  0  0
 37 71  1  0  0  0  0
 37 79  2  0  0  0  0
 38 52  1  0  0  0  0
 38 73  1  0  0  0  0
 38 80  2  0  0  0  0
 39 60  1  0  0  0  0
 39 65  1  0  0  0  0
 39 81  2  0  0  0  0
 40 61  1  0  0  0  0
 40 74  1  0  0  0  0
 40 82  2  0  0  0  0
 41 66  1  0  0  0  0
 41 72  1  0  0  0  0
 41 83  2  0  0  0  0
 42 45  1  0  0  0  0
 43 52  1  0  0  0  0
 44 65  1  0  0  0  0
 45 47  1  0  0  0  0
 46 48  1  0  0  0  0
 46 49  1  0  0  0  0
 47 51  1  0  0  0  0
 48 53  1  0  0  0  0
 49 66  1  0  0  0  0
 50 53  1  0  0  0  0
 50 66  1  0  0  0  0
 51 73  1  0  0  0  0
 52 65  1  0  0  0  0
 53 64  1  0  0  0  0
 54 61  1  0  0  0  0
 55 62  1  0  0  0  0
 56 62  1  0  0  0  0
 57 62  1  0  0  0  0
 58 76  1  0  0  0  0
 59 85  1  0  0  0  0
 60 62  1  0  0  0  0
 60 74  1  0  0  0  0
 61 76  1  0  0  0  0
 63 64  1  0  0  0  0
M  CHG  2  75   1  76   1
M  ISO  4  41 100  59 101  72 100  85 101
M  END
> <Batch ID>
0158

> <Smiles>
CNC(C)C(=O)NC(C(=O)N1Cc2cc([101O:1][101CH2:1]C(=O)C(=O)Nc3cc([100NH:0][100C:0](=O)N4CCCC(n5nc(-c6ccc(Oc7ccc(F)cc7F)cc6)c(C(N)=O)c5N)C4)cc(C(=N)N)c3N)ccc2CC1C(=O)NC1CCCc2ccccc21)C(C)(C)C

> <Shape>
0.306

> <Color>
0.084

> <Negative vol penalty>
0.000

$$$$

  -OEChem-04052303443D

 86 95  0     1  0  0  0  0  0999 V2000
  -16.2427  -31.5221   20.7722 C   0  0  0  0  0  0  0  0  0  0  0  0
  -17.5051  -32.0972   20.6684 C   0  0  0  0  0  0  0  0  0  0  0  0
  -26.9834  -22.4809   23.7112 C   0  0  0  0  0  0  0  0  0  0  0  0
  -22.9550  -13.4824   18.7915 C   0  0  0  0  0  0  0  0  0  0  0  0
  -22.3697  -14.8289   20.7102 C   0  0  0  0  0  0  0  0  0  0  0  0
  -16.0209  -30.4898   21.6828 C   0  0  0  0  0  0  0  0  0  0  0  0
  -18.5464  -31.6411   21.4759 C   0  0  0  0  0  0  0  0  0  0  0  0
  -25.5858  -28.8991   19.4871 C   0  0  0  0  0  0  0  0  0  0  0  0
  -22.4851  -12.3443   19.4469 C   0  0  0  0  0  0  0  0  0  0  0  0
  -21.8997  -13.6907   21.3656 C   0  0  0  0  0  0  0  0  0  0  0  0
  -26.7982  -28.2500   19.2531 C   0  0  0  0  0  0  0  0  0  0  0  0
  -21.7695   -9.0280   20.7561 C   0  0  0  0  0  0  0  0  0  0  0  0
  -22.5554   -7.8768   20.7040 C   0  0  0  0  0  0  0  0  0  0  0  0
  -28.1345  -23.2607   23.6958 C   0  0  0  0  0  0  0  0  0  0  0  0
  -26.8387  -21.4467   22.7932 C   0  0  0  0  0  0  0  0  0  0  0  0
  -26.5917  -27.0818   21.3604 C   0  0  0  0  0  0  0  0  0  0  0  0
  -24.3631   -9.0620   21.7833 C   0  0  0  0  0  0  0  0  0  0  0  0
  -22.8973  -14.7247   19.4232 C   0  0  0  0  0  0  0  0  0  0  0  0
  -22.6489  -16.7672   17.9152 C   0  0  0  0  0  0  0  0  0  0  0  0
  -17.0624  -30.0143   22.4951 C   0  0  0  0  0  0  0  0  0  0  0  0
  -24.8633  -28.6302   20.6530 C   0  0  0  0  0  0  0  0  0  0  0  0
  -18.3380  -30.6024   22.3992 C   0  0  0  0  0  0  0  0  0  0  0  0
  -25.3706  -27.7196   21.5944 C   0  0  0  0  0  0  0  0  0  0  0  0
  -21.9575  -12.4484   20.7339 C   0  0  0  0  0  0  0  0  0  0  0  0
  -27.3000  -27.3437   20.1875 C   0  0  0  0  0  0  0  0  0  0  0  0
  -22.2804  -10.1962   21.3218 C   0  0  0  0  0  0  0  0  0  0  0  0
  -23.8522   -7.8938   21.2175 C   0  0  0  0  0  0  0  0  0  0  0  0
  -23.5771  -10.2132   21.8354 C   0  0  0  0  0  0  0  0  0  0  0  0
  -23.3831  -15.9006   18.7470 C   0  0  0  0  0  0  0  0  0  0  0  0
  -29.1037  -22.9677   22.7499 C   0  0  0  0  0  0  0  0  0  0  0  0
  -27.8657  -21.2351   21.8875 C   0  0  0  0  0  0  0  0  0  0  0  0
  -23.5577  -17.7201   17.5247 C   0  0  0  0  0  0  0  0  0  0  0  0
  -21.2689  -16.7154   17.5299 C   0  0  0  0  0  0  0  0  0  0  0  0
  -21.7886  -29.3136   22.6913 C   0  0  0  0  0  0  0  0  0  0  0  0
  -30.2465  -25.2235   20.4675 C   0  0  0  0  0  0  0  0  0  0  0  0
  -22.3292  -26.2997   22.8771 C   0  0  0  0  0  0  0  0  0  0  0  0
  -23.0268  -22.9837   22.4836 C   0  0  0  0  0  0  0  0  0  0  0  0
  -28.6059  -19.7884   19.9626 C   0  0  0  0  0  0  0  0  0  0  0  0
  -16.7628  -28.9285   23.4980 C   0  0  0  0  0  0  0  0  0  0  0  0
  -23.5832  -29.3521   20.9754 C   0  0  0  0  0  0  0  0  0  0  0  0
  -24.5762  -27.4874   22.8505 C   0  0  0  0  0  0  0  0  0  0  0  0
  -18.0127  -28.2494   24.0521 C   0  0  0  0  0  0  0  0  0  0  0  0
  -28.2422  -18.3270   16.7363 C   0  0  0  0  0  0  0  0  0  0  0  0
  -19.0532  -29.2906   24.4518 C   0  0  0  0  0  0  0  0  0  0  0  0
  -26.8853  -17.6229   16.8081 C   0  0  0  0  0  0  0  0  0  0  0  0
  -31.7763  -22.9711   22.5753 C   0  0  0  0  0  0  0  0  0  0  0  0
  -28.9982  -18.2378   18.0608 C   0  0  0  0  0  0  0  0  0  0  0  0
  -26.8888  -17.9885   19.3087 C   0  0  0  0  0  0  0  0  0  0  0  0
  -19.4991  -30.1183   23.2404 C   0  0  1  0  0  0  0  0  0  0  0  0
  -30.4605  -23.7783   22.6253 C   0  0  1  0  0  0  0  0  0  0  0  0
  -22.5654  -28.4716   21.7223 C   0  0  1  0  0  0  0  0  0  0  0  0
  -26.0623  -18.1074   18.0178 C   0  0  2  0  0  0  0  0  0  0  0  0
  -32.1693  -23.7197   21.2853 C   0  0  0  0  0  0  0  0  0  0  0  0
  -33.2603  -24.7666   21.4636 C   0  0  0  0  0  0  0  0  0  0  0  0
  -32.3747  -22.8321   20.0676 C   0  0  0  0  0  0  0  0  0  0  0  0
  -22.2360  -20.7077   23.1849 C   0  0  0  0  0  0  0  0  0  0  0  0
  -23.5822  -26.7157   25.6268 C   0  0  0  0  0  0  0  0  0  0  0  0
  -23.6251  -24.2279   25.9052 C   0  0  0  0  0  0  0  0  0  0  0  0
  -21.4468  -25.4140   25.6392 C   0  0  0  0  0  0  0  0  0  0  0  0
  -22.4700  -22.1882   19.6878 C   0  0  0  0  0  0  0  0  0  0  0  0
  -28.9387  -25.7958   20.9465 C   0  0  0  0  0  0  0  0  0  1  0  0
  -22.9804  -25.1763   23.6433 C   0  0  1  0  0  0  0  0  0  0  0  0
  -22.1402  -21.8022   22.1334 C   0  0  2  0  0  0  0  0  0  0  0  0
  -22.9215  -25.3958   25.1814 C   0  0  0  0  0  0  0  0  0  0  0  0
  -24.6599  -16.2703   18.8778 N   0  0  0  0  0  0  0  0  0  0  0  0
  -28.9986  -21.9715   21.8421 N   0  0  0  0  0  0  0  0  0  0  0  0
  -24.7352  -17.3795   18.1228 N   0  0  0  0  0  0  0  0  0  0  0  0
  -23.1446  -27.3828   22.5274 N   0  0  0  0  0  0  0  0  0  0  0  0
  -30.8352  -24.3178   21.3149 N   0  0  0  0  0  0  0  0  0  0  0  0
  -28.1582  -18.7175   19.1604 N   0  0  0  0  0  0  0  0  0  0  0  0
  -23.4565  -18.8077   16.7315 N   0  0  0  0  0  0  0  0  0  0  0  0
  -20.4767  -15.6689   18.0217 N   0  0  0  0  0  0  0  0  0  0  0  0
  -27.7087  -20.1790   20.9560 N   0  0  0  0  0  0  0  0  0  0  0  0
  -20.4327  -29.3658   22.4301 N   0  0  0  0  0  0  0  0  0  0  0  0
  -22.3384  -23.9471   23.1901 N   0  0  0  0  0  0  0  0  0  0  0  0
  -22.5398  -21.2267   20.8181 N   0  3  0  0  0  0  0  0  0  0  0  0
  -20.7574  -17.5624   16.7589 O   0  0  0  0  0  0  0  0  0  0  0  0
  -22.3749  -29.8740   23.6100 O   0  0  0  0  0  0  0  0  0  0  0  0
  -30.7197  -25.5611   19.3822 O   0  0  0  0  0  0  0  0  0  0  0  0
  -21.1289  -26.2242   22.5998 O   0  0  0  0  0  0  0  0  0  0  0  0
  -24.2124  -23.0441   22.1656 O   0  0  0  0  0  0  0  0  0  0  0  0
  -29.6927  -20.3376   19.7643 O   0  0  0  0  0  0  0  0  0  0  0  0
  -21.4986  -11.3381   21.3736 O   0  0  0  0  0  0  0  0  0  0  0  0
  -28.4820  -26.7101   19.9506 O   0  0  0  0  0  0  0  0  0  1  0  0
  -24.6062   -6.7878   21.1688 F   0  0  0  0  0  0  0  0  0  0  0  0
  -24.0730  -11.3322   22.3811 F   0  0  0  0  0  0  0  0  0  0  0  0
  1  2  1  0  0  0  0
  1  6  2  0  0  0  0
  2  7  2  0  0  0  0
  3 14  2  0  0  0  0
  3 15  1  0  0  0  0
  4  9  2  0  0  0  0
  4 18  1  0  0  0  0
  5 10  1  0  0  0  0
  5 18  2  0  0  0  0
  6 20  1  0  0  0  0
  7 22  1  0  0  0  0
  8 11  2  0  0  0  0
  8 21  1  0  0  0  0
  9 24  1  0  0  0  0
 10 24  2  0  0  0  0
 11 25  1  0  0  0  0
 12 13  2  0  0  0  0
 12 26  1  0  0  0  0
 13 27  1  0  0  0  0
 14 30  1  0  0  0  0
 15 31  2  0  0  0  0
 16 23  1  0  0  0  0
 16 25  2  0  0  0  0
 17 27  2  0  0  0  0
 17 28  1  0  0  0  0
 18 29  1  0  0  0  0
 19 29  1  0  0  0  0
 19 32  2  0  0  0  0
 19 33  1  0  0  0  0
 20 22  2  0  0  0  0
 20 39  1  0  0  0  0
 21 23  2  0  0  0  0
 21 40  1  0  0  0  0
 22 49  1  0  0  0  0
 23 41  1  0  0  0  0
 24 83  1  0  0  0  0
 25 84  1  0  0  0  0
 26 28  2  0  0  0  0
 26 83  1  0  0  0  0
 27 85  1  0  0  0  0
 28 86  1  0  0  0  0
 29 65  2  0  0  0  0
 30 50  1  0  0  0  0
 30 66  2  0  0  0  0
 31 66  1  0  0  0  0
 31 73  1  0  0  0  0
 32 67  1  0  0  0  0
 32 71  1  0  0  0  0
 33 72  1  0  0  0  0
 33 77  2  0  0  0  0
 34 51  1  0  0  0  0
 34 74  1  0  0  0  0
 34 78  2  0  0  0  0
 35 61  1  0  0  0  0
 35 69  1  0  0  0  0
 35 79  2  0  0  0  0
 36 62  1  0  0  0  0
 36 68  1  0  0  0  0
 36 80  2  0  0  0  0
 37 63  1  0  0  0  0
 37 75  1  0  0  0  0
 37 81  2  0  0  0  0
 38 70  1  0  0  0  0
 38 73  1  0  0  0  0
 38 82  2  0  0  0  0
 39 42  1  0  0  0  0
 40 51  1  0  0  0  0
 41 68  1  0  0  0  0
 42 44  1  0  0  0  0
 43 45  1  0  0  0  0
 43 47  1  0  0  0  0
 44 49  1  0  0  0  0
 45 52  1  0  0  0  0
 46 50  1  0  0  0  0
 46 53  1  0  0  0  0
 47 70  1  0  0  0  0
 48 52  1  0  0  0  0
 48 70  1  0  0  0  0
 49 74  1  0  0  0  0
 50 69  1  0  0  0  0
 51 68  1  0  0  0  0
 52 67  1  0  0  0  0
 53 54  1  0  0  0  0
 53 55  1  0  0  0  0
 53 69  1  0  0  0  0
 56 63  1  0  0  0  0
 57 64  1  0  0  0  0
 58 64  1  0  0  0  0
 59 64  1  0  0  0  0
 60 76  1  0  0  0  0
 61 84  1  0  0  0  0
 62 64  1  0  0  0  0
 62 75  1  0  0  0  0
 63 76  1  0  0  0  0
 65 67  1  0  0  0  0
M  CHG  1  76   1
M  ISO  4  38 100  61 101  73 100  84 101
M  END
> <Batch ID>
0158

> <Smiles>
CNC(C)C(=O)NC(C(=O)N1Cc2cc([101O:1][101CH2:1]C(=O)N3C(c4cccc([100NH:0][100C:0](=O)N5CCCC(n6nc(-c7ccc(Oc8ccc(F)cc8F)cc7)c(C(N)=O)c6N)C5)n4)CC3(C)C)ccc2CC1C(=O)NC1CCCc2ccccc21)C(C)(C)C

> <Shape>
0.197

> <Color>
0.115

> <Negative vol penalty>
0.000

$$$$

  -OEChem-04052303443D

 86 95  0     1  0  0  0  0  0999 V2000
  -14.8094  -27.2732   23.2395 C   0  0  0  0  0  0  0  0  0  0  0  0
  -15.4087  -27.0655   22.0013 C   0  0  0  0  0  0  0  0  0  0  0  0
  -32.2505  -18.2708   19.1641 C   0  0  0  0  0  0  0  0  0  0  0  0
  -22.8018  -10.9754   22.1231 C   0  0  0  0  0  0  0  0  0  0  0  0
  -23.5752  -13.2052   22.6396 C   0  0  0  0  0  0  0  0  0  0  0  0
  -15.3903  -28.1489   24.1558 C   0  0  0  0  0  0  0  0  0  0  0  0
  -16.5889  -27.7343   21.6783 C   0  0  0  0  0  0  0  0  0  0  0  0
  -31.3516  -19.3355   19.1021 C   0  0  0  0  0  0  0  0  0  0  0  0
  -22.5665  -24.0943   19.9725 C   0  0  0  0  0  0  0  0  0  0  0  0
  -31.7884  -16.9827   19.4344 C   0  0  0  0  0  0  0  0  0  0  0  0
  -21.9219  -11.0301   23.2040 C   0  0  0  0  0  0  0  0  0  0  0  0
  -22.6953  -13.2599   23.7206 C   0  0  0  0  0  0  0  0  0  0  0  0
  -23.6921  -23.4731   19.4310 C   0  0  0  0  0  0  0  0  0  0  0  0
  -22.5651  -12.0866   26.8888 C   0  0  0  0  0  0  0  0  0  0  0  0
  -23.0537  -12.5821   28.0976 C   0  0  0  0  0  0  0  0  0  0  0  0
  -29.5284  -17.8241   19.5807 C   0  0  0  0  0  0  0  0  0  0  0  0
  -24.8099  -25.6118   19.2739 C   0  0  0  0  0  0  0  0  0  0  0  0
  -21.4011  -14.3437   28.0436 C   0  0  0  0  0  0  0  0  0  0  0  0
  -23.6284  -12.0629   21.8409 C   0  0  0  0  0  0  0  0  0  0  0  0
  -24.2084  -11.8277   19.3679 C   0  0  0  0  0  0  0  0  0  0  0  0
  -29.9906  -19.1122   19.3104 C   0  0  0  0  0  0  0  0  0  0  0  0
  -16.5833  -28.8214   23.8476 C   0  0  0  0  0  0  0  0  0  0  0  0
  -22.5641  -25.4762   20.1813 C   0  0  0  0  0  0  0  0  0  0  0  0
  -17.1856  -28.6209   22.5908 C   0  0  0  0  0  0  0  0  0  0  0  0
  -23.6900  -26.2378   19.8276 C   0  0  0  0  0  0  0  0  0  0  0  0
  -30.4274  -16.7594   19.6427 C   0  0  0  0  0  0  0  0  0  0  0  0
  -21.8687  -12.1723   24.0028 C   0  0  0  0  0  0  0  0  0  0  0  0
  -24.8109  -24.2300   19.0824 C   0  0  0  0  0  0  0  0  0  0  0  0
  -21.4945  -12.7197   26.2573 C   0  0  0  0  0  0  0  0  0  0  0  0
  -22.4717  -13.7106   28.6751 C   0  0  0  0  0  0  0  0  0  0  0  0
  -20.9125  -13.8482   26.8347 C   0  0  0  0  0  0  0  0  0  0  0  0
  -24.5379  -12.0068   20.7248 C   0  0  0  0  0  0  0  0  0  0  0  0
  -25.4170  -11.8473   18.7156 C   0  0  0  0  0  0  0  0  0  0  0  0
  -22.9247  -11.6589   18.7521 C   0  0  0  0  0  0  0  0  0  0  0  0
  -20.6851  -28.4809   21.4131 C   0  0  0  0  0  0  0  0  0  0  0  0
  -23.5917  -28.8067   22.3382 C   0  0  0  0  0  0  0  0  0  0  0  0
  -26.4647  -29.5885   24.0030 C   0  0  0  0  0  0  0  0  0  0  0  0
  -30.7165  -14.2843   20.0122 C   0  0  0  0  0  0  0  0  0  0  0  0
  -17.1485  -29.7944   24.8519 C   0  0  0  0  0  0  0  0  0  0  0  0
  -21.3508  -26.1958   20.7048 C   0  0  0  0  0  0  0  0  0  0  0  0
  -23.6295  -27.7261   20.0379 C   0  0  0  0  0  0  0  0  0  0  0  0
  -18.6004  -30.1781   24.5778 C   0  0  0  0  0  0  0  0  0  0  0  0
  -30.0511  -10.8429   19.3864 C   0  0  0  0  0  0  0  0  0  0  0  0
  -28.9842  -20.9142   17.8464 C   0  0  0  0  0  0  0  0  0  0  0  0
  -29.2968  -21.3230   20.3280 C   0  0  0  0  0  0  0  0  0  0  0  0
  -18.7936  -30.5175   23.1033 C   0  0  0  0  0  0  0  0  0  0  0  0
  -28.5312  -10.7358   19.5291 C   0  0  0  0  0  0  0  0  0  0  0  0
  -27.9855  -22.0732   17.7832 C   0  0  0  0  0  0  0  0  0  0  0  0
  -28.2955  -22.4791   20.2620 C   0  0  0  0  0  0  0  0  0  0  0  0
  -30.6468  -11.8291   20.3895 C   0  0  0  0  0  0  0  0  0  0  0  0
  -28.5157  -13.0572   20.5280 C   0  0  0  0  0  0  0  0  0  0  0  0
  -29.0127  -20.2713   19.2428 C   0  0  0  0  0  0  0  0  0  0  0  0
  -18.4794  -29.3090   22.2132 C   0  0  1  0  0  0  0  0  0  0  0  0
  -21.7014  -27.3939   21.6052 C   0  0  1  0  0  0  0  0  0  0  0  0
  -27.8627  -12.1241   19.4952 C   0  0  2  0  0  0  0  0  0  0  0  0
  -28.2454  -23.1276   18.8695 C   0  0  0  0  0  0  0  0  0  0  0  0
  -27.7351  -31.5450   24.9282 C   0  0  0  0  0  0  0  0  0  0  0  0
  -24.4668  -29.5679   19.5171 C   0  0  0  0  0  0  0  0  0  0  0  0
  -26.3841  -30.8222   20.5266 C   0  0  0  0  0  0  0  0  0  0  0  0
  -24.0405  -31.5079   21.0366 C   0  0  0  0  0  0  0  0  0  0  0  0
  -26.3216  -28.5254   26.7613 C   0  0  0  0  0  0  0  0  0  0  0  0
  -29.8171  -24.7318   19.5620 C   0  0  0  0  0  0  0  0  0  0  0  0
  -27.1750  -24.2193   18.8199 C   0  0  0  0  0  0  0  0  0  1  0  0
  -24.9559  -29.3779   22.0450 C   0  0  1  0  0  0  0  0  0  0  0  0
  -26.7179  -30.4539   25.2243 C   0  0  2  0  0  0  0  0  0  0  0  0
  -24.9582  -30.2913   20.7868 C   0  0  0  0  0  0  0  0  0  0  0  0
  -25.8528  -12.1308   20.9240 N   0  0  0  0  0  0  0  0  0  0  0  0
  -26.3602  -12.0295   19.6837 N   0  0  0  0  0  0  0  0  0  0  0  0
  -23.0045  -28.0251   21.3358 N   0  0  0  0  0  0  0  0  0  0  0  0
  -29.9673  -13.1231   20.2971 N   0  0  0  0  0  0  0  0  0  0  0  0
  -25.7542  -11.7263   17.4140 N   0  0  0  0  0  0  0  0  0  0  0  0
  -21.7859  -11.6634   19.5692 N   0  0  0  0  0  0  0  0  0  0  0  0
  -29.9583  -15.4507   19.9165 N   0  0  0  0  0  0  0  0  0  0  0  0
  -19.5784  -28.3675   22.2328 N   0  0  0  0  0  0  0  0  0  0  0  0
  -25.3909  -30.0442   23.2679 N   0  0  0  0  0  0  0  0  0  0  0  0
  -27.2332  -29.6238   26.3496 N   0  3  0  0  0  0  0  0  0  0  0  0
  -22.7926  -11.4920   17.5159 O   0  0  0  0  0  0  0  0  0  0  0  0
  -20.8894  -29.3594   20.5836 O   0  0  0  0  0  0  0  0  0  0  0  0
  -23.0564  -29.0501   23.4233 O   0  0  0  0  0  0  0  0  0  0  0  0
  -27.1532  -28.6087   23.7266 O   0  0  0  0  0  0  0  0  0  0  0  0
  -31.9370  -14.2423   19.8370 O   0  0  0  0  0  0  0  0  0  0  0  0
  -21.0101  -12.2262   25.0575 O   0  0  0  0  0  0  0  0  0  0  0  0
  -25.9082  -23.6166   18.5584 O   0  0  0  0  0  0  0  0  0  1  0  0
  -29.5081  -23.7419   18.5952 O   0  0  0  0  0  0  0  0  0  0  0  0
  -22.9400  -14.1853   29.8368 F   0  0  0  0  0  0  0  0  0  0  0  0
  -19.8830  -14.4600   26.2333 F   0  0  0  0  0  0  0  0  0  0  0  0
  1  2  1  0  0  0  0
  1  6  2  0  0  0  0
  2  7  2  0  0  0  0
  3  8  2  0  0  0  0
  3 10  1  0  0  0  0
  4 11  2  0  0  0  0
  4 19  1  0  0  0  0
  5 12  1  0  0  0  0
  5 19  2  0  0  0  0
  6 22  1  0  0  0  0
  7 24  1  0  0  0  0
  8 21  1  0  0  0  0
  9 13  2  0  0  0  0
  9 23  1  0  0  0  0
 10 26  2  0  0  0  0
 11 27  1  0  0  0  0
 12 27  2  0  0  0  0
 13 28  1  0  0  0  0
 14 15  2  0  0  0  0
 14 29  1  0  0  0  0
 15 30  1  0  0  0  0
 16 21  2  0  0  0  0
 16 26  1  0  0  0  0
 17 25  1  0  0  0  0
 17 28  2  0  0  0  0
 18 30  2  0  0  0  0
 18 31  1  0  0  0  0
 19 32  1  0  0  0  0
 20 32  1  0  0  0  0
 20 33  2  0  0  0  0
 20 34  1  0  0  0  0
 21 52  1  0  0  0  0
 22 24  2  0  0  0  0
 22 39  1  0  0  0  0
 23 25  2  0  0  0  0
 23 40  1  0  0  0  0
 24 53  1  0  0  0  0
 25 41  1  0  0  0  0
 26 73  1  0  0  0  0
 27 82  1  0  0  0  0
 28 83  1  0  0  0  0
 29 31  2  0  0  0  0
 29 82  1  0  0  0  0
 30 85  1  0  0  0  0
 31 86  1  0  0  0  0
 32 67  2  0  0  0  0
 33 68  1  0  0  0  0
 33 71  1  0  0  0  0
 34 72  1  0  0  0  0
 34 77  2  0  0  0  0
 35 54  1  0  0  0  0
 35 74  1  0  0  0  0
 35 78  2  0  0  0  0
 36 64  1  0  0  0  0
 36 69  1  0  0  0  0
 36 79  2  0  0  0  0
 37 65  1  0  0  0  0
 37 75  1  0  0  0  0
 37 80  2  0  0  0  0
 38 70  1  0  0  0  0
 38 73  1  0  0  0  0
 38 81  2  0  0  0  0
 39 42  1  0  0  0  0
 40 54  1  0  0  0  0
 41 69  1  0  0  0  0
 42 46  1  0  0  0  0
 43 47  1  0  0  0  0
 43 50  1  0  0  0  0
 44 48  1  0  0  0  0
 44 52  1  0  0  0  0
 45 49  1  0  0  0  0
 45 52  1  0  0  0  0
 46 53  1  0  0  0  0
 47 55  1  0  0  0  0
 48 56  1  0  0  0  0
 49 56  1  0  0  0  0
 50 70  1  0  0  0  0
 51 55  1  0  0  0  0
 51 70  1  0  0  0  0
 53 74  1  0  0  0  0
 54 69  1  0  0  0  0
 55 68  1  0  0  0  0
 56 63  1  0  0  0  0
 56 84  1  0  0  0  0
 57 65  1  0  0  0  0
 58 66  1  0  0  0  0
 59 66  1  0  0  0  0
 60 66  1  0  0  0  0
 61 76  1  0  0  0  0
 62 84  1  0  0  0  0
 63 83  1  0  0  0  0
 64 66  1  0  0  0  0
 64 75  1  0  0  0  0
 65 76  1  0  0  0  0
 67 68  1  0  0  0  0
M  CHG  1  76   1
M  ISO  4  38 100  63 101  73 100  83 101
M  END
> <Batch ID>
0158

> <Smiles>
CNC(C)C(=O)NC(C(=O)N1Cc2cc([101O:1][101CH2:1]C3(OC)CCC(c4cccc([100NH:0][100C:0](=O)N5CCCC(n6nc(-c7ccc(Oc8ccc(F)cc8F)cc7)c(C(N)=O)c6N)C5)c4)CC3)ccc2CC1C(=O)NC1CCCc2ccccc21)C(C)(C)C

> <Shape>
0.273

> <Color>
0.087

> <Negative vol penalty>
0.000

$$$$

  -OEChem-04052303443D

 85 94  0     1  0  0  0  0  0999 V2000
  -25.6395  -36.6747   16.7058 C   0  0  0  0  0  0  0  0  0  0  0  0
  -26.0107  -35.3429   16.5505 C   0  0  0  0  0  0  0  0  0  0  0  0
  -23.3812  -14.3617   23.9136 C   0  0  0  0  0  0  0  0  0  0  0  0
  -24.4471  -12.2394   24.3572 C   0  0  0  0  0  0  0  0  0  0  0  0
  -25.6344  -37.2523   17.9748 C   0  0  0  0  0  0  0  0  0  0  0  0
  -26.3780  -34.5883   17.6640 C   0  0  0  0  0  0  0  0  0  0  0  0
  -25.3384  -28.6219   18.5735 C   0  0  0  0  0  0  0  0  0  0  0  0
  -22.8159  -14.3443   25.1887 C   0  0  0  0  0  0  0  0  0  0  0  0
  -23.8819  -12.2220   25.6323 C   0  0  0  0  0  0  0  0  0  0  0  0
  -26.1400  -27.4937   18.4047 C   0  0  0  0  0  0  0  0  0  0  0  0
  -23.7994  -14.9908   28.3585 C   0  0  0  0  0  0  0  0  0  0  0  0
  -23.8526  -16.1665   29.1072 C   0  0  0  0  0  0  0  0  0  0  0  0
  -26.7203  -27.5634   20.7452 C   0  0  0  0  0  0  0  0  0  0  0  0
  -29.9912  -18.7787   20.3902 C   0  0  0  0  0  0  0  0  0  0  0  0
  -32.0121  -17.7739   19.5589 C   0  0  0  0  0  0  0  0  0  0  0  0
  -21.4391  -16.2105   29.2094 C   0  0  0  0  0  0  0  0  0  0  0  0
  -24.1968  -13.3092   23.4979 C   0  0  0  0  0  0  0  0  0  0  0  0
  -24.0992  -13.3648   20.9493 C   0  0  0  0  0  0  0  0  0  0  0  0
  -25.9925  -36.5016   19.1056 C   0  0  0  0  0  0  0  0  0  0  0  0
  -25.2302  -29.2368   19.8291 C   0  0  0  0  0  0  0  0  0  0  0  0
  -26.3790  -35.1567   18.9491 C   0  0  0  0  0  0  0  0  0  0  0  0
  -25.9147  -28.6978   20.9278 C   0  0  0  0  0  0  0  0  0  0  0  0
  -30.7359  -17.6423   20.0951 C   0  0  0  0  0  0  0  0  0  0  0  0
  -23.0663  -13.2745   26.0480 C   0  0  0  0  0  0  0  0  0  0  0  0
  -26.8334  -26.9660   19.4900 C   0  0  0  0  0  0  0  0  0  0  0  0
  -22.5661  -14.4250   28.0351 C   0  0  0  0  0  0  0  0  0  0  0  0
  -22.6724  -16.7763   29.5327 C   0  0  0  0  0  0  0  0  0  0  0  0
  -21.3860  -15.0348   28.4606 C   0  0  0  0  0  0  0  0  0  0  0  0
  -24.7805  -13.3263   22.1807 C   0  0  0  0  0  0  0  0  0  0  0  0
  -30.5634  -20.0141   20.1324 C   0  0  0  0  0  0  0  0  0  0  0  0
  -32.4937  -19.0542   19.3382 C   0  0  0  0  0  0  0  0  0  0  0  0
  -25.0966  -13.3665   20.0050 C   0  0  0  0  0  0  0  0  0  0  0  0
  -22.6908  -13.3962   20.6830 C   0  0  0  0  0  0  0  0  0  0  0  0
  -25.9489  -32.1070   20.9905 C   0  0  0  0  0  0  0  0  0  0  0  0
  -24.4783  -30.9696   23.6487 C   0  0  0  0  0  0  0  0  0  0  0  0
  -23.5156  -28.2653   25.4945 C   0  0  0  0  0  0  0  0  0  0  0  0
  -30.8068  -15.1241   20.1018 C   0  0  0  0  0  0  0  0  0  0  0  0
  -26.0173  -37.1826   20.4511 C   0  0  0  0  0  0  0  0  0  0  0  0
  -24.3403  -30.4373   20.0003 C   0  0  0  0  0  0  0  0  0  0  0  0
  -25.8161  -29.3085   22.3010 C   0  0  0  0  0  0  0  0  0  0  0  0
  -26.0593  -36.2090   21.6260 C   0  0  0  0  0  0  0  0  0  0  0  0
  -29.5926  -11.8735   19.3041 C   0  0  0  0  0  0  0  0  0  0  0  0
  -27.1027  -35.1232   21.3824 C   0  0  0  0  0  0  0  0  0  0  0  0
  -28.9581  -21.7597   19.2422 C   0  0  0  0  0  0  0  0  0  0  0  0
  -28.1814  -23.0352   19.5685 C   0  0  0  0  0  0  0  0  0  0  0  0
  -28.1568  -11.8827   19.8337 C   0  0  0  0  0  0  0  0  0  0  0  0
  -30.5377  -12.6563   20.2138 C   0  0  0  0  0  0  0  0  0  0  0  0
  -28.6761  -14.0375   21.0479 C   0  0  0  0  0  0  0  0  0  0  0  0
  -29.9201  -23.6433   21.2916 C   0  0  0  0  0  0  0  0  0  0  0  0
  -26.7600  -34.2985   20.1359 C   0  0  1  0  0  0  0  0  0  0  0  0
  -29.7822  -21.2728   20.4418 C   0  0  2  0  0  0  0  0  0  0  0  0
  -24.7097  -31.2868   21.2125 C   0  0  1  0  0  0  0  0  0  0  0  0
  -29.1055  -24.1391   20.0983 C   0  0  2  0  0  0  0  0  0  0  0  0
  -27.6749  -13.3163   20.1307 C   0  0  2  0  0  0  0  0  0  0  0  0
  -22.3652  -27.6525   27.6389 C   0  0  0  0  0  0  0  0  0  0  0  0
  -26.9894  -31.7246   25.2089 C   0  0  0  0  0  0  0  0  0  0  0  0
  -26.1852  -30.2624   27.0753 C   0  0  0  0  0  0  0  0  0  0  0  0
  -24.8400  -32.2438   26.3771 C   0  0  0  0  0  0  0  0  0  0  0  0
  -21.3690  -26.8150   24.0637 C   0  0  0  0  0  0  0  0  0  0  0  0
  -28.2990  -25.3778   20.4828 C   0  0  0  0  0  0  0  0  0  1  0  0
  -24.9242  -30.2114   24.8756 C   0  0  1  0  0  0  0  0  0  0  0  0
  -22.1928  -27.9128   26.1505 C   0  0  2  0  0  0  0  0  0  0  0  0
  -25.7383  -31.1000   25.8581 C   0  0  0  0  0  0  0  0  0  0  0  0
  -26.1080  -13.3049   22.0350 N   0  0  0  0  0  0  0  0  0  0  0  0
  -31.7999  -20.1817   19.6122 N   0  0  0  0  0  0  0  0  0  0  0  0
  -26.2690  -13.3300   20.7010 N   0  0  0  0  0  0  0  0  0  0  0  0
  -24.9383  -30.4849   22.4162 N   0  0  0  0  0  0  0  0  0  0  0  0
  -30.0190  -14.0058   20.4475 N   0  0  0  0  0  0  0  0  0  0  0  0
  -33.7954  -19.1725   18.7907 N   0  0  0  0  0  0  0  0  0  0  0  0
  -25.0763  -13.3956   18.6555 N   0  0  0  0  0  0  0  0  0  0  0  0
  -22.0119  -12.1793   20.5328 N   0  0  0  0  0  0  0  0  0  0  0  0
  -30.1963  -16.3551   20.3394 N   0  0  0  0  0  0  0  0  0  0  0  0
  -25.7096  -33.3480   20.4317 N   0  0  0  0  0  0  0  0  0  0  0  0
  -23.7192  -29.6285   25.4557 N   0  0  0  0  0  0  0  0  0  0  0  0
  -30.6637  -22.4064   20.9033 N   0  3  0  0  0  0  0  0  0  0  0  0
  -21.6132  -26.6912   25.5238 N   0  3  0  0  0  0  0  0  0  0  0  0
  -22.0563  -14.4718   20.5648 O   0  0  0  0  0  0  0  0  0  0  0  0
  -27.0411  -31.6486   21.3045 O   0  0  0  0  0  0  0  0  0  0  0  0
  -23.7429  -31.9514   23.7787 O   0  0  0  0  0  0  0  0  0  0  0  0
  -24.2925  -27.4162   25.0633 O   0  0  0  0  0  0  0  0  0  0  0  0
  -31.9289  -14.9987   19.6046 O   0  0  0  0  0  0  0  0  0  0  0  0
  -22.5150  -13.2574   27.2924 O   0  0  0  0  0  0  0  0  0  0  0  0
  -27.6170  -25.8653   19.3280 O   0  0  0  0  0  0  0  0  0  1  0  0
  -22.7237  -17.9045   30.2530 F   0  0  0  0  0  0  0  0  0  0  0  0
  -20.1982  -14.4953   28.1541 F   0  0  0  0  0  0  0  0  0  0  0  0
  1  2  1  0  0  0  0
  1  5  2  0  0  0  0
  2  6  2  0  0  0  0
  3  8  2  0  0  0  0
  3 17  1  0  0  0  0
  4  9  1  0  0  0  0
  4 17  2  0  0  0  0
  5 19  1  0  0  0  0
  6 21  1  0  0  0  0
  7 10  2  0  0  0  0
  7 20  1  0  0  0  0
  8 24  1  0  0  0  0
  9 24  2  0  0  0  0
 10 25  1  0  0  0  0
 11 12  2  0  0  0  0
 11 26  1  0  0  0  0
 12 27  1  0  0  0  0
 13 22  1  0  0  0  0
 13 25  2  0  0  0  0
 14 23  2  0  0  0  0
 14 30  1  0  0  0  0
 15 23  1  0  0  0  0
 15 31  2  0  0  0  0
 16 27  2  0  0  0  0
 16 28  1  0  0  0  0
 17 29  1  0  0  0  0
 18 29  1  0  0  0  0
 18 32  2  0  0  0  0
 18 33  1  0  0  0  0
 19 21  2  0  0  0  0
 19 38  1  0  0  0  0
 20 22  2  0  0  0  0
 20 39  1  0  0  0  0
 21 50  1  0  0  0  0
 22 40  1  0  0  0  0
 23 72  1  0  0  0  0
 24 82  1  0  0  0  0
 25 83  1  0  0  0  0
 26 28  2  0  0  0  0
 26 82  1  0  0  0  0
 27 84  1  0  0  0  0
 28 85  1  0  0  0  0
 29 64  2  0  0  0  0
 30 51  1  0  0  0  0
 30 65  2  0  0  0  0
 31 65  1  0  0  0  0
 31 69  1  0  0  0  0
 32 66  1  0  0  0  0
 32 70  1  0  0  0  0
 33 71  1  0  0  0  0
 33 77  2  0  0  0  0
 34 52  1  0  0  0  0
 34 73  1  0  0  0  0
 34 78  2  0  0  0  0
 35 61  1  0  0  0  0
 35 67  1  0  0  0  0
 35 79  2  0  0  0  0
 36 62  1  0  0  0  0
 36 74  1  0  0  0  0
 36 80  2  0  0  0  0
 37 68  1  0  0  0  0
 37 72  1  0  0  0  0
 37 81  2  0  0  0  0
 38 41  1  0  0  0  0
 39 52  1  0  0  0  0
 40 67  1  0  0  0  0
 41 43  1  0  0  0  0
 42 46  1  0  0  0  0
 42 47  1  0  0  0  0
 43 50  1  0  0  0  0
 44 45  1  0  0  0  0
 44 51  1  0  0  0  0
 45 53  1  0  0  0  0
 46 54  1  0  0  0  0
 47 68  1  0  0  0  0
 48 54  1  0  0  0  0
 48 68  1  0  0  0  0
 49 53  1  0  0  0  0
 49 75  1  0  0  0  0
 50 73  1  0  0  0  0
 51 75  1  0  0  0  0
 52 67  1  0  0  0  0
 53 60  1  0  0  0  0
 54 66  1  0  0  0  0
 55 62  1  0  0  0  0
 56 63  1  0  0  0  0
 57 63  1  0  0  0  0
 58 63  1  0  0  0  0
 59 76  1  0  0  0  0
 60 83  1  0  0  0  0
 61 63  1  0  0  0  0
 61 74  1  0  0  0  0
 62 76  1  0  0  0  0
 64 66  1  0  0  0  0
M  CHG  2  75   1  76   1
M  ISO  4  37 100  60 101  72 100  83 101
M  END
> <Batch ID>
0158

> <Smiles>
CNC(C)C(=O)NC(C(=O)N1Cc2cc([101O:1][101CH2:1]C3CCC(c4cc([100NH:0][100C:0](=O)N5CCCC(n6nc(-c7ccc(Oc8ccc(F)cc8F)cc7)c(C(N)=O)c6N)C5)cc(N)n4)NC3)ccc2CC1C(=O)NC1CCCc2ccccc21)C(C)(C)C

> <Shape>
0.233

> <Color>
0.109

> <Negative vol penalty>
0.000

$$$$

  -OEChem-04052303443D

 85 94  0     1  0  0  0  0  0999 V2000
  -23.8386  -38.0387   22.6508 C   0  0  0  0  0  0  0  0  0  0  0  0
  -24.6209  -37.0462   23.2325 C   0  0  0  0  0  0  0  0  0  0  0  0
  -23.7096  -10.9364   23.4113 C   0  0  0  0  0  0  0  0  0  0  0  0
  -24.1739   -9.4547   21.5603 C   0  0  0  0  0  0  0  0  0  0  0  0
  -22.5707  -37.7278   22.1613 C   0  0  0  0  0  0  0  0  0  0  0  0
  -24.1353  -35.7425   23.3261 C   0  0  0  0  0  0  0  0  0  0  0  0
  -31.3220  -19.8364   19.5802 C   0  0  0  0  0  0  0  0  0  0  0  0
  -29.1853  -20.3433   20.5875 C   0  0  0  0  0  0  0  0  0  0  0  0
  -27.6631  -30.2441   20.2907 C   0  0  0  0  0  0  0  0  0  0  0  0
  -31.0400  -18.4732   19.6677 C   0  0  0  0  0  0  0  0  0  0  0  0
  -28.9032  -18.9801   20.6750 C   0  0  0  0  0  0  0  0  0  0  0  0
  -23.1502   -9.8741   24.1214 C   0  0  0  0  0  0  0  0  0  0  0  0
  -23.6146   -8.3923   22.2704 C   0  0  0  0  0  0  0  0  0  0  0  0
  -28.3890  -29.1126   19.9181 C   0  0  0  0  0  0  0  0  0  0  0  0
  -20.2300   -8.1728   24.1679 C   0  0  0  0  0  0  0  0  0  0  0  0
  -19.0195   -8.3982   24.8232 C   0  0  0  0  0  0  0  0  0  0  0  0
  -26.5759  -27.6931   20.6571 C   0  0  0  0  0  0  0  0  0  0  0  0
  -20.0609   -7.8540   26.9342 C   0  0  0  0  0  0  0  0  0  0  0  0
  -24.2214  -10.7267   22.1307 C   0  0  0  0  0  0  0  0  0  0  0  0
  -24.1611  -13.0184   21.0118 C   0  0  0  0  0  0  0  0  0  0  0  0
  -30.3948  -20.7715   20.0401 C   0  0  0  0  0  0  0  0  0  0  0  0
  -22.0731  -36.4175   22.2402 C   0  0  0  0  0  0  0  0  0  0  0  0
  -26.3831  -30.1050   20.8343 C   0  0  0  0  0  0  0  0  0  0  0  0
  -22.8589  -35.4141   22.8385 C   0  0  0  0  0  0  0  0  0  0  0  0
  -25.8391  -28.8235   21.0206 C   0  0  0  0  0  0  0  0  0  0  0  0
  -29.8305  -18.0450   20.2151 C   0  0  0  0  0  0  0  0  0  0  0  0
  -23.1027   -8.6021   23.5510 C   0  0  0  0  0  0  0  0  0  0  0  0
  -27.8468  -27.8402   20.1011 C   0  0  0  0  0  0  0  0  0  0  0  0
  -21.3560   -7.7879   24.8957 C   0  0  0  0  0  0  0  0  0  0  0  0
  -18.9349   -8.2388   26.2063 C   0  0  0  0  0  0  0  0  0  0  0  0
  -21.2714   -7.6285   26.2788 C   0  0  0  0  0  0  0  0  0  0  0  0
  -24.7987  -11.8238   21.3965 C   0  0  0  0  0  0  0  0  0  0  0  0
  -25.1305  -13.7252   20.3432 C   0  0  0  0  0  0  0  0  0  0  0  0
  -22.8129  -13.4506   21.2386 C   0  0  0  0  0  0  0  0  0  0  0  0
  -23.3325  -31.8046   22.2059 C   0  0  0  0  0  0  0  0  0  0  0  0
  -22.3494  -29.4769   20.4663 C   0  0  0  0  0  0  0  0  0  0  0  0
  -21.6747  -27.0809   18.1337 C   0  0  0  0  0  0  0  0  0  0  0  0
  -30.3536  -15.6017   19.8942 C   0  0  0  0  0  0  0  0  0  0  0  0
  -29.3980  -26.1932   20.7286 C   0  0  0  0  0  0  0  0  0  1  0  0
  -20.6776  -36.1396   21.7400 C   0  0  0  0  0  0  0  0  0  0  0  0
  -25.5901  -31.2931   21.3068 C   0  0  0  0  0  0  0  0  0  0  0  0
  -24.4726  -28.7204   21.6412 C   0  0  0  0  0  0  0  0  0  0  0  0
  -20.3871  -34.6545   21.5394 C   0  0  0  0  0  0  0  0  0  0  0  0
  -29.7074  -12.3058   18.7124 C   0  0  0  0  0  0  0  0  0  0  0  0
  -20.8612  -33.8500   22.7455 C   0  0  0  0  0  0  0  0  0  0  0  0
  -28.3203  -11.9849   19.2737 C   0  0  0  0  0  0  0  0  0  0  0  0
  -29.7028  -22.9931   19.0360 C   0  0  0  0  0  0  0  0  0  0  0  0
  -30.7680  -22.9200   21.3312 C   0  0  0  0  0  0  0  0  0  0  0  0
  -30.5386  -13.1319   19.6924 C   0  0  0  0  0  0  0  0  0  0  0  0
  -30.0151  -24.4871   18.9664 C   0  0  0  0  0  0  0  0  0  0  0  0
  -31.0591  -24.4145   21.2139 C   0  0  0  0  0  0  0  0  0  0  0  0
  -28.5007  -14.0329   20.7434 C   0  0  0  0  0  0  0  0  0  0  0  0
  -30.7017  -22.2541   19.9449 C   0  0  0  0  0  0  0  0  0  0  0  0
  -22.3770  -33.9828   22.9359 C   0  0  1  0  0  0  0  0  0  0  0  0
  -24.0749  -31.1330   21.0882 C   0  0  1  0  0  0  0  0  0  0  0  0
  -27.6030  -13.2574   19.7654 C   0  0  2  0  0  0  0  0  0  0  0  0
  -19.7611  -25.9102   17.0090 C   0  0  0  0  0  0  0  0  0  0  0  0
  -21.8895  -27.8177   22.9842 C   0  0  0  0  0  0  0  0  0  0  0  0
  -20.7196  -26.1188   21.5653 C   0  0  0  0  0  0  0  0  0  0  0  0
  -19.8062  -28.4331   21.7449 C   0  0  0  0  0  0  0  0  0  0  0  0
  -22.4995  -28.0514   15.4623 C   0  0  0  0  0  0  0  0  0  0  0  0
  -21.9168  -28.0336   20.4115 C   0  0  1  0  0  0  0  0  0  0  0  0
  -20.7384  -27.0733   16.9389 C   0  0  2  0  0  0  0  0  0  0  0  0
  -21.1098  -27.6085   21.6707 C   0  0  0  0  0  0  0  0  0  0  0  0
  -26.0746  -11.7710   21.0047 N   0  0  0  0  0  0  0  0  0  0  0  0
  -26.2464  -12.9414   20.3668 N   0  0  0  0  0  0  0  0  0  0  0  0
  -23.5835  -29.7447   21.0712 N   0  0  0  0  0  0  0  0  0  0  0  0
  -29.7972  -14.3234   20.1113 N   0  0  0  0  0  0  0  0  0  0  0  0
  -30.1118  -25.0655   20.3101 N   0  0  0  0  0  0  0  0  0  0  0  0
  -25.1288  -14.9345   19.7432 N   0  0  0  0  0  0  0  0  0  0  0  0
  -21.9488  -12.6017   21.9435 N   0  0  0  0  0  0  0  0  0  0  0  0
  -29.5435  -16.6603   20.3039 N   0  0  0  0  0  0  0  0  0  0  0  0
  -23.0807  -33.1457   21.9881 N   0  0  0  0  0  0  0  0  0  0  0  0
  -21.1929  -27.8719   19.1552 N   0  0  0  0  0  0  0  0  0  0  0  0
  -21.5155  -26.9584   15.6725 N   0  3  0  0  0  0  0  0  0  0  0  0
  -22.3826  -14.5498   20.8142 O   0  0  0  0  0  0  0  0  0  0  0  0
  -23.0097  -31.1545   23.1932 O   0  0  0  0  0  0  0  0  0  0  0  0
  -21.6126  -30.3459   19.9917 O   0  0  0  0  0  0  0  0  0  0  0  0
  -22.7264  -26.4455   18.1598 O   0  0  0  0  0  0  0  0  0  0  0  0
  -31.4549  -15.7475   19.3576 O   0  0  0  0  0  0  0  0  0  0  0  0
  -29.4756  -26.6826   21.8549 O   0  0  0  0  0  0  0  0  0  0  0  0
  -22.5572   -7.5652   24.2437 O   0  0  0  0  0  0  0  0  0  0  0  0
  -28.5787  -26.7095   19.7208 O   0  0  0  0  0  0  0  0  0  1  0  0
  -17.7728   -8.4569   26.8357 F   0  0  0  0  0  0  0  0  0  0  0  0
  -22.3501   -7.2600   26.9835 F   0  0  0  0  0  0  0  0  0  0  0  0
  1  2  1  0  0  0  0
  1  5  2  0  0  0  0
  2  6  2  0  0  0  0
  3 12  2  0  0  0  0
  3 19  1  0  0  0  0
  4 13  1  0  0  0  0
  4 19  2  0  0  0  0
  5 22  1  0  0  0  0
  6 24  1  0  0  0  0
  7 10  2  0  0  0  0
  7 21  1  0  0  0  0
  8 11  1  0  0  0  0
  8 21  2  0  0  0  0
  9 14  2  0  0  0  0
  9 23  1  0  0  0  0
 10 26  1  0  0  0  0
 11 26  2  0  0  0  0
 12 27  1  0  0  0  0
 13 27  2  0  0  0  0
 14 28  1  0  0  0  0
 15 16  2  0  0  0  0
 15 29  1  0  0  0  0
 16 30  1  0  0  0  0
 17 25  1  0  0  0  0
 17 28  2  0  0  0  0
 18 30  2  0  0  0  0
 18 31  1  0  0  0  0
 19 32  1  0  0  0  0
 20 32  1  0  0  0  0
 20 33  2  0  0  0  0
 20 34  1  0  0  0  0
 21 53  1  0  0  0  0
 22 24  2  0  0  0  0
 22 40  1  0  0  0  0
 23 25  2  0  0  0  0
 23 41  1  0  0  0  0
 24 54  1  0  0  0  0
 25 42  1  0  0  0  0
 26 72  1  0  0  0  0
 27 82  1  0  0  0  0
 28 83  1  0  0  0  0
 29 31  2  0  0  0  0
 29 82  1  0  0  0  0
 30 84  1  0  0  0  0
 31 85  1  0  0  0  0
 32 65  2  0  0  0  0
 33 66  1  0  0  0  0
 33 70  1  0  0  0  0
 34 71  1  0  0  0  0
 34 76  2  0  0  0  0
 35 55  1  0  0  0  0
 35 73  1  0  0  0  0
 35 77  2  0  0  0  0
 36 62  1  0  0  0  0
 36 67  1  0  0  0  0
 36 78  2  0  0  0  0
 37 63  1  0  0  0  0
 37 74  1  0  0  0  0
 37 79  2  0  0  0  0
 38 68  1  0  0  0  0
 38 72  1  0  0  0  0
 38 80  2  0  0  0  0
 39 69  1  0  0  0  0
 39 81  2  0  0  0  0
 39 83  1  0  0  0  0
 40 43  1  0  0  0  0
 41 55  1  0  0  0  0
 42 67  1  0  0  0  0
 43 45  1  0  0  0  0
 44 46  1  0  0  0  0
 44 49  1  0  0  0  0
 45 54  1  0  0  0  0
 46 56  1  0  0  0  0
 47 50  1  0  0  0  0
 47 53  1  0  0  0  0
 48 51  1  0  0  0  0
 48 53  1  0  0  0  0
 49 68  1  0  0  0  0
 50 69  1  0  0  0  0
 51 69  1  0  0  0  0
 52 56  1  0  0  0  0
 52 68  1  0  0  0  0
 54 73  1  0  0  0  0
 55 67  1  0  0  0  0
 56 66  1  0  0  0  0
 57 63  1  0  0  0  0
 58 64  1  0  0  0  0
 59 64  1  0  0  0  0
 60 64  1  0  0  0  0
 61 75  1  0  0  0  0
 62 64  1  0  0  0  0
 62 74  1  0  0  0  0
 63 75  1  0  0  0  0
 65 66  1  0  0  0  0
M  CHG  1  75   1
M  ISO  4  38 100  39 101  72 100  83 101
M  END
> <Batch ID>
0158

> <Smiles>
CNC(C)C(=O)NC(C(=O)N1Cc2cc([101O:1][101C:1](=O)N3CCC(c4ccc([100NH:0][100C:0](=O)N5CCCC(n6nc(-c7ccc(Oc8ccc(F)cc8F)cc7)c(C(N)=O)c6N)C5)cc4)CC3)ccc2CC1C(=O)NC1CCCc2ccccc21)C(C)(C)C

> <Shape>
0.319

> <Color>
0.150

> <Negative vol penalty>
0.000

$$$$

  -OEChem-04052303443D

 82 90  0     1  0  0  0  0  0999 V2000
  -20.7691  -22.4071   18.4850 C   0  0  0  0  0  0  0  0  0  0  0  0
  -21.5142  -21.6973   19.4212 C   0  0  0  0  0  0  0  0  0  0  0  0
  -23.0781   -9.8645   19.9425 C   0  0  0  0  0  0  0  0  0  0  0  0
  -23.8327   -9.8785   22.2376 C   0  0  0  0  0  0  0  0  0  0  0  0
  -21.2891  -23.5705   17.9191 C   0  0  0  0  0  0  0  0  0  0  0  0
  -22.7802  -22.1499   19.7913 C   0  0  0  0  0  0  0  0  0  0  0  0
  -25.3737  -21.7158   25.3221 C   0  0  0  0  0  0  0  0  0  0  0  0
  -22.3341   -8.7118   20.1941 C   0  0  0  0  0  0  0  0  0  0  0  0
  -23.0887   -8.7258   22.4892 C   0  0  0  0  0  0  0  0  0  0  0  0
  -26.2950  -20.8171   25.8582 C   0  0  0  0  0  0  0  0  0  0  0  0
  -19.8594   -7.9286   23.0867 C   0  0  0  0  0  0  0  0  0  0  0  0
  -19.0998   -7.8918   24.2559 C   0  0  0  0  0  0  0  0  0  0  0  0
  -28.0834  -22.3510   25.3405 C   0  0  0  0  0  0  0  0  0  0  0  0
  -20.3402   -5.9570   25.0009 C   0  0  0  0  0  0  0  0  0  0  0  0
  -30.0370  -17.9172   22.7201 C   0  0  0  0  0  0  0  0  0  0  0  0
  -23.8275  -10.4478   20.9642 C   0  0  0  0  0  0  0  0  0  0  0  0
  -24.1687  -12.9727   20.8375 C   0  0  0  0  0  0  0  0  0  0  0  0
  -22.5580  -24.0428   18.2896 C   0  0  0  0  0  0  0  0  0  0  0  0
  -25.8022  -22.9362   24.7805 C   0  0  0  0  0  0  0  0  0  0  0  0
  -23.3181  -23.3199   19.2288 C   0  0  0  0  0  0  0  0  0  0  0  0
  -27.1653  -23.2646   24.8005 C   0  0  0  0  0  0  0  0  0  0  0  0
  -22.3393   -8.1424   21.4675 C   0  0  0  0  0  0  0  0  0  0  0  0
  -27.6504  -21.1334   25.8648 C   0  0  0  0  0  0  0  0  0  0  0  0
  -20.8594   -6.9795   22.8744 C   0  0  0  0  0  0  0  0  0  0  0  0
  -19.3401   -6.9060   25.2131 C   0  0  0  0  0  0  0  0  0  0  0  0
  -21.0998   -5.9937   23.8316 C   0  0  0  0  0  0  0  0  0  0  0  0
  -24.5968  -11.6382   20.7047 C   0  0  0  0  0  0  0  0  0  0  0  0
  -31.0482  -18.8909   22.7915 C   0  0  0  0  0  0  0  0  0  0  0  0
  -25.2614  -13.7215   20.4746 C   0  0  0  0  0  0  0  0  0  0  0  0
  -30.5804  -16.9408   21.9279 C   0  0  0  0  0  0  0  0  0  0  0  0
  -22.8971  -13.4893   21.2520 C   0  0  0  0  0  0  0  0  0  0  0  0
  -31.0148  -20.1898   23.5257 C   0  0  0  0  0  0  0  0  0  0  0  0
  -25.6836  -24.2772   21.9010 C   0  0  0  0  0  0  0  0  0  0  0  0
  -26.8964  -26.8418   23.4740 C   0  0  0  0  0  0  0  0  0  0  0  0
  -28.6424  -28.0387   26.1510 C   0  0  0  0  0  0  0  0  0  0  0  0
  -30.7269  -14.7695   20.6589 C   0  0  0  0  0  0  0  0  0  0  0  0
  -23.0976  -25.2794   17.6155 C   0  0  0  0  0  0  0  0  0  0  0  0
  -24.7930  -23.9063   24.2303 C   0  0  0  0  0  0  0  0  0  0  0  0
  -27.6745  -24.5706   24.2497 C   0  0  0  0  0  0  0  0  0  0  0  0
  -24.2915  -25.8961   18.3397 C   0  0  0  0  0  0  0  0  0  0  0  0
  -29.6187  -12.3485   18.2950 C   0  0  0  0  0  0  0  0  0  0  0  0
  -25.3028  -24.8178   18.7159 C   0  0  0  0  0  0  0  0  0  0  0  0
  -28.1782  -12.0576   18.7221 C   0  0  0  0  0  0  0  0  0  0  0  0
  -30.5310  -12.5811   19.4981 C   0  0  0  0  0  0  0  0  0  0  0  0
  -28.6206  -13.3088   20.8729 C   0  0  0  0  0  0  0  0  0  0  0  0
  -24.6850  -23.7924   19.6742 C   0  0  1  0  0  0  0  0  0  0  0  0
  -25.3954  -24.8972   23.2390 C   0  0  1  0  0  0  0  0  0  0  0  0
  -27.6506  -13.1319   19.6934 C   0  0  2  0  0  0  0  0  0  0  0  0
  -29.5060  -30.1756   27.1436 C   0  0  0  0  0  0  0  0  0  0  0  0
  -29.1333  -26.8986   21.3996 C   0  0  0  0  0  0  0  0  0  0  0  0
  -30.4319  -28.3823   22.9426 C   0  0  0  0  0  0  0  0  0  0  0  0
  -28.2392  -29.1471   22.0315 C   0  0  0  0  0  0  0  0  0  0  0  0
  -30.6949  -21.2725   26.6244 C   0  0  0  0  0  0  0  0  0  0  0  0
  -30.4510  -18.8612   26.0071 C   0  0  0  0  0  0  0  0  0  0  0  0
  -27.0343  -27.6821   28.6098 C   0  0  0  0  0  0  0  0  0  0  0  0
  -29.7815  -20.6055   24.3258 C   0  0  0  0  0  0  0  0  0  0  0  0
  -28.2846  -27.3388   23.7980 C   0  0  1  0  0  0  0  0  0  0  0  0
  -28.3573  -29.1795   27.1110 C   0  0  2  0  0  0  0  0  0  0  0  0
  -29.0132  -27.9162   22.5516 C   0  0  0  0  0  0  0  0  0  0  0  0
  -29.8646  -20.2664   25.8275 C   0  0  0  0  0  0  0  0  0  1  0  0
  -25.8626  -11.5416   20.2897 N   0  0  0  0  0  0  0  0  0  0  0  0
  -32.1355  -18.5449   22.0967 N   0  0  0  0  0  0  0  0  0  0  0  0
  -32.0327  -20.9907   23.4652 N   0  0  0  0  0  0  0  0  0  0  0  0
  -26.2393  -12.8249   20.1584 N   0  0  0  0  0  0  0  0  0  0  0  0
  -26.6494  -25.4832   23.7170 N   0  0  0  0  0  0  0  0  0  0  0  0
  -29.9696  -13.6142   20.3712 N   0  0  0  0  0  0  0  0  0  0  0  0
  -25.4715  -15.0528   20.3982 N   0  0  0  0  0  0  0  0  0  0  0  0
  -21.8847  -12.5807   21.5896 N   0  0  0  0  0  0  0  0  0  0  0  0
  -30.0773  -15.6967   21.4732 N   0  0  0  0  0  0  0  0  0  0  0  0
  -24.6228  -24.3288   21.0169 N   0  0  0  0  0  0  0  0  0  0  0  0
  -28.1324  -28.2890   24.8946 N   0  0  0  0  0  0  0  0  0  0  0  0
  -28.1500  -28.6558   28.4908 N   0  3  0  0  0  0  0  0  0  0  0  0
  -22.6602  -14.7200   21.3052 O   0  0  0  0  0  0  0  0  0  0  0  0
  -26.7870  -23.7896   21.6861 O   0  0  0  0  0  0  0  0  0  0  0  0
  -26.0599  -27.6315   23.0288 O   0  0  0  0  0  0  0  0  0  0  0  0
  -29.2593  -27.0284   26.4815 O   0  0  0  0  0  0  0  0  0  0  0  0
  -31.8570  -14.9373   20.1934 O   0  0  0  0  0  0  0  0  0  0  0  0
  -31.8326  -17.3038   21.5495 O   0  0  0  0  0  0  0  0  0  0  0  0
  -21.6132   -7.0178   21.7134 O   0  0  0  0  0  0  0  0  0  0  0  0
  -28.5518  -20.2577   26.3868 O   0  0  0  0  0  0  0  0  0  1  0  0
  -18.6116   -6.8718   26.3365 F   0  0  0  0  0  0  0  0  0  0  0  0
  -22.0599   -5.0800   23.6339 F   0  0  0  0  0  0  0  0  0  0  0  0
  1  2  1  0  0  0  0
  1  5  2  0  0  0  0
  2  6  2  0  0  0  0
  3  8  2  0  0  0  0
  3 16  1  0  0  0  0
  4  9  1  0  0  0  0
  4 16  2  0  0  0  0
  5 18  1  0  0  0  0
  6 20  1  0  0  0  0
  7 10  2  0  0  0  0
  7 19  1  0  0  0  0
  8 22  1  0  0  0  0
  9 22  2  0  0  0  0
 10 23  1  0  0  0  0
 11 12  2  0  0  0  0
 11 24  1  0  0  0  0
 12 25  1  0  0  0  0
 13 21  1  0  0  0  0
 13 23  2  0  0  0  0
 14 25  2  0  0  0  0
 14 26  1  0  0  0  0
 15 28  1  0  0  0  0
 15 30  2  0  0  0  0
 16 27  1  0  0  0  0
 17 27  1  0  0  0  0
 17 29  2  0  0  0  0
 17 31  1  0  0  0  0
 18 20  2  0  0  0  0
 18 37  1  0  0  0  0
 19 21  2  0  0  0  0
 19 38  1  0  0  0  0
 20 46  1  0  0  0  0
 21 39  1  0  0  0  0
 22 79  1  0  0  0  0
 23 80  1  0  0  0  0
 24 26  2  0  0  0  0
 24 79  1  0  0  0  0
 25 81  1  0  0  0  0
 26 82  1  0  0  0  0
 27 61  2  0  0  0  0
 28 32  1  0  0  0  0
 28 62  2  0  0  0  0
 29 64  1  0  0  0  0
 29 67  1  0  0  0  0
 30 69  1  0  0  0  0
 30 78  1  0  0  0  0
 31 68  1  0  0  0  0
 31 73  2  0  0  0  0
 32 56  1  0  0  0  0
 32 63  2  0  0  0  0
 33 47  1  0  0  0  0
 33 70  1  0  0  0  0
 33 74  2  0  0  0  0
 34 57  1  0  0  0  0
 34 65  1  0  0  0  0
 34 75  2  0  0  0  0
 35 58  1  0  0  0  0
 35 71  1  0  0  0  0
 35 76  2  0  0  0  0
 36 66  1  0  0  0  0
 36 69  1  0  0  0  0
 36 77  2  0  0  0  0
 37 40  1  0  0  0  0
 38 47  1  0  0  0  0
 39 65  1  0  0  0  0
 40 42  1  0  0  0  0
 41 43  1  0  0  0  0
 41 44  1  0  0  0  0
 42 46  1  0  0  0  0
 43 48  1  0  0  0  0
 44 66  1  0  0  0  0
 45 48  1  0  0  0  0
 45 66  1  0  0  0  0
 46 70  1  0  0  0  0
 47 65  1  0  0  0  0
 48 64  1  0  0  0  0
 49 58  1  0  0  0  0
 50 59  1  0  0  0  0
 51 59  1  0  0  0  0
 52 59  1  0  0  0  0
 53 60  1  0  0  0  0
 54 60  1  0  0  0  0
 55 72  1  0  0  0  0
 56 60  1  0  0  0  0
 57 59  1  0  0  0  0
 57 71  1  0  0  0  0
 58 72  1  0  0  0  0
 60 80  1  0  0  0  0
 61 64  1  0  0  0  0
 62 78  1  0  0  0  0
M  CHG  1  72   1
M  ISO  4  36 100  60 101  69 100  80 101
M  END
> <Batch ID>
0158

> <Smiles>
CNC(C)C(=O)NC(C(=O)N1Cc2cc([101O:1][101C:1](C)(C)CC(=N)c3cc([100NH:0][100C:0](=O)N4CCCC(n5nc(-c6ccc(Oc7ccc(F)cc7F)cc6)c(C(N)=O)c5N)C4)on3)ccc2CC1C(=O)NC1CCCc2ccccc21)C(C)(C)C

> <Shape>
0.190

> <Color>
0.184

> <Negative vol penalty>
0.000

$$$$

  -OEChem-04052303443D

 87 96  0     1  0  0  0  0  0999 V2000
  -26.0013  -34.2711   25.4511 C   0  0  0  0  0  0  0  0  0  0  0  0
  -26.9335  -33.3162   25.0579 C   0  0  0  0  0  0  0  0  0  0  0  0
  -23.1290  -12.0843   23.1642 C   0  0  0  0  0  0  0  0  0  0  0  0
  -24.5809  -10.1561   23.2692 C   0  0  0  0  0  0  0  0  0  0  0  0
  -24.6388  -34.0178   25.2981 C   0  0  0  0  0  0  0  0  0  0  0  0
  -26.5037  -32.1070   24.5125 C   0  0  0  0  0  0  0  0  0  0  0  0
  -29.2791  -28.8520   20.1298 C   0  0  0  0  0  0  0  0  0  0  0  0
  -22.5542  -11.7178   24.3811 C   0  0  0  0  0  0  0  0  0  0  0  0
  -24.0061   -9.7896   24.4861 C   0  0  0  0  0  0  0  0  0  0  0  0
  -30.1189  -27.7401   20.1767 C   0  0  0  0  0  0  0  0  0  0  0  0
  -20.2614   -9.4917   25.4820 C   0  0  0  0  0  0  0  0  0  0  0  0
  -18.8712   -9.5442   25.5831 C   0  0  0  0  0  0  0  0  0  0  0  0
  -28.2226  -26.2992   19.7929 C   0  0  0  0  0  0  0  0  0  0  0  0
  -31.0082  -19.0260   21.8697 C   0  0  0  0  0  0  0  0  0  0  0  0
  -19.0625  -11.1437   27.3837 C   0  0  0  0  0  0  0  0  0  0  0  0
  -24.1424  -11.3035   22.6082 C   0  0  0  0  0  0  0  0  0  0  0  0
  -24.0838  -11.8249   20.1118 C   0  0  0  0  0  0  0  0  0  0  0  0
  -24.1923  -32.8088   24.7416 C   0  0  0  0  0  0  0  0  0  0  0  0
  -27.9008  -28.6948   19.9246 C   0  0  0  0  0  0  0  0  0  0  0  0
  -25.1339  -31.8368   24.3532 C   0  0  0  0  0  0  0  0  0  0  0  0
  -27.3679  -27.4108   19.7413 C   0  0  0  0  0  0  0  0  0  0  0  0
  -31.1034  -17.7314   21.2822 C   0  0  0  0  0  0  0  0  0  0  0  0
  -22.9927  -10.5704   25.0421 C   0  0  0  0  0  0  0  0  0  0  0  0
  -29.5903  -26.4632   20.0112 C   0  0  0  0  0  0  0  0  0  0  0  0
  -21.0522  -10.2652   26.3318 C   0  0  0  0  0  0  0  0  0  0  0  0
  -18.2718  -10.3702   26.5339 C   0  0  0  0  0  0  0  0  0  0  0  0
  -20.4528  -11.0912   27.2826 C   0  0  0  0  0  0  0  0  0  0  0  0
  -24.7362  -11.6813   21.3510 C   0  0  0  0  0  0  0  0  0  0  0  0
  -29.7011  -19.4421   21.9959 C   0  0  0  0  0  0  0  0  0  0  0  0
  -25.0791  -12.1948   19.2406 C   0  0  0  0  0  0  0  0  0  0  0  0
  -29.8652  -17.2073   20.9820 C   0  0  0  0  0  0  0  0  0  0  0  0
  -29.8522  -23.0819   19.7427 C   0  0  0  0  0  0  0  0  0  0  0  0
  -29.8801  -24.1851   20.5147 C   0  0  0  0  0  0  0  0  0  1  0  0
  -22.7017  -11.6405   19.7780 C   0  0  0  0  0  0  0  0  0  0  0  0
  -29.1833  -20.7032   22.5484 C   0  0  0  0  0  0  0  0  0  0  0  0
  -25.2911  -29.3652   21.6110 C   0  0  0  0  0  0  0  0  0  0  0  0
  -23.7724  -28.4136   18.9072 C   0  0  0  0  0  0  0  0  0  0  0  0
  -23.8590  -26.5876   16.0254 C   0  0  0  0  0  0  0  0  0  0  0  0
  -30.3325  -14.9459   19.9749 C   0  0  0  0  0  0  0  0  0  0  0  0
  -22.7081  -32.5609   24.6398 C   0  0  0  0  0  0  0  0  0  0  0  0
  -27.0123  -29.9061   19.8500 C   0  0  0  0  0  0  0  0  0  0  0  0
  -25.8980  -27.1896   19.4980 C   0  0  0  0  0  0  0  0  0  0  0  0
  -29.3075  -21.7609   20.2378 C   0  0  0  0  0  0  0  0  0  0  0  0
  -29.3268  -24.2090   21.9112 C   0  0  0  0  0  0  0  0  0  0  0  0
  -22.3458  -31.4079   23.7073 C   0  0  0  0  0  0  0  0  0  0  0  0
  -29.7927  -11.7378   18.5278 C   0  0  0  0  0  0  0  0  0  0  0  0
  -23.2305  -30.1971   23.9867 C   0  0  0  0  0  0  0  0  0  0  0  0
  -28.3731  -11.3750   18.9697 C   0  0  0  0  0  0  0  0  0  0  0  0
  -28.4147  -23.0195   22.1868 C   0  0  0  0  0  0  0  0  0  0  0  0
  -30.5492  -12.4964   19.6168 C   0  0  0  0  0  0  0  0  0  0  0  0
  -28.4380  -13.3170   20.5857 C   0  0  0  0  0  0  0  0  0  0  0  0
  -24.7076  -30.5231   23.7345 C   0  0  1  0  0  0  0  0  0  0  0  0
  -25.5492  -29.5933   20.1484 C   0  0  1  0  0  0  0  0  0  0  0  0
  -27.6146  -12.6085   19.4977 C   0  0  2  0  0  0  0  0  0  0  0  0
  -31.8320  -22.6802   18.3198 C   0  0  0  0  0  0  0  0  0  0  0  0
  -22.4541  -25.9756   14.0381 C   0  0  0  0  0  0  0  0  0  0  0  0
  -22.1753  -26.4727   20.6370 C   0  0  0  0  0  0  0  0  0  0  0  0
  -21.5132  -25.2638   18.5469 C   0  0  0  0  0  0  0  0  0  0  0  0
  -20.8392  -27.6429   18.8763 C   0  0  0  0  0  0  0  0  0  0  0  0
  -25.7811  -27.8187   14.1415 C   0  0  0  0  0  0  0  0  0  0  0  0
  -30.3688  -23.0554   18.3302 C   0  0  0  0  0  0  0  0  0  0  0  0
  -23.2570  -27.0973   18.3774 C   0  0  1  0  0  0  0  0  0  0  0  0
  -23.4871  -26.9419   14.5969 C   0  0  2  0  0  0  0  0  0  0  0  0
  -21.9736  -26.6229   19.1159 C   0  0  0  0  0  0  0  0  0  0  0  0
  -26.0447  -11.9388   21.2777 N   0  0  0  0  0  0  0  0  0  0  0  0
  -26.2227  -12.2479   19.9820 N   0  0  0  0  0  0  0  0  0  0  0  0
  -29.0054  -21.7845   21.6776 N   0  0  0  0  0  0  0  0  0  0  0  0
  -25.0694  -28.4051   19.4398 N   0  0  0  0  0  0  0  0  0  0  0  0
  -29.7722  -13.6541   20.0651 N   0  0  0  0  0  0  0  0  0  0  0  0
  -32.2766  -17.0965   21.0502 N   0  0  0  0  0  0  0  0  0  0  0  0
  -25.0790  -12.4765   17.9203 N   0  0  0  0  0  0  0  0  0  0  0  0
  -21.8141  -11.2598   20.7937 N   0  0  0  0  0  0  0  0  0  0  0  0
  -29.4886  -15.9714   20.4002 N   0  0  0  0  0  0  0  0  0  0  0  0
  -24.9917  -30.5156   22.3155 N   0  0  0  0  0  0  0  0  0  0  0  0
  -23.0879  -27.2742   16.9392 N   0  0  0  0  0  0  0  0  0  0  0  0
  -24.6926  -26.8988   13.7218 N   0  3  0  0  0  0  0  0  0  0  0  0
  -22.2696  -11.7923   18.6102 O   0  0  0  0  0  0  0  0  0  0  0  0
  -28.9353  -20.7083   23.7535 O   0  0  0  0  0  0  0  0  0  0  0  0
  -25.3572  -28.2294   22.0662 O   0  0  0  0  0  0  0  0  0  0  0  0
  -23.0535  -29.4140   18.8441 O   0  0  0  0  0  0  0  0  0  0  0  0
  -24.7426  -25.7796   16.3028 O   0  0  0  0  0  0  0  0  0  0  0  0
  -31.4665  -15.1315   19.5260 O   0  0  0  0  0  0  0  0  0  0  0  0
  -22.4322  -10.2125   26.2296 O   0  0  0  0  0  0  0  0  0  0  0  0
  -30.4077  -25.3762   20.0571 O   0  0  0  0  0  0  0  0  0  1  0  0
  -16.9367  -10.4217   26.6299 F   0  0  0  0  0  0  0  0  0  0  0  0
  -21.2072  -11.8375   28.1009 F   0  0  0  0  0  0  0  0  0  0  0  0
  -28.5954  -18.2743   21.4076 S   0  0  0  0  0  0  0  0  0  0  0  0
  1  2  1  0  0  0  0
  1  5  2  0  0  0  0
  2  6  2  0  0  0  0
  3  8  2  0  0  0  0
  3 16  1  0  0  0  0
  4  9  1  0  0  0  0
  4 16  2  0  0  0  0
  5 18  1  0  0  0  0
  6 20  1  0  0  0  0
  7 10  2  0  0  0  0
  7 19  1  0  0  0  0
  8 23  1  0  0  0  0
  9 23  2  0  0  0  0
 10 24  1  0  0  0  0
 11 12  2  0  0  0  0
 11 25  1  0  0  0  0
 12 26  1  0  0  0  0
 13 21  1  0  0  0  0
 13 24  2  0  0  0  0
 14 22  1  0  0  0  0
 14 29  2  0  0  0  0
 15 26  2  0  0  0  0
 15 27  1  0  0  0  0
 16 28  1  0  0  0  0
 17 28  1  0  0  0  0
 17 30  2  0  0  0  0
 17 34  1  0  0  0  0
 18 20  2  0  0  0  0
 18 40  1  0  0  0  0
 19 21  2  0  0  0  0
 19 41  1  0  0  0  0
 20 52  1  0  0  0  0
 21 42  1  0  0  0  0
 22 31  2  0  0  0  0
 22 70  1  0  0  0  0
 23 83  1  0  0  0  0
 24 84  1  0  0  0  0
 25 27  2  0  0  0  0
 25 83  1  0  0  0  0
 26 85  1  0  0  0  0
 27 86  1  0  0  0  0
 28 65  2  0  0  0  0
 29 35  1  0  0  0  0
 29 87  1  0  0  0  0
 30 66  1  0  0  0  0
 30 71  1  0  0  0  0
 31 73  1  0  0  0  0
 31 87  1  0  0  0  0
 32 33  2  0  0  0  0
 32 43  1  0  0  0  0
 32 61  1  0  0  0  0
 33 44  1  0  0  0  0
 33 84  1  0  0  0  0
 34 72  1  0  0  0  0
 34 77  2  0  0  0  0
 35 67  1  0  0  0  0
 35 78  2  0  0  0  0
 36 53  1  0  0  0  0
 36 74  1  0  0  0  0
 36 79  2  0  0  0  0
 37 62  1  0  0  0  0
 37 68  1  0  0  0  0
 37 80  2  0  0  0  0
 38 63  1  0  0  0  0
 38 75  1  0  0  0  0
 38 81  2  0  0  0  0
 39 69  1  0  0  0  0
 39 73  1  0  0  0  0
 39 82  2  0  0  0  0
 40 45  1  0  0  0  0
 41 53  1  0  0  0  0
 42 68  1  0  0  0  0
 43 67  1  0  0  0  0
 44 49  1  0  0  0  0
 45 47  1  0  0  0  0
 46 48  1  0  0  0  0
 46 50  1  0  0  0  0
 47 52  1  0  0  0  0
 48 54  1  0  0  0  0
 49 67  1  0  0  0  0
 50 69  1  0  0  0  0
 51 54  1  0  0  0  0
 51 69  1  0  0  0  0
 52 74  1  0  0  0  0
 53 68  1  0  0  0  0
 54 66  1  0  0  0  0
 55 61  1  0  0  0  0
 56 63  1  0  0  0  0
 57 64  1  0  0  0  0
 58 64  1  0  0  0  0
 59 64  1  0  0  0  0
 60 76  1  0  0  0  0
 62 64  1  0  0  0  0
 62 75  1  0  0  0  0
 63 76  1  0  0  0  0
 65 66  1  0  0  0  0
M  CHG  1  76   1
M  ISO  4  33 101  39 100  73 100  84 101
M  END
> <Batch ID>
0158

> <Smiles>
CCC1=[101C:1]([101O:1]c2ccc3c(c2)CN(C(=O)C(NC(=O)C(C)NC)C(C)(C)C)C(C(=O)NC2CCCc4ccccc42)C3)CCN(C(=O)c2cc(N)c([100NH:0][100C:0](=O)N3CCCC(n4nc(-c5ccc(Oc6ccc(F)cc6F)cc5)c(C(N)=O)c4N)C3)s2)C1

> <Shape>
0.275

> <Color>
0.072

> <Negative vol penalty>
0.000

$$$$

  -OEChem-04052303443D

 83 91  0     1  0  0  0  0  0999 V2000
  -16.2032  -28.6582   24.0486 C   0  0  0  0  0  0  0  0  0  0  0  0
  -17.2264  -27.7589   24.3306 C   0  0  0  0  0  0  0  0  0  0  0  0
  -23.8656   -9.8648   21.8599 C   0  0  0  0  0  0  0  0  0  0  0  0
  -23.3448   -9.3940   19.5482 C   0  0  0  0  0  0  0  0  0  0  0  0
  -16.4429  -29.7433   23.2065 C   0  0  0  0  0  0  0  0  0  0  0  0
  -18.4897  -27.9435   23.7699 C   0  0  0  0  0  0  0  0  0  0  0  0
  -23.8893  -26.6482   26.3531 C   0  0  0  0  0  0  0  0  0  0  0  0
  -22.9346   -8.9082   22.2645 C   0  0  0  0  0  0  0  0  0  0  0  0
  -22.4138   -8.4374   19.9527 C   0  0  0  0  0  0  0  0  0  0  0  0
  -24.7515  -25.5597   26.2288 C   0  0  0  0  0  0  0  0  0  0  0  0
  -22.7735   -5.5403   22.5184 C   0  0  0  0  0  0  0  0  0  0  0  0
  -23.1523   -4.6522   23.5250 C   0  0  0  0  0  0  0  0  0  0  0  0
  -26.0344  -26.7715   24.5841 C   0  0  0  0  0  0  0  0  0  0  0  0
  -28.5476  -20.1947   22.4475 C   0  0  0  0  0  0  0  0  0  0  0  0
  -21.3353   -5.4434   24.9069 C   0  0  0  0  0  0  0  0  0  0  0  0
  -29.2553  -21.3592   20.6814 C   0  0  0  0  0  0  0  0  0  0  0  0
  -24.0706  -10.1078   20.5017 C   0  0  0  0  0  0  0  0  0  0  0  0
  -26.3990  -10.8930   19.8164 C   0  0  0  0  0  0  0  0  0  0  0  0
  -17.7123  -29.9468   22.6429 C   0  0  0  0  0  0  0  0  0  0  0  0
  -24.0871  -27.8044   25.5846 C   0  0  0  0  0  0  0  0  0  0  0  0
  -18.7462  -29.0316   22.9185 C   0  0  0  0  0  0  0  0  0  0  0  0
  -25.1748  -27.8743   24.7024 C   0  0  0  0  0  0  0  0  0  0  0  0
  -28.6429  -21.4985   21.9051 C   0  0  0  0  0  0  0  0  0  0  0  0
  -22.2087   -8.1944   21.3109 C   0  0  0  0  0  0  0  0  0  0  0  0
  -25.8226  -25.6201   25.3421 C   0  0  0  0  0  0  0  0  0  0  0  0
  -21.6756   -6.3801   22.7060 C   0  0  0  0  0  0  0  0  0  0  0  0
  -22.4332   -4.6037   24.7192 C   0  0  0  0  0  0  0  0  0  0  0  0
  -20.9565   -6.3316   23.9002 C   0  0  0  0  0  0  0  0  0  0  0  0
  -25.0318  -11.0962   20.0832 C   0  0  0  0  0  0  0  0  0  0  0  0
  -29.1084  -19.3517   21.5165 C   0  0  0  0  0  0  0  0  0  0  0  0
  -26.8669  -12.1334   19.4575 C   0  0  0  0  0  0  0  0  0  0  0  0
  -27.1765   -9.6904   19.8865 C   0  0  0  0  0  0  0  0  0  0  0  0
  -29.2248  -17.8902   21.6626 C   0  0  0  0  0  0  0  0  0  0  0  0
  -22.3994  -29.3455   23.3755 C   0  0  0  0  0  0  0  0  0  0  0  0
  -24.7884  -31.5250   23.6293 C   0  0  0  0  0  0  0  0  0  0  0  0
  -27.5876  -22.8977   23.7113 C   0  0  0  0  0  0  0  0  0  0  0  0
  -28.0284  -32.1873   24.4724 C   0  0  0  0  0  0  0  0  0  0  0  0
  -26.9958  -17.7013   20.5730 C   0  0  0  0  0  0  0  0  0  0  0  0
  -17.9108  -31.1078   21.7009 C   0  0  0  0  0  0  0  0  0  0  0  0
  -23.1637  -28.9801   25.7500 C   0  0  0  0  0  0  0  0  0  0  0  0
  -25.4428  -29.1002   23.8695 C   0  0  0  0  0  0  0  0  0  0  0  0
  -19.3784  -31.4414   21.4461 C   0  0  0  0  0  0  0  0  0  0  0  0
  -24.4323  -16.3991   18.3535 C   0  0  0  0  0  0  0  0  0  0  0  0
  -20.1716  -30.1717   21.1537 C   0  0  0  0  0  0  0  0  0  0  0  0
  -24.4225  -14.9014   18.6394 C   0  0  0  0  0  0  0  0  0  0  0  0
  -24.7948  -17.1942   19.6011 C   0  0  0  0  0  0  0  0  0  0  0  0
  -26.1428  -15.2958   20.4696 C   0  0  0  0  0  0  0  0  0  0  0  0
  -20.1367  -29.2119   22.3491 C   0  0  1  0  0  0  0  0  0  0  0  0
  -23.1596  -29.9112   24.5415 C   0  0  1  0  0  0  0  0  0  0  0  0
  -25.7690  -14.4601   19.2303 C   0  0  1  0  0  0  0  0  0  0  0  0
  -29.7055  -34.0529   24.5356 C   0  0  0  0  0  0  0  0  0  0  0  0
  -25.1306  -31.3167   20.6045 C   0  0  0  0  0  0  0  0  0  0  0  0
  -27.3630  -32.4229   20.8509 C   0  0  0  0  0  0  0  0  0  0  0  0
  -25.2896  -33.6406   21.5148 C   0  0  0  0  0  0  0  0  0  0  0  0
  -30.5637  -15.9309   22.4504 C   0  0  0  0  0  0  0  0  0  0  0  0
  -28.3450  -31.9587   27.4061 C   0  0  0  0  0  0  0  0  0  0  0  0
  -27.2841  -24.3657   23.9470 C   0  0  0  0  0  0  0  0  0  1  0  0
  -26.1213  -31.7340   22.9519 C   0  0  1  0  0  0  0  0  0  0  0  0
  -28.6450  -33.2899   25.3140 C   0  0  2  0  0  0  0  0  0  0  0  0
  -25.9702  -32.2546   21.4946 C   0  0  0  0  0  0  0  0  0  0  0  0
  -24.6557  -12.3659   19.9089 N   0  0  0  0  0  0  0  0  0  0  0  0
  -25.7935  -12.9717   19.5287 N   0  0  0  0  0  0  0  0  0  0  0  0
  -24.5080  -30.2212   24.0622 N   0  0  0  0  0  0  0  0  0  0  0  0
  -26.0506  -16.7398   20.2036 N   0  0  0  0  0  0  0  0  0  0  0  0
  -28.0878  -12.5780   19.0911 N   0  0  0  0  0  0  0  0  0  0  0  0
  -26.5384   -8.5038   20.2727 N   0  0  0  0  0  0  0  0  0  0  0  0
  -28.2075  -22.7162   22.4797 N   0  0  0  0  0  0  0  0  0  0  0  0
  -28.1902  -17.1728   21.1950 N   0  0  0  0  0  0  0  0  0  0  0  0
  -21.0524  -29.6539   23.3790 N   0  0  0  0  0  0  0  0  0  0  0  0
  -26.8889  -32.6156   23.8248 N   0  0  0  0  0  0  0  0  0  0  0  0
  -30.3121  -17.3612   22.2386 N   0  3  0  0  0  0  0  0  0  0  0  0
  -29.2794  -32.7167   26.5346 N   0  3  0  0  0  0  0  0  0  0  0  0
  -28.4044   -9.6719   19.6307 O   0  0  0  0  0  0  0  0  0  0  0  0
  -22.9914  -28.6797   22.5340 O   0  0  0  0  0  0  0  0  0  0  0  0
  -24.0273  -32.4846   23.7755 O   0  0  0  0  0  0  0  0  0  0  0  0
  -27.2970  -22.0406   24.5392 O   0  0  0  0  0  0  0  0  0  0  0  0
  -28.5115  -31.0599   24.3941 O   0  0  0  0  0  0  0  0  0  0  0  0
  -26.8704  -18.9136   20.4376 O   0  0  0  0  0  0  0  0  0  0  0  0
  -29.5422  -20.0537   20.4369 O   0  0  0  0  0  0  0  0  0  0  0  0
  -21.3003   -7.2607   21.7054 O   0  0  0  0  0  0  0  0  0  0  0  0
  -26.6653  -24.5588   25.2183 O   0  0  0  0  0  0  0  0  0  1  0  0
  -22.7962   -3.7497   25.6852 F   0  0  0  0  0  0  0  0  0  0  0  0
  -19.9002   -7.1351   24.0858 F   0  0  0  0  0  0  0  0  0  0  0  0
  1  2  1  0  0  0  0
  1  5  2  0  0  0  0
  2  6  2  0  0  0  0
  3  8  2  0  0  0  0
  3 17  1  0  0  0  0
  4  9  1  0  0  0  0
  4 17  2  0  0  0  0
  5 19  1  0  0  0  0
  6 21  1  0  0  0  0
  7 10  2  0  0  0  0
  7 20  1  0  0  0  0
  8 24  1  0  0  0  0
  9 24  2  0  0  0  0
 10 25  1  0  0  0  0
 11 12  2  0  0  0  0
 11 26  1  0  0  0  0
 12 27  1  0  0  0  0
 13 22  1  0  0  0  0
 13 25  2  0  0  0  0
 14 23  1  0  0  0  0
 14 30  2  0  0  0  0
 15 27  2  0  0  0  0
 15 28  1  0  0  0  0
 16 23  2  0  0  0  0
 16 79  1  0  0  0  0
 17 29  1  0  0  0  0
 18 29  1  0  0  0  0
 18 31  2  0  0  0  0
 18 32  1  0  0  0  0
 19 21  2  0  0  0  0
 19 39  1  0  0  0  0
 20 22  2  0  0  0  0
 20 40  1  0  0  0  0
 21 48  1  0  0  0  0
 22 41  1  0  0  0  0
 23 67  1  0  0  0  0
 24 80  1  0  0  0  0
 25 81  1  0  0  0  0
 26 28  2  0  0  0  0
 26 80  1  0  0  0  0
 27 82  1  0  0  0  0
 28 83  1  0  0  0  0
 29 61  2  0  0  0  0
 30 33  1  0  0  0  0
 30 79  1  0  0  0  0
 31 62  1  0  0  0  0
 31 65  1  0  0  0  0
 32 66  1  0  0  0  0
 32 73  2  0  0  0  0
 33 68  1  0  0  0  0
 33 71  2  0  0  0  0
 34 49  1  0  0  0  0
 34 69  1  0  0  0  0
 34 74  2  0  0  0  0
 35 58  1  0  0  0  0
 35 63  1  0  0  0  0
 35 75  2  0  0  0  0
 36 57  1  0  0  0  0
 36 67  1  0  0  0  0
 36 76  2  0  0  0  0
 37 59  1  0  0  0  0
 37 70  1  0  0  0  0
 37 77  2  0  0  0  0
 38 64  1  0  0  0  0
 38 68  1  0  0  0  0
 38 78  2  0  0  0  0
 39 42  1  0  0  0  0
 40 49  1  0  0  0  0
 41 63  1  0  0  0  0
 42 44  1  0  0  0  0
 43 45  1  0  0  0  0
 43 46  1  0  0  0  0
 44 48  1  0  0  0  0
 45 50  1  0  0  0  0
 46 64  1  0  0  0  0
 47 50  1  0  0  0  0
 47 64  1  0  0  0  0
 48 69  1  0  0  0  0
 49 63  1  0  0  0  0
 50 62  1  0  0  0  0
 51 59  1  0  0  0  0
 52 60  1  0  0  0  0
 53 60  1  0  0  0  0
 54 60  1  0  0  0  0
 55 71  1  0  0  0  0
 56 72  1  0  0  0  0
 57 81  1  0  0  0  0
 58 60  1  0  0  0  0
 58 70  1  0  0  0  0
 59 72  1  0  0  0  0
 61 62  1  0  0  0  0
M  CHG  2  71   1  72   1
M  ISO  4  38 100  57 101  68 100  81 101
M  END
> <Batch ID>
0158

> <Smiles>
CN=C([100NH:0][100C:0](=O)N1CCCC(n2nc(-c3ccc(Oc4ccc(F)cc4F)cc3)c(C(N)=O)c2N)C1)c1cc(NC(=O)[101CH2:1][101O:1]c2ccc3c(c2)CN(C(=O)C(NC(=O)C(C)NC)C(C)(C)C)C(C(=O)NC2CCCc4ccccc42)C3)co1

> <Shape>
0.276

> <Color>
0.104

> <Negative vol penalty>
0.000

$$$$

  -OEChem-04052303443D

 85 94  0     1  0  0  0  0  0999 V2000
  -29.8992  -33.4202   25.2412 C   0  0  0  0  0  0  0  0  0  0  0  0
  -29.7686  -32.2075   24.5721 C   0  0  0  0  0  0  0  0  0  0  0  0
  -24.5050   -9.1710   20.7532 C   0  0  0  0  0  0  0  0  0  0  0  0
  -22.4215  -10.3607   20.4692 C   0  0  0  0  0  0  0  0  0  0  0  0
  -28.8343  -33.9206   25.9891 C   0  0  0  0  0  0  0  0  0  0  0  0
  -28.5732  -31.4939   24.6514 C   0  0  0  0  0  0  0  0  0  0  0  0
  -27.0663  -29.7219   20.1532 C   0  0  0  0  0  0  0  0  0  0  0  0
  -23.8029   -8.0427   21.1770 C   0  0  0  0  0  0  0  0  0  0  0  0
  -21.7194   -9.2324   20.8930 C   0  0  0  0  0  0  0  0  0  0  0  0
  -27.7068  -28.5812   19.6711 C   0  0  0  0  0  0  0  0  0  0  0  0
  -22.5776   -4.9653   22.6775 C   0  0  0  0  0  0  0  0  0  0  0  0
  -23.0512   -4.2894   23.8020 C   0  0  0  0  0  0  0  0  0  0  0  0
  -28.7955  -20.5888   21.3337 C   0  0  0  0  0  0  0  0  0  0  0  0
  -25.8483  -27.2326   20.4103 C   0  0  0  0  0  0  0  0  0  0  0  0
  -30.4973  -21.7447   20.0711 C   0  0  0  0  0  0  0  0  0  0  0  0
  -22.7605   -6.2892   25.1263 C   0  0  0  0  0  0  0  0  0  0  0  0
  -23.8142  -10.3301   20.3993 C   0  0  0  0  0  0  0  0  0  0  0  0
  -24.9057  -11.8239   18.6429 C   0  0  0  0  0  0  0  0  0  0  0  0
  -27.6219  -33.2175   26.0698 C   0  0  0  0  0  0  0  0  0  0  0  0
  -25.8147  -29.6249   20.7782 C   0  0  0  0  0  0  0  0  0  0  0  0
  -27.4915  -31.9847   25.4022 C   0  0  0  0  0  0  0  0  0  0  0  0
  -29.6258  -19.4646   21.4498 C   0  0  0  0  0  0  0  0  0  0  0  0
  -25.1928  -28.3738   20.8971 C   0  0  0  0  0  0  0  0  0  0  0  0
  -30.9155  -19.4967   20.8863 C   0  0  0  0  0  0  0  0  0  0  0  0
  -29.2295  -21.7220   20.6464 C   0  0  0  0  0  0  0  0  0  0  0  0
  -31.3362  -20.6367   20.1874 C   0  0  0  0  0  0  0  0  0  0  0  0
  -22.4102   -8.0734   21.2469 C   0  0  0  0  0  0  0  0  0  0  0  0
  -27.0991  -27.3360   19.8022 C   0  0  0  0  0  0  0  0  0  0  0  0
  -22.1955   -6.3031   22.7774 C   0  0  0  0  0  0  0  0  0  0  0  0
  -23.1426   -4.9513   25.0264 C   0  0  0  0  0  0  0  0  0  0  0  0
  -22.2869   -6.9650   24.0018 C   0  0  0  0  0  0  0  0  0  0  0  0
  -24.5389  -11.4961   19.9619 C   0  0  0  0  0  0  0  0  0  0  0  0
  -25.5716  -13.0195   18.7587 C   0  0  0  0  0  0  0  0  0  0  0  0
  -24.6657  -11.1113   17.4221 C   0  0  0  0  0  0  0  0  0  0  0  0
  -24.7015  -30.2778   23.6831 C   0  0  0  0  0  0  0  0  0  0  0  0
  -21.8460  -29.5487   22.3278 C   0  0  0  0  0  0  0  0  0  0  0  0
  -28.6492  -24.0500   19.8864 C   0  0  0  0  0  0  0  0  0  0  0  0
  -20.1405  -27.9038   19.8717 C   0  0  0  0  0  0  0  0  0  0  0  0
  -29.5498  -15.8424   21.5454 C   0  0  0  0  0  0  0  0  0  0  0  0
  -26.5150  -33.7753   26.9291 C   0  0  0  0  0  0  0  0  0  0  0  0
  -25.1249  -30.8682   21.2689 C   0  0  0  0  0  0  0  0  0  0  0  0
  -31.8302  -18.3009   20.9784 C   0  0  0  0  0  0  0  0  0  0  0  0
  -29.1275  -18.2569   22.2123 C   0  0  0  0  0  0  0  0  0  0  0  0
  -23.8406  -28.2185   21.5419 C   0  0  0  0  0  0  0  0  0  0  0  0
  -25.1537  -33.1406   26.6566 C   0  0  0  0  0  0  0  0  0  0  0  0
  -25.9989  -16.2004   22.6555 C   0  0  0  0  0  0  0  0  0  0  0  0
  -25.2768  -31.6217   26.5891 C   0  0  0  0  0  0  0  0  0  0  0  0
  -25.3600  -14.9843   21.9864 C   0  0  0  0  0  0  0  0  0  0  0  0
  -31.4230  -17.3585   22.1063 C   0  0  0  0  0  0  0  0  0  0  0  0
  -27.4680  -15.9475   22.9723 C   0  0  0  0  0  0  0  0  0  0  0  0
  -27.6490  -14.3262   21.1137 C   0  0  0  0  0  0  0  0  0  0  0  0
  -26.2022  -31.1935   25.4439 C   0  0  1  0  0  0  0  0  0  0  0  0
  -24.0843  -30.5876   22.3486 C   0  0  1  0  0  0  0  0  0  0  0  0
  -26.1697  -14.5447   20.7545 C   0  0  1  0  0  0  0  0  0  0  0  0
  -17.8120  -27.4651   19.0453 C   0  0  0  0  0  0  0  0  0  0  0  0
  -21.4165  -27.5596   24.6013 C   0  0  0  0  0  0  0  0  0  0  0  0
  -19.5961  -26.5065   23.2429 C   0  0  0  0  0  0  0  0  0  0  0  0
  -19.3883  -28.8821   23.9751 C   0  0  0  0  0  0  0  0  0  0  0  0
  -20.7009  -29.1834   17.2626 C   0  0  0  0  0  0  0  0  0  0  0  0
  -27.4670  -24.9946   19.9983 C   0  0  0  0  0  0  0  0  0  1  0  0
  -21.0368  -28.2863   22.1531 C   0  0  1  0  0  0  0  0  0  0  0  0
  -19.0374  -28.3588   18.9334 C   0  0  2  0  0  0  0  0  0  0  0  0
  -20.3858  -27.8110   23.4826 C   0  0  0  0  0  0  0  0  0  0  0  0
  -24.9389  -12.4097   20.8505 N   0  0  0  0  0  0  0  0  0  0  0  0
  -25.5639  -13.3232   20.0883 N   0  0  0  0  0  0  0  0  0  0  0  0
  -23.2093  -29.4629   22.0116 N   0  0  0  0  0  0  0  0  0  0  0  0
  -29.9908  -17.0798   22.0389 N   0  0  0  0  0  0  0  0  0  0  0  0
  -28.2091  -15.5010   21.7854 N   0  0  0  0  0  0  0  0  0  0  0  0
  -32.6113  -20.6932   19.5778 N   0  0  0  0  0  0  0  0  0  0  0  0
  -26.1573  -13.8302   17.8519 N   0  0  0  0  0  0  0  0  0  0  0  0
  -23.9658   -9.8986   17.4828 N   0  0  0  0  0  0  0  0  0  0  0  0
  -28.3918  -22.8320   20.5331 N   0  0  0  0  0  0  0  0  0  0  0  0
  -25.5114  -31.2834   24.1753 N   0  0  0  0  0  0  0  0  0  0  0  0
  -20.0821  -28.5581   21.0840 N   0  0  0  0  0  0  0  0  0  0  0  0
  -19.5134  -28.3292   17.5214 N   0  3  0  0  0  0  0  0  0  0  0  0
  -25.0746  -11.5293   16.3123 O   0  0  0  0  0  0  0  0  0  0  0  0
  -24.4597  -29.2065   24.2266 O   0  0  0  0  0  0  0  0  0  0  0  0
  -21.2876  -30.5751   22.7233 O   0  0  0  0  0  0  0  0  0  0  0  0
  -29.6734  -24.3701   19.2920 O   0  0  0  0  0  0  0  0  0  0  0  0
  -20.9689  -27.0504   19.5617 O   0  0  0  0  0  0  0  0  0  0  0  0
  -30.3046  -15.0910   20.9153 O   0  0  0  0  0  0  0  0  0  0  0  0
  -21.7248   -6.9725   21.6602 O   0  0  0  0  0  0  0  0  0  0  0  0
  -27.7289  -26.2093   19.3283 O   0  0  0  0  0  0  0  0  0  1  0  0
  -23.5960   -4.3017   26.1066 F   0  0  0  0  0  0  0  0  0  0  0  0
  -21.9202   -8.2499   24.1042 F   0  0  0  0  0  0  0  0  0  0  0  0
  1  2  1  0  0  0  0
  1  5  2  0  0  0  0
  2  6  2  0  0  0  0
  3  8  2  0  0  0  0
  3 17  1  0  0  0  0
  4  9  1  0  0  0  0
  4 17  2  0  0  0  0
  5 19  1  0  0  0  0
  6 21  1  0  0  0  0
  7 10  2  0  0  0  0
  7 20  1  0  0  0  0
  8 27  1  0  0  0  0
  9 27  2  0  0  0  0
 10 28  1  0  0  0  0
 11 12  2  0  0  0  0
 11 29  1  0  0  0  0
 12 30  1  0  0  0  0
 13 22  1  0  0  0  0
 13 25  2  0  0  0  0
 14 23  1  0  0  0  0
 14 28  2  0  0  0  0
 15 25  1  0  0  0  0
 15 26  2  0  0  0  0
 16 30  2  0  0  0  0
 16 31  1  0  0  0  0
 17 32  1  0  0  0  0
 18 32  1  0  0  0  0
 18 33  2  0  0  0  0
 18 34  1  0  0  0  0
 19 21  2  0  0  0  0
 19 40  1  0  0  0  0
 20 23  2  0  0  0  0
 20 41  1  0  0  0  0
 21 52  1  0  0  0  0
 22 24  2  0  0  0  0
 22 43  1  0  0  0  0
 23 44  1  0  0  0  0
 24 26  1  0  0  0  0
 24 42  1  0  0  0  0
 25 72  1  0  0  0  0
 26 69  1  0  0  0  0
 27 82  1  0  0  0  0
 28 83  1  0  0  0  0
 29 31  2  0  0  0  0
 29 82  1  0  0  0  0
 30 84  1  0  0  0  0
 31 85  1  0  0  0  0
 32 64  2  0  0  0  0
 33 65  1  0  0  0  0
 33 70  1  0  0  0  0
 34 71  1  0  0  0  0
 34 76  2  0  0  0  0
 35 53  1  0  0  0  0
 35 73  1  0  0  0  0
 35 77  2  0  0  0  0
 36 61  1  0  0  0  0
 36 66  1  0  0  0  0
 36 78  2  0  0  0  0
 37 60  1  0  0  0  0
 37 72  1  0  0  0  0
 37 79  2  0  0  0  0
 38 62  1  0  0  0  0
 38 74  1  0  0  0  0
 38 80  2  0  0  0  0
 39 67  1  0  0  0  0
 39 68  1  0  0  0  0
 39 81  2  0  0  0  0
 40 45  1  0  0  0  0
 41 53  1  0  0  0  0
 42 49  1  0  0  0  0
 43 67  1  0  0  0  0
 44 66  1  0  0  0  0
 45 47  1  0  0  0  0
 46 48  1  0  0  0  0
 46 50  1  0  0  0  0
 47 52  1  0  0  0  0
 48 54  1  0  0  0  0
 49 67  1  0  0  0  0
 50 68  1  0  0  0  0
 51 54  1  0  0  0  0
 51 68  1  0  0  0  0
 52 73  1  0  0  0  0
 53 66  1  0  0  0  0
 54 65  1  0  0  0  0
 55 62  1  0  0  0  0
 56 63  1  0  0  0  0
 57 63  1  0  0  0  0
 58 63  1  0  0  0  0
 59 75  1  0  0  0  0
 60 83  1  0  0  0  0
 61 63  1  0  0  0  0
 61 74  1  0  0  0  0
 62 75  1  0  0  0  0
 64 65  1  0  0  0  0
M  CHG  1  75   1
M  ISO  4  39 100  60 101  67 100  83 101
M  END
> <Batch ID>
0158

> <Smiles>
CNC(C)C(=O)NC(C(=O)N1Cc2cc([101O:1][101CH2:1]C(=O)Nc3cc(N)c4c(c3)C[100N:0]([100C:0](=O)N3CCCC(n5nc(-c6ccc(Oc7ccc(F)cc7F)cc6)c(C(N)=O)c5N)C3)CC4)ccc2CC1C(=O)NC1CCCc2ccccc21)C(C)(C)C

> <Shape>
0.331

> <Color>
0.087

> <Negative vol penalty>
0.000

$$$$

  -OEChem-04052303443D

 83 91  0     1  0  0  0  0  0999 V2000
  -16.7832  -28.6142   23.9097 C   0  0  0  0  0  0  0  0  0  0  0  0
  -17.2659  -28.0596   22.7287 C   0  0  0  0  0  0  0  0  0  0  0  0
  -27.8414  -17.4328   19.7733 C   0  0  0  0  0  0  0  0  0  0  0  0
  -27.6061  -18.4277   21.9623 C   0  0  0  0  0  0  0  0  0  0  0  0
  -17.4842  -29.6469   24.5311 C   0  0  0  0  0  0  0  0  0  0  0  0
  -18.4494  -28.5382   22.1677 C   0  0  0  0  0  0  0  0  0  0  0  0
  -22.6623  -25.2900   19.1334 C   0  0  0  0  0  0  0  0  0  0  0  0
  -27.4762  -16.1929   20.2975 C   0  0  0  0  0  0  0  0  0  0  0  0
  -27.2408  -17.1878   22.4866 C   0  0  0  0  0  0  0  0  0  0  0  0
  -22.9021  -25.1036   17.7727 C   0  0  0  0  0  0  0  0  0  0  0  0
  -24.6273  -14.6131   21.2037 C   0  0  0  0  0  0  0  0  0  0  0  0
  -23.7025  -13.8534   20.4874 C   0  0  0  0  0  0  0  0  0  0  0  0
  -24.5586  -26.8563   17.8308 C   0  0  0  0  0  0  0  0  0  0  0  0
  -29.3450  -24.7502   14.4355 C   0  0  0  0  0  0  0  0  0  0  0  0
  -25.3275  -12.0786   20.2715 C   0  0  0  0  0  0  0  0  0  0  0  0
  -29.0983  -25.4308   12.2268 C   0  0  0  0  0  0  0  0  0  0  0  0
  -27.9065  -18.5502   20.6057 C   0  0  0  0  0  0  0  0  0  0  0  0
  -27.4299  -20.8124   19.5273 C   0  0  0  0  0  0  0  0  0  0  0  0
  -18.6820  -30.1318   23.9826 C   0  0  0  0  0  0  0  0  0  0  0  0
  -23.3622  -26.2699   19.8519 C   0  0  0  0  0  0  0  0  0  0  0  0
  -19.1664  -29.5792   22.7816 C   0  0  0  0  0  0  0  0  0  0  0  0
  -24.3277  -27.0513   19.2011 C   0  0  0  0  0  0  0  0  0  0  0  0
  -28.4485  -24.9677   13.3497 C   0  0  0  0  0  0  0  0  0  0  0  0
  -27.1758  -16.0704   21.6541 C   0  0  0  0  0  0  0  0  0  0  0  0
  -23.8483  -25.8888   17.1206 C   0  0  0  0  0  0  0  0  0  0  0  0
  -25.9023  -14.1056   21.4539 C   0  0  0  0  0  0  0  0  0  0  0  0
  -24.0526  -12.5862   20.0213 C   0  0  0  0  0  0  0  0  0  0  0  0
  -26.2524  -12.8384   20.9878 C   0  0  0  0  0  0  0  0  0  0  0  0
  -28.2843  -19.8311   20.0649 C   0  0  0  0  0  0  0  0  0  0  0  0
  -30.6462  -25.0552   14.1011 C   0  0  0  0  0  0  0  0  0  0  0  0
  -28.2705  -21.8328   19.1548 C   0  0  0  0  0  0  0  0  0  0  0  0
  -26.0040  -20.8024   19.3780 C   0  0  0  0  0  0  0  0  0  0  0  0
  -31.8687  -24.9678   14.9406 C   0  0  0  0  0  0  0  0  0  0  0  0
  -22.5437  -28.8937   21.4487 C   0  0  0  0  0  0  0  0  0  0  0  0
  -25.6863  -28.9143   22.2527 C   0  0  0  0  0  0  0  0  0  0  0  0
  -26.3017  -24.2773   14.4716 C   0  0  0  0  0  0  0  0  0  0  0  0
  -28.8759  -27.9631   21.4989 C   0  0  0  0  0  0  0  0  0  0  0  0
  -32.9191  -23.7007   16.7885 C   0  0  0  0  0  0  0  0  0  0  0  0
  -19.3798  -31.2815   24.6651 C   0  0  0  0  0  0  0  0  0  0  0  0
  -23.1110  -26.4403   21.3251 C   0  0  0  0  0  0  0  0  0  0  0  0
  -25.1205  -28.1031   19.9316 C   0  0  0  0  0  0  0  0  0  0  0  0
  -20.8225  -31.4773   24.2062 C   0  0  0  0  0  0  0  0  0  0  0  0
  -33.1841  -22.5794   20.1306 C   0  0  0  0  0  0  0  0  0  0  0  0
  -20.9109  -31.4213   22.6844 C   0  0  0  0  0  0  0  0  0  0  0  0
  -31.8595  -21.8509   20.3732 C   0  0  0  0  0  0  0  0  0  0  0  0
  -33.7063  -22.3506   18.7129 C   0  0  0  0  0  0  0  0  0  0  0  0
  -31.4293  -21.9182   17.8843 C   0  0  0  0  0  0  0  0  0  0  0  0
  -20.4596  -30.0545   22.1556 C   0  0  1  0  0  0  0  0  0  0  0  0
  -23.5140  -27.8169   21.8447 C   0  0  1  0  0  0  0  0  0  0  0  0
  -30.8266  -22.1745   19.2750 C   0  0  1  0  0  0  0  0  0  0  0  0
  -31.2377  -28.1617   22.3235 C   0  0  0  0  0  0  0  0  0  0  0  0
  -25.8028  -31.7833   21.2205 C   0  0  0  0  0  0  0  0  0  0  0  0
  -28.2989  -31.5933   21.1793 C   0  0  0  0  0  0  0  0  0  0  0  0
  -27.0694  -31.3848   23.3398 C   0  0  0  0  0  0  0  0  0  0  0  0
  -29.1298  -25.0330   21.8295 C   0  0  0  0  0  0  0  0  0  0  0  0
  -24.8287  -24.1776   14.0919 C   0  0  0  0  0  0  0  0  0  0  0  0
  -23.8917  -24.3953   15.2703 C   0  0  0  0  0  0  0  0  0  1  0  0
  -26.9393  -29.5058   21.6533 C   0  0  1  0  0  0  0  0  0  0  0  0
  -29.9649  -27.3297   22.3459 C   0  0  2  0  0  0  0  0  0  0  0  0
  -27.0114  -31.0484   21.8338 C   0  0  0  0  0  0  0  0  0  0  0  0
  -29.5691  -20.1953   20.0380 N   0  0  0  0  0  0  0  0  0  0  0  0
  -29.5282  -21.4168   19.4790 N   0  0  0  0  0  0  0  0  0  0  0  0
  -24.8342  -28.2360   21.3696 N   0  0  0  0  0  0  0  0  0  0  0  0
  -32.6726  -22.6890   17.7329 N   0  0  0  0  0  0  0  0  0  0  0  0
  -28.0490  -23.0363   18.5848 N   0  0  0  0  0  0  0  0  0  0  0  0
  -25.2945  -19.6749   19.8134 N   0  0  0  0  0  0  0  0  0  0  0  0
  -27.0522  -24.7415   13.3946 N   0  0  0  0  0  0  0  0  0  0  0  0
  -31.8542  -23.9785   15.9243 N   0  0  0  0  0  0  0  0  0  0  0  0
  -21.5043  -29.0704   22.3419 N   0  0  0  0  0  0  0  0  0  0  0  0
  -28.0574  -28.7816   22.2481 N   0  0  0  0  0  0  0  0  0  0  0  0
  -30.2865  -25.9651   21.8404 N   0  3  0  0  0  0  0  0  0  0  0  0
  -25.3792  -21.7581   18.8585 O   0  0  0  0  0  0  0  0  0  0  0  0
  -32.8108  -25.7194   14.7053 O   0  0  0  0  0  0  0  0  0  0  0  0
  -22.7255  -29.5189   20.4106 O   0  0  0  0  0  0  0  0  0  0  0  0
  -25.4750  -29.0430   23.4611 O   0  0  0  0  0  0  0  0  0  0  0  0
  -26.7099  -23.9752   15.5880 O   0  0  0  0  0  0  0  0  0  0  0  0
  -28.7649  -27.7556   20.2926 O   0  0  0  0  0  0  0  0  0  0  0  0
  -33.9814  -24.3290   16.7430 O   0  0  0  0  0  0  0  0  0  0  0  0
  -26.8191  -14.8607   22.1660 O   0  0  0  0  0  0  0  0  0  0  0  0
  -24.0839  -25.7094   15.7923 O   0  0  0  0  0  0  0  0  0  1  0  0
  -23.1639  -11.8562   19.3347 F   0  0  0  0  0  0  0  0  0  0  0  0
  -27.4754  -12.3450   21.2261 F   0  0  0  0  0  0  0  0  0  0  0  0
  -30.7827  -25.6015   12.4839 S   0  0  0  0  0  0  0  0  0  0  0  0
  1  2  1  0  0  0  0
  1  5  2  0  0  0  0
  2  6  2  0  0  0  0
  3  8  2  0  0  0  0
  3 17  1  0  0  0  0
  4  9  1  0  0  0  0
  4 17  2  0  0  0  0
  5 19  1  0  0  0  0
  6 21  1  0  0  0  0
  7 10  2  0  0  0  0
  7 20  1  0  0  0  0
  8 24  1  0  0  0  0
  9 24  2  0  0  0  0
 10 25  1  0  0  0  0
 11 12  2  0  0  0  0
 11 26  1  0  0  0  0
 12 27  1  0  0  0  0
 13 22  1  0  0  0  0
 13 25  2  0  0  0  0
 14 23  1  0  0  0  0
 14 30  2  0  0  0  0
 15 27  2  0  0  0  0
 15 28  1  0  0  0  0
 16 23  2  0  0  0  0
 16 83  1  0  0  0  0
 17 29  1  0  0  0  0
 18 29  1  0  0  0  0
 18 31  2  0  0  0  0
 18 32  1  0  0  0  0
 19 21  2  0  0  0  0
 19 39  1  0  0  0  0
 20 22  2  0  0  0  0
 20 40  1  0  0  0  0
 21 48  1  0  0  0  0
 22 41  1  0  0  0  0
 23 67  1  0  0  0  0
 24 79  1  0  0  0  0
 25 80  1  0  0  0  0
 26 28  2  0  0  0  0
 26 79  1  0  0  0  0
 27 81  1  0  0  0  0
 28 82  1  0  0  0  0
 29 61  2  0  0  0  0
 30 33  1  0  0  0  0
 30 83  1  0  0  0  0
 31 62  1  0  0  0  0
 31 65  1  0  0  0  0
 32 66  1  0  0  0  0
 32 72  2  0  0  0  0
 33 68  1  0  0  0  0
 33 73  2  0  0  0  0
 34 49  1  0  0  0  0
 34 69  1  0  0  0  0
 34 74  2  0  0  0  0
 35 58  1  0  0  0  0
 35 63  1  0  0  0  0
 35 75  2  0  0  0  0
 36 56  1  0  0  0  0
 36 67  1  0  0  0  0
 36 76  2  0  0  0  0
 37 59  1  0  0  0  0
 37 70  1  0  0  0  0
 37 77  2  0  0  0  0
 38 64  1  0  0  0  0
 38 68  1  0  0  0  0
 38 78  2  0  0  0  0
 39 42  1  0  0  0  0
 40 49  1  0  0  0  0
 41 63  1  0  0  0  0
 42 44  1  0  0  0  0
 43 45  1  0  0  0  0
 43 46  1  0  0  0  0
 44 48  1  0  0  0  0
 45 50  1  0  0  0  0
 46 64  1  0  0  0  0
 47 50  1  0  0  0  0
 47 64  1  0  0  0  0
 48 69  1  0  0  0  0
 49 63  1  0  0  0  0
 50 62  1  0  0  0  0
 51 59  1  0  0  0  0
 52 60  1  0  0  0  0
 53 60  1  0  0  0  0
 54 60  1  0  0  0  0
 55 71  1  0  0  0  0
 56 57  1  0  0  0  0
 57 80  1  0  0  0  0
 58 60  1  0  0  0  0
 58 70  1  0  0  0  0
 59 71  1  0  0  0  0
 61 62  1  0  0  0  0
M  CHG  1  71   1
M  ISO  4  38 100  57 101  68 100  80 101
M  END
> <Batch ID>
0158

> <Smiles>
CNC(C)C(=O)NC(C(=O)N1Cc2cc([101O:1][101CH2:1]CC(=O)Nc3csc(C(=O)[100NH:0][100C:0](=O)N4CCCC(n5nc(-c6ccc(Oc7ccc(F)cc7F)cc6)c(C(N)=O)c5N)C4)c3)ccc2CC1C(=O)NC1CCCc2ccccc21)C(C)(C)C

> <Shape>
0.213

> <Color>
0.075

> <Negative vol penalty>
0.000

$$$$

  -OEChem-04052303443D

 85 94  0     1  0  0  0  0  0999 V2000
  -26.9656  -37.8137   25.8617 C   0  0  0  0  0  0  0  0  0  0  0  0
  -27.1294  -36.4787   26.2172 C   0  0  0  0  0  0  0  0  0  0  0  0
  -22.6342  -11.2239   21.4576 C   0  0  0  0  0  0  0  0  0  0  0  0
  -24.3156   -9.6055   22.0828 C   0  0  0  0  0  0  0  0  0  0  0  0
  -25.9069  -38.1891   25.0357 C   0  0  0  0  0  0  0  0  0  0  0  0
  -26.2339  -35.5184   25.7478 C   0  0  0  0  0  0  0  0  0  0  0  0
  -29.9730  -19.6637   20.0646 C   0  0  0  0  0  0  0  0  0  0  0  0
  -28.5155  -29.9222   21.8276 C   0  0  0  0  0  0  0  0  0  0  0  0
  -29.9551  -18.2690   20.0661 C   0  0  0  0  0  0  0  0  0  0  0  0
  -21.8224  -10.7843   22.5033 C   0  0  0  0  0  0  0  0  0  0  0  0
  -23.5038   -9.1660   23.1285 C   0  0  0  0  0  0  0  0  0  0  0  0
  -28.9010  -28.7118   21.2511 C   0  0  0  0  0  0  0  0  0  0  0  0
  -20.7999   -7.1735   23.5150 C   0  0  0  0  0  0  0  0  0  0  0  0
  -20.6618   -5.7971   23.6937 C   0  0  0  0  0  0  0  0  0  0  0  0
  -26.5816  -28.0581   21.0472 C   0  0  0  0  0  0  0  0  0  0  0  0
  -27.5518  -18.3002   20.3116 C   0  0  0  0  0  0  0  0  0  0  0  0
  -21.5831   -5.9936   25.9185 C   0  0  0  0  0  0  0  0  0  0  0  0
  -23.8808  -10.6344   21.2473 C   0  0  0  0  0  0  0  0  0  0  0  0
  -24.4153  -11.0772   18.7926 C   0  0  0  0  0  0  0  0  0  0  0  0
  -25.0036  -37.2315   24.5480 C   0  0  0  0  0  0  0  0  0  0  0  0
  -27.1595  -30.2121   22.0022 C   0  0  0  0  0  0  0  0  0  0  0  0
  -25.1614  -35.8815   24.9156 C   0  0  0  0  0  0  0  0  0  0  0  0
  -28.7803  -20.3767   20.1866 C   0  0  0  0  0  0  0  0  0  0  0  0
  -26.1892  -29.2742   21.6127 C   0  0  0  0  0  0  0  0  0  0  0  0
  -28.7445  -17.5872   20.1896 C   0  0  0  0  0  0  0  0  0  0  0  0
  -27.5697  -19.6949   20.3101 C   0  0  0  0  0  0  0  0  0  0  0  0
  -22.2572   -9.7554   23.3387 C   0  0  0  0  0  0  0  0  0  0  0  0
  -27.9364  -27.7819   20.8621 C   0  0  0  0  0  0  0  0  0  0  0  0
  -21.3296   -7.9600   24.5380 C   0  0  0  0  0  0  0  0  0  0  0  0
  -21.0534   -5.2071   24.8955 C   0  0  0  0  0  0  0  0  0  0  0  0
  -21.7212   -7.3700   25.7397 C   0  0  0  0  0  0  0  0  0  0  0  0
  -24.7196  -11.0876   20.1670 C   0  0  0  0  0  0  0  0  0  0  0  0
  -25.5301  -11.6070   18.1901 C   0  0  0  0  0  0  0  0  0  0  0  0
  -29.4937  -24.5719   20.5978 C   0  0  0  0  0  0  0  0  0  0  0  0
  -23.2308  -10.6289   18.1206 C   0  0  0  0  0  0  0  0  0  0  0  0
  -24.5820  -32.6658   23.1904 C   0  0  0  0  0  0  0  0  0  0  0  0
  -23.5162  -31.4451   20.5857 C   0  0  0  0  0  0  0  0  0  0  0  0
  -21.9557  -30.8379   17.6136 C   0  0  0  0  0  0  0  0  0  0  0  0
  -29.8204  -15.3119   20.0802 C   0  0  0  0  0  0  0  0  0  0  0  0
  -23.8472  -37.6919   23.6964 C   0  0  0  0  0  0  0  0  0  0  0  0
  -26.7005  -31.4772   22.6751 C   0  0  0  0  0  0  0  0  0  0  0  0
  -24.7434  -29.6142   21.8516 C   0  0  0  0  0  0  0  0  0  0  0  0
  -29.8754  -23.9509   19.2717 C   0  0  0  0  0  0  0  0  0  0  0  0
  -23.1610  -36.5592   22.9371 C   0  0  0  0  0  0  0  0  0  0  0  0
  -29.9766  -22.4388   19.3323 C   0  0  0  0  0  0  0  0  0  0  0  0
  -30.2639  -12.0267   18.7812 C   0  0  0  0  0  0  0  0  0  0  0  0
  -22.9080  -35.3730   23.8621 C   0  0  0  0  0  0  0  0  0  0  0  0
  -28.8635  -11.4141   18.8584 C   0  0  0  0  0  0  0  0  0  0  0  0
  -28.9589  -22.4659   21.5954 C   0  0  0  0  0  0  0  0  0  0  0  0
  -30.5503  -12.9391   19.9725 C   0  0  0  0  0  0  0  0  0  0  0  0
  -28.1454  -13.3710   20.2875 C   0  0  0  0  0  0  0  0  0  0  0  0
  -28.8295  -21.8927   20.1817 C   0  0  2  0  0  0  0  0  0  0  0  0
  -24.2252  -34.8070   24.4064 C   0  0  1  0  0  0  0  0  0  0  0  0
  -25.3841  -32.0255   22.0958 C   0  0  1  0  0  0  0  0  0  0  0  0
  -27.7868  -12.4953   19.0758 C   0  0  2  0  0  0  0  0  0  0  0  0
  -19.6889  -30.8653   16.5373 C   0  0  0  0  0  0  0  0  0  0  0  0
  -22.8067  -28.8497   22.0225 C   0  0  0  0  0  0  0  0  0  0  0  0
  -21.0636  -28.4405   20.2725 C   0  0  0  0  0  0  0  0  0  0  0  0
  -20.9006  -30.4453   21.7480 C   0  0  0  0  0  0  0  0  0  0  0  0
  -22.7933  -32.8700   15.6316 C   0  0  0  0  0  0  0  0  0  0  0  0
  -29.5836  -26.0745   20.6928 C   0  0  0  0  0  0  0  0  0  1  0  0
  -22.6702  -30.3748   19.9437 C   0  0  1  0  0  0  0  0  0  0  0  0
  -20.9581  -31.6562   16.8138 C   0  0  2  0  0  0  0  0  0  0  0  0
  -21.8875  -29.5314   20.9894 C   0  0  0  0  0  0  0  0  0  0  0  0
  -25.9328  -11.5845   20.4228 N   0  0  0  0  0  0  0  0  0  0  0  0
  -29.0581  -23.9257   21.6220 N   0  0  0  0  0  0  0  0  0  0  0  0
  -26.4006  -11.8911   19.2008 N   0  0  0  0  0  0  0  0  0  0  0  0
  -24.4922  -31.0193   21.4949 N   0  0  0  0  0  0  0  0  0  0  0  0
  -29.4910  -13.9404   20.1139 N   0  0  0  0  0  0  0  0  0  0  0  0
  -26.3530  -20.4010   20.4356 N   0  0  0  0  0  0  0  0  0  0  0  0
  -25.8409  -11.8528   16.8996 N   0  0  0  0  0  0  0  0  0  0  0  0
  -22.1804  -10.1121   18.8913 N   0  0  0  0  0  0  0  0  0  0  0  0
  -28.7270  -16.1704   20.1915 N   0  0  0  0  0  0  0  0  0  0  0  0
  -24.8813  -33.9982   23.4015 N   0  0  0  0  0  0  0  0  0  0  0  0
  -21.8233  -31.0538   18.9690 N   0  0  0  0  0  0  0  0  0  0  0  0
  -21.5510  -32.0646   15.5089 N   0  3  0  0  0  0  0  0  0  0  0  0
  -23.1140  -10.6696   16.8723 O   0  0  0  0  0  0  0  0  0  0  0  0
  -23.7510  -32.0014   23.7984 O   0  0  0  0  0  0  0  0  0  0  0  0
  -23.3155  -32.6277   20.2951 O   0  0  0  0  0  0  0  0  0  0  0  0
  -22.7684  -30.0800   17.0887 O   0  0  0  0  0  0  0  0  0  0  0  0
  -30.9834  -15.6966   19.9340 O   0  0  0  0  0  0  0  0  0  0  0  0
  -21.4654   -9.3265   24.3593 O   0  0  0  0  0  0  0  0  0  0  0  0
  -28.3194  -26.6041   20.2958 O   0  0  0  0  0  0  0  0  0  1  0  0
  -20.9193   -3.8855   25.0676 F   0  0  0  0  0  0  0  0  0  0  0  0
  -22.2298   -8.1206   26.7266 F   0  0  0  0  0  0  0  0  0  0  0  0
  1  2  1  0  0  0  0
  1  5  2  0  0  0  0
  2  6  2  0  0  0  0
  3 10  2  0  0  0  0
  3 18  1  0  0  0  0
  4 11  1  0  0  0  0
  4 18  2  0  0  0  0
  5 20  1  0  0  0  0
  6 22  1  0  0  0  0
  7  9  2  0  0  0  0
  7 23  1  0  0  0  0
  8 12  2  0  0  0  0
  8 21  1  0  0  0  0
  9 25  1  0  0  0  0
 10 27  1  0  0  0  0
 11 27  2  0  0  0  0
 12 28  1  0  0  0  0
 13 14  2  0  0  0  0
 13 29  1  0  0  0  0
 14 30  1  0  0  0  0
 15 24  1  0  0  0  0
 15 28  2  0  0  0  0
 16 25  2  0  0  0  0
 16 26  1  0  0  0  0
 17 30  2  0  0  0  0
 17 31  1  0  0  0  0
 18 32  1  0  0  0  0
 19 32  1  0  0  0  0
 19 33  2  0  0  0  0
 19 35  1  0  0  0  0
 20 22  2  0  0  0  0
 20 40  1  0  0  0  0
 21 24  2  0  0  0  0
 21 41  1  0  0  0  0
 22 53  1  0  0  0  0
 23 26  2  0  0  0  0
 23 52  1  0  0  0  0
 24 42  1  0  0  0  0
 25 73  1  0  0  0  0
 26 70  1  0  0  0  0
 27 82  1  0  0  0  0
 28 83  1  0  0  0  0
 29 31  2  0  0  0  0
 29 82  1  0  0  0  0
 30 84  1  0  0  0  0
 31 85  1  0  0  0  0
 32 65  2  0  0  0  0
 33 67  1  0  0  0  0
 33 71  1  0  0  0  0
 34 43  1  0  0  0  0
 34 61  1  0  0  0  0
 34 66  2  0  0  0  0
 35 72  1  0  0  0  0
 35 77  2  0  0  0  0
 36 54  1  0  0  0  0
 36 74  1  0  0  0  0
 36 78  2  0  0  0  0
 37 62  1  0  0  0  0
 37 68  1  0  0  0  0
 37 79  2  0  0  0  0
 38 63  1  0  0  0  0
 38 75  1  0  0  0  0
 38 80  2  0  0  0  0
 39 69  1  0  0  0  0
 39 73  1  0  0  0  0
 39 81  2  0  0  0  0
 40 44  1  0  0  0  0
 41 54  1  0  0  0  0
 42 68  1  0  0  0  0
 43 45  1  0  0  0  0
 44 47  1  0  0  0  0
 45 52  1  0  0  0  0
 46 48  1  0  0  0  0
 46 50  1  0  0  0  0
 47 53  1  0  0  0  0
 48 55  1  0  0  0  0
 49 52  1  0  0  0  0
 49 66  1  0  0  0  0
 50 69  1  0  0  0  0
 51 55  1  0  0  0  0
 51 69  1  0  0  0  0
 53 74  1  0  0  0  0
 54 68  1  0  0  0  0
 55 67  1  0  0  0  0
 56 63  1  0  0  0  0
 57 64  1  0  0  0  0
 58 64  1  0  0  0  0
 59 64  1  0  0  0  0
 60 76  1  0  0  0  0
 61 83  1  0  0  0  0
 62 64  1  0  0  0  0
 62 75  1  0  0  0  0
 63 76  1  0  0  0  0
 65 67  1  0  0  0  0
M  CHG  1  76   1
M  ISO  4  39 100  61 101  73 100  83 101
M  END
> <Batch ID>
0158

> <Smiles>
CNC(C)C(=O)NC(C(=O)N1Cc2cc([101O:1][101CH2:1]C3=NCC(c4ccc([100NH:0][100C:0](=O)N5CCCC(n6nc(-c7ccc(Oc8ccc(F)cc8F)cc7)c(C(N)=O)c6N)C5)cc4N)CC3)ccc2CC1C(=O)NC1CCCc2ccccc21)C(C)(C)C

> <Shape>
0.344

> <Color>
0.086

> <Negative vol penalty>
0.000

$$$$

  -OEChem-04052303443D

 84 92  0     1  0  0  0  0  0999 V2000
  -24.5873  -31.3182   32.4282 C   0  0  0  0  0  0  0  0  0  0  0  0
  -24.9119  -30.1424   31.7593 C   0  0  0  0  0  0  0  0  0  0  0  0
  -23.2178   -9.7345   21.3775 C   0  0  0  0  0  0  0  0  0  0  0  0
  -23.8743  -10.6603   23.5104 C   0  0  0  0  0  0  0  0  0  0  0  0
  -23.6573  -32.1986   31.8769 C   0  0  0  0  0  0  0  0  0  0  0  0
  -24.3058  -29.8457   30.5390 C   0  0  0  0  0  0  0  0  0  0  0  0
  -26.8407  -26.9445   25.7784 C   0  0  0  0  0  0  0  0  0  0  0  0
  -22.5329   -8.7111   22.0325 C   0  0  0  0  0  0  0  0  0  0  0  0
  -23.1892   -9.6369   24.1654 C   0  0  0  0  0  0  0  0  0  0  0  0
  -26.7792  -25.6206   25.3459 C   0  0  0  0  0  0  0  0  0  0  0  0
  -23.2862   -5.7975   23.5712 C   0  0  0  0  0  0  0  0  0  0  0  0
  -23.4548   -4.4974   23.0948 C   0  0  0  0  0  0  0  0  0  0  0  0
  -25.0123  -26.2099   23.8129 C   0  0  0  0  0  0  0  0  0  0  0  0
  -29.6801  -19.5006   22.1372 C   0  0  0  0  0  0  0  0  0  0  0  0
  -21.0824   -4.3481   22.6625 C   0  0  0  0  0  0  0  0  0  0  0  0
  -23.8886  -10.7091   22.1165 C   0  0  0  0  0  0  0  0  0  0  0  0
  -24.0861  -13.0198   21.0537 C   0  0  0  0  0  0  0  0  0  0  0  0
  -23.0467  -31.9172   30.6445 C   0  0  0  0  0  0  0  0  0  0  0  0
  -25.9795  -27.9105   25.2384 C   0  0  0  0  0  0  0  0  0  0  0  0
  -23.3657  -30.7225   29.9713 C   0  0  0  0  0  0  0  0  0  0  0  0
  -25.0666  -27.5459   24.2385 C   0  0  0  0  0  0  0  0  0  0  0  0
  -29.4948  -18.5728   21.0845 C   0  0  0  0  0  0  0  0  0  0  0  0
  -22.5185   -8.6623   23.4265 C   0  0  0  0  0  0  0  0  0  0  0  0
  -25.8629  -25.2525   24.3650 C   0  0  0  0  0  0  0  0  0  0  0  0
  -22.0157   -6.3729   23.5934 C   0  0  0  0  0  0  0  0  0  0  0  0
  -22.3530   -3.7727   22.6404 C   0  0  0  0  0  0  0  0  0  0  0  0
  -20.9138   -5.6482   23.1390 C   0  0  0  0  0  0  0  0  0  0  0  0
  -24.5969  -11.7662   21.4404 C   0  0  0  0  0  0  0  0  0  0  0  0
  -28.2699  -18.8636   20.5303 C   0  0  0  0  0  0  0  0  0  0  0  0
  -25.1472  -13.6525   20.4535 C   0  0  0  0  0  0  0  0  0  0  0  0
  -28.5554  -20.2923   22.1511 C   0  0  0  0  0  0  0  0  0  0  0  0
  -22.7703  -13.5637   21.2221 C   0  0  0  0  0  0  0  0  0  0  0  0
  -27.5560  -18.2756   19.4477 C   0  0  0  0  0  0  0  0  0  0  0  0
  -23.7017  -29.7919   26.4113 C   0  0  0  0  0  0  0  0  0  0  0  0
  -23.7226  -31.0303   23.4132 C   0  0  0  0  0  0  0  0  0  0  0  0
  -27.0124  -22.1269   22.9175 C   0  0  0  0  0  0  0  0  0  0  0  0
  -24.4269  -30.5929   20.1027 C   0  0  0  0  0  0  0  0  0  0  0  0
  -30.5478  -15.0547   20.3423 C   0  0  0  0  0  0  0  0  0  0  0  0
  -22.0122  -32.8764   30.1111 C   0  0  0  0  0  0  0  0  0  0  0  0
  -26.0767  -29.3399   25.6966 C   0  0  0  0  0  0  0  0  0  0  0  0
  -24.1339  -28.5491   23.6121 C   0  0  0  0  0  0  0  0  0  0  0  0
  -21.6941  -32.6688   28.6326 C   0  0  0  0  0  0  0  0  0  0  0  0
  -29.6588  -11.8715   19.0181 C   0  0  0  0  0  0  0  0  0  0  0  0
  -21.4810  -31.1879   28.3352 C   0  0  0  0  0  0  0  0  0  0  0  0
  -28.2235  -11.6614   19.5035 C   0  0  0  0  0  0  0  0  0  0  0  0
  -30.5076  -12.5938   20.0621 C   0  0  0  0  0  0  0  0  0  0  0  0
  -28.5069  -13.6566   21.0323 C   0  0  0  0  0  0  0  0  0  0  0  0
  -22.7481  -30.3774   28.6336 C   0  0  1  0  0  0  0  0  0  0  0  0
  -24.7999  -30.1361   25.4453 C   0  0  1  0  0  0  0  0  0  0  0  0
  -27.5975  -12.9818   19.9912 C   0  0  2  0  0  0  0  0  0  0  0  0
  -26.1998  -18.8441   19.0813 C   0  0  0  0  0  0  0  0  0  0  0  0
  -24.3010  -31.7695   17.8898 C   0  0  0  0  0  0  0  0  0  0  0  0
  -20.7154  -30.5232   23.3176 C   0  0  0  0  0  0  0  0  0  0  0  0
  -20.8166  -30.8093   20.8324 C   0  0  0  0  0  0  0  0  0  0  0  0
  -21.4373  -32.7047   22.3306 C   0  0  0  0  0  0  0  0  0  0  0  0
  -27.3603  -30.4588   19.7333 C   0  0  0  0  0  0  0  0  0  0  0  0
  -30.4324  -17.5118   20.6718 C   0  0  0  0  0  0  0  0  0  0  0  0
  -27.0086  -23.2029   23.9873 C   0  0  0  0  0  0  0  0  0  1  0  0
  -22.9966  -30.7252   22.1253 C   0  0  1  0  0  0  0  0  0  0  0  0
  -25.1638  -31.4686   19.1054 C   0  0  2  0  0  0  0  0  0  0  0  0
  -21.5076  -31.1710   22.1645 C   0  0  0  0  0  0  0  0  0  0  0  0
  -25.8824  -11.6099   21.1132 N   0  0  0  0  0  0  0  0  0  0  0  0
  -26.1883  -12.7735   20.5145 N   0  0  0  0  0  0  0  0  0  0  0  0
  -24.2630  -29.9328   24.0982 N   0  0  0  0  0  0  0  0  0  0  0  0
  -29.8589  -13.8385   20.4813 N   0  0  0  0  0  0  0  0  0  0  0  0
  -25.2819  -14.8693   19.8847 N   0  0  0  0  0  0  0  0  0  0  0  0
  -21.7998  -12.7794   21.8604 N   0  0  0  0  0  0  0  0  0  0  0  0
  -28.1832  -21.3788   22.9778 N   0  0  0  0  0  0  0  0  0  0  0  0
  -23.7162  -30.5435   27.5707 N   0  0  0  0  0  0  0  0  0  0  0  0
  -23.7778  -31.3438   21.0598 N   0  0  0  0  0  0  0  0  0  0  0  0
  -29.8586  -16.1874   20.7578 N   0  0  0  0  0  0  0  0  0  0  0  0
  -26.4084  -30.7922   18.6425 N   0  3  0  0  0  0  0  0  0  0  0  0
  -22.4597  -14.7048   20.8039 O   0  0  0  0  0  0  0  0  0  0  0  0
  -27.9381  -17.3102   18.7508 O   0  0  0  0  0  0  0  0  0  0  0  0
  -22.8996  -28.9107   26.1251 O   0  0  0  0  0  0  0  0  0  0  0  0
  -23.8134  -32.2002   23.7937 O   0  0  0  0  0  0  0  0  0  0  0  0
  -26.0749  -21.9926   22.1379 O   0  0  0  0  0  0  0  0  0  0  0  0
  -24.4242  -29.3657   20.0370 O   0  0  0  0  0  0  0  0  0  0  0  0
  -31.6904  -15.1264   19.8771 O   0  0  0  0  0  0  0  0  0  0  0  0
  -27.6909  -19.9105   21.1746 O   0  0  0  0  0  0  0  0  0  0  0  0
  -21.8500   -7.6639   24.0659 O   0  0  0  0  0  0  0  0  0  0  0  0
  -25.8003  -23.9608   23.9414 O   0  0  0  0  0  0  0  0  0  1  0  0
  -22.5153   -2.5248   22.1815 F   0  0  0  0  0  0  0  0  0  0  0  0
  -19.6910   -6.1961   23.1568 F   0  0  0  0  0  0  0  0  0  0  0  0
  1  2  1  0  0  0  0
  1  5  2  0  0  0  0
  2  6  2  0  0  0  0
  3  8  2  0  0  0  0
  3 16  1  0  0  0  0
  4  9  1  0  0  0  0
  4 16  2  0  0  0  0
  5 18  1  0  0  0  0
  6 20  1  0  0  0  0
  7 10  2  0  0  0  0
  7 19  1  0  0  0  0
  8 23  1  0  0  0  0
  9 23  2  0  0  0  0
 10 24  1  0  0  0  0
 11 12  2  0  0  0  0
 11 25  1  0  0  0  0
 12 26  1  0  0  0  0
 13 21  1  0  0  0  0
 13 24  2  0  0  0  0
 14 22  1  0  0  0  0
 14 31  2  0  0  0  0
 15 26  2  0  0  0  0
 15 27  1  0  0  0  0
 16 28  1  0  0  0  0
 17 28  1  0  0  0  0
 17 30  2  0  0  0  0
 17 32  1  0  0  0  0
 18 20  2  0  0  0  0
 18 39  1  0  0  0  0
 19 21  2  0  0  0  0
 19 40  1  0  0  0  0
 20 48  1  0  0  0  0
 21 41  1  0  0  0  0
 22 29  2  0  0  0  0
 22 57  1  0  0  0  0
 23 81  1  0  0  0  0
 24 82  1  0  0  0  0
 25 27  2  0  0  0  0
 25 81  1  0  0  0  0
 26 83  1  0  0  0  0
 27 84  1  0  0  0  0
 28 62  2  0  0  0  0
 29 33  1  0  0  0  0
 29 80  1  0  0  0  0
 30 63  1  0  0  0  0
 30 66  1  0  0  0  0
 31 68  1  0  0  0  0
 31 80  1  0  0  0  0
 32 67  1  0  0  0  0
 32 73  2  0  0  0  0
 33 51  1  0  0  0  0
 33 74  2  0  0  0  0
 34 49  1  0  0  0  0
 34 69  1  0  0  0  0
 34 75  2  0  0  0  0
 35 59  1  0  0  0  0
 35 64  1  0  0  0  0
 35 76  2  0  0  0  0
 36 58  1  0  0  0  0
 36 68  1  0  0  0  0
 36 77  2  0  0  0  0
 37 60  1  0  0  0  0
 37 70  1  0  0  0  0
 37 78  2  0  0  0  0
 38 65  1  0  0  0  0
 38 71  1  0  0  0  0
 38 79  2  0  0  0  0
 39 42  1  0  0  0  0
 40 49  1  0  0  0  0
 41 64  1  0  0  0  0
 42 44  1  0  0  0  0
 43 45  1  0  0  0  0
 43 46  1  0  0  0  0
 44 48  1  0  0  0  0
 45 50  1  0  0  0  0
 46 65  1  0  0  0  0
 47 50  1  0  0  0  0
 47 65  1  0  0  0  0
 48 69  1  0  0  0  0
 49 64  1  0  0  0  0
 50 63  1  0  0  0  0
 52 60  1  0  0  0  0
 53 61  1  0  0  0  0
 54 61  1  0  0  0  0
 55 61  1  0  0  0  0
 56 72  1  0  0  0  0
 57 71  1  0  0  0  0
 58 82  1  0  0  0  0
 59 61  1  0  0  0  0
 59 70  1  0  0  0  0
 60 72  1  0  0  0  0
 62 63  1  0  0  0  0
M  CHG  1  72   1
M  ISO  4  38 100  58 101  71 100  82 101
M  END
> <Batch ID>
0158

> <Smiles>
CNC(C)C(=O)NC(C(=O)N1Cc2cc([101O:1][101CH2:1]C(=O)Nc3cc(C[100NH:0][100C:0](=O)N4CCCC(n5nc(-c6ccc(Oc7ccc(F)cc7F)cc6)c(C(N)=O)c5N)C4)c(C(C)=O)o3)ccc2CC1C(=O)NC1CCCc2ccccc21)C(C)(C)C

> <Shape>
0.249

> <Color>
0.162

> <Negative vol penalty>
0.000

$$$$

  -OEChem-04052303443D

 87 95  0     1  0  0  0  0  0999 V2000
  -17.3016  -23.8694   23.8172 C   0  0  0  0  0  0  0  0  0  0  0  0
  -18.5699  -23.3847   24.1207 C   0  0  0  0  0  0  0  0  0  0  0  0
  -22.9378   -9.9766   20.0264 C   0  0  0  0  0  0  0  0  0  0  0  0
  -23.6870  -10.0156   22.3230 C   0  0  0  0  0  0  0  0  0  0  0  0
  -17.1633  -25.0722   23.1257 C   0  0  0  0  0  0  0  0  0  0  0  0
  -19.7006  -24.1021   23.7319 C   0  0  0  0  0  0  0  0  0  0  0  0
  -24.9967  -24.5583   26.7733 C   0  0  0  0  0  0  0  0  0  0  0  0
  -22.1561   -8.8543   20.3005 C   0  0  0  0  0  0  0  0  0  0  0  0
  -22.9054   -8.8933   22.5971 C   0  0  0  0  0  0  0  0  0  0  0  0
  -26.2165  -23.8971   26.6371 C   0  0  0  0  0  0  0  0  0  0  0  0
  -23.0920   -5.5510   22.1225 C   0  0  0  0  0  0  0  0  0  0  0  0
  -23.6710   -4.5245   22.8685 C   0  0  0  0  0  0  0  0  0  0  0  0
  -27.0449  -25.7161   25.2865 C   0  0  0  0  0  0  0  0  0  0  0  0
  -21.9683   -4.7942   24.5611 C   0  0  0  0  0  0  0  0  0  0  0  0
  -23.7033  -10.5572   21.0377 C   0  0  0  0  0  0  0  0  0  0  0  0
  -24.1265  -13.0664   20.8579 C   0  0  0  0  0  0  0  0  0  0  0  0
  -18.2928  -25.8095   22.7367 C   0  0  0  0  0  0  0  0  0  0  0  0
  -24.7877  -25.8005   26.1570 C   0  0  0  0  0  0  0  0  0  0  0  0
  -19.5774  -25.3152   23.0334 C   0  0  0  0  0  0  0  0  0  0  0  0
  -25.8224  -26.3922   25.4185 C   0  0  0  0  0  0  0  0  0  0  0  0
  -22.1399   -8.3126   21.5858 C   0  0  0  0  0  0  0  0  0  0  0  0
  -27.2398  -24.4746   25.8912 C   0  0  0  0  0  0  0  0  0  0  0  0
  -21.9512   -6.1992   22.5958 C   0  0  0  0  0  0  0  0  0  0  0  0
  -23.1091   -4.1460   24.0878 C   0  0  0  0  0  0  0  0  0  0  0  0
  -21.3893   -5.8208   23.8151 C   0  0  0  0  0  0  0  0  0  0  0  0
  -24.5114  -11.7162   20.7551 C   0  0  0  0  0  0  0  0  0  0  0  0
  -31.9431  -18.6047   22.1661 C   0  0  0  0  0  0  0  0  0  0  0  0
  -25.2438  -13.7714   20.4823 C   0  0  0  0  0  0  0  0  0  0  0  0
  -30.8505  -19.0251   22.8952 C   0  0  0  0  0  0  0  0  0  0  0  0
  -30.6498  -16.8605   21.8576 C   0  0  0  0  0  0  0  0  0  0  0  0
  -28.4323  -22.5949   25.1732 C   0  0  0  0  0  0  0  0  0  1  0  0
  -22.8714  -13.6327   21.2574 C   0  0  0  0  0  0  0  0  0  0  0  0
  -29.5448  -21.8735   24.9902 C   0  0  0  0  0  0  0  0  0  0  0  0
  -29.4397  -20.5270   24.3389 C   0  0  0  0  0  0  0  0  0  0  0  0
  -22.7914  -26.8968   23.9396 C   0  0  0  0  0  0  0  0  0  0  0  0
  -24.1397  -29.7494   24.6928 C   0  0  0  0  0  0  0  0  0  0  0  0
  -26.8136  -31.4432   25.9688 C   0  0  0  0  0  0  0  0  0  0  0  0
  -30.7399  -14.6456   20.6607 C   0  0  0  0  0  0  0  0  0  0  0  0
  -18.0942  -27.0806   21.9497 C   0  0  0  0  0  0  0  0  0  0  0  0
  -23.4753  -26.5132   26.3357 C   0  0  0  0  0  0  0  0  0  0  0  0
  -25.6556  -27.7335   24.7539 C   0  0  0  0  0  0  0  0  0  0  0  0
  -19.3355  -27.9679   21.9022 C   0  0  0  0  0  0  0  0  0  0  0  0
  -29.5594  -12.2114   18.3460 C   0  0  0  0  0  0  0  0  0  0  0  0
  -20.5725  -27.1382   21.5732 C   0  0  0  0  0  0  0  0  0  0  0  0
  -28.1092  -11.9766   18.7749 C   0  0  0  0  0  0  0  0  0  0  0  0
  -30.4759  -12.4401   19.5466 C   0  0  0  0  0  0  0  0  0  0  0  0
  -28.5869  -13.2588   20.8996 C   0  0  0  0  0  0  0  0  0  0  0  0
  -20.8276  -26.0770   22.6504 C   0  0  1  0  0  0  0  0  0  0  0  0
  -23.1962  -27.5354   25.2381 C   0  0  1  0  0  0  0  0  0  0  0  0
  -27.6144  -13.0880   19.7212 C   0  0  2  0  0  0  0  0  0  0  0  0
  -27.6392  -33.7699   26.4188 C   0  0  0  0  0  0  0  0  0  0  0  0
  -33.4528  -19.0320   19.4730 C   0  0  0  0  0  0  0  0  0  0  0  0
  -32.2024  -21.0266   20.2983 C   0  0  0  0  0  0  0  0  0  0  0  0
  -34.6921  -20.9007   20.5665 C   0  0  0  0  0  0  0  0  0  0  0  0
  -24.7389  -30.1087   21.7226 C   0  0  0  0  0  0  0  0  0  0  0  0
  -26.3547  -31.9190   22.3389 C   0  0  0  0  0  0  0  0  0  0  0  0
  -23.9333  -32.1732   22.8815 C   0  0  0  0  0  0  0  0  0  0  0  0
  -26.9948  -30.9406   28.8797 C   0  0  0  0  0  0  0  0  0  0  0  0
  -33.2001  -19.3564   21.9721 C   0  0  0  0  0  0  0  0  0  0  0  0
  -25.3331  -30.5313   24.1994 C   0  0  1  0  0  0  0  0  0  0  0  0
  -26.9022  -32.5666   26.9860 C   0  0  2  0  0  0  0  0  0  0  0  0
  -33.3854  -20.0890   20.5956 C   0  0  0  0  0  0  0  0  0  0  0  0
  -25.0928  -31.1569   22.7964 C   0  0  0  0  0  0  0  0  0  0  0  0
  -25.7744  -11.5697   20.3460 N   0  0  0  0  0  0  0  0  0  0  0  0
  -31.8300  -17.3635   21.5707 N   0  0  0  0  0  0  0  0  0  0  0  0
  -26.1929  -12.8370   20.1885 N   0  0  0  0  0  0  0  0  0  0  0  0
  -24.3519  -28.3880   24.9527 N   0  0  0  0  0  0  0  0  0  0  0  0
  -29.9463  -13.5095   20.3956 N   0  0  0  0  0  0  0  0  0  0  0  0
  -25.4972  -15.0933   20.3780 N   0  0  0  0  0  0  0  0  0  0  0  0
  -21.8293  -12.7649   21.6113 N   0  0  0  0  0  0  0  0  0  0  0  0
  -30.5902  -20.2058   23.6318 N   0  0  0  0  0  0  0  0  0  0  0  0
  -30.1189  -15.6106   21.4529 N   0  0  0  0  0  0  0  0  0  0  0  0
  -21.4322  -26.6789   23.8195 N   0  0  0  0  0  0  0  0  0  0  0  0
  -25.6435  -31.5036   25.2419 N   0  0  0  0  0  0  0  0  0  0  0  0
  -27.6239  -32.1054   28.2056 N   0  3  0  0  0  0  0  0  0  0  0  0
  -22.6745  -14.8713   21.2834 O   0  0  0  0  0  0  0  0  0  0  0  0
  -28.4271  -19.8459   24.4600 O   0  0  0  0  0  0  0  0  0  0  0  0
  -23.6487  -26.6235   23.1077 O   0  0  0  0  0  0  0  0  0  0  0  0
  -23.0609  -30.3268   24.8489 O   0  0  0  0  0  0  0  0  0  0  0  0
  -27.6960  -30.5990   25.8303 O   0  0  0  0  0  0  0  0  0  0  0  0
  -31.8760  -14.7666   20.1952 O   0  0  0  0  0  0  0  0  0  0  0  0
  -30.7917  -22.3210   25.3772 O   0  0  0  0  0  0  0  0  0  0  0  0
  -21.3771   -7.2177   21.8536 O   0  0  0  0  0  0  0  0  0  0  0  0
  -28.4312  -23.8310   25.7561 O   0  0  0  0  0  0  0  0  0  1  0  0
  -23.6643   -3.1592   24.8034 F   0  0  0  0  0  0  0  0  0  0  0  0
  -20.2927   -6.4391   24.2744 F   0  0  0  0  0  0  0  0  0  0  0  0
  -29.6252  -17.8265   22.8384 S   0  0  0  0  0  0  0  0  0  0  0  0
  1  2  1  0  0  0  0
  1  5  2  0  0  0  0
  2  6  2  0  0  0  0
  3  8  2  0  0  0  0
  3 15  1  0  0  0  0
  4  9  1  0  0  0  0
  4 15  2  0  0  0  0
  5 17  1  0  0  0  0
  6 19  1  0  0  0  0
  7 10  2  0  0  0  0
  7 18  1  0  0  0  0
  8 21  1  0  0  0  0
  9 21  2  0  0  0  0
 10 22  1  0  0  0  0
 11 12  2  0  0  0  0
 11 23  1  0  0  0  0
 12 24  1  0  0  0  0
 13 20  1  0  0  0  0
 13 22  2  0  0  0  0
 14 24  2  0  0  0  0
 14 25  1  0  0  0  0
 15 26  1  0  0  0  0
 16 26  1  0  0  0  0
 16 28  2  0  0  0  0
 16 32  1  0  0  0  0
 17 19  2  0  0  0  0
 17 39  1  0  0  0  0
 18 20  2  0  0  0  0
 18 40  1  0  0  0  0
 19 48  1  0  0  0  0
 20 41  1  0  0  0  0
 21 83  1  0  0  0  0
 22 84  1  0  0  0  0
 23 25  2  0  0  0  0
 23 83  1  0  0  0  0
 24 85  1  0  0  0  0
 25 86  1  0  0  0  0
 26 64  2  0  0  0  0
 27 29  2  0  0  0  0
 27 59  1  0  0  0  0
 27 65  1  0  0  0  0
 28 66  1  0  0  0  0
 28 69  1  0  0  0  0
 29 71  1  0  0  0  0
 29 87  1  0  0  0  0
 30 65  2  0  0  0  0
 30 72  1  0  0  0  0
 30 87  1  0  0  0  0
 31 33  2  0  0  0  0
 31 84  1  0  0  0  0
 32 70  1  0  0  0  0
 32 76  2  0  0  0  0
 33 34  1  0  0  0  0
 33 82  1  0  0  0  0
 34 71  1  0  0  0  0
 34 77  2  0  0  0  0
 35 49  1  0  0  0  0
 35 73  1  0  0  0  0
 35 78  2  0  0  0  0
 36 60  1  0  0  0  0
 36 67  1  0  0  0  0
 36 79  2  0  0  0  0
 37 61  1  0  0  0  0
 37 74  1  0  0  0  0
 37 80  2  0  0  0  0
 38 68  1  0  0  0  0
 38 72  1  0  0  0  0
 38 81  2  0  0  0  0
 39 42  1  0  0  0  0
 40 49  1  0  0  0  0
 41 67  1  0  0  0  0
 42 44  1  0  0  0  0
 43 45  1  0  0  0  0
 43 46  1  0  0  0  0
 44 48  1  0  0  0  0
 45 50  1  0  0  0  0
 46 68  1  0  0  0  0
 47 50  1  0  0  0  0
 47 68  1  0  0  0  0
 48 73  1  0  0  0  0
 49 67  1  0  0  0  0
 50 66  1  0  0  0  0
 51 61  1  0  0  0  0
 52 62  1  0  0  0  0
 53 62  1  0  0  0  0
 54 62  1  0  0  0  0
 55 63  1  0  0  0  0
 56 63  1  0  0  0  0
 57 63  1  0  0  0  0
 58 75  1  0  0  0  0
 59 62  1  0  0  0  0
 60 63  1  0  0  0  0
 60 74  1  0  0  0  0
 61 75  1  0  0  0  0
 64 66  1  0  0  0  0
M  CHG  1  75   1
M  ISO  4  31 101  38 100  72 100  84 101
M  END
> <Batch ID>
0158

> <Smiles>
CNC(C)C(=O)NC(C(=O)N1Cc2cc([101O:1][101CH2:1]C(=O)C(=O)Nc3sc([100NH:0][100C:0](=O)N4CCCC(n5nc(-c6ccc(Oc7ccc(F)cc7F)cc6)c(C(N)=O)c5N)C4)nc3CC(C)(C)C)ccc2CC1C(=O)NC1CCCc2ccccc21)C(C)(C)C

> <Shape>
0.296

> <Color>
0.193

> <Negative vol penalty>
0.000

$$$$

  -OEChem-04052303443D

 90100  0     1  0  0  0  0  0999 V2000
  -24.0134  -25.6401   16.3654 C   0  0  0  0  0  0  0  0  0  0  0  0
  -29.4836  -10.9714   20.4581 C   0  0  0  0  0  0  0  0  0  0  0  0
  -24.7669  -24.4710   16.3369 C   0  0  0  0  0  0  0  0  0  0  0  0
  -29.5744  -11.1063   19.0635 C   0  0  0  0  0  0  0  0  0  0  0  0
  -26.3785  -28.3548   19.0958 C   0  0  0  0  0  0  0  0  0  0  0  0
  -26.0912  -27.5931   21.3705 C   0  0  0  0  0  0  0  0  0  0  0  0
  -23.2501  -25.9490   17.4905 C   0  0  0  0  0  0  0  0  0  0  0  0
  -29.5118  -12.0956   21.2858 C   0  0  0  0  0  0  0  0  0  0  0  0
  -24.7584  -23.6105   17.4341 C   0  0  0  0  0  0  0  0  0  0  0  0
  -29.6918  -12.3679   18.4759 C   0  0  0  0  0  0  0  0  0  0  0  0
  -25.1150  -17.4977   17.3218 C   0  0  0  0  0  0  0  0  0  0  0  0
  -25.3117  -29.2389   19.2571 C   0  0  0  0  0  0  0  0  0  0  0  0
  -25.0244  -28.4772   21.5319 C   0  0  0  0  0  0  0  0  0  0  0  0
  -26.1786  -16.6166   17.5120 C   0  0  0  0  0  0  0  0  0  0  0  0
  -24.5934  -31.7788   22.1097 C   0  0  0  0  0  0  0  0  0  0  0  0
  -24.5489  -32.5310   23.2835 C   0  0  0  0  0  0  0  0  0  0  0  0
  -25.5408  -16.3554   19.8238 C   0  0  0  0  0  0  0  0  0  0  0  0
  -22.4135  -31.5446   23.8347 C   0  0  0  0  0  0  0  0  0  0  0  0
  -26.7682  -27.5318   20.1525 C   0  0  0  0  0  0  0  0  0  0  0  0
  -29.2021  -26.9417   19.6673 C   0  0  0  0  0  0  0  0  0  0  0  0
  -23.2247  -25.0871   18.5983 C   0  0  0  0  0  0  0  0  0  0  0  0
  -24.2615  -17.8234   18.3857 C   0  0  0  0  0  0  0  0  0  0  0  0
  -29.6318  -13.3409   20.6942 C   0  0  0  0  0  0  0  0  0  0  0  0
  -23.9952  -23.9088   18.5757 C   0  0  0  0  0  0  0  0  0  0  0  0
  -29.7152  -13.4787   19.3036 C   0  0  0  0  0  0  0  0  0  0  0  0
  -24.4656  -17.2390   19.6438 C   0  0  0  0  0  0  0  0  0  0  0  0
  -24.6347  -29.3001   20.4752 C   0  0  0  0  0  0  0  0  0  0  0  0
  -26.3933  -16.0475   18.7639 C   0  0  0  0  0  0  0  0  0  0  0  0
  -23.5479  -30.9095   21.7983 C   0  0  0  0  0  0  0  0  0  0  0  0
  -23.4590  -32.4139   24.1460 C   0  0  0  0  0  0  0  0  0  0  0  0
  -22.4579  -30.7924   22.6609 C   0  0  0  0  0  0  0  0  0  0  0  0
  -27.8697  -26.6180   19.9863 C   0  0  0  0  0  0  0  0  0  0  0  0
  -29.8490  -25.7308   19.6255 C   0  0  0  0  0  0  0  0  0  0  0  0
  -29.8014  -28.2224   19.4300 C   0  0  0  0  0  0  0  0  0  0  0  0
  -30.2906  -16.9214   20.4993 C   0  0  0  0  0  0  0  0  0  0  0  0
  -23.5185  -20.5026   19.9262 C   0  0  0  0  0  0  0  0  0  0  0  0
  -28.6248  -20.5688   22.2958 C   0  0  0  0  0  0  0  0  0  0  0  0
  -21.3493  -18.5932   21.3997 C   0  0  0  0  0  0  0  0  0  0  0  0
  -21.2721  -15.2472   22.7471 C   0  0  0  0  0  0  0  0  0  0  0  0
  -22.4217  -25.4867   19.8107 C   0  0  0  0  0  0  0  0  0  0  0  0
  -23.1028  -18.7549   18.1574 C   0  0  0  0  0  0  0  0  0  0  0  0
  -29.6899  -14.6764   21.3535 C   0  0  0  0  0  0  0  0  0  0  0  0
  -23.5657  -17.5401   20.8135 C   0  0  0  0  0  0  0  0  0  0  0  0
  -22.1728  -24.3363   20.7828 C   0  0  0  0  0  0  0  0  0  0  0  0
  -29.0903  -21.1001   18.7282 C   0  0  0  0  0  0  0  0  0  0  0  0
  -23.4623  -23.5609   21.0335 C   0  0  0  0  0  0  0  0  0  0  0  0
  -28.9209  -22.6149   18.6201 C   0  0  0  0  0  0  0  0  0  0  0  0
  -32.3366  -18.5748   22.7531 C   0  0  0  0  0  0  0  0  0  0  0  0
  -28.1733  -20.5075   19.7950 C   0  0  0  0  0  0  0  0  0  0  0  0
  -31.0402  -19.3096   23.0366 C   0  0  0  0  0  0  0  0  0  0  0  0
  -28.1644  -22.6482   21.0366 C   0  0  0  0  0  0  0  0  0  0  0  0
  -23.9924  -22.9378   19.7365 C   0  0  1  0  0  0  0  0  0  0  0  0
  -29.8226  -14.9318   18.9260 C   0  0  1  0  0  0  0  0  0  0  0  0
  -30.4281  -17.3202   21.9326 C   0  0  1  0  0  0  0  0  0  0  0  0
  -22.6043  -19.4139   19.4398 C   0  0  1  0  0  0  0  0  0  0  0  0
  -29.0940  -23.2889   19.9925 C   0  0  2  0  0  0  0  0  0  0  0  0
  -31.8540  -17.1726   22.4498 C   0  0  0  0  0  0  0  0  0  0  0  0
  -19.3575  -13.6528   23.0465 C   0  0  0  0  0  0  0  0  0  0  0  0
  -21.1972  -19.7589   24.2154 C   0  0  0  0  0  0  0  0  0  0  0  0
  -20.6734  -17.4620   25.0628 C   0  0  0  0  0  0  0  0  0  0  0  0
  -19.1240  -18.5817   23.4603 C   0  0  0  0  0  0  0  0  0  0  0  0
  -22.6434  -13.1284   21.2015 C   0  0  0  0  0  0  0  0  0  0  0  0
  -28.7531  -19.0666   22.2691 C   0  0  0  0  0  0  0  0  0  0  0  0
  -28.5911  -15.3825   18.1446 C   0  0  0  0  0  0  0  0  0  1  0  0
  -21.3542  -17.7241   22.6340 C   0  0  1  0  0  0  0  0  0  0  0  0
  -20.5347  -14.0521   22.1705 C   0  0  2  0  0  0  0  0  0  0  0  0
  -20.6110  -18.3866   23.8283 C   0  0  0  0  0  0  0  0  0  0  0  0
  -27.6799  -25.3044   20.1364 N   0  0  0  0  0  0  0  0  0  0  0  0
  -28.9016  -24.7920   19.9106 N   0  0  0  0  0  0  0  0  0  0  0  0
  -29.9319  -15.6073   20.2427 N   0  0  0  0  0  0  0  0  0  0  0  0
  -22.4503  -18.4617   20.5416 N   0  0  0  0  0  0  0  0  0  0  0  0
  -28.3487  -21.1948   21.0800 N   0  0  0  0  0  0  0  0  0  0  0  0
  -30.1534  -18.7627   22.0057 N   0  0  1  0  0  0  0  0  0  0  0  0
  -31.1301  -25.3881   19.3730 N   0  0  0  0  0  0  0  0  0  0  0  0
  -30.3438  -28.9182   20.5190 N   0  0  0  0  0  0  0  0  0  0  0  0
  -23.2374  -21.7496   19.4011 N   0  0  0  0  0  0  0  0  0  0  0  0
  -20.8034  -16.4356   22.2281 N   0  0  0  0  0  0  0  0  0  0  0  0
  -21.4524  -12.8836   22.0551 N   0  3  0  0  0  0  0  0  0  0  0  0
  -29.8397  -28.7418   18.2889 O   0  0  0  0  0  0  0  0  0  0  0  0
  -30.5076  -17.7522   19.6131 O   0  0  0  0  0  0  0  0  0  0  0  0
  -24.4117  -20.2318   20.7202 O   0  0  0  0  0  0  0  0  0  0  0  0
  -28.7686  -21.1664   23.3655 O   0  0  0  0  0  0  0  0  0  0  0  0
  -20.4001  -19.3554   21.2005 O   0  0  0  0  0  0  0  0  0  0  0  0
  -22.1712  -15.1377   23.5779 O   0  0  0  0  0  0  0  0  0  0  0  0
  -23.5939  -30.1628   20.6330 O   0  0  0  0  0  0  0  0  0  0  0  0
  -27.4310  -15.1876   18.9525 O   0  0  0  0  0  0  0  0  0  1  0  0
  -23.4171  -33.1351   25.2739 F   0  0  0  0  0  0  0  0  0  0  0  0
  -21.4511  -29.9580   22.3677 F   0  0  0  0  0  0  0  0  0  0  0  0
  -32.6800  -16.5520   21.5860 F   0  0  0  0  0  0  0  0  0  0  0  0
  -31.8428  -16.4394   23.5912 F   0  0  0  0  0  0  0  0  0  0  0  0
  1  3  1  0  0  0  0
  1  7  2  0  0  0  0
  2  4  1  0  0  0  0
  2  8  2  0  0  0  0
  3  9  2  0  0  0  0
  4 10  2  0  0  0  0
  5 12  2  0  0  0  0
  5 19  1  0  0  0  0
  6 13  1  0  0  0  0
  6 19  2  0  0  0  0
  7 21  1  0  0  0  0
  8 23  1  0  0  0  0
  9 24  1  0  0  0  0
 10 25  1  0  0  0  0
 11 14  2  0  0  0  0
 11 22  1  0  0  0  0
 12 27  1  0  0  0  0
 13 27  2  0  0  0  0
 14 28  1  0  0  0  0
 15 16  2  0  0  0  0
 15 29  1  0  0  0  0
 16 30  1  0  0  0  0
 17 26  1  0  0  0  0
 17 28  2  0  0  0  0
 18 30  2  0  0  0  0
 18 31  1  0  0  0  0
 19 32  1  0  0  0  0
 20 32  1  0  0  0  0
 20 33  2  0  0  0  0
 20 34  1  0  0  0  0
 21 24  2  0  0  0  0
 21 40  1  0  0  0  0
 22 26  2  0  0  0  0
 22 41  1  0  0  0  0
 23 25  2  0  0  0  0
 23 42  1  0  0  0  0
 24 52  1  0  0  0  0
 25 53  1  0  0  0  0
 26 43  1  0  0  0  0
 27 85  1  0  0  0  0
 28 86  1  0  0  0  0
 29 31  2  0  0  0  0
 29 85  1  0  0  0  0
 30 87  1  0  0  0  0
 31 88  1  0  0  0  0
 32 68  2  0  0  0  0
 33 69  1  0  0  0  0
 33 74  1  0  0  0  0
 34 75  1  0  0  0  0
 34 79  2  0  0  0  0
 35 54  1  0  0  0  0
 35 70  1  0  0  0  0
 35 80  2  0  0  0  0
 36 55  1  0  0  0  0
 36 76  1  0  0  0  0
 36 81  2  0  0  0  0
 37 63  1  0  0  0  0
 37 72  1  0  0  0  0
 37 82  2  0  0  0  0
 38 65  1  0  0  0  0
 38 71  1  0  0  0  0
 38 83  2  0  0  0  0
 39 66  1  0  0  0  0
 39 77  1  0  0  0  0
 39 84  2  0  0  0  0
 40 44  1  0  0  0  0
 41 55  1  0  0  0  0
 42 70  1  0  0  0  0
 43 71  1  0  0  0  0
 44 46  1  0  0  0  0
 45 47  1  0  0  0  0
 45 49  1  0  0  0  0
 46 52  1  0  0  0  0
 47 56  1  0  0  0  0
 48 50  1  0  0  0  0
 48 57  1  0  0  0  0
 49 72  1  0  0  0  0
 50 73  1  0  0  0  0
 51 56  1  0  0  0  0
 51 72  1  0  0  0  0
 52 76  1  0  0  0  0
 53 64  1  0  0  0  0
 53 70  1  0  0  0  0
 54 57  1  0  0  0  0
 54 73  1  0  0  0  0
 55 71  1  0  0  0  0
 56 69  1  0  0  0  0
 57 89  1  0  0  0  0
 57 90  1  0  0  0  0
 58 66  1  0  0  0  0
 59 67  1  0  0  0  0
 60 67  1  0  0  0  0
 61 67  1  0  0  0  0
 62 78  1  0  0  0  0
 63 73  1  0  0  0  0
 64 86  1  0  0  0  0
 65 67  1  0  0  0  0
 65 77  1  0  0  0  0
 66 78  1  0  0  0  0
 68 69  1  0  0  0  0
M  CHG  1  78   1
M  ISO  4  37 100  63 100  64 101  86 101
M  END
> <Batch ID>
0158

> <Smiles>
CNC(C)C(=O)NC(C(=O)N1Cc2cc([101O:1][101CH2:1]C3c4ccccc4CN3C(=O)C3N([100CH2:0][100C:0](=O)N4CCCC(n5nc(-c6ccc(Oc7ccc(F)cc7F)cc6)c(C(N)=O)c5N)C4)CCC3(F)F)ccc2CC1C(=O)NC1CCCc2ccccc21)C(C)(C)C

> <Shape>
0.229

> <Color>
0.073

> <Negative vol penalty>
0.000

$$$$

  -OEChem-04052303443D

 85 94  0     1  0  0  0  0  0999 V2000
  -25.6311  -38.1167   26.7942 C   0  0  0  0  0  0  0  0  0  0  0  0
  -25.0189  -36.9666   27.2819 C   0  0  0  0  0  0  0  0  0  0  0  0
  -24.4901   -9.0978   21.4769 C   0  0  0  0  0  0  0  0  0  0  0  0
  -22.6380  -10.2251   20.4112 C   0  0  0  0  0  0  0  0  0  0  0  0
  -25.8636  -38.2547   25.4264 C   0  0  0  0  0  0  0  0  0  0  0  0
  -24.6378  -35.9543   26.4019 C   0  0  0  0  0  0  0  0  0  0  0  0
  -23.9811  -28.8303   26.0353 C   0  0  0  0  0  0  0  0  0  0  0  0
  -23.6991   -7.9621   21.6505 C   0  0  0  0  0  0  0  0  0  0  0  0
  -21.8470   -9.0894   20.5846 C   0  0  0  0  0  0  0  0  0  0  0  0
  -23.0483  -27.8506   25.6981 C   0  0  0  0  0  0  0  0  0  0  0  0
  -21.2695   -6.9173   23.7552 C   0  0  0  0  0  0  0  0  0  0  0  0
  -21.3083   -6.2850   24.9979 C   0  0  0  0  0  0  0  0  0  0  0  0
  -23.5720  -28.1640   23.3642 C   0  0  0  0  0  0  0  0  0  0  0  0
  -22.6425  -19.8370   22.8068 C   0  0  0  0  0  0  0  0  0  0  0  0
  -22.0957   -4.2593   23.9427 C   0  0  0  0  0  0  0  0  0  0  0  0
  -23.9596  -10.2293   20.8573 C   0  0  0  0  0  0  0  0  0  0  0  0
  -25.5961  -11.7079   19.5755 C   0  0  0  0  0  0  0  0  0  0  0  0
  -25.4940  -37.2393   24.5303 C   0  0  0  0  0  0  0  0  0  0  0  0
  -24.7098  -29.4930   25.0372 C   0  0  0  0  0  0  0  0  0  0  0  0
  -24.8644  -36.0794   25.0207 C   0  0  0  0  0  0  0  0  0  0  0  0
  -24.5153  -29.1499   23.6916 C   0  0  0  0  0  0  0  0  0  0  0  0
  -22.5406  -18.5551   22.1934 C   0  0  0  0  0  0  0  0  0  0  0  0
  -22.3775   -7.9579   21.2043 C   0  0  0  0  0  0  0  0  0  0  0  0
  -22.8415  -27.5193   24.3622 C   0  0  0  0  0  0  0  0  0  0  0  0
  -21.6437   -6.2205   22.6061 C   0  0  0  0  0  0  0  0  0  0  0  0
  -21.7214   -4.9561   25.0917 C   0  0  0  0  0  0  0  0  0  0  0  0
  -22.0569   -4.8915   22.6999 C   0  0  0  0  0  0  0  0  0  0  0  0
  -24.7760  -11.4029   20.6783 C   0  0  0  0  0  0  0  0  0  0  0  0
  -21.5248  -18.5052   21.2643 C   0  0  0  0  0  0  0  0  0  0  0  0
  -26.1545  -12.9231   19.8884 C   0  0  0  0  0  0  0  0  0  0  0  0
  -21.7006  -20.7184   22.3230 C   0  0  0  0  0  0  0  0  0  0  0  0
  -22.3584  -25.2683   23.9497 C   0  0  0  0  0  0  0  0  0  1  0  0
  -25.8318  -10.9597   18.3753 C   0  0  0  0  0  0  0  0  0  0  0  0
  -21.5501  -24.2499   23.6318 C   0  0  0  0  0  0  0  0  0  0  0  0
  -22.1168  -22.8630   23.5711 C   0  0  0  0  0  0  0  0  0  0  0  0
  -24.9550  -32.5104   24.0683 C   0  0  0  0  0  0  0  0  0  0  0  0
  -27.2841  -31.3001   22.1623 C   0  0  0  0  0  0  0  0  0  0  0  0
  -28.6010  -28.5882   20.5628 C   0  0  0  0  0  0  0  0  0  0  0  0
  -24.4259  -17.4216   23.4211 C   0  0  0  0  0  0  0  0  0  0  0  0
  -25.7230  -37.4542   23.0551 C   0  0  0  0  0  0  0  0  0  0  0  0
  -25.7316  -30.5286   25.4192 C   0  0  0  0  0  0  0  0  0  0  0  0
  -25.2866  -29.8175   22.5836 C   0  0  0  0  0  0  0  0  0  0  0  0
  -25.6283  -36.1728   22.2310 C   0  0  0  0  0  0  0  0  0  0  0  0
  -27.4672  -15.5843   23.6474 C   0  0  0  0  0  0  0  0  0  0  0  0
  -24.3920  -35.3726   22.6284 C   0  0  0  0  0  0  0  0  0  0  0  0
  -22.2259  -16.6162   19.5874 C   0  0  0  0  0  0  0  0  0  0  0  0
  -21.1318  -17.3921   18.9232 C   0  0  0  0  0  0  0  0  0  0  0  0
  -27.1990  -14.3341   22.8063 C   0  0  0  0  0  0  0  0  0  0  0  0
  -26.2246  -16.0267   24.4180 C   0  0  0  0  0  0  0  0  0  0  0  0
  -24.7503  -14.9575   22.7590 C   0  0  0  0  0  0  0  0  0  0  0  0
  -24.4591  -34.9484   24.1005 C   0  0  1  0  0  0  0  0  0  0  0  0
  -21.1545  -17.2709   20.4307 C   0  0  0  0  0  0  0  0  0  0  0  0
  -26.0472  -31.5023   24.2880 C   0  0  1  0  0  0  0  0  0  0  0  0
  -25.9548  -14.5115   21.9141 C   0  0  2  0  0  0  0  0  0  0  0  0
  -30.4875  -27.9176   19.0500 C   0  0  0  0  0  0  0  0  0  0  0  0
  -25.8377  -32.5750   19.7974 C   0  0  0  0  0  0  0  0  0  0  0  0
  -27.1841  -31.1127   18.2752 C   0  0  0  0  0  0  0  0  0  0  0  0
  -28.3291  -32.7830   19.7318 C   0  0  0  0  0  0  0  0  0  0  0  0
  -29.6901  -26.7013   22.5658 C   0  0  0  0  0  0  0  0  0  0  0  0
  -27.3295  -30.7079   20.7744 C   0  0  1  0  0  0  0  0  0  0  0  0
  -30.0193  -28.0519   20.4907 C   0  0  2  0  0  0  0  0  0  0  0  0
  -27.1540  -31.7833   19.6652 C   0  0  0  0  0  0  0  0  0  0  0  0
  -24.8079  -12.3481   21.6216 N   0  0  0  0  0  0  0  0  0  0  0  0
  -25.6547  -13.2589   21.1122 N   0  0  0  0  0  0  0  0  0  0  0  0
  -26.2699  -30.8280   23.0074 N   0  0  0  0  0  0  0  0  0  0  0  0
  -25.0875  -16.1784   23.5076 N   0  0  0  0  0  0  0  0  0  0  0  0
  -27.0194  -13.7265   19.2335 N   0  0  0  0  0  0  0  0  0  0  0  0
  -25.1773   -9.7309   18.2147 N   0  0  0  0  0  0  0  0  0  0  0  0
  -23.3808  -17.4557   22.4985 N   0  0  0  0  0  0  0  0  0  0  0  0
  -21.4455  -22.0724   22.6485 N   0  0  0  0  0  0  0  0  0  0  0  0
  -25.3510  -33.8201   24.2613 N   0  0  0  0  0  0  0  0  0  0  0  0
  -28.5799  -29.9611   20.6900 N   0  0  0  0  0  0  0  0  0  0  0  0
  -30.0999  -26.7119   21.1379 N   0  3  0  0  0  0  0  0  0  0  0  0
  -26.6129  -11.3611   17.4795 O   0  0  0  0  0  0  0  0  0  0  0  0
  -23.0617  -22.5368   24.2815 O   0  0  0  0  0  0  0  0  0  0  0  0
  -23.8361  -32.1284   23.7459 O   0  0  0  0  0  0  0  0  0  0  0  0
  -28.1220  -32.1451   22.4870 O   0  0  0  0  0  0  0  0  0  0  0  0
  -27.6107  -27.8624   20.5077 O   0  0  0  0  0  0  0  0  0  0  0  0
  -24.7791  -18.3930   24.0947 O   0  0  0  0  0  0  0  0  0  0  0  0
  -20.2089  -24.4245   23.3575 O   0  0  0  0  0  0  0  0  0  0  0  0
  -21.6054   -6.8498   21.3732 O   0  0  0  0  0  0  0  0  0  0  0  0
  -21.9311  -26.5639   24.0302 O   0  0  0  0  0  0  0  0  0  1  0  0
  -21.7601   -4.3495   26.2853 F   0  0  0  0  0  0  0  0  0  0  0  0
  -22.4187   -4.2173   21.5998 F   0  0  0  0  0  0  0  0  0  0  0  0
  -20.6991  -19.9998   21.1344 S   0  0  0  0  0  0  0  0  0  0  0  0
  1  2  1  0  0  0  0
  1  5  2  0  0  0  0
  2  6  2  0  0  0  0
  3  8  2  0  0  0  0
  3 16  1  0  0  0  0
  4  9  1  0  0  0  0
  4 16  2  0  0  0  0
  5 18  1  0  0  0  0
  6 20  1  0  0  0  0
  7 10  2  0  0  0  0
  7 19  1  0  0  0  0
  8 23  1  0  0  0  0
  9 23  2  0  0  0  0
 10 24  1  0  0  0  0
 11 12  2  0  0  0  0
 11 25  1  0  0  0  0
 12 26  1  0  0  0  0
 13 21  1  0  0  0  0
 13 24  2  0  0  0  0
 14 22  1  0  0  0  0
 14 31  2  0  0  0  0
 15 26  2  0  0  0  0
 15 27  1  0  0  0  0
 16 28  1  0  0  0  0
 17 28  1  0  0  0  0
 17 30  2  0  0  0  0
 17 33  1  0  0  0  0
 18 20  2  0  0  0  0
 18 40  1  0  0  0  0
 19 21  2  0  0  0  0
 19 41  1  0  0  0  0
 20 51  1  0  0  0  0
 21 42  1  0  0  0  0
 22 29  2  0  0  0  0
 22 69  1  0  0  0  0
 23 81  1  0  0  0  0
 24 82  1  0  0  0  0
 25 27  2  0  0  0  0
 25 81  1  0  0  0  0
 26 83  1  0  0  0  0
 27 84  1  0  0  0  0
 28 63  2  0  0  0  0
 29 52  1  0  0  0  0
 29 85  1  0  0  0  0
 30 64  1  0  0  0  0
 30 67  1  0  0  0  0
 31 70  1  0  0  0  0
 31 85  1  0  0  0  0
 32 34  2  0  0  0  0
 32 82  1  0  0  0  0
 33 68  1  0  0  0  0
 33 74  2  0  0  0  0
 34 35  1  0  0  0  0
 34 80  1  0  0  0  0
 35 70  1  0  0  0  0
 35 75  2  0  0  0  0
 36 53  1  0  0  0  0
 36 71  1  0  0  0  0
 36 76  2  0  0  0  0
 37 60  1  0  0  0  0
 37 65  1  0  0  0  0
 37 77  2  0  0  0  0
 38 61  1  0  0  0  0
 38 72  1  0  0  0  0
 38 78  2  0  0  0  0
 39 66  1  0  0  0  0
 39 69  1  0  0  0  0
 39 79  2  0  0  0  0
 40 43  1  0  0  0  0
 41 53  1  0  0  0  0
 42 65  1  0  0  0  0
 43 45  1  0  0  0  0
 44 48  1  0  0  0  0
 44 49  1  0  0  0  0
 45 51  1  0  0  0  0
 46 47  1  0  0  0  0
 46 52  1  0  0  0  0
 47 52  1  0  0  0  0
 48 54  1  0  0  0  0
 49 66  1  0  0  0  0
 50 54  1  0  0  0  0
 50 66  1  0  0  0  0
 51 71  1  0  0  0  0
 53 65  1  0  0  0  0
 54 64  1  0  0  0  0
 55 61  1  0  0  0  0
 56 62  1  0  0  0  0
 57 62  1  0  0  0  0
 58 62  1  0  0  0  0
 59 73  1  0  0  0  0
 60 62  1  0  0  0  0
 60 72  1  0  0  0  0
 61 73  1  0  0  0  0
 63 64  1  0  0  0  0
M  CHG  1  73   1
M  ISO  4  32 101  39 100  69 100  82 101
M  END
> <Batch ID>
0158

> <Smiles>
CNC(C)C(=O)NC(C(=O)N1Cc2cc([101O:1][101CH2:1]C(=O)C(=O)Nc3cc([100NH:0][100C:0](=O)N4CCCC(n5nc(-c6ccc(Oc7ccc(F)cc7F)cc6)c(C(N)=O)c5N)C4)c(C4CC4)s3)ccc2CC1C(=O)NC1CCCc2ccccc21)C(C)(C)C

> <Shape>
0.245

> <Color>
0.111

> <Negative vol penalty>
0.000

$$$$

  -OEChem-04052303443D

 88 97  0     1  0  0  0  0  0999 V2000
  -29.2408  -35.5394   22.4591 C   0  0  0  0  0  0  0  0  0  0  0  0
  -29.2768  -34.1517   22.3672 C   0  0  0  0  0  0  0  0  0  0  0  0
  -22.7824  -16.0924   18.9921 C   0  0  0  0  0  0  0  0  0  0  0  0
  -24.3492  -17.2728   20.4024 C   0  0  0  0  0  0  0  0  0  0  0  0
  -28.1113  -36.1736   22.9748 C   0  0  0  0  0  0  0  0  0  0  0  0
  -28.1837  -33.3974   22.7921 C   0  0  0  0  0  0  0  0  0  0  0  0
  -26.9715  -29.7228   19.5252 C   0  0  0  0  0  0  0  0  0  0  0  0
  -22.0444  -17.2649   18.8306 C   0  0  0  0  0  0  0  0  0  0  0  0
  -23.6112  -18.4453   20.2408 C   0  0  0  0  0  0  0  0  0  0  0  0
  -27.7605  -28.5734   19.5382 C   0  0  0  0  0  0  0  0  0  0  0  0
  -19.7899  -19.0527   20.6042 C   0  0  0  0  0  0  0  0  0  0  0  0
  -18.4028  -18.9660   20.7224 C   0  0  0  0  0  0  0  0  0  0  0  0
  -30.5504  -19.5153   17.8274 C   0  0  0  0  0  0  0  0  0  0  0  0
  -26.0852  -27.4455   20.8574 C   0  0  0  0  0  0  0  0  0  0  0  0
  -18.1593  -19.7758   18.4592 C   0  0  0  0  0  0  0  0  0  0  0  0
  -28.7294  -18.8524   16.4486 C   0  0  0  0  0  0  0  0  0  0  0  0
  -23.9348  -16.0963   19.7780 C   0  0  0  0  0  0  0  0  0  0  0  0
  -30.5181  -20.7643   17.2172 C   0  0  0  0  0  0  0  0  0  0  0  0
  -24.2514  -13.6696   20.4983 C   0  0  0  0  0  0  0  0  0  0  0  0
  -27.0000  -35.4272   23.3973 C   0  0  0  0  0  0  0  0  0  0  0  0
  -25.7362  -29.7456   20.1885 C   0  0  0  0  0  0  0  0  0  0  0  0
  -27.0389  -34.0221   23.3152 C   0  0  0  0  0  0  0  0  0  0  0  0
  -25.2812  -28.5956   20.8491 C   0  0  0  0  0  0  0  0  0  0  0  0
  -29.6424  -18.5355   17.4415 C   0  0  0  0  0  0  0  0  0  0  0  0
  -22.4588  -18.4414   19.4550 C   0  0  0  0  0  0  0  0  0  0  0  0
  -27.3188  -27.4355   20.2068 C   0  0  0  0  0  0  0  0  0  0  0  0
  -20.3617  -19.5010   19.4135 C   0  0  0  0  0  0  0  0  0  0  0  0
  -17.5875  -19.3275   19.6499 C   0  0  0  0  0  0  0  0  0  0  0  0
  -19.5464  -19.8625   18.3410 C   0  0  0  0  0  0  0  0  0  0  0  0
  -24.6972  -14.8852   19.9457 C   0  0  0  0  0  0  0  0  0  0  0  0
  -29.5660  -20.9813   16.2342 C   0  0  0  0  0  0  0  0  0  0  0  0
  -25.3446  -12.8408   20.4316 C   0  0  0  0  0  0  0  0  0  0  0  0
  -31.4808  -21.8024   17.6267 C   0  0  0  0  0  0  0  0  0  0  0  0
  -22.9642  -13.3209   21.0247 C   0  0  0  0  0  0  0  0  0  0  0  0
  -24.5146  -31.4209   22.5979 C   0  0  0  0  0  0  0  0  0  0  0  0
  -21.7939  -29.8435   21.8030 C   0  0  0  0  0  0  0  0  0  0  0  0
  -20.3451  -27.1202   20.3430 C   0  0  0  0  0  0  0  0  0  0  0  0
  -28.8086  -16.1718   17.7684 C   0  0  0  0  0  0  0  0  0  0  0  0
  -25.8203  -36.1548   23.9917 C   0  0  0  0  0  0  0  0  0  0  0  0
  -24.8848  -30.9848   20.1425 C   0  0  0  0  0  0  0  0  0  0  0  0
  -23.9535  -28.5620   21.5595 C   0  0  0  0  0  0  0  0  0  0  0  0
  -24.5564  -35.3025   24.0720 C   0  0  0  0  0  0  0  0  0  0  0  0
  -30.1061  -13.6467   20.3773 C   0  0  0  0  0  0  0  0  0  0  0  0
  -24.8770  -33.9247   24.6428 C   0  0  0  0  0  0  0  0  0  0  0  0
  -28.6797  -13.3082   20.7917 C   0  0  0  0  0  0  0  0  0  0  0  0
  -31.3917  -25.0356   18.9430 C   0  0  0  0  0  0  0  0  0  0  0  0
  -29.1543  -23.8771   19.2013 C   0  0  0  0  0  0  0  0  0  0  0  0
  -30.1296  -14.9427   19.5715 C   0  0  0  0  0  0  0  0  0  0  0  0
  -32.0949  -23.6873   19.0524 C   0  0  0  0  0  0  0  0  0  0  0  0
  -29.8691  -22.5347   19.3086 C   0  0  0  0  0  0  0  0  0  0  0  0
  -28.3268  -13.7878   18.2876 C   0  0  0  0  0  0  0  0  0  0  0  0
  -25.8632  -33.1706   23.7428 C   0  0  1  0  0  0  0  0  0  0  0  0
  -23.8775  -31.0603   21.2857 C   0  0  1  0  0  0  0  0  0  0  0  0
  -27.7611  -13.1351   19.5656 C   0  0  2  0  0  0  0  0  0  0  0  0
  -30.0459  -25.0302   19.6784 C   0  0  0  0  0  0  0  0  0  0  0  0
  -18.1031  -26.0914   19.8821 C   0  0  0  0  0  0  0  0  0  0  0  0
  -21.6013  -28.9630   24.7181 C   0  0  0  0  0  0  0  0  0  0  0  0
  -19.9491  -27.2203   24.0100 C   0  0  0  0  0  0  0  0  0  0  0  0
  -19.4255  -29.6377   23.6862 C   0  0  0  0  0  0  0  0  0  0  0  0
  -20.7636  -27.2378   17.4155 C   0  0  0  0  0  0  0  0  0  0  0  0
  -29.3350  -26.3702   19.5315 C   0  0  0  0  0  0  0  0  0  1  0  0
  -21.1580  -28.5364   22.2106 C   0  0  1  0  0  0  0  0  0  0  0  0
  -19.2028  -26.9976   19.3507 C   0  0  2  0  0  0  0  0  0  0  0  0
  -20.5594  -28.5903   23.6446 C   0  0  0  0  0  0  0  0  0  0  0  0
  -28.6676  -20.0543   15.8328 N   0  0  0  0  0  0  0  0  0  0  0  0
  -25.9741  -14.8373   19.5568 N   0  0  0  0  0  0  0  0  0  0  0  0
  -26.3401  -13.5815   19.8655 N   0  0  0  0  0  0  0  0  0  0  0  0
  -31.1634  -22.6336   18.6094 N   0  0  0  0  0  0  0  0  0  0  0  0
  -23.1602  -29.8004   21.4913 N   0  0  0  0  0  0  0  0  0  0  0  0
  -29.0742  -15.0202   18.5508 N   0  0  0  0  0  0  0  0  0  0  0  0
  -29.5291  -22.2526   15.6082 N   0  0  0  0  0  0  0  0  0  0  0  0
  -25.5418  -11.5579   20.8027 N   0  0  0  0  0  0  0  0  0  0  0  0
  -22.7190  -13.5363   22.3877 N   0  0  0  0  0  0  0  0  0  0  0  0
  -29.6498  -17.2528   18.0453 N   0  0  0  0  0  0  0  0  0  0  0  0
  -25.1810  -32.6314   22.5859 N   0  0  0  0  0  0  0  0  0  0  0  0
  -20.1882  -28.2122   21.1701 N   0  0  0  0  0  0  0  0  0  0  0  0
  -32.6533  -21.8878   17.0052 N   0  3  0  0  0  0  0  0  0  0  0  0
  -19.6946  -26.4338   18.0618 N   0  3  0  0  0  0  0  0  0  0  0  0
  -22.0638  -12.8173   20.3111 O   0  0  0  0  0  0  0  0  0  0  0  0
  -24.4082  -30.6581   23.5510 O   0  0  0  0  0  0  0  0  0  0  0  0
  -21.1022  -30.8637   21.7558 O   0  0  0  0  0  0  0  0  0  0  0  0
  -21.2810  -26.3245   20.3830 O   0  0  0  0  0  0  0  0  0  0  0  0
  -27.9111  -16.1880   16.9234 O   0  0  0  0  0  0  0  0  0  0  0  0
  -21.7390  -19.5858   19.2974 O   0  0  0  0  0  0  0  0  0  0  0  0
  -28.0873  -26.3125   20.2216 O   0  0  0  0  0  0  0  0  0  1  0  0
  -16.2555  -19.2427   19.7631 F   0  0  0  0  0  0  0  0  0  0  0  0
  -20.0900  -20.2928   17.1942 F   0  0  0  0  0  0  0  0  0  0  0  0
  -30.2944  -24.8474   21.0096 F   0  0  0  0  0  0  0  0  0  0  0  0
  1  2  1  0  0  0  0
  1  5  2  0  0  0  0
  2  6  2  0  0  0  0
  3  8  2  0  0  0  0
  3 17  1  0  0  0  0
  4  9  1  0  0  0  0
  4 17  2  0  0  0  0
  5 20  1  0  0  0  0
  6 22  1  0  0  0  0
  7 10  2  0  0  0  0
  7 21  1  0  0  0  0
  8 25  1  0  0  0  0
  9 25  2  0  0  0  0
 10 26  1  0  0  0  0
 11 12  2  0  0  0  0
 11 27  1  0  0  0  0
 12 28  1  0  0  0  0
 13 18  1  0  0  0  0
 13 24  2  0  0  0  0
 14 23  1  0  0  0  0
 14 26  2  0  0  0  0
 15 28  2  0  0  0  0
 15 29  1  0  0  0  0
 16 24  1  0  0  0  0
 16 65  2  0  0  0  0
 17 30  1  0  0  0  0
 18 31  2  0  0  0  0
 18 33  1  0  0  0  0
 19 30  1  0  0  0  0
 19 32  2  0  0  0  0
 19 34  1  0  0  0  0
 20 22  2  0  0  0  0
 20 39  1  0  0  0  0
 21 23  2  0  0  0  0
 21 40  1  0  0  0  0
 22 52  1  0  0  0  0
 23 41  1  0  0  0  0
 24 74  1  0  0  0  0
 25 84  1  0  0  0  0
 26 85  1  0  0  0  0
 27 29  2  0  0  0  0
 27 84  1  0  0  0  0
 28 86  1  0  0  0  0
 29 87  1  0  0  0  0
 30 66  2  0  0  0  0
 31 65  1  0  0  0  0
 31 71  1  0  0  0  0
 32 67  1  0  0  0  0
 32 72  1  0  0  0  0
 33 68  1  0  0  0  0
 33 77  2  0  0  0  0
 34 73  1  0  0  0  0
 34 79  2  0  0  0  0
 35 53  1  0  0  0  0
 35 75  1  0  0  0  0
 35 80  2  0  0  0  0
 36 62  1  0  0  0  0
 36 69  1  0  0  0  0
 36 81  2  0  0  0  0
 37 63  1  0  0  0  0
 37 76  1  0  0  0  0
 37 82  2  0  0  0  0
 38 70  1  0  0  0  0
 38 74  1  0  0  0  0
 38 83  2  0  0  0  0
 39 42  1  0  0  0  0
 40 53  1  0  0  0  0
 41 69  1  0  0  0  0
 42 44  1  0  0  0  0
 43 45  1  0  0  0  0
 43 48  1  0  0  0  0
 44 52  1  0  0  0  0
 45 54  1  0  0  0  0
 46 49  1  0  0  0  0
 46 55  1  0  0  0  0
 47 50  1  0  0  0  0
 47 55  1  0  0  0  0
 48 70  1  0  0  0  0
 49 68  1  0  0  0  0
 50 68  1  0  0  0  0
 51 54  1  0  0  0  0
 51 70  1  0  0  0  0
 52 75  1  0  0  0  0
 53 69  1  0  0  0  0
 54 67  1  0  0  0  0
 55 61  1  0  0  0  0
 55 88  1  0  0  0  0
 56 63  1  0  0  0  0
 57 64  1  0  0  0  0
 58 64  1  0  0  0  0
 59 64  1  0  0  0  0
 60 78  1  0  0  0  0
 61 85  1  0  0  0  0
 62 64  1  0  0  0  0
 62 76  1  0  0  0  0
 63 78  1  0  0  0  0
 66 67  1  0  0  0  0
M  CHG  2  77   1  78   1
M  ISO  4  38 100  61 101  74 100  85 101
M  END
> <Batch ID>
0158

> <Smiles>
CNC(C)C(=O)NC(C(=O)N1Cc2cc([101O:1][101CH2:1]C3(F)CCN(C(=N)c4cc([100NH:0][100C:0](=O)N5CCCC(n6nc(-c7ccc(Oc8ccc(F)cc8F)cc7)c(C(N)=O)c6N)C5)cnc4N)CC3)ccc2CC1C(=O)NC1CCCc2ccccc21)C(C)(C)C

> <Shape>
0.282

> <Color>
0.075

> <Negative vol penalty>
0.000

$$$$

  -OEChem-04052303443D

 85 93  0     1  0  0  0  0  0999 V2000
  -24.2669  -35.8841   16.0294 C   0  0  0  0  0  0  0  0  0  0  0  0
  -24.7446  -34.5817   15.9250 C   0  0  0  0  0  0  0  0  0  0  0  0
  -22.8867  -10.4528   22.1851 C   0  0  0  0  0  0  0  0  0  0  0  0
  -24.6598   -9.7606   20.6971 C   0  0  0  0  0  0  0  0  0  0  0  0
  -24.3957  -36.5784   17.2316 C   0  0  0  0  0  0  0  0  0  0  0  0
  -25.3523  -33.9731   17.0226 C   0  0  0  0  0  0  0  0  0  0  0  0
  -25.0796  -28.0533   18.5681 C   0  0  0  0  0  0  0  0  0  0  0  0
  -22.2773   -9.2067   22.0387 C   0  0  0  0  0  0  0  0  0  0  0  0
  -24.0504   -8.5144   20.5507 C   0  0  0  0  0  0  0  0  0  0  0  0
  -25.9574  -26.9895   18.3649 C   0  0  0  0  0  0  0  0  0  0  0  0
  -20.4445   -6.0819   22.3414 C   0  0  0  0  0  0  0  0  0  0  0  0
  -19.9732   -5.4512   23.4927 C   0  0  0  0  0  0  0  0  0  0  0  0
  -29.4553  -20.5221   22.2421 C   0  0  0  0  0  0  0  0  0  0  0  0
  -26.8766  -27.3350   20.5683 C   0  0  0  0  0  0  0  0  0  0  0  0
  -22.2102   -5.4458   24.4055 C   0  0  0  0  0  0  0  0  0  0  0  0
  -24.0779  -10.7298   21.5143 C   0  0  0  0  0  0  0  0  0  0  0  0
  -29.6523  -19.2227   21.7167 C   0  0  0  0  0  0  0  0  0  0  0  0
  -25.6628  -12.3886   22.6297 C   0  0  0  0  0  0  0  0  0  0  0  0
  -24.9966  -35.9745   18.3474 C   0  0  0  0  0  0  0  0  0  0  0  0
  -25.1011  -28.7742   19.7707 C   0  0  0  0  0  0  0  0  0  0  0  0
  -25.4904  -34.6603   18.2405 C   0  0  0  0  0  0  0  0  0  0  0  0
  -25.9962  -28.4060   20.7852 C   0  0  0  0  0  0  0  0  0  0  0  0
  -22.8592   -8.2375   21.2215 C   0  0  0  0  0  0  0  0  0  0  0  0
  -26.8581  -26.6320   19.3639 C   0  0  0  0  0  0  0  0  0  0  0  0
  -21.7987   -6.3945   22.2220 C   0  0  0  0  0  0  0  0  0  0  0  0
  -20.8560   -5.1332   24.5248 C   0  0  0  0  0  0  0  0  0  0  0  0
  -22.6815   -6.0764   23.2541 C   0  0  0  0  0  0  0  0  0  0  0  0
  -24.7076  -12.0170   21.6646 C   0  0  0  0  0  0  0  0  0  0  0  0
  -29.3827  -19.3100   20.3707 C   0  0  0  0  0  0  0  0  0  0  0  0
  -25.9414  -13.7038   22.3484 C   0  0  0  0  0  0  0  0  0  0  0  0
  -29.0796  -21.3108   21.1796 C   0  0  0  0  0  0  0  0  0  0  0  0
  -30.0508  -18.0339   22.4108 C   0  0  0  0  0  0  0  0  0  0  0  0
  -26.2462  -11.6141   23.6858 C   0  0  0  0  0  0  0  0  0  0  0  0
  -25.6903  -31.7951   20.5650 C   0  0  0  0  0  0  0  0  0  0  0  0
  -24.7653  -30.7931   23.5082 C   0  0  0  0  0  0  0  0  0  0  0  0
  -28.3811  -23.4046   19.9704 C   0  0  0  0  0  0  0  0  0  0  0  0
  -24.3765  -28.2044   25.6978 C   0  0  0  0  0  0  0  0  0  0  0  0
  -27.0551  -17.7679   18.6894 C   0  0  0  0  0  0  0  0  0  0  0  0
  -25.1557  -36.7814   19.6116 C   0  0  0  0  0  0  0  0  0  0  0  0
  -24.1294  -29.9022   19.9847 C   0  0  0  0  0  0  0  0  0  0  0  0
  -26.0455  -29.1349   22.1023 C   0  0  0  0  0  0  0  0  0  0  0  0
  -25.4754  -35.9327   20.8396 C   0  0  0  0  0  0  0  0  0  0  0  0
  -23.6313  -16.9691   19.2521 C   0  0  0  0  0  0  0  0  0  0  0  0
  -26.5752  -34.9251   20.5205 C   0  0  0  0  0  0  0  0  0  0  0  0
  -23.6850  -15.6378   20.0036 C   0  0  0  0  0  0  0  0  0  0  0  0
  -24.7309  -17.0663   18.1969 C   0  0  0  0  0  0  0  0  0  0  0  0
  -26.1490  -15.4886   19.4512 C   0  0  0  0  0  0  0  0  0  0  0  0
  -26.1333  -33.9572   19.4162 C   0  0  1  0  0  0  0  0  0  0  0  0
  -24.5898  -30.8937   21.0488 C   0  0  1  0  0  0  0  0  0  0  0  0
  -25.0941  -15.3668   20.5642 C   0  0  2  0  0  0  0  0  0  0  0  0
  -29.0720  -17.7428   24.7269 C   0  0  0  0  0  0  0  0  0  0  0  0
  -23.6343  -27.7014   28.0416 C   0  0  0  0  0  0  0  0  0  0  0  0
  -27.3937  -31.9137   24.5784 C   0  0  0  0  0  0  0  0  0  0  0  0
  -27.0366  -30.5724   26.6621 C   0  0  0  0  0  0  0  0  0  0  0  0
  -25.4051  -32.3507   26.0307 C   0  0  0  0  0  0  0  0  0  0  0  0
  -22.1972  -26.4391   24.7527 C   0  0  0  0  0  0  0  0  0  0  0  0
  -29.4005  -18.3339   19.2707 C   0  0  0  0  0  0  0  0  0  0  0  0
  -30.3362  -18.0227   23.9337 C   0  0  0  0  0  0  0  0  0  0  0  0
  -28.1185  -24.8572   20.3217 C   0  0  0  0  0  0  0  0  0  1  0  0
  -25.4678  -30.1988   24.7050 C   0  0  1  0  0  0  0  0  0  0  0  0
  -23.2119  -27.8010   26.5841 C   0  0  2  0  0  0  0  0  0  0  0  0
  -26.3265  -31.2462   25.4686 C   0  0  0  0  0  0  0  0  0  0  0  0
  -24.3999  -13.0156   20.8326 N   0  0  0  0  0  0  0  0  0  0  0  0
  -30.1983  -16.8692   21.7951 N   0  0  0  0  0  0  0  0  0  0  0  0
  -25.1661  -14.0276   21.2741 N   0  0  0  0  0  0  0  0  0  0  0  0
  -25.0797  -30.2346   22.2612 N   0  0  0  0  0  0  0  0  0  0  0  0
  -26.0420  -16.8004   18.7937 N   0  0  0  0  0  0  0  0  0  0  0  0
  -26.7715  -14.6034   22.9178 N   0  0  0  0  0  0  0  0  0  0  0  0
  -25.8478  -10.2785   23.8335 N   0  0  0  0  0  0  0  0  0  0  0  0
  -28.7544  -22.6858   21.1009 N   0  0  0  0  0  0  0  0  0  0  0  0
  -25.2430  -32.9505   19.9531 N   0  0  0  0  0  0  0  0  0  0  0  0
  -24.4311  -29.5702   25.5164 N   0  0  0  0  0  0  0  0  0  0  0  0
  -28.2650  -17.4388   19.2881 N   0  0  0  0  0  0  0  0  0  0  0  0
  -22.6719  -26.4784   26.1598 N   0  3  0  0  0  0  0  0  0  0  0  0
  -27.0835  -12.0969   24.4854 O   0  0  0  0  0  0  0  0  0  0  0  0
  -26.8587  -31.4673   20.7355 O   0  0  0  0  0  0  0  0  0  0  0  0
  -23.9615  -31.7139   23.6745 O   0  0  0  0  0  0  0  0  0  0  0  0
  -28.2610  -22.9894   18.8224 O   0  0  0  0  0  0  0  0  0  0  0  0
  -25.1616  -27.3897   25.2177 O   0  0  0  0  0  0  0  0  0  0  0  0
  -26.8915  -18.8473   18.1106 O   0  0  0  0  0  0  0  0  0  0  0  0
  -29.0330  -20.5795   20.0352 O   0  0  0  0  0  0  0  0  0  0  0  0
  -22.2649   -7.0213   21.0786 O   0  0  0  0  0  0  0  0  0  0  0  0
  -27.7165  -25.5944   19.1679 O   0  0  0  0  0  0  0  0  0  1  0  0
  -20.4030   -4.5289   25.6311 F   0  0  0  0  0  0  0  0  0  0  0  0
  -23.9833   -6.3753   23.1456 F   0  0  0  0  0  0  0  0  0  0  0  0
  1  2  1  0  0  0  0
  1  5  2  0  0  0  0
  2  6  2  0  0  0  0
  3  8  2  0  0  0  0
  3 16  1  0  0  0  0
  4  9  1  0  0  0  0
  4 16  2  0  0  0  0
  5 19  1  0  0  0  0
  6 21  1  0  0  0  0
  7 10  2  0  0  0  0
  7 20  1  0  0  0  0
  8 23  1  0  0  0  0
  9 23  2  0  0  0  0
 10 24  1  0  0  0  0
 11 12  2  0  0  0  0
 11 25  1  0  0  0  0
 12 26  1  0  0  0  0
 13 17  1  0  0  0  0
 13 31  2  0  0  0  0
 14 22  1  0  0  0  0
 14 24  2  0  0  0  0
 15 26  2  0  0  0  0
 15 27  1  0  0  0  0
 16 28  1  0  0  0  0
 17 29  2  0  0  0  0
 17 32  1  0  0  0  0
 18 28  1  0  0  0  0
 18 30  2  0  0  0  0
 18 33  1  0  0  0  0
 19 21  2  0  0  0  0
 19 39  1  0  0  0  0
 20 22  2  0  0  0  0
 20 40  1  0  0  0  0
 21 48  1  0  0  0  0
 22 41  1  0  0  0  0
 23 82  1  0  0  0  0
 24 83  1  0  0  0  0
 25 27  2  0  0  0  0
 25 82  1  0  0  0  0
 26 84  1  0  0  0  0
 27 85  1  0  0  0  0
 28 63  2  0  0  0  0
 29 57  1  0  0  0  0
 29 81  1  0  0  0  0
 30 65  1  0  0  0  0
 30 68  1  0  0  0  0
 31 70  1  0  0  0  0
 31 81  1  0  0  0  0
 32 58  1  0  0  0  0
 32 64  2  0  0  0  0
 33 69  1  0  0  0  0
 33 75  2  0  0  0  0
 34 49  1  0  0  0  0
 34 71  1  0  0  0  0
 34 76  2  0  0  0  0
 35 60  1  0  0  0  0
 35 66  1  0  0  0  0
 35 77  2  0  0  0  0
 36 59  1  0  0  0  0
 36 70  1  0  0  0  0
 36 78  2  0  0  0  0
 37 61  1  0  0  0  0
 37 72  1  0  0  0  0
 37 79  2  0  0  0  0
 38 67  1  0  0  0  0
 38 73  1  0  0  0  0
 38 80  2  0  0  0  0
 39 42  1  0  0  0  0
 40 49  1  0  0  0  0
 41 66  1  0  0  0  0
 42 44  1  0  0  0  0
 43 45  1  0  0  0  0
 43 46  1  0  0  0  0
 44 48  1  0  0  0  0
 45 50  1  0  0  0  0
 46 67  1  0  0  0  0
 47 50  1  0  0  0  0
 47 67  1  0  0  0  0
 48 71  1  0  0  0  0
 49 66  1  0  0  0  0
 50 65  1  0  0  0  0
 51 58  1  0  0  0  0
 52 61  1  0  0  0  0
 53 62  1  0  0  0  0
 54 62  1  0  0  0  0
 55 62  1  0  0  0  0
 56 74  1  0  0  0  0
 57 73  1  0  0  0  0
 59 83  1  0  0  0  0
 60 62  1  0  0  0  0
 60 72  1  0  0  0  0
 61 74  1  0  0  0  0
 63 65  1  0  0  0  0
M  CHG  1  74   1
M  ISO  4  38 100  59 101  73 100  83 101
M  END
> <Batch ID>
0158

> <Smiles>
CCC(=N)c1cc(NC(=O)[101CH2:1][101O:1]c2ccc3c(c2)CN(C(=O)C(NC(=O)C(C)NC)C(C)(C)C)C(C(=O)NC2CCCc4ccccc42)C3)oc1C[100NH:0][100C:0](=O)N1CCCC(n2nc(-c3ccc(Oc4ccc(F)cc4F)cc3)c(C(N)=O)c2N)C1

> <Shape>
0.271

> <Color>
0.125

> <Negative vol penalty>
0.000

$$$$

  -OEChem-04052303443D

 88 97  0     1  0  0  0  0  0999 V2000
  -22.1301  -11.1186   19.1252 C   0  0  0  0  0  0  0  0  0  0  0  0
  -21.7319  -12.4211   19.4084 C   0  0  0  0  0  0  0  0  0  0  0  0
  -29.5316  -26.9609   22.0259 C   0  0  0  0  0  0  0  0  0  0  0  0
  -27.5830  -26.1470   23.1996 C   0  0  0  0  0  0  0  0  0  0  0  0
  -23.4120  -10.6922   19.4701 C   0  0  0  0  0  0  0  0  0  0  0  0
  -22.6151  -13.2978   20.0376 C   0  0  0  0  0  0  0  0  0  0  0  0
  -23.0852  -19.3353   19.1248 C   0  0  0  0  0  0  0  0  0  0  0  0
  -30.3561  -26.3420   22.9655 C   0  0  0  0  0  0  0  0  0  0  0  0
  -28.4075  -25.5281   24.1392 C   0  0  0  0  0  0  0  0  0  0  0  0
  -22.5830  -20.4316   19.8245 C   0  0  0  0  0  0  0  0  0  0  0  0
  -32.9779  -24.6739   24.8518 C   0  0  0  0  0  0  0  0  0  0  0  0
  -34.0763  -23.9565   24.3782 C   0  0  0  0  0  0  0  0  0  0  0  0
  -24.6779  -20.6306   21.0040 C   0  0  0  0  0  0  0  0  0  0  0  0
  -17.7838  -27.8466   24.0403 C   0  0  0  0  0  0  0  0  0  0  0  0
  -19.1528  -29.7004   23.3148 C   0  0  0  0  0  0  0  0  0  0  0  0
  -32.5943  -22.5065   23.1377 C   0  0  0  0  0  0  0  0  0  0  0  0
  -28.1450  -26.8635   22.1430 C   0  0  0  0  0  0  0  0  0  0  0  0
  -19.7540  -27.4421   22.7019 C   0  0  0  0  0  0  0  0  0  0  0  0
  -27.2534  -27.2628   19.7865 C   0  0  0  0  0  0  0  0  0  0  0  0
  -24.3146  -11.5669   20.0952 C   0  0  0  0  0  0  0  0  0  0  0  0
  -24.3858  -18.8708   19.3677 C   0  0  0  0  0  0  0  0  0  0  0  0
  -23.9097  -12.8823   20.3924 C   0  0  0  0  0  0  0  0  0  0  0  0
  -25.1950  -19.5297   20.3042 C   0  0  0  0  0  0  0  0  0  0  0  0
  -18.6409  -26.9590   23.3898 C   0  0  0  0  0  0  0  0  0  0  0  0
  -18.0397  -29.2173   24.0027 C   0  0  0  0  0  0  0  0  0  0  0  0
  -20.0100  -28.8128   22.6643 C   0  0  0  0  0  0  0  0  0  0  0  0
  -29.7940  -25.6256   24.0221 C   0  0  0  0  0  0  0  0  0  0  0  0
  -23.3784  -21.0777   20.7664 C   0  0  0  0  0  0  0  0  0  0  0  0
  -31.6877  -24.3076   24.4685 C   0  0  0  0  0  0  0  0  0  0  0  0
  -33.8846  -22.8728   23.5211 C   0  0  0  0  0  0  0  0  0  0  0  0
  -31.4959  -23.2240   23.6114 C   0  0  0  0  0  0  0  0  0  0  0  0
  -27.2928  -27.5030   21.1730 C   0  0  0  0  0  0  0  0  0  0  0  0
  -26.2851  -28.1166   19.3175 C   0  0  0  0  0  0  0  0  0  0  0  0
  -22.8705  -24.0162   24.3560 C   0  0  0  0  0  0  0  0  0  0  0  0
  -23.0789  -23.9422   23.0295 C   0  0  0  0  0  0  0  0  0  0  0  0
  -20.6546  -26.5024   22.0199 C   0  0  0  0  0  0  0  0  0  0  0  0
  -28.0231  -26.3494   18.9934 C   0  0  0  0  0  0  0  0  0  0  0  0
  -25.6326  -16.1506   20.4399 C   0  0  0  0  0  0  0  0  0  0  0  0
  -28.4390  -17.5972   19.6956 C   0  0  0  0  0  0  0  0  0  0  0  0
  -30.1551  -20.5029   19.1867 C   0  0  0  0  0  0  0  0  0  0  0  0
  -21.5131  -30.6652   21.8547 C   0  0  0  0  0  0  0  0  0  0  0  0
  -25.6734  -11.0464   20.4917 C   0  0  0  0  0  0  0  0  0  0  0  0
  -24.9220  -17.7035   18.5853 C   0  0  0  0  0  0  0  0  0  0  0  0
  -26.6053  -19.0830   20.5873 C   0  0  0  0  0  0  0  0  0  0  0  0
  -22.2243  -25.1981   25.0156 C   0  0  0  0  0  0  0  0  0  0  0  0
  -22.6368  -25.0290   22.0807 C   0  0  0  0  0  0  0  0  0  0  0  0
  -26.6768  -12.1496   20.8180 C   0  0  0  0  0  0  0  0  0  0  0  0
  -24.2306  -32.3356   20.2730 C   0  0  0  0  0  0  0  0  0  0  0  0
  -26.0437  -13.1937   21.7321 C   0  0  0  0  0  0  0  0  0  0  0  0
  -25.3186  -31.2623   20.1927 C   0  0  0  0  0  0  0  0  0  0  0  0
  -22.1391  -26.4035   24.0840 C   0  0  0  0  0  0  0  0  0  0  0  0
  -23.4228  -32.2286   21.5652 C   0  0  0  0  0  0  0  0  0  0  0  0
  -23.9430  -29.8280   21.7539 C   0  0  0  0  0  0  0  0  0  0  0  0
  -24.8476  -13.8702   21.0516 C   0  0  1  0  0  0  0  0  0  0  0  0
  -26.0809  -16.9982   19.2831 C   0  0  1  0  0  0  0  0  0  0  0  0
  -24.7411  -29.8549   20.4402 C   0  0  2  0  0  0  0  0  0  0  0  0
  -18.3398  -25.4965   23.4477 C   0  0  0  0  0  0  0  0  0  0  0  0
  -32.4440  -21.3670   18.6285 C   0  0  0  0  0  0  0  0  0  0  0  0
  -29.3522  -17.0139   22.5479 C   0  0  0  0  0  0  0  0  0  0  0  0
  -31.1867  -18.6874   22.2286 C   0  0  0  0  0  0  0  0  0  0  0  0
  -31.0999  -16.6462   20.7972 C   0  0  0  0  0  0  0  0  0  0  0  0
  -29.1902  -21.7898   16.7023 C   0  0  0  0  0  0  0  0  0  0  0  0
  -23.7599  -22.7618   22.4016 C   0  0  0  0  0  0  0  0  0  1  0  0
  -29.4094  -18.4901   20.4305 C   0  0  1  0  0  0  0  0  0  0  0  0
  -31.0941  -20.9368   18.0756 C   0  0  2  0  0  0  0  0  0  0  0  0
  -30.2348  -17.7169   21.4973 C   0  0  0  0  0  0  0  0  0  0  0  0
  -26.4192  -28.4365   21.5597 N   0  0  0  0  0  0  0  0  0  0  0  0
  -25.8217  -28.7903   20.4091 N   0  0  0  0  0  0  0  0  0  0  0  0
  -21.7364  -25.9819   22.7374 N   0  0  0  0  0  0  0  0  0  0  0  0
  -27.0818  -17.9330   19.8012 N   0  0  0  0  0  0  0  0  0  0  0  0
  -22.9037  -30.8692   21.7306 N   0  0  0  0  0  0  0  0  0  0  0  0
  -17.1722  -30.1145   24.6599 N   0  0  0  0  0  0  0  0  0  0  0  0
  -25.7934  -28.3493   18.0820 N   0  0  0  0  0  0  0  0  0  0  0  0
  -27.5285  -25.0525   18.7990 N   0  0  0  0  0  0  0  0  0  0  0  0
  -21.1348  -29.3283   21.9739 N   0  0  0  0  0  0  0  0  0  0  0  0
  -25.3018  -14.8546   20.0929 N   0  0  0  0  0  0  0  0  0  0  0  0
  -30.2185  -19.1432   19.4071 N   0  0  0  0  0  0  0  0  0  0  0  0
  -30.5094  -22.0807   17.3204 N   0  3  0  0  0  0  0  0  0  0  0  0
  -20.3755  -26.2298   20.8530 O   0  0  0  0  0  0  0  0  0  0  0  0
  -29.1250  -26.6687   18.4861 O   0  0  0  0  0  0  0  0  0  0  0  0
  -25.5914  -16.6361   21.5643 O   0  0  0  0  0  0  0  0  0  0  0  0
  -28.8699  -16.6414   19.0457 O   0  0  0  0  0  0  0  0  0  0  0  0
  -29.4398  -21.2918   19.8003 O   0  0  0  0  0  0  0  0  0  0  0  0
  -20.7144  -31.6051   21.8278 O   0  0  0  0  0  0  0  0  0  0  0  0
  -30.5983  -25.0214   24.9390 O   0  0  0  0  0  0  0  0  0  0  0  0
  -22.8905  -22.1476   21.4513 O   0  0  0  0  0  0  0  0  0  1  0  0
  -34.9395  -22.1849   23.0651 F   0  0  0  0  0  0  0  0  0  0  0  0
  -30.2589  -22.8681   23.2388 F   0  0  0  0  0  0  0  0  0  0  0  0
  1  2  1  0  0  0  0
  1  5  2  0  0  0  0
  2  6  2  0  0  0  0
  3  8  2  0  0  0  0
  3 17  1  0  0  0  0
  4  9  1  0  0  0  0
  4 17  2  0  0  0  0
  5 20  1  0  0  0  0
  6 22  1  0  0  0  0
  7 10  2  0  0  0  0
  7 21  1  0  0  0  0
  8 27  1  0  0  0  0
  9 27  2  0  0  0  0
 10 28  1  0  0  0  0
 11 12  2  0  0  0  0
 11 29  1  0  0  0  0
 12 30  1  0  0  0  0
 13 23  1  0  0  0  0
 13 28  2  0  0  0  0
 14 24  2  0  0  0  0
 14 25  1  0  0  0  0
 15 25  2  0  0  0  0
 15 26  1  0  0  0  0
 16 30  2  0  0  0  0
 16 31  1  0  0  0  0
 17 32  1  0  0  0  0
 18 24  1  0  0  0  0
 18 26  2  0  0  0  0
 18 36  1  0  0  0  0
 19 32  1  0  0  0  0
 19 33  2  0  0  0  0
 19 37  1  0  0  0  0
 20 22  2  0  0  0  0
 20 42  1  0  0  0  0
 21 23  2  0  0  0  0
 21 43  1  0  0  0  0
 22 54  1  0  0  0  0
 23 44  1  0  0  0  0
 24 57  1  0  0  0  0
 25 72  1  0  0  0  0
 26 75  1  0  0  0  0
 27 85  1  0  0  0  0
 28 86  1  0  0  0  0
 29 31  2  0  0  0  0
 29 85  1  0  0  0  0
 30 87  1  0  0  0  0
 31 88  1  0  0  0  0
 32 67  2  0  0  0  0
 33 68  1  0  0  0  0
 33 73  1  0  0  0  0
 34 35  2  0  0  0  0
 34 45  1  0  0  0  0
 35 46  1  0  0  0  0
 35 63  1  0  0  0  0
 36 69  1  0  0  0  0
 36 79  2  0  0  0  0
 37 74  1  0  0  0  0
 37 80  2  0  0  0  0
 38 55  1  0  0  0  0
 38 76  1  0  0  0  0
 38 81  2  0  0  0  0
 39 64  1  0  0  0  0
 39 70  1  0  0  0  0
 39 82  2  0  0  0  0
 40 65  1  0  0  0  0
 40 77  1  0  0  0  0
 40 83  2  0  0  0  0
 41 71  1  0  0  0  0
 41 75  1  0  0  0  0
 41 84  2  0  0  0  0
 42 47  1  0  0  0  0
 43 55  1  0  0  0  0
 44 70  1  0  0  0  0
 45 51  1  0  0  0  0
 46 69  1  0  0  0  0
 47 49  1  0  0  0  0
 48 50  1  0  0  0  0
 48 52  1  0  0  0  0
 49 54  1  0  0  0  0
 50 56  1  0  0  0  0
 51 69  1  0  0  0  0
 52 71  1  0  0  0  0
 53 56  1  0  0  0  0
 53 71  1  0  0  0  0
 54 76  1  0  0  0  0
 55 70  1  0  0  0  0
 56 68  1  0  0  0  0
 58 65  1  0  0  0  0
 59 66  1  0  0  0  0
 60 66  1  0  0  0  0
 61 66  1  0  0  0  0
 62 78  1  0  0  0  0
 63 86  1  0  0  0  0
 64 66  1  0  0  0  0
 64 77  1  0  0  0  0
 65 78  1  0  0  0  0
 67 68  1  0  0  0  0
M  CHG  1  78   1
M  ISO  4  41 100  63 101  75 100  86 101
M  END
> <Batch ID>
0158

> <Smiles>
CNC(C)C(=O)NC(C(=O)N1Cc2cc([101O:1][101CH2:1]C3=CCCN(C(=O)c4c(C)cc(N)cc4[100NH:0][100C:0](=O)N4CCCC(n5nc(-c6ccc(Oc7ccc(F)cc7F)cc6)c(C(N)=O)c5N)C4)C3)ccc2CC1C(=O)NC1CCCc2ccccc21)C(C)(C)C

> <Shape>
0.241

> <Color>
0.082

> <Negative vol penalty>
0.000

$$$$

  -OEChem-04052303443D

 86 94  0     1  0  0  0  0  0999 V2000
  -30.4741  -34.3871   18.6171 C   0  0  0  0  0  0  0  0  0  0  0  0
  -30.2628  -33.0697   19.0109 C   0  0  0  0  0  0  0  0  0  0  0  0
  -24.5619  -15.7481   22.3708 C   0  0  0  0  0  0  0  0  0  0  0  0
  -23.6549  -15.8815   20.1355 C   0  0  0  0  0  0  0  0  0  0  0  0
  -29.7748  -35.4203   19.2396 C   0  0  0  0  0  0  0  0  0  0  0  0
  -29.3527  -32.7847   20.0282 C   0  0  0  0  0  0  0  0  0  0  0  0
  -26.3481  -28.8659   18.9052 C   0  0  0  0  0  0  0  0  0  0  0  0
  -24.0546  -17.0165   22.6523 C   0  0  0  0  0  0  0  0  0  0  0  0
  -23.1476  -17.1499   20.4170 C   0  0  0  0  0  0  0  0  0  0  0  0
  -26.8899  -27.5886   19.0418 C   0  0  0  0  0  0  0  0  0  0  0  0
  -24.8920  -20.2298   22.0217 C   0  0  0  0  0  0  0  0  0  0  0  0
  -25.7297  -21.1307   22.6791 C   0  0  0  0  0  0  0  0  0  0  0  0
  -29.6215  -18.2036   18.4168 C   0  0  0  0  0  0  0  0  0  0  0  0
  -25.7808  -27.3526   21.1710 C   0  0  0  0  0  0  0  0  0  0  0  0
  -24.1483  -21.2725   24.5001 C   0  0  0  0  0  0  0  0  0  0  0  0
  -24.3621  -15.1805   21.1123 C   0  0  0  0  0  0  0  0  0  0  0  0
  -30.3181  -19.4222   18.5983 C   0  0  0  0  0  0  0  0  0  0  0  0
  -24.2392  -12.6346   21.0093 C   0  0  0  0  0  0  0  0  0  0  0  0
  -28.8485  -35.1469   20.2584 C   0  0  0  0  0  0  0  0  0  0  0  0
  -25.5261  -29.4014   19.9072 C   0  0  0  0  0  0  0  0  0  0  0  0
  -28.6413  -33.8152   20.6658 C   0  0  0  0  0  0  0  0  0  0  0  0
  -25.2278  -28.6360   21.0435 C   0  0  0  0  0  0  0  0  0  0  0  0
  -23.3475  -17.7175   21.6755 C   0  0  0  0  0  0  0  0  0  0  0  0
  -26.6086  -26.8328   20.1762 C   0  0  0  0  0  0  0  0  0  0  0  0
  -23.6824  -19.8503   22.6035 C   0  0  0  0  0  0  0  0  0  0  0  0
  -25.3579  -21.6521   23.9183 C   0  0  0  0  0  0  0  0  0  0  0  0
  -23.3106  -20.3716   23.8427 C   0  0  0  0  0  0  0  0  0  0  0  0
  -24.8863  -13.8705   20.8207 C   0  0  0  0  0  0  0  0  0  0  0  0
  -31.4073  -19.1262   19.3844 C   0  0  0  0  0  0  0  0  0  0  0  0
  -25.1515  -11.7007   20.5825 C   0  0  0  0  0  0  0  0  0  0  0  0
  -30.3349  -17.2497   19.1047 C   0  0  0  0  0  0  0  0  0  0  0  0
  -29.9438  -20.7413   18.0502 C   0  0  0  0  0  0  0  0  0  0  0  0
  -22.9305  -12.3556   21.5241 C   0  0  0  0  0  0  0  0  0  0  0  0
  -32.4592  -19.9404   19.8927 C   0  0  0  0  0  0  0  0  0  0  0  0
  -25.6965  -31.9181   21.8413 C   0  0  0  0  0  0  0  0  0  0  0  0
  -28.4602  -23.7091   19.5409 C   0  0  0  0  0  0  0  0  0  0  0  0
  -22.6944  -31.0018   22.6599 C   0  0  0  0  0  0  0  0  0  0  0  0
  -20.3806  -28.5008   22.8555 C   0  0  0  0  0  0  0  0  0  0  0  0
  -29.0802  -15.0824   18.7612 C   0  0  0  0  0  0  0  0  0  0  0  0
  -28.1511  -36.3009   20.9342 C   0  0  0  0  0  0  0  0  0  0  0  0
  -24.9279  -30.7703   19.7323 C   0  0  0  0  0  0  0  0  0  0  0  0
  -24.3346  -29.1570   22.1385 C   0  0  0  0  0  0  0  0  0  0  0  0
  -26.9284  -35.8823   21.7466 C   0  0  0  0  0  0  0  0  0  0  0  0
  -29.9737  -11.6700   20.3178 C   0  0  0  0  0  0  0  0  0  0  0  0
  -27.2525  -34.6688   22.6122 C   0  0  0  0  0  0  0  0  0  0  0  0
  -28.5260  -11.4601   20.7433 C   0  0  0  0  0  0  0  0  0  0  0  0
  -30.2120  -13.1334   19.9559 C   0  0  0  0  0  0  0  0  0  0  0  0
  -28.1744  -12.7751   18.5588 C   0  0  0  0  0  0  0  0  0  0  0  0
  -27.6440  -33.4638   21.7484 C   0  0  1  0  0  0  0  0  0  0  0  0
  -24.5199  -31.4172   21.0523 C   0  0  1  0  0  0  0  0  0  0  0  0
  -27.5446  -11.8492   19.6197 C   0  0  2  0  0  0  0  0  0  0  0  0
  -33.5292  -19.2907   20.7467 C   0  0  0  0  0  0  0  0  0  0  0  0
  -18.0285  -28.0472   23.6036 C   0  0  0  0  0  0  0  0  0  0  0  0
  -23.6213  -31.0030   25.5669 C   0  0  0  0  0  0  0  0  0  0  0  0
  -21.5874  -29.6618   26.1433 C   0  0  0  0  0  0  0  0  0  0  0  0
  -21.3392  -31.9574   25.1993 C   0  0  0  0  0  0  0  0  0  0  0  0
  -19.5379  -27.7284   20.1256 C   0  0  0  0  0  0  0  0  0  0  0  0
  -29.3417  -23.0963   18.4844 C   0  0  0  0  0  0  0  0  0  0  0  0
  -27.9704  -25.1147   19.2546 C   0  0  0  0  0  0  0  0  0  1  0  0
  -22.1044  -30.0749   23.6952 C   0  0  1  0  0  0  0  0  0  0  0  0
  -18.9221  -28.4430   22.4384 C   0  0  2  0  0  0  0  0  0  0  0  0
  -22.1815  -30.6649   25.1316 C   0  0  0  0  0  0  0  0  0  0  0  0
  -26.1148  -13.7372   20.3137 N   0  0  0  0  0  0  0  0  0  0  0  0
  -26.2470  -12.4065   20.1802 N   0  0  0  0  0  0  0  0  0  0  0  0
  -23.7789  -30.5034   21.9243 N   0  0  0  0  0  0  0  0  0  0  0  0
  -29.1520  -13.7125   19.1175 N   0  0  0  0  0  0  0  0  0  0  0  0
  -25.1154  -10.3529   20.5159 N   0  0  0  0  0  0  0  0  0  0  0  0
  -22.1234  -13.4322   21.9166 N   0  0  0  0  0  0  0  0  0  0  0  0
  -30.1216  -15.8586   19.2767 N   0  0  0  0  0  0  0  0  0  0  0  0
  -29.6999  -21.7518   18.9035 N   0  0  0  0  0  0  0  0  0  0  0  0
  -26.4663  -32.8506   21.1727 N   0  0  0  0  0  0  0  0  0  0  0  0
  -20.7501  -29.7705   23.2462 N   0  0  0  0  0  0  0  0  0  0  0  0
  -29.8616  -20.8710   16.7259 N   0  3  0  0  0  0  0  0  0  0  0  0
  -18.7353  -27.4487   21.3441 N   0  3  0  0  0  0  0  0  0  0  0  0
  -22.4960  -11.1854   21.6482 O   0  0  0  0  0  0  0  0  0  0  0  0
  -32.5945  -21.1696   19.7076 O   0  0  0  0  0  0  0  0  0  0  0  0
  -25.8906  -31.4912   22.9735 O   0  0  0  0  0  0  0  0  0  0  0  0
  -28.1530  -23.1137   20.5727 O   0  0  0  0  0  0  0  0  0  0  0  0
  -22.2062  -32.1239   22.5046 O   0  0  0  0  0  0  0  0  0  0  0  0
  -21.1173  -27.5171   22.8401 O   0  0  0  0  0  0  0  0  0  0  0  0
  -28.1702  -15.5210   18.0545 O   0  0  0  0  0  0  0  0  0  0  0  0
  -31.4250  -17.8039   19.6973 O   0  0  0  0  0  0  0  0  0  0  0  0
  -22.8521  -18.9551   21.9499 O   0  0  0  0  0  0  0  0  0  0  0  0
  -27.1366  -25.5860   20.3124 O   0  0  0  0  0  0  0  0  0  1  0  0
  -26.1632  -22.5160   24.5501 F   0  0  0  0  0  0  0  0  0  0  0  0
  -22.1503  -20.0098   24.4071 F   0  0  0  0  0  0  0  0  0  0  0  0
  1  2  1  0  0  0  0
  1  5  2  0  0  0  0
  2  6  2  0  0  0  0
  3  8  2  0  0  0  0
  3 16  1  0  0  0  0
  4  9  1  0  0  0  0
  4 16  2  0  0  0  0
  5 19  1  0  0  0  0
  6 21  1  0  0  0  0
  7 10  2  0  0  0  0
  7 20  1  0  0  0  0
  8 23  1  0  0  0  0
  9 23  2  0  0  0  0
 10 24  1  0  0  0  0
 11 12  2  0  0  0  0
 11 25  1  0  0  0  0
 12 26  1  0  0  0  0
 13 17  1  0  0  0  0
 13 31  2  0  0  0  0
 14 22  1  0  0  0  0
 14 24  2  0  0  0  0
 15 26  2  0  0  0  0
 15 27  1  0  0  0  0
 16 28  1  0  0  0  0
 17 29  2  0  0  0  0
 17 32  1  0  0  0  0
 18 28  1  0  0  0  0
 18 30  2  0  0  0  0
 18 33  1  0  0  0  0
 19 21  2  0  0  0  0
 19 40  1  0  0  0  0
 20 22  2  0  0  0  0
 20 41  1  0  0  0  0
 21 49  1  0  0  0  0
 22 42  1  0  0  0  0
 23 83  1  0  0  0  0
 24 84  1  0  0  0  0
 25 27  2  0  0  0  0
 25 83  1  0  0  0  0
 26 85  1  0  0  0  0
 27 86  1  0  0  0  0
 28 63  2  0  0  0  0
 29 34  1  0  0  0  0
 29 82  1  0  0  0  0
 30 64  1  0  0  0  0
 30 67  1  0  0  0  0
 31 69  1  0  0  0  0
 31 82  1  0  0  0  0
 32 70  1  0  0  0  0
 32 73  2  0  0  0  0
 33 68  1  0  0  0  0
 33 75  2  0  0  0  0
 34 52  1  0  0  0  0
 34 76  2  0  0  0  0
 35 50  1  0  0  0  0
 35 71  1  0  0  0  0
 35 77  2  0  0  0  0
 36 58  1  0  0  0  0
 36 59  1  0  0  0  0
 36 78  2  0  0  0  0
 37 60  1  0  0  0  0
 37 65  1  0  0  0  0
 37 79  2  0  0  0  0
 38 61  1  0  0  0  0
 38 72  1  0  0  0  0
 38 80  2  0  0  0  0
 39 66  1  0  0  0  0
 39 69  1  0  0  0  0
 39 81  2  0  0  0  0
 40 43  1  0  0  0  0
 41 50  1  0  0  0  0
 42 65  1  0  0  0  0
 43 45  1  0  0  0  0
 44 46  1  0  0  0  0
 44 47  1  0  0  0  0
 45 49  1  0  0  0  0
 46 51  1  0  0  0  0
 47 66  1  0  0  0  0
 48 51  1  0  0  0  0
 48 66  1  0  0  0  0
 49 71  1  0  0  0  0
 50 65  1  0  0  0  0
 51 64  1  0  0  0  0
 53 61  1  0  0  0  0
 54 62  1  0  0  0  0
 55 62  1  0  0  0  0
 56 62  1  0  0  0  0
 57 74  1  0  0  0  0
 58 70  1  0  0  0  0
 59 84  1  0  0  0  0
 60 62  1  0  0  0  0
 60 72  1  0  0  0  0
 61 74  1  0  0  0  0
 63 64  1  0  0  0  0
M  CHG  2  73   1  74   1
M  ISO  4  39 100  59 101  69 100  84 101
M  END
> <Batch ID>
0158

> <Smiles>
CNC(C)C(=O)NC(C(=O)N1Cc2cc([101O:1][101CH2:1]C(=O)CNC(=N)c3cc([100NH:0][100C:0](=O)N4CCCC(n5nc(-c6ccc(Oc7ccc(F)cc7F)cc6)c(C(N)=O)c5N)C4)oc3C(C)=O)ccc2CC1C(=O)NC1CCCc2ccccc21)C(C)(C)C

> <Shape>
0.256

> <Color>
0.096

> <Negative vol penalty>
0.000

$$$$

  -OEChem-04052303443D

 83 92  0     1  0  0  0  0  0999 V2000
  -29.9808  -33.2862   26.0080 C   0  0  0  0  0  0  0  0  0  0  0  0
  -29.2478  -32.1914   25.5611 C   0  0  0  0  0  0  0  0  0  0  0  0
  -24.5950   -8.8372   21.0858 C   0  0  0  0  0  0  0  0  0  0  0  0
  -22.7716  -10.3566   20.6343 C   0  0  0  0  0  0  0  0  0  0  0  0
  -29.3382  -34.4972   26.2617 C   0  0  0  0  0  0  0  0  0  0  0  0
  -27.8715  -32.3068   25.3688 C   0  0  0  0  0  0  0  0  0  0  0  0
  -26.3361  -30.2185   21.0183 C   0  0  0  0  0  0  0  0  0  0  0  0
  -23.6805   -7.8142   21.3364 C   0  0  0  0  0  0  0  0  0  0  0  0
  -21.8571   -9.3336   20.8849 C   0  0  0  0  0  0  0  0  0  0  0  0
  -26.2170  -28.8298   20.9858 C   0  0  0  0  0  0  0  0  0  0  0  0
  -21.6568   -6.8471   23.8649 C   0  0  0  0  0  0  0  0  0  0  0  0
  -21.8702   -6.0490   24.9888 C   0  0  0  0  0  0  0  0  0  0  0  0
  -23.8339  -29.0329   21.3005 C   0  0  0  0  0  0  0  0  0  0  0  0
  -22.0304   -4.0979   23.5730 C   0  0  0  0  0  0  0  0  0  0  0  0
  -22.5077  -18.4344   19.1240 C   0  0  0  0  0  0  0  0  0  0  0  0
  -24.1405  -10.1085   20.7348 C   0  0  0  0  0  0  0  0  0  0  0  0
  -26.0891  -11.1863   19.4903 C   0  0  0  0  0  0  0  0  0  0  0  0
  -27.9549  -34.6302   26.0632 C   0  0  0  0  0  0  0  0  0  0  0  0
  -25.2046  -31.0258   21.2034 C   0  0  0  0  0  0  0  0  0  0  0  0
  -27.2096  -33.5203   25.6214 C   0  0  0  0  0  0  0  0  0  0  0  0
  -23.9410  -30.4317   21.3324 C   0  0  0  0  0  0  0  0  0  0  0  0
  -22.3116   -8.0624   21.2359 C   0  0  0  0  0  0  0  0  0  0  0  0
  -24.9661  -28.2367   21.1298 C   0  0  0  0  0  0  0  0  0  0  0  0
  -21.6302   -6.2705   22.5950 C   0  0  0  0  0  0  0  0  0  0  0  0
  -22.0570   -4.6745   24.8429 C   0  0  0  0  0  0  0  0  0  0  0  0
  -21.8170   -4.8960   22.4491 C   0  0  0  0  0  0  0  0  0  0  0  0
  -25.0847  -11.1658   20.4764 C   0  0  0  0  0  0  0  0  0  0  0  0
  -23.3716  -18.6085   20.1850 C   0  0  0  0  0  0  0  0  0  0  0  0
  -26.7084  -12.4010   19.6562 C   0  0  0  0  0  0  0  0  0  0  0  0
  -22.8697  -20.7120   19.8198 C   0  0  0  0  0  0  0  0  0  0  0  0
  -26.4316  -10.1960   18.5117 C   0  0  0  0  0  0  0  0  0  0  0  0
  -24.2747  -33.1119   23.4141 C   0  0  0  0  0  0  0  0  0  0  0  0
  -21.8257  -33.6182   21.3481 C   0  0  0  0  0  0  0  0  0  0  0  0
  -19.8889  -32.4269   18.8032 C   0  0  0  0  0  0  0  0  0  0  0  0
  -24.9052  -17.6263   21.9255 C   0  0  0  0  0  0  0  0  0  0  0  0
  -27.2969  -35.9458   26.3962 C   0  0  0  0  0  0  0  0  0  0  0  0
  -25.3464  -32.5233   21.2094 C   0  0  0  0  0  0  0  0  0  0  0  0
  -22.6925  -31.2546   21.5132 C   0  0  0  0  0  0  0  0  0  0  0  0
  -25.8954  -36.0918   25.8089 C   0  0  0  0  0  0  0  0  0  0  0  0
  -27.6838  -15.6803   23.0072 C   0  0  0  0  0  0  0  0  0  0  0  0
  -25.0779  -34.8283   26.0581 C   0  0  0  0  0  0  0  0  0  0  0  0
  -24.2189  -22.8501   19.6959 C   0  0  0  0  0  0  0  0  0  0  0  0
  -22.2756  -22.6685   21.3115 C   0  0  0  0  0  0  0  0  0  0  0  0
  -24.1733  -24.3731   19.8173 C   0  0  0  0  0  0  0  0  0  0  0  0
  -22.2349  -24.1919   21.4288 C   0  0  0  0  0  0  0  0  0  0  0  0
  -27.4271  -14.3053   22.3862 C   0  0  0  0  0  0  0  0  0  0  0  0
  -26.3869  -16.3498   23.4585 C   0  0  0  0  0  0  0  0  0  0  0  0
  -25.0864  -15.0633   21.8084 C   0  0  0  0  0  0  0  0  0  0  0  0
  -25.7190  -33.6131   25.3771 C   0  0  1  0  0  0  0  0  0  0  0  0
  -22.8375  -22.2239   19.9507 C   0  0  0  0  0  0  0  0  0  0  0  0
  -24.1950  -33.2297   21.9183 C   0  0  1  0  0  0  0  0  0  0  0  0
  -23.6127  -24.8174   21.1746 C   0  0  0  0  0  0  0  0  0  0  0  0
  -26.3568  -14.3777   21.2795 C   0  0  2  0  0  0  0  0  0  0  0  0
  -17.9424  -33.0547   17.3490 C   0  0  0  0  0  0  0  0  0  0  0  0
  -19.9207  -33.0807   23.6701 C   0  0  0  0  0  0  0  0  0  0  0  0
  -18.0802  -32.7808   21.9996 C   0  0  0  0  0  0  0  0  0  0  0  0
  -19.2473  -34.9776   22.1859 C   0  0  0  0  0  0  0  0  0  0  0  0
  -21.5174  -32.2319   16.3397 C   0  0  0  0  0  0  0  0  0  0  0  0
  -23.5354  -26.3410   21.2528 C   0  0  0  0  0  0  0  0  0  1  0  0
  -20.4563  -33.0161   21.1453 C   0  0  1  0  0  0  0  0  0  0  0  0
  -19.4568  -33.0516   17.4888 C   0  0  2  0  0  0  0  0  0  0  0  0
  -19.4497  -33.4480   22.2488 C   0  0  0  0  0  0  0  0  0  0  0  0
  -25.0637  -12.2789   21.2143 N   0  0  0  0  0  0  0  0  0  0  0  0
  -23.5807  -19.9139   20.5850 N   0  0  0  0  0  0  0  0  0  0  0  0
  -26.0626  -13.0103   20.6915 N   0  0  0  0  0  0  0  0  0  0  0  0
  -22.8839  -32.7143   21.5187 N   0  0  0  0  0  0  0  0  0  0  0  0
  -25.4222  -16.3865   22.3573 N   0  0  0  0  0  0  0  0  0  0  0  0
  -27.7369  -12.9966   19.0160 N   0  0  0  0  0  0  0  0  0  0  0  0
  -25.8007  -10.2462   17.2612 N   0  0  0  0  0  0  0  0  0  0  0  0
  -24.0215  -17.5396   20.8503 N   0  0  0  0  0  0  0  0  0  0  0  0
  -25.4380  -33.6227   23.9575 N   0  0  0  0  0  0  0  0  0  0  0  0
  -20.0489  -33.3753   19.7912 N   0  0  0  0  0  0  0  0  0  0  0  0
  -20.0331  -32.2951   16.3415 N   0  3  0  0  0  0  0  0  0  0  0  0
  -27.2602   -9.2836   18.7451 O   0  0  0  0  0  0  0  0  0  0  0  0
  -23.3486  -32.5972   24.0299 O   0  0  0  0  0  0  0  0  0  0  0  0
  -21.9530  -34.8451   21.3477 O   0  0  0  0  0  0  0  0  0  0  0  0
  -20.0632  -31.2181   18.9407 O   0  0  0  0  0  0  0  0  0  0  0  0
  -25.2440  -18.6894   22.4519 O   0  0  0  0  0  0  0  0  0  0  0  0
  -21.4190   -7.0643   21.4801 O   0  0  0  0  0  0  0  0  0  0  0  0
  -24.8471  -26.8814   21.0990 O   0  0  0  0  0  0  0  0  0  1  0  0
  -22.2634   -3.9084   25.9221 F   0  0  0  0  0  0  0  0  0  0  0  0
  -21.7936   -4.3366   21.2316 F   0  0  0  0  0  0  0  0  0  0  0  0
  -21.9263  -19.9602   18.5993 S   0  0  0  0  0  0  0  0  0  0  0  0
  1  2  1  0  0  0  0
  1  5  2  0  0  0  0
  2  6  2  0  0  0  0
  3  8  2  0  0  0  0
  3 16  1  0  0  0  0
  4  9  1  0  0  0  0
  4 16  2  0  0  0  0
  5 18  1  0  0  0  0
  6 20  1  0  0  0  0
  7 10  2  0  0  0  0
  7 19  1  0  0  0  0
  8 22  1  0  0  0  0
  9 22  2  0  0  0  0
 10 23  1  0  0  0  0
 11 12  2  0  0  0  0
 11 24  1  0  0  0  0
 12 25  1  0  0  0  0
 13 21  1  0  0  0  0
 13 23  2  0  0  0  0
 14 25  2  0  0  0  0
 14 26  1  0  0  0  0
 15 28  2  0  0  0  0
 15 83  1  0  0  0  0
 16 27  1  0  0  0  0
 17 27  1  0  0  0  0
 17 29  2  0  0  0  0
 17 31  1  0  0  0  0
 18 20  2  0  0  0  0
 18 36  1  0  0  0  0
 19 21  2  0  0  0  0
 19 37  1  0  0  0  0
 20 49  1  0  0  0  0
 21 38  1  0  0  0  0
 22 79  1  0  0  0  0
 23 80  1  0  0  0  0
 24 26  2  0  0  0  0
 24 79  1  0  0  0  0
 25 81  1  0  0  0  0
 26 82  1  0  0  0  0
 27 63  2  0  0  0  0
 28 64  1  0  0  0  0
 28 70  1  0  0  0  0
 29 65  1  0  0  0  0
 29 68  1  0  0  0  0
 30 50  1  0  0  0  0
 30 64  2  0  0  0  0
 30 83  1  0  0  0  0
 31 69  1  0  0  0  0
 31 74  2  0  0  0  0
 32 51  1  0  0  0  0
 32 71  1  0  0  0  0
 32 75  2  0  0  0  0
 33 60  1  0  0  0  0
 33 66  1  0  0  0  0
 33 76  2  0  0  0  0
 34 61  1  0  0  0  0
 34 72  1  0  0  0  0
 34 77  2  0  0  0  0
 35 67  1  0  0  0  0
 35 70  1  0  0  0  0
 35 78  2  0  0  0  0
 36 39  1  0  0  0  0
 37 51  1  0  0  0  0
 38 66  1  0  0  0  0
 39 41  1  0  0  0  0
 40 46  1  0  0  0  0
 40 47  1  0  0  0  0
 41 49  1  0  0  0  0
 42 44  1  0  0  0  0
 42 50  1  0  0  0  0
 43 45  1  0  0  0  0
 43 50  1  0  0  0  0
 44 52  1  0  0  0  0
 45 52  1  0  0  0  0
 46 53  1  0  0  0  0
 47 67  1  0  0  0  0
 48 53  1  0  0  0  0
 48 67  1  0  0  0  0
 49 71  1  0  0  0  0
 51 66  1  0  0  0  0
 52 59  1  0  0  0  0
 53 65  1  0  0  0  0
 54 61  1  0  0  0  0
 55 62  1  0  0  0  0
 56 62  1  0  0  0  0
 57 62  1  0  0  0  0
 58 73  1  0  0  0  0
 59 80  1  0  0  0  0
 60 62  1  0  0  0  0
 60 72  1  0  0  0  0
 61 73  1  0  0  0  0
 63 65  1  0  0  0  0
M  CHG  1  73   1
M  ISO  4  35 100  59 101  70 100  80 101
M  END
> <Batch ID>
0158

> <Smiles>
CNC(C)C(=O)NC(C(=O)N1Cc2cc([101O:1][101CH2:1]C3CCC(c4nc([100NH:0][100C:0](=O)N5CCCC(n6nc(-c7ccc(Oc8ccc(F)cc8F)cc7)c(C(N)=O)c6N)C5)cs4)CC3)ccc2CC1C(=O)NC1CCCc2ccccc21)C(C)(C)C

> <Shape>
0.207

> <Color>
0.113

> <Negative vol penalty>
0.000

$$$$

  -OEChem-04052303443D

 86 94  0     1  0  0  0  0  0999 V2000
  -40.3277  -28.4710   26.3832 C   0  0  0  0  0  0  0  0  0  0  0  0
  -39.2989  -27.7015   26.9171 C   0  0  0  0  0  0  0  0  0  0  0  0
  -23.0059   -9.8876   19.9822 C   0  0  0  0  0  0  0  0  0  0  0  0
  -23.7350   -9.9429   22.2849 C   0  0  0  0  0  0  0  0  0  0  0  0
  -40.1108  -29.2151   25.2243 C   0  0  0  0  0  0  0  0  0  0  0  0
  -38.0522  -27.6767   26.2929 C   0  0  0  0  0  0  0  0  0  0  0  0
  -34.2102  -22.9213   25.9314 C   0  0  0  0  0  0  0  0  0  0  0  0
  -22.2439   -8.7507   20.2507 C   0  0  0  0  0  0  0  0  0  0  0  0
  -22.9729   -8.8059   22.5535 C   0  0  0  0  0  0  0  0  0  0  0  0
  -33.0798  -22.5706   26.6683 C   0  0  0  0  0  0  0  0  0  0  0  0
  -23.2282   -5.4675   22.0837 C   0  0  0  0  0  0  0  0  0  0  0  0
  -23.8207   -4.4530   22.8355 C   0  0  0  0  0  0  0  0  0  0  0  0
  -28.4577  -19.1528   23.5653 C   0  0  0  0  0  0  0  0  0  0  0  0
  -31.6779  -23.5972   24.9950 C   0  0  0  0  0  0  0  0  0  0  0  0
  -22.0989   -4.6911   24.5136 C   0  0  0  0  0  0  0  0  0  0  0  0
  -23.7515  -10.4838   20.9993 C   0  0  0  0  0  0  0  0  0  0  0  0
  -28.7582  -18.3981   22.4063 C   0  0  0  0  0  0  0  0  0  0  0  0
  -24.1277  -13.0006   20.8207 C   0  0  0  0  0  0  0  0  0  0  0  0
  -38.8637  -29.1918   24.5802 C   0  0  0  0  0  0  0  0  0  0  0  0
  -34.0832  -23.6233   24.7242 C   0  0  0  0  0  0  0  0  0  0  0  0
  -37.8181  -28.4223   25.1250 C   0  0  0  0  0  0  0  0  0  0  0  0
  -32.8081  -23.9533   24.2434 C   0  0  0  0  0  0  0  0  0  0  0  0
  -22.2273   -8.2098   21.5364 C   0  0  0  0  0  0  0  0  0  0  0  0
  -31.8136  -22.9110   26.2016 C   0  0  0  0  0  0  0  0  0  0  0  0
  -22.0711   -6.0940   22.5468 C   0  0  0  0  0  0  0  0  0  0  0  0
  -23.2560   -4.0648   24.0504 C   0  0  0  0  0  0  0  0  0  0  0  0
  -21.5064   -5.7057   23.7617 C   0  0  0  0  0  0  0  0  0  0  0  0
  -24.5394  -11.6580   20.7223 C   0  0  0  0  0  0  0  0  0  0  0  0
  -29.9573  -17.7729   22.6579 C   0  0  0  0  0  0  0  0  0  0  0  0
  -25.2342  -13.7268   20.4537 C   0  0  0  0  0  0  0  0  0  0  0  0
  -29.4944  -18.9347   24.4427 C   0  0  0  0  0  0  0  0  0  0  0  0
  -27.9716  -18.3068   21.2159 C   0  0  0  0  0  0  0  0  0  0  0  0
  -22.8585  -13.5428   21.2090 C   0  0  0  0  0  0  0  0  0  0  0  0
  -35.0429  -26.4643   23.6698 C   0  0  0  0  0  0  0  0  0  0  0  0
  -33.8449  -25.3894   20.8535 C   0  0  0  0  0  0  0  0  0  0  0  0
  -31.6971  -23.2916   19.2309 C   0  0  0  0  0  0  0  0  0  0  0  0
  -30.7277  -14.6810   20.6918 C   0  0  0  0  0  0  0  0  0  0  0  0
  -38.6627  -30.0499   23.3563 C   0  0  0  0  0  0  0  0  0  0  0  0
  -35.3110  -23.9708   23.9278 C   0  0  0  0  0  0  0  0  0  0  0  0
  -32.6167  -24.6889   22.9431 C   0  0  0  0  0  0  0  0  0  0  0  0
  -37.4246  -29.6746   22.5459 C   0  0  0  0  0  0  0  0  0  0  0  0
  -29.5914  -12.2515   18.3502 C   0  0  0  0  0  0  0  0  0  0  0  0
  -36.2211  -29.4895   23.4647 C   0  0  0  0  0  0  0  0  0  0  0  0
  -28.1446  -11.9870   18.7706 C   0  0  0  0  0  0  0  0  0  0  0  0
  -30.4951  -12.4910   19.5577 C   0  0  0  0  0  0  0  0  0  0  0  0
  -28.5846  -13.2808   20.8992 C   0  0  0  0  0  0  0  0  0  0  0  0
  -36.4592  -28.3500   24.4629 C   0  0  1  0  0  0  0  0  0  0  0  0
  -35.0909  -25.1364   22.9684 C   0  0  1  0  0  0  0  0  0  0  0  0
  -27.6241  -13.0888   19.7131 C   0  0  2  0  0  0  0  0  0  0  0  0
  -30.9144  -22.6684   16.9295 C   0  0  0  0  0  0  0  0  0  0  0  0
  -32.1788  -27.9427   20.7313 C   0  0  0  0  0  0  0  0  0  0  0  0
  -30.7633  -26.8522   18.9776 C   0  0  0  0  0  0  0  0  0  0  0  0
  -33.1886  -27.2506   18.5506 C   0  0  0  0  0  0  0  0  0  0  0  0
  -28.4030  -21.6688   28.4695 C   0  0  0  0  0  0  0  0  0  0  0  0
  -29.5388  -19.4559   28.7177 C   0  0  0  0  0  0  0  0  0  0  0  0
  -32.6285  -20.4999   19.5441 C   0  0  0  0  0  0  0  0  0  0  0  0
  -30.8048  -16.8611   21.8752 C   0  0  0  0  0  0  0  0  0  0  0  0
  -28.8519  -20.3056   26.4260 C   0  0  0  0  0  0  0  0  0  0  0  0
  -30.7879  -21.3858   27.7108 C   0  0  0  0  0  0  0  0  0  1  0  0
  -32.4970  -25.4415   20.1757 C   0  0  1  0  0  0  0  0  0  0  0  0
  -31.8984  -22.3619   18.0478 C   0  0  2  0  0  0  0  0  0  0  0  0
  -32.1603  -26.8596   19.6343 C   0  0  0  0  0  0  0  0  0  0  0  0
  -29.4084  -20.6977   27.8163 C   0  0  0  0  0  0  0  0  0  0  0  0
  -25.8084  -11.5356   20.3240 N   0  0  0  0  0  0  0  0  0  0  0  0
  -26.2036  -12.8107   20.1687 N   0  0  0  0  0  0  0  0  0  0  0  0
  -33.8482  -25.0121   22.2039 N   0  0  0  0  0  0  0  0  0  0  0  0
  -29.9461  -13.5484   20.4099 N   0  0  0  0  0  0  0  0  0  0  0  0
  -25.4628  -15.0532   20.3503 N   0  0  0  0  0  0  0  0  0  0  0  0
  -28.3719  -17.5465   20.1721 N   0  0  0  0  0  0  0  0  0  0  0  0
  -21.8304  -12.6553   21.5550 N   0  0  0  0  0  0  0  0  0  0  0  0
  -29.7383  -19.4077   25.7213 N   0  0  0  0  0  0  0  0  0  0  0  0
  -36.2774  -27.0671   23.8182 N   0  0  0  0  0  0  0  0  0  0  0  0
  -32.5134  -24.4002   19.1540 N   0  0  0  0  0  0  0  0  0  0  0  0
  -30.1294  -15.6383   21.5020 N   0  0  0  0  0  0  0  0  0  0  0  0
  -26.8030  -18.9767   21.0991 N   0  3  0  0  0  0  0  0  0  0  0  0
  -31.7087  -20.9439   18.4652 N   0  3  0  0  0  0  0  0  0  0  0  0
  -22.6374  -14.7773   21.2322 O   0  0  0  0  0  0  0  0  0  0  0  0
  -33.9654  -26.9097   24.0471 O   0  0  0  0  0  0  0  0  0  0  0  0
  -34.8581  -25.6661   20.2067 O   0  0  0  0  0  0  0  0  0  0  0  0
  -30.8932  -23.0596   20.1311 O   0  0  0  0  0  0  0  0  0  0  0  0
  -31.8718  -14.8306   20.2496 O   0  0  0  0  0  0  0  0  0  0  0  0
  -30.4126  -18.0946   23.8971 O   0  0  0  0  0  0  0  0  0  0  0  0
  -21.4837   -7.1005   21.7988 O   0  0  0  0  0  0  0  0  0  0  0  0
  -30.7086  -22.5705   26.9192 O   0  0  0  0  0  0  0  0  0  1  0  0
  -23.8242   -3.0894   24.7716 F   0  0  0  0  0  0  0  0  0  0  0  0
  -20.3942   -6.3030   24.2113 F   0  0  0  0  0  0  0  0  0  0  0  0
  1  2  1  0  0  0  0
  1  5  2  0  0  0  0
  2  6  2  0  0  0  0
  3  8  2  0  0  0  0
  3 16  1  0  0  0  0
  4  9  1  0  0  0  0
  4 16  2  0  0  0  0
  5 19  1  0  0  0  0
  6 21  1  0  0  0  0
  7 10  2  0  0  0  0
  7 20  1  0  0  0  0
  8 23  1  0  0  0  0
  9 23  2  0  0  0  0
 10 24  1  0  0  0  0
 11 12  2  0  0  0  0
 11 25  1  0  0  0  0
 12 26  1  0  0  0  0
 13 17  1  0  0  0  0
 13 31  2  0  0  0  0
 14 22  1  0  0  0  0
 14 24  2  0  0  0  0
 15 26  2  0  0  0  0
 15 27  1  0  0  0  0
 16 28  1  0  0  0  0
 17 29  2  0  0  0  0
 17 32  1  0  0  0  0
 18 28  1  0  0  0  0
 18 30  2  0  0  0  0
 18 33  1  0  0  0  0
 19 21  2  0  0  0  0
 19 38  1  0  0  0  0
 20 22  2  0  0  0  0
 20 39  1  0  0  0  0
 21 47  1  0  0  0  0
 22 40  1  0  0  0  0
 23 83  1  0  0  0  0
 24 84  1  0  0  0  0
 25 27  2  0  0  0  0
 25 83  1  0  0  0  0
 26 85  1  0  0  0  0
 27 86  1  0  0  0  0
 28 64  2  0  0  0  0
 29 57  1  0  0  0  0
 29 82  1  0  0  0  0
 30 65  1  0  0  0  0
 30 68  1  0  0  0  0
 31 71  1  0  0  0  0
 31 82  1  0  0  0  0
 32 69  1  0  0  0  0
 32 75  2  0  0  0  0
 33 70  1  0  0  0  0
 33 77  2  0  0  0  0
 34 48  1  0  0  0  0
 34 72  1  0  0  0  0
 34 78  2  0  0  0  0
 35 60  1  0  0  0  0
 35 66  1  0  0  0  0
 35 79  2  0  0  0  0
 36 61  1  0  0  0  0
 36 73  1  0  0  0  0
 36 80  2  0  0  0  0
 37 67  1  0  0  0  0
 37 74  1  0  0  0  0
 37 81  2  0  0  0  0
 38 41  1  0  0  0  0
 39 48  1  0  0  0  0
 40 66  1  0  0  0  0
 41 43  1  0  0  0  0
 42 44  1  0  0  0  0
 42 45  1  0  0  0  0
 43 47  1  0  0  0  0
 44 49  1  0  0  0  0
 45 67  1  0  0  0  0
 46 49  1  0  0  0  0
 46 67  1  0  0  0  0
 47 72  1  0  0  0  0
 48 66  1  0  0  0  0
 49 65  1  0  0  0  0
 50 61  1  0  0  0  0
 51 62  1  0  0  0  0
 52 62  1  0  0  0  0
 53 62  1  0  0  0  0
 54 63  1  0  0  0  0
 55 63  1  0  0  0  0
 56 76  1  0  0  0  0
 57 74  1  0  0  0  0
 58 63  1  0  0  0  0
 58 71  1  0  0  0  0
 59 63  1  0  0  0  0
 59 84  1  0  0  0  0
 60 62  1  0  0  0  0
 60 73  1  0  0  0  0
 61 76  1  0  0  0  0
 64 65  1  0  0  0  0
M  CHG  2  75   1  76   1
M  ISO  4  37 100  59 101  74 100  84 101
M  END
> <Batch ID>
0158

> <Smiles>
CNC(C)C(=O)NC(C(=O)N1Cc2cc([101O:1][101CH2:1]C(C)(C)CNc3cc(C(=N)N)c(C[100NH:0][100C:0](=O)N4CCCC(n5nc(-c6ccc(Oc7ccc(F)cc7F)cc6)c(C(N)=O)c5N)C4)o3)ccc2CC1C(=O)NC1CCCc2ccccc21)C(C)(C)C

> <Shape>
0.211

> <Color>
0.182

> <Negative vol penalty>
0.000

$$$$

  -OEChem-04052303443D

 85 93  0     1  0  0  0  0  0999 V2000
  -31.3868  -16.6537   16.1657 C   0  0  0  0  0  0  0  0  0  0  0  0
  -31.2810  -17.5586   17.2171 C   0  0  0  0  0  0  0  0  0  0  0  0
  -23.0720   -9.8701   19.9385 C   0  0  0  0  0  0  0  0  0  0  0  0
  -23.8323   -9.8718   22.2318 C   0  0  0  0  0  0  0  0  0  0  0  0
  -32.0213  -17.0319   14.9832 C   0  0  0  0  0  0  0  0  0  0  0  0
  -31.8107  -18.8420   17.0869 C   0  0  0  0  0  0  0  0  0  0  0  0
  -28.6582  -22.4257   18.7790 C   0  0  0  0  0  0  0  0  0  0  0  0
  -22.3272   -8.7171   20.1863 C   0  0  0  0  0  0  0  0  0  0  0  0
  -23.0874   -8.7188   22.4796 C   0  0  0  0  0  0  0  0  0  0  0  0
  -28.5807  -22.6055   20.1594 C   0  0  0  0  0  0  0  0  0  0  0  0
  -19.8586   -7.9227   23.0810 C   0  0  0  0  0  0  0  0  0  0  0  0
  -19.1018   -7.8811   24.2520 C   0  0  0  0  0  0  0  0  0  0  0  0
  -30.0572  -24.5056   19.9887 C   0  0  0  0  0  0  0  0  0  0  0  0
  -29.9326  -17.8675   22.7730 C   0  0  0  0  0  0  0  0  0  0  0  0
  -20.3416   -5.9411   24.9844 C   0  0  0  0  0  0  0  0  0  0  0  0
  -31.8331  -17.4371   21.6450 C   0  0  0  0  0  0  0  0  0  0  0  0
  -23.8246  -10.4474   20.9612 C   0  0  0  0  0  0  0  0  0  0  0  0
  -24.1687  -12.9725   20.8462 C   0  0  0  0  0  0  0  0  0  0  0  0
  -32.5505  -18.3236   14.8349 C   0  0  0  0  0  0  0  0  0  0  0  0
  -29.4457  -23.2793   17.9931 C   0  0  0  0  0  0  0  0  0  0  0  0
  -32.4541  -19.2373   15.9018 C   0  0  0  0  0  0  0  0  0  0  0  0
  -30.1409  -24.3360   18.5982 C   0  0  0  0  0  0  0  0  0  0  0  0
  -30.5878  -16.9276   21.9398 C   0  0  0  0  0  0  0  0  0  0  0  0
  -22.3348   -8.1415   21.4568 C   0  0  0  0  0  0  0  0  0  0  0  0
  -29.2826  -23.6438   20.7648 C   0  0  0  0  0  0  0  0  0  0  0  0
  -20.8569   -6.9734   22.8617 C   0  0  0  0  0  0  0  0  0  0  0  0
  -19.3433   -6.8903   25.2036 C   0  0  0  0  0  0  0  0  0  0  0  0
  -21.0984   -5.9827   23.8134 C   0  0  0  0  0  0  0  0  0  0  0  0
  -24.5947  -11.6381   20.7057 C   0  0  0  0  0  0  0  0  0  0  0  0
  -30.7973  -18.9229   22.9619 C   0  0  0  0  0  0  0  0  0  0  0  0
  -25.2615  -13.7217   20.4842 C   0  0  0  0  0  0  0  0  0  0  0  0
  -22.8987  -13.4886   21.2663 C   0  0  0  0  0  0  0  0  0  0  0  0
  -30.5339  -20.1345   23.7639 C   0  0  0  0  0  0  0  0  0  0  0  0
  -31.9812  -22.8957   16.1149 C   0  0  0  0  0  0  0  0  0  0  0  0
  -30.7166  -25.0795   23.5167 C   0  0  0  0  0  0  0  0  0  0  0  0
  -31.4595  -26.0229   15.4290 C   0  0  0  0  0  0  0  0  0  0  0  0
  -30.1359  -29.0181   16.3901 C   0  0  0  0  0  0  0  0  0  0  0  0
  -30.7285  -14.7622   20.6601 C   0  0  0  0  0  0  0  0  0  0  0  0
  -33.2693  -18.6711   13.5553 C   0  0  0  0  0  0  0  0  0  0  0  0
  -29.4975  -23.0883   16.5021 C   0  0  0  0  0  0  0  0  0  0  0  0
  -30.9843  -25.2924   17.7967 C   0  0  0  0  0  0  0  0  0  0  0  0
  -33.4731  -20.1712   13.3593 C   0  0  0  0  0  0  0  0  0  0  0  0
  -29.6117  -12.3539   18.2873 C   0  0  0  0  0  0  0  0  0  0  0  0
  -33.9970  -20.8108   14.6411 C   0  0  0  0  0  0  0  0  0  0  0  0
  -28.1719  -12.0627   18.7166 C   0  0  0  0  0  0  0  0  0  0  0  0
  -30.5272  -12.5796   19.4893 C   0  0  0  0  0  0  0  0  0  0  0  0
  -28.6211  -13.3031   20.8722 C   0  0  0  0  0  0  0  0  0  0  0  0
  -32.9942  -20.6465   15.7895 C   0  0  1  0  0  0  0  0  0  0  0  0
  -30.7392  -23.7031   15.8637 C   0  0  1  0  0  0  0  0  0  0  0  0
  -27.6479  -13.1329   19.6942 C   0  0  2  0  0  0  0  0  0  0  0  0
  -32.1622  -25.4803   23.6645 C   0  0  0  0  0  0  0  0  0  0  0  0
  -29.9011  -31.4005   15.6373 C   0  0  0  0  0  0  0  0  0  0  0  0
  -34.3720  -26.5432   16.1750 C   0  0  0  0  0  0  0  0  0  0  0  0
  -33.8249  -28.9816   16.3266 C   0  0  0  0  0  0  0  0  0  0  0  0
  -33.5756  -27.7820   14.1538 C   0  0  0  0  0  0  0  0  0  0  0  0
  -33.1141  -19.5046   22.2055 C   0  0  0  0  0  0  0  0  0  0  0  0
  -27.1819  -28.8397   16.3614 C   0  0  0  0  0  0  0  0  0  0  0  0
  -30.3296  -22.5940   23.8385 C   0  0  0  0  0  0  0  0  0  0  0  0
  -30.4309  -23.7410   22.8451 C   0  0  1  0  0  0  0  0  0  1  0  0
  -31.9205  -27.3368   16.0124 C   0  0  1  0  0  0  0  0  0  0  0  0
  -29.2661  -30.0187   15.6508 C   0  0  2  0  0  0  0  0  0  0  0  0
  -33.4090  -27.6419   15.6826 C   0  0  0  0  0  0  0  0  0  0  0  0
  -25.8594  -11.5420   20.2871 N   0  0  0  0  0  0  0  0  0  0  0  0
  -31.9493  -18.6505   22.2714 N   0  0  0  0  0  0  0  0  0  0  0  0
  -26.2375  -12.8255   20.1612 N   0  0  0  0  0  0  0  0  0  0  0  0
  -31.0080  -25.0604   16.3430 N   0  0  0  0  0  0  0  0  0  0  0  0
  -29.9692  -13.6093   20.3687 N   0  0  0  0  0  0  0  0  0  0  0  0
  -25.4730  -15.0531   20.4138 N   0  0  0  0  0  0  0  0  0  0  0  0
  -21.8861  -12.5797   21.6019 N   0  0  0  0  0  0  0  0  0  0  0  0
  -30.2706  -19.9837   25.0619 N   0  0  0  0  0  0  0  0  0  0  0  0
  -30.0821  -15.6863   21.4803 N   0  0  0  0  0  0  0  0  0  0  0  0
  -31.9098  -21.5952   15.6532 N   0  0  0  0  0  0  0  0  0  0  0  0
  -30.9832  -28.3472   15.5339 N   0  0  0  0  0  0  0  0  0  0  0  0
  -30.5699  -21.3220   23.1494 N   0  3  0  0  0  0  0  0  0  0  0  0
  -27.9290  -30.1223   16.3007 N   0  3  0  0  0  0  0  0  0  0  0  0
  -22.6636  -14.7193   21.3261 O   0  0  0  0  0  0  0  0  0  0  0  0
  -32.9344  -23.4146   16.6840 O   0  0  0  0  0  0  0  0  0  0  0  0
  -29.8138  -25.8143   23.9182 O   0  0  0  0  0  0  0  0  0  0  0  0
  -31.4919  -25.8594   14.2067 O   0  0  0  0  0  0  0  0  0  0  0  0
  -30.0729  -28.8513   17.6062 O   0  0  0  0  0  0  0  0  0  0  0  0
  -31.8577  -14.9309   20.1926 O   0  0  0  0  0  0  0  0  0  0  0  0
  -21.6079   -7.0165   21.6990 O   0  0  0  0  0  0  0  0  0  0  0  0
  -29.2093  -23.8211   22.1120 O   0  0  0  0  0  0  0  0  0  1  0  0
  -18.6175   -6.8515   26.3288 F   0  0  0  0  0  0  0  0  0  0  0  0
  -22.0569   -5.0687   23.6088 F   0  0  0  0  0  0  0  0  0  0  0  0
  1  2  1  0  0  0  0
  1  5  2  0  0  0  0
  2  6  2  0  0  0  0
  3  8  2  0  0  0  0
  3 17  1  0  0  0  0
  4  9  1  0  0  0  0
  4 17  2  0  0  0  0
  5 19  1  0  0  0  0
  6 21  1  0  0  0  0
  7 10  2  0  0  0  0
  7 20  1  0  0  0  0
  8 24  1  0  0  0  0
  9 24  2  0  0  0  0
 10 25  1  0  0  0  0
 11 12  2  0  0  0  0
 11 26  1  0  0  0  0
 12 27  1  0  0  0  0
 13 22  1  0  0  0  0
 13 25  2  0  0  0  0
 14 23  1  0  0  0  0
 14 30  2  0  0  0  0
 15 27  2  0  0  0  0
 15 28  1  0  0  0  0
 16 23  2  0  0  0  0
 16 64  1  0  0  0  0
 17 29  1  0  0  0  0
 18 29  1  0  0  0  0
 18 31  2  0  0  0  0
 18 32  1  0  0  0  0
 19 21  2  0  0  0  0
 19 39  1  0  0  0  0
 20 22  2  0  0  0  0
 20 40  1  0  0  0  0
 21 48  1  0  0  0  0
 22 41  1  0  0  0  0
 23 71  1  0  0  0  0
 24 82  1  0  0  0  0
 25 83  1  0  0  0  0
 26 28  2  0  0  0  0
 26 82  1  0  0  0  0
 27 84  1  0  0  0  0
 28 85  1  0  0  0  0
 29 63  2  0  0  0  0
 30 33  1  0  0  0  0
 30 64  1  0  0  0  0
 31 65  1  0  0  0  0
 31 68  1  0  0  0  0
 32 69  1  0  0  0  0
 32 76  2  0  0  0  0
 33 70  1  0  0  0  0
 33 74  2  0  0  0  0
 34 49  1  0  0  0  0
 34 72  1  0  0  0  0
 34 77  2  0  0  0  0
 35 51  1  0  0  0  0
 35 59  1  0  0  0  0
 35 78  2  0  0  0  0
 36 60  1  0  0  0  0
 36 66  1  0  0  0  0
 36 79  2  0  0  0  0
 37 61  1  0  0  0  0
 37 73  1  0  0  0  0
 37 80  2  0  0  0  0
 38 67  1  0  0  0  0
 38 71  1  0  0  0  0
 38 81  2  0  0  0  0
 39 42  1  0  0  0  0
 40 49  1  0  0  0  0
 41 66  1  0  0  0  0
 42 44  1  0  0  0  0
 43 45  1  0  0  0  0
 43 46  1  0  0  0  0
 44 48  1  0  0  0  0
 45 50  1  0  0  0  0
 46 67  1  0  0  0  0
 47 50  1  0  0  0  0
 47 67  1  0  0  0  0
 48 72  1  0  0  0  0
 49 66  1  0  0  0  0
 50 65  1  0  0  0  0
 52 61  1  0  0  0  0
 53 62  1  0  0  0  0
 54 62  1  0  0  0  0
 55 62  1  0  0  0  0
 56 64  1  0  0  0  0
 57 75  1  0  0  0  0
 58 59  1  0  0  0  0
 58 74  1  0  0  0  0
 59 83  1  0  0  0  0
 60 62  1  0  0  0  0
 60 73  1  0  0  0  0
 61 75  1  0  0  0  0
 63 65  1  0  0  0  0
M  CHG  2  74   1  75   1
M  ISO  4  38 100  59 101  71 100  83 101
M  END
> <Batch ID>
0158

> <Smiles>
CNC(C)C(=O)NC(C(=O)N1Cc2cc([101O:1][101CH:1](CNC(=N)c3cc([100NH:0][100C:0](=O)N4CCCC(n5nc(-c6ccc(Oc7ccc(F)cc7F)cc6)c(C(N)=O)c5N)C4)cn3C)C(C)=O)ccc2CC1C(=O)NC1CCCc2ccccc21)C(C)(C)C

> <Shape>
0.226

> <Color>
0.184

> <Negative vol penalty>
0.000

$$$$

  -OEChem-04052303443D

 85 95  0     1  0  0  0  0  0999 V2000
  -27.2064  -36.7466   18.1478 C   0  0  0  0  0  0  0  0  0  0  0  0
  -28.0228  -35.6252   18.2543 C   0  0  0  0  0  0  0  0  0  0  0  0
  -22.7902  -10.0382   20.3227 C   0  0  0  0  0  0  0  0  0  0  0  0
  -24.3233   -9.3543   22.0602 C   0  0  0  0  0  0  0  0  0  0  0  0
  -26.0842  -36.8707   18.9659 C   0  0  0  0  0  0  0  0  0  0  0  0
  -27.7181  -34.6277   19.1798 C   0  0  0  0  0  0  0  0  0  0  0  0
  -28.6164  -28.6046   18.5309 C   0  0  0  0  0  0  0  0  0  0  0  0
  -22.2551   -8.7506   20.2880 C   0  0  0  0  0  0  0  0  0  0  0  0
  -23.7881   -8.0666   22.0255 C   0  0  0  0  0  0  0  0  0  0  0  0
  -29.6247  -27.7529   18.9799 C   0  0  0  0  0  0  0  0  0  0  0  0
  -21.0462   -6.4781   23.1998 C   0  0  0  0  0  0  0  0  0  0  0  0
  -20.7655   -5.8615   24.4191 C   0  0  0  0  0  0  0  0  0  0  0  0
  -28.2682  -27.1611   20.8849 C   0  0  0  0  0  0  0  0  0  0  0  0
  -22.2999   -4.0778   23.8703 C   0  0  0  0  0  0  0  0  0  0  0  0
  -23.8244  -10.3401   21.2088 C   0  0  0  0  0  0  0  0  0  0  0  0
  -23.9517  -12.7468   22.0450 C   0  0  0  0  0  0  0  0  0  0  0  0
  -25.7602  -35.8697   19.8952 C   0  0  0  0  0  0  0  0  0  0  0  0
  -27.4288  -28.7495   19.2625 C   0  0  0  0  0  0  0  0  0  0  0  0
  -26.5913  -34.7392   20.0121 C   0  0  0  0  0  0  0  0  0  0  0  0
  -27.2453  -28.0134   20.4417 C   0  0  0  0  0  0  0  0  0  0  0  0
  -22.7540   -7.7648   21.1394 C   0  0  0  0  0  0  0  0  0  0  0  0
  -29.4519  -27.0332   20.1586 C   0  0  0  0  0  0  0  0  0  0  0  0
  -21.9537   -5.8945   22.3157 C   0  0  0  0  0  0  0  0  0  0  0  0
  -21.3923   -4.6614   24.7543 C   0  0  0  0  0  0  0  0  0  0  0  0
  -22.5805   -4.6944   22.6510 C   0  0  0  0  0  0  0  0  0  0  0  0
  -24.3779  -11.6699   21.2447 C   0  0  0  0  0  0  0  0  0  0  0  0
  -30.0040  -22.9534   19.0024 C   0  0  0  0  0  0  0  0  0  0  0  0
  -31.2907  -22.6980   18.6081 C   0  0  0  0  0  0  0  0  0  0  0  0
  -24.7939  -13.7785   21.7092 C   0  0  0  0  0  0  0  0  0  0  0  0
  -30.0184  -21.1242   17.9799 C   0  0  0  0  0  0  0  0  0  0  0  0
  -22.8895  -12.8089   23.0060 C   0  0  0  0  0  0  0  0  0  0  0  0
  -25.9813  -31.1670   20.7335 C   0  0  0  0  0  0  0  0  0  0  0  0
  -23.6147  -28.9876   21.1475 C   0  0  0  0  0  0  0  0  0  0  0  0
  -22.7022  -25.7056   21.3537 C   0  0  0  0  0  0  0  0  0  0  0  0
  -27.1107  -16.6361   17.4598 C   0  0  0  0  0  0  0  0  0  0  0  0
  -24.5635  -36.0705   20.7908 C   0  0  0  0  0  0  0  0  0  0  0  0
  -26.3399  -29.6520   18.7506 C   0  0  0  0  0  0  0  0  0  0  0  0
  -25.9807  -28.1180   21.2531 C   0  0  0  0  0  0  0  0  0  0  0  0
  -29.6284  -24.1585   19.7758 C   0  0  0  0  0  0  0  0  0  0  0  0
  -32.4658  -23.5560   18.8252 C   0  0  0  0  0  0  0  0  0  0  0  0
  -24.1007  -34.7920   21.4848 C   0  0  0  0  0  0  0  0  0  0  0  0
  -29.0497  -13.8260   18.9943 C   0  0  0  0  0  0  0  0  0  0  0  0
  -25.2912  -34.0468   22.0800 C   0  0  0  0  0  0  0  0  0  0  0  0
  -27.9392  -13.0712   19.7231 C   0  0  0  0  0  0  0  0  0  0  0  0
  -29.9012  -18.6078   18.2518 C   0  0  0  0  0  0  0  0  0  0  0  0
  -28.3000  -19.7853   16.6837 C   0  0  0  0  0  0  0  0  0  0  0  0
  -32.0633  -24.6443   19.8585 C   0  0  0  0  0  0  0  0  0  0  0  0
  -28.5105  -14.5590   17.7716 C   0  0  0  0  0  0  0  0  0  0  0  0
  -29.5577  -17.2805   17.5699 C   0  0  0  0  0  0  0  0  0  0  0  0
  -28.0156  -18.4389   16.0240 C   0  0  0  0  0  0  0  0  0  0  0  0
  -26.2692  -14.7438   18.8046 C   0  0  0  0  0  0  0  0  0  0  0  0
  -26.2800  -33.6242   20.9867 C   0  0  1  0  0  0  0  0  0  0  0  0
  -29.7103  -19.8030   17.3008 C   0  0  0  0  0  0  0  0  0  0  0  0
  -25.3826  -30.1135   19.8451 C   0  0  1  0  0  0  0  0  0  0  0  0
  -26.7671  -14.0085   20.0596 C   0  0  1  0  0  0  0  0  0  0  0  0
  -20.7036  -24.2369   21.7359 C   0  0  0  0  0  0  0  0  0  0  0  0
  -23.7178  -29.6275   24.1291 C   0  0  0  0  0  0  0  0  0  0  0  0
  -22.4333  -27.5210   24.5546 C   0  0  0  0  0  0  0  0  0  0  0  0
  -21.4122  -29.3504   23.2007 C   0  0  0  0  0  0  0  0  0  0  0  0
  -22.9762  -24.4421   18.6914 C   0  0  0  0  0  0  0  0  0  0  0  0
  -23.2769  -27.9639   22.2044 C   0  0  1  0  0  0  0  0  0  0  0  0
  -21.5727  -24.9311   20.6988 C   0  0  2  0  0  0  0  0  0  0  0  0
  -22.7348  -28.6150   23.5082 C   0  0  0  0  0  0  0  0  0  0  0  0
  -25.4106  -11.9880   20.4595 N   0  0  0  0  0  0  0  0  0  0  0  0
  -29.1854  -21.9370   18.6035 N   0  0  0  0  0  0  0  0  0  0  0  0
  -25.6402  -13.2765   20.7647 N   0  0  0  0  0  0  0  0  0  0  0  0
  -24.9479  -29.0184   20.7145 N   0  0  0  0  0  0  0  0  0  0  0  0
  -27.3691  -15.4192   18.1127 N   0  0  0  0  0  0  0  0  0  0  0  0
  -28.2202  -17.3383   16.9656 N   0  0  0  0  0  0  0  0  0  0  0  0
  -30.6989  -25.1711   19.6029 N   0  0  2  0  0  0  0  0  0  1  0  0
  -24.8856  -15.0571   22.1325 N   0  0  0  0  0  0  0  0  0  0  0  0
  -22.1220  -11.6576   23.2290 N   0  0  0  0  0  0  0  0  0  0  0  0
  -25.7880  -32.4591   20.2832 N   0  0  0  0  0  0  0  0  0  0  0  0
  -22.3556  -27.0209   21.5797 N   0  0  0  0  0  0  0  0  0  0  0  0
  -22.1205  -23.8967   19.7764 N   0  3  0  0  0  0  0  0  0  0  0  0
  -22.6182  -13.8591   23.6361 O   0  0  0  0  0  0  0  0  0  0  0  0
  -26.5735  -30.8325   21.7529 O   0  0  0  0  0  0  0  0  0  0  0  0
  -22.7268  -29.7276   20.7166 O   0  0  0  0  0  0  0  0  0  0  0  0
  -23.7824  -25.1939   21.6397 O   0  0  0  0  0  0  0  0  0  0  0  0
  -25.9590  -17.0692   17.3304 O   0  0  0  0  0  0  0  0  0  0  0  0
  -31.3287  -21.5228   17.9381 O   0  0  0  0  0  0  0  0  0  0  0  0
  -22.2319   -6.5082   21.1060 O   0  0  0  0  0  0  0  0  0  0  0  0
  -30.4443  -26.1935   20.6038 O   0  0  0  0  0  0  0  0  0  1  0  0
  -21.1238   -4.0702   25.9259 F   0  0  0  0  0  0  0  0  0  0  0  0
  -23.4542   -4.1295   21.8063 F   0  0  0  0  0  0  0  0  0  0  0  0
  1  2  1  0  0  0  0
  1  5  2  0  0  0  0
  2  6  2  0  0  0  0
  3  8  2  0  0  0  0
  3 15  1  0  0  0  0
  4  9  1  0  0  0  0
  4 15  2  0  0  0  0
  5 17  1  0  0  0  0
  6 19  1  0  0  0  0
  7 10  2  0  0  0  0
  7 18  1  0  0  0  0
  8 21  1  0  0  0  0
  9 21  2  0  0  0  0
 10 22  1  0  0  0  0
 11 12  2  0  0  0  0
 11 23  1  0  0  0  0
 12 24  1  0  0  0  0
 13 20  1  0  0  0  0
 13 22  2  0  0  0  0
 14 24  2  0  0  0  0
 14 25  1  0  0  0  0
 15 26  1  0  0  0  0
 16 26  1  0  0  0  0
 16 29  2  0  0  0  0
 16 31  1  0  0  0  0
 17 19  2  0  0  0  0
 17 36  1  0  0  0  0
 18 20  2  0  0  0  0
 18 37  1  0  0  0  0
 19 52  1  0  0  0  0
 20 38  1  0  0  0  0
 21 82  1  0  0  0  0
 22 83  1  0  0  0  0
 23 25  2  0  0  0  0
 23 82  1  0  0  0  0
 24 84  1  0  0  0  0
 25 85  1  0  0  0  0
 26 64  2  0  0  0  0
 27 28  2  0  0  0  0
 27 39  1  0  0  0  0
 27 65  1  0  0  0  0
 28 40  1  0  0  0  0
 28 81  1  0  0  0  0
 29 66  1  0  0  0  0
 29 71  1  0  0  0  0
 30 53  1  0  0  0  0
 30 65  2  0  0  0  0
 30 81  1  0  0  0  0
 31 72  1  0  0  0  0
 31 76  2  0  0  0  0
 32 54  1  0  0  0  0
 32 73  1  0  0  0  0
 32 77  2  0  0  0  0
 33 61  1  0  0  0  0
 33 67  1  0  0  0  0
 33 78  2  0  0  0  0
 34 62  1  0  0  0  0
 34 74  1  0  0  0  0
 34 79  2  0  0  0  0
 35 68  1  0  0  0  0
 35 69  1  0  0  0  0
 35 80  2  0  0  0  0
 36 41  1  0  0  0  0
 37 54  1  0  0  0  0
 38 67  1  0  0  0  0
 39 70  1  0  0  0  0
 40 47  1  0  0  0  0
 41 43  1  0  0  0  0
 42 44  1  0  0  0  0
 42 48  1  0  0  0  0
 43 52  1  0  0  0  0
 44 55  1  0  0  0  0
 45 49  1  0  0  0  0
 45 53  1  0  0  0  0
 46 50  1  0  0  0  0
 46 53  1  0  0  0  0
 47 70  1  0  0  0  0
 48 68  1  0  0  0  0
 49 69  1  0  0  0  0
 50 69  1  0  0  0  0
 51 55  1  0  0  0  0
 51 68  1  0  0  0  0
 52 73  1  0  0  0  0
 54 67  1  0  0  0  0
 55 66  1  0  0  0  0
 56 62  1  0  0  0  0
 57 63  1  0  0  0  0
 58 63  1  0  0  0  0
 59 63  1  0  0  0  0
 60 75  1  0  0  0  0
 61 63  1  0  0  0  0
 61 74  1  0  0  0  0
 62 75  1  0  0  0  0
 64 66  1  0  0  0  0
 70 83  1  0  0  0  0
M  CHG  1  75   1
M  ISO  4  35 100  69 100  70 101  83 101
M  END
> <Batch ID>
0158

> <Smiles>
CNC(C)C(=O)NC(C(=O)N1Cc2cc([101O:1][101N:1]3CCc4oc(C5CC[100N:0]([100C:0](=O)N6CCCC(n7nc(-c8ccc(Oc9ccc(F)cc9F)cc8)c(C(N)=O)c7N)C6)CC5)nc4C3)ccc2CC1C(=O)NC1CCCc2ccccc21)C(C)(C)C

> <Shape>
0.276

> <Color>
0.096

> <Negative vol penalty>
0.000

$$$$

  -OEChem-04052303443D

 85 93  0     1  0  0  0  0  0999 V2000
  -27.5351  -23.7775   13.2462 C   0  0  0  0  0  0  0  0  0  0  0  0
  -26.5291  -24.6632   13.6188 C   0  0  0  0  0  0  0  0  0  0  0  0
  -27.7376  -14.3224   22.2344 C   0  0  0  0  0  0  0  0  0  0  0  0
  -26.1172  -15.2797   20.7195 C   0  0  0  0  0  0  0  0  0  0  0  0
  -28.2156  -23.0477   14.2200 C   0  0  0  0  0  0  0  0  0  0  0  0
  -26.2023  -24.8190   14.9654 C   0  0  0  0  0  0  0  0  0  0  0  0
  -23.9091  -29.7592   19.6186 C   0  0  0  0  0  0  0  0  0  0  0  0
  -27.2828  -13.0437   21.9129 C   0  0  0  0  0  0  0  0  0  0  0  0
  -25.6623  -14.0009   20.3979 C   0  0  0  0  0  0  0  0  0  0  0  0
  -22.9145  -29.9584   20.5751 C   0  0  0  0  0  0  0  0  0  0  0  0
  -23.8317  -11.0081   19.4481 C   0  0  0  0  0  0  0  0  0  0  0  0
  -22.4528  -10.8037   19.3990 C   0  0  0  0  0  0  0  0  0  0  0  0
  -24.2115  -28.7039   22.1762 C   0  0  0  0  0  0  0  0  0  0  0  0
  -22.6043  -23.8224   24.2930 C   0  0  0  0  0  0  0  0  0  0  0  0
  -22.2748  -11.4471   21.7209 C   0  0  0  0  0  0  0  0  0  0  0  0
  -22.5105  -22.7330   22.3343 C   0  0  0  0  0  0  0  0  0  0  0  0
  -27.1548  -15.4405   21.6377 C   0  0  0  0  0  0  0  0  0  0  0  0
  -28.6484  -17.4857   21.3310 C   0  0  0  0  0  0  0  0  0  0  0  0
  -27.9036  -23.2017   15.5800 C   0  0  0  0  0  0  0  0  0  0  0  0
  -25.0593  -29.0203   19.9310 C   0  0  0  0  0  0  0  0  0  0  0  0
  -26.8784  -24.0896   15.9582 C   0  0  0  0  0  0  0  0  0  0  0  0
  -25.2204  -28.4990   21.2227 C   0  0  0  0  0  0  0  0  0  0  0  0
  -23.1167  -22.7258   23.5701 C   0  0  0  0  0  0  0  0  0  0  0  0
  -26.2451  -12.8828   20.9947 C   0  0  0  0  0  0  0  0  0  0  0  0
  -23.0643  -29.4283   21.8533 C   0  0  0  0  0  0  0  0  0  0  0  0
  -24.4322  -11.4319   20.6336 C   0  0  0  0  0  0  0  0  0  0  0  0
  -21.6743  -11.0233   20.5354 C   0  0  0  0  0  0  0  0  0  0  0  0
  -23.6537  -11.6514   21.7700 C   0  0  0  0  0  0  0  0  0  0  0  0
  -27.6238  -16.7618   21.9698 C   0  0  0  0  0  0  0  0  0  0  0  0
  -21.6996  -24.4660   23.4775 C   0  0  0  0  0  0  0  0  0  0  0  0
  -28.7080  -18.6742   22.0168 C   0  0  0  0  0  0  0  0  0  0  0  0
  -29.4724  -17.1168   20.2172 C   0  0  0  0  0  0  0  0  0  0  0  0
  -20.9544  -25.6692   23.8986 C   0  0  0  0  0  0  0  0  0  0  0  0
  -26.3563  -26.3261   18.8528 C   0  0  0  0  0  0  0  0  0  0  0  0
  -20.8443  -24.1171   21.1527 C   0  0  0  0  0  0  0  0  0  0  0  0
  -28.7810  -27.1555   20.8416 C   0  0  0  0  0  0  0  0  0  0  0  0
  -29.8023  -28.8850   23.6007 C   0  0  0  0  0  0  0  0  0  0  0  0
  -24.7141  -21.7299   25.2442 C   0  0  0  0  0  0  0  0  0  0  0  0
  -28.6344  -22.3562   16.5928 C   0  0  0  0  0  0  0  0  0  0  0  0
  -26.1352  -28.8372   18.8960 C   0  0  0  0  0  0  0  0  0  0  0  0
  -26.4456  -27.7156   21.6146 C   0  0  0  0  0  0  0  0  0  0  0  0
  -28.4833  -22.8569   18.0269 C   0  0  0  0  0  0  0  0  0  0  0  0
  -27.8844  -20.5436   26.3483 C   0  0  0  0  0  0  0  0  0  0  0  0
  -27.0243  -23.1863   18.3264 C   0  0  0  0  0  0  0  0  0  0  0  0
  -28.2734  -19.5094   25.2893 C   0  0  0  0  0  0  0  0  0  0  0  0
  -26.3840  -20.5249   26.6350 C   0  0  0  0  0  0  0  0  0  0  0  0
  -25.9131  -19.6197   24.3927 C   0  0  0  0  0  0  0  0  0  0  0  0
  -26.5120  -24.3045   17.4107 C   0  0  1  0  0  0  0  0  0  0  0  0
  -27.0290  -27.6316   19.1702 C   0  0  1  0  0  0  0  0  0  0  0  0
  -27.4052  -19.6455   24.0231 C   0  0  2  0  0  0  0  0  0  0  0  0
  -21.4138  -23.7384   19.8195 C   0  0  0  0  0  0  0  0  0  0  0  0
  -31.8351  -29.3388   25.0004 C   0  0  0  0  0  0  0  0  0  0  0  0
  -19.7980  -30.2695   22.4462 C   0  0  0  0  0  0  0  0  0  0  0  0
  -28.5314  -24.3860   22.0975 C   0  0  0  0  0  0  0  0  0  0  0  0
  -29.8725  -25.2222   24.0393 C   0  0  0  0  0  0  0  0  0  0  0  0
  -30.8820  -25.1699   21.7588 C   0  0  0  0  0  0  0  0  0  0  0  0
  -29.6845  -31.7882   23.0378 C   0  0  0  0  0  0  0  0  0  0  0  0
  -20.4303  -28.0510   23.5122 C   0  0  0  0  0  0  0  0  0  0  0  0
  -29.1115  -26.8944   22.2912 C   0  0  1  0  0  0  0  0  0  0  0  0
  -30.9852  -29.8084   23.8300 C   0  0  2  0  0  0  0  0  0  0  0  0
  -20.7933  -29.1182   22.4879 C   0  0  2  0  0  0  0  0  0  1  0  0
  -29.5753  -25.4312   22.5390 C   0  0  0  0  0  0  0  0  0  0  0  0
  -27.0724  -17.4341   22.9836 N   0  0  0  0  0  0  0  0  0  0  0  0
  -21.6345  -23.8022   22.2671 N   0  0  0  0  0  0  0  0  0  0  0  0
  -27.7530  -18.5930   22.9871 N   0  0  0  0  0  0  0  0  0  0  0  0
  -27.4667  -27.5582   20.5657 N   0  0  0  0  0  0  0  0  0  0  0  0
  -25.6254  -20.6626   25.3899 N   0  0  0  0  0  0  0  0  0  0  0  0
  -29.4837  -19.7703   21.8785 N   0  0  0  0  0  0  0  0  0  0  0  0
  -29.2788  -15.8588   19.6305 N   0  0  0  0  0  0  0  0  0  0  0  0
  -20.1586  -25.5745   24.9638 N   0  0  0  0  0  0  0  0  0  0  0  0
  -24.0751  -21.7774   24.0056 N   0  0  0  0  0  0  0  0  0  0  0  0
  -26.9898  -25.5915   17.8686 N   0  0  0  0  0  0  0  0  0  0  0  0
  -30.0914  -27.9049   22.6750 N   0  0  0  0  0  0  0  0  0  0  0  0
  -21.1116  -26.7939   23.1909 N   0  3  0  0  0  0  0  0  0  0  0  0
  -30.5137  -31.1926   24.1171 N   0  3  0  0  0  0  0  0  0  0  0  0
  -30.3654  -17.8736   19.7662 O   0  0  0  0  0  0  0  0  0  0  0  0
  -25.3388  -26.0082   19.4570 O   0  0  0  0  0  0  0  0  0  0  0  0
  -19.7646  -24.6662   21.3220 O   0  0  0  0  0  0  0  0  0  0  0  0
  -29.6587  -27.0145   19.9863 O   0  0  0  0  0  0  0  0  0  0  0  0
  -28.7303  -29.0175   24.1871 O   0  0  0  0  0  0  0  0  0  0  0  0
  -24.5354  -22.5577   26.1413 O   0  0  0  0  0  0  0  0  0  0  0  0
  -25.8012  -11.6351   20.6806 O   0  0  0  0  0  0  0  0  0  0  0  0
  -22.0947  -29.6207   22.7886 O   0  0  0  0  0  0  0  0  0  1  0  0
  -20.3500  -10.8285   20.4876 F   0  0  0  0  0  0  0  0  0  0  0  0
  -24.2248  -12.0598   22.9115 F   0  0  0  0  0  0  0  0  0  0  0  0
  1  2  1  0  0  0  0
  1  5  2  0  0  0  0
  2  6  2  0  0  0  0
  3  8  2  0  0  0  0
  3 17  1  0  0  0  0
  4  9  1  0  0  0  0
  4 17  2  0  0  0  0
  5 19  1  0  0  0  0
  6 21  1  0  0  0  0
  7 10  2  0  0  0  0
  7 20  1  0  0  0  0
  8 24  1  0  0  0  0
  9 24  2  0  0  0  0
 10 25  1  0  0  0  0
 11 12  2  0  0  0  0
 11 26  1  0  0  0  0
 12 27  1  0  0  0  0
 13 22  1  0  0  0  0
 13 25  2  0  0  0  0
 14 23  1  0  0  0  0
 14 30  2  0  0  0  0
 15 27  2  0  0  0  0
 15 28  1  0  0  0  0
 16 23  2  0  0  0  0
 16 64  1  0  0  0  0
 17 29  1  0  0  0  0
 18 29  1  0  0  0  0
 18 31  2  0  0  0  0
 18 32  1  0  0  0  0
 19 21  2  0  0  0  0
 19 39  1  0  0  0  0
 20 22  2  0  0  0  0
 20 40  1  0  0  0  0
 21 48  1  0  0  0  0
 22 41  1  0  0  0  0
 23 71  1  0  0  0  0
 24 82  1  0  0  0  0
 25 83  1  0  0  0  0
 26 28  2  0  0  0  0
 26 82  1  0  0  0  0
 27 84  1  0  0  0  0
 28 85  1  0  0  0  0
 29 63  2  0  0  0  0
 30 33  1  0  0  0  0
 30 64  1  0  0  0  0
 31 65  1  0  0  0  0
 31 68  1  0  0  0  0
 32 69  1  0  0  0  0
 32 76  2  0  0  0  0
 33 70  1  0  0  0  0
 33 74  2  0  0  0  0
 34 49  1  0  0  0  0
 34 72  1  0  0  0  0
 34 77  2  0  0  0  0
 35 51  1  0  0  0  0
 35 64  1  0  0  0  0
 35 78  2  0  0  0  0
 36 59  1  0  0  0  0
 36 66  1  0  0  0  0
 36 79  2  0  0  0  0
 37 60  1  0  0  0  0
 37 73  1  0  0  0  0
 37 80  2  0  0  0  0
 38 67  1  0  0  0  0
 38 71  1  0  0  0  0
 38 81  2  0  0  0  0
 39 42  1  0  0  0  0
 40 49  1  0  0  0  0
 41 66  1  0  0  0  0
 42 44  1  0  0  0  0
 43 45  1  0  0  0  0
 43 46  1  0  0  0  0
 44 48  1  0  0  0  0
 45 50  1  0  0  0  0
 46 67  1  0  0  0  0
 47 50  1  0  0  0  0
 47 67  1  0  0  0  0
 48 72  1  0  0  0  0
 49 66  1  0  0  0  0
 50 65  1  0  0  0  0
 52 60  1  0  0  0  0
 53 61  1  0  0  0  0
 54 62  1  0  0  0  0
 55 62  1  0  0  0  0
 56 62  1  0  0  0  0
 57 75  1  0  0  0  0
 58 61  1  0  0  0  0
 58 74  1  0  0  0  0
 59 62  1  0  0  0  0
 59 73  1  0  0  0  0
 60 75  1  0  0  0  0
 61 83  1  0  0  0  0
 63 65  1  0  0  0  0
M  CHG  2  74   1  75   1
M  ISO  4  38 100  61 101  71 100  83 101
M  END
> <Batch ID>
0158

> <Smiles>
CNC(C)C(=O)NC(C(=O)N1Cc2cc([101O:1][101CH:1](C)CNC(=N)c3cc([100NH:0][100C:0](=O)N4CCCC(n5nc(-c6ccc(Oc7ccc(F)cc7F)cc6)c(C(N)=O)c5N)C4)cn3C(C)=O)ccc2CC1C(=O)NC1CCCc2ccccc21)C(C)(C)C

> <Shape>
0.194

> <Color>
0.063

> <Negative vol penalty>
0.000

$$$$

  -OEChem-04052303443D

 89 98  0     1  0  0  0  0  0999 V2000
  -27.0863  -34.7408   24.7753 C   0  0  0  0  0  0  0  0  0  0  0  0
  -27.4505  -33.4779   24.3196 C   0  0  0  0  0  0  0  0  0  0  0  0
  -26.1858  -19.8283   15.4958 C   0  0  0  0  0  0  0  0  0  0  0  0
  -27.4537  -20.3061   15.1369 C   0  0  0  0  0  0  0  0  0  0  0  0
  -26.7968  -13.6434   21.8374 C   0  0  0  0  0  0  0  0  0  0  0  0
  -24.5229  -13.6655   22.6533 C   0  0  0  0  0  0  0  0  0  0  0  0
  -25.7738  -34.9834   25.1785 C   0  0  0  0  0  0  0  0  0  0  0  0
  -26.5027  -32.4564   24.2679 C   0  0  0  0  0  0  0  0  0  0  0  0
  -25.5257  -20.3469   16.6090 C   0  0  0  0  0  0  0  0  0  0  0  0
  -26.7048  -29.8361   19.9391 C   0  0  0  0  0  0  0  0  0  0  0  0
  -28.0806  -21.3072   15.8861 C   0  0  0  0  0  0  0  0  0  0  0  0
  -26.4716  -12.6099   20.9589 C   0  0  0  0  0  0  0  0  0  0  0  0
  -24.1976  -12.6320   21.7748 C   0  0  0  0  0  0  0  0  0  0  0  0
  -27.7209  -28.8897   19.8145 C   0  0  0  0  0  0  0  0  0  0  0  0
  -22.8563   -9.7563   20.0026 C   0  0  0  0  0  0  0  0  0  0  0  0
  -22.0950   -8.6984   20.4995 C   0  0  0  0  0  0  0  0  0  0  0  0
  -26.1530  -27.1421   20.3682 C   0  0  0  0  0  0  0  0  0  0  0  0
  -23.8211   -8.2177   22.1202 C   0  0  0  0  0  0  0  0  0  0  0  0
  -25.8225  -14.1712   22.6846 C   0  0  0  0  0  0  0  0  0  0  0  0
  -27.1214  -15.2102   24.6188 C   0  0  0  0  0  0  0  0  0  0  0  0
  -24.8072  -33.9670   25.1226 C   0  0  0  0  0  0  0  0  0  0  0  0
  -25.4053  -29.4431   20.2904 C   0  0  0  0  0  0  0  0  0  0  0  0
  -25.1765  -32.6852   24.6720 C   0  0  0  0  0  0  0  0  0  0  0  0
  -26.1577  -21.3340   17.3501 C   0  0  0  0  0  0  0  0  0  0  0  0
  -25.1215  -28.0851   20.4941 C   0  0  0  0  0  0  0  0  0  0  0  0
  -27.4218  -21.8132   16.9975 C   0  0  0  0  0  0  0  0  0  0  0  0
  -25.1720  -12.1042   20.9276 C   0  0  0  0  0  0  0  0  0  0  0  0
  -27.4458  -27.5428   20.0319 C   0  0  0  0  0  0  0  0  0  0  0  0
  -24.1000  -10.0448   20.5644 C   0  0  0  0  0  0  0  0  0  0  0  0
  -22.5774   -7.9291   21.5584 C   0  0  0  0  0  0  0  0  0  0  0  0
  -24.5824   -9.2755   21.6232 C   0  0  0  0  0  0  0  0  0  0  0  0
  -26.1580  -15.2384   23.5927 C   0  0  0  0  0  0  0  0  0  0  0  0
  -27.0555  -16.4593   25.1861 C   0  0  0  0  0  0  0  0  0  0  0  0
  -28.2814  -25.6266   18.9827 C   0  0  0  0  0  0  0  0  0  1  0  0
  -27.9976  -14.1497   25.0229 C   0  0  0  0  0  0  0  0  0  0  0  0
  -29.1761  -24.6625   18.7674 C   0  0  0  0  0  0  0  0  0  0  0  0
  -28.9581  -23.6134   17.7481 C   0  0  0  0  0  0  0  0  0  0  0  0
  -27.4383  -22.2396   20.2068 C   0  0  0  0  0  0  0  0  0  0  0  0
  -23.4596  -30.0528   22.7289 C   0  0  0  0  0  0  0  0  0  0  0  0
  -21.3345  -28.3690   20.9481 C   0  0  0  0  0  0  0  0  0  0  0  0
  -20.7990  -26.0348   18.5167 C   0  0  0  0  0  0  0  0  0  0  0  0
  -25.2806  -21.7896   23.1151 C   0  0  0  0  0  0  0  0  0  0  0  0
  -23.4124  -34.2639   25.6138 C   0  0  0  0  0  0  0  0  0  0  0  0
  -24.3143  -30.4733   20.3946 C   0  0  0  0  0  0  0  0  0  0  0  0
  -25.6064  -22.0584   18.5387 C   0  0  0  0  0  0  0  0  0  0  0  0
  -23.7385  -27.6092   20.8534 C   0  0  0  0  0  0  0  0  0  0  0  0
  -22.3790  -33.2297   25.1747 C   0  0  0  0  0  0  0  0  0  0  0  0
  -24.0070  -20.0652   25.9578 C   0  0  0  0  0  0  0  0  0  0  0  0
  -22.9062  -31.8170   25.4054 C   0  0  0  0  0  0  0  0  0  0  0  0
  -24.5008  -18.6300   25.7666 C   0  0  0  0  0  0  0  0  0  0  0  0
  -23.6375  -20.7169   24.6271 C   0  0  0  0  0  0  0  0  0  0  0  0
  -25.1906  -19.2399   23.4106 C   0  0  0  0  0  0  0  0  0  0  0  0
  -24.1710  -31.5581   24.5779 C   0  0  1  0  0  0  0  0  0  0  0  0
  -26.8223  -22.8799   18.9948 C   0  0  2  0  0  0  0  0  0  0  0  0
  -23.1435  -30.0181   21.2604 C   0  0  1  0  0  0  0  0  0  0  0  0
  -25.6282  -18.5598   24.7191 C   0  0  2  0  0  0  0  0  0  0  0  0
  -28.1670  -23.2415   22.3828 C   0  0  0  0  0  0  0  0  0  0  0  0
  -18.9547  -24.8403   17.3047 C   0  0  0  0  0  0  0  0  0  0  0  0
  -20.8739  -26.6038   23.3938 C   0  0  0  0  0  0  0  0  0  0  0  0
  -19.7981  -24.9178   21.8878 C   0  0  0  0  0  0  0  0  0  0  0  0
  -18.7999  -27.1914   22.1259 C   0  0  0  0  0  0  0  0  0  0  0  0
  -21.6515  -27.1285   15.9021 C   0  0  0  0  0  0  0  0  0  0  0  0
  -26.9921  -22.7166   21.5754 C   0  0  2  0  0  0  0  0  0  0  0  0
  -20.9539  -26.9128   20.8318 C   0  0  1  0  0  0  0  0  0  0  0  0
  -19.8918  -26.0380   17.2996 C   0  0  2  0  0  0  0  0  0  0  0  0
  -20.1330  -26.4153   22.0550 C   0  0  0  0  0  0  0  0  0  0  0  0
  -25.5262  -16.4123   23.5107 N   0  0  0  0  0  0  0  0  0  0  0  0
  -28.3442  -21.3279   20.0531 N   0  0  0  0  0  0  0  0  0  0  0  0
  -26.0938  -17.1334   24.4926 N   0  0  0  0  0  0  0  0  0  0  0  0
  -27.8354  -22.8146   17.9106 N   0  0  0  0  0  0  0  0  0  0  0  0
  -22.7070  -28.6554   20.9496 N   0  0  0  0  0  0  0  0  0  0  0  0
  -24.7498  -20.6177   23.6789 N   0  0  0  0  0  0  0  0  0  0  0  0
  -27.7268  -17.0358   26.2056 N   0  0  0  0  0  0  0  0  0  0  0  0
  -27.9351  -12.9316   24.3326 N   0  0  0  0  0  0  0  0  0  0  0  0
  -23.8269  -31.3004   23.1960 N   0  0  0  0  0  0  0  0  0  0  0  0
  -20.2658  -26.7716   19.5531 N   0  0  0  0  0  0  0  0  0  0  0  0
  -26.3370  -21.6068   22.2312 N   0  0  0  0  0  0  0  0  0  0  0  0
  -30.3793  -24.5829   19.4947 N   0  3  0  0  0  0  0  0  0  0  0  0
  -20.7020  -25.9955   16.0495 N   0  3  0  0  0  0  0  0  0  0  0  0
  -28.8004  -14.2731   25.9789 O   0  0  0  0  0  0  0  0  0  0  0  0
  -29.7812  -23.5350   16.8370 O   0  0  0  0  0  0  0  0  0  0  0  0
  -23.3749  -29.0243   23.3896 O   0  0  0  0  0  0  0  0  0  0  0  0
  -20.4466  -29.2217   21.0272 O   0  0  0  0  0  0  0  0  0  0  0  0
  -21.8715  -25.4354   18.5465 O   0  0  0  0  0  0  0  0  0  0  0  0
  -24.8488  -22.9157   23.3839 O   0  0  0  0  0  0  0  0  0  0  0  0
  -24.8543  -11.0959   20.0704 O   0  0  0  0  0  0  0  0  0  0  0  0
  -28.4360  -26.6171   19.9116 O   0  0  0  0  0  0  0  0  0  1  0  0
  -21.8455   -6.9143   22.0365 F   0  0  0  0  0  0  0  0  0  0  0  0
  -25.7759   -9.5486   22.1678 F   0  0  0  0  0  0  0  0  0  0  0  0
  1  2  1  0  0  0  0
  1  7  2  0  0  0  0
  2  8  2  0  0  0  0
  3  4  1  0  0  0  0
  3  9  2  0  0  0  0
  4 11  2  0  0  0  0
  5 12  2  0  0  0  0
  5 19  1  0  0  0  0
  6 13  1  0  0  0  0
  6 19  2  0  0  0  0
  7 21  1  0  0  0  0
  8 23  1  0  0  0  0
  9 24  1  0  0  0  0
 10 14  2  0  0  0  0
 10 22  1  0  0  0  0
 11 26  1  0  0  0  0
 12 27  1  0  0  0  0
 13 27  2  0  0  0  0
 14 28  1  0  0  0  0
 15 16  2  0  0  0  0
 15 29  1  0  0  0  0
 16 30  1  0  0  0  0
 17 25  1  0  0  0  0
 17 28  2  0  0  0  0
 18 30  2  0  0  0  0
 18 31  1  0  0  0  0
 19 32  1  0  0  0  0
 20 32  1  0  0  0  0
 20 33  2  0  0  0  0
 20 35  1  0  0  0  0
 21 23  2  0  0  0  0
 21 43  1  0  0  0  0
 22 25  2  0  0  0  0
 22 44  1  0  0  0  0
 23 53  1  0  0  0  0
 24 26  2  0  0  0  0
 24 45  1  0  0  0  0
 25 46  1  0  0  0  0
 26 70  1  0  0  0  0
 27 86  1  0  0  0  0
 28 87  1  0  0  0  0
 29 31  2  0  0  0  0
 29 86  1  0  0  0  0
 30 88  1  0  0  0  0
 31 89  1  0  0  0  0
 32 67  2  0  0  0  0
 33 69  1  0  0  0  0
 33 73  1  0  0  0  0
 34 36  2  0  0  0  0
 34 87  1  0  0  0  0
 35 74  1  0  0  0  0
 35 80  2  0  0  0  0
 36 37  1  0  0  0  0
 36 78  1  0  0  0  0
 37 70  1  0  0  0  0
 37 81  2  0  0  0  0
 38 54  1  0  0  0  0
 38 63  1  0  0  0  0
 38 68  2  0  0  0  0
 39 55  1  0  0  0  0
 39 75  1  0  0  0  0
 39 82  2  0  0  0  0
 40 64  1  0  0  0  0
 40 71  1  0  0  0  0
 40 83  2  0  0  0  0
 41 65  1  0  0  0  0
 41 76  1  0  0  0  0
 41 84  2  0  0  0  0
 42 72  1  0  0  0  0
 42 77  1  0  0  0  0
 42 85  2  0  0  0  0
 43 47  1  0  0  0  0
 44 55  1  0  0  0  0
 45 54  1  0  0  0  0
 46 71  1  0  0  0  0
 47 49  1  0  0  0  0
 48 50  1  0  0  0  0
 48 51  1  0  0  0  0
 49 53  1  0  0  0  0
 50 56  1  0  0  0  0
 51 72  1  0  0  0  0
 52 56  1  0  0  0  0
 52 72  1  0  0  0  0
 53 75  1  0  0  0  0
 54 70  1  0  0  0  0
 55 71  1  0  0  0  0
 56 69  1  0  0  0  0
 57 63  1  0  0  0  0
 58 65  1  0  0  0  0
 59 66  1  0  0  0  0
 60 66  1  0  0  0  0
 61 66  1  0  0  0  0
 62 79  1  0  0  0  0
 63 77  1  0  0  0  0
 64 66  1  0  0  0  0
 64 76  1  0  0  0  0
 65 79  1  0  0  0  0
 67 69  1  0  0  0  0
M  CHG  2  78   1  79   1
M  ISO  4  34 101  42 100  77 100  87 101
M  END
> <Batch ID>
0158

> <Smiles>
CNC(C)C(=O)NC(C(=O)N1Cc2cc([101O:1][101CH2:1]C(=N)C(=O)N3c4ccccc4CC3C(=N)C(C)[100NH:0][100C:0](=O)N3CCCC(n4nc(-c5ccc(Oc6ccc(F)cc6F)cc5)c(C(N)=O)c4N)C3)ccc2CC1C(=O)NC1CCCc2ccccc21)C(C)(C)C

> <Shape>
0.241

> <Color>
0.079

> <Negative vol penalty>
0.000

$$$$

  -OEChem-04052303443D

 86 95  0     1  0  0  0  0  0999 V2000
  -28.5468  -20.3669   18.8209 C   0  0  0  0  0  0  0  0  0  0  0  0
  -28.1983  -21.5287   18.1414 C   0  0  0  0  0  0  0  0  0  0  0  0
  -24.3932  -15.3546   23.3107 C   0  0  0  0  0  0  0  0  0  0  0  0
  -22.5627  -14.9174   21.7957 C   0  0  0  0  0  0  0  0  0  0  0  0
  -28.2903  -20.2589   20.1861 C   0  0  0  0  0  0  0  0  0  0  0  0
  -27.6040  -22.5874   18.8291 C   0  0  0  0  0  0  0  0  0  0  0  0
  -24.3459  -29.8170   19.8800 C   0  0  0  0  0  0  0  0  0  0  0  0
  -24.3623  -14.0251   23.7317 C   0  0  0  0  0  0  0  0  0  0  0  0
  -22.5318  -13.5879   22.2167 C   0  0  0  0  0  0  0  0  0  0  0  0
  -23.5639  -30.5837   20.7428 C   0  0  0  0  0  0  0  0  0  0  0  0
  -22.2081   -9.9904   22.6306 C   0  0  0  0  0  0  0  0  0  0  0  0
  -22.1006   -9.0020   21.6524 C   0  0  0  0  0  0  0  0  0  0  0  0
  -25.0496  -30.0392   22.5634 C   0  0  0  0  0  0  0  0  0  0  0  0
  -18.8650  -28.4981   22.5599 C   0  0  0  0  0  0  0  0  0  0  0  0
  -24.1679   -9.7606   20.6585 C   0  0  0  0  0  0  0  0  0  0  0  0
  -23.4934  -15.8007   22.3427 C   0  0  0  0  0  0  0  0  0  0  0  0
  -24.2749  -17.7125   20.8454 C   0  0  0  0  0  0  0  0  0  0  0  0
  -27.6812  -21.3124   20.8876 C   0  0  0  0  0  0  0  0  0  0  0  0
  -25.4820  -29.1459   20.3550 C   0  0  0  0  0  0  0  0  0  0  0  0
  -27.3587  -22.5069   20.2118 C   0  0  0  0  0  0  0  0  0  0  0  0
  -25.8469  -29.2687   21.7035 C   0  0  0  0  0  0  0  0  0  0  0  0
  -18.2509  -27.4071   21.8999 C   0  0  0  0  0  0  0  0  0  0  0  0
  -23.4316  -13.1418   23.1847 C   0  0  0  0  0  0  0  0  0  0  0  0
  -23.9145  -30.6931   22.0852 C   0  0  0  0  0  0  0  0  0  0  0  0
  -23.2955  -10.8641   22.6228 C   0  0  0  0  0  0  0  0  0  0  0  0
  -23.0804   -8.8870   20.6664 C   0  0  0  0  0  0  0  0  0  0  0  0
  -24.2754  -10.7492   21.6367 C   0  0  0  0  0  0  0  0  0  0  0  0
  -23.5245  -17.1740   21.9078 C   0  0  0  0  0  0  0  0  0  0  0  0
  -19.2751  -26.6031   21.4566 C   0  0  0  0  0  0  0  0  0  0  0  0
  -23.9567  -19.0487   20.8429 C   0  0  0  0  0  0  0  0  0  0  0  0
  -20.2208  -28.2829   22.4732 C   0  0  0  0  0  0  0  0  0  0  0  0
  -25.1787  -17.0630   19.9415 C   0  0  0  0  0  0  0  0  0  0  0  0
  -26.4695  -26.1070   20.5448 C   0  0  0  0  0  0  0  0  0  0  0  0
  -29.2290  -27.6169   21.6213 C   0  0  0  0  0  0  0  0  0  0  0  0
  -31.3533  -25.4009   20.1326 C   0  0  0  0  0  0  0  0  0  0  0  0
  -20.2300  -23.0513   21.0359 C   0  0  0  0  0  0  0  0  0  0  0  0
  -27.4336  -21.1452   22.3661 C   0  0  0  0  0  0  0  0  0  0  0  0
  -26.3293  -28.3483   19.4009 C   0  0  0  0  0  0  0  0  0  0  0  0
  -27.0583  -28.5714   22.2611 C   0  0  0  0  0  0  0  0  0  0  0  0
  -26.4063  -22.1315   22.9122 C   0  0  0  0  0  0  0  0  0  0  0  0
  -14.5438  -27.5856   21.5305 C   0  0  0  0  0  0  0  0  0  0  0  0
  -14.7954  -26.0981   21.3890 C   0  0  0  0  0  0  0  0  0  0  0  0
  -21.4377  -21.8418   24.2259 C   0  0  0  0  0  0  0  0  0  0  0  0
  -26.7501  -23.5431   22.4609 C   0  0  0  0  0  0  0  0  0  0  0  0
  -22.1545  -20.5554   23.8118 C   0  0  0  0  0  0  0  0  0  0  0  0
  -15.8097  -28.0767   22.2232 C   0  0  0  0  0  0  0  0  0  0  0  0
  -16.2772  -26.0394   21.0359 C   0  0  0  0  0  0  0  0  0  0  0  0
  -20.1712  -22.0583   23.4030 C   0  0  0  0  0  0  0  0  0  0  0  0
  -21.1044  -20.7818   21.5127 C   0  0  0  0  0  0  0  0  0  0  0  0
  -26.6835  -23.6595   20.9328 C   0  0  1  0  0  0  0  0  0  0  0  0
  -27.2264  -27.3234   20.0919 C   0  0  1  0  0  0  0  0  0  0  0  0
  -22.4052  -20.5177   22.2926 C   0  0  2  0  0  0  0  0  0  0  0  0
  -33.5026  -24.1960   19.6569 C   0  0  0  0  0  0  0  0  0  0  0  0
  -22.4892  -31.7646   25.1928 C   0  0  0  0  0  0  0  0  0  0  0  0
  -29.7744  -30.0426   19.8538 C   0  0  0  0  0  0  0  0  0  0  0  0
  -31.8358  -28.8876   19.0262 C   0  0  0  0  0  0  0  0  0  0  0  0
  -31.6205  -29.4723   21.4417 C   0  0  0  0  0  0  0  0  0  0  0  0
  -30.8284  -23.3915   22.2410 C   0  0  0  0  0  0  0  0  0  0  0  0
  -19.3166  -25.3355   20.7114 C   0  0  0  0  0  0  0  0  0  0  0  0
  -21.1824  -30.2546   23.6621 C   0  0  0  0  0  0  0  0  0  0  0  0
  -30.2315  -27.5837   20.4950 C   0  0  1  0  0  0  0  0  0  0  0  0
  -32.4450  -24.5134   20.7027 C   0  0  2  0  0  0  0  0  0  0  0  0
  -22.5682  -30.7694   24.0442 C   0  0  1  0  0  0  0  0  0  1  0  0
  -30.8401  -28.9841   20.2018 C   0  0  0  0  0  0  0  0  0  0  0  0
  -22.7854  -18.0931   22.5348 N   0  0  0  0  0  0  0  0  0  0  0  0
  -23.0699  -19.2225   21.8644 N   0  0  0  0  0  0  0  0  0  0  0  0
  -16.8702  -27.1886   21.7312 N   0  0  0  0  0  0  0  0  0  0  0  0
  -27.8968  -27.8770   21.2753 N   0  0  0  0  0  0  0  0  0  0  0  0
  -20.4817  -22.0298   21.9667 N   0  0  0  0  0  0  0  0  0  0  0  0
  -24.3519  -20.0800   20.0667 N   0  0  0  0  0  0  0  0  0  0  0  0
  -25.3908  -15.6850   20.0841 N   0  0  0  0  0  0  0  0  0  0  0  0
  -21.3043  -29.0119   22.9342 N   0  0  0  0  0  0  0  0  0  0  0  0
  -27.2153  -24.9438   20.5335 N   0  0  0  0  0  0  0  0  0  0  0  0
  -31.2153  -26.5680   20.8539 N   0  0  0  0  0  0  0  0  0  0  0  0
  -19.6318  -24.1972   21.5456 N   0  0  0  0  0  0  0  0  0  0  0  0
  -31.8667  -23.2296   21.1909 N   0  3  0  0  0  0  0  0  0  0  0  0
  -25.7929  -17.6892   19.0448 O   0  0  0  0  0  0  0  0  0  0  0  0
  -25.2962  -26.2160   20.8811 O   0  0  0  0  0  0  0  0  0  0  0  0
  -29.6150  -27.4255   22.7779 O   0  0  0  0  0  0  0  0  0  0  0  0
  -30.6919  -25.0917   19.1440 O   0  0  0  0  0  0  0  0  0  0  0  0
  -20.5217  -22.9518   19.8392 O   0  0  0  0  0  0  0  0  0  0  0  0
  -20.4792  -27.1298   21.8022 O   0  0  0  0  0  0  0  0  0  0  0  0
  -23.4013  -11.8444   23.5951 O   0  0  0  0  0  0  0  0  0  0  0  0
  -23.1532  -31.4412   22.9294 O   0  0  0  0  0  0  0  0  0  1  0  0
  -22.9778   -7.9368   19.7280 F   0  0  0  0  0  0  0  0  0  0  0  0
  -25.3229  -11.5848   21.6247 F   0  0  0  0  0  0  0  0  0  0  0  0
  1  2  1  0  0  0  0
  1  5  2  0  0  0  0
  2  6  2  0  0  0  0
  3  8  2  0  0  0  0
  3 16  1  0  0  0  0
  4  9  1  0  0  0  0
  4 16  2  0  0  0  0
  5 18  1  0  0  0  0
  6 20  1  0  0  0  0
  7 10  2  0  0  0  0
  7 19  1  0  0  0  0
  8 23  1  0  0  0  0
  9 23  2  0  0  0  0
 10 24  1  0  0  0  0
 11 12  2  0  0  0  0
 11 25  1  0  0  0  0
 12 26  1  0  0  0  0
 13 21  1  0  0  0  0
 13 24  2  0  0  0  0
 14 22  1  0  0  0  0
 14 31  2  0  0  0  0
 15 26  2  0  0  0  0
 15 27  1  0  0  0  0
 16 28  1  0  0  0  0
 17 28  1  0  0  0  0
 17 30  2  0  0  0  0
 17 32  1  0  0  0  0
 18 20  2  0  0  0  0
 18 37  1  0  0  0  0
 19 21  2  0  0  0  0
 19 38  1  0  0  0  0
 20 50  1  0  0  0  0
 21 39  1  0  0  0  0
 22 29  2  0  0  0  0
 22 67  1  0  0  0  0
 23 83  1  0  0  0  0
 24 84  1  0  0  0  0
 25 27  2  0  0  0  0
 25 83  1  0  0  0  0
 26 85  1  0  0  0  0
 27 86  1  0  0  0  0
 28 65  2  0  0  0  0
 29 59  1  0  0  0  0
 29 82  1  0  0  0  0
 30 66  1  0  0  0  0
 30 70  1  0  0  0  0
 31 72  1  0  0  0  0
 31 82  1  0  0  0  0
 32 71  1  0  0  0  0
 32 77  2  0  0  0  0
 33 51  1  0  0  0  0
 33 73  1  0  0  0  0
 33 78  2  0  0  0  0
 34 61  1  0  0  0  0
 34 68  1  0  0  0  0
 34 79  2  0  0  0  0
 35 62  1  0  0  0  0
 35 74  1  0  0  0  0
 35 80  2  0  0  0  0
 36 69  1  0  0  0  0
 36 75  1  0  0  0  0
 36 81  2  0  0  0  0
 37 40  1  0  0  0  0
 38 51  1  0  0  0  0
 39 68  1  0  0  0  0
 40 44  1  0  0  0  0
 41 42  1  0  0  0  0
 41 46  1  0  0  0  0
 42 47  1  0  0  0  0
 43 45  1  0  0  0  0
 43 48  1  0  0  0  0
 44 50  1  0  0  0  0
 45 52  1  0  0  0  0
 46 67  1  0  0  0  0
 47 67  1  0  0  0  0
 48 69  1  0  0  0  0
 49 52  1  0  0  0  0
 49 69  1  0  0  0  0
 50 73  1  0  0  0  0
 51 68  1  0  0  0  0
 52 66  1  0  0  0  0
 53 62  1  0  0  0  0
 54 63  1  0  0  0  0
 55 64  1  0  0  0  0
 56 64  1  0  0  0  0
 57 64  1  0  0  0  0
 58 76  1  0  0  0  0
 59 75  1  0  0  0  0
 60 63  1  0  0  0  0
 60 72  1  0  0  0  0
 61 64  1  0  0  0  0
 61 74  1  0  0  0  0
 62 76  1  0  0  0  0
 63 84  1  0  0  0  0
 65 66  1  0  0  0  0
M  CHG  1  76   1
M  ISO  4  36 100  63 101  75 100  84 101
M  END
> <Batch ID>
0158

> <Smiles>
CNC(C)C(=O)NC(C(=O)N1Cc2cc([101O:1][101CH:1](C)CNc3cc(N4CCCC4)c(C[100NH:0][100C:0](=O)N4CCCC(n5nc(-c6ccc(Oc7ccc(F)cc7F)cc6)c(C(N)=O)c5N)C4)o3)ccc2CC1C(=O)NC1CCCc2ccccc21)C(C)(C)C

> <Shape>
0.225

> <Color>
0.098

> <Negative vol penalty>
0.000

$$$$

  -OEChem-04052303443D

 85 93  0     1  0  0  0  0  0999 V2000
  -28.3542  -34.2672   25.2944 C   0  0  0  0  0  0  0  0  0  0  0  0
  -28.4318  -32.9649   24.8113 C   0  0  0  0  0  0  0  0  0  0  0  0
  -31.8774  -19.5545   14.8237 C   0  0  0  0  0  0  0  0  0  0  0  0
  -28.0752  -10.3303   21.4800 C   0  0  0  0  0  0  0  0  0  0  0  0
  -26.6984  -10.9253   19.5859 C   0  0  0  0  0  0  0  0  0  0  0  0
  -27.1134  -34.8204   25.6080 C   0  0  0  0  0  0  0  0  0  0  0  0
  -27.2687  -32.2146   24.6424 C   0  0  0  0  0  0  0  0  0  0  0  0
  -27.1802  -29.7346   20.2281 C   0  0  0  0  0  0  0  0  0  0  0  0
  -27.2101   -9.2776   21.7781 C   0  0  0  0  0  0  0  0  0  0  0  0
  -25.8333   -9.8725   19.8840 C   0  0  0  0  0  0  0  0  0  0  0  0
  -27.9375  -28.5675   20.1381 C   0  0  0  0  0  0  0  0  0  0  0  0
  -23.3346   -9.2449   22.0734 C   0  0  0  0  0  0  0  0  0  0  0  0
  -21.9642   -9.5024   22.0380 C   0  0  0  0  0  0  0  0  0  0  0  0
  -32.0844  -20.9079   15.0661 C   0  0  0  0  0  0  0  0  0  0  0  0
  -31.2222  -18.7764   15.7718 C   0  0  0  0  0  0  0  0  0  0  0  0
  -25.9452  -27.2545   20.4930 C   0  0  0  0  0  0  0  0  0  0  0  0
  -21.6930   -7.8224   20.3230 C   0  0  0  0  0  0  0  0  0  0  0  0
  -27.8193  -11.1542   20.3839 C   0  0  0  0  0  0  0  0  0  0  0  0
  -29.8444  -12.2022   19.2400 C   0  0  0  0  0  0  0  0  0  0  0  0
  -25.9336  -34.0798   25.4338 C   0  0  0  0  0  0  0  0  0  0  0  0
  -25.7991  -29.6706   20.4624 C   0  0  0  0  0  0  0  0  0  0  0  0
  -26.0110  -32.7579   24.9552 C   0  0  0  0  0  0  0  0  0  0  0  0
  -25.1722  -28.4222   20.5829 C   0  0  0  0  0  0  0  0  0  0  0  0
  -26.0892   -9.0486   20.9801 C   0  0  0  0  0  0  0  0  0  0  0  0
  -27.3205  -27.3273   20.2735 C   0  0  0  0  0  0  0  0  0  0  0  0
  -23.8843   -8.2763   21.2336 C   0  0  0  0  0  0  0  0  0  0  0  0
  -21.1434   -8.7911   21.1628 C   0  0  0  0  0  0  0  0  0  0  0  0
  -23.0635   -7.5650   20.3584 C   0  0  0  0  0  0  0  0  0  0  0  0
  -28.7123  -12.2422   20.0758 C   0  0  0  0  0  0  0  0  0  0  0  0
  -31.6207  -21.4309   16.2625 C   0  0  0  0  0  0  0  0  0  0  0  0
  -30.7973  -19.3948   16.9366 C   0  0  0  0  0  0  0  0  0  0  0  0
  -30.3442  -13.4809   19.2774 C   0  0  0  0  0  0  0  0  0  0  0  0
  -30.3950  -11.1070   18.4964 C   0  0  0  0  0  0  0  0  0  0  0  0
  -31.8132  -22.8700   16.5745 C   0  0  0  0  0  0  0  0  0  0  0  0
  -29.4994  -24.8499   18.7787 C   0  0  0  0  0  0  0  0  0  0  0  0
  -30.6625  -24.6682   17.9204 C   0  0  0  0  0  0  0  0  0  0  0  0
  -23.8664  -30.6874   22.7720 C   0  0  0  0  0  0  0  0  0  0  0  0
  -21.5487  -29.6332   20.7622 C   0  0  0  0  0  0  0  0  0  0  0  0
  -20.6593  -27.5678   18.1951 C   0  0  0  0  0  0  0  0  0  0  0  0
  -29.6206  -18.9998   19.1288 C   0  0  0  0  0  0  0  0  0  0  0  0
  -24.6194  -34.7039   25.8311 C   0  0  0  0  0  0  0  0  0  0  0  0
  -24.9920  -30.9381   20.5301 C   0  0  0  0  0  0  0  0  0  0  0  0
  -23.6892  -28.2987   20.8152 C   0  0  0  0  0  0  0  0  0  0  0  0
  -23.4031  -33.9723   25.2694 C   0  0  0  0  0  0  0  0  0  0  0  0
  -29.1719  -17.3895   22.2725 C   0  0  0  0  0  0  0  0  0  0  0  0
  -23.5431  -32.4674   25.4756 C   0  0  0  0  0  0  0  0  0  0  0  0
  -29.1055  -15.9035   21.9125 C   0  0  0  0  0  0  0  0  0  0  0  0
  -28.4934  -18.2599   21.2162 C   0  0  0  0  0  0  0  0  0  0  0  0
  -28.8935  -16.5578   19.4806 C   0  0  0  0  0  0  0  0  0  0  0  0
  -24.7697  -31.9208   24.7351 C   0  0  1  0  0  0  0  0  0  0  0  0
  -23.6764  -30.7691   21.2837 C   0  0  1  0  0  0  0  0  0  0  0  0
  -29.6207  -15.6465   20.4828 C   0  0  2  0  0  0  0  0  0  0  0  0
  -18.6857  -26.9028   16.7951 C   0  0  0  0  0  0  0  0  0  0  0  0
  -20.4615  -27.9796   23.0846 C   0  0  0  0  0  0  0  0  0  0  0  0
  -19.1329  -26.6539   21.4276 C   0  0  0  0  0  0  0  0  0  0  0  0
  -18.7116  -29.0984   21.6915 C   0  0  0  0  0  0  0  0  0  0  0  0
  -21.9729  -28.4775   15.7040 C   0  0  0  0  0  0  0  0  0  0  0  0
  -29.2159  -26.2234   19.3544 C   0  0  0  0  0  0  0  0  0  1  0  0
  -20.8309  -28.3218   20.5524 C   0  0  1  0  0  0  0  0  0  0  0  0
  -19.8869  -27.8278   16.9144 C   0  0  2  0  0  0  0  0  0  0  0  0
  -19.8125  -28.0154   21.6866 C   0  0  0  0  0  0  0  0  0  0  0  0
  -28.5050  -13.4507   20.6055 N   0  0  0  0  0  0  0  0  0  0  0  0
  -30.9802  -20.7066   17.2074 N   0  0  0  0  0  0  0  0  0  0  0  0
  -29.5137  -14.1819   20.1014 N   0  0  0  0  0  0  0  0  0  0  0  0
  -22.9442  -29.5669   20.8802 N   0  0  0  0  0  0  0  0  0  0  0  0
  -29.0350  -17.9645   19.8879 N   0  0  0  0  0  0  0  0  0  0  0  0
  -31.4088  -14.0630   18.6855 N   0  0  0  0  0  0  0  0  0  0  0  0
  -29.7567   -9.8614   18.5700 N   0  0  0  0  0  0  0  0  0  0  0  0
  -31.4174  -25.7369   17.6905 N   0  0  0  0  0  0  0  0  0  0  0  0
  -30.1302  -18.5934   17.8960 N   0  0  0  0  0  0  0  0  0  0  0  0
  -24.4901  -31.7915   23.3210 N   0  0  0  0  0  0  0  0  0  0  0  0
  -20.2395  -28.3887   19.2204 N   0  0  0  0  0  0  0  0  0  0  0  0
  -32.8272  -23.5087   16.1098 N   0  3  0  0  0  0  0  0  0  0  0  0
  -30.7965  -23.4244   17.4462 N   0  3  0  0  0  0  0  0  0  0  0  0
  -20.7637  -27.6148   15.7284 N   0  3  0  0  0  0  0  0  0  0  0  0
  -31.4320  -11.2252   17.8006 O   0  0  0  0  0  0  0  0  0  0  0  0
  -28.7640  -23.8951   19.0264 O   0  0  0  0  0  0  0  0  0  0  0  0
  -23.4746  -29.6967   23.3776 O   0  0  0  0  0  0  0  0  0  0  0  0
  -20.8958  -30.6786   20.8123 O   0  0  0  0  0  0  0  0  0  0  0  0
  -21.5438  -26.7186   18.2788 O   0  0  0  0  0  0  0  0  0  0  0  0
  -29.6909  -20.1559   19.5535 O   0  0  0  0  0  0  0  0  0  0  0  0
  -25.2449   -8.0213   21.2706 O   0  0  0  0  0  0  0  0  0  0  0  0
  -28.0575  -26.1866   20.1868 O   0  0  0  0  0  0  0  0  0  1  0  0
  -19.8272   -9.0373   21.1299 F   0  0  0  0  0  0  0  0  0  0  0  0
  -23.5856   -6.6323   19.5501 F   0  0  0  0  0  0  0  0  0  0  0  0
  1  2  1  0  0  0  0
  1  6  2  0  0  0  0
  2  7  2  0  0  0  0
  3 14  2  0  0  0  0
  3 15  1  0  0  0  0
  4  9  2  0  0  0  0
  4 18  1  0  0  0  0
  5 10  1  0  0  0  0
  5 18  2  0  0  0  0
  6 20  1  0  0  0  0
  7 22  1  0  0  0  0
  8 11  2  0  0  0  0
  8 21  1  0  0  0  0
  9 24  1  0  0  0  0
 10 24  2  0  0  0  0
 11 25  1  0  0  0  0
 12 13  2  0  0  0  0
 12 26  1  0  0  0  0
 13 27  1  0  0  0  0
 14 30  1  0  0  0  0
 15 31  2  0  0  0  0
 16 23  1  0  0  0  0
 16 25  2  0  0  0  0
 17 27  2  0  0  0  0
 17 28  1  0  0  0  0
 18 29  1  0  0  0  0
 19 29  1  0  0  0  0
 19 32  2  0  0  0  0
 19 33  1  0  0  0  0
 20 22  2  0  0  0  0
 20 41  1  0  0  0  0
 21 23  2  0  0  0  0
 21 42  1  0  0  0  0
 22 50  1  0  0  0  0
 23 43  1  0  0  0  0
 24 82  1  0  0  0  0
 25 83  1  0  0  0  0
 26 28  2  0  0  0  0
 26 82  1  0  0  0  0
 27 84  1  0  0  0  0
 28 85  1  0  0  0  0
 29 62  2  0  0  0  0
 30 34  1  0  0  0  0
 30 63  2  0  0  0  0
 31 63  1  0  0  0  0
 31 70  1  0  0  0  0
 32 64  1  0  0  0  0
 32 67  1  0  0  0  0
 33 68  1  0  0  0  0
 33 76  2  0  0  0  0
 34 73  2  0  0  0  0
 34 74  1  0  0  0  0
 35 36  1  0  0  0  0
 35 58  1  0  0  0  0
 35 77  2  0  0  0  0
 36 69  1  0  0  0  0
 36 74  2  0  0  0  0
 37 51  1  0  0  0  0
 37 71  1  0  0  0  0
 37 78  2  0  0  0  0
 38 59  1  0  0  0  0
 38 65  1  0  0  0  0
 38 79  2  0  0  0  0
 39 60  1  0  0  0  0
 39 72  1  0  0  0  0
 39 80  2  0  0  0  0
 40 66  1  0  0  0  0
 40 70  1  0  0  0  0
 40 81  2  0  0  0  0
 41 44  1  0  0  0  0
 42 51  1  0  0  0  0
 43 65  1  0  0  0  0
 44 46  1  0  0  0  0
 45 47  1  0  0  0  0
 45 48  1  0  0  0  0
 46 50  1  0  0  0  0
 47 52  1  0  0  0  0
 48 66  1  0  0  0  0
 49 52  1  0  0  0  0
 49 66  1  0  0  0  0
 50 71  1  0  0  0  0
 51 65  1  0  0  0  0
 52 64  1  0  0  0  0
 53 60  1  0  0  0  0
 54 61  1  0  0  0  0
 55 61  1  0  0  0  0
 56 61  1  0  0  0  0
 57 75  1  0  0  0  0
 58 83  1  0  0  0  0
 59 61  1  0  0  0  0
 59 72  1  0  0  0  0
 60 75  1  0  0  0  0
 62 64  1  0  0  0  0
M  CHG  3  73   1  74   1  75   1
M  ISO  4  40 100  58 101  70 100  83 101
M  END
> <Batch ID>
0158

> <Smiles>
CNC(C)C(=O)NC(C(=O)N1Cc2cc([101O:1][101CH2:1]C(=O)C(=N)NC(=N)c3cccc([100NH:0][100C:0](=O)N4CCCC(n5nc(-c6ccc(Oc7ccc(F)cc7F)cc6)c(C(N)=O)c5N)C4)n3)ccc2CC1C(=O)NC1CCCc2ccccc21)C(C)(C)C

> <Shape>
0.310

> <Color>
0.085

> <Negative vol penalty>
0.000

$$$$

  -OEChem-04052303443D

 88 97  0     1  0  0  0  0  0999 V2000
  -28.6964  -35.4083   27.1625 C   0  0  0  0  0  0  0  0  0  0  0  0
  -29.5295  -34.3337   26.8680 C   0  0  0  0  0  0  0  0  0  0  0  0
  -22.8183  -10.7815   21.9130 C   0  0  0  0  0  0  0  0  0  0  0  0
  -24.4974   -9.0648   21.6475 C   0  0  0  0  0  0  0  0  0  0  0  0
  -27.3882  -35.4271   26.6806 C   0  0  0  0  0  0  0  0  0  0  0  0
  -29.0544  -33.2767   26.0924 C   0  0  0  0  0  0  0  0  0  0  0  0
  -31.2530  -28.4751   21.2522 C   0  0  0  0  0  0  0  0  0  0  0  0
  -22.1865  -10.0125   22.8902 C   0  0  0  0  0  0  0  0  0  0  0  0
  -23.8656   -8.2958   22.6248 C   0  0  0  0  0  0  0  0  0  0  0  0
  -31.2376  -27.1016   21.0137 C   0  0  0  0  0  0  0  0  0  0  0  0
  -21.1748   -6.2601   22.8392 C   0  0  0  0  0  0  0  0  0  0  0  0
  -20.9990   -4.9007   22.5808 C   0  0  0  0  0  0  0  0  0  0  0  0
  -28.9848  -27.2795   20.1695 C   0  0  0  0  0  0  0  0  0  0  0  0
  -27.8134  -17.8878   22.2404 C   0  0  0  0  0  0  0  0  0  0  0  0
  -30.1278  -17.9657   21.5519 C   0  0  0  0  0  0  0  0  0  0  0  0
  -22.3157   -4.3594   24.5328 C   0  0  0  0  0  0  0  0  0  0  0  0
  -23.9737  -10.3076   21.2915 C   0  0  0  0  0  0  0  0  0  0  0  0
  -29.1049  -19.9027   22.5711 C   0  0  0  0  0  0  0  0  0  0  0  0
  -24.0791  -11.5432   19.0622 C   0  0  0  0  0  0  0  0  0  0  0  0
  -26.8999  -34.3744   25.8907 C   0  0  0  0  0  0  0  0  0  0  0  0
  -30.1286  -29.2608   20.9608 C   0  0  0  0  0  0  0  0  0  0  0  0
  -27.7380  -33.2809   25.6007 C   0  0  0  0  0  0  0  0  0  0  0  0
  -28.9894  -28.6632   20.4028 C   0  0  0  0  0  0  0  0  0  0  0  0
  -28.9258  -17.2681   21.6712 C   0  0  0  0  0  0  0  0  0  0  0  0
  -22.7102   -8.7697   23.2462 C   0  0  0  0  0  0  0  0  0  0  0  0
  -30.1024  -26.5031   20.4750 C   0  0  0  0  0  0  0  0  0  0  0  0
  -21.9211   -6.6691   23.9443 C   0  0  0  0  0  0  0  0  0  0  0  0
  -21.5694   -3.9503   23.4276 C   0  0  0  0  0  0  0  0  0  0  0  0
  -27.9029  -19.2051   22.6903 C   0  0  0  0  0  0  0  0  0  0  0  0
  -30.2174  -19.2830   22.0018 C   0  0  0  0  0  0  0  0  0  0  0  0
  -22.4915   -5.7188   24.7911 C   0  0  0  0  0  0  0  0  0  0  0  0
  -24.6265  -11.1013   20.2815 C   0  0  0  0  0  0  0  0  0  0  0  0
  -25.0931  -12.2539   18.4680 C   0  0  0  0  0  0  0  0  0  0  0  0
  -29.0688  -23.0667   19.9316 C   0  0  0  0  0  0  0  0  0  0  0  0
  -29.1995  -21.2943   23.0471 C   0  0  0  0  0  0  0  0  0  0  0  0
  -22.7708  -11.3303   18.5155 C   0  0  0  0  0  0  0  0  0  0  0  0
  -28.1496  -31.0668   22.6712 C   0  0  0  0  0  0  0  0  0  0  0  0
  -26.9556  -31.8370   19.7552 C   0  0  0  0  0  0  0  0  0  0  0  0
  -26.5292  -30.9776   16.4800 C   0  0  0  0  0  0  0  0  0  0  0  0
  -29.8430  -15.1683   20.6243 C   0  0  0  0  0  0  0  0  0  0  0  0
  -25.4637  -34.4167   25.4320 C   0  0  0  0  0  0  0  0  0  0  0  0
  -30.1708  -30.7454   21.1989 C   0  0  0  0  0  0  0  0  0  0  0  0
  -27.7636  -29.4655   20.0534 C   0  0  0  0  0  0  0  0  0  0  0  0
  -28.5161  -21.9959   20.8305 C   0  0  0  0  0  0  0  0  0  0  0  0
  -25.1554  -33.4353   24.3042 C   0  0  0  0  0  0  0  0  0  0  0  0
  -29.8713  -12.5026   18.2642 C   0  0  0  0  0  0  0  0  0  0  0  0
  -25.7401  -32.0616   24.6171 C   0  0  0  0  0  0  0  0  0  0  0  0
  -28.4776  -11.8848   18.3984 C   0  0  0  0  0  0  0  0  0  0  0  0
  -28.2709  -24.6147   21.7461 C   0  0  0  0  0  0  0  0  0  0  0  0
  -30.4156  -12.9723   19.6121 C   0  0  0  0  0  0  0  0  0  0  0  0
  -29.0078  -23.6831   22.6987 C   0  0  0  0  0  0  0  0  0  0  0  0
  -28.1332  -13.2511   20.4963 C   0  0  0  0  0  0  0  0  0  0  0  0
  -27.2670  -32.1273   24.7418 C   0  0  1  0  0  0  0  0  0  0  0  0
  -28.8296  -24.5084   20.3326 C   0  0  1  0  0  0  0  0  0  1  0  0
  -28.7851  -31.3670   21.3432 C   0  0  1  0  0  0  0  0  0  0  0  0
  -27.5162  -12.8221   19.1551 C   0  0  2  0  0  0  0  0  0  0  0  0
  -25.4788  -31.7905   14.3509 C   0  0  0  0  0  0  0  0  0  0  0  0
  -24.2068  -31.0316   20.8066 C   0  0  0  0  0  0  0  0  0  0  0  0
  -23.4016  -30.9495   18.4374 C   0  0  0  0  0  0  0  0  0  0  0  0
  -24.2210  -33.0998   19.4006 C   0  0  0  0  0  0  0  0  0  0  0  0
  -29.1414  -31.0750   15.0922 C   0  0  0  0  0  0  0  0  0  0  0  0
  -25.8817  -31.2727   18.8566 C   0  0  1  0  0  0  0  0  0  0  0  0
  -26.7419  -31.7609   15.1972 C   0  0  2  0  0  0  0  0  0  0  0  0
  -24.4501  -31.5727   19.3836 C   0  0  0  0  0  0  0  0  0  0  0  0
  -25.8903  -11.4979   20.4531 N   0  0  0  0  0  0  0  0  0  0  0  0
  -26.1455  -12.1964   19.3337 N   0  0  0  0  0  0  0  0  0  0  0  0
  -28.9180  -22.2891   22.2141 N   0  0  0  0  0  0  0  0  0  0  0  0
  -27.8515  -30.9125   20.3107 N   0  0  0  0  0  0  0  0  0  0  0  0
  -29.4534  -13.8596   20.2691 N   0  0  0  0  0  0  0  0  0  0  0  0
  -25.1784  -12.9160   17.2947 N   0  0  0  0  0  0  0  0  0  0  0  0
  -21.8510  -10.5769   19.2577 N   0  0  0  0  0  0  0  0  0  0  0  0
  -28.8345  -15.9303   21.2132 N   0  0  0  0  0  0  0  0  0  0  0  0
  -27.8789  -32.1884   23.4317 N   0  0  0  0  0  0  0  0  0  0  0  0
  -26.1492  -31.7972   17.5218 N   0  0  0  0  0  0  0  0  0  0  0  0
  -29.5636  -21.5316   24.3038 N   0  3  0  0  0  0  0  0  0  0  0  0
  -27.8340  -31.1467   14.3903 N   0  3  0  0  0  0  0  0  0  0  0  0
  -29.6616  -22.7798   18.8909 O   0  0  0  0  0  0  0  0  0  0  0  0
  -22.4329  -11.7806   17.3945 O   0  0  0  0  0  0  0  0  0  0  0  0
  -27.9205  -29.9039   22.9823 O   0  0  0  0  0  0  0  0  0  0  0  0
  -27.0024  -33.0539   19.9510 O   0  0  0  0  0  0  0  0  0  0  0  0
  -26.6810  -29.7600   16.5500 O   0  0  0  0  0  0  0  0  0  0  0  0
  -30.9792  -15.5916   20.3963 O   0  0  0  0  0  0  0  0  0  0  0  0
  -22.0941   -8.0191   24.1999 O   0  0  0  0  0  0  0  0  0  0  0  0
  -30.0844  -25.1625   20.2419 O   0  0  0  0  0  0  0  0  0  1  0  0
  -21.3992   -2.6450   23.1802 F   0  0  0  0  0  0  0  0  0  0  0  0
  -26.8284  -19.7926   23.2356 F   0  0  0  0  0  0  0  0  0  0  0  0
  -31.3768  -19.9450   21.8819 F   0  0  0  0  0  0  0  0  0  0  0  0
  -23.2086   -6.1057   25.8551 F   0  0  0  0  0  0  0  0  0  0  0  0
  1  2  1  0  0  0  0
  1  5  2  0  0  0  0
  2  6  2  0  0  0  0
  3  8  2  0  0  0  0
  3 17  1  0  0  0  0
  4  9  1  0  0  0  0
  4 17  2  0  0  0  0
  5 20  1  0  0  0  0
  6 22  1  0  0  0  0
  7 10  2  0  0  0  0
  7 21  1  0  0  0  0
  8 25  1  0  0  0  0
  9 25  2  0  0  0  0
 10 26  1  0  0  0  0
 11 12  2  0  0  0  0
 11 27  1  0  0  0  0
 12 28  1  0  0  0  0
 13 23  1  0  0  0  0
 13 26  2  0  0  0  0
 14 24  1  0  0  0  0
 14 29  2  0  0  0  0
 15 24  2  0  0  0  0
 15 30  1  0  0  0  0
 16 28  2  0  0  0  0
 16 31  1  0  0  0  0
 17 32  1  0  0  0  0
 18 29  1  0  0  0  0
 18 30  2  0  0  0  0
 18 35  1  0  0  0  0
 19 32  1  0  0  0  0
 19 33  2  0  0  0  0
 19 36  1  0  0  0  0
 20 22  2  0  0  0  0
 20 41  1  0  0  0  0
 21 23  2  0  0  0  0
 21 42  1  0  0  0  0
 22 53  1  0  0  0  0
 23 43  1  0  0  0  0
 24 72  1  0  0  0  0
 25 83  1  0  0  0  0
 26 84  1  0  0  0  0
 27 31  2  0  0  0  0
 27 83  1  0  0  0  0
 28 85  1  0  0  0  0
 29 86  1  0  0  0  0
 30 87  1  0  0  0  0
 31 88  1  0  0  0  0
 32 65  2  0  0  0  0
 33 66  1  0  0  0  0
 33 70  1  0  0  0  0
 34 44  1  0  0  0  0
 34 54  1  0  0  0  0
 34 77  2  0  0  0  0
 35 67  1  0  0  0  0
 35 75  2  0  0  0  0
 36 71  1  0  0  0  0
 36 78  2  0  0  0  0
 37 55  1  0  0  0  0
 37 73  1  0  0  0  0
 37 79  2  0  0  0  0
 38 62  1  0  0  0  0
 38 68  1  0  0  0  0
 38 80  2  0  0  0  0
 39 63  1  0  0  0  0
 39 74  1  0  0  0  0
 39 81  2  0  0  0  0
 40 69  1  0  0  0  0
 40 72  1  0  0  0  0
 40 82  2  0  0  0  0
 41 45  1  0  0  0  0
 42 55  1  0  0  0  0
 43 68  1  0  0  0  0
 44 67  1  0  0  0  0
 45 47  1  0  0  0  0
 46 48  1  0  0  0  0
 46 50  1  0  0  0  0
 47 53  1  0  0  0  0
 48 56  1  0  0  0  0
 49 51  1  0  0  0  0
 49 54  1  0  0  0  0
 50 69  1  0  0  0  0
 51 67  1  0  0  0  0
 52 56  1  0  0  0  0
 52 69  1  0  0  0  0
 53 73  1  0  0  0  0
 54 84  1  0  0  0  0
 55 68  1  0  0  0  0
 56 66  1  0  0  0  0
 57 63  1  0  0  0  0
 58 64  1  0  0  0  0
 59 64  1  0  0  0  0
 60 64  1  0  0  0  0
 61 76  1  0  0  0  0
 62 64  1  0  0  0  0
 62 74  1  0  0  0  0
 63 76  1  0  0  0  0
 65 66  1  0  0  0  0
M  CHG  2  75   1  76   1
M  ISO  4  40 100  54 101  72 100  84 101
M  END
> <Batch ID>
0158

> <Smiles>
CNC(C)C(=O)NC(C(=O)N1Cc2cc([101O:1][101CH:1]3CCN(C(=N)c4c(F)cc([100NH:0][100C:0](=O)N5CCCC(n6nc(-c7ccc(Oc8ccc(F)cc8F)cc7)c(C(N)=O)c6N)C5)cc4F)CC3=O)ccc2CC1C(=O)NC1CCCc2ccccc21)C(C)(C)C

> <Shape>
0.282

> <Color>
0.082

> <Negative vol penalty>
0.000

$$$$

  -OEChem-04052303443D

 79 87  0     1  0  0  0  0  0999 V2000
  -17.5287  -25.7009   21.9437 C   0  0  0  0  0  0  0  0  0  0  0  0
  -18.8357  -25.4656   21.5292 C   0  0  0  0  0  0  0  0  0  0  0  0
  -23.4612  -16.5779   21.2606 C   0  0  0  0  0  0  0  0  0  0  0  0
  -23.4132  -16.2971   18.8615 C   0  0  0  0  0  0  0  0  0  0  0  0
  -17.2238  -26.8563   22.6620 C   0  0  0  0  0  0  0  0  0  0  0  0
  -19.8384  -26.3862   21.8318 C   0  0  0  0  0  0  0  0  0  0  0  0
  -24.0695  -24.1680   23.5118 C   0  0  0  0  0  0  0  0  0  0  0  0
  -22.6382  -17.6983   21.1460 C   0  0  0  0  0  0  0  0  0  0  0  0
  -22.5902  -17.4175   18.7468 C   0  0  0  0  0  0  0  0  0  0  0  0
  -24.9034  -23.5838   22.5594 C   0  0  0  0  0  0  0  0  0  0  0  0
  -20.7707  -20.4149   17.7903 C   0  0  0  0  0  0  0  0  0  0  0  0
  -21.0745  -21.3434   16.7947 C   0  0  0  0  0  0  0  0  0  0  0  0
  -26.3340  -25.5248   22.6300 C   0  0  0  0  0  0  0  0  0  0  0  0
  -23.2418  -21.7096   17.7977 C   0  0  0  0  0  0  0  0  0  0  0  0
  -23.8487  -15.8774   20.1183 C   0  0  0  0  0  0  0  0  0  0  0  0
  -24.2956  -13.3817   20.4006 C   0  0  0  0  0  0  0  0  0  0  0  0
  -18.2250  -27.7868   22.9820 C   0  0  0  0  0  0  0  0  0  0  0  0
  -24.3561  -25.4419   24.0232 C   0  0  0  0  0  0  0  0  0  0  0  0
  -19.5463  -27.5558   22.5539 C   0  0  0  0  0  0  0  0  0  0  0  0
  -25.5035  -26.1220   23.5906 C   0  0  0  0  0  0  0  0  0  0  0  0
  -22.2027  -18.1181   19.8891 C   0  0  0  0  0  0  0  0  0  0  0  0
  -26.0342  -24.2634   22.1162 C   0  0  0  0  0  0  0  0  0  0  0  0
  -21.7023  -20.1338   18.7896 C   0  0  0  0  0  0  0  0  0  0  0  0
  -22.3101  -21.9907   16.7984 C   0  0  0  0  0  0  0  0  0  0  0  0
  -22.9379  -20.7811   18.7933 C   0  0  0  0  0  0  0  0  0  0  0  0
  -24.6993  -14.7203   20.2361 C   0  0  0  0  0  0  0  0  0  0  0  0
  -25.4709  -12.6734   20.4591 C   0  0  0  0  0  0  0  0  0  0  0  0
  -22.9762  -12.8281   20.4922 C   0  0  0  0  0  0  0  0  0  0  0  0
  -22.8737  -28.2536   24.0012 C   0  0  0  0  0  0  0  0  0  0  0  0
  -27.9187  -21.9218   20.0688 C   0  0  0  0  0  0  0  0  0  0  0  0
  -25.3073  -29.1132   25.9661 C   0  0  0  0  0  0  0  0  0  0  0  0
  -28.5010  -28.5612   27.0349 C   0  0  0  0  0  0  0  0  0  0  0  0
  -29.2276  -16.7126   19.2934 C   0  0  0  0  0  0  0  0  0  0  0  0
  -17.8385  -29.0443   23.7195 C   0  0  0  0  0  0  0  0  0  0  0  0
  -23.4611  -26.0470   25.0698 C   0  0  0  0  0  0  0  0  0  0  0  0
  -25.8666  -27.4832   24.1234 C   0  0  0  0  0  0  0  0  0  0  0  0
  -19.0280  -29.7863   24.3234 C   0  0  0  0  0  0  0  0  0  0  0  0
  -28.7483  -14.6451   22.3753 C   0  0  0  0  0  0  0  0  0  0  0  0
  -20.1575  -29.9027   23.3048 C   0  0  0  0  0  0  0  0  0  0  0  0
  -28.5315  -13.2617   21.7654 C   0  0  0  0  0  0  0  0  0  0  0  0
  -29.6177  -15.5081   21.4715 C   0  0  0  0  0  0  0  0  0  0  0  0
  -29.1036  -20.1409   18.8332 C   0  0  0  0  0  0  0  0  0  0  0  0
  -27.4349  -19.4747   20.5435 C   0  0  0  0  0  0  0  0  0  0  0  0
  -30.0395  -19.0516   19.3406 C   0  0  0  0  0  0  0  0  0  0  0  0
  -28.3734  -18.3636   21.0182 C   0  0  0  0  0  0  0  0  0  0  0  0
  -28.8253  -14.2830   19.4668 C   0  0  0  0  0  0  0  0  0  0  0  0
  -20.6661  -28.5185   22.8843 C   0  0  1  0  0  0  0  0  0  0  0  0
  -23.5695  -27.5670   25.1423 C   0  0  1  0  0  0  0  0  0  0  0  0
  -27.9708  -13.3342   20.3312 C   0  0  2  0  0  0  0  0  0  0  0  0
  -30.2279  -29.4503   28.6238 C   0  0  0  0  0  0  0  0  0  0  0  0
  -25.8497  -31.4414   24.0700 C   0  0  0  0  0  0  0  0  0  0  0  0
  -28.0938  -31.7057   25.1481 C   0  0  0  0  0  0  0  0  0  0  0  0
  -26.0192  -32.0128   26.4988 C   0  0  0  0  0  0  0  0  0  0  0  0
  -28.6080  -26.0090   28.5294 C   0  0  0  0  0  0  0  0  0  0  0  0
  -26.9425  -22.2845   21.1596 C   0  0  0  0  0  0  0  0  0  1  0  0
  -26.6895  -29.6871   25.7680 C   0  0  1  0  0  0  0  0  0  0  0  0
  -29.0929  -28.4571   28.4289 C   0  0  2  0  0  0  0  0  0  0  0  0
  -26.6554  -31.1869   25.3596 C   0  0  0  0  0  0  0  0  0  0  0  0
  -26.0272  -14.8568   20.1930 N   0  0  0  0  0  0  0  0  0  0  0  0
  -26.4682  -13.5949   20.3315 N   0  0  0  0  0  0  0  0  0  0  0  0
  -24.9568  -28.0355   25.1405 N   0  0  0  0  0  0  0  0  0  0  0  0
  -28.1619  -20.5611   19.8742 N   0  0  0  0  0  0  0  0  0  0  0  0
  -29.0807  -15.5763   20.1075 N   0  0  0  0  0  0  0  0  0  0  0  0
  -29.2845  -17.9551   19.9427 N   0  0  0  0  0  0  0  0  0  0  0  0
  -25.7382  -11.3584   20.6070 N   0  0  0  0  0  0  0  0  0  0  0  0
  -21.8798  -13.6975   20.4132 N   0  0  0  0  0  0  0  0  0  0  0  0
  -21.5258  -27.9636   23.9078 N   0  0  0  0  0  0  0  0  0  0  0  0
  -27.4229  -29.4200   27.0006 N   0  0  0  0  0  0  0  0  0  0  0  0
  -29.6235  -27.0847   28.6653 N   0  3  0  0  0  0  0  0  0  0  0  0
  -22.7758  -11.6007   20.6563 O   0  0  0  0  0  0  0  0  0  0  0  0
  -23.5121  -28.9929   23.2612 O   0  0  0  0  0  0  0  0  0  0  0  0
  -28.4509  -22.8210   19.4129 O   0  0  0  0  0  0  0  0  0  0  0  0
  -24.5686  -29.5984   26.8266 O   0  0  0  0  0  0  0  0  0  0  0  0
  -28.9525  -27.9453   26.0719 O   0  0  0  0  0  0  0  0  0  0  0  0
  -29.2909  -16.6204   18.0611 O   0  0  0  0  0  0  0  0  0  0  0  0
  -21.3995  -19.2111   19.7769 O   0  0  0  0  0  0  0  0  0  0  0  0
  -26.8594  -23.6888   21.1750 O   0  0  0  0  0  0  0  0  0  1  0  0
  -22.6023  -22.8812   15.8414 F   0  0  0  0  0  0  0  0  0  0  0  0
  -23.8374  -20.5143   19.7501 F   0  0  0  0  0  0  0  0  0  0  0  0
  1  2  1  0  0  0  0
  1  5  2  0  0  0  0
  2  6  2  0  0  0  0
  3  8  2  0  0  0  0
  3 15  1  0  0  0  0
  4  9  1  0  0  0  0
  4 15  2  0  0  0  0
  5 17  1  0  0  0  0
  6 19  1  0  0  0  0
  7 10  2  0  0  0  0
  7 18  1  0  0  0  0
  8 21  1  0  0  0  0
  9 21  2  0  0  0  0
 10 22  1  0  0  0  0
 11 12  2  0  0  0  0
 11 23  1  0  0  0  0
 12 24  1  0  0  0  0
 13 20  1  0  0  0  0
 13 22  2  0  0  0  0
 14 24  2  0  0  0  0
 14 25  1  0  0  0  0
 15 26  1  0  0  0  0
 16 26  1  0  0  0  0
 16 27  2  0  0  0  0
 16 28  1  0  0  0  0
 17 19  2  0  0  0  0
 17 34  1  0  0  0  0
 18 20  2  0  0  0  0
 18 35  1  0  0  0  0
 19 47  1  0  0  0  0
 20 36  1  0  0  0  0
 21 76  1  0  0  0  0
 22 77  1  0  0  0  0
 23 25  2  0  0  0  0
 23 76  1  0  0  0  0
 24 78  1  0  0  0  0
 25 79  1  0  0  0  0
 26 59  2  0  0  0  0
 27 60  1  0  0  0  0
 27 65  1  0  0  0  0
 28 66  1  0  0  0  0
 28 70  2  0  0  0  0
 29 48  1  0  0  0  0
 29 67  1  0  0  0  0
 29 71  2  0  0  0  0
 30 55  1  0  0  0  0
 30 62  1  0  0  0  0
 30 72  2  0  0  0  0
 31 56  1  0  0  0  0
 31 61  1  0  0  0  0
 31 73  2  0  0  0  0
 32 57  1  0  0  0  0
 32 68  1  0  0  0  0
 32 74  2  0  0  0  0
 33 63  1  0  0  0  0
 33 64  1  0  0  0  0
 33 75  2  0  0  0  0
 34 37  1  0  0  0  0
 35 48  1  0  0  0  0
 36 61  1  0  0  0  0
 37 39  1  0  0  0  0
 38 40  1  0  0  0  0
 38 41  1  0  0  0  0
 39 47  1  0  0  0  0
 40 49  1  0  0  0  0
 41 63  1  0  0  0  0
 42 44  1  0  0  0  0
 42 62  1  0  0  0  0
 43 45  1  0  0  0  0
 43 62  1  0  0  0  0
 44 64  1  0  0  0  0
 45 64  1  0  0  0  0
 46 49  1  0  0  0  0
 46 63  1  0  0  0  0
 47 67  1  0  0  0  0
 48 61  1  0  0  0  0
 49 60  1  0  0  0  0
 50 57  1  0  0  0  0
 51 58  1  0  0  0  0
 52 58  1  0  0  0  0
 53 58  1  0  0  0  0
 54 69  1  0  0  0  0
 55 77  1  0  0  0  0
 56 58  1  0  0  0  0
 56 68  1  0  0  0  0
 57 69  1  0  0  0  0
 59 60  1  0  0  0  0
M  CHG  1  69   1
M  ISO  4  33 100  55 101  64 100  77 101
M  END
> <Batch ID>
0158

> <Smiles>
CNC(C)C(=O)NC(C(=O)N1Cc2cc([101O:1][101CH2:1]C(=O)N3CC[100N:0]([100C:0](=O)N4CCCC(n5nc(-c6ccc(Oc7ccc(F)cc7F)cc6)c(C(N)=O)c5N)C4)CC3)ccc2CC1C(=O)NC1CCCc2ccccc21)C(C)(C)C

> <Shape>
0.234

> <Color>
0.093

> <Negative vol penalty>
0.000

$$$$

  -OEChem-04052303443D

 83 91  0     1  0  0  0  0  0999 V2000
  -25.6865  -38.5219   21.6397 C   0  0  0  0  0  0  0  0  0  0  0  0
  -26.4011  -37.5899   20.8938 C   0  0  0  0  0  0  0  0  0  0  0  0
  -21.0735  -10.7204   21.9608 C   0  0  0  0  0  0  0  0  0  0  0  0
  -23.4431  -10.5524   21.5205 C   0  0  0  0  0  0  0  0  0  0  0  0
  -25.0578  -38.1326   22.8217 C   0  0  0  0  0  0  0  0  0  0  0  0
  -26.4882  -36.2684   21.3301 C   0  0  0  0  0  0  0  0  0  0  0  0
  -26.9101  -29.5747   18.8135 C   0  0  0  0  0  0  0  0  0  0  0  0
  -20.9372   -9.3483   21.7507 C   0  0  0  0  0  0  0  0  0  0  0  0
  -23.3068   -9.1802   21.3105 C   0  0  0  0  0  0  0  0  0  0  0  0
  -27.6863  -28.4235   18.9397 C   0  0  0  0  0  0  0  0  0  0  0  0
  -23.0048   -6.3915   23.1953 C   0  0  0  0  0  0  0  0  0  0  0  0
  -23.9457   -5.5500   23.7886 C   0  0  0  0  0  0  0  0  0  0  0  0
  -26.4934  -27.8475   20.9557 C   0  0  0  0  0  0  0  0  0  0  0  0
  -27.0724  -20.0016   18.1196 C   0  0  0  0  0  0  0  0  0  0  0  0
  -24.5877   -4.7305   21.6084 C   0  0  0  0  0  0  0  0  0  0  0  0
  -28.2397  -19.2823   19.8793 C   0  0  0  0  0  0  0  0  0  0  0  0
  -22.3265  -11.3225   21.8456 C   0  0  0  0  0  0  0  0  0  0  0  0
  -22.7405  -13.3911   23.2799 C   0  0  0  0  0  0  0  0  0  0  0  0
  -25.1292  -36.8035   23.2677 C   0  0  0  0  0  0  0  0  0  0  0  0
  -25.9254  -29.8771   19.7650 C   0  0  0  0  0  0  0  0  0  0  0  0
  -25.8610  -35.8613   22.5198 C   0  0  0  0  0  0  0  0  0  0  0  0
  -25.7043  -29.0018   20.8379 C   0  0  0  0  0  0  0  0  0  0  0  0
  -27.8684  -20.4254   19.2105 C   0  0  0  0  0  0  0  0  0  0  0  0
  -22.0538   -8.5781   21.4256 C   0  0  0  0  0  0  0  0  0  0  0  0
  -27.4800  -27.5612   20.0125 C   0  0  0  0  0  0  0  0  0  0  0  0
  -22.8552   -6.4025   21.8085 C   0  0  0  0  0  0  0  0  0  0  0  0
  -24.7372   -4.7195   22.9952 C   0  0  0  0  0  0  0  0  0  0  0  0
  -23.6467   -5.5721   21.0150 C   0  0  0  0  0  0  0  0  0  0  0  0
  -22.4679  -12.7400   22.0619 C   0  0  0  0  0  0  0  0  0  0  0  0
  -27.0142  -18.6297   18.1994 C   0  0  0  0  0  0  0  0  0  0  0  0
  -22.7757  -14.7253   22.9557 C   0  0  0  0  0  0  0  0  0  0  0  0
  -27.7876  -25.2896   19.5476 C   0  0  0  0  0  0  0  0  0  1  0  0
  -22.9438  -12.8392   24.5875 C   0  0  0  0  0  0  0  0  0  0  0  0
  -28.4503  -24.1283   19.6075 C   0  0  0  0  0  0  0  0  0  0  0  0
  -27.8729  -22.9251   18.9239 C   0  0  0  0  0  0  0  0  0  0  0  0
  -25.4422  -32.2586   21.8140 C   0  0  0  0  0  0  0  0  0  0  0  0
  -22.6341  -30.7213   22.3364 C   0  0  0  0  0  0  0  0  0  0  0  0
  -20.8632  -27.8059   22.2278 C   0  0  0  0  0  0  0  0  0  0  0  0
  -23.9234  -17.6545   17.8612 C   0  0  0  0  0  0  0  0  0  0  0  0
  -24.4727  -36.4406   24.5761 C   0  0  0  0  0  0  0  0  0  0  0  0
  -25.0784  -31.1091   19.6000 C   0  0  0  0  0  0  0  0  0  0  0  0
  -24.6461  -29.2705   21.8754 C   0  0  0  0  0  0  0  0  0  0  0  0
  -24.2997  -34.9369   24.7743 C   0  0  0  0  0  0  0  0  0  0  0  0
  -20.9680  -17.8694   19.8352 C   0  0  0  0  0  0  0  0  0  0  0  0
  -25.5875  -34.2000   24.4201 C   0  0  0  0  0  0  0  0  0  0  0  0
  -21.0419  -16.6379   20.7396 C   0  0  0  0  0  0  0  0  0  0  0  0
  -21.5159  -17.5785   18.4397 C   0  0  0  0  0  0  0  0  0  0  0  0
  -22.9500  -15.7775   19.3192 C   0  0  0  0  0  0  0  0  0  0  0  0
  -25.9577  -34.4129   22.9473 C   0  0  1  0  0  0  0  0  0  0  0  0
  -24.4522  -31.5832   20.9078 C   0  0  1  0  0  0  0  0  0  0  0  0
  -22.4604  -16.0372   20.7542 C   0  0  2  0  0  0  0  0  0  0  0  0
  -18.6020  -26.8538   22.7548 C   0  0  0  0  0  0  0  0  0  0  0  0
  -23.3246  -30.7328   25.3085 C   0  0  0  0  0  0  0  0  0  0  0  0
  -21.5655  -28.9850   25.6528 C   0  0  0  0  0  0  0  0  0  0  0  0
  -20.9305  -31.2384   24.7918 C   0  0  0  0  0  0  0  0  0  0  0  0
  -20.3972  -27.0459   19.4057 C   0  0  0  0  0  0  0  0  0  0  0  0
  -26.3574  -17.6019   17.3797 C   0  0  0  0  0  0  0  0  0  0  0  0
  -22.1680  -29.6364   23.2772 C   0  0  1  0  0  0  0  0  0  0  0  0
  -19.4811  -27.4864   21.6873 C   0  0  2  0  0  0  0  0  0  0  0  0
  -22.0185  -30.1438   24.7392 C   0  0  0  0  0  0  0  0  0  0  0  0
  -22.3389  -13.5906   21.0402 N   0  0  0  0  0  0  0  0  0  0  0  0
  -22.5312  -14.7898   21.6155 N   0  0  0  0  0  0  0  0  0  0  0  0
  -23.8480  -30.4912   21.6738 N   0  0  0  0  0  0  0  0  0  0  0  0
  -22.8643  -17.0123   18.5238 N   0  0  0  0  0  0  0  0  0  0  0  0
  -22.9916  -15.8379   23.6892 N   0  0  0  0  0  0  0  0  0  0  0  0
  -22.8735  -11.4482   24.7439 N   0  0  0  0  0  0  0  0  0  0  0  0
  -28.2272  -21.7475   19.5679 N   0  0  0  0  0  0  0  0  0  0  0  0
  -25.1395  -33.5773   22.0947 N   0  0  0  0  0  0  0  0  0  0  0  0
  -20.9397  -29.0981   22.7029 N   0  0  0  0  0  0  0  0  0  0  0  0
  -25.1697  -17.0555   17.9976 N   0  0  0  0  0  0  0  0  0  0  0  0
  -19.5797  -26.5416   20.5390 N   0  3  0  0  0  0  0  0  0  0  0  0
  -23.1646  -13.5594   25.5905 O   0  0  0  0  0  0  0  0  0  0  0  0
  -27.1792  -23.0434   17.9196 O   0  0  0  0  0  0  0  0  0  0  0  0
  -26.4085  -31.6295   22.2291 O   0  0  0  0  0  0  0  0  0  0  0  0
  -21.9428  -31.7323   22.1894 O   0  0  0  0  0  0  0  0  0  0  0  0
  -21.7820  -26.9896   22.2318 O   0  0  0  0  0  0  0  0  0  0  0  0
  -23.7705  -18.6882   17.2017 O   0  0  0  0  0  0  0  0  0  0  0  0
  -27.7232  -18.1833   19.2693 O   0  0  0  0  0  0  0  0  0  0  0  0
  -29.6505  -23.9922   20.2751 O   0  0  0  0  0  0  0  0  0  0  0  0
  -21.9212   -7.2391   21.2209 O   0  0  0  0  0  0  0  0  0  0  0  0
  -28.2368  -26.4372   20.1384 O   0  0  0  0  0  0  0  0  0  1  0  0
  -25.6418   -3.9126   23.5650 F   0  0  0  0  0  0  0  0  0  0  0  0
  -23.5085   -5.5791   19.6821 F   0  0  0  0  0  0  0  0  0  0  0  0
  1  2  1  0  0  0  0
  1  5  2  0  0  0  0
  2  6  2  0  0  0  0
  3  8  2  0  0  0  0
  3 17  1  0  0  0  0
  4  9  1  0  0  0  0
  4 17  2  0  0  0  0
  5 19  1  0  0  0  0
  6 21  1  0  0  0  0
  7 10  2  0  0  0  0
  7 20  1  0  0  0  0
  8 24  1  0  0  0  0
  9 24  2  0  0  0  0
 10 25  1  0  0  0  0
 11 12  2  0  0  0  0
 11 26  1  0  0  0  0
 12 27  1  0  0  0  0
 13 22  1  0  0  0  0
 13 25  2  0  0  0  0
 14 23  1  0  0  0  0
 14 30  2  0  0  0  0
 15 27  2  0  0  0  0
 15 28  1  0  0  0  0
 16 23  2  0  0  0  0
 16 78  1  0  0  0  0
 17 29  1  0  0  0  0
 18 29  1  0  0  0  0
 18 31  2  0  0  0  0
 18 33  1  0  0  0  0
 19 21  2  0  0  0  0
 19 40  1  0  0  0  0
 20 22  2  0  0  0  0
 20 41  1  0  0  0  0
 21 49  1  0  0  0  0
 22 42  1  0  0  0  0
 23 67  1  0  0  0  0
 24 80  1  0  0  0  0
 25 81  1  0  0  0  0
 26 28  2  0  0  0  0
 26 80  1  0  0  0  0
 27 82  1  0  0  0  0
 28 83  1  0  0  0  0
 29 61  2  0  0  0  0
 30 57  1  0  0  0  0
 30 78  1  0  0  0  0
 31 62  1  0  0  0  0
 31 65  1  0  0  0  0
 32 34  2  0  0  0  0
 32 81  1  0  0  0  0
 33 66  1  0  0  0  0
 33 72  2  0  0  0  0
 34 35  1  0  0  0  0
 34 79  1  0  0  0  0
 35 67  1  0  0  0  0
 35 73  2  0  0  0  0
 36 50  1  0  0  0  0
 36 68  1  0  0  0  0
 36 74  2  0  0  0  0
 37 58  1  0  0  0  0
 37 63  1  0  0  0  0
 37 75  2  0  0  0  0
 38 59  1  0  0  0  0
 38 69  1  0  0  0  0
 38 76  2  0  0  0  0
 39 64  1  0  0  0  0
 39 70  1  0  0  0  0
 39 77  2  0  0  0  0
 40 43  1  0  0  0  0
 41 50  1  0  0  0  0
 42 63  1  0  0  0  0
 43 45  1  0  0  0  0
 44 46  1  0  0  0  0
 44 47  1  0  0  0  0
 45 49  1  0  0  0  0
 46 51  1  0  0  0  0
 47 64  1  0  0  0  0
 48 51  1  0  0  0  0
 48 64  1  0  0  0  0
 49 68  1  0  0  0  0
 50 63  1  0  0  0  0
 51 62  1  0  0  0  0
 52 59  1  0  0  0  0
 53 60  1  0  0  0  0
 54 60  1  0  0  0  0
 55 60  1  0  0  0  0
 56 71  1  0  0  0  0
 57 70  1  0  0  0  0
 58 60  1  0  0  0  0
 58 69  1  0  0  0  0
 59 71  1  0  0  0  0
 61 62  1  0  0  0  0
M  CHG  1  71   1
M  ISO  4  32 101  39 100  70 100  81 101
M  END
> <Batch ID>
0158

> <Smiles>
CNC(C)C(=O)NC(C(=O)N1Cc2cc([101O:1][101CH2:1]C(=O)C(=O)Nc3coc(C[100NH:0][100C:0](=O)N4CCCC(n5nc(-c6ccc(Oc7ccc(F)cc7F)cc6)c(C(N)=O)c5N)C4)c3)ccc2CC1C(=O)NC1CCCc2ccccc21)C(C)(C)C

> <Shape>
0.255

> <Color>
0.080

> <Negative vol penalty>
0.000

$$$$

  -OEChem-04052303443D

 85 94  0     1  0  0  0  0  0999 V2000
  -16.2697  -29.2325   24.0717 C   0  0  0  0  0  0  0  0  0  0  0  0
  -16.8597  -28.5478   23.0140 C   0  0  0  0  0  0  0  0  0  0  0  0
  -23.1391   -9.3801   20.6906 C   0  0  0  0  0  0  0  0  0  0  0  0
  -23.4215  -11.6247   21.5386 C   0  0  0  0  0  0  0  0  0  0  0  0
  -16.8785  -30.3765   24.5861 C   0  0  0  0  0  0  0  0  0  0  0  0
  -18.0583  -29.0074   22.4695 C   0  0  0  0  0  0  0  0  0  0  0  0
  -23.9216  -24.8243   22.3489 C   0  0  0  0  0  0  0  0  0  0  0  0
  -22.1039   -9.1665   21.6006 C   0  0  0  0  0  0  0  0  0  0  0  0
  -22.3862  -11.4111   22.4487 C   0  0  0  0  0  0  0  0  0  0  0  0
  -25.0270  -24.0111   22.0981 C   0  0  0  0  0  0  0  0  0  0  0  0
  -21.7867   -8.4452   24.8875 C   0  0  0  0  0  0  0  0  0  0  0  0
  -21.7812   -7.2406   25.5907 C   0  0  0  0  0  0  0  0  0  0  0  0
  -26.2072  -25.8924   21.1411 C   0  0  0  0  0  0  0  0  0  0  0  0
  -19.6220   -6.7015   24.6503 C   0  0  0  0  0  0  0  0  0  0  0  0
  -29.1180  -17.6303   20.0173 C   0  0  0  0  0  0  0  0  0  0  0  0
  -23.7980  -10.6092   20.6596 C   0  0  0  0  0  0  0  0  0  0  0  0
  -24.7928  -10.7667   18.3158 C   0  0  0  0  0  0  0  0  0  0  0  0
  -18.0901  -30.8448   24.0539 C   0  0  0  0  0  0  0  0  0  0  0  0
  -23.9605  -26.1797   22.0103 C   0  0  0  0  0  0  0  0  0  0  0  0
  -18.6831  -30.1595   22.9764 C   0  0  0  0  0  0  0  0  0  0  0  0
  -25.1076  -26.7146   21.4012 C   0  0  0  0  0  0  0  0  0  0  0  0
  -21.7274  -10.1820   22.4797 C   0  0  0  0  0  0  0  0  0  0  0  0
  -26.1669  -24.5439   21.4955 C   0  0  0  0  0  0  0  0  0  0  0  0
  -20.7098   -8.7780   24.0657 C   0  0  0  0  0  0  0  0  0  0  0  0
  -20.6989   -6.3687   25.4721 C   0  0  0  0  0  0  0  0  0  0  0  0
  -19.6275   -7.9061   23.9471 C   0  0  0  0  0  0  0  0  0  0  0  0
  -24.8679  -10.8303   19.7201 C   0  0  0  0  0  0  0  0  0  0  0  0
  -30.0095  -18.7170   20.0092 C   0  0  0  0  0  0  0  0  0  0  0  0
  -26.0670  -11.0528   17.8905 C   0  0  0  0  0  0  0  0  0  0  0  0
  -29.9367  -16.5383   20.1329 C   0  0  0  0  0  0  0  0  0  0  0  0
  -23.6714  -10.4751   17.4713 C   0  0  0  0  0  0  0  0  0  0  0  0
  -22.1741  -29.4787   21.9750 C   0  0  0  0  0  0  0  0  0  0  0  0
  -25.0913  -30.0531   22.7302 C   0  0  0  0  0  0  0  0  0  0  0  0
  -27.9902  -31.3337   23.9926 C   0  0  0  0  0  0  0  0  0  0  0  0
  -30.5900  -14.1122   20.3170 C   0  0  0  0  0  0  0  0  0  0  0  0
  -18.6862  -32.1128   24.6120 C   0  0  0  0  0  0  0  0  0  0  0  0
  -22.7703  -27.0791   22.2058 C   0  0  0  0  0  0  0  0  0  0  0  0
  -25.0916  -28.1704   21.0226 C   0  0  0  0  0  0  0  0  0  0  0  0
  -20.1482  -32.3205   24.2248 C   0  0  0  0  0  0  0  0  0  0  0  0
  -30.6405  -10.7099   19.2688 C   0  0  0  0  0  0  0  0  0  0  0  0
  -20.3478  -32.0612   22.7349 C   0  0  0  0  0  0  0  0  0  0  0  0
  -29.1592  -10.3507   19.1319 C   0  0  0  0  0  0  0  0  0  0  0  0
  -27.6966  -21.6354   19.6266 C   0  0  0  0  0  0  0  0  0  0  0  0
  -29.9508  -22.4239   20.3887 C   0  0  0  0  0  0  0  0  0  0  0  0
  -30.8898  -11.6489   20.4477 C   0  0  0  0  0  0  0  0  0  0  0  0
  -28.3176  -20.3137   19.1673 C   0  0  0  0  0  0  0  0  0  0  0  0
  -30.5657  -21.1031   19.9224 C   0  0  0  0  0  0  0  0  0  0  0  0
  -28.5827  -12.5040   20.3228 C   0  0  0  0  0  0  0  0  0  0  0  0
  -19.9958  -30.6127   22.3750 C   0  0  1  0  0  0  0  0  0  0  0  0
  -23.1583  -28.5210   22.5795 C   0  0  1  0  0  0  0  0  0  0  0  0
  -28.2732  -11.6117   19.1096 C   0  0  2  0  0  0  0  0  0  0  0  0
  -28.6964  -22.7959   19.5890 C   0  0  0  0  0  0  0  0  0  0  0  0
  -29.3201  -33.4588   24.1060 C   0  0  0  0  0  0  0  0  0  0  0  0
  -25.9817  -29.6458   19.8414 C   0  0  0  0  0  0  0  0  0  0  0  0
  -27.9376  -31.1372   20.3085 C   0  0  0  0  0  0  0  0  0  0  0  0
  -25.6166  -32.0322   20.4942 C   0  0  0  0  0  0  0  0  0  0  0  0
  -27.8225  -31.4175   26.9462 C   0  0  0  0  0  0  0  0  0  0  0  0
  -29.9854  -24.0976   18.1170 C   0  0  0  0  0  0  0  0  0  0  0  0
  -28.0600  -24.0747   20.1340 C   0  0  0  0  0  0  0  0  0  1  0  0
  -26.4711  -30.4289   22.2524 C   0  0  1  0  0  0  0  0  0  0  0  0
  -28.2718  -32.5946   24.7895 C   0  0  2  0  0  0  0  0  0  0  0  0
  -26.4973  -30.7877   20.7398 C   0  0  0  0  0  0  0  0  0  0  0  0
  -26.0930  -11.1329   20.1578 N   0  0  0  0  0  0  0  0  0  0  0  0
  -31.2836  -18.3286   20.1120 N   0  0  0  0  0  0  0  0  0  0  0  0
  -26.7995  -11.2619   19.0218 N   0  0  0  0  0  0  0  0  0  0  0  0
  -29.5553  -20.0376   19.9028 N   0  0  0  0  0  0  0  0  0  0  0  0
  -24.4789  -28.9630   22.1001 N   0  0  0  0  0  0  0  0  0  0  0  0
  -30.0187  -12.8227   20.3574 N   0  0  0  0  0  0  0  0  0  0  0  0
  -26.6212  -11.1433   16.6629 N   0  0  0  0  0  0  0  0  0  0  0  0
  -22.4348  -10.2037   18.0726 N   0  0  0  0  0  0  0  0  0  0  0  0
  -29.6651  -15.1491   20.1980 N   0  0  0  0  0  0  0  0  0  0  0  0
  -21.0665  -29.7206   22.7651 N   0  0  0  0  0  0  0  0  0  0  0  0
  -26.9285  -31.5017   23.1290 N   0  0  0  0  0  0  0  0  0  0  0  0
  -28.7651  -32.2469   26.1521 N   0  3  0  0  0  0  0  0  0  0  0  0
  -23.7670  -10.4396   16.2211 O   0  0  0  0  0  0  0  0  0  0  0  0
  -22.4023  -29.9645   20.8734 O   0  0  0  0  0  0  0  0  0  0  0  0
  -24.5661  -30.7101   23.6334 O   0  0  0  0  0  0  0  0  0  0  0  0
  -28.6488  -30.3039   24.1205 O   0  0  0  0  0  0  0  0  0  0  0  0
  -31.8112  -14.2825   20.3557 O   0  0  0  0  0  0  0  0  0  0  0  0
  -31.2315  -16.9420   20.1904 O   0  0  0  0  0  0  0  0  0  0  0  0
  -20.7171   -9.9740   23.3677 O   0  0  0  0  0  0  0  0  0  0  0  0
  -27.2442  -23.7454   21.2577 O   0  0  0  0  0  0  0  0  0  1  0  0
  -29.0575  -23.0307   18.2259 O   0  0  0  0  0  0  0  0  0  0  0  0
  -20.6945   -5.2113   26.1462 F   0  0  0  0  0  0  0  0  0  0  0  0
  -18.5906   -8.2199   23.1583 F   0  0  0  0  0  0  0  0  0  0  0  0
  1  2  1  0  0  0  0
  1  5  2  0  0  0  0
  2  6  2  0  0  0  0
  3  8  2  0  0  0  0
  3 16  1  0  0  0  0
  4  9  1  0  0  0  0
  4 16  2  0  0  0  0
  5 18  1  0  0  0  0
  6 20  1  0  0  0  0
  7 10  2  0  0  0  0
  7 19  1  0  0  0  0
  8 22  1  0  0  0  0
  9 22  2  0  0  0  0
 10 23  1  0  0  0  0
 11 12  2  0  0  0  0
 11 24  1  0  0  0  0
 12 25  1  0  0  0  0
 13 21  1  0  0  0  0
 13 23  2  0  0  0  0
 14 25  2  0  0  0  0
 14 26  1  0  0  0  0
 15 28  1  0  0  0  0
 15 30  2  0  0  0  0
 16 27  1  0  0  0  0
 17 27  1  0  0  0  0
 17 29  2  0  0  0  0
 17 31  1  0  0  0  0
 18 20  2  0  0  0  0
 18 36  1  0  0  0  0
 19 21  2  0  0  0  0
 19 37  1  0  0  0  0
 20 49  1  0  0  0  0
 21 38  1  0  0  0  0
 22 81  1  0  0  0  0
 23 82  1  0  0  0  0
 24 26  2  0  0  0  0
 24 81  1  0  0  0  0
 25 84  1  0  0  0  0
 26 85  1  0  0  0  0
 27 63  2  0  0  0  0
 28 64  2  0  0  0  0
 28 66  1  0  0  0  0
 29 65  1  0  0  0  0
 29 69  1  0  0  0  0
 30 71  1  0  0  0  0
 30 80  1  0  0  0  0
 31 70  1  0  0  0  0
 31 75  2  0  0  0  0
 32 50  1  0  0  0  0
 32 72  1  0  0  0  0
 32 76  2  0  0  0  0
 33 60  1  0  0  0  0
 33 67  1  0  0  0  0
 33 77  2  0  0  0  0
 34 61  1  0  0  0  0
 34 73  1  0  0  0  0
 34 78  2  0  0  0  0
 35 68  1  0  0  0  0
 35 71  1  0  0  0  0
 35 79  2  0  0  0  0
 36 39  1  0  0  0  0
 37 50  1  0  0  0  0
 38 67  1  0  0  0  0
 39 41  1  0  0  0  0
 40 42  1  0  0  0  0
 40 45  1  0  0  0  0
 41 49  1  0  0  0  0
 42 51  1  0  0  0  0
 43 46  1  0  0  0  0
 43 52  1  0  0  0  0
 44 47  1  0  0  0  0
 44 52  1  0  0  0  0
 45 68  1  0  0  0  0
 46 66  1  0  0  0  0
 47 66  1  0  0  0  0
 48 51  1  0  0  0  0
 48 68  1  0  0  0  0
 49 72  1  0  0  0  0
 50 67  1  0  0  0  0
 51 65  1  0  0  0  0
 52 59  1  0  0  0  0
 52 83  1  0  0  0  0
 53 61  1  0  0  0  0
 54 62  1  0  0  0  0
 55 62  1  0  0  0  0
 56 62  1  0  0  0  0
 57 74  1  0  0  0  0
 58 83  1  0  0  0  0
 59 82  1  0  0  0  0
 60 62  1  0  0  0  0
 60 73  1  0  0  0  0
 61 74  1  0  0  0  0
 63 65  1  0  0  0  0
 64 80  1  0  0  0  0
M  CHG  1  74   1
M  ISO  4  35 100  59 101  71 100  82 101
M  END
> <Batch ID>
0158

> <Smiles>
CNC(C)C(=O)NC(C(=O)N1Cc2cc([101O:1][101CH2:1]C3(OC)CCN(c4cc([100NH:0][100C:0](=O)N5CCCC(n6nc(-c7ccc(Oc8ccc(F)cc8F)cc7)c(C(N)=O)c6N)C5)on4)CC3)ccc2CC1C(=O)NC1CCCc2ccccc21)C(C)(C)C

> <Shape>
0.305

> <Color>
0.080

> <Negative vol penalty>
0.000

$$$$

  -OEChem-04052303443D

 83 91  0     1  0  0  0  0  0999 V2000
  -16.5375  -29.7489   23.9463 C   0  0  0  0  0  0  0  0  0  0  0  0
  -17.0593  -28.4958   23.6414 C   0  0  0  0  0  0  0  0  0  0  0  0
  -22.6777  -12.4781   19.1052 C   0  0  0  0  0  0  0  0  0  0  0  0
  -22.7562  -11.4494   21.2898 C   0  0  0  0  0  0  0  0  0  0  0  0
  -17.2234  -30.9005   23.5626 C   0  0  0  0  0  0  0  0  0  0  0  0
  -18.2669  -28.3937   22.9517 C   0  0  0  0  0  0  0  0  0  0  0  0
  -24.0638  -24.2173   22.4325 C   0  0  0  0  0  0  0  0  0  0  0  0
  -21.4647  -11.8393   18.8480 C   0  0  0  0  0  0  0  0  0  0  0  0
  -21.5432  -10.8106   21.0326 C   0  0  0  0  0  0  0  0  0  0  0  0
  -24.8227  -23.5419   21.4776 C   0  0  0  0  0  0  0  0  0  0  0  0
  -20.4664   -8.1108   19.3055 C   0  0  0  0  0  0  0  0  0  0  0  0
  -20.3620   -6.7602   19.6378 C   0  0  0  0  0  0  0  0  0  0  0  0
  -25.9595  -25.5993   20.9349 C   0  0  0  0  0  0  0  0  0  0  0  0
  -30.5759  -20.0668   18.4373 C   0  0  0  0  0  0  0  0  0  0  0  0
  -18.5434   -7.2712   21.1440 C   0  0  0  0  0  0  0  0  0  0  0  0
  -23.3235  -12.2831   20.3261 C   0  0  0  0  0  0  0  0  0  0  0  0
  -24.7638  -14.2071   21.1813 C   0  0  0  0  0  0  0  0  0  0  0  0
  -18.4448  -30.8124   22.8763 C   0  0  0  0  0  0  0  0  0  0  0  0
  -24.2397  -25.5932   22.6384 C   0  0  0  0  0  0  0  0  0  0  0  0
  -18.9691  -29.5452   22.5572 C   0  0  0  0  0  0  0  0  0  0  0  0
  -25.2033  -26.2892   21.8947 C   0  0  0  0  0  0  0  0  0  0  0  0
  -31.4699  -18.9786   18.2214 C   0  0  0  0  0  0  0  0  0  0  0  0
  -20.8974  -11.0055   19.8117 C   0  0  0  0  0  0  0  0  0  0  0  0
  -25.7687  -24.2335   20.7266 C   0  0  0  0  0  0  0  0  0  0  0  0
  -19.6093   -9.0417   19.8926 C   0  0  0  0  0  0  0  0  0  0  0  0
  -19.4005   -6.3404   20.5570 C   0  0  0  0  0  0  0  0  0  0  0  0
  -18.6478   -8.6219   20.8118 C   0  0  0  0  0  0  0  0  0  0  0  0
  -24.5768  -12.9423   20.5922 C   0  0  0  0  0  0  0  0  0  0  0  0
  -31.0186  -17.8148   18.8039 C   0  0  0  0  0  0  0  0  0  0  0  0
  -26.1268  -14.3736   21.2117 C   0  0  0  0  0  0  0  0  0  0  0  0
  -29.4751  -19.6931   19.1765 C   0  0  0  0  0  0  0  0  0  0  0  0
  -23.7923  -15.1474   21.6585 C   0  0  0  0  0  0  0  0  0  0  0  0
  -31.6420  -16.4664   18.8164 C   0  0  0  0  0  0  0  0  0  0  0  0
  -22.3880  -28.1600   22.3445 C   0  0  0  0  0  0  0  0  0  0  0  0
  -24.9379  -29.6698   23.6638 C   0  0  0  0  0  0  0  0  0  0  0  0
  -28.0995  -21.7896   19.3920 C   0  0  0  0  0  0  0  0  0  0  0  0
  -28.2996  -29.7038   24.2508 C   0  0  0  0  0  0  0  0  0  0  0  0
  -31.1311  -14.0455   18.8562 C   0  0  0  0  0  0  0  0  0  0  0  0
  -19.1262  -32.0854   22.4407 C   0  0  0  0  0  0  0  0  0  0  0  0
  -23.4318  -26.3017   23.6910 C   0  0  0  0  0  0  0  0  0  0  0  0
  -25.4449  -27.7627   22.0917 C   0  0  0  0  0  0  0  0  0  0  0  0
  -20.5866  -31.8889   22.0420 C   0  0  0  0  0  0  0  0  0  0  0  0
  -29.8712  -11.0825   20.3159 C   0  0  0  0  0  0  0  0  0  0  0  0
  -20.7312  -30.6794   21.1239 C   0  0  0  0  0  0  0  0  0  0  0  0
  -28.3973  -11.4061   20.5752 C   0  0  0  0  0  0  0  0  0  0  0  0
  -30.3639  -11.6927   19.0045 C   0  0  0  0  0  0  0  0  0  0  0  0
  -28.6453  -13.4514   19.1125 C   0  0  0  0  0  0  0  0  0  0  0  0
  -20.2886  -29.3932   21.8321 C   0  0  1  0  0  0  0  0  0  0  0  0
  -23.3339  -27.8060   23.4570 C   0  0  1  0  0  0  0  0  0  0  0  0
  -28.1207  -12.9183   20.4555 C   0  0  1  0  0  0  0  0  0  0  0  0
  -32.7348  -19.0997   17.4565 C   0  0  0  0  0  0  0  0  0  0  0  0
  -30.0983  -31.0870   25.3227 C   0  0  0  0  0  0  0  0  0  0  0  0
  -24.8614  -31.5971   21.2996 C   0  0  0  0  0  0  0  0  0  0  0  0
  -27.1795  -32.3231   21.9059 C   0  0  0  0  0  0  0  0  0  0  0  0
  -25.3036  -32.6767   23.5117 C   0  0  0  0  0  0  0  0  0  0  0  0
  -28.9845  -27.5458   26.1569 C   0  0  0  0  0  0  0  0  0  0  0  0
  -26.7883  -22.1986   20.0371 C   0  0  0  0  0  0  0  0  0  1  0  0
  -26.1809  -30.3370   23.1264 C   0  0  1  0  0  0  0  0  0  0  0  0
  -29.0987  -29.9574   25.5164 C   0  0  2  0  0  0  0  0  0  0  0  0
  -25.8757  -31.7061   22.4556 C   0  0  0  0  0  0  0  0  0  0  0  0
  -25.7289  -12.3475   20.2713 N   0  0  0  0  0  0  0  0  0  0  0  0
  -26.6529  -13.2425   20.6601 N   0  0  0  0  0  0  0  0  0  0  0  0
  -24.6256  -28.4122   23.1283 N   0  0  0  0  0  0  0  0  0  0  0  0
  -30.0731  -13.1272   18.9740 N   0  0  0  0  0  0  0  0  0  0  0  0
  -26.9147  -15.3757   21.6560 N   0  0  0  0  0  0  0  0  0  0  0  0
  -22.4344  -14.8176   21.5512 N   0  0  0  0  0  0  0  0  0  0  0  0
  -28.3573  -20.4415   19.6159 N   0  0  0  0  0  0  0  0  0  0  0  0
  -30.7535  -15.3927   18.8794 N   0  0  0  0  0  0  0  0  0  0  0  0
  -21.3174  -28.9378   22.7424 N   0  0  0  0  0  0  0  0  0  0  0  0
  -27.1178  -30.4140   24.2421 N   0  0  0  0  0  0  0  0  0  0  0  0
  -29.8467  -28.7304   25.9112 N   0  3  0  0  0  0  0  0  0  0  0  0
  -24.1182  -16.2545   22.1501 O   0  0  0  0  0  0  0  0  0  0  0  0
  -32.8635  -16.3715   18.7328 O   0  0  0  0  0  0  0  0  0  0  0  0
  -22.6136  -27.7584   21.2089 O   0  0  0  0  0  0  0  0  0  0  0  0
  -24.2727  -30.2401   24.5320 O   0  0  0  0  0  0  0  0  0  0  0  0
  -28.7884  -22.5929   18.7718 O   0  0  0  0  0  0  0  0  0  0  0  0
  -28.6871  -28.9539   23.3575 O   0  0  0  0  0  0  0  0  0  0  0  0
  -32.3133  -13.6973   18.7759 O   0  0  0  0  0  0  0  0  0  0  0  0
  -19.7137  -10.3822   19.5611 O   0  0  0  0  0  0  0  0  0  0  0  0
  -26.5104  -23.5769   19.7935 O   0  0  0  0  0  0  0  0  0  1  0  0
  -19.2994   -5.0431   20.8748 F   0  0  0  0  0  0  0  0  0  0  0  0
  -17.8209   -9.5114   21.3781 F   0  0  0  0  0  0  0  0  0  0  0  0
  -29.5226  -18.0365   19.6071 S   0  0  0  0  0  0  0  0  0  0  0  0
  1  2  1  0  0  0  0
  1  5  2  0  0  0  0
  2  6  2  0  0  0  0
  3  8  2  0  0  0  0
  3 16  1  0  0  0  0
  4  9  1  0  0  0  0
  4 16  2  0  0  0  0
  5 18  1  0  0  0  0
  6 20  1  0  0  0  0
  7 10  2  0  0  0  0
  7 19  1  0  0  0  0
  8 23  1  0  0  0  0
  9 23  2  0  0  0  0
 10 24  1  0  0  0  0
 11 12  2  0  0  0  0
 11 25  1  0  0  0  0
 12 26  1  0  0  0  0
 13 21  1  0  0  0  0
 13 24  2  0  0  0  0
 14 22  1  0  0  0  0
 14 31  2  0  0  0  0
 15 26  2  0  0  0  0
 15 27  1  0  0  0  0
 16 28  1  0  0  0  0
 17 28  1  0  0  0  0
 17 30  2  0  0  0  0
 17 32  1  0  0  0  0
 18 20  2  0  0  0  0
 18 39  1  0  0  0  0
 19 21  2  0  0  0  0
 19 40  1  0  0  0  0
 20 48  1  0  0  0  0
 21 41  1  0  0  0  0
 22 29  2  0  0  0  0
 22 51  1  0  0  0  0
 23 79  1  0  0  0  0
 24 80  1  0  0  0  0
 25 27  2  0  0  0  0
 25 79  1  0  0  0  0
 26 81  1  0  0  0  0
 27 82  1  0  0  0  0
 28 61  2  0  0  0  0
 29 33  1  0  0  0  0
 29 83  1  0  0  0  0
 30 62  1  0  0  0  0
 30 65  1  0  0  0  0
 31 67  1  0  0  0  0
 31 83  1  0  0  0  0
 32 66  1  0  0  0  0
 32 72  2  0  0  0  0
 33 68  1  0  0  0  0
 33 73  2  0  0  0  0
 34 49  1  0  0  0  0
 34 69  1  0  0  0  0
 34 74  2  0  0  0  0
 35 58  1  0  0  0  0
 35 63  1  0  0  0  0
 35 75  2  0  0  0  0
 36 57  1  0  0  0  0
 36 67  1  0  0  0  0
 36 76  2  0  0  0  0
 37 59  1  0  0  0  0
 37 70  1  0  0  0  0
 37 77  2  0  0  0  0
 38 64  1  0  0  0  0
 38 68  1  0  0  0  0
 38 78  2  0  0  0  0
 39 42  1  0  0  0  0
 40 49  1  0  0  0  0
 41 63  1  0  0  0  0
 42 44  1  0  0  0  0
 43 45  1  0  0  0  0
 43 46  1  0  0  0  0
 44 48  1  0  0  0  0
 45 50  1  0  0  0  0
 46 64  1  0  0  0  0
 47 50  1  0  0  0  0
 47 64  1  0  0  0  0
 48 69  1  0  0  0  0
 49 63  1  0  0  0  0
 50 62  1  0  0  0  0
 52 59  1  0  0  0  0
 53 60  1  0  0  0  0
 54 60  1  0  0  0  0
 55 60  1  0  0  0  0
 56 71  1  0  0  0  0
 57 80  1  0  0  0  0
 58 60  1  0  0  0  0
 58 70  1  0  0  0  0
 59 71  1  0  0  0  0
 61 62  1  0  0  0  0
M  CHG  1  71   1
M  ISO  4  38 100  57 101  68 100  80 101
M  END
> <Batch ID>
0158

> <Smiles>
CNC(C)C(=O)NC(C(=O)N1Cc2cc([101O:1][101CH2:1]C(=O)Nc3cc(C)c(C(=O)[100NH:0][100C:0](=O)N4CCCC(n5nc(-c6ccc(Oc7ccc(F)cc7F)cc6)c(C(N)=O)c5N)C4)s3)ccc2CC1C(=O)NC1CCCc2ccccc21)C(C)(C)C

> <Shape>
0.241

> <Color>
0.083

> <Negative vol penalty>
0.000

$$$$

  -OEChem-04052303443D

 85 94  0     1  0  0  0  0  0999 V2000
  -25.4886   -7.3559   23.4145 C   0  0  0  0  0  0  0  0  0  0  0  0
  -26.3965   -7.9858   22.5693 C   0  0  0  0  0  0  0  0  0  0  0  0
  -19.7482  -28.1895   23.8195 C   0  0  0  0  0  0  0  0  0  0  0  0
  -20.9739  -26.9358   22.1572 C   0  0  0  0  0  0  0  0  0  0  0  0
  -24.1274   -7.6384   23.3084 C   0  0  0  0  0  0  0  0  0  0  0  0
  -25.9436   -8.8979   21.6167 C   0  0  0  0  0  0  0  0  0  0  0  0
  -28.2977  -15.7059   21.5873 C   0  0  0  0  0  0  0  0  0  0  0  0
  -18.5483  -27.8302   23.2057 C   0  0  0  0  0  0  0  0  0  0  0  0
  -19.7739  -26.5764   21.5435 C   0  0  0  0  0  0  0  0  0  0  0  0
  -28.8589  -16.9671   21.3860 C   0  0  0  0  0  0  0  0  0  0  0  0
  -17.2920  -24.3392   22.0487 C   0  0  0  0  0  0  0  0  0  0  0  0
  -17.1341  -23.0066   21.6682 C   0  0  0  0  0  0  0  0  0  0  0  0
  -27.3371  -17.3628   19.5488 C   0  0  0  0  0  0  0  0  0  0  0  0
  -28.6433  -26.1650   20.2058 C   0  0  0  0  0  0  0  0  0  0  0  0
  -16.8579  -23.6959   19.3691 C   0  0  0  0  0  0  0  0  0  0  0  0
  -30.1293  -26.1384   18.3490 C   0  0  0  0  0  0  0  0  0  0  0  0
  -29.5857  -28.1548   19.3066 C   0  0  0  0  0  0  0  0  0  0  0  0
  -20.9610  -27.7423   23.2952 C   0  0  0  0  0  0  0  0  0  0  0  0
  -22.5986  -27.8321   25.2491 C   0  0  0  0  0  0  0  0  0  0  0  0
  -23.6586   -8.5616   22.3605 C   0  0  0  0  0  0  0  0  0  0  0  0
  -27.2425  -15.2740   20.7791 C   0  0  0  0  0  0  0  0  0  0  0  0
  -24.5747   -9.1920   21.4969 C   0  0  0  0  0  0  0  0  0  0  0  0
  -26.7626  -16.1055   19.7538 C   0  0  0  0  0  0  0  0  0  0  0  0
  -29.3348  -25.4386   19.2428 C   0  0  0  0  0  0  0  0  0  0  0  0
  -28.7656  -27.5495   20.2451 C   0  0  0  0  0  0  0  0  0  0  0  0
  -18.5611  -27.0236   22.0678 C   0  0  0  0  0  0  0  0  0  0  0  0
  -28.3799  -17.7934   20.3691 C   0  0  0  0  0  0  0  0  0  0  0  0
  -17.2327  -25.3502   21.0895 C   0  0  0  0  0  0  0  0  0  0  0  0
  -16.9171  -22.6849   20.3284 C   0  0  0  0  0  0  0  0  0  0  0  0
  -17.0157  -25.0285   19.7497 C   0  0  0  0  0  0  0  0  0  0  0  0
  -22.2009  -28.1136   23.9283 C   0  0  0  0  0  0  0  0  0  0  0  0
  -23.8468  -28.3948   25.3591 C   0  0  0  0  0  0  0  0  0  0  0  0
  -21.9022  -27.1252   26.2839 C   0  0  0  0  0  0  0  0  0  0  0  0
  -24.7803  -12.5570   19.9845 C   0  0  0  0  0  0  0  0  0  0  0  0
  -23.2800  -15.2208   19.7322 C   0  0  0  0  0  0  0  0  0  0  0  0
  -21.8915  -18.3275   19.9729 C   0  0  0  0  0  0  0  0  0  0  0  0
  -28.1011  -29.7022   21.3721 C   0  0  0  0  0  0  0  0  0  0  0  0
  -22.1732   -8.7992   22.2515 C   0  0  0  0  0  0  0  0  0  0  0  0
  -26.6486  -13.8988   20.9202 C   0  0  0  0  0  0  0  0  0  0  0  0
  -25.6490  -15.5853   18.8865 C   0  0  0  0  0  0  0  0  0  0  0  0
  -21.8137  -10.0584   21.4671 C   0  0  0  0  0  0  0  0  0  0  0  0
  -26.5105  -31.9695   23.6097 C   0  0  0  0  0  0  0  0  0  0  0  0
  -22.6212  -10.1313   20.1750 C   0  0  0  0  0  0  0  0  0  0  0  0
  -25.2642  -31.2099   24.0703 C   0  0  0  0  0  0  0  0  0  0  0  0
  -28.9538  -21.9197   20.3991 C   0  0  0  0  0  0  0  0  0  0  0  0
  -28.6653  -22.0091   17.9067 C   0  0  0  0  0  0  0  0  0  0  0  0
  -26.8317  -31.6951   22.1416 C   0  0  0  0  0  0  0  0  0  0  0  0
  -29.6508  -23.2790   20.3592 C   0  0  0  0  0  0  0  0  0  0  0  0
  -29.3576  -23.3722   17.8812 C   0  0  0  0  0  0  0  0  0  0  0  0
  -25.6886  -29.5152   22.2442 C   0  0  0  0  0  0  0  0  0  0  0  0
  -24.1246  -10.2059   20.4676 C   0  0  1  0  0  0  0  0  0  0  0  0
  -25.1368  -13.8620   20.6336 C   0  0  1  0  0  0  0  0  0  0  0  0
  -25.3627  -29.7090   23.7341 C   0  0  2  0  0  0  0  0  0  0  0  0
  -29.1247  -21.1558   19.0872 C   0  0  0  0  0  0  0  0  0  0  0  0
  -19.7093  -19.5362   19.7004 C   0  0  0  0  0  0  0  0  0  0  0  0
  -23.5854  -15.0812   16.7006 C   0  0  0  0  0  0  0  0  0  0  0  0
  -22.0140  -17.0222   16.5239 C   0  0  0  0  0  0  0  0  0  0  0  0
  -21.2327  -14.8742   17.5230 C   0  0  0  0  0  0  0  0  0  0  0  0
  -21.8767  -19.1795   22.8071 C   0  0  0  0  0  0  0  0  0  0  0  0
  -28.3932  -19.8198   19.1238 C   0  0  0  0  0  0  0  0  0  1  0  0
  -22.8302  -16.3383   18.8255 C   0  0  1  0  0  0  0  0  0  0  0  0
  -20.6355  -18.8185   20.6698 C   0  0  2  0  0  0  0  0  0  0  0  0
  -22.4394  -15.8310   17.4087 C   0  0  0  0  0  0  0  0  0  0  0  0
  -30.2731  -27.4826   18.3561 N   0  0  0  0  0  0  0  0  0  0  0  0
  -23.1217  -28.8018   23.2481 N   0  0  0  0  0  0  0  0  0  0  0  0
  -24.1104  -28.9575   24.1450 N   0  0  0  0  0  0  0  0  0  0  0  0
  -29.2311  -24.0436   19.1781 N   0  0  0  0  0  0  0  0  0  0  0  0
  -24.6434  -14.9027   19.7158 N   0  0  0  0  0  0  0  0  0  0  0  0
  -26.9137  -30.2532   21.8987 N   0  0  0  0  0  0  0  0  0  0  0  0
  -24.7335  -28.4582   26.3751 N   0  0  0  0  0  0  0  0  0  0  0  0
  -22.0871  -25.7398   26.3876 N   0  0  0  0  0  0  0  0  0  0  0  0
  -28.0736  -28.3170   21.2145 N   0  0  0  0  0  0  0  0  0  0  0  0
  -24.4937  -11.5435   20.8789 N   0  0  0  0  0  0  0  0  0  0  0  0
  -21.7556  -17.0286   19.5305 N   0  0  0  0  0  0  0  0  0  0  0  0
  -20.9878  -19.7615   21.7687 N   0  3  0  0  0  0  0  0  0  0  0  0
  -21.1257  -27.7024   27.0823 O   0  0  0  0  0  0  0  0  0  0  0  0
  -24.7645  -12.4747   18.7619 O   0  0  0  0  0  0  0  0  0  0  0  0
  -22.4463  -14.6401   20.4330 O   0  0  0  0  0  0  0  0  0  0  0  0
  -22.8918  -19.0275   19.8315 O   0  0  0  0  0  0  0  0  0  0  0  0
  -29.0807  -30.4041   21.1079 O   0  0  0  0  0  0  0  0  0  0  0  0
  -17.3904  -26.6726   21.4688 O   0  0  0  0  0  0  0  0  0  0  0  0
  -28.9293  -19.0252   20.1810 O   0  0  0  0  0  0  0  0  0  1  0  0
  -16.7671  -21.4050   19.9629 F   0  0  0  0  0  0  0  0  0  0  0  0
  -16.9590  -25.9953   18.8235 F   0  0  0  0  0  0  0  0  0  0  0  0
  -30.4541  -20.8874   18.9235 F   0  0  0  0  0  0  0  0  0  0  0  0
  1  2  1  0  0  0  0
  1  5  2  0  0  0  0
  2  6  2  0  0  0  0
  3  8  2  0  0  0  0
  3 18  1  0  0  0  0
  4  9  1  0  0  0  0
  4 18  2  0  0  0  0
  5 20  1  0  0  0  0
  6 22  1  0  0  0  0
  7 10  2  0  0  0  0
  7 21  1  0  0  0  0
  8 26  1  0  0  0  0
  9 26  2  0  0  0  0
 10 27  1  0  0  0  0
 11 12  2  0  0  0  0
 11 28  1  0  0  0  0
 12 29  1  0  0  0  0
 13 23  1  0  0  0  0
 13 27  2  0  0  0  0
 14 24  2  0  0  0  0
 14 25  1  0  0  0  0
 15 29  2  0  0  0  0
 15 30  1  0  0  0  0
 16 24  1  0  0  0  0
 16 64  2  0  0  0  0
 17 25  2  0  0  0  0
 17 64  1  0  0  0  0
 18 31  1  0  0  0  0
 19 31  1  0  0  0  0
 19 32  2  0  0  0  0
 19 33  1  0  0  0  0
 20 22  2  0  0  0  0
 20 38  1  0  0  0  0
 21 23  2  0  0  0  0
 21 39  1  0  0  0  0
 22 51  1  0  0  0  0
 23 40  1  0  0  0  0
 24 67  1  0  0  0  0
 25 72  1  0  0  0  0
 26 81  1  0  0  0  0
 27 82  1  0  0  0  0
 28 30  2  0  0  0  0
 28 81  1  0  0  0  0
 29 83  1  0  0  0  0
 30 84  1  0  0  0  0
 31 65  2  0  0  0  0
 32 66  1  0  0  0  0
 32 70  1  0  0  0  0
 33 71  1  0  0  0  0
 33 76  2  0  0  0  0
 34 52  1  0  0  0  0
 34 73  1  0  0  0  0
 34 77  2  0  0  0  0
 35 61  1  0  0  0  0
 35 68  1  0  0  0  0
 35 78  2  0  0  0  0
 36 62  1  0  0  0  0
 36 74  1  0  0  0  0
 36 79  2  0  0  0  0
 37 69  1  0  0  0  0
 37 72  1  0  0  0  0
 37 80  2  0  0  0  0
 38 41  1  0  0  0  0
 39 52  1  0  0  0  0
 40 68  1  0  0  0  0
 41 43  1  0  0  0  0
 42 44  1  0  0  0  0
 42 47  1  0  0  0  0
 43 51  1  0  0  0  0
 44 53  1  0  0  0  0
 45 48  1  0  0  0  0
 45 54  1  0  0  0  0
 46 49  1  0  0  0  0
 46 54  1  0  0  0  0
 47 69  1  0  0  0  0
 48 67  1  0  0  0  0
 49 67  1  0  0  0  0
 50 53  1  0  0  0  0
 50 69  1  0  0  0  0
 51 73  1  0  0  0  0
 52 68  1  0  0  0  0
 53 66  1  0  0  0  0
 54 60  1  0  0  0  0
 54 85  1  0  0  0  0
 55 62  1  0  0  0  0
 56 63  1  0  0  0  0
 57 63  1  0  0  0  0
 58 63  1  0  0  0  0
 59 75  1  0  0  0  0
 60 82  1  0  0  0  0
 61 63  1  0  0  0  0
 61 74  1  0  0  0  0
 62 75  1  0  0  0  0
 65 66  1  0  0  0  0
M  CHG  1  75   1
M  ISO  4  37 100  60 101  72 100  82 101
M  END
> <Batch ID>
0158

> <Smiles>
CNC(C)C(=O)NC(C(=O)N1Cc2cc([101O:1][101CH2:1]C3(F)CCN(c4cncc([100NH:0][100C:0](=O)N5CCCC(n6nc(-c7ccc(Oc8ccc(F)cc8F)cc7)c(C(N)=O)c6N)C5)c4)CC3)ccc2CC1C(=O)NC1CCCc2ccccc21)C(C)(C)C

> <Shape>
0.266

> <Color>
0.071

> <Negative vol penalty>
0.000

$$$$

  -OEChem-04052303443D

 82 90  0     1  0  0  0  0  0999 V2000
  -20.4068  -29.4548   15.1745 C   0  0  0  0  0  0  0  0  0  0  0  0
  -21.7110  -29.1210   15.5254 C   0  0  0  0  0  0  0  0  0  0  0  0
  -24.4263  -10.2012   21.6908 C   0  0  0  0  0  0  0  0  0  0  0  0
  -24.6492  -11.3487   23.8052 C   0  0  0  0  0  0  0  0  0  0  0  0
  -19.7639  -30.5145   15.8129 C   0  0  0  0  0  0  0  0  0  0  0  0
  -22.3734  -29.8474   16.5143 C   0  0  0  0  0  0  0  0  0  0  0  0
  -24.8372  -26.8721   19.7888 C   0  0  0  0  0  0  0  0  0  0  0  0
  -24.0186   -9.0473   22.3600 C   0  0  0  0  0  0  0  0  0  0  0  0
  -24.2414  -10.1948   24.4744 C   0  0  0  0  0  0  0  0  0  0  0  0
  -26.0569  -26.3404   19.3726 C   0  0  0  0  0  0  0  0  0  0  0  0
  -21.1976   -7.8722   23.8070 C   0  0  0  0  0  0  0  0  0  0  0  0
  -20.0950   -7.1843   23.3004 C   0  0  0  0  0  0  0  0  0  0  0  0
  -27.2196  -28.0475   20.6187 C   0  0  0  0  0  0  0  0  0  0  0  0
  -30.0476  -20.4435   20.5452 C   0  0  0  0  0  0  0  0  0  0  0  0
  -21.4662   -5.2208   22.9820 C   0  0  0  0  0  0  0  0  0  0  0  0
  -27.8413  -20.4384   21.2763 C   0  0  0  0  0  0  0  0  0  0  0  0
  -24.7416  -11.3520   22.4134 C   0  0  0  0  0  0  0  0  0  0  0  0
  -24.3442  -13.5844   21.2447 C   0  0  0  0  0  0  0  0  0  0  0  0
  -20.4154  -31.2481   16.8169 C   0  0  0  0  0  0  0  0  0  0  0  0
  -24.7993  -28.0041   20.6157 C   0  0  0  0  0  0  0  0  0  0  0  0
  -21.7391  -30.9188   17.1658 C   0  0  0  0  0  0  0  0  0  0  0  0
  -25.9981  -28.5902   21.0461 C   0  0  0  0  0  0  0  0  0  0  0  0
  -28.9330  -19.6595   20.9615 C   0  0  0  0  0  0  0  0  0  0  0  0
  -23.9262   -9.0441   23.7518 C   0  0  0  0  0  0  0  0  0  0  0  0
  -27.2483  -26.9298   19.7852 C   0  0  0  0  0  0  0  0  0  0  0  0
  -22.4346   -7.2343   23.9011 C   0  0  0  0  0  0  0  0  0  0  0  0
  -20.2293   -5.8586   22.8879 C   0  0  0  0  0  0  0  0  0  0  0  0
  -22.5689   -5.9086   23.4887 C   0  0  0  0  0  0  0  0  0  0  0  0
  -25.1634  -12.5441   21.7227 C   0  0  0  0  0  0  0  0  0  0  0  0
  -29.7651  -21.7918   20.5575 C   0  0  0  0  0  0  0  0  0  0  0  0
  -25.2190  -14.4741   20.6706 C   0  0  0  0  0  0  0  0  0  0  0  0
  -22.9199  -13.7333   21.3136 C   0  0  0  0  0  0  0  0  0  0  0  0
  -30.6469  -22.9311   20.1978 C   0  0  0  0  0  0  0  0  0  0  0  0
  -23.6443  -30.9518   20.3316 C   0  0  0  0  0  0  0  0  0  0  0  0
  -24.5235  -31.1778   23.4458 C   0  0  0  0  0  0  0  0  0  0  0  0
  -30.4986  -25.4458   20.0591 C   0  0  0  0  0  0  0  0  0  0  0  0
  -26.5159  -30.0623   25.9820 C   0  0  0  0  0  0  0  0  0  0  0  0
  -29.9717  -17.3739   20.7533 C   0  0  0  0  0  0  0  0  0  0  0  0
  -19.6963  -32.4154   17.4456 C   0  0  0  0  0  0  0  0  0  0  0  0
  -23.4758  -28.5495   21.0776 C   0  0  0  0  0  0  0  0  0  0  0  0
  -26.0121  -29.7946   21.9504 C   0  0  0  0  0  0  0  0  0  0  0  0
  -20.3359  -32.8963   18.7456 C   0  0  0  0  0  0  0  0  0  0  0  0
  -30.1409  -14.0163   19.5806 C   0  0  0  0  0  0  0  0  0  0  0  0
  -21.8472  -33.0233   18.5819 C   0  0  0  0  0  0  0  0  0  0  0  0
  -28.7936  -13.4196   19.9941 C   0  0  0  0  0  0  0  0  0  0  0  0
  -30.6735  -14.9934   20.6272 C   0  0  0  0  0  0  0  0  0  0  0  0
  -28.3915  -15.4604   21.4294 C   0  0  0  0  0  0  0  0  0  0  0  0
  -22.4822  -31.6672   18.2511 C   0  0  1  0  0  0  0  0  0  0  0  0
  -23.5479  -30.0134   21.5011 C   0  0  1  0  0  0  0  0  0  0  0  0
  -27.7837  -14.5193   20.3765 C   0  0  2  0  0  0  0  0  0  0  0  0
  -27.0327  -30.4659   28.4043 C   0  0  0  0  0  0  0  0  0  0  0  0
  -26.0940  -33.6825   22.6909 C   0  0  0  0  0  0  0  0  0  0  0  0
  -27.3170  -33.4869   24.8667 C   0  0  0  0  0  0  0  0  0  0  0  0
  -24.8482  -33.8445   24.8533 C   0  0  0  0  0  0  0  0  0  0  0  0
  -25.7039  -27.3170   26.7325 C   0  0  0  0  0  0  0  0  0  0  0  0
  -29.5498  -26.5688   20.2636 C   0  0  0  0  0  0  0  0  0  1  0  0
  -25.7782  -31.5935   24.1750 C   0  0  1  0  0  0  0  0  0  0  0  0
  -26.1988  -29.6687   27.4134 C   0  0  2  0  0  0  0  0  0  0  0  0
  -26.0094  -33.1303   24.1279 C   0  0  0  0  0  0  0  0  0  0  0  0
  -26.4591  -12.7522   21.4738 N   0  0  0  0  0  0  0  0  0  0  0  0
  -26.4606  -13.9335   20.8330 N   0  0  0  0  0  0  0  0  0  0  0  0
  -24.6925  -30.2948   22.3699 N   0  0  0  0  0  0  0  0  0  0  0  0
  -29.6646  -16.0090   20.9364 N   0  0  0  0  0  0  0  0  0  0  0  0
  -25.0397  -15.6583   20.0477 N   0  0  0  0  0  0  0  0  0  0  0  0
  -22.1722  -12.7258   21.9383 N   0  0  0  0  0  0  0  0  0  0  0  0
  -31.7246  -25.8029   19.6903 N   0  0  0  0  0  0  0  0  0  0  0  0
  -28.9238  -18.2453   21.0488 N   0  0  0  0  0  0  0  0  0  0  0  0
  -22.5896  -30.8550   19.4441 N   0  0  0  0  0  0  0  0  0  0  0  0
  -25.6670  -31.0471   25.5231 N   0  0  0  0  0  0  0  0  0  0  0  0
  -31.8550  -22.7241   19.8111 N   0  3  0  0  0  0  0  0  0  0  0  0
  -30.0045  -24.2263   20.2972 N   0  3  0  0  0  0  0  0  0  0  0  0
  -26.4751  -28.2196   27.6255 N   0  3  0  0  0  0  0  0  0  0  0  0
  -22.3262  -14.7223   20.8207 O   0  0  0  0  0  0  0  0  0  0  0  0
  -24.6038  -31.7088   20.2418 O   0  0  0  0  0  0  0  0  0  0  0  0
  -23.4328  -31.6146   23.8216 O   0  0  0  0  0  0  0  0  0  0  0  0
  -27.4281  -29.5502   25.3369 O   0  0  0  0  0  0  0  0  0  0  0  0
  -31.0735  -17.7410   20.3371 O   0  0  0  0  0  0  0  0  0  0  0  0
  -23.5281   -7.9183   24.4051 O   0  0  0  0  0  0  0  0  0  0  0  0
  -28.4402  -26.4131   19.3799 O   0  0  0  0  0  0  0  0  0  1  0  0
  -19.1700   -5.1977   22.4028 F   0  0  0  0  0  0  0  0  0  0  0  0
  -23.7544   -5.2902   23.5778 F   0  0  0  0  0  0  0  0  0  0  0  0
  -28.1619  -22.1077   21.0696 S   0  0  0  0  0  0  0  0  0  0  0  0
  1  2  1  0  0  0  0
  1  5  2  0  0  0  0
  2  6  2  0  0  0  0
  3  8  2  0  0  0  0
  3 17  1  0  0  0  0
  4  9  1  0  0  0  0
  4 17  2  0  0  0  0
  5 19  1  0  0  0  0
  6 21  1  0  0  0  0
  7 10  2  0  0  0  0
  7 20  1  0  0  0  0
  8 24  1  0  0  0  0
  9 24  2  0  0  0  0
 10 25  1  0  0  0  0
 11 12  2  0  0  0  0
 11 26  1  0  0  0  0
 12 27  1  0  0  0  0
 13 22  1  0  0  0  0
 13 25  2  0  0  0  0
 14 23  1  0  0  0  0
 14 30  2  0  0  0  0
 15 27  2  0  0  0  0
 15 28  1  0  0  0  0
 16 23  2  0  0  0  0
 16 82  1  0  0  0  0
 17 29  1  0  0  0  0
 18 29  1  0  0  0  0
 18 31  2  0  0  0  0
 18 32  1  0  0  0  0
 19 21  2  0  0  0  0
 19 39  1  0  0  0  0
 20 22  2  0  0  0  0
 20 40  1  0  0  0  0
 21 48  1  0  0  0  0
 22 41  1  0  0  0  0
 23 67  1  0  0  0  0
 24 78  1  0  0  0  0
 25 79  1  0  0  0  0
 26 28  2  0  0  0  0
 26 78  1  0  0  0  0
 27 80  1  0  0  0  0
 28 81  1  0  0  0  0
 29 60  2  0  0  0  0
 30 33  1  0  0  0  0
 30 82  1  0  0  0  0
 31 61  1  0  0  0  0
 31 64  1  0  0  0  0
 32 65  1  0  0  0  0
 32 73  2  0  0  0  0
 33 70  2  0  0  0  0
 33 71  1  0  0  0  0
 34 49  1  0  0  0  0
 34 68  1  0  0  0  0
 34 74  2  0  0  0  0
 35 57  1  0  0  0  0
 35 62  1  0  0  0  0
 35 75  2  0  0  0  0
 36 56  1  0  0  0  0
 36 66  1  0  0  0  0
 36 71  2  0  0  0  0
 37 58  1  0  0  0  0
 37 69  1  0  0  0  0
 37 76  2  0  0  0  0
 38 63  1  0  0  0  0
 38 67  1  0  0  0  0
 38 77  2  0  0  0  0
 39 42  1  0  0  0  0
 40 49  1  0  0  0  0
 41 62  1  0  0  0  0
 42 44  1  0  0  0  0
 43 45  1  0  0  0  0
 43 46  1  0  0  0  0
 44 48  1  0  0  0  0
 45 50  1  0  0  0  0
 46 63  1  0  0  0  0
 47 50  1  0  0  0  0
 47 63  1  0  0  0  0
 48 68  1  0  0  0  0
 49 62  1  0  0  0  0
 50 61  1  0  0  0  0
 51 58  1  0  0  0  0
 52 59  1  0  0  0  0
 53 59  1  0  0  0  0
 54 59  1  0  0  0  0
 55 72  1  0  0  0  0
 56 79  1  0  0  0  0
 57 59  1  0  0  0  0
 57 69  1  0  0  0  0
 58 72  1  0  0  0  0
 60 61  1  0  0  0  0
M  CHG  3  70   1  71   1  72   1
M  ISO  4  38 100  56 101  67 100  79 101
M  END
> <Batch ID>
0158

> <Smiles>
CNC(C)C(=O)NC(C(=O)N1Cc2cc([101O:1][101CH2:1]C(=N)NC(=N)c3cc([100NH:0][100C:0](=O)N4CCCC(n5nc(-c6ccc(Oc7ccc(F)cc7F)cc6)c(C(N)=O)c5N)C4)cs3)ccc2CC1C(=O)NC1CCCc2ccccc21)C(C)(C)C

> <Shape>
0.328

> <Color>
0.125

> <Negative vol penalty>
0.000

$$$$

  -OEChem-04052303443D

 86 95  0     1  0  0  0  0  0999 V2000
  -17.1497  -28.8032   24.9264 C   0  0  0  0  0  0  0  0  0  0  0  0
  -17.9181  -28.0079   25.7706 C   0  0  0  0  0  0  0  0  0  0  0  0
  -28.9045  -21.0404   20.8963 C   0  0  0  0  0  0  0  0  0  0  0  0
  -29.9577  -20.1198   18.9264 C   0  0  0  0  0  0  0  0  0  0  0  0
  -17.4201  -28.8304   23.5589 C   0  0  0  0  0  0  0  0  0  0  0  0
  -18.9567  -27.2385   25.2474 C   0  0  0  0  0  0  0  0  0  0  0  0
  -25.4481  -24.7292   26.9451 C   0  0  0  0  0  0  0  0  0  0  0  0
  -28.6950  -22.2433   20.2221 C   0  0  0  0  0  0  0  0  0  0  0  0
  -29.7481  -21.3228   18.2522 C   0  0  0  0  0  0  0  0  0  0  0  0
  -26.1647  -23.5339   26.9831 C   0  0  0  0  0  0  0  0  0  0  0  0
  -27.1905  -22.8924   16.6980 C   0  0  0  0  0  0  0  0  0  0  0  0
  -26.6979  -22.8258   15.3947 C   0  0  0  0  0  0  0  0  0  0  0  0
  -26.5909  -23.7211   24.6162 C   0  0  0  0  0  0  0  0  0  0  0  0
  -28.6728  -23.9617   14.5903 C   0  0  0  0  0  0  0  0  0  0  0  0
  -26.6432  -13.6737   23.7938 C   0  0  0  0  0  0  0  0  0  0  0  0
  -29.5359  -19.9786   20.2484 C   0  0  0  0  0  0  0  0  0  0  0  0
  -30.4993  -18.5403   22.1222 C   0  0  0  0  0  0  0  0  0  0  0  0
  -18.4688  -28.0684   23.0202 C   0  0  0  0  0  0  0  0  0  0  0  0
  -25.2880  -25.4251   25.7382 C   0  0  0  0  0  0  0  0  0  0  0  0
  -19.2406  -27.2545   23.8712 C   0  0  0  0  0  0  0  0  0  0  0  0
  -25.8740  -24.9264   24.5660 C   0  0  0  0  0  0  0  0  0  0  0  0
  -29.1167  -22.3846   18.9001 C   0  0  0  0  0  0  0  0  0  0  0  0
  -26.7338  -23.0282   25.8180 C   0  0  0  0  0  0  0  0  0  0  0  0
  -28.4242  -23.4936   16.9475 C   0  0  0  0  0  0  0  0  0  0  0  0
  -27.4391  -23.3604   14.3409 C   0  0  0  0  0  0  0  0  0  0  0  0
  -29.1653  -24.0282   15.8937 C   0  0  0  0  0  0  0  0  0  0  0  0
  -29.7532  -18.7359   20.9445 C   0  0  0  0  0  0  0  0  0  0  0  0
  -26.0937  -14.4730   22.8134 C   0  0  0  0  0  0  0  0  0  0  0  0
  -30.3988  -17.1936   22.3727 C   0  0  0  0  0  0  0  0  0  0  0  0
  -26.9147  -16.0474   24.1007 C   0  0  0  0  0  0  0  0  0  0  0  0
  -26.9925  -20.8242   25.0790 C   0  0  0  0  0  0  0  0  0  1  0  0
  -31.2188  -19.4910   22.9186 C   0  0  0  0  0  0  0  0  0  0  0  0
  -27.6025  -19.6335   25.0355 C   0  0  0  0  0  0  0  0  0  0  0  0
  -27.0400  -18.5598   24.1530 C   0  0  0  0  0  0  0  0  0  0  0  0
  -26.2844  -13.1125   20.7823 C   0  0  0  0  0  0  0  0  0  0  0  0
  -22.8006  -26.2679   23.9477 C   0  0  0  0  0  0  0  0  0  0  0  0
  -25.0598  -27.8559   22.2458 C   0  0  0  0  0  0  0  0  0  0  0  0
  -28.4198  -27.2212   21.0947 C   0  0  0  0  0  0  0  0  0  0  0  0
  -18.6929  -28.0939   21.5289 C   0  0  0  0  0  0  0  0  0  0  0  0
  -24.5349  -26.7269   25.7190 C   0  0  0  0  0  0  0  0  0  0  0  0
  -25.7485  -25.6456   23.2486 C   0  0  0  0  0  0  0  0  0  0  0  0
  -20.0506  -27.5377   21.1075 C   0  0  0  0  0  0  0  0  0  0  0  0
  -23.7028  -14.4596   19.8350 C   0  0  0  0  0  0  0  0  0  0  0  0
  -23.2271  -13.2386   20.6122 C   0  0  0  0  0  0  0  0  0  0  0  0
  -29.8120  -12.9995   20.1628 C   0  0  0  0  0  0  0  0  0  0  0  0
  -20.3351  -26.2226   21.8260 C   0  0  0  0  0  0  0  0  0  0  0  0
  -30.2597  -14.4455   20.3722 C   0  0  0  0  0  0  0  0  0  0  0  0
  -24.7943  -15.1069   20.6836 C   0  0  0  0  0  0  0  0  0  0  0  0
  -24.0561  -13.1985   21.8937 C   0  0  0  0  0  0  0  0  0  0  0  0
  -28.4183  -12.9303   19.5463 C   0  0  0  0  0  0  0  0  0  0  0  0
  -27.8220  -15.1229   20.5254 C   0  0  0  0  0  0  0  0  0  0  0  0
  -20.3916  -26.4249   23.3450 C   0  0  1  0  0  0  0  0  0  0  0  0
  -23.9988  -27.0867   24.3368 C   0  0  1  0  0  0  0  0  0  0  0  0
  -29.2125  -15.2377   21.1747 C   0  0  2  0  0  0  0  0  0  0  0  0
  -25.3458  -13.9818   21.5807 C   0  0  0  0  0  0  0  0  0  0  0  0
  -30.2928  -28.8078   20.5733 C   0  0  0  0  0  0  0  0  0  0  0  0
  -24.0188  -27.6873   19.3826 C   0  0  0  0  0  0  0  0  0  0  0  0
  -26.3937  -27.7237   18.5910 C   0  0  0  0  0  0  0  0  0  0  0  0
  -25.4705  -29.6694   19.8498 C   0  0  0  0  0  0  0  0  0  0  0  0
  -30.2587  -25.8470   22.9625 C   0  0  0  0  0  0  0  0  0  0  0  0
  -25.9564  -27.5149   21.0802 C   0  0  1  0  0  0  0  0  0  0  0  0
  -29.6936  -27.8680   21.6080 C   0  0  2  0  0  0  0  0  0  0  0  0
  -25.4510  -28.1289   19.7442 C   0  0  0  0  0  0  0  0  0  0  0  0
  -29.2183  -17.6039   20.4790 N   0  0  0  0  0  0  0  0  0  0  0  0
  -26.2481  -15.8345   22.9880 N   0  0  0  0  0  0  0  0  0  0  0  0
  -29.6289  -16.6842   21.3687 N   0  0  0  0  0  0  0  0  0  0  0  0
  -27.4574  -13.7135   20.3251 N   0  0  0  0  0  0  0  0  0  0  0  0
  -24.9972  -26.9114   23.2801 N   0  0  0  0  0  0  0  0  0  0  0  0
  -30.8948  -16.4073   23.3515 N   0  0  0  0  0  0  0  0  0  0  0  0
  -32.5656  -19.7332   22.6155 N   0  0  0  0  0  0  0  0  0  0  0  0
  -27.2922  -17.2922   24.6596 N   0  0  0  0  0  0  0  0  0  0  0  0
  -21.6570  -27.0124   23.7299 N   0  0  0  0  0  0  0  0  0  0  0  0
  -27.2999  -27.9372   21.4614 N   0  0  0  0  0  0  0  0  0  0  0  0
  -30.7065  -26.8262   21.9390 N   0  3  0  0  0  0  0  0  0  0  0  0
  -30.6878  -20.0953   23.8810 O   0  0  0  0  0  0  0  0  0  0  0  0
  -26.4399  -18.8422   23.1214 O   0  0  0  0  0  0  0  0  0  0  0  0
  -25.9838  -11.9341   20.5748 O   0  0  0  0  0  0  0  0  0  0  0  0
  -22.9061  -25.0509   23.8507 O   0  0  0  0  0  0  0  0  0  0  0  0
  -24.4433  -28.9244   22.2422 O   0  0  0  0  0  0  0  0  0  0  0  0
  -28.4186  -26.1865   20.4315 O   0  0  0  0  0  0  0  0  0  0  0  0
  -28.7349  -19.3524   25.7725 O   0  0  0  0  0  0  0  0  0  0  0  0
  -28.9122  -23.5582   18.2418 O   0  0  0  0  0  0  0  0  0  0  0  0
  -27.4331  -21.8613   25.8522 O   0  0  0  0  0  0  0  0  0  1  0  0
  -26.9667  -23.2951   13.0892 F   0  0  0  0  0  0  0  0  0  0  0  0
  -30.3517  -24.6060   16.1270 F   0  0  0  0  0  0  0  0  0  0  0  0
  -27.3876  -14.6558   24.9866 S   0  0  0  0  0  0  0  0  0  0  0  0
  1  2  1  0  0  0  0
  1  5  2  0  0  0  0
  2  6  2  0  0  0  0
  3  8  2  0  0  0  0
  3 16  1  0  0  0  0
  4  9  1  0  0  0  0
  4 16  2  0  0  0  0
  5 18  1  0  0  0  0
  6 20  1  0  0  0  0
  7 10  2  0  0  0  0
  7 19  1  0  0  0  0
  8 22  1  0  0  0  0
  9 22  2  0  0  0  0
 10 23  1  0  0  0  0
 11 12  2  0  0  0  0
 11 24  1  0  0  0  0
 12 25  1  0  0  0  0
 13 21  1  0  0  0  0
 13 23  2  0  0  0  0
 14 25  2  0  0  0  0
 14 26  1  0  0  0  0
 15 28  2  0  0  0  0
 15 86  1  0  0  0  0
 16 27  1  0  0  0  0
 17 27  1  0  0  0  0
 17 29  2  0  0  0  0
 17 32  1  0  0  0  0
 18 20  2  0  0  0  0
 18 39  1  0  0  0  0
 19 21  2  0  0  0  0
 19 40  1  0  0  0  0
 20 52  1  0  0  0  0
 21 41  1  0  0  0  0
 22 82  1  0  0  0  0
 23 83  1  0  0  0  0
 24 26  2  0  0  0  0
 24 82  1  0  0  0  0
 25 84  1  0  0  0  0
 26 85  1  0  0  0  0
 27 64  2  0  0  0  0
 28 55  1  0  0  0  0
 28 65  1  0  0  0  0
 29 66  1  0  0  0  0
 29 69  1  0  0  0  0
 30 65  2  0  0  0  0
 30 71  1  0  0  0  0
 30 86  1  0  0  0  0
 31 33  2  0  0  0  0
 31 83  1  0  0  0  0
 32 70  1  0  0  0  0
 32 75  2  0  0  0  0
 33 34  1  0  0  0  0
 33 81  1  0  0  0  0
 34 71  1  0  0  0  0
 34 76  2  0  0  0  0
 35 55  1  0  0  0  0
 35 67  1  0  0  0  0
 35 77  2  0  0  0  0
 36 53  1  0  0  0  0
 36 72  1  0  0  0  0
 36 78  2  0  0  0  0
 37 61  1  0  0  0  0
 37 68  1  0  0  0  0
 37 79  2  0  0  0  0
 38 62  1  0  0  0  0
 38 73  1  0  0  0  0
 38 80  2  0  0  0  0
 39 42  1  0  0  0  0
 40 53  1  0  0  0  0
 41 68  1  0  0  0  0
 42 46  1  0  0  0  0
 43 44  1  0  0  0  0
 43 48  1  0  0  0  0
 44 49  1  0  0  0  0
 45 47  1  0  0  0  0
 45 50  1  0  0  0  0
 46 52  1  0  0  0  0
 47 54  1  0  0  0  0
 48 55  1  0  0  0  0
 49 55  1  0  0  0  0
 50 67  1  0  0  0  0
 51 54  1  0  0  0  0
 51 67  1  0  0  0  0
 52 72  1  0  0  0  0
 53 68  1  0  0  0  0
 54 66  1  0  0  0  0
 56 62  1  0  0  0  0
 57 63  1  0  0  0  0
 58 63  1  0  0  0  0
 59 63  1  0  0  0  0
 60 74  1  0  0  0  0
 61 63  1  0  0  0  0
 61 73  1  0  0  0  0
 62 74  1  0  0  0  0
 64 66  1  0  0  0  0
M  CHG  1  74   1
M  ISO  4  31 101  35 100  55 100  83 101
M  END
> <Batch ID>
0158

> <Smiles>
CNC(C)C(=O)NC(C(=O)N1Cc2cc([101O:1][101CH2:1]C(=O)C(=O)Nc3nc([100C:0]4([100C:0](=O)N5CCCC(n6nc(-c7ccc(Oc8ccc(F)cc8F)cc7)c(C(N)=O)c6N)C5)CCCC4)cs3)ccc2CC1C(=O)NC1CCCc2ccccc21)C(C)(C)C

> <Shape>
0.232

> <Color>
0.063

> <Negative vol penalty>
0.000

$$$$

  -OEChem-04052303443D

 86 95  0     1  0  0  0  0  0999 V2000
  -23.5761  -35.6782   15.6312 C   0  0  0  0  0  0  0  0  0  0  0  0
  -24.1570  -34.4142   15.6492 C   0  0  0  0  0  0  0  0  0  0  0  0
  -26.7011  -19.8828   24.6518 C   0  0  0  0  0  0  0  0  0  0  0  0
  -21.3998  -10.0733   20.3033 C   0  0  0  0  0  0  0  0  0  0  0  0
  -23.1101   -9.9328   22.0039 C   0  0  0  0  0  0  0  0  0  0  0  0
  -23.6661  -36.5015   16.7528 C   0  0  0  0  0  0  0  0  0  0  0  0
  -24.8292  -33.9732   16.7885 C   0  0  0  0  0  0  0  0  0  0  0  0
  -27.9071  -20.5022   24.3237 C   0  0  0  0  0  0  0  0  0  0  0  0
  -25.0653  -28.2431   18.9370 C   0  0  0  0  0  0  0  0  0  0  0  0
  -26.0721  -19.0476   23.7285 C   0  0  0  0  0  0  0  0  0  0  0  0
  -21.2769   -8.6839   20.3119 C   0  0  0  0  0  0  0  0  0  0  0  0
  -22.9872   -8.5434   22.0126 C   0  0  0  0  0  0  0  0  0  0  0  0
  -26.0241  -27.2373   18.8228 C   0  0  0  0  0  0  0  0  0  0  0  0
  -20.8814   -6.2388   23.3068 C   0  0  0  0  0  0  0  0  0  0  0  0
  -20.8298   -5.6020   24.5467 C   0  0  0  0  0  0  0  0  0  0  0  0
  -27.8549  -19.4514   22.1488 C   0  0  0  0  0  0  0  0  0  0  0  0
  -26.9456  -27.8819   20.9569 C   0  0  0  0  0  0  0  0  0  0  0  0
  -22.8164   -4.3470   23.9850 C   0  0  0  0  0  0  0  0  0  0  0  0
  -22.3164  -10.6978   21.1492 C   0  0  0  0  0  0  0  0  0  0  0  0
  -21.7331  -13.0546   21.9319 C   0  0  0  0  0  0  0  0  0  0  0  0
  -28.4839  -20.2865   23.0721 C   0  0  0  0  0  0  0  0  0  0  0  0
  -24.3314  -36.0666   17.9099 C   0  0  0  0  0  0  0  0  0  0  0  0
  -25.0463  -29.0843   20.0588 C   0  0  0  0  0  0  0  0  0  0  0  0
  -24.9293  -34.7920   17.9262 C   0  0  0  0  0  0  0  0  0  0  0  0
  -25.9840  -28.8959   21.0841 C   0  0  0  0  0  0  0  0  0  0  0  0
  -26.6490  -18.8320   22.4770 C   0  0  0  0  0  0  0  0  0  0  0  0
  -22.0706   -7.9189   21.1666 C   0  0  0  0  0  0  0  0  0  0  0  0
  -26.9662  -27.0584   19.8315 C   0  0  0  0  0  0  0  0  0  0  0  0
  -21.9005   -5.9296   22.4059 C   0  0  0  0  0  0  0  0  0  0  0  0
  -21.7972   -4.6562   24.8859 C   0  0  0  0  0  0  0  0  0  0  0  0
  -22.8680   -4.9837   22.7450 C   0  0  0  0  0  0  0  0  0  0  0  0
  -22.4442  -12.1329   21.1403 C   0  0  0  0  0  0  0  0  0  0  0  0
  -22.2166  -14.2816   21.5482 C   0  0  0  0  0  0  0  0  0  0  0  0
  -20.7256  -12.8224   22.9252 C   0  0  0  0  0  0  0  0  0  0  0  0
  -25.3985  -32.2086   20.5260 C   0  0  0  0  0  0  0  0  0  0  0  0
  -28.7997  -24.0598   20.7111 C   0  0  0  0  0  0  0  0  0  0  0  0
  -24.6038  -31.4469   23.5773 C   0  0  0  0  0  0  0  0  0  0  0  0
  -24.4617  -29.0767   26.0286 C   0  0  0  0  0  0  0  0  0  0  0  0
  -26.4475  -17.6624   20.2549 C   0  0  0  0  0  0  0  0  0  0  0  0
  -24.4434  -37.0104   19.0809 C   0  0  0  0  0  0  0  0  0  0  0  0
  -23.9890  -30.1473   20.1793 C   0  0  0  0  0  0  0  0  0  0  0  0
  -25.9937  -29.7592   22.3183 C   0  0  0  0  0  0  0  0  0  0  0  0
  -24.8502  -36.3220   20.3813 C   0  0  0  0  0  0  0  0  0  0  0  0
  -25.1797  -15.5842   17.6565 C   0  0  0  0  0  0  0  0  0  0  0  0
  -31.8975  -20.9070   21.6235 C   0  0  0  0  0  0  0  0  0  0  0  0
  -26.0238  -35.3776   20.1409 C   0  0  0  0  0  0  0  0  0  0  0  0
  -30.9056  -19.9942   22.3172 C   0  0  0  0  0  0  0  0  0  0  0  0
  -24.2965  -14.5769   18.3964 C   0  0  0  0  0  0  0  0  0  0  0  0
  -26.4278  -15.9426   18.4613 C   0  0  0  0  0  0  0  0  0  0  0  0
  -25.2890  -15.3883   20.5743 C   0  0  0  0  0  0  0  0  0  0  0  0
  -31.0248  -21.8032   20.7659 C   0  0  0  0  0  0  0  0  0  0  0  0
  -25.6456  -34.2683   19.1521 C   0  0  1  0  0  0  0  0  0  0  0  0
  -29.7877  -20.9564   22.7178 C   0  0  1  0  0  0  0  0  0  0  0  0
  -24.3830  -31.2774   21.1254 C   0  0  1  0  0  0  0  0  0  0  0  0
  -23.9872  -15.0460   19.8316 C   0  0  2  0  0  0  0  0  0  0  0  0
  -23.7992  -28.7621   28.4285 C   0  0  0  0  0  0  0  0  0  0  0  0
  -27.1479  -32.8786   24.4648 C   0  0  0  0  0  0  0  0  0  0  0  0
  -26.9337  -31.7366   26.6825 C   0  0  0  0  0  0  0  0  0  0  0  0
  -25.1528  -33.3039   25.9115 C   0  0  0  0  0  0  0  0  0  0  0  0
  -22.4199  -27.0546   25.3207 C   0  0  0  0  0  0  0  0  0  0  0  0
  -29.3500  -23.3188   21.9011 C   0  0  0  0  0  0  0  0  0  0  0  0
  -28.3821  -25.4989   20.9356 C   0  0  0  0  0  0  0  0  0  1  0  0
  -25.3709  -31.0380   24.8115 C   0  0  1  0  0  0  0  0  0  0  0  0
  -23.3477  -28.6759   26.9788 C   0  0  2  0  0  0  0  0  0  0  0  0
  -26.1526  -32.2241   25.4435 C   0  0  0  0  0  0  0  0  0  0  0  0
  -23.3132  -12.7238   20.3158 N   0  0  0  0  0  0  0  0  0  0  0  0
  -23.1513  -14.0301   20.5873 N   0  0  0  0  0  0  0  0  0  0  0  0
  -24.9437  -30.7889   22.3868 N   0  0  0  0  0  0  0  0  0  0  0  0
  -26.0571  -16.3822   19.8081 N   0  0  0  0  0  0  0  0  0  0  0  0
  -21.9291  -15.5403   21.9423 N   0  0  0  0  0  0  0  0  0  0  0  0
  -20.3465  -11.5006   23.1962 N   0  0  0  0  0  0  0  0  0  0  0  0
  -26.0100  -17.9830   21.5395 N   0  0  0  0  0  0  0  0  0  0  0  0
  -24.8489  -33.2549   19.8100 N   0  0  0  0  0  0  0  0  0  0  0  0
  -24.4016  -30.4163   25.7073 N   0  0  0  0  0  0  0  0  0  0  0  0
  -29.7127  -21.9150   21.5235 N   0  3  1  0  0  0  0  0  0  0  0  0
  -22.9113  -27.2775   26.7048 N   0  3  0  0  0  0  0  0  0  0  0  0
  -20.1661  -13.7603   23.5423 O   0  0  0  0  0  0  0  0  0  0  0  0
  -26.5923  -31.9946   20.7014 O   0  0  0  0  0  0  0  0  0  0  0  0
  -28.6793  -23.5052   19.6189 O   0  0  0  0  0  0  0  0  0  0  0  0
  -23.7301  -32.3130   23.6676 O   0  0  0  0  0  0  0  0  0  0  0  0
  -25.3033  -28.2819   25.6158 O   0  0  0  0  0  0  0  0  0  0  0  0
  -27.0973  -18.4291   19.5394 O   0  0  0  0  0  0  0  0  0  0  0  0
  -21.9508   -6.5632   21.1756 O   0  0  0  0  0  0  0  0  0  0  0  0
  -27.9035  -26.0779   19.7223 O   0  0  0  0  0  0  0  0  0  1  0  0
  -21.7484   -4.0459   26.0772 F   0  0  0  0  0  0  0  0  0  0  0  0
  -23.8501   -4.6834   21.8841 F   0  0  0  0  0  0  0  0  0  0  0  0
  1  2  1  0  0  0  0
  1  6  2  0  0  0  0
  2  7  2  0  0  0  0
  3  8  2  0  0  0  0
  3 10  1  0  0  0  0
  4 11  2  0  0  0  0
  4 19  1  0  0  0  0
  5 12  1  0  0  0  0
  5 19  2  0  0  0  0
  6 22  1  0  0  0  0
  7 24  1  0  0  0  0
  8 21  1  0  0  0  0
  9 13  2  0  0  0  0
  9 23  1  0  0  0  0
 10 26  2  0  0  0  0
 11 27  1  0  0  0  0
 12 27  2  0  0  0  0
 13 28  1  0  0  0  0
 14 15  2  0  0  0  0
 14 29  1  0  0  0  0
 15 30  1  0  0  0  0
 16 21  2  0  0  0  0
 16 26  1  0  0  0  0
 17 25  1  0  0  0  0
 17 28  2  0  0  0  0
 18 30  2  0  0  0  0
 18 31  1  0  0  0  0
 19 32  1  0  0  0  0
 20 32  1  0  0  0  0
 20 33  2  0  0  0  0
 20 34  1  0  0  0  0
 21 53  1  0  0  0  0
 22 24  2  0  0  0  0
 22 40  1  0  0  0  0
 23 25  2  0  0  0  0
 23 41  1  0  0  0  0
 24 52  1  0  0  0  0
 25 42  1  0  0  0  0
 26 72  1  0  0  0  0
 27 83  1  0  0  0  0
 28 84  1  0  0  0  0
 29 31  2  0  0  0  0
 29 83  1  0  0  0  0
 30 85  1  0  0  0  0
 31 86  1  0  0  0  0
 32 66  2  0  0  0  0
 33 67  1  0  0  0  0
 33 70  1  0  0  0  0
 34 71  1  0  0  0  0
 34 77  2  0  0  0  0
 35 54  1  0  0  0  0
 35 73  1  0  0  0  0
 35 78  2  0  0  0  0
 36 61  1  0  0  0  0
 36 62  1  0  0  0  0
 36 79  2  0  0  0  0
 37 63  1  0  0  0  0
 37 68  1  0  0  0  0
 37 80  2  0  0  0  0
 38 64  1  0  0  0  0
 38 74  1  0  0  0  0
 38 81  2  0  0  0  0
 39 69  1  0  0  0  0
 39 72  1  0  0  0  0
 39 82  2  0  0  0  0
 40 43  1  0  0  0  0
 41 54  1  0  0  0  0
 42 68  1  0  0  0  0
 43 46  1  0  0  0  0
 44 48  1  0  0  0  0
 44 49  1  0  0  0  0
 45 47  1  0  0  0  0
 45 51  1  0  0  0  0
 46 52  1  0  0  0  0
 47 53  1  0  0  0  0
 48 55  1  0  0  0  0
 49 69  1  0  0  0  0
 50 55  1  0  0  0  0
 50 69  1  0  0  0  0
 51 75  1  0  0  0  0
 52 73  1  0  0  0  0
 53 75  1  0  0  0  0
 54 68  1  0  0  0  0
 55 67  1  0  0  0  0
 56 64  1  0  0  0  0
 57 65  1  0  0  0  0
 58 65  1  0  0  0  0
 59 65  1  0  0  0  0
 60 76  1  0  0  0  0
 61 75  1  0  0  0  0
 62 84  1  0  0  0  0
 63 65  1  0  0  0  0
 63 74  1  0  0  0  0
 64 76  1  0  0  0  0
 66 67  1  0  0  0  0
M  CHG  2  75   1  76   1
M  ISO  4  39 100  62 101  72 100  84 101
M  END
> <Batch ID>
0158

> <Smiles>
CNC(C)C(=O)NC(C(=O)N1Cc2cc([101O:1][101CH2:1]C(=O)CN3CCCC3c3cccc([100NH:0][100C:0](=O)N4CCCC(n5nc(-c6ccc(Oc7ccc(F)cc7F)cc6)c(C(N)=O)c5N)C4)c3)ccc2CC1C(=O)NC1CCCc2ccccc21)C(C)(C)C

> <Shape>
0.248

> <Color>
0.115

> <Negative vol penalty>
0.000

$$$$

  -OEChem-04052303443D

 88 97  0     1  0  0  0  0  0999 V2000
  -27.7405  -29.3745   15.9060 C   0  0  0  0  0  0  0  0  0  0  0  0
  -27.7744  -28.9829   17.2405 C   0  0  0  0  0  0  0  0  0  0  0  0
  -23.1079   -9.7560   19.9904 C   0  0  0  0  0  0  0  0  0  0  0  0
  -23.8390   -9.8632   22.2906 C   0  0  0  0  0  0  0  0  0  0  0  0
  -27.9624  -28.4356   14.8994 C   0  0  0  0  0  0  0  0  0  0  0  0
  -28.0290  -27.6519   17.5692 C   0  0  0  0  0  0  0  0  0  0  0  0
  -32.4431  -17.7418   23.3355 C   0  0  0  0  0  0  0  0  0  0  0  0
  -31.1076  -25.5878   22.4444 C   0  0  0  0  0  0  0  0  0  0  0  0
  -31.8914  -16.8077   22.4597 C   0  0  0  0  0  0  0  0  0  0  0  0
  -22.3893   -8.5944   20.2729 C   0  0  0  0  0  0  0  0  0  0  0  0
  -23.1204   -8.7015   22.5731 C   0  0  0  0  0  0  0  0  0  0  0  0
  -30.6876  -25.0924   23.6781 C   0  0  0  0  0  0  0  0  0  0  0  0
  -19.9055   -7.8457   23.1668 C   0  0  0  0  0  0  0  0  0  0  0  0
  -19.1354   -7.8285   24.3296 C   0  0  0  0  0  0  0  0  0  0  0  0
  -29.6844  -17.6212   22.9917 C   0  0  0  0  0  0  0  0  0  0  0  0
  -30.8783  -22.8413   22.8322 C   0  0  0  0  0  0  0  0  0  0  0  0
  -20.4145   -5.9498   25.1490 C   0  0  0  0  0  0  0  0  0  0  0  0
  -23.8328  -10.3904   20.9993 C   0  0  0  0  0  0  0  0  0  0  0  0
  -24.1144  -12.9174   20.7930 C   0  0  0  0  0  0  0  0  0  0  0  0
  -28.2294  -27.0943   15.2162 C   0  0  0  0  0  0  0  0  0  0  0  0
  -31.6213  -18.6317   24.0446 C   0  0  0  0  0  0  0  0  0  0  0  0
  -31.4060  -24.7127   21.3902 C   0  0  0  0  0  0  0  0  0  0  0  0
  -28.2533  -26.6939   16.5658 C   0  0  0  0  0  0  0  0  0  0  0  0
  -30.2263  -18.5591   23.8846 C   0  0  0  0  0  0  0  0  0  0  0  0
  -31.3043  -23.3281   21.5869 C   0  0  0  0  0  0  0  0  0  0  0  0
  -30.5122  -16.7489   22.2861 C   0  0  0  0  0  0  0  0  0  0  0  0
  -22.3956   -8.0671   21.5642 C   0  0  0  0  0  0  0  0  0  0  0  0
  -30.5702  -23.7191   23.8713 C   0  0  0  0  0  0  0  0  0  0  0  0
  -20.9301   -6.9149   22.9950 C   0  0  0  0  0  0  0  0  0  0  0  0
  -19.3899   -6.8806   25.3207 C   0  0  0  0  0  0  0  0  0  0  0  0
  -21.1846   -5.9670   23.9861 C   0  0  0  0  0  0  0  0  0  0  0  0
  -24.5757  -11.5901   20.7080 C   0  0  0  0  0  0  0  0  0  0  0  0
  -25.1923  -13.6804   20.4157 C   0  0  0  0  0  0  0  0  0  0  0  0
  -22.8266  -13.4161   21.1786 C   0  0  0  0  0  0  0  0  0  0  0  0
  -30.2298  -24.2258   18.4776 C   0  0  0  0  0  0  0  0  0  0  0  0
  -32.7361  -22.1814   18.2309 C   0  0  0  0  0  0  0  0  0  0  0  0
  -35.0213  -20.1958   19.8064 C   0  0  0  0  0  0  0  0  0  0  0  0
  -30.6288  -14.8669   20.6155 C   0  0  0  0  0  0  0  0  0  0  0  0
  -28.4161  -26.1062   14.0922 C   0  0  0  0  0  0  0  0  0  0  0  0
  -32.2581  -19.6005   25.0068 C   0  0  0  0  0  0  0  0  0  0  0  0
  -31.8834  -25.2619   20.0738 C   0  0  0  0  0  0  0  0  0  0  0  0
  -29.2934  -19.5070   24.6006 C   0  0  0  0  0  0  0  0  0  0  0  0
  -31.6322  -22.3455   20.4936 C   0  0  0  0  0  0  0  0  0  0  0  0
  -29.0501  -24.7906   14.5367 C   0  0  0  0  0  0  0  0  0  0  0  0
  -31.3211  -20.7248   25.4481 C   0  0  0  0  0  0  0  0  0  0  0  0
  -29.6029  -12.3437   18.3224 C   0  0  0  0  0  0  0  0  0  0  0  0
  -28.3766  -24.2751   15.8045 C   0  0  0  0  0  0  0  0  0  0  0  0
  -28.1656  -12.0319   18.7456 C   0  0  0  0  0  0  0  0  0  0  0  0
  -30.4973  -12.6376   19.5255 C   0  0  0  0  0  0  0  0  0  0  0  0
  -28.5563  -13.3631   20.8581 C   0  0  0  0  0  0  0  0  0  0  0  0
  -28.5509  -25.2644   16.9632 C   0  0  1  0  0  0  0  0  0  0  0  0
  -31.6667  -24.2989   18.9107 C   0  0  1  0  0  0  0  0  0  0  0  0
  -27.6026  -13.1241   19.6761 C   0  0  2  0  0  0  0  0  0  0  0  0
  -29.9144  -20.2180   25.8253 C   0  0  1  0  0  0  0  0  0  0  0  0
  -36.9160  -18.6186   19.3375 C   0  0  0  0  0  0  0  0  0  0  0  0
  -27.7714  -23.3746   25.2731 C   0  0  0  0  0  0  0  0  0  0  0  0
  -30.7367  -20.0267   17.4127 C   0  0  0  0  0  0  0  0  0  0  0  0
  -32.4987  -18.3114   17.8830 C   0  0  0  0  0  0  0  0  0  0  0  0
  -32.8687  -20.0220   16.1054 C   0  0  0  0  0  0  0  0  0  0  0  0
  -36.9512  -21.8943   21.2726 C   0  0  0  0  0  0  0  0  0  0  0  0
  -29.0338  -21.4227   26.2073 C   0  0  0  0  0  0  0  0  0  0  0  0
  -32.9569  -20.7191   18.5341 C   0  0  1  0  0  0  0  0  0  0  0  0
  -36.5233  -20.0573   19.6352 C   0  0  2  0  0  0  0  0  0  0  0  0
  -28.9656  -22.4490   25.0830 C   0  0  2  0  0  0  0  0  0  1  0  0
  -29.9683  -19.2645   27.0353 C   0  0  0  0  0  0  0  0  0  0  0  0
  -32.2571  -19.7881   17.5040 C   0  0  0  0  0  0  0  0  0  0  0  0
  -25.8476  -11.5109   20.3079 N   0  0  0  0  0  0  0  0  0  0  0  0
  -26.1946  -12.7981   20.1381 N   0  0  0  0  0  0  0  0  0  0  0  0
  -32.0887  -22.9319   19.2226 N   0  0  0  0  0  0  0  0  0  0  0  0
  -29.9025  -13.6847   20.3590 N   0  0  0  0  0  0  0  0  0  0  0  0
  -25.3711  -15.0133   20.2975 N   0  0  0  0  0  0  0  0  0  0  0  0
  -21.8331  -12.4946   21.5366 N   0  0  0  0  0  0  0  0  0  0  0  0
  -29.9490  -15.8040   21.3929 N   0  0  0  0  0  0  0  0  0  0  0  0
  -29.8823  -25.1602   17.5207 N   0  0  0  0  0  0  0  0  0  0  0  0
  -34.4013  -20.5340   18.6221 N   0  0  0  0  0  0  0  0  0  0  0  0
  -37.2280  -20.4899   20.8750 N   0  3  0  0  0  0  0  0  0  0  0  0
  -22.5597  -14.6417   21.1892 O   0  0  0  0  0  0  0  0  0  0  0  0
  -29.4913  -23.3831   18.9738 O   0  0  0  0  0  0  0  0  0  0  0  0
  -33.1302  -22.6425   17.1567 O   0  0  0  0  0  0  0  0  0  0  0  0
  -34.4543  -20.0179   20.8822 O   0  0  0  0  0  0  0  0  0  0  0  0
  -31.7591  -15.0469   20.1551 O   0  0  0  0  0  0  0  0  0  0  0  0
  -21.6943   -6.9337   21.8403 O   0  0  0  0  0  0  0  0  0  0  0  0
  -30.1574  -23.2299   25.0815 O   0  0  0  0  0  0  0  0  0  1  0  0
  -18.6513   -6.8652   26.4380 F   0  0  0  0  0  0  0  0  0  0  0  0
  -22.1684   -5.0709   23.8273 F   0  0  0  0  0  0  0  0  0  0  0  0
  -30.7138  -18.1978   26.7291 F   0  0  0  0  0  0  0  0  0  0  0  0
  -30.5077  -19.9004   28.0801 F   0  0  0  0  0  0  0  0  0  0  0  0
  -28.7298  -18.8683   27.3456 F   0  0  0  0  0  0  0  0  0  0  0  0
  1  2  1  0  0  0  0
  1  5  2  0  0  0  0
  2  6  2  0  0  0  0
  3 10  2  0  0  0  0
  3 18  1  0  0  0  0
  4 11  1  0  0  0  0
  4 18  2  0  0  0  0
  5 20  1  0  0  0  0
  6 23  1  0  0  0  0
  7  9  2  0  0  0  0
  7 21  1  0  0  0  0
  8 12  2  0  0  0  0
  8 22  1  0  0  0  0
  9 26  1  0  0  0  0
 10 27  1  0  0  0  0
 11 27  2  0  0  0  0
 12 28  1  0  0  0  0
 13 14  2  0  0  0  0
 13 29  1  0  0  0  0
 14 30  1  0  0  0  0
 15 24  1  0  0  0  0
 15 26  2  0  0  0  0
 16 25  1  0  0  0  0
 16 28  2  0  0  0  0
 17 30  2  0  0  0  0
 17 31  1  0  0  0  0
 18 32  1  0  0  0  0
 19 32  1  0  0  0  0
 19 33  2  0  0  0  0
 19 34  1  0  0  0  0
 20 23  2  0  0  0  0
 20 39  1  0  0  0  0
 21 24  2  0  0  0  0
 21 40  1  0  0  0  0
 22 25  2  0  0  0  0
 22 41  1  0  0  0  0
 23 51  1  0  0  0  0
 24 42  1  0  0  0  0
 25 43  1  0  0  0  0
 26 73  1  0  0  0  0
 27 82  1  0  0  0  0
 28 83  1  0  0  0  0
 29 31  2  0  0  0  0
 29 82  1  0  0  0  0
 30 84  1  0  0  0  0
 31 85  1  0  0  0  0
 32 67  2  0  0  0  0
 33 68  1  0  0  0  0
 33 71  1  0  0  0  0
 34 72  1  0  0  0  0
 34 77  2  0  0  0  0
 35 52  1  0  0  0  0
 35 74  1  0  0  0  0
 35 78  2  0  0  0  0
 36 62  1  0  0  0  0
 36 69  1  0  0  0  0
 36 79  2  0  0  0  0
 37 63  1  0  0  0  0
 37 75  1  0  0  0  0
 37 80  2  0  0  0  0
 38 70  1  0  0  0  0
 38 73  1  0  0  0  0
 38 81  2  0  0  0  0
 39 44  1  0  0  0  0
 40 45  1  0  0  0  0
 41 52  1  0  0  0  0
 42 54  1  0  0  0  0
 43 69  1  0  0  0  0
 44 47  1  0  0  0  0
 45 54  1  0  0  0  0
 46 48  1  0  0  0  0
 46 49  1  0  0  0  0
 47 51  1  0  0  0  0
 48 53  1  0  0  0  0
 49 70  1  0  0  0  0
 50 53  1  0  0  0  0
 50 70  1  0  0  0  0
 51 74  1  0  0  0  0
 52 69  1  0  0  0  0
 53 68  1  0  0  0  0
 54 61  1  0  0  0  0
 54 65  1  0  0  0  0
 55 63  1  0  0  0  0
 56 64  1  0  0  0  0
 57 66  1  0  0  0  0
 58 66  1  0  0  0  0
 59 66  1  0  0  0  0
 60 76  1  0  0  0  0
 61 64  1  0  0  0  0
 62 66  1  0  0  0  0
 62 75  1  0  0  0  0
 63 76  1  0  0  0  0
 64 83  1  0  0  0  0
 65 86  1  0  0  0  0
 65 87  1  0  0  0  0
 65 88  1  0  0  0  0
 67 68  1  0  0  0  0
M  CHG  1  76   1
M  ISO  4  38 100  64 101  73 100  83 101
M  END
> <Batch ID>
0158

> <Smiles>
CNC(C)C(=O)NC(C(=O)N1Cc2cc([101O:1][101CH:1](C)CC3(C(F)(F)F)CCc4ccc([100NH:0][100C:0](=O)N5CCCC(n6nc(-c7ccc(Oc8ccc(F)cc8F)cc7)c(C(N)=O)c6N)C5)cc4C3)ccc2CC1C(=O)NC1CCCc2ccccc21)C(C)(C)C

> <Shape>
0.204

> <Color>
0.210

> <Negative vol penalty>
0.000

$$$$

  -OEChem-04052303443D

 89 98  0     1  0  0  0  0  0999 V2000
  -20.9151  -33.8801   15.2973 C   0  0  0  0  0  0  0  0  0  0  0  0
  -21.8192  -32.8276   15.3987 C   0  0  0  0  0  0  0  0  0  0  0  0
  -22.8209   -8.9358   21.7651 C   0  0  0  0  0  0  0  0  0  0  0  0
  -23.1131   -9.9667   23.9305 C   0  0  0  0  0  0  0  0  0  0  0  0
  -20.9701  -34.9350   16.2073 C   0  0  0  0  0  0  0  0  0  0  0  0
  -22.7796  -32.8299   16.4097 C   0  0  0  0  0  0  0  0  0  0  0  0
  -24.9844  -27.9640   19.4042 C   0  0  0  0  0  0  0  0  0  0  0  0
  -23.0402   -7.6808   22.3329 C   0  0  0  0  0  0  0  0  0  0  0  0
  -23.3325   -8.7116   24.4983 C   0  0  0  0  0  0  0  0  0  0  0  0
  -26.1494  -27.2144   19.2468 C   0  0  0  0  0  0  0  0  0  0  0  0
  -21.2886   -5.4251   24.1431 C   0  0  0  0  0  0  0  0  0  0  0  0
  -20.4276   -4.3897   23.7795 C   0  0  0  0  0  0  0  0  0  0  0  0
  -29.3998  -20.1883   20.2991 C   0  0  0  0  0  0  0  0  0  0  0  0
  -27.2194  -28.5281   20.9640 C   0  0  0  0  0  0  0  0  0  0  0  0
  -31.1670  -20.3518   18.6599 C   0  0  0  0  0  0  0  0  0  0  0  0
  -22.3020   -3.1352   22.9135 C   0  0  0  0  0  0  0  0  0  0  0  0
  -22.8574  -10.0788   22.5639 C   0  0  0  0  0  0  0  0  0  0  0  0
  -29.5207  -18.7987   20.2908 C   0  0  0  0  0  0  0  0  0  0  0  0
  -21.3982  -12.0380   21.8291 C   0  0  0  0  0  0  0  0  0  0  0  0
  -21.9254  -34.9455   17.2358 C   0  0  0  0  0  0  0  0  0  0  0  0
  -24.9316  -29.0100   20.3366 C   0  0  0  0  0  0  0  0  0  0  0  0
  -22.8483  -33.8866   17.3335 C   0  0  0  0  0  0  0  0  0  0  0  0
  -26.0517  -29.2877   21.1331 C   0  0  0  0  0  0  0  0  0  0  0  0
  -30.4648  -18.1857   19.4671 C   0  0  0  0  0  0  0  0  0  0  0  0
  -30.2229  -20.9648   19.4836 C   0  0  0  0  0  0  0  0  0  0  0  0
  -31.2880  -18.9622   18.6516 C   0  0  0  0  0  0  0  0  0  0  0  0
  -23.2960   -7.5687   23.6995 C   0  0  0  0  0  0  0  0  0  0  0  0
  -27.2680  -27.4983   20.0247 C   0  0  0  0  0  0  0  0  0  0  0  0
  -22.6563   -5.3157   23.8918 C   0  0  0  0  0  0  0  0  0  0  0  0
  -20.9343   -3.2447   23.1648 C   0  0  0  0  0  0  0  0  0  0  0  0
  -23.1630   -4.1707   23.2770 C   0  0  0  0  0  0  0  0  0  0  0  0
  -22.6314  -11.3755   21.9778 C   0  0  0  0  0  0  0  0  0  0  0  0
  -21.7184  -13.2271   21.2207 C   0  0  0  0  0  0  0  0  0  0  0  0
  -28.3429  -25.4223   20.0981 C   0  0  0  0  0  0  0  0  0  1  0  0
  -28.6353  -17.9982   21.1623 C   0  0  0  0  0  0  0  0  0  0  0  0
  -20.0811  -11.6163   22.2071 C   0  0  0  0  0  0  0  0  0  0  0  0
  -29.3998  -24.6097   19.9781 C   0  0  0  0  0  0  0  0  0  0  0  0
  -29.2254  -23.1449   20.2469 C   0  0  0  0  0  0  0  0  0  0  0  0
  -24.4753  -32.1508   20.1607 C   0  0  0  0  0  0  0  0  0  0  0  0
  -24.4817  -31.9401   23.3976 C   0  0  0  0  0  0  0  0  0  0  0  0
  -25.4459  -30.2274   26.1876 C   0  0  0  0  0  0  0  0  0  0  0  0
  -26.8874  -16.2343   21.2645 C   0  0  0  0  0  0  0  0  0  0  0  0
  -21.9764  -36.1307   18.1671 C   0  0  0  0  0  0  0  0  0  0  0  0
  -23.6587  -29.7918   20.5131 C   0  0  0  0  0  0  0  0  0  0  0  0
  -26.0399  -30.3870   22.1625 C   0  0  0  0  0  0  0  0  0  0  0  0
  -22.7841  -35.8734   19.4367 C   0  0  0  0  0  0  0  0  0  0  0  0
  -24.9068  -15.2168   18.2982 C   0  0  0  0  0  0  0  0  0  0  0  0
  -30.8422  -15.9833   20.7636 C   0  0  0  0  0  0  0  0  0  0  0  0
  -31.9362  -16.0797   19.7466 C   0  0  0  0  0  0  0  0  0  0  0  0
  -24.1122  -35.2038   19.0979 C   0  0  0  0  0  0  0  0  0  0  0  0
  -24.0423  -14.1130   18.8973 C   0  0  0  0  0  0  0  0  0  0  0  0
  -26.2780  -15.3040   18.9670 C   0  0  0  0  0  0  0  0  0  0  0  0
  -25.3318  -14.3396   21.0528 C   0  0  0  0  0  0  0  0  0  0  0  0
  -30.5938  -16.6946   19.4624 C   0  0  0  0  0  0  0  0  0  0  0  0
  -23.8887  -33.8410   18.4315 C   0  0  1  0  0  0  0  0  0  0  0  0
  -23.8837  -31.1682   21.1314 C   0  0  1  0  0  0  0  0  0  0  0  0
  -23.9342  -14.2837   20.4193 C   0  0  2  0  0  0  0  0  0  0  0  0
  -25.3363  -30.3215   28.6929 C   0  0  0  0  0  0  0  0  0  0  0  0
  -26.6409  -34.0960   23.4087 C   0  0  0  0  0  0  0  0  0  0  0  0
  -27.1527  -33.4730   25.7790 C   0  0  0  0  0  0  0  0  0  0  0  0
  -24.8974  -34.3566   25.1826 C   0  0  0  0  0  0  0  0  0  0  0  0
  -23.9574  -27.6736   26.3342 C   0  0  0  0  0  0  0  0  0  0  0  0
  -25.5396  -32.0168   24.4719 C   0  0  1  0  0  0  0  0  0  0  0  0
  -24.6760  -29.8026   27.4250 C   0  0  2  0  0  0  0  0  0  0  0  0
  -26.0588  -33.4661   24.6899 C   0  0  0  0  0  0  0  0  0  0  0  0
  -23.6584  -12.0847   21.5021 N   0  0  0  0  0  0  0  0  0  0  0  0
  -23.0712  -13.2052   21.0484 N   0  0  0  0  0  0  0  0  0  0  0  0
  -24.7739  -31.1272   22.2933 N   0  0  0  0  0  0  0  0  0  0  0  0
  -26.1753  -15.3663   20.4315 N   0  0  0  0  0  0  0  0  0  0  0  0
  -32.2500  -18.3616   17.8095 N   0  0  0  0  0  0  0  0  0  0  0  0
  -20.9719  -14.2787   20.8216 N   0  0  0  0  0  0  0  0  0  0  0  0
  -19.9306  -10.3658   22.8219 N   0  0  0  0  0  0  0  0  0  0  0  0
  -30.1009  -22.3753   19.4931 N   0  0  0  0  0  0  0  0  0  0  0  0
  -27.8202  -17.1043   20.5811 N   0  0  0  0  0  0  0  0  0  0  0  0
  -23.5370  -32.8458   19.4216 N   0  0  0  0  0  0  0  0  0  0  0  0
  -24.9581  -31.4051   25.6618 N   0  0  0  0  0  0  0  0  0  0  0  0
  -28.6982  -18.2193   22.4751 N   0  3  0  0  0  0  0  0  0  0  0  0
  -24.6056  -28.3162   27.5063 N   0  3  0  0  0  0  0  0  0  0  0  0
  -19.0656  -12.3202   21.9908 O   0  0  0  0  0  0  0  0  0  0  0  0
  -28.3888  -22.7470   21.0505 O   0  0  0  0  0  0  0  0  0  0  0  0
  -25.6927  -32.2707   20.0887 O   0  0  0  0  0  0  0  0  0  0  0  0
  -23.4317  -32.5724   23.5367 O   0  0  0  0  0  0  0  0  0  0  0  0
  -26.3884  -29.5813   25.7350 O   0  0  0  0  0  0  0  0  0  0  0  0
  -26.7988  -16.2831   22.4867 O   0  0  0  0  0  0  0  0  0  0  0  0
  -30.6500  -25.0669   19.6139 O   0  0  0  0  0  0  0  0  0  0  0  0
  -23.5098   -6.3442   24.2540 O   0  0  0  0  0  0  0  0  0  0  0  0
  -28.4066  -26.7687   19.8726 O   0  0  0  0  0  0  0  0  0  1  0  0
  -20.1076   -2.2498   22.8171 F   0  0  0  0  0  0  0  0  0  0  0  0
  -24.4762   -4.0593   23.0341 F   0  0  0  0  0  0  0  0  0  0  0  0
  1  2  1  0  0  0  0
  1  5  2  0  0  0  0
  2  6  2  0  0  0  0
  3  8  2  0  0  0  0
  3 17  1  0  0  0  0
  4  9  1  0  0  0  0
  4 17  2  0  0  0  0
  5 20  1  0  0  0  0
  6 22  1  0  0  0  0
  7 10  2  0  0  0  0
  7 21  1  0  0  0  0
  8 27  1  0  0  0  0
  9 27  2  0  0  0  0
 10 28  1  0  0  0  0
 11 12  2  0  0  0  0
 11 29  1  0  0  0  0
 12 30  1  0  0  0  0
 13 18  1  0  0  0  0
 13 25  2  0  0  0  0
 14 23  1  0  0  0  0
 14 28  2  0  0  0  0
 15 25  1  0  0  0  0
 15 26  2  0  0  0  0
 16 30  2  0  0  0  0
 16 31  1  0  0  0  0
 17 32  1  0  0  0  0
 18 24  2  0  0  0  0
 18 35  1  0  0  0  0
 19 32  1  0  0  0  0
 19 33  2  0  0  0  0
 19 36  1  0  0  0  0
 20 22  2  0  0  0  0
 20 43  1  0  0  0  0
 21 23  2  0  0  0  0
 21 44  1  0  0  0  0
 22 55  1  0  0  0  0
 23 45  1  0  0  0  0
 24 26  1  0  0  0  0
 24 54  1  0  0  0  0
 25 73  1  0  0  0  0
 26 70  1  0  0  0  0
 27 86  1  0  0  0  0
 28 87  1  0  0  0  0
 29 31  2  0  0  0  0
 29 86  1  0  0  0  0
 30 88  1  0  0  0  0
 31 89  1  0  0  0  0
 32 66  2  0  0  0  0
 33 67  1  0  0  0  0
 33 71  1  0  0  0  0
 34 37  2  0  0  0  0
 34 87  1  0  0  0  0
 35 74  1  0  0  0  0
 35 77  2  0  0  0  0
 36 72  1  0  0  0  0
 36 79  2  0  0  0  0
 37 38  1  0  0  0  0
 37 85  1  0  0  0  0
 38 73  1  0  0  0  0
 38 80  2  0  0  0  0
 39 56  1  0  0  0  0
 39 75  1  0  0  0  0
 39 81  2  0  0  0  0
 40 63  1  0  0  0  0
 40 68  1  0  0  0  0
 40 82  2  0  0  0  0
 41 64  1  0  0  0  0
 41 76  1  0  0  0  0
 41 83  2  0  0  0  0
 42 69  1  0  0  0  0
 42 74  1  0  0  0  0
 42 84  2  0  0  0  0
 43 46  1  0  0  0  0
 44 56  1  0  0  0  0
 45 68  1  0  0  0  0
 46 50  1  0  0  0  0
 47 51  1  0  0  0  0
 47 52  1  0  0  0  0
 48 49  1  0  0  0  0
 48 54  1  0  0  0  0
 49 54  1  0  0  0  0
 50 55  1  0  0  0  0
 51 57  1  0  0  0  0
 52 69  1  0  0  0  0
 53 57  1  0  0  0  0
 53 69  1  0  0  0  0
 55 75  1  0  0  0  0
 56 68  1  0  0  0  0
 57 67  1  0  0  0  0
 58 64  1  0  0  0  0
 59 65  1  0  0  0  0
 60 65  1  0  0  0  0
 61 65  1  0  0  0  0
 62 78  1  0  0  0  0
 63 65  1  0  0  0  0
 63 76  1  0  0  0  0
 64 78  1  0  0  0  0
 66 67  1  0  0  0  0
M  CHG  2  77   1  78   1
M  ISO  4  34 101  42 100  74 100  87 101
M  END
> <Batch ID>
0158

> <Smiles>
CNC(C)C(=O)NC(C(=O)N1Cc2cc([101O:1][101CH2:1]C(=O)C(=O)Nc3cc(N)c(C4CC4)c(C(=N)[100NH:0][100C:0](=O)N4CCCC(n5nc(-c6ccc(Oc7ccc(F)cc7F)cc6)c(C(N)=O)c5N)C4)c3)ccc2CC1C(=O)NC1CCCc2ccccc21)C(C)(C)C

> <Shape>
0.296

> <Color>
0.076

> <Negative vol penalty>
0.000

$$$$

  -OEChem-04052303443D

 83 91  0     1  0  0  0  0  0999 V2000
  -23.2974   -7.7567   21.1877 C   0  0  0  0  0  0  0  0  0  0  0  0
  -23.7610   -8.7185   20.2958 C   0  0  0  0  0  0  0  0  0  0  0  0
  -22.7762  -26.7261   23.0578 C   0  0  0  0  0  0  0  0  0  0  0  0
  -22.1687  -28.4640   21.4934 C   0  0  0  0  0  0  0  0  0  0  0  0
  -22.3301   -8.0935   22.1337 C   0  0  0  0  0  0  0  0  0  0  0  0
  -23.2568  -10.0175   20.3487 C   0  0  0  0  0  0  0  0  0  0  0  0
  -26.8922  -13.5274   20.0189 C   0  0  0  0  0  0  0  0  0  0  0  0
  -21.8187  -27.1991   23.9551 C   0  0  0  0  0  0  0  0  0  0  0  0
  -21.2112  -28.9370   22.3906 C   0  0  0  0  0  0  0  0  0  0  0  0
  -27.4121  -13.7886   18.7519 C   0  0  0  0  0  0  0  0  0  0  0  0
  -18.3581  -30.3815   24.1201 C   0  0  0  0  0  0  0  0  0  0  0  0
  -17.0976  -30.7015   23.6157 C   0  0  0  0  0  0  0  0  0  0  0  0
  -28.7205  -21.5233   18.7097 C   0  0  0  0  0  0  0  0  0  0  0  0
  -28.3903  -20.1891   18.3343 C   0  0  0  0  0  0  0  0  0  0  0  0
  -26.0170  -15.7499   18.5903 C   0  0  0  0  0  0  0  0  0  0  0  0
  -16.8216  -28.4233   22.8603 C   0  0  0  0  0  0  0  0  0  0  0  0
  -22.9513  -27.3586   21.8270 C   0  0  0  0  0  0  0  0  0  0  0  0
  -23.7590  -25.9025   19.8944 C   0  0  0  0  0  0  0  0  0  0  0  0
  -21.8208   -9.3997   22.2045 C   0  0  0  0  0  0  0  0  0  0  0  0
  -25.9212  -14.3709   20.5776 C   0  0  0  0  0  0  0  0  0  0  0  0
  -22.2808  -10.3717   21.2957 C   0  0  0  0  0  0  0  0  0  0  0  0
  -25.4883  -15.4987   19.8657 C   0  0  0  0  0  0  0  0  0  0  0  0
  -21.0362  -28.3045   23.6215 C   0  0  0  0  0  0  0  0  0  0  0  0
  -26.9724  -14.8983   18.0362 C   0  0  0  0  0  0  0  0  0  0  0  0
  -18.8503  -29.0824   23.9946 C   0  0  0  0  0  0  0  0  0  0  0  0
  -16.3294  -29.7224   22.9858 C   0  0  0  0  0  0  0  0  0  0  0  0
  -18.0821  -28.1033   23.3647 C   0  0  0  0  0  0  0  0  0  0  0  0
  -23.9406  -26.8709   20.8999 C   0  0  0  0  0  0  0  0  0  0  0  0
  -30.0083  -21.8577   18.3528 C   0  0  0  0  0  0  0  0  0  0  0  0
  -24.9902  -25.7946   19.2952 C   0  0  0  0  0  0  0  0  0  0  0  0
  -29.4384  -19.5545   17.7044 C   0  0  0  0  0  0  0  0  0  0  0  0
  -22.5826  -25.1663   19.5341 C   0  0  0  0  0  0  0  0  0  0  0  0
  -30.7300  -23.1393   18.5610 C   0  0  0  0  0  0  0  0  0  0  0  0
  -22.9081  -14.0061   21.5217 C   0  0  0  0  0  0  0  0  0  0  0  0
  -23.2782  -17.0524   22.5730 C   0  0  0  0  0  0  0  0  0  0  0  0
  -24.9300  -20.0273   22.3107 C   0  0  0  0  0  0  0  0  0  0  0  0
  -30.5116  -25.4024   19.5379 C   0  0  0  0  0  0  0  0  0  0  0  0
  -20.7418   -9.7045   23.2132 C   0  0  0  0  0  0  0  0  0  0  0  0
  -25.3900  -14.0904   21.9565 C   0  0  0  0  0  0  0  0  0  0  0  0
  -24.4625  -16.4467   20.4292 C   0  0  0  0  0  0  0  0  0  0  0  0
  -20.5318  -11.1981   23.4480 C   0  0  0  0  0  0  0  0  0  0  0  0
  -29.1445  -28.6550   19.7586 C   0  0  0  0  0  0  0  0  0  0  0  0
  -20.4646  -11.9433   22.1187 C   0  0  0  0  0  0  0  0  0  0  0  0
  -27.6510  -28.4044   19.9847 C   0  0  0  0  0  0  0  0  0  0  0  0
  -30.0092  -27.6332   20.4955 C   0  0  0  0  0  0  0  0  0  0  0  0
  -28.1852  -25.9810   20.4603 C   0  0  0  0  0  0  0  0  0  0  0  0
  -21.7763  -11.7979   21.3379 C   0  0  1  0  0  0  0  0  0  0  0  0
  -24.0287  -14.7292   22.2138 C   0  0  1  0  0  0  0  0  0  0  0  0
  -27.2708  -26.9410   19.6822 C   0  0  1  0  0  0  0  0  0  0  0  0
  -24.9843  -22.3422   23.2778 C   0  0  0  0  0  0  0  0  0  0  0  0
  -20.7740  -17.7719   20.9851 C   0  0  0  0  0  0  0  0  0  0  0  0
  -21.4148  -20.1826   21.2002 C   0  0  0  0  0  0  0  0  0  0  0  0
  -20.9201  -18.8383   23.2425 C   0  0  0  0  0  0  0  0  0  0  0  0
  -29.0014  -16.1127   15.2488 C   0  0  0  0  0  0  0  0  0  0  0  0
  -29.7799  -15.2834   17.4797 C   0  0  0  0  0  0  0  0  0  0  0  0
  -27.7131  -19.6909   23.2595 C   0  0  0  0  0  0  0  0  0  0  0  0
  -28.3098  -17.3650   17.3070 C   0  0  0  0  0  0  0  0  0  0  0  0
  -23.0680  -18.4226   21.9753 C   0  0  1  0  0  0  0  0  0  0  0  0
  -25.5480  -20.9323   23.3612 C   0  0  2  0  0  0  0  0  0  0  0  0
  -21.5621  -18.7851   21.8391 C   0  0  0  0  0  0  0  0  0  0  0  0
  -28.6405  -15.9795   16.7307 C   0  0  0  0  0  0  0  0  0  1  0  0
  -25.1889  -27.3443   20.9404 N   0  0  0  0  0  0  0  0  0  0  0  0
  -25.8028  -26.6706   19.9529 N   0  0  0  0  0  0  0  0  0  0  0  0
  -23.9686  -16.1261   21.7786 N   0  0  0  0  0  0  0  0  0  0  0  0
  -29.5922  -26.2737   20.1477 N   0  0  0  0  0  0  0  0  0  0  0  0
  -25.4462  -25.0369   18.2753 N   0  0  0  0  0  0  0  0  0  0  0  0
  -21.4022  -25.3996   20.2528 N   0  0  0  0  0  0  0  0  0  0  0  0
  -29.4430  -18.2584   17.2173 N   0  0  0  0  0  0  0  0  0  0  0  0
  -30.0044  -24.1412   19.2062 N   0  0  0  0  0  0  0  0  0  0  0  0
  -22.7886  -12.6774   21.8821 N   0  0  0  0  0  0  0  0  0  0  0  0
  -23.8335  -19.3501   22.8012 N   0  0  0  0  0  0  0  0  0  0  0  0
  -27.0252  -21.0051   23.1778 N   0  3  0  0  0  0  0  0  0  0  0  0
  -22.5825  -24.3146   18.6132 O   0  0  0  0  0  0  0  0  0  0  0  0
  -31.9007  -23.2316   18.2019 O   0  0  0  0  0  0  0  0  0  0  0  0
  -22.2030  -14.6093   20.7213 O   0  0  0  0  0  0  0  0  0  0  0  0
  -22.8520  -16.8150   23.7060 O   0  0  0  0  0  0  0  0  0  0  0  0
  -25.3731  -19.9334   21.1682 O   0  0  0  0  0  0  0  0  0  0  0  0
  -31.6729  -25.7315   19.2765 O   0  0  0  0  0  0  0  0  0  0  0  0
  -20.1016  -28.7662   24.4967 O   0  0  0  0  0  0  0  0  0  0  0  0
  -27.4778  -15.1551   16.7991 O   0  0  0  0  0  0  0  0  0  1  0  0
  -15.1184  -30.0295   22.5027 F   0  0  0  0  0  0  0  0  0  0  0  0
  -18.5492  -26.8533   23.2422 F   0  0  0  0  0  0  0  0  0  0  0  0
  -30.8134  -20.5660   17.5682 S   0  0  0  0  0  0  0  0  0  0  0  0
  1  2  1  0  0  0  0
  1  5  2  0  0  0  0
  2  6  2  0  0  0  0
  3  8  2  0  0  0  0
  3 17  1  0  0  0  0
  4  9  1  0  0  0  0
  4 17  2  0  0  0  0
  5 19  1  0  0  0  0
  6 21  1  0  0  0  0
  7 10  2  0  0  0  0
  7 20  1  0  0  0  0
  8 23  1  0  0  0  0
  9 23  2  0  0  0  0
 10 24  1  0  0  0  0
 11 12  2  0  0  0  0
 11 25  1  0  0  0  0
 12 26  1  0  0  0  0
 13 14  1  0  0  0  0
 13 29  2  0  0  0  0
 14 31  2  0  0  0  0
 15 22  1  0  0  0  0
 15 24  2  0  0  0  0
 16 26  2  0  0  0  0
 16 27  1  0  0  0  0
 17 28  1  0  0  0  0
 18 28  1  0  0  0  0
 18 30  2  0  0  0  0
 18 32  1  0  0  0  0
 19 21  2  0  0  0  0
 19 38  1  0  0  0  0
 20 22  2  0  0  0  0
 20 39  1  0  0  0  0
 21 47  1  0  0  0  0
 22 40  1  0  0  0  0
 23 79  1  0  0  0  0
 24 80  1  0  0  0  0
 25 27  2  0  0  0  0
 25 79  1  0  0  0  0
 26 81  1  0  0  0  0
 27 82  1  0  0  0  0
 28 62  2  0  0  0  0
 29 33  1  0  0  0  0
 29 83  1  0  0  0  0
 30 63  1  0  0  0  0
 30 66  1  0  0  0  0
 31 68  1  0  0  0  0
 31 83  1  0  0  0  0
 32 67  1  0  0  0  0
 32 73  2  0  0  0  0
 33 69  1  0  0  0  0
 33 74  2  0  0  0  0
 34 48  1  0  0  0  0
 34 70  1  0  0  0  0
 34 75  2  0  0  0  0
 35 58  1  0  0  0  0
 35 64  1  0  0  0  0
 35 76  2  0  0  0  0
 36 59  1  0  0  0  0
 36 71  1  0  0  0  0
 36 77  2  0  0  0  0
 37 65  1  0  0  0  0
 37 69  1  0  0  0  0
 37 78  2  0  0  0  0
 38 41  1  0  0  0  0
 39 48  1  0  0  0  0
 40 64  1  0  0  0  0
 41 43  1  0  0  0  0
 42 44  1  0  0  0  0
 42 45  1  0  0  0  0
 43 47  1  0  0  0  0
 44 49  1  0  0  0  0
 45 65  1  0  0  0  0
 46 49  1  0  0  0  0
 46 65  1  0  0  0  0
 47 70  1  0  0  0  0
 48 64  1  0  0  0  0
 49 63  1  0  0  0  0
 50 59  1  0  0  0  0
 51 60  1  0  0  0  0
 52 60  1  0  0  0  0
 53 60  1  0  0  0  0
 54 61  1  0  0  0  0
 55 61  1  0  0  0  0
 56 72  1  0  0  0  0
 57 61  1  0  0  0  0
 57 68  1  0  0  0  0
 58 60  1  0  0  0  0
 58 71  1  0  0  0  0
 59 72  1  0  0  0  0
 61 80  1  0  0  0  0
 62 63  1  0  0  0  0
M  CHG  1  72   1
M  ISO  4  37 100  61 101  69 100  80 101
M  END
> <Batch ID>
0158

> <Smiles>
CNC(C)C(=O)NC(C(=O)N1Cc2cc([101O:1][101C:1](C)(C)CNc3ccc(C(=O)[100NH:0][100C:0](=O)N4CCCC(n5nc(-c6ccc(Oc7ccc(F)cc7F)cc6)c(C(N)=O)c5N)C4)s3)ccc2CC1C(=O)NC1CCCc2ccccc21)C(C)(C)C

> <Shape>
0.235

> <Color>
0.069

> <Negative vol penalty>
0.000

$$$$

  -OEChem-04052303443D

 82 90  0     1  0  0  0  0  0999 V2000
  -33.3835  -27.2566   17.8706 C   0  0  0  0  0  0  0  0  0  0  0  0
  -32.0985  -26.8427   18.2067 C   0  0  0  0  0  0  0  0  0  0  0  0
  -24.8323   -8.7801   21.2553 C   0  0  0  0  0  0  0  0  0  0  0  0
  -23.1712   -9.9799   19.9754 C   0  0  0  0  0  0  0  0  0  0  0  0
  -34.0749  -28.1301   18.7090 C   0  0  0  0  0  0  0  0  0  0  0  0
  -31.5046  -27.3012   19.3820 C   0  0  0  0  0  0  0  0  0  0  0  0
  -26.6960  -28.7346   18.6977 C   0  0  0  0  0  0  0  0  0  0  0  0
  -23.8729   -7.8327   21.6125 C   0  0  0  0  0  0  0  0  0  0  0  0
  -22.2117   -9.0325   20.3325 C   0  0  0  0  0  0  0  0  0  0  0  0
  -25.7367  -27.7264   18.6148 C   0  0  0  0  0  0  0  0  0  0  0  0
  -21.3314   -7.5743   23.8257 C   0  0  0  0  0  0  0  0  0  0  0  0
  -21.2829   -7.1737   25.1609 C   0  0  0  0  0  0  0  0  0  0  0  0
  -25.1370  -28.1160   20.9187 C   0  0  0  0  0  0  0  0  0  0  0  0
  -21.7269   -4.8946   24.4932 C   0  0  0  0  0  0  0  0  0  0  0  0
  -24.5799  -19.7400   20.5059 C   0  0  0  0  0  0  0  0  0  0  0  0
  -24.4814   -9.8537   20.4368 C   0  0  0  0  0  0  0  0  0  0  0  0
  -26.3178  -10.8045   18.9431 C   0  0  0  0  0  0  0  0  0  0  0  0
  -33.4854  -28.6072   19.8903 C   0  0  0  0  0  0  0  0  0  0  0  0
  -26.8909  -29.4349   19.8969 C   0  0  0  0  0  0  0  0  0  0  0  0
  -32.1892  -28.1809   20.2377 C   0  0  0  0  0  0  0  0  0  0  0  0
  -26.0976  -29.1344   21.0134 C   0  0  0  0  0  0  0  0  0  0  0  0
  -22.5626   -7.9589   21.1511 C   0  0  0  0  0  0  0  0  0  0  0  0
  -24.9590  -27.4149   19.7262 C   0  0  0  0  0  0  0  0  0  0  0  0
  -21.5776   -6.6350   22.8242 C   0  0  0  0  0  0  0  0  0  0  0  0
  -21.4807   -5.8338   25.4947 C   0  0  0  0  0  0  0  0  0  0  0  0
  -21.7754   -5.2952   23.1580 C   0  0  0  0  0  0  0  0  0  0  0  0
  -25.4719  -10.8330   20.0680 C   0  0  0  0  0  0  0  0  0  0  0  0
  -23.6162  -20.3504   19.6848 C   0  0  0  0  0  0  0  0  0  0  0  0
  -27.0656  -11.9520   19.0466 C   0  0  0  0  0  0  0  0  0  0  0  0
  -24.4173  -18.4024   20.2600 C   0  0  0  0  0  0  0  0  0  0  0  0
  -24.4018  -25.1553   19.9597 C   0  0  0  0  0  0  0  0  0  1  0  0
  -26.4186   -9.8282   17.8979 C   0  0  0  0  0  0  0  0  0  0  0  0
  -23.5643  -24.1121   19.9173 C   0  0  0  0  0  0  0  0  0  0  0  0
  -24.0788  -22.7510   20.2792 C   0  0  0  0  0  0  0  0  0  0  0  0
  -29.3193  -29.7929   21.9163 C   0  0  0  0  0  0  0  0  0  0  0  0
  -27.3205  -31.9197   23.3319 C   0  0  0  0  0  0  0  0  0  0  0  0
  -24.1186  -32.9701   23.8715 C   0  0  0  0  0  0  0  0  0  0  0  0
  -26.1122  -17.2200   21.7007 C   0  0  0  0  0  0  0  0  0  0  0  0
  -34.2900  -29.5128   20.7887 C   0  0  0  0  0  0  0  0  0  0  0  0
  -27.9114  -30.5379   19.9622 C   0  0  0  0  0  0  0  0  0  0  0  0
  -26.2536  -29.8704   22.3182 C   0  0  0  0  0  0  0  0  0  0  0  0
  -33.4458  -30.2472   21.8270 C   0  0  0  0  0  0  0  0  0  0  0  0
  -28.8257  -14.9939   22.2998 C   0  0  0  0  0  0  0  0  0  0  0  0
  -32.4776  -29.2838   22.5062 C   0  0  0  0  0  0  0  0  0  0  0  0
  -28.3530  -13.6733   21.6877 C   0  0  0  0  0  0  0  0  0  0  0  0
  -27.6777  -15.7565   22.9588 C   0  0  0  0  0  0  0  0  0  0  0  0
  -26.0340  -14.6579   21.4889 C   0  0  0  0  0  0  0  0  0  0  0  0
  -31.5017  -28.6758   21.4916 C   0  0  1  0  0  0  0  0  0  0  0  0
  -28.3786  -30.8364   21.3835 C   0  0  1  0  0  0  0  0  0  0  0  0
  -27.1430  -13.8847   20.7568 C   0  0  2  0  0  0  0  0  0  0  0  0
  -22.7982  -34.7128   25.1032 C   0  0  0  0  0  0  0  0  0  0  0  0
  -27.7554  -30.4008   25.9422 C   0  0  0  0  0  0  0  0  0  0  0  0
  -25.7390  -31.5586   26.8707 C   0  0  0  0  0  0  0  0  0  0  0  0
  -27.7303  -32.8907   26.1757 C   0  0  0  0  0  0  0  0  0  0  0  0
  -23.0117  -34.0740   21.3585 C   0  0  0  0  0  0  0  0  0  0  0  0
  -26.2620  -31.8409   24.4054 C   0  0  1  0  0  0  0  0  0  0  0  0
  -23.4839  -34.3470   23.7960 C   0  0  2  0  0  0  0  0  0  0  0  0
  -26.8698  -31.6574   25.8246 C   0  0  0  0  0  0  0  0  0  0  0  0
  -25.6639  -11.9129   20.8303 N   0  0  0  0  0  0  0  0  0  0  0  0
  -22.9098  -19.4594   18.9833 N   0  0  0  0  0  0  0  0  0  0  0  0
  -26.6390  -12.5736   20.1832 N   0  0  0  0  0  0  0  0  0  0  0  0
  -27.2691  -30.9362   22.3339 N   0  0  0  0  0  0  0  0  0  0  0  0
  -26.5690  -15.9229   22.0164 N   0  0  0  0  0  0  0  0  0  0  0  0
  -28.0399  -12.4797   18.2755 N   0  0  0  0  0  0  0  0  0  0  0  0
  -25.5755   -8.7096   17.9450 N   0  0  0  0  0  0  0  0  0  0  0  0
  -23.4040  -21.7474   19.5977 N   0  0  0  0  0  0  0  0  0  0  0  0
  -25.0756  -17.2553   20.7686 N   0  0  0  0  0  0  0  0  0  0  0  0
  -30.4624  -29.6262   21.1580 N   0  0  0  0  0  0  0  0  0  0  0  0
  -25.4406  -33.0375   24.2573 N   0  0  0  0  0  0  0  0  0  0  0  0
  -22.4697  -34.3908   22.7049 N   0  3  0  0  0  0  0  0  0  0  0  0
  -27.2436   -9.9361   16.9592 O   0  0  0  0  0  0  0  0  0  0  0  0
  -24.9900  -22.6167   21.0889 O   0  0  0  0  0  0  0  0  0  0  0  0
  -29.0303  -29.1853   22.9404 O   0  0  0  0  0  0  0  0  0  0  0  0
  -28.1576  -32.8248   23.3732 O   0  0  0  0  0  0  0  0  0  0  0  0
  -23.5020  -31.9377   23.6175 O   0  0  0  0  0  0  0  0  0  0  0  0
  -26.6226  -18.2268   22.1986 O   0  0  0  0  0  0  0  0  0  0  0  0
  -23.4234  -18.2221   19.3529 O   0  0  0  0  0  0  0  0  0  0  0  0
  -22.2391  -24.2385   19.5534 O   0  0  0  0  0  0  0  0  0  0  0  0
  -21.6262   -7.0345   21.4992 O   0  0  0  0  0  0  0  0  0  0  0  0
  -24.0224  -26.4308   19.6482 O   0  0  0  0  0  0  0  0  0  1  0  0
  -21.4357   -5.4495   26.7770 F   0  0  0  0  0  0  0  0  0  0  0  0
  -22.0134   -4.3885   22.2004 F   0  0  0  0  0  0  0  0  0  0  0  0
  1  2  1  0  0  0  0
  1  5  2  0  0  0  0
  2  6  2  0  0  0  0
  3  8  2  0  0  0  0
  3 16  1  0  0  0  0
  4  9  1  0  0  0  0
  4 16  2  0  0  0  0
  5 18  1  0  0  0  0
  6 20  1  0  0  0  0
  7 10  2  0  0  0  0
  7 19  1  0  0  0  0
  8 22  1  0  0  0  0
  9 22  2  0  0  0  0
 10 23  1  0  0  0  0
 11 12  2  0  0  0  0
 11 24  1  0  0  0  0
 12 25  1  0  0  0  0
 13 21  1  0  0  0  0
 13 23  2  0  0  0  0
 14 25  2  0  0  0  0
 14 26  1  0  0  0  0
 15 28  1  0  0  0  0
 15 30  2  0  0  0  0
 16 27  1  0  0  0  0
 17 27  1  0  0  0  0
 17 29  2  0  0  0  0
 17 32  1  0  0  0  0
 18 20  2  0  0  0  0
 18 39  1  0  0  0  0
 19 21  2  0  0  0  0
 19 40  1  0  0  0  0
 20 48  1  0  0  0  0
 21 41  1  0  0  0  0
 22 79  1  0  0  0  0
 23 80  1  0  0  0  0
 24 26  2  0  0  0  0
 24 79  1  0  0  0  0
 25 81  1  0  0  0  0
 26 82  1  0  0  0  0
 27 59  2  0  0  0  0
 28 60  2  0  0  0  0
 28 66  1  0  0  0  0
 29 61  1  0  0  0  0
 29 64  1  0  0  0  0
 30 67  1  0  0  0  0
 30 77  1  0  0  0  0
 31 33  2  0  0  0  0
 31 80  1  0  0  0  0
 32 65  1  0  0  0  0
 32 71  2  0  0  0  0
 33 34  1  0  0  0  0
 33 78  1  0  0  0  0
 34 66  1  0  0  0  0
 34 72  2  0  0  0  0
 35 49  1  0  0  0  0
 35 68  1  0  0  0  0
 35 73  2  0  0  0  0
 36 56  1  0  0  0  0
 36 62  1  0  0  0  0
 36 74  2  0  0  0  0
 37 57  1  0  0  0  0
 37 69  1  0  0  0  0
 37 75  2  0  0  0  0
 38 63  1  0  0  0  0
 38 67  1  0  0  0  0
 38 76  2  0  0  0  0
 39 42  1  0  0  0  0
 40 49  1  0  0  0  0
 41 62  1  0  0  0  0
 42 44  1  0  0  0  0
 43 45  1  0  0  0  0
 43 46  1  0  0  0  0
 44 48  1  0  0  0  0
 45 50  1  0  0  0  0
 46 63  1  0  0  0  0
 47 50  1  0  0  0  0
 47 63  1  0  0  0  0
 48 68  1  0  0  0  0
 49 62  1  0  0  0  0
 50 61  1  0  0  0  0
 51 57  1  0  0  0  0
 52 58  1  0  0  0  0
 53 58  1  0  0  0  0
 54 58  1  0  0  0  0
 55 70  1  0  0  0  0
 56 58  1  0  0  0  0
 56 69  1  0  0  0  0
 57 70  1  0  0  0  0
 59 61  1  0  0  0  0
 60 77  1  0  0  0  0
M  CHG  1  70   1
M  ISO  4  31 101  38 100  67 100  80 101
M  END
> <Batch ID>
0158

> <Smiles>
CNC(C)C(=O)NC(C(=O)N1Cc2cc([101O:1][101CH2:1]C(=O)C(=O)Nc3cc([100NH:0][100C:0](=O)N4CCCC(n5nc(-c6ccc(Oc7ccc(F)cc7F)cc6)c(C(N)=O)c5N)C4)on3)ccc2CC1C(=O)NC1CCCc2ccccc21)C(C)(C)C

> <Shape>
0.234

> <Color>
0.105

> <Negative vol penalty>
0.000

$$$$

  -OEChem-04052303443D

 86 95  0     1  0  0  0  0  0999 V2000
  -27.9737  -37.2595   24.8579 C   0  0  0  0  0  0  0  0  0  0  0  0
  -27.9454  -35.9114   25.2001 C   0  0  0  0  0  0  0  0  0  0  0  0
  -22.6132   -9.5384   20.1128 C   0  0  0  0  0  0  0  0  0  0  0  0
  -24.4258   -8.8876   21.5715 C   0  0  0  0  0  0  0  0  0  0  0  0
  -26.8971  -37.8278   24.1783 C   0  0  0  0  0  0  0  0  0  0  0  0
  -26.8398  -35.1309   24.8637 C   0  0  0  0  0  0  0  0  0  0  0  0
  -27.5528  -29.2801   20.7224 C   0  0  0  0  0  0  0  0  0  0  0  0
  -21.7283   -8.7705   20.8697 C   0  0  0  0  0  0  0  0  0  0  0  0
  -23.5410   -8.1197   22.3285 C   0  0  0  0  0  0  0  0  0  0  0  0
  -27.6379  -28.0295   20.1101 C   0  0  0  0  0  0  0  0  0  0  0  0
  -22.0424   -5.0975   22.1016 C   0  0  0  0  0  0  0  0  0  0  0  0
  -22.4485   -3.8147   22.4692 C   0  0  0  0  0  0  0  0  0  0  0  0
  -25.2336  -27.7976   20.2254 C   0  0  0  0  0  0  0  0  0  0  0  0
  -22.2350   -4.4150   24.7997 C   0  0  0  0  0  0  0  0  0  0  0  0
  -23.9620   -9.5969   20.4636 C   0  0  0  0  0  0  0  0  0  0  0  0
  -25.1764  -10.2402   18.3144 C   0  0  0  0  0  0  0  0  0  0  0  0
  -25.7820  -37.0517   23.8249 C   0  0  0  0  0  0  0  0  0  0  0  0
  -26.3049  -29.8016   21.0750 C   0  0  0  0  0  0  0  0  0  0  0  0
  -25.7467  -35.6897   24.1799 C   0  0  0  0  0  0  0  0  0  0  0  0
  -25.1411  -29.0552   20.8277 C   0  0  0  0  0  0  0  0  0  0  0  0
  -22.1922   -8.0612   21.9775 C   0  0  0  0  0  0  0  0  0  0  0  0
  -26.4811  -27.2900   19.8625 C   0  0  0  0  0  0  0  0  0  0  0  0
  -21.7327   -6.0391   23.0831 C   0  0  0  0  0  0  0  0  0  0  0  0
  -22.5448   -3.4734   23.8183 C   0  0  0  0  0  0  0  0  0  0  0  0
  -21.8290   -5.6978   24.4321 C   0  0  0  0  0  0  0  0  0  0  0  0
  -24.8766  -10.3895   19.6818 C   0  0  0  0  0  0  0  0  0  0  0  0
  -25.0100  -20.1592   19.6160 C   0  0  0  0  0  0  0  0  0  0  0  0
  -26.0940  -11.2285   18.0541 C   0  0  0  0  0  0  0  0  0  0  0  0
  -23.7642  -19.6921   19.2527 C   0  0  0  0  0  0  0  0  0  0  0  0
  -25.3685  -18.0135   19.8941 C   0  0  0  0  0  0  0  0  0  0  0  0
  -24.6705   -9.2929   17.3645 C   0  0  0  0  0  0  0  0  0  0  0  0
  -24.3834  -32.6526   22.5768 C   0  0  0  0  0  0  0  0  0  0  0  0
  -22.7802  -31.6779   20.1498 C   0  0  0  0  0  0  0  0  0  0  0  0
  -21.1608  -31.8473   17.4569 C   0  0  0  0  0  0  0  0  0  0  0  0
  -27.2506  -16.5021   20.6148 C   0  0  0  0  0  0  0  0  0  0  0  0
  -24.6216  -37.7213   23.1323 C   0  0  0  0  0  0  0  0  0  0  0  0
  -26.1707  -31.1174   21.7922 C   0  0  0  0  0  0  0  0  0  0  0  0
  -23.8231  -29.6407   21.2555 C   0  0  0  0  0  0  0  0  0  0  0  0
  -23.6510  -36.7387   22.4822 C   0  0  0  0  0  0  0  0  0  0  0  0
  -29.5298  -13.8019   20.1771 C   0  0  0  0  0  0  0  0  0  0  0  0
  -23.3187  -35.6018   23.4433 C   0  0  0  0  0  0  0  0  0  0  0  0
  -25.9900  -22.0743   18.2834 C   0  0  0  0  0  0  0  0  0  0  0  0
  -26.4733  -21.8758   20.7634 C   0  0  0  0  0  0  0  0  0  0  0  0
  -28.6228  -12.6081   19.8700 C   0  0  0  0  0  0  0  0  0  0  0  0
  -26.4183  -23.5439   18.3196 C   0  0  0  0  0  0  0  0  0  0  0  0
  -26.8978  -23.3462   20.7966 C   0  0  0  0  0  0  0  0  0  0  0  0
  -28.9019  -14.7415   21.2051 C   0  0  0  0  0  0  0  0  0  0  0  0
  -26.6375  -14.0045   20.5739 C   0  0  0  0  0  0  0  0  0  0  0  0
  -24.5761  -34.8046   23.8106 C   0  0  1  0  0  0  0  0  0  0  0  0
  -25.4497  -21.6118   19.6467 C   0  0  0  0  0  0  0  0  0  0  0  0
  -24.9062  -31.8976   21.3901 C   0  0  1  0  0  0  0  0  0  0  0  0
  -27.1989  -13.0638   19.4952 C   0  0  2  0  0  0  0  0  0  0  0  0
  -27.4309  -23.8296   19.4386 C   0  0  0  0  0  0  0  0  0  0  0  0
  -19.5354  -32.0608   15.5570 C   0  0  0  0  0  0  0  0  0  0  0  0
  -21.8225  -29.2267   21.6918 C   0  0  0  0  0  0  0  0  0  0  0  0
  -19.8164  -29.1571   20.1956 C   0  0  0  0  0  0  0  0  0  0  0  0
  -20.2086  -31.1368   21.6617 C   0  0  0  0  0  0  0  0  0  0  0  0
  -21.3704  -34.7994   17.4566 C   0  0  0  0  0  0  0  0  0  0  0  0
  -29.6239  -23.3409   20.1276 C   0  0  0  0  0  0  0  0  0  0  0  0
  -27.7635  -25.3219   19.4886 C   0  0  0  0  0  0  0  0  0  1  0  0
  -21.6805  -30.7831   19.6368 C   0  0  1  0  0  0  0  0  0  0  0  0
  -20.1337  -32.7373   16.7805 C   0  0  2  0  0  0  0  0  0  0  0  0
  -20.9082  -30.0750   20.7855 C   0  0  0  0  0  0  0  0  0  0  0  0
  -25.5494  -11.3935   20.2505 N   0  0  0  0  0  0  0  0  0  0  0  0
  -25.9311  -19.1982   19.9845 N   0  0  0  0  0  0  0  0  0  0  0  0
  -26.2811  -11.8839   19.2355 N   0  0  0  0  0  0  0  0  0  0  0  0
  -23.7785  -31.0733   20.9234 N   0  0  0  0  0  0  0  0  0  0  0  0
  -27.5563  -15.1347   20.7812 N   0  0  0  0  0  0  0  0  0  0  0  0
  -26.7511  -11.5920   16.9323 N   0  0  0  0  0  0  0  0  0  0  0  0
  -22.6861  -20.4096   18.8535 N   0  0  0  0  0  0  0  0  0  0  0  0
  -23.5200   -9.6259   16.6367 N   0  0  0  0  0  0  0  0  0  0  0  0
  -25.9505  -16.7531   20.1775 N   0  0  0  0  0  0  0  0  0  0  0  0
  -24.9387  -33.9081   22.7339 N   0  0  0  0  0  0  0  0  0  0  0  0
  -20.8440  -31.6152   18.7787 N   0  0  0  0  0  0  0  0  0  0  0  0
  -20.7620  -34.0181   16.3492 N   0  3  0  0  0  0  0  0  0  0  0  0
  -25.2130   -8.1772   17.1787 O   0  0  0  0  0  0  0  0  0  0  0  0
  -23.5372  -32.1357   23.2968 O   0  0  0  0  0  0  0  0  0  0  0  0
  -22.7544  -32.8816   19.8783 O   0  0  0  0  0  0  0  0  0  0  0  0
  -22.1436  -31.3995   16.8703 O   0  0  0  0  0  0  0  0  0  0  0  0
  -28.0893  -17.3839   20.8171 O   0  0  0  0  0  0  0  0  0  0  0  0
  -21.3290   -7.3120   22.7165 O   0  0  0  0  0  0  0  0  0  0  0  0
  -26.5710  -26.0718   19.2603 O   0  0  0  0  0  0  0  0  0  1  0  0
  -28.6373  -23.1237   19.1330 O   0  0  0  0  0  0  0  0  0  0  0  0
  -22.9333   -2.2410   24.1711 F   0  0  0  0  0  0  0  0  0  0  0  0
  -21.5316   -6.5977   25.3795 F   0  0  0  0  0  0  0  0  0  0  0  0
  -23.7341  -17.9815   19.3717 S   0  0  0  0  0  0  0  0  0  0  0  0
  1  2  1  0  0  0  0
  1  5  2  0  0  0  0
  2  6  2  0  0  0  0
  3  8  2  0  0  0  0
  3 15  1  0  0  0  0
  4  9  1  0  0  0  0
  4 15  2  0  0  0  0
  5 17  1  0  0  0  0
  6 19  1  0  0  0  0
  7 10  2  0  0  0  0
  7 18  1  0  0  0  0
  8 21  1  0  0  0  0
  9 21  2  0  0  0  0
 10 22  1  0  0  0  0
 11 12  2  0  0  0  0
 11 23  1  0  0  0  0
 12 24  1  0  0  0  0
 13 20  1  0  0  0  0
 13 22  2  0  0  0  0
 14 24  2  0  0  0  0
 14 25  1  0  0  0  0
 15 26  1  0  0  0  0
 16 26  1  0  0  0  0
 16 28  2  0  0  0  0
 16 31  1  0  0  0  0
 17 19  2  0  0  0  0
 17 36  1  0  0  0  0
 18 20  2  0  0  0  0
 18 37  1  0  0  0  0
 19 49  1  0  0  0  0
 20 38  1  0  0  0  0
 21 81  1  0  0  0  0
 22 82  1  0  0  0  0
 23 25  2  0  0  0  0
 23 81  1  0  0  0  0
 24 84  1  0  0  0  0
 25 85  1  0  0  0  0
 26 64  2  0  0  0  0
 27 29  2  0  0  0  0
 27 50  1  0  0  0  0
 27 65  1  0  0  0  0
 28 66  1  0  0  0  0
 28 69  1  0  0  0  0
 29 70  1  0  0  0  0
 29 86  1  0  0  0  0
 30 65  2  0  0  0  0
 30 72  1  0  0  0  0
 30 86  1  0  0  0  0
 31 71  1  0  0  0  0
 31 76  2  0  0  0  0
 32 51  1  0  0  0  0
 32 73  1  0  0  0  0
 32 77  2  0  0  0  0
 33 61  1  0  0  0  0
 33 67  1  0  0  0  0
 33 78  2  0  0  0  0
 34 62  1  0  0  0  0
 34 74  1  0  0  0  0
 34 79  2  0  0  0  0
 35 68  1  0  0  0  0
 35 72  1  0  0  0  0
 35 80  2  0  0  0  0
 36 39  1  0  0  0  0
 37 51  1  0  0  0  0
 38 67  1  0  0  0  0
 39 41  1  0  0  0  0
 40 44  1  0  0  0  0
 40 47  1  0  0  0  0
 41 49  1  0  0  0  0
 42 45  1  0  0  0  0
 42 50  1  0  0  0  0
 43 46  1  0  0  0  0
 43 50  1  0  0  0  0
 44 52  1  0  0  0  0
 45 53  1  0  0  0  0
 46 53  1  0  0  0  0
 47 68  1  0  0  0  0
 48 52  1  0  0  0  0
 48 68  1  0  0  0  0
 49 73  1  0  0  0  0
 51 67  1  0  0  0  0
 52 66  1  0  0  0  0
 53 60  1  0  0  0  0
 53 83  1  0  0  0  0
 54 62  1  0  0  0  0
 55 63  1  0  0  0  0
 56 63  1  0  0  0  0
 57 63  1  0  0  0  0
 58 75  1  0  0  0  0
 59 83  1  0  0  0  0
 60 82  1  0  0  0  0
 61 63  1  0  0  0  0
 61 74  1  0  0  0  0
 62 75  1  0  0  0  0
 64 66  1  0  0  0  0
M  CHG  1  75   1
M  ISO  4  35 100  60 101  72 100  82 101
M  END
> <Batch ID>
0158

> <Smiles>
CNC(C)C(=O)NC(C(=O)N1Cc2cc([101O:1][101CH2:1]C3(OC)CCC(c4nc([100NH:0][100C:0](=O)N5CCCC(n6nc(-c7ccc(Oc8ccc(F)cc8F)cc7)c(C(N)=O)c6N)C5)sc4N)CC3)ccc2CC1C(=O)NC1CCCc2ccccc21)C(C)(C)C

> <Shape>
0.296

> <Color>
0.106

> <Negative vol penalty>
0.000

$$$$

  -OEChem-04052303443D

 84 93  0     1  0  0  0  0  0999 V2000
  -23.1553  -35.7412   15.9300 C   0  0  0  0  0  0  0  0  0  0  0  0
  -23.7805  -34.4989   15.8932 C   0  0  0  0  0  0  0  0  0  0  0  0
  -23.9990   -9.2966   20.0463 C   0  0  0  0  0  0  0  0  0  0  0  0
  -23.1039  -10.7647   21.7436 C   0  0  0  0  0  0  0  0  0  0  0  0
  -23.2382  -36.5283   17.0778 C   0  0  0  0  0  0  0  0  0  0  0  0
  -24.4900  -34.0436   17.0040 C   0  0  0  0  0  0  0  0  0  0  0  0
  -24.9696  -28.2555   18.9466 C   0  0  0  0  0  0  0  0  0  0  0  0
  -23.0612   -8.3240   20.3930 C   0  0  0  0  0  0  0  0  0  0  0  0
  -22.1661   -9.7921   22.0902 C   0  0  0  0  0  0  0  0  0  0  0  0
  -25.9607  -27.2892   18.7799 C   0  0  0  0  0  0  0  0  0  0  0  0
  -22.6576   -6.0067   22.8203 C   0  0  0  0  0  0  0  0  0  0  0  0
  -23.1061   -4.6924   22.9510 C   0  0  0  0  0  0  0  0  0  0  0  0
  -26.9007  -27.8930   20.9179 C   0  0  0  0  0  0  0  0  0  0  0  0
  -21.5855   -3.9999   21.2060 C   0  0  0  0  0  0  0  0  0  0  0  0
  -30.8358  -18.7053   21.8710 C   0  0  0  0  0  0  0  0  0  0  0  0
  -24.0204  -10.5169   20.7216 C   0  0  0  0  0  0  0  0  0  0  0  0
  -24.8422  -12.5414   19.4050 C   0  0  0  0  0  0  0  0  0  0  0  0
  -23.9410  -36.0782   18.2066 C   0  0  0  0  0  0  0  0  0  0  0  0
  -24.9430  -29.0566   20.0973 C   0  0  0  0  0  0  0  0  0  0  0  0
  -24.5836  -34.8261   18.1674 C   0  0  0  0  0  0  0  0  0  0  0  0
  -25.9067  -28.8670   21.0980 C   0  0  0  0  0  0  0  0  0  0  0  0
  -22.1447   -8.5717   21.4149 C   0  0  0  0  0  0  0  0  0  0  0  0
  -26.9281  -27.1098   19.7643 C   0  0  0  0  0  0  0  0  0  0  0  0
  -21.6730   -6.3176   21.8825 C   0  0  0  0  0  0  0  0  0  0  0  0
  -22.5701   -3.6890   22.1439 C   0  0  0  0  0  0  0  0  0  0  0  0
  -21.1369   -5.3142   21.0753 C   0  0  0  0  0  0  0  0  0  0  0  0
  -24.9893  -11.5217   20.3644 C   0  0  0  0  0  0  0  0  0  0  0  0
  -26.0335  -13.2240   19.4440 C   0  0  0  0  0  0  0  0  0  0  0  0
  -29.7000  -17.9745   21.6251 C   0  0  0  0  0  0  0  0  0  0  0  0
  -29.3907  -20.0254   21.1015 C   0  0  0  0  0  0  0  0  0  0  0  0
  -23.7283  -12.8446   18.5547 C   0  0  0  0  0  0  0  0  0  0  0  0
  -25.1942  -32.1738   20.6665 C   0  0  0  0  0  0  0  0  0  0  0  0
  -24.4868  -31.2802   23.7035 C   0  0  0  0  0  0  0  0  0  0  0  0
  -24.4762  -28.8241   26.0729 C   0  0  0  0  0  0  0  0  0  0  0  0
  -30.1990  -15.5934   22.2791 C   0  0  0  0  0  0  0  0  0  0  0  0
  -24.0427  -36.9849   19.4076 C   0  0  0  0  0  0  0  0  0  0  0  0
  -23.8515  -30.0763   20.2742 C   0  0  0  0  0  0  0  0  0  0  0  0
  -25.9102  -29.6874   22.3611 C   0  0  0  0  0  0  0  0  0  0  0  0
  -24.4989  -36.2674   20.6754 C   0  0  0  0  0  0  0  0  0  0  0  0
  -30.4102  -12.0839   21.7169 C   0  0  0  0  0  0  0  0  0  0  0  0
  -25.7000  -35.3745   20.3807 C   0  0  0  0  0  0  0  0  0  0  0  0
  -28.8055  -21.3531   19.0841 C   0  0  0  0  0  0  0  0  0  0  0  0
  -29.0066  -11.7086   21.2360 C   0  0  0  0  0  0  0  0  0  0  0  0
  -28.0381  -22.5642   18.5521 C   0  0  0  0  0  0  0  0  0  0  0  0
  -30.3702  -13.1681   22.7924 C   0  0  0  0  0  0  0  0  0  0  0  0
  -28.2087  -13.9977   21.9506 C   0  0  0  0  0  0  0  0  0  0  0  0
  -28.1864  -23.6435   20.8359 C   0  0  0  0  0  0  0  0  0  0  0  0
  -25.3417  -34.2867   19.3610 C   0  0  1  0  0  0  0  0  0  0  0  0
  -28.5967  -21.1659   20.5925 C   0  0  2  0  0  0  0  0  0  0  0  0
  -24.2241  -31.1868   21.2517 C   0  0  1  0  0  0  0  0  0  0  0  0
  -28.2012  -12.9554   20.8205 C   0  0  2  0  0  0  0  0  0  0  0  0
  -28.3727  -23.8362   19.3352 C   0  0  2  0  0  0  0  0  0  0  0  0
  -23.8724  -28.4041   28.4722 C   0  0  0  0  0  0  0  0  0  0  0  0
  -26.9959  -32.7710   24.5934 C   0  0  0  0  0  0  0  0  0  0  0  0
  -26.8656  -31.5469   26.7736 C   0  0  0  0  0  0  0  0  0  0  0  0
  -25.0158  -33.0749   26.0905 C   0  0  0  0  0  0  0  0  0  0  0  0
  -22.4933  -26.7556   25.3327 C   0  0  0  0  0  0  0  0  0  0  0  0
  -27.5584  -25.0117   18.8388 C   0  0  0  0  0  0  0  0  0  1  0  0
  -25.2919  -30.8571   24.9085 C   0  0  1  0  0  0  0  0  0  0  0  0
  -23.3959  -28.3514   27.0289 C   0  0  2  0  0  0  0  0  0  0  0  0
  -26.0437  -32.0482   25.5669 C   0  0  0  0  0  0  0  0  0  0  0  0
  -30.6315  -20.0188   21.5333 N   0  0  0  0  0  0  0  0  0  0  0  0
  -26.1802  -11.5501   20.9686 N   0  0  0  0  0  0  0  0  0  0  0  0
  -26.7923  -12.5959   20.3874 N   0  0  0  0  0  0  0  0  0  0  0  0
  -24.8262  -30.6759   22.4848 N   0  0  0  0  0  0  0  0  0  0  0  0
  -29.5942  -14.3195   22.3268 N   0  0  0  0  0  0  0  0  0  0  0  0
  -26.4955  -14.2941   18.7630 N   0  0  0  0  0  0  0  0  0  0  0  0
  -22.5824  -12.0425   18.6432 N   0  0  0  0  0  0  0  0  0  0  0  0
  -29.3742  -16.6052   21.7888 N   0  0  0  0  0  0  0  0  0  0  0  0
  -24.5942  -33.2236   19.9977 N   0  0  0  0  0  0  0  0  0  0  0  0
  -24.3628  -30.1708   25.7996 N   0  0  0  0  0  0  0  0  0  0  0  0
  -28.9726  -22.4525   21.2835 N   0  3  0  0  0  0  0  0  0  0  0  0
  -23.0036  -26.9485   26.7145 N   0  3  0  0  0  0  0  0  0  0  0  0
  -23.7547  -13.7885   17.7290 O   0  0  0  0  0  0  0  0  0  0  0  0
  -26.3980  -31.9968   20.8124 O   0  0  0  0  0  0  0  0  0  0  0  0
  -23.5851  -32.1109   23.8400 O   0  0  0  0  0  0  0  0  0  0  0  0
  -25.3371  -28.0745   25.6173 O   0  0  0  0  0  0  0  0  0  0  0  0
  -31.3716  -15.7683   22.6205 O   0  0  0  0  0  0  0  0  0  0  0  0
  -28.7568  -18.8210   21.1258 O   0  0  0  0  0  0  0  0  0  0  0  0
  -21.2293   -7.6230   21.7533 O   0  0  0  0  0  0  0  0  0  0  0  0
  -27.8970  -26.1678   19.6037 O   0  0  0  0  0  0  0  0  0  1  0  0
  -23.0020   -2.4272   22.2685 F   0  0  0  0  0  0  0  0  0  0  0  0
  -20.1916   -5.6070   20.1717 F   0  0  0  0  0  0  0  0  0  0  0  0
  -29.6879  -24.1350   19.1095 F   0  0  0  0  0  0  0  0  0  0  0  0
  1  2  1  0  0  0  0
  1  5  2  0  0  0  0
  2  6  2  0  0  0  0
  3  8  2  0  0  0  0
  3 16  1  0  0  0  0
  4  9  1  0  0  0  0
  4 16  2  0  0  0  0
  5 18  1  0  0  0  0
  6 20  1  0  0  0  0
  7 10  2  0  0  0  0
  7 19  1  0  0  0  0
  8 22  1  0  0  0  0
  9 22  2  0  0  0  0
 10 23  1  0  0  0  0
 11 12  2  0  0  0  0
 11 24  1  0  0  0  0
 12 25  1  0  0  0  0
 13 21  1  0  0  0  0
 13 23  2  0  0  0  0
 14 25  2  0  0  0  0
 14 26  1  0  0  0  0
 15 29  2  0  0  0  0
 15 62  1  0  0  0  0
 16 27  1  0  0  0  0
 17 27  1  0  0  0  0
 17 28  2  0  0  0  0
 17 31  1  0  0  0  0
 18 20  2  0  0  0  0
 18 36  1  0  0  0  0
 19 21  2  0  0  0  0
 19 37  1  0  0  0  0
 20 48  1  0  0  0  0
 21 38  1  0  0  0  0
 22 80  1  0  0  0  0
 23 81  1  0  0  0  0
 24 26  2  0  0  0  0
 24 80  1  0  0  0  0
 25 82  1  0  0  0  0
 26 83  1  0  0  0  0
 27 63  2  0  0  0  0
 28 64  1  0  0  0  0
 28 67  1  0  0  0  0
 29 69  1  0  0  0  0
 29 79  1  0  0  0  0
 30 49  1  0  0  0  0
 30 62  2  0  0  0  0
 30 79  1  0  0  0  0
 31 68  1  0  0  0  0
 31 74  2  0  0  0  0
 32 50  1  0  0  0  0
 32 70  1  0  0  0  0
 32 75  2  0  0  0  0
 33 59  1  0  0  0  0
 33 65  1  0  0  0  0
 33 76  2  0  0  0  0
 34 60  1  0  0  0  0
 34 71  1  0  0  0  0
 34 77  2  0  0  0  0
 35 66  1  0  0  0  0
 35 69  1  0  0  0  0
 35 78  2  0  0  0  0
 36 39  1  0  0  0  0
 37 50  1  0  0  0  0
 38 65  1  0  0  0  0
 39 41  1  0  0  0  0
 40 43  1  0  0  0  0
 40 45  1  0  0  0  0
 41 48  1  0  0  0  0
 42 44  1  0  0  0  0
 42 49  1  0  0  0  0
 43 51  1  0  0  0  0
 44 52  1  0  0  0  0
 45 66  1  0  0  0  0
 46 51  1  0  0  0  0
 46 66  1  0  0  0  0
 47 52  1  0  0  0  0
 47 72  1  0  0  0  0
 48 70  1  0  0  0  0
 49 72  1  0  0  0  0
 50 65  1  0  0  0  0
 51 64  1  0  0  0  0
 52 58  1  0  0  0  0
 52 84  1  0  0  0  0
 53 60  1  0  0  0  0
 54 61  1  0  0  0  0
 55 61  1  0  0  0  0
 56 61  1  0  0  0  0
 57 73  1  0  0  0  0
 58 81  1  0  0  0  0
 59 61  1  0  0  0  0
 59 71  1  0  0  0  0
 60 73  1  0  0  0  0
 63 64  1  0  0  0  0
M  CHG  2  72   1  73   1
M  ISO  4  35 100  58 101  69 100  81 101
M  END
> <Batch ID>
0158

> <Smiles>
CNC(C)C(=O)NC(C(=O)N1Cc2cc([101O:1][101CH2:1]C3(F)CCC(c4ncc([100NH:0][100C:0](=O)N5CCCC(n6nc(-c7ccc(Oc8ccc(F)cc8F)cc7)c(C(N)=O)c6N)C5)o4)NC3)ccc2CC1C(=O)NC1CCCc2ccccc21)C(C)(C)C

> <Shape>
0.295

> <Color>
0.122

> <Negative vol penalty>
0.000

$$$$

  -OEChem-04052303443D

 86 95  0     1  0  0  0  0  0999 V2000
  -22.5688  -35.3823   15.5541 C   0  0  0  0  0  0  0  0  0  0  0  0
  -23.2111  -34.1488   15.5915 C   0  0  0  0  0  0  0  0  0  0  0  0
  -27.4999  -10.5882   20.5247 C   0  0  0  0  0  0  0  0  0  0  0  0
  -27.2341  -11.5200   18.3115 C   0  0  0  0  0  0  0  0  0  0  0  0
  -22.7380  -36.2871   16.6013 C   0  0  0  0  0  0  0  0  0  0  0  0
  -24.0238  -33.8197   16.6758 C   0  0  0  0  0  0  0  0  0  0  0  0
  -24.7783  -28.2739   19.1617 C   0  0  0  0  0  0  0  0  0  0  0  0
  -26.4027   -9.7553   20.3059 C   0  0  0  0  0  0  0  0  0  0  0  0
  -26.1368  -10.6870   18.0926 C   0  0  0  0  0  0  0  0  0  0  0  0
  -25.7684  -27.3043   19.0089 C   0  0  0  0  0  0  0  0  0  0  0  0
  -23.0329  -10.0168   20.3332 C   0  0  0  0  0  0  0  0  0  0  0  0
  -22.0886   -9.9087   21.3540 C   0  0  0  0  0  0  0  0  0  0  0  0
  -29.1966  -21.0850   16.2677 C   0  0  0  0  0  0  0  0  0  0  0  0
  -29.0968  -19.7468   16.7177 C   0  0  0  0  0  0  0  0  0  0  0  0
  -26.8816  -28.1390   20.9795 C   0  0  0  0  0  0  0  0  0  0  0  0
  -22.5038   -7.5323   21.4863 C   0  0  0  0  0  0  0  0  0  0  0  0
  -27.9156  -11.4706   19.5275 C   0  0  0  0  0  0  0  0  0  0  0  0
  -30.3992  -12.0506   19.4724 C   0  0  0  0  0  0  0  0  0  0  0  0
  -23.5455  -35.9651   17.7036 C   0  0  0  0  0  0  0  0  0  0  0  0
  -24.8384  -29.1918   20.2201 C   0  0  0  0  0  0  0  0  0  0  0  0
  -24.2049  -34.7216   17.7381 C   0  0  0  0  0  0  0  0  0  0  0  0
  -25.8897  -29.1177   21.1450 C   0  0  0  0  0  0  0  0  0  0  0  0
  -25.7211   -9.8047   19.0898 C   0  0  0  0  0  0  0  0  0  0  0  0
  -26.8218  -27.2386   19.9162 C   0  0  0  0  0  0  0  0  0  0  0  0
  -23.7127   -8.8827   19.8889 C   0  0  0  0  0  0  0  0  0  0  0  0
  -21.8240   -8.6664   21.9306 C   0  0  0  0  0  0  0  0  0  0  0  0
  -23.4482   -7.6405   20.4655 C   0  0  0  0  0  0  0  0  0  0  0  0
  -29.0486  -12.3317   19.7531 C   0  0  0  0  0  0  0  0  0  0  0  0
  -31.0740  -13.1803   19.8660 C   0  0  0  0  0  0  0  0  0  0  0  0
  -29.4261  -21.8487   17.3884 C   0  0  0  0  0  0  0  0  0  0  0  0
  -29.2727  -19.7881   18.0813 C   0  0  0  0  0  0  0  0  0  0  0  0
  -30.9908  -10.8737   18.9064 C   0  0  0  0  0  0  0  0  0  0  0  0
  -25.0815  -32.3538   20.4359 C   0  0  0  0  0  0  0  0  0  0  0  0
  -24.6605  -31.7799   23.6007 C   0  0  0  0  0  0  0  0  0  0  0  0
  -24.9034  -29.5878   26.2051 C   0  0  0  0  0  0  0  0  0  0  0  0
  -29.4648  -18.9069   20.4335 C   0  0  0  0  0  0  0  0  0  0  0  0
  -23.7358  -36.9944   18.7893 C   0  0  0  0  0  0  0  0  0  0  0  0
  -23.7482  -30.2147   20.3865 C   0  0  0  0  0  0  0  0  0  0  0  0
  -25.9893  -30.0669   22.3101 C   0  0  0  0  0  0  0  0  0  0  0  0
  -24.3148  -36.4191   20.0793 C   0  0  0  0  0  0  0  0  0  0  0  0
  -30.8049  -16.8093   22.9793 C   0  0  0  0  0  0  0  0  0  0  0  0
  -25.5015  -35.5108   19.7733 C   0  0  0  0  0  0  0  0  0  0  0  0
  -30.6351  -15.3978   22.4127 C   0  0  0  0  0  0  0  0  0  0  0  0
  -30.0178  -25.4628   16.8946 C   0  0  0  0  0  0  0  0  0  0  0  0
  -29.6320  -17.7146   22.6073 C   0  0  0  0  0  0  0  0  0  0  0  0
  -29.5635  -24.1028   16.3838 C   0  0  0  0  0  0  0  0  0  0  0  0
  -29.1521  -16.3598   20.6065 C   0  0  0  0  0  0  0  0  0  0  0  0
  -25.0749  -34.3182   18.9089 C   0  0  1  0  0  0  0  0  0  0  0  0
  -24.1849  -31.4256   21.2053 C   0  0  1  0  0  0  0  0  0  0  0  0
  -30.3403  -15.4293   20.9002 C   0  0  2  0  0  0  0  0  0  0  0  0
  -29.5598  -25.4604   18.3547 C   0  0  2  0  0  0  0  0  0  0  0  0
  -29.8737  -23.9809   18.8060 C   0  0  0  0  0  0  0  0  0  0  0  0
  -28.9738  -23.5748   19.9831 C   0  0  0  0  0  0  0  0  0  0  0  0
  -31.3568  -23.8272   19.2069 C   0  0  0  0  0  0  0  0  0  0  0  0
  -24.5208  -29.4183   28.6794 C   0  0  0  0  0  0  0  0  0  0  0  0
  -27.2105  -33.3787   24.1021 C   0  0  0  0  0  0  0  0  0  0  0  0
  -27.2949  -32.3908   26.4010 C   0  0  0  0  0  0  0  0  0  0  0  0
  -25.3645  -33.8214   25.7303 C   0  0  0  0  0  0  0  0  0  0  0  0
  -22.9012  -27.4350   25.8652 C   0  0  0  0  0  0  0  0  0  0  0  0
  -30.4635  -27.6213   18.3546 C   0  0  0  0  0  0  0  0  0  0  0  0
  -28.0785  -25.8610   18.4400 C   0  0  0  0  0  0  0  0  0  1  0  0
  -25.5761  -31.4937   24.7664 C   0  0  1  0  0  0  0  0  0  0  0  0
  -23.9202  -29.2092   27.2980 C   0  0  2  0  0  0  0  0  0  0  0  0
  -26.3609  -32.7543   25.2270 C   0  0  0  0  0  0  0  0  0  0  0  0
  -28.8740  -13.5447   20.2842 N   0  0  0  0  0  0  0  0  0  0  0  0
  -30.1237  -14.0359   20.3404 N   0  0  0  0  0  0  0  0  0  0  0  0
  -29.6064  -23.2124   17.5566 N   0  0  3  0  0  0  0  0  0  0  0  0
  -24.9024  -31.0532   22.4263 N   0  0  0  0  0  0  0  0  0  0  0  0
  -29.4145  -17.6979   21.1591 N   0  0  0  0  0  0  0  0  0  0  0  0
  -32.3816  -13.5153   19.8492 N   0  0  0  0  0  0  0  0  0  0  0  0
  -30.1526   -9.8057   18.5583 N   0  0  0  0  0  0  0  0  0  0  0  0
  -29.2756  -18.7629   19.0594 N   0  0  0  0  0  0  0  0  0  0  0  0
  -24.4059  -33.3216   19.7174 N   0  0  0  0  0  0  0  0  0  0  0  0
  -24.7417  -30.8971   25.8039 N   0  0  0  0  0  0  0  0  0  0  0  0
  -23.5276  -27.7774   27.1681 N   0  3  0  0  0  0  0  0  0  0  0  0
  -32.2281  -10.7656   18.7301 O   0  0  0  0  0  0  0  0  0  0  0  0
  -26.2965  -32.2040   20.4913 O   0  0  0  0  0  0  0  0  0  0  0  0
  -23.7593  -32.6122   23.7297 O   0  0  0  0  0  0  0  0  0  0  0  0
  -25.7344  -28.8020   25.7551 O   0  0  0  0  0  0  0  0  0  0  0  0
  -29.6883  -19.9868   20.9865 O   0  0  0  0  0  0  0  0  0  0  0  0
  -29.4740  -21.0657   18.4981 O   0  0  0  0  0  0  0  0  0  0  0  0
  -24.6506   -8.9919   18.8759 O   0  0  0  0  0  0  0  0  0  0  0  0
  -27.7899  -26.2936   19.7689 O   0  0  0  0  0  0  0  0  0  1  0  0
  -30.2815  -26.4322   19.1034 O   0  0  0  0  0  0  0  0  0  0  0  0
  -20.9182   -8.5629   22.9119 F   0  0  0  0  0  0  0  0  0  0  0  0
  -24.0989   -6.5476   20.0437 F   0  0  0  0  0  0  0  0  0  0  0  0
  1  2  1  0  0  0  0
  1  5  2  0  0  0  0
  2  6  2  0  0  0  0
  3  8  2  0  0  0  0
  3 17  1  0  0  0  0
  4  9  1  0  0  0  0
  4 17  2  0  0  0  0
  5 19  1  0  0  0  0
  6 21  1  0  0  0  0
  7 10  2  0  0  0  0
  7 20  1  0  0  0  0
  8 23  1  0  0  0  0
  9 23  2  0  0  0  0
 10 24  1  0  0  0  0
 11 12  2  0  0  0  0
 11 25  1  0  0  0  0
 12 26  1  0  0  0  0
 13 14  1  0  0  0  0
 13 30  2  0  0  0  0
 14 31  2  0  0  0  0
 15 22  1  0  0  0  0
 15 24  2  0  0  0  0
 16 26  2  0  0  0  0
 16 27  1  0  0  0  0
 17 28  1  0  0  0  0
 18 28  1  0  0  0  0
 18 29  2  0  0  0  0
 18 32  1  0  0  0  0
 19 21  2  0  0  0  0
 19 37  1  0  0  0  0
 20 22  2  0  0  0  0
 20 38  1  0  0  0  0
 21 48  1  0  0  0  0
 22 39  1  0  0  0  0
 23 82  1  0  0  0  0
 24 83  1  0  0  0  0
 25 27  2  0  0  0  0
 25 82  1  0  0  0  0
 26 85  1  0  0  0  0
 27 86  1  0  0  0  0
 28 65  2  0  0  0  0
 29 66  1  0  0  0  0
 29 70  1  0  0  0  0
 30 67  1  0  0  0  0
 30 81  1  0  0  0  0
 31 72  1  0  0  0  0
 31 81  1  0  0  0  0
 32 71  1  0  0  0  0
 32 76  2  0  0  0  0
 33 49  1  0  0  0  0
 33 73  1  0  0  0  0
 33 77  2  0  0  0  0
 34 62  1  0  0  0  0
 34 68  1  0  0  0  0
 34 78  2  0  0  0  0
 35 63  1  0  0  0  0
 35 74  1  0  0  0  0
 35 79  2  0  0  0  0
 36 69  1  0  0  0  0
 36 72  1  0  0  0  0
 36 80  2  0  0  0  0
 37 40  1  0  0  0  0
 38 49  1  0  0  0  0
 39 68  1  0  0  0  0
 40 42  1  0  0  0  0
 41 43  1  0  0  0  0
 41 45  1  0  0  0  0
 42 48  1  0  0  0  0
 43 50  1  0  0  0  0
 44 46  1  0  0  0  0
 44 51  1  0  0  0  0
 45 69  1  0  0  0  0
 46 67  1  0  0  0  0
 47 50  1  0  0  0  0
 47 69  1  0  0  0  0
 48 73  1  0  0  0  0
 49 68  1  0  0  0  0
 50 66  1  0  0  0  0
 51 52  1  0  0  0  0
 51 61  1  0  0  0  0
 51 84  1  0  0  0  0
 52 53  1  0  0  0  0
 52 54  1  0  0  0  0
 52 67  1  0  0  0  0
 55 63  1  0  0  0  0
 56 64  1  0  0  0  0
 57 64  1  0  0  0  0
 58 64  1  0  0  0  0
 59 75  1  0  0  0  0
 60 84  1  0  0  0  0
 61 83  1  0  0  0  0
 62 64  1  0  0  0  0
 62 74  1  0  0  0  0
 63 75  1  0  0  0  0
 65 66  1  0  0  0  0
M  CHG  1  75   1
M  ISO  4  36 100  61 101  72 100  83 101
M  END
> <Batch ID>
0158

> <Smiles>
CNC(C)C(=O)NC(C(=O)N1Cc2cc([101O:1][101CH2:1]C3(OC)CCN(c4ccc([100NH:0][100C:0](=O)N5CCCC(n6nc(-c7ccc(Oc8ccc(F)cc8F)cc7)c(C(N)=O)c6N)C5)o4)C3(C)C)ccc2CC1C(=O)NC1CCCc2ccccc21)C(C)(C)C

> <Shape>
0.310

> <Color>
0.094

> <Negative vol penalty>
0.000

$$$$

  -OEChem-04052303443D

 83 91  0     1  0  0  0  0  0999 V2000
  -28.0775  -34.6662   24.0180 C   0  0  0  0  0  0  0  0  0  0  0  0
  -28.2230  -33.3157   23.7172 C   0  0  0  0  0  0  0  0  0  0  0  0
  -23.4137   -9.9833   22.3214 C   0  0  0  0  0  0  0  0  0  0  0  0
  -23.3398   -9.7521   19.9177 C   0  0  0  0  0  0  0  0  0  0  0  0
  -26.8278  -35.1681   24.3789 C   0  0  0  0  0  0  0  0  0  0  0  0
  -27.1190  -32.4661   23.7782 C   0  0  0  0  0  0  0  0  0  0  0  0
  -26.8367  -29.3583   19.7898 C   0  0  0  0  0  0  0  0  0  0  0  0
  -22.6676   -8.8126   22.4570 C   0  0  0  0  0  0  0  0  0  0  0  0
  -22.5937   -8.5813   20.0532 C   0  0  0  0  0  0  0  0  0  0  0  0
  -27.6811  -28.2490   19.7860 C   0  0  0  0  0  0  0  0  0  0  0  0
  -23.2146   -5.4791   22.3105 C   0  0  0  0  0  0  0  0  0  0  0  0
  -23.6332   -4.5503   23.2632 C   0  0  0  0  0  0  0  0  0  0  0  0
  -25.8524  -26.8619   20.5285 C   0  0  0  0  0  0  0  0  0  0  0  0
  -27.5465  -19.5682   18.0632 C   0  0  0  0  0  0  0  0  0  0  0  0
  -21.5109   -4.7584   24.3986 C   0  0  0  0  0  0  0  0  0  0  0  0
  -29.7953  -19.5263   17.2901 C   0  0  0  0  0  0  0  0  0  0  0  0
  -23.7498  -10.4531   21.0517 C   0  0  0  0  0  0  0  0  0  0  0  0
  -25.9221  -11.7761   20.8568 C   0  0  0  0  0  0  0  0  0  0  0  0
  -25.7060  -34.3261   24.4349 C   0  0  0  0  0  0  0  0  0  0  0  0
  -25.4942  -29.2296   20.1741 C   0  0  0  0  0  0  0  0  0  0  0  0
  -25.8534  -32.9569   24.1414 C   0  0  0  0  0  0  0  0  0  0  0  0
  -24.9924  -27.9707   20.5338 C   0  0  0  0  0  0  0  0  0  0  0  0
  -28.7583  -20.2263   17.8856 C   0  0  0  0  0  0  0  0  0  0  0  0
  -27.4105  -18.2488   17.6459 C   0  0  0  0  0  0  0  0  0  0  0  0
  -22.2576   -8.1116   21.3229 C   0  0  0  0  0  0  0  0  0  0  0  0
  -27.1898  -27.0011   20.1582 C   0  0  0  0  0  0  0  0  0  0  0  0
  -21.9442   -6.0477   22.4019 C   0  0  0  0  0  0  0  0  0  0  0  0
  -22.7814   -4.1899   24.3072 C   0  0  0  0  0  0  0  0  0  0  0  0
  -21.0923   -5.6873   23.4459 C   0  0  0  0  0  0  0  0  0  0  0  0
  -24.5200  -11.6626   20.9110 C   0  0  0  0  0  0  0  0  0  0  0  0
  -28.5077  -17.6375   17.0610 C   0  0  0  0  0  0  0  0  0  0  0  0
  -26.1525  -13.1232   20.7193 C   0  0  0  0  0  0  0  0  0  0  0  0
  -26.9265  -10.7552   20.9246 C   0  0  0  0  0  0  0  0  0  0  0  0
  -23.7035  -30.4349   22.5074 C   0  0  0  0  0  0  0  0  0  0  0  0
  -28.4072  -23.7108   19.2337 C   0  0  0  0  0  0  0  0  0  0  0  0
  -21.3096  -28.9282   20.9195 C   0  0  0  0  0  0  0  0  0  0  0  0
  -20.3686  -26.4454   18.7755 C   0  0  0  0  0  0  0  0  0  0  0  0
  -25.0101  -18.0466   18.3833 C   0  0  0  0  0  0  0  0  0  0  0  0
  -24.3851  -34.9051   24.8760 C   0  0  0  0  0  0  0  0  0  0  0  0
  -24.5896  -30.4310   20.1472 C   0  0  0  0  0  0  0  0  0  0  0  0
  -23.5538  -27.7756   20.9351 C   0  0  0  0  0  0  0  0  0  0  0  0
  -23.1902  -34.0117   24.5531 C   0  0  0  0  0  0  0  0  0  0  0  0
  -23.0069  -17.0646   21.1581 C   0  0  0  0  0  0  0  0  0  0  0  0
  -23.4793  -32.5683   24.9529 C   0  0  0  0  0  0  0  0  0  0  0  0
  -23.3373  -15.5810   21.3367 C   0  0  0  0  0  0  0  0  0  0  0  0
  -22.9744  -17.4649   19.6842 C   0  0  0  0  0  0  0  0  0  0  0  0
  -24.5066  -15.6274   19.0967 C   0  0  0  0  0  0  0  0  0  0  0  0
  -24.6746  -32.0085   24.1722 C   0  0  1  0  0  0  0  0  0  0  0  0
  -23.3695  -30.2806   21.0506 C   0  0  1  0  0  0  0  0  0  0  0  0
  -24.6146  -15.1914   20.5671 C   0  0  2  0  0  0  0  0  0  0  0  0
  -18.3387  -25.4382   17.6972 C   0  0  0  0  0  0  0  0  0  0  0  0
  -20.5914  -27.5632   23.5522 C   0  0  0  0  0  0  0  0  0  0  0  0
  -19.2350  -25.9131   22.2461 C   0  0  0  0  0  0  0  0  0  0  0  0
  -18.6287  -28.3325   22.2066 C   0  0  0  0  0  0  0  0  0  0  0  0
  -21.3605  -27.0682   16.0575 C   0  0  0  0  0  0  0  0  0  0  0  0
  -27.8873  -22.3245   18.9173 C   0  0  0  0  0  0  0  0  0  0  0  0
  -27.4137  -24.6485   19.8918 C   0  0  0  0  0  0  0  0  0  1  0  0
  -20.6924  -27.5515   20.9723 C   0  0  1  0  0  0  0  0  0  0  0  0
  -19.4607  -26.4555   17.5589 C   0  0  2  0  0  0  0  0  0  0  0  0
  -19.8145  -27.3438   22.2386 C   0  0  0  0  0  0  0  0  0  0  0  0
  -29.7009  -18.2443   16.8717 N   0  0  0  0  0  0  0  0  0  0  0  0
  -23.9030  -12.8434   20.8160 N   0  0  0  0  0  0  0  0  0  0  0  0
  -24.9223  -13.7117   20.7007 N   0  0  0  0  0  0  0  0  0  0  0  0
  -22.7105  -28.9818   20.8988 N   0  0  0  0  0  0  0  0  0  0  0  0
  -24.2183  -17.0682   19.0207 N   0  0  0  0  0  0  0  0  0  0  0  0
  -27.2854  -13.8498   20.6139 N   0  0  0  0  0  0  0  0  0  0  0  0
  -26.5162   -9.4226   21.0661 N   0  0  0  0  0  0  0  0  0  0  0  0
  -26.1857  -17.5567   17.8154 N   0  0  0  0  0  0  0  0  0  0  0  0
  -28.9233  -21.5425   18.2926 N   0  0  0  0  0  0  0  0  0  0  0  0
  -24.2771  -31.6506   22.8275 N   0  0  0  0  0  0  0  0  0  0  0  0
  -19.9761  -27.3768   19.7134 N   0  0  0  0  0  0  0  0  0  0  0  0
  -20.2386  -26.1331   16.3293 N   0  3  0  0  0  0  0  0  0  0  0  0
  -28.1521  -11.0185   20.8780 O   0  0  0  0  0  0  0  0  0  0  0  0
  -23.4576  -29.5193   23.2839 O   0  0  0  0  0  0  0  0  0  0  0  0
  -29.5576  -24.0643   18.9780 O   0  0  0  0  0  0  0  0  0  0  0  0
  -20.5757  -29.9192   20.8903 O   0  0  0  0  0  0  0  0  0  0  0  0
  -21.3276  -25.6846   18.8846 O   0  0  0  0  0  0  0  0  0  0  0  0
  -24.6838  -19.2363   18.3676 O   0  0  0  0  0  0  0  0  0  0  0  0
  -21.5297   -6.9691   21.4548 O   0  0  0  0  0  0  0  0  0  0  0  0
  -28.0120  -25.9167   20.1560 O   0  0  0  0  0  0  0  0  0  1  0  0
  -23.1829   -3.2968   25.2212 F   0  0  0  0  0  0  0  0  0  0  0  0
  -19.8702   -6.2292   23.5383 F   0  0  0  0  0  0  0  0  0  0  0  0
  -28.4013  -16.3631   16.6501 F   0  0  0  0  0  0  0  0  0  0  0  0
  1  2  1  0  0  0  0
  1  5  2  0  0  0  0
  2  6  2  0  0  0  0
  3  8  2  0  0  0  0
  3 17  1  0  0  0  0
  4  9  1  0  0  0  0
  4 17  2  0  0  0  0
  5 19  1  0  0  0  0
  6 21  1  0  0  0  0
  7 10  2  0  0  0  0
  7 20  1  0  0  0  0
  8 25  1  0  0  0  0
  9 25  2  0  0  0  0
 10 26  1  0  0  0  0
 11 12  2  0  0  0  0
 11 27  1  0  0  0  0
 12 28  1  0  0  0  0
 13 22  1  0  0  0  0
 13 26  2  0  0  0  0
 14 23  2  0  0  0  0
 14 24  1  0  0  0  0
 15 28  2  0  0  0  0
 15 29  1  0  0  0  0
 16 23  1  0  0  0  0
 16 61  2  0  0  0  0
 17 30  1  0  0  0  0
 18 30  1  0  0  0  0
 18 32  2  0  0  0  0
 18 33  1  0  0  0  0
 19 21  2  0  0  0  0
 19 39  1  0  0  0  0
 20 22  2  0  0  0  0
 20 40  1  0  0  0  0
 21 48  1  0  0  0  0
 22 41  1  0  0  0  0
 23 69  1  0  0  0  0
 24 31  2  0  0  0  0
 24 68  1  0  0  0  0
 25 79  1  0  0  0  0
 26 80  1  0  0  0  0
 27 29  2  0  0  0  0
 27 79  1  0  0  0  0
 28 81  1  0  0  0  0
 29 82  1  0  0  0  0
 30 62  2  0  0  0  0
 31 61  1  0  0  0  0
 31 83  1  0  0  0  0
 32 63  1  0  0  0  0
 32 66  1  0  0  0  0
 33 67  1  0  0  0  0
 33 73  2  0  0  0  0
 34 49  1  0  0  0  0
 34 70  1  0  0  0  0
 34 74  2  0  0  0  0
 35 56  1  0  0  0  0
 35 57  1  0  0  0  0
 35 75  2  0  0  0  0
 36 58  1  0  0  0  0
 36 64  1  0  0  0  0
 36 76  2  0  0  0  0
 37 59  1  0  0  0  0
 37 71  1  0  0  0  0
 37 77  2  0  0  0  0
 38 65  1  0  0  0  0
 38 68  1  0  0  0  0
 38 78  2  0  0  0  0
 39 42  1  0  0  0  0
 40 49  1  0  0  0  0
 41 64  1  0  0  0  0
 42 44  1  0  0  0  0
 43 45  1  0  0  0  0
 43 46  1  0  0  0  0
 44 48  1  0  0  0  0
 45 50  1  0  0  0  0
 46 65  1  0  0  0  0
 47 50  1  0  0  0  0
 47 65  1  0  0  0  0
 48 70  1  0  0  0  0
 49 64  1  0  0  0  0
 50 63  1  0  0  0  0
 51 59  1  0  0  0  0
 52 60  1  0  0  0  0
 53 60  1  0  0  0  0
 54 60  1  0  0  0  0
 55 72  1  0  0  0  0
 56 69  1  0  0  0  0
 57 80  1  0  0  0  0
 58 60  1  0  0  0  0
 58 71  1  0  0  0  0
 59 72  1  0  0  0  0
 62 63  1  0  0  0  0
M  CHG  1  72   1
M  ISO  4  38 100  57 101  68 100  80 101
M  END
> <Batch ID>
0158

> <Smiles>
CNC(C)C(=O)NC(C(=O)N1Cc2cc([101O:1][101CH2:1]C(=O)CNc3cnc(F)c([100NH:0][100C:0](=O)N4CCCC(n5nc(-c6ccc(Oc7ccc(F)cc7F)cc6)c(C(N)=O)c5N)C4)c3)ccc2CC1C(=O)NC1CCCc2ccccc21)C(C)(C)C

> <Shape>
0.301

> <Color>
0.115

> <Negative vol penalty>
0.000

$$$$

  -OEChem-04052303443D

 85 94  0     1  0  0  0  0  0999 V2000
  -18.7230  -25.5937   22.4419 C   0  0  0  0  0  0  0  0  0  0  0  0
  -19.7351  -25.8270   21.5164 C   0  0  0  0  0  0  0  0  0  0  0  0
  -27.5380  -11.1662   20.5530 C   0  0  0  0  0  0  0  0  0  0  0  0
  -28.1041  -11.3592   22.8937 C   0  0  0  0  0  0  0  0  0  0  0  0
  -18.1630  -26.6599   23.1444 C   0  0  0  0  0  0  0  0  0  0  0  0
  -20.1872  -27.1269   21.2921 C   0  0  0  0  0  0  0  0  0  0  0  0
  -25.2392  -27.4216   21.1046 C   0  0  0  0  0  0  0  0  0  0  0  0
  -26.6350  -10.1470   20.8554 C   0  0  0  0  0  0  0  0  0  0  0  0
  -27.2011  -10.3400   23.1962 C   0  0  0  0  0  0  0  0  0  0  0  0
  -25.8576  -27.0107   19.9246 C   0  0  0  0  0  0  0  0  0  0  0  0
  -23.5012   -9.8830   22.0975 C   0  0  0  0  0  0  0  0  0  0  0  0
  -22.2428   -9.9330   21.4979 C   0  0  0  0  0  0  0  0  0  0  0  0
  -26.0671  -29.3141   19.2393 C   0  0  0  0  0  0  0  0  0  0  0  0
  -22.6548   -7.7928   20.4552 C   0  0  0  0  0  0  0  0  0  0  0  0
  -26.5307  -19.8530   18.3934 C   0  0  0  0  0  0  0  0  0  0  0  0
  -28.2726  -11.7723   21.5721 C   0  0  0  0  0  0  0  0  0  0  0  0
  -30.3300  -12.7418   20.4168 C   0  0  0  0  0  0  0  0  0  0  0  0
  -18.6151  -27.9724   22.9357 C   0  0  0  0  0  0  0  0  0  0  0  0
  -25.0199  -28.7836   21.3563 C   0  0  0  0  0  0  0  0  0  0  0  0
  -19.6318  -28.2118   21.9915 C   0  0  0  0  0  0  0  0  0  0  0  0
  -25.4480  -29.7399   20.4244 C   0  0  0  0  0  0  0  0  0  0  0  0
  -26.4665   -9.7340   22.1770 C   0  0  0  0  0  0  0  0  0  0  0  0
  -26.2691  -27.9568   18.9904 C   0  0  0  0  0  0  0  0  0  0  0  0
  -24.3365   -8.7881   21.8759 C   0  0  0  0  0  0  0  0  0  0  0  0
  -21.8196   -8.8878   20.6768 C   0  0  0  0  0  0  0  0  0  0  0  0
  -23.9133   -7.7430   21.0547 C   0  0  0  0  0  0  0  0  0  0  0  0
  -29.2060  -12.8247   21.2603 C   0  0  0  0  0  0  0  0  0  0  0  0
  -30.8805  -13.9996   20.4536 C   0  0  0  0  0  0  0  0  0  0  0  0
  -27.2679  -20.0169   19.5398 C   0  0  0  0  0  0  0  0  0  0  0  0
  -26.6776  -21.9189   18.7587 C   0  0  0  0  0  0  0  0  0  0  0  0
  -30.8317  -11.6274   19.6670 C   0  0  0  0  0  0  0  0  0  0  0  0
  -22.4471  -30.5972   21.7984 C   0  0  0  0  0  0  0  0  0  0  0  0
  -27.7297  -26.0627   16.3121 C   0  0  0  0  0  0  0  0  0  0  0  0
  -24.6519  -32.8860   22.4483 C   0  0  0  0  0  0  0  0  0  0  0  0
  -27.8431  -34.0298   22.0548 C   0  0  0  0  0  0  0  0  0  0  0  0
  -28.6179  -19.4143   21.5796 C   0  0  0  0  0  0  0  0  0  0  0  0
  -17.9467  -29.0982   23.6843 C   0  0  0  0  0  0  0  0  0  0  0  0
  -24.3755  -29.2121   22.6461 C   0  0  0  0  0  0  0  0  0  0  0  0
  -25.2542  -31.2154   20.6563 C   0  0  0  0  0  0  0  0  0  0  0  0
  -18.7410  -30.4015   23.6608 C   0  0  0  0  0  0  0  0  0  0  0  0
  -31.2950  -17.8239   23.3061 C   0  0  0  0  0  0  0  0  0  0  0  0
  -19.2270  -30.7051   22.2472 C   0  0  0  0  0  0  0  0  0  0  0  0
  -28.0100  -24.0699   18.7480 C   0  0  0  0  0  0  0  0  0  0  0  0
  -25.7528  -23.9688   17.5981 C   0  0  0  0  0  0  0  0  0  0  0  0
  -31.1691  -16.3549   22.8958 C   0  0  0  0  0  0  0  0  0  0  0  0
  -27.9335  -25.5965   18.7685 C   0  0  0  0  0  0  0  0  0  0  0  0
  -25.6733  -25.4952   17.6168 C   0  0  0  0  0  0  0  0  0  0  0  0
  -29.9281  -18.4846   23.4754 C   0  0  0  0  0  0  0  0  0  0  0  0
  -28.9001  -16.8797   21.9144 C   0  0  0  0  0  0  0  0  0  0  0  0
  -20.1662  -29.6048   21.7384 C   0  0  1  0  0  0  0  0  0  0  0  0
  -26.6092  -23.4354   18.7589 C   0  0  0  0  0  0  0  0  0  0  0  0
  -23.7392  -30.5963   22.5652 C   0  0  1  0  0  0  0  0  0  0  0  0
  -30.2516  -16.1892   21.6686 C   0  0  2  0  0  0  0  0  0  0  0  0
  -27.0520  -26.1564   17.6501 C   0  0  0  0  0  0  0  0  0  1  0  0
  -29.3384  -35.9480   22.6727 C   0  0  0  0  0  0  0  0  0  0  0  0
  -23.2741  -34.6302   20.3580 C   0  0  0  0  0  0  0  0  0  0  0  0
  -25.3100  -36.0870   20.3328 C   0  0  0  0  0  0  0  0  0  0  0  0
  -23.9788  -35.8432   22.4283 C   0  0  0  0  0  0  0  0  0  0  0  0
  -29.7079  -32.2565   23.5167 C   0  0  0  0  0  0  0  0  0  0  0  0
  -25.4015  -33.9109   21.6319 C   0  0  1  0  0  0  0  0  0  0  0  0
  -28.8543  -34.5583   23.0561 C   0  0  2  0  0  0  0  0  0  0  0  0
  -24.4931  -35.0900   21.1822 C   0  0  0  0  0  0  0  0  0  0  0  0
  -26.1550  -21.0753   17.8977 N   0  0  0  0  0  0  0  0  0  0  0  0
  -29.0504  -14.0392   21.7941 N   0  0  0  0  0  0  0  0  0  0  0  0
  -30.0839  -14.7309   21.2848 N   0  0  0  0  0  0  0  0  0  0  0  0
  -24.6136  -31.5840   21.9296 N   0  0  0  0  0  0  0  0  0  0  0  0
  -29.1156  -18.2905   22.2725 N   0  0  0  0  0  0  0  0  0  0  0  0
  -31.9633  -14.5404   19.8557 N   0  0  0  0  0  0  0  0  0  0  0  0
  -31.7616  -10.7753   20.2781 N   0  0  0  0  0  0  0  0  0  0  0  0
  -28.9157  -26.7582   16.2602 N   0  0  0  0  0  0  0  0  0  0  0  0
  -27.8864  -19.1071   20.4328 N   0  0  0  0  0  0  0  0  0  0  0  0
  -21.4829  -29.7557   22.3197 N   0  0  0  0  0  0  0  0  0  0  0  0
  -26.5492  -34.3143   22.4372 N   0  0  0  0  0  0  0  0  0  0  0  0
  -30.0354  -33.6521   23.1269 N   0  3  0  0  0  0  0  0  0  0  0  0
  -30.4785  -11.4036   18.4844 O   0  0  0  0  0  0  0  0  0  0  0  0
  -22.3327  -31.3097   20.8080 O   0  0  0  0  0  0  0  0  0  0  0  0
  -27.2489  -25.4414   15.3687 O   0  0  0  0  0  0  0  0  0  0  0  0
  -24.1259  -33.2265   23.5109 O   0  0  0  0  0  0  0  0  0  0  0  0
  -28.1686  -33.4282   21.0337 O   0  0  0  0  0  0  0  0  0  0  0  0
  -28.8482  -20.5652   21.9594 O   0  0  0  0  0  0  0  0  0  0  0  0
  -27.3691  -21.3529   19.7855 O   0  0  0  0  0  0  0  0  0  0  0  0
  -25.5853   -8.7397   22.4725 O   0  0  0  0  0  0  0  0  0  0  0  0
  -26.8724  -27.5583   17.8375 O   0  0  0  0  0  0  0  0  0  1  0  0
  -20.6105   -8.9352   20.1023 F   0  0  0  0  0  0  0  0  0  0  0  0
  -24.7108   -6.6879   20.8390 F   0  0  0  0  0  0  0  0  0  0  0  0
  1  2  1  0  0  0  0
  1  5  2  0  0  0  0
  2  6  2  0  0  0  0
  3  8  2  0  0  0  0
  3 16  1  0  0  0  0
  4  9  1  0  0  0  0
  4 16  2  0  0  0  0
  5 18  1  0  0  0  0
  6 20  1  0  0  0  0
  7 10  2  0  0  0  0
  7 19  1  0  0  0  0
  8 22  1  0  0  0  0
  9 22  2  0  0  0  0
 10 23  1  0  0  0  0
 11 12  2  0  0  0  0
 11 24  1  0  0  0  0
 12 25  1  0  0  0  0
 13 21  1  0  0  0  0
 13 23  2  0  0  0  0
 14 25  2  0  0  0  0
 14 26  1  0  0  0  0
 15 29  2  0  0  0  0
 15 63  1  0  0  0  0
 16 27  1  0  0  0  0
 17 27  1  0  0  0  0
 17 28  2  0  0  0  0
 17 31  1  0  0  0  0
 18 20  2  0  0  0  0
 18 37  1  0  0  0  0
 19 21  2  0  0  0  0
 19 38  1  0  0  0  0
 20 50  1  0  0  0  0
 21 39  1  0  0  0  0
 22 82  1  0  0  0  0
 23 83  1  0  0  0  0
 24 26  2  0  0  0  0
 24 82  1  0  0  0  0
 25 84  1  0  0  0  0
 26 85  1  0  0  0  0
 27 64  2  0  0  0  0
 28 65  1  0  0  0  0
 28 68  1  0  0  0  0
 29 71  1  0  0  0  0
 29 81  1  0  0  0  0
 30 51  1  0  0  0  0
 30 63  2  0  0  0  0
 30 81  1  0  0  0  0
 31 69  1  0  0  0  0
 31 75  2  0  0  0  0
 32 52  1  0  0  0  0
 32 72  1  0  0  0  0
 32 76  2  0  0  0  0
 33 54  1  0  0  0  0
 33 70  1  0  0  0  0
 33 77  2  0  0  0  0
 34 60  1  0  0  0  0
 34 66  1  0  0  0  0
 34 78  2  0  0  0  0
 35 61  1  0  0  0  0
 35 73  1  0  0  0  0
 35 79  2  0  0  0  0
 36 67  1  0  0  0  0
 36 71  1  0  0  0  0
 36 80  2  0  0  0  0
 37 40  1  0  0  0  0
 38 52  1  0  0  0  0
 39 66  1  0  0  0  0
 40 42  1  0  0  0  0
 41 45  1  0  0  0  0
 41 48  1  0  0  0  0
 42 50  1  0  0  0  0
 43 46  1  0  0  0  0
 43 51  1  0  0  0  0
 44 47  1  0  0  0  0
 44 51  1  0  0  0  0
 45 53  1  0  0  0  0
 46 54  1  0  0  0  0
 47 54  1  0  0  0  0
 48 67  1  0  0  0  0
 49 53  1  0  0  0  0
 49 67  1  0  0  0  0
 50 72  1  0  0  0  0
 52 66  1  0  0  0  0
 53 65  1  0  0  0  0
 54 83  1  0  0  0  0
 55 61  1  0  0  0  0
 56 62  1  0  0  0  0
 57 62  1  0  0  0  0
 58 62  1  0  0  0  0
 59 74  1  0  0  0  0
 60 62  1  0  0  0  0
 60 73  1  0  0  0  0
 61 74  1  0  0  0  0
 64 65  1  0  0  0  0
M  CHG  1  74   1
M  ISO  4  36 100  54 101  71 100  83 101
M  END
> <Batch ID>
0158

> <Smiles>
CNC(C)C(=O)NC(C(=O)N1Cc2cc([101O:1][101C:1]3(C(N)=O)CCC(c4ncc([100NH:0][100C:0](=O)N5CCCC(n6nc(-c7ccc(Oc8ccc(F)cc8F)cc7)c(C(N)=O)c6N)C5)o4)CC3)ccc2CC1C(=O)NC1CCCc2ccccc21)C(C)(C)C

> <Shape>
0.284

> <Color>
0.096

> <Negative vol penalty>
0.000

$$$$

  -OEChem-04052303443D

 86 95  0     1  0  0  0  0  0999 V2000
  -26.8608   -8.0977   25.2773 C   0  0  0  0  0  0  0  0  0  0  0  0
  -27.6788   -9.1524   24.8849 C   0  0  0  0  0  0  0  0  0  0  0  0
  -21.7140  -29.1935   23.7613 C   0  0  0  0  0  0  0  0  0  0  0  0
  -23.7151  -28.8095   22.4631 C   0  0  0  0  0  0  0  0  0  0  0  0
  -25.7748   -7.7273   24.4852 C   0  0  0  0  0  0  0  0  0  0  0  0
  -27.4120   -9.8366   23.6996 C   0  0  0  0  0  0  0  0  0  0  0  0
  -28.2699  -15.8035   22.6197 C   0  0  0  0  0  0  0  0  0  0  0  0
  -27.1610  -22.4434   19.1748 C   0  0  0  0  0  0  0  0  0  0  0  0
  -22.1275  -30.5019   24.0117 C   0  0  0  0  0  0  0  0  0  0  0  0
  -24.1286  -30.1179   22.7136 C   0  0  0  0  0  0  0  0  0  0  0  0
  -29.2948  -16.5040   21.9851 C   0  0  0  0  0  0  0  0  0  0  0  0
  -25.8849  -33.2436   23.3095 C   0  0  0  0  0  0  0  0  0  0  0  0
  -27.2161  -33.4442   23.6744 C   0  0  0  0  0  0  0  0  0  0  0  0
  -28.3168  -22.2383   18.4296 C   0  0  0  0  0  0  0  0  0  0  0  0
  -28.0196  -16.5026   19.9374 C   0  0  0  0  0  0  0  0  0  0  0  0
  -26.8971  -32.0367   25.6120 C   0  0  0  0  0  0  0  0  0  0  0  0
  -27.9808  -20.8890   20.7774 C   0  0  0  0  0  0  0  0  0  0  0  0
  -22.5078  -28.3473   22.9870 C   0  0  0  0  0  0  0  0  0  0  0  0
  -20.9029  -26.5857   22.0766 C   0  0  0  0  0  0  0  0  0  0  0  0
  -25.4888   -8.4135   23.2945 C   0  0  0  0  0  0  0  0  0  0  0  0
  -27.1150  -15.4371   21.9138 C   0  0  0  0  0  0  0  0  0  0  0  0
  -26.3219   -9.4741   22.8901 C   0  0  0  0  0  0  0  0  0  0  0  0
  -26.9804  -15.7998   20.5660 C   0  0  0  0  0  0  0  0  0  0  0  0
  -26.9821  -21.7598   20.3722 C   0  0  0  0  0  0  0  0  0  0  0  0
  -23.3348  -30.9641   23.4879 C   0  0  0  0  0  0  0  0  0  0  0  0
  -29.1710  -16.8511   20.6430 C   0  0  0  0  0  0  0  0  0  0  0  0
  -25.0597  -32.4396   24.0959 C   0  0  0  0  0  0  0  0  0  0  0  0
  -27.7222  -32.8408   24.8256 C   0  0  0  0  0  0  0  0  0  0  0  0
  -25.5658  -31.8362   25.2471 C   0  0  0  0  0  0  0  0  0  0  0  0
  -22.0815  -26.9954   22.7284 C   0  0  0  0  0  0  0  0  0  0  0  0
  -29.2559  -21.3462   18.9218 C   0  0  0  0  0  0  0  0  0  0  0  0
  -20.9653  -25.2137   22.0845 C   0  0  0  0  0  0  0  0  0  0  0  0
  -19.8462  -27.3749   21.5141 C   0  0  0  0  0  0  0  0  0  0  0  0
  -25.7363  -12.6781   21.1453 C   0  0  0  0  0  0  0  0  0  0  0  0
  -23.3852  -14.6122   20.0254 C   0  0  0  0  0  0  0  0  0  0  0  0
  -22.4758  -17.6824   18.8449 C   0  0  0  0  0  0  0  0  0  0  0  0
  -25.5022  -21.3353   22.3663 C   0  0  0  0  0  0  0  0  0  0  0  0
  -24.3318   -7.9463   22.4473 C   0  0  0  0  0  0  0  0  0  0  0  0
  -26.0069  -14.7050   22.6199 C   0  0  0  0  0  0  0  0  0  0  0  0
  -25.7519  -15.4479   19.7689 C   0  0  0  0  0  0  0  0  0  0  0  0
  -23.8966   -8.9640   21.3961 C   0  0  0  0  0  0  0  0  0  0  0  0
  -32.9205  -21.8980   17.7911 C   0  0  0  0  0  0  0  0  0  0  0  0
  -22.7509  -21.5609   24.6150 C   0  0  0  0  0  0  0  0  0  0  0  0
  -33.4138  -20.4638   17.9085 C   0  0  0  0  0  0  0  0  0  0  0  0
  -25.1099   -9.5231   20.6598 C   0  0  0  0  0  0  0  0  0  0  0  0
  -31.6238  -22.0903   18.5676 C   0  0  0  0  0  0  0  0  0  0  0  0
  -22.1561  -22.9404   24.3228 C   0  0  0  0  0  0  0  0  0  0  0  0
  -24.2753  -21.5678   24.5147 C   0  0  0  0  0  0  0  0  0  0  0  0
  -24.2174  -23.4817   22.9645 C   0  0  0  0  0  0  0  0  0  0  0  0
  -32.3548  -19.4759   17.4508 C   0  0  0  0  0  0  0  0  0  0  0  0
  -26.0503  -10.2567   21.6236 C   0  0  1  0  0  0  0  0  0  0  0  0
  -30.5300  -21.0972   18.1344 C   0  0  1  0  0  0  0  0  0  0  0  0
  -25.0981  -13.9342   21.6673 C   0  0  1  0  0  0  0  0  0  0  0  0
  -22.6805  -23.5094   22.9898 C   0  0  2  0  0  0  0  0  0  0  0  0
  -20.4925  -18.9502   17.9752 C   0  0  0  0  0  0  0  0  0  0  0  0
  -31.7162  -16.7131   18.3637 C   0  0  0  0  0  0  0  0  0  0  0  0
  -23.6167  -13.1421   17.3617 C   0  0  0  0  0  0  0  0  0  0  0  0
  -22.3474  -15.0184   16.2954 C   0  0  0  0  0  0  0  0  0  0  0  0
  -21.2730  -13.6421   18.0770 C   0  0  0  0  0  0  0  0  0  0  0  0
  -22.6336  -19.6629   21.0385 C   0  0  0  0  0  0  0  0  0  0  0  0
  -30.0728  -18.6118   17.8755 C   0  0  0  0  0  0  0  0  0  0  0  0
  -23.0908  -15.2831   18.7054 C   0  0  1  0  0  0  0  0  0  0  0  0
  -21.3179  -18.5966   19.2025 C   0  0  2  0  0  0  0  0  0  0  0  0
  -30.3383  -17.3085   18.6221 C   0  0  2  0  0  0  0  0  0  1  0  0
  -22.6061  -14.2765   17.6241 C   0  0  0  0  0  0  0  0  0  0  0  0
  -29.1171  -20.6638   20.0806 N   0  0  0  0  0  0  0  0  0  0  0  0
  -22.8372  -25.9669   23.1220 N   0  0  0  0  0  0  0  0  0  0  0  0
  -22.1319  -24.8973   22.7163 N   0  0  0  0  0  0  0  0  0  0  0  0
  -24.6988  -14.7263   20.5022 N   0  0  0  0  0  0  0  0  0  0  0  0
  -24.6987  -22.1157   23.2242 N   0  0  0  0  0  0  0  0  0  0  0  0
  -20.1355  -24.2591   21.6127 N   0  0  0  0  0  0  0  0  0  0  0  0
  -19.9445  -27.7631   20.1710 N   0  0  0  0  0  0  0  0  0  0  0  0
  -25.8150  -21.9482   21.1534 N   0  0  0  0  0  0  0  0  0  0  0  0
  -25.5265  -11.5679   21.9409 N   0  0  0  0  0  0  0  0  0  0  0  0
  -22.1419  -16.3530   18.9941 N   0  0  0  0  0  0  0  0  0  0  0  0
  -31.0836  -19.6694   18.2530 N   0  3  1  0  0  0  0  0  0  0  0  0
  -21.8239  -19.8605   19.8087 N   0  3  0  0  0  0  0  0  0  0  0  0
  -18.8524  -27.7391   22.1873 O   0  0  0  0  0  0  0  0  0  0  0  0
  -26.3707  -12.7132   20.0974 O   0  0  0  0  0  0  0  0  0  0  0  0
  -22.4812  -14.0151   20.6152 O   0  0  0  0  0  0  0  0  0  0  0  0
  -23.5663  -18.1053   18.4672 O   0  0  0  0  0  0  0  0  0  0  0  0
  -25.8621  -20.1957   22.6727 O   0  0  0  0  0  0  0  0  0  0  0  0
  -23.7385  -32.2408   23.7319 O   0  0  0  0  0  0  0  0  0  0  0  0
  -30.1702  -17.5343   20.0210 O   0  0  0  0  0  0  0  0  0  1  0  0
  -29.0011  -33.0322   25.1751 F   0  0  0  0  0  0  0  0  0  0  0  0
  -24.7782  -31.0617   26.0059 F   0  0  0  0  0  0  0  0  0  0  0  0
  1  2  1  0  0  0  0
  1  5  2  0  0  0  0
  2  6  2  0  0  0  0
  3  9  2  0  0  0  0
  3 18  1  0  0  0  0
  4 10  1  0  0  0  0
  4 18  2  0  0  0  0
  5 20  1  0  0  0  0
  6 22  1  0  0  0  0
  7 11  2  0  0  0  0
  7 21  1  0  0  0  0
  8 14  2  0  0  0  0
  8 24  1  0  0  0  0
  9 25  1  0  0  0  0
 10 25  2  0  0  0  0
 11 26  1  0  0  0  0
 12 13  2  0  0  0  0
 12 27  1  0  0  0  0
 13 28  1  0  0  0  0
 14 31  1  0  0  0  0
 15 23  1  0  0  0  0
 15 26  2  0  0  0  0
 16 28  2  0  0  0  0
 16 29  1  0  0  0  0
 17 24  2  0  0  0  0
 17 66  1  0  0  0  0
 18 30  1  0  0  0  0
 19 30  1  0  0  0  0
 19 32  2  0  0  0  0
 19 33  1  0  0  0  0
 20 22  2  0  0  0  0
 20 38  1  0  0  0  0
 21 23  2  0  0  0  0
 21 39  1  0  0  0  0
 22 51  1  0  0  0  0
 23 40  1  0  0  0  0
 24 73  1  0  0  0  0
 25 83  1  0  0  0  0
 26 84  1  0  0  0  0
 27 29  2  0  0  0  0
 27 83  1  0  0  0  0
 28 85  1  0  0  0  0
 29 86  1  0  0  0  0
 30 67  2  0  0  0  0
 31 52  1  0  0  0  0
 31 66  2  0  0  0  0
 32 68  1  0  0  0  0
 32 71  1  0  0  0  0
 33 72  1  0  0  0  0
 33 78  2  0  0  0  0
 34 53  1  0  0  0  0
 34 74  1  0  0  0  0
 34 79  2  0  0  0  0
 35 62  1  0  0  0  0
 35 69  1  0  0  0  0
 35 80  2  0  0  0  0
 36 63  1  0  0  0  0
 36 75  1  0  0  0  0
 36 81  2  0  0  0  0
 37 70  1  0  0  0  0
 37 73  1  0  0  0  0
 37 82  2  0  0  0  0
 38 41  1  0  0  0  0
 39 53  1  0  0  0  0
 40 69  1  0  0  0  0
 41 45  1  0  0  0  0
 42 44  1  0  0  0  0
 42 46  1  0  0  0  0
 43 47  1  0  0  0  0
 43 48  1  0  0  0  0
 44 50  1  0  0  0  0
 45 51  1  0  0  0  0
 46 52  1  0  0  0  0
 47 54  1  0  0  0  0
 48 70  1  0  0  0  0
 49 54  1  0  0  0  0
 49 70  1  0  0  0  0
 50 76  1  0  0  0  0
 51 74  1  0  0  0  0
 52 76  1  0  0  0  0
 53 69  1  0  0  0  0
 54 68  1  0  0  0  0
 55 63  1  0  0  0  0
 56 64  1  0  0  0  0
 57 65  1  0  0  0  0
 58 65  1  0  0  0  0
 59 65  1  0  0  0  0
 60 77  1  0  0  0  0
 61 64  1  0  0  0  0
 61 76  1  0  0  0  0
 62 65  1  0  0  0  0
 62 75  1  0  0  0  0
 63 77  1  0  0  0  0
 64 84  1  0  0  0  0
 67 68  1  0  0  0  0
M  CHG  2  76   1  77   1
M  ISO  4  37 100  64 101  73 100  84 101
M  END
> <Batch ID>
0158

> <Smiles>
CNC(C)C(=O)NC(C(=O)N1Cc2cc([101O:1][101CH:1](C)CN3CCCCC3c3ccc([100NH:0][100C:0](=O)N4CCCC(n5nc(-c6ccc(Oc7ccc(F)cc7F)cc6)c(C(N)=O)c5N)C4)cn3)ccc2CC1C(=O)NC1CCCc2ccccc21)C(C)(C)C

> <Shape>
0.217

> <Color>
0.069

> <Negative vol penalty>
0.000

$$$$

  -OEChem-04052303443D

 83 91  0     1  0  0  0  0  0999 V2000
  -27.5718  -32.9032   26.5882 C   0  0  0  0  0  0  0  0  0  0  0  0
  -27.8326  -31.8269   25.7462 C   0  0  0  0  0  0  0  0  0  0  0  0
  -24.1686   -9.7233   22.3144 C   0  0  0  0  0  0  0  0  0  0  0  0
  -24.6221   -8.9005   20.0886 C   0  0  0  0  0  0  0  0  0  0  0  0
  -26.2817  -33.1092   27.0752 C   0  0  0  0  0  0  0  0  0  0  0  0
  -26.8036  -30.9553   25.3916 C   0  0  0  0  0  0  0  0  0  0  0  0
  -26.8126  -29.8472   20.4502 C   0  0  0  0  0  0  0  0  0  0  0  0
  -23.0220   -8.9313   22.3736 C   0  0  0  0  0  0  0  0  0  0  0  0
  -23.4755   -8.1083   20.1478 C   0  0  0  0  0  0  0  0  0  0  0  0
  -27.7474  -28.9115   20.0092 C   0  0  0  0  0  0  0  0  0  0  0  0
  -22.2639   -5.6840   22.9334 C   0  0  0  0  0  0  0  0  0  0  0  0
  -22.0377   -4.9572   24.1022 C   0  0  0  0  0  0  0  0  0  0  0  0
  -32.1001  -20.2776   20.7799 C   0  0  0  0  0  0  0  0  0  0  0  0
  -29.7846  -20.9667   20.7862 C   0  0  0  0  0  0  0  0  0  0  0  0
  -26.0365  -27.2109   20.0098 C   0  0  0  0  0  0  0  0  0  0  0  0
  -31.5157  -22.5537   20.2190 C   0  0  0  0  0  0  0  0  0  0  0  0
  -19.9460   -6.1232   24.4224 C   0  0  0  0  0  0  0  0  0  0  0  0
  -24.9686   -9.7080   21.1719 C   0  0  0  0  0  0  0  0  0  0  0  0
  -30.7513  -19.9783   20.9711 C   0  0  0  0  0  0  0  0  0  0  0  0
  -27.4552  -10.1688   21.5073 C   0  0  0  0  0  0  0  0  0  0  0  0
  -25.2343  -32.2453   26.7186 C   0  0  0  0  0  0  0  0  0  0  0  0
  -25.4830  -29.4687   20.6852 C   0  0  0  0  0  0  0  0  0  0  0  0
  -25.4985  -31.1491   25.8753 C   0  0  0  0  0  0  0  0  0  0  0  0
  -25.0862  -28.1443   20.4513 C   0  0  0  0  0  0  0  0  0  0  0  0
  -32.4824  -21.5653   20.4039 C   0  0  0  0  0  0  0  0  0  0  0  0
  -30.1668  -22.2545   20.4102 C   0  0  0  0  0  0  0  0  0  0  0  0
  -22.6755   -8.1238   21.2904 C   0  0  0  0  0  0  0  0  0  0  0  0
  -27.3601  -27.5925   19.7917 C   0  0  0  0  0  0  0  0  0  0  0  0
  -21.3312   -6.6304   22.5090 C   0  0  0  0  0  0  0  0  0  0  0  0
  -20.8788   -5.1768   24.8467 C   0  0  0  0  0  0  0  0  0  0  0  0
  -20.1722   -6.8500   23.2535 C   0  0  0  0  0  0  0  0  0  0  0  0
  -26.1529  -10.5264   21.1099 C   0  0  0  0  0  0  0  0  0  0  0  0
  -28.2121  -11.2851   21.2479 C   0  0  0  0  0  0  0  0  0  0  0  0
  -30.3527  -18.6355   21.3632 C   0  0  0  0  0  0  0  0  0  0  0  0
  -29.1179  -18.1104   21.2149 C   0  0  0  0  0  0  0  0  0  0  0  0
  -27.9376   -8.9375   22.0613 C   0  0  0  0  0  0  0  0  0  0  0  0
  -28.8716  -16.7225   21.6552 C   0  0  0  0  0  0  0  0  0  0  0  0
  -23.5803  -29.4224   23.2311 C   0  0  0  0  0  0  0  0  0  0  0  0
  -21.3332  -28.5725   21.0515 C   0  0  0  0  0  0  0  0  0  0  0  0
  -29.3896  -24.5820   19.8509 C   0  0  0  0  0  0  0  0  0  0  0  0
  -20.6200  -27.1880   18.0149 C   0  0  0  0  0  0  0  0  0  0  0  0
  -23.8662  -32.4811   27.3079 C   0  0  0  0  0  0  0  0  0  0  0  0
  -24.4807  -30.4960   21.1352 C   0  0  0  0  0  0  0  0  0  0  0  0
  -23.6663  -27.6916   20.6692 C   0  0  0  0  0  0  0  0  0  0  0  0
  -22.7531  -31.7281   26.5839 C   0  0  0  0  0  0  0  0  0  0  0  0
  -27.1331  -15.4860   18.6751 C   0  0  0  0  0  0  0  0  0  0  0  0
  -23.1598  -30.2781   26.3412 C   0  0  0  0  0  0  0  0  0  0  0  0
  -26.7898  -14.0623   19.1051 C   0  0  0  0  0  0  0  0  0  0  0  0
  -27.0873  -16.4642   19.8480 C   0  0  0  0  0  0  0  0  0  0  0  0
  -27.5940  -14.6271   21.4319 C   0  0  0  0  0  0  0  0  0  0  0  0
  -24.4035  -30.1960   25.4480 C   0  0  1  0  0  0  0  0  0  0  0  0
  -23.2711  -29.8841   21.8350 C   0  0  1  0  0  0  0  0  0  0  0  0
  -27.6799  -13.6177   20.2764 C   0  0  1  0  0  0  0  0  0  0  0  0
  -18.6900  -26.5957   16.5244 C   0  0  0  0  0  0  0  0  0  0  0  0
  -20.7133  -26.1618   22.8163 C   0  0  0  0  0  0  0  0  0  0  0  0
  -19.5101  -25.1375   20.8744 C   0  0  0  0  0  0  0  0  0  0  0  0
  -18.7027  -27.2886   21.8456 C   0  0  0  0  0  0  0  0  0  0  0  0
  -21.5757  -28.9869   15.8679 C   0  0  0  0  0  0  0  0  0  0  0  0
  -28.0681  -25.3223   19.7619 C   0  0  0  0  0  0  0  0  0  1  0  0
  -20.8337  -27.2653   20.4852 C   0  0  1  0  0  0  0  0  0  0  0  0
  -19.7233  -27.6528   16.8815 C   0  0  2  0  0  0  0  0  0  0  0  0
  -19.9672  -26.4711   21.5030 C   0  0  0  0  0  0  0  0  0  0  0  0
  -26.0829  -11.7726   20.6344 N   0  0  0  0  0  0  0  0  0  0  0  0
  -27.3507  -12.2078   20.7314 N   0  0  0  0  0  0  0  0  0  0  0  0
  -27.8997  -15.9883   20.9778 N   0  0  0  0  0  0  0  0  0  0  0  0
  -22.7248  -28.7317   21.1154 N   0  0  0  0  0  0  0  0  0  0  0  0
  -33.8463  -21.8681   20.2107 N   0  0  0  0  0  0  0  0  0  0  0  0
  -29.5238  -11.5577   21.4136 N   0  0  0  0  0  0  0  0  0  0  0  0
  -27.0254   -7.8926   22.2625 N   0  0  0  0  0  0  0  0  0  0  0  0
  -29.1862  -23.2574   20.2227 N   0  0  0  0  0  0  0  0  0  0  0  0
  -24.0473  -30.4216   24.0636 N   0  0  0  0  0  0  0  0  0  0  0  0
  -20.1438  -27.5957   19.2430 N   0  0  0  0  0  0  0  0  0  0  0  0
  -20.5345  -27.9466   15.6664 N   0  3  0  0  0  0  0  0  0  0  0  0
  -29.1387   -8.7744   22.3840 O   0  0  0  0  0  0  0  0  0  0  0  0
  -29.5392  -16.2989   22.6005 O   0  0  0  0  0  0  0  0  0  0  0  0
  -23.4067  -28.2471   23.5311 O   0  0  0  0  0  0  0  0  0  0  0  0
  -20.5188  -29.4238   21.4169 O   0  0  0  0  0  0  0  0  0  0  0  0
  -30.4559  -25.1398   19.6132 O   0  0  0  0  0  0  0  0  0  0  0  0
  -21.6388  -26.5261   17.8295 O   0  0  0  0  0  0  0  0  0  0  0  0
  -21.5568   -7.3505   21.3479 O   0  0  0  0  0  0  0  0  0  0  0  0
  -28.2706  -26.6771   19.3619 O   0  0  0  0  0  0  0  0  0  1  0  0
  -20.6609   -4.4778   25.9684 F   0  0  0  0  0  0  0  0  0  0  0  0
  -19.2720   -7.7570   22.8502 F   0  0  0  0  0  0  0  0  0  0  0  0
  1  2  1  0  0  0  0
  1  5  2  0  0  0  0
  2  6  2  0  0  0  0
  3  8  2  0  0  0  0
  3 18  1  0  0  0  0
  4  9  1  0  0  0  0
  4 18  2  0  0  0  0
  5 21  1  0  0  0  0
  6 23  1  0  0  0  0
  7 10  2  0  0  0  0
  7 22  1  0  0  0  0
  8 27  1  0  0  0  0
  9 27  2  0  0  0  0
 10 28  1  0  0  0  0
 11 12  2  0  0  0  0
 11 29  1  0  0  0  0
 12 30  1  0  0  0  0
 13 19  2  0  0  0  0
 13 25  1  0  0  0  0
 14 19  1  0  0  0  0
 14 26  2  0  0  0  0
 15 24  1  0  0  0  0
 15 28  2  0  0  0  0
 16 25  2  0  0  0  0
 16 26  1  0  0  0  0
 17 30  2  0  0  0  0
 17 31  1  0  0  0  0
 18 32  1  0  0  0  0
 19 34  1  0  0  0  0
 20 32  1  0  0  0  0
 20 33  2  0  0  0  0
 20 36  1  0  0  0  0
 21 23  2  0  0  0  0
 21 42  1  0  0  0  0
 22 24  2  0  0  0  0
 22 43  1  0  0  0  0
 23 51  1  0  0  0  0
 24 44  1  0  0  0  0
 25 67  1  0  0  0  0
 26 70  1  0  0  0  0
 27 80  1  0  0  0  0
 28 81  1  0  0  0  0
 29 31  2  0  0  0  0
 29 80  1  0  0  0  0
 30 82  1  0  0  0  0
 31 83  1  0  0  0  0
 32 63  2  0  0  0  0
 33 64  1  0  0  0  0
 33 68  1  0  0  0  0
 34 35  2  0  0  0  0
 35 37  1  0  0  0  0
 36 69  1  0  0  0  0
 36 74  2  0  0  0  0
 37 65  1  0  0  0  0
 37 75  2  0  0  0  0
 38 52  1  0  0  0  0
 38 71  1  0  0  0  0
 38 76  2  0  0  0  0
 39 60  1  0  0  0  0
 39 66  1  0  0  0  0
 39 77  2  0  0  0  0
 40 59  1  0  0  0  0
 40 70  1  0  0  0  0
 40 78  2  0  0  0  0
 41 61  1  0  0  0  0
 41 72  1  0  0  0  0
 41 79  2  0  0  0  0
 42 45  1  0  0  0  0
 43 52  1  0  0  0  0
 44 66  1  0  0  0  0
 45 47  1  0  0  0  0
 46 48  1  0  0  0  0
 46 49  1  0  0  0  0
 47 51  1  0  0  0  0
 48 53  1  0  0  0  0
 49 65  1  0  0  0  0
 50 53  1  0  0  0  0
 50 65  1  0  0  0  0
 51 71  1  0  0  0  0
 52 66  1  0  0  0  0
 53 64  1  0  0  0  0
 54 61  1  0  0  0  0
 55 62  1  0  0  0  0
 56 62  1  0  0  0  0
 57 62  1  0  0  0  0
 58 73  1  0  0  0  0
 59 81  1  0  0  0  0
 60 62  1  0  0  0  0
 60 72  1  0  0  0  0
 61 73  1  0  0  0  0
 63 64  1  0  0  0  0
M  CHG  1  73   1
M  ISO  4  35 100  37 100  59 101  81 101
M  END
> <Batch ID>
0158

> <Smiles>
CNC(C)C(=O)NC(C(=O)N1Cc2cc([101O:1][101CH2:1]C(=O)Nc3cc(N)cc(C=[100CH:0][100C:0](=O)N4CCCC(n5nc(-c6ccc(Oc7ccc(F)cc7F)cc6)c(C(N)=O)c5N)C4)c3)ccc2CC1C(=O)NC1CCCc2ccccc21)C(C)(C)C

> <Shape>
0.308

> <Color>
0.118

> <Negative vol penalty>
0.000

$$$$

  -OEChem-04052303443D

 85 94  0     1  0  0  0  0  0999 V2000
  -28.5765  -12.1446   18.5821 C   0  0  0  0  0  0  0  0  0  0  0  0
  -28.4092  -13.5030   18.3329 C   0  0  0  0  0  0  0  0  0  0  0  0
  -29.5575  -26.0487   19.9698 C   0  0  0  0  0  0  0  0  0  0  0  0
  -27.7401  -24.4618   20.0970 C   0  0  0  0  0  0  0  0  0  0  0  0
  -27.6190  -11.4491   19.3192 C   0  0  0  0  0  0  0  0  0  0  0  0
  -27.2836  -14.1666   18.8199 C   0  0  0  0  0  0  0  0  0  0  0  0
  -25.2072  -20.5604   21.2945 C   0  0  0  0  0  0  0  0  0  0  0  0
  -30.4441  -25.0692   20.4171 C   0  0  0  0  0  0  0  0  0  0  0  0
  -28.6268  -23.4823   20.5443 C   0  0  0  0  0  0  0  0  0  0  0  0
  -24.2276  -21.5301   21.0850 C   0  0  0  0  0  0  0  0  0  0  0  0
  -30.4746  -20.4635   21.3752 C   0  0  0  0  0  0  0  0  0  0  0  0
  -30.3815  -19.1941   20.8047 C   0  0  0  0  0  0  0  0  0  0  0  0
  -22.6787  -20.2437   22.4137 C   0  0  0  0  0  0  0  0  0  0  0  0
  -20.0995  -26.8841   22.0636 C   0  0  0  0  0  0  0  0  0  0  0  0
  -17.8707  -27.3470   22.8399 C   0  0  0  0  0  0  0  0  0  0  0  0
  -30.8407  -20.1384   18.6288 C   0  0  0  0  0  0  0  0  0  0  0  0
  -28.2055  -25.7450   19.8098 C   0  0  0  0  0  0  0  0  0  0  0  0
  -26.9430  -27.0456   18.0147 C   0  0  0  0  0  0  0  0  0  0  0  0
  -26.4859  -12.1066   19.8237 C   0  0  0  0  0  0  0  0  0  0  0  0
  -24.9261  -19.4179   22.0574 C   0  0  0  0  0  0  0  0  0  0  0  0
  -26.3093  -13.4789   19.5633 C   0  0  0  0  0  0  0  0  0  0  0  0
  -23.6573  -19.2623   22.6335 C   0  0  0  0  0  0  0  0  0  0  0  0
  -18.7939  -26.4636   22.2916 C   0  0  0  0  0  0  0  0  0  0  0  0
  -29.9788  -23.7860   20.7043 C   0  0  0  0  0  0  0  0  0  0  0  0
  -22.9622  -21.3704   21.6422 C   0  0  0  0  0  0  0  0  0  0  0  0
  -30.7507  -21.5704   20.5726 C   0  0  0  0  0  0  0  0  0  0  0  0
  -30.5645  -19.0315   19.4315 C   0  0  0  0  0  0  0  0  0  0  0  0
  -30.9338  -21.4078   19.1994 C   0  0  0  0  0  0  0  0  0  0  0  0
  -27.2890  -26.7566   19.3483 C   0  0  0  0  0  0  0  0  0  0  0  0
  -20.4289  -28.1876   22.3986 C   0  0  0  0  0  0  0  0  0  0  0  0
  -18.2999  -28.6297   23.1403 C   0  0  0  0  0  0  0  0  0  0  0  0
  -26.0450  -28.0804   18.1095 C   0  0  0  0  0  0  0  0  0  0  0  0
  -19.2355  -24.0422   22.6370 C   0  0  0  0  0  0  0  0  0  0  0  0
  -19.8236  -23.2284   21.7515 C   0  0  0  0  0  0  0  0  0  0  0  0
  -27.3931  -26.4333   16.7989 C   0  0  0  0  0  0  0  0  0  0  0  0
  -24.8734  -16.2925   21.4803 C   0  0  0  0  0  0  0  0  0  0  0  0
  -24.3563  -16.1059   24.6772 C   0  0  0  0  0  0  0  0  0  0  0  0
  -23.2357  -17.6182   27.5240 C   0  0  0  0  0  0  0  0  0  0  0  0
  -22.3105  -29.8626   22.4202 C   0  0  0  0  0  0  0  0  0  0  0  0
  -25.4545  -11.3025   20.5749 C   0  0  0  0  0  0  0  0  0  0  0  0
  -26.0019  -18.3941   22.2962 C   0  0  0  0  0  0  0  0  0  0  0  0
  -23.3111  -18.0637   23.4774 C   0  0  0  0  0  0  0  0  0  0  0  0
  -19.4520  -23.5967   20.3525 C   0  0  0  0  0  0  0  0  0  0  0  0
  -24.4773  -12.1605   21.3744 C   0  0  0  0  0  0  0  0  0  0  0  0
  -24.8909  -31.7928   20.9060 C   0  0  0  0  0  0  0  0  0  0  0  0
  -23.9649  -13.3188   20.5244 C   0  0  0  0  0  0  0  0  0  0  0  0
  -25.7638  -30.7472   20.2083 C   0  0  0  0  0  0  0  0  0  0  0  0
  -24.3442  -31.2786   22.2366 C   0  0  0  0  0  0  0  0  0  0  0  0
  -24.5156  -28.9450   21.4657 C   0  0  0  0  0  0  0  0  0  0  0  0
  -18.3858  -25.0723   21.9497 C   0  0  2  0  0  0  0  0  0  0  0  0
  -25.1141  -14.2392   20.0958 C   0  0  1  0  0  0  0  0  0  0  0  0
  -25.4487  -17.0203   22.6623 C   0  0  1  0  0  0  0  0  0  0  0  0
  -25.0362  -29.3936   20.0904 C   0  0  2  0  0  0  0  0  0  0  0  0
  -22.9038  -17.2014   29.9762 C   0  0  0  0  0  0  0  0  0  0  0  0
  -21.8963  -14.4118   24.0539 C   0  0  0  0  0  0  0  0  0  0  0  0
  -21.1035  -14.8278   26.3921 C   0  0  0  0  0  0  0  0  0  0  0  0
  -23.2469  -13.6129   26.0012 C   0  0  0  0  0  0  0  0  0  0  0  0
  -17.6650  -30.8635   24.0527 C   0  0  0  0  0  0  0  0  0  0  0  0
  -25.0843  -19.8075   28.2645 C   0  0  0  0  0  0  0  0  0  0  0  0
  -20.7297  -22.0874   22.0392 C   0  0  0  0  0  0  0  0  0  1  0  0
  -23.1347  -16.1006   25.5641 C   0  0  1  0  0  0  0  0  0  0  0  0
  -23.8459  -17.7363   28.9090 C   0  0  2  0  0  0  0  0  0  0  0  0
  -22.3510  -14.7600   25.4854 C   0  0  0  0  0  0  0  0  0  0  0  0
  -26.6620  -27.5443   20.2260 N   0  0  0  0  0  0  0  0  0  0  0  0
  -19.5596  -29.0744   22.9329 N   0  0  0  0  0  0  0  0  0  0  0  0
  -25.9130  -28.3386   19.4422 N   0  0  0  0  0  0  0  0  0  0  0  0
  -24.3948  -17.0874   23.6767 N   0  0  0  0  0  0  0  0  0  0  0  0
  -23.6646  -29.9953   22.0466 N   0  0  0  0  0  0  0  0  0  0  0  0
  -25.3632  -28.7857   17.1820 N   0  0  0  0  0  0  0  0  0  0  0  0
  -28.3172  -25.3828   16.8821 N   0  0  0  0  0  0  0  0  0  0  0  0
  -21.7616  -28.6068   22.1624 N   0  0  0  0  0  0  0  0  0  0  0  0
  -17.3478  -29.5185   23.6986 N   0  0  0  0  0  0  0  0  0  0  0  0
  -25.5078  -15.0995   21.1909 N   0  0  0  0  0  0  0  0  0  0  0  0
  -23.6011  -16.4422   26.9035 N   0  0  0  0  0  0  0  0  0  0  0  0
  -18.5206  -24.7772   20.4632 N   0  3  0  0  0  0  0  0  0  0  0  0
  -24.1494  -19.1615   29.2214 N   0  3  0  0  0  0  0  0  0  0  0  0
  -27.0004  -26.8175   15.6712 O   0  0  0  0  0  0  0  0  0  0  0  0
  -23.9233  -16.7767   20.8766 O   0  0  0  0  0  0  0  0  0  0  0  0
  -25.2470  -15.2744   24.8698 O   0  0  0  0  0  0  0  0  0  0  0  0
  -22.5048  -18.4808   27.0423 O   0  0  0  0  0  0  0  0  0  0  0  0
  -21.6762  -30.8025   22.9062 O   0  0  0  0  0  0  0  0  0  0  0  0
  -30.8437  -22.8299   21.1406 O   0  0  0  0  0  0  0  0  0  0  0  0
  -22.0040  -22.3151   21.4388 O   0  0  0  0  0  0  0  0  0  1  0  0
  -30.4766  -17.8122   18.8840 F   0  0  0  0  0  0  0  0  0  0  0  0
  -31.2005  -22.4672   18.4233 F   0  0  0  0  0  0  0  0  0  0  0  0
  1  2  1  0  0  0  0
  1  5  2  0  0  0  0
  2  6  2  0  0  0  0
  3  8  2  0  0  0  0
  3 17  1  0  0  0  0
  4  9  1  0  0  0  0
  4 17  2  0  0  0  0
  5 19  1  0  0  0  0
  6 21  1  0  0  0  0
  7 10  2  0  0  0  0
  7 20  1  0  0  0  0
  8 24  1  0  0  0  0
  9 24  2  0  0  0  0
 10 25  1  0  0  0  0
 11 12  2  0  0  0  0
 11 26  1  0  0  0  0
 12 27  1  0  0  0  0
 13 22  1  0  0  0  0
 13 25  2  0  0  0  0
 14 23  1  0  0  0  0
 14 30  2  0  0  0  0
 15 23  2  0  0  0  0
 15 31  1  0  0  0  0
 16 27  2  0  0  0  0
 16 28  1  0  0  0  0
 17 29  1  0  0  0  0
 18 29  1  0  0  0  0
 18 32  2  0  0  0  0
 18 35  1  0  0  0  0
 19 21  2  0  0  0  0
 19 40  1  0  0  0  0
 20 22  2  0  0  0  0
 20 41  1  0  0  0  0
 21 51  1  0  0  0  0
 22 42  1  0  0  0  0
 23 50  1  0  0  0  0
 24 82  1  0  0  0  0
 25 83  1  0  0  0  0
 26 28  2  0  0  0  0
 26 82  1  0  0  0  0
 27 84  1  0  0  0  0
 28 85  1  0  0  0  0
 29 64  2  0  0  0  0
 30 65  1  0  0  0  0
 30 71  1  0  0  0  0
 31 65  2  0  0  0  0
 31 72  1  0  0  0  0
 32 66  1  0  0  0  0
 32 69  1  0  0  0  0
 33 34  2  0  0  0  0
 33 50  1  0  0  0  0
 34 43  1  0  0  0  0
 34 60  1  0  0  0  0
 35 70  1  0  0  0  0
 35 77  2  0  0  0  0
 36 52  1  0  0  0  0
 36 73  1  0  0  0  0
 36 78  2  0  0  0  0
 37 61  1  0  0  0  0
 37 67  1  0  0  0  0
 37 79  2  0  0  0  0
 38 62  1  0  0  0  0
 38 74  1  0  0  0  0
 38 80  2  0  0  0  0
 39 68  1  0  0  0  0
 39 71  1  0  0  0  0
 39 81  2  0  0  0  0
 40 44  1  0  0  0  0
 41 52  1  0  0  0  0
 42 67  1  0  0  0  0
 43 75  1  0  0  0  0
 44 46  1  0  0  0  0
 45 47  1  0  0  0  0
 45 48  1  0  0  0  0
 46 51  1  0  0  0  0
 47 53  1  0  0  0  0
 48 68  1  0  0  0  0
 49 53  1  0  0  0  0
 49 68  1  0  0  0  0
 50 75  1  0  0  0  0
 51 73  1  0  0  0  0
 52 67  1  0  0  0  0
 53 66  1  0  0  0  0
 54 62  1  0  0  0  0
 55 63  1  0  0  0  0
 56 63  1  0  0  0  0
 57 63  1  0  0  0  0
 58 72  1  0  0  0  0
 59 76  1  0  0  0  0
 60 83  1  0  0  0  0
 61 63  1  0  0  0  0
 61 74  1  0  0  0  0
 62 76  1  0  0  0  0
 64 66  1  0  0  0  0
M  CHG  2  75   1  76   1
M  ISO  4  39 100  60 101  71 100  83 101
M  END
> <Batch ID>
0158

> <Smiles>
CNc1cc(C2C=C([101CH2:1][101O:1]c3ccc4c(c3)CN(C(=O)C(NC(=O)C(C)NC)C(C)(C)C)C(C(=O)NC3CCCc5ccccc53)C4)CN2)cc([100NH:0][100C:0](=O)N2CCCC(n3nc(-c4ccc(Oc5ccc(F)cc5F)cc4)c(C(N)=O)c3N)C2)n1

> <Shape>
0.233

> <Color>
0.073

> <Negative vol penalty>
0.000

$$$$

  -OEChem-04052303443D

 87 96  0     1  0  0  0  0  0999 V2000
  -22.9460  -33.2453   14.6945 C   0  0  0  0  0  0  0  0  0  0  0  0
  -23.9618  -32.4185   15.1639 C   0  0  0  0  0  0  0  0  0  0  0  0
  -21.4860  -13.2412   21.8197 C   0  0  0  0  0  0  0  0  0  0  0  0
  -21.7499  -15.0612   20.2530 C   0  0  0  0  0  0  0  0  0  0  0  0
  -22.4129  -34.2317   15.5231 C   0  0  0  0  0  0  0  0  0  0  0  0
  -24.4457  -32.5786   16.4618 C   0  0  0  0  0  0  0  0  0  0  0  0
  -25.0087  -28.1666   18.8830 C   0  0  0  0  0  0  0  0  0  0  0  0
  -20.1333  -13.5536   21.9549 C   0  0  0  0  0  0  0  0  0  0  0  0
  -20.3972  -15.3737   20.3881 C   0  0  0  0  0  0  0  0  0  0  0  0
  -26.1326  -27.4050   18.5656 C   0  0  0  0  0  0  0  0  0  0  0  0
  -17.2773  -13.0629   20.2128 C   0  0  0  0  0  0  0  0  0  0  0  0
  -16.3625  -12.0104   20.1804 C   0  0  0  0  0  0  0  0  0  0  0  0
  -29.3273  -19.8059   18.2808 C   0  0  0  0  0  0  0  0  0  0  0  0
  -28.7986  -20.7564   16.1235 C   0  0  0  0  0  0  0  0  0  0  0  0
  -27.2345  -28.2136   20.5534 C   0  0  0  0  0  0  0  0  0  0  0  0
  -27.9197  -18.5914   16.7379 C   0  0  0  0  0  0  0  0  0  0  0  0
  -15.6146  -12.5921   22.4029 C   0  0  0  0  0  0  0  0  0  0  0  0
  -22.2943  -13.9950   20.9688 C   0  0  0  0  0  0  0  0  0  0  0  0
  -29.4441  -20.8443   17.3570 C   0  0  0  0  0  0  0  0  0  0  0  0
  -24.2435  -12.4594   20.3770 C   0  0  0  0  0  0  0  0  0  0  0  0
  -22.8839  -34.3976   16.8351 C   0  0  0  0  0  0  0  0  0  0  0  0
  -24.9935  -28.9673   20.0342 C   0  0  0  0  0  0  0  0  0  0  0  0
  -23.9193  -33.5691   17.3082 C   0  0  0  0  0  0  0  0  0  0  0  0
  -26.1083  -28.9825   20.8845 C   0  0  0  0  0  0  0  0  0  0  0  0
  -28.5651  -18.6794   17.9713 C   0  0  0  0  0  0  0  0  0  0  0  0
  -19.5889  -14.6199   21.2391 C   0  0  0  0  0  0  0  0  0  0  0  0
  -27.2468  -27.4307   19.3993 C   0  0  0  0  0  0  0  0  0  0  0  0
  -17.3608  -13.8799   21.3402 C   0  0  0  0  0  0  0  0  0  0  0  0
  -15.5311  -11.7751   21.2754 C   0  0  0  0  0  0  0  0  0  0  0  0
  -28.0364  -19.6299   15.8140 C   0  0  0  0  0  0  0  0  0  0  0  0
  -16.5294  -13.6446   22.4353 C   0  0  0  0  0  0  0  0  0  0  0  0
  -23.6918  -13.6731   20.8292 C   0  0  0  0  0  0  0  0  0  0  0  0
  -25.6014  -12.6593   20.4285 C   0  0  0  0  0  0  0  0  0  0  0  0
  -30.2503  -22.0342   17.6829 C   0  0  0  0  0  0  0  0  0  0  0  0
  -23.5873  -11.2588   19.9487 C   0  0  0  0  0  0  0  0  0  0  0  0
  -24.7211  -32.0841   20.5953 C   0  0  0  0  0  0  0  0  0  0  0  0
  -24.6386  -31.1234   23.6925 C   0  0  0  0  0  0  0  0  0  0  0  0
  -26.3637  -28.7121   25.7485 C   0  0  0  0  0  0  0  0  0  0  0  0
  -29.0195  -17.5541   20.1789 C   0  0  0  0  0  0  0  0  0  0  0  0
  -22.3093  -35.5087   17.6776 C   0  0  0  0  0  0  0  0  0  0  0  0
  -23.7634  -29.7623   20.3767 C   0  0  0  0  0  0  0  0  0  0  0  0
  -26.1347  -29.8097   22.1429 C   0  0  0  0  0  0  0  0  0  0  0  0
  -22.6188  -35.3672   19.1657 C   0  0  0  0  0  0  0  0  0  0  0  0
  -28.9327  -15.1491   22.8030 C   0  0  0  0  0  0  0  0  0  0  0  0
  -24.0924  -35.0333   19.3751 C   0  0  0  0  0  0  0  0  0  0  0  0
  -27.6321  -14.3832   22.5499 C   0  0  0  0  0  0  0  0  0  0  0  0
  -29.8570  -24.9338   19.8457 C   0  0  0  0  0  0  0  0  0  0  0  0
  -27.6818  -24.4469   18.5928 C   0  0  0  0  0  0  0  0  0  0  0  0
  -28.7890  -16.6344   22.4759 C   0  0  0  0  0  0  0  0  0  0  0  0
  -30.4648  -24.2721   18.6159 C   0  0  0  0  0  0  0  0  0  0  0  0
  -28.2335  -23.0276   18.6157 C   0  0  0  0  0  0  0  0  0  0  0  0
  -26.9736  -16.1614   20.8791 C   0  0  0  0  0  0  0  0  0  0  0  0
  -24.4537  -33.6955   18.7184 C   0  0  1  0  0  0  0  0  0  0  0  0
  -24.0516  -30.9399   21.3027 C   0  0  1  0  0  0  0  0  0  0  0  0
  -27.0881  -14.6493   21.1326 C   0  0  2  0  0  0  0  0  0  0  0  0
  -28.3963  -25.3584   19.6073 C   0  0  0  0  0  0  0  0  0  1  0  0
  -25.6222  -27.5079   27.8215 C   0  0  0  0  0  0  0  0  0  0  0  0
  -26.0224  -33.4091   25.1658 C   0  0  0  0  0  0  0  0  0  0  0  0
  -26.8200  -31.7437   26.8565 C   0  0  0  0  0  0  0  0  0  0  0  0
  -24.3751  -32.1263   26.5426 C   0  0  0  0  0  0  0  0  0  0  0  0
  -26.9293  -26.0646   24.5527 C   0  0  0  0  0  0  0  0  0  0  0  0
  -25.6733  -30.8825   24.7650 C   0  0  1  0  0  0  0  0  0  0  0  0
  -25.7918  -27.4240   26.3125 C   0  0  2  0  0  0  0  0  0  0  0  0
  -25.7288  -32.0371   25.8049 C   0  0  0  0  0  0  0  0  0  0  0  0
  -24.6231  -14.5770   21.1448 N   0  0  0  0  0  0  0  0  0  0  0  0
  -25.7738  -13.9308   20.8907 N   0  0  0  0  0  0  0  0  0  0  0  0
  -29.6734  -23.0686   18.2803 N   0  0  0  0  0  0  0  0  0  0  0  0
  -24.9102  -30.5746   22.4312 N   0  0  0  0  0  0  0  0  0  0  0  0
  -28.2731  -16.8094   21.1164 N   0  0  0  0  0  0  0  0  0  0  0  0
  -26.6529  -11.8696   20.1232 N   0  0  0  0  0  0  0  0  0  0  0  0
  -22.1862  -11.2235   19.9579 N   0  0  0  0  0  0  0  0  0  0  0  0
  -28.4452  -17.6249   18.9102 N   0  0  0  0  0  0  0  0  0  0  0  0
  -23.9954  -32.5918   19.5346 N   0  0  0  0  0  0  0  0  0  0  0  0
  -25.3701  -29.5758   25.3386 N   0  0  0  0  0  0  0  0  0  0  0  0
  -31.5438  -22.0515   17.3747 N   0  3  0  0  0  0  0  0  0  0  0  0
  -26.6932  -26.2781   26.0038 N   0  3  0  0  0  0  0  0  0  0  0  0
  -24.2247  -10.2416   19.5847 O   0  0  0  0  0  0  0  0  0  0  0  0
  -25.8144  -32.4782   20.9840 O   0  0  0  0  0  0  0  0  0  0  0  0
  -23.6233  -31.7685   23.9657 O   0  0  0  0  0  0  0  0  0  0  0  0
  -27.5711  -28.9318   25.6818 O   0  0  0  0  0  0  0  0  0  0  0  0
  -30.1028  -18.0667   20.4719 O   0  0  0  0  0  0  0  0  0  0  0  0
  -27.7300  -25.3127   20.8690 O   0  0  0  0  0  0  0  0  0  0  0  0
  -18.2690  -14.9249   21.3705 O   0  0  0  0  0  0  0  0  0  0  0  0
  -28.3452  -26.6887   19.0915 O   0  0  0  0  0  0  0  0  0  1  0  0
  -14.6516  -10.7653   21.2436 F   0  0  0  0  0  0  0  0  0  0  0  0
  -27.4167  -19.5455   14.6295 F   0  0  0  0  0  0  0  0  0  0  0  0
  -16.6043  -14.4269   23.5207 F   0  0  0  0  0  0  0  0  0  0  0  0
  1  2  1  0  0  0  0
  1  5  2  0  0  0  0
  2  6  2  0  0  0  0
  3  8  2  0  0  0  0
  3 18  1  0  0  0  0
  4  9  1  0  0  0  0
  4 18  2  0  0  0  0
  5 21  1  0  0  0  0
  6 23  1  0  0  0  0
  7 10  2  0  0  0  0
  7 22  1  0  0  0  0
  8 26  1  0  0  0  0
  9 26  2  0  0  0  0
 10 27  1  0  0  0  0
 11 12  2  0  0  0  0
 11 28  1  0  0  0  0
 12 29  1  0  0  0  0
 13 19  2  0  0  0  0
 13 25  1  0  0  0  0
 14 19  1  0  0  0  0
 14 30  2  0  0  0  0
 15 24  1  0  0  0  0
 15 27  2  0  0  0  0
 16 25  2  0  0  0  0
 16 30  1  0  0  0  0
 17 29  2  0  0  0  0
 17 31  1  0  0  0  0
 18 32  1  0  0  0  0
 19 34  1  0  0  0  0
 20 32  1  0  0  0  0
 20 33  2  0  0  0  0
 20 35  1  0  0  0  0
 21 23  2  0  0  0  0
 21 40  1  0  0  0  0
 22 24  2  0  0  0  0
 22 41  1  0  0  0  0
 23 53  1  0  0  0  0
 24 42  1  0  0  0  0
 25 72  1  0  0  0  0
 26 83  1  0  0  0  0
 27 84  1  0  0  0  0
 28 31  2  0  0  0  0
 28 83  1  0  0  0  0
 29 85  1  0  0  0  0
 30 86  1  0  0  0  0
 31 87  1  0  0  0  0
 32 65  2  0  0  0  0
 33 66  1  0  0  0  0
 33 70  1  0  0  0  0
 34 67  1  0  0  0  0
 34 75  2  0  0  0  0
 35 71  1  0  0  0  0
 35 77  2  0  0  0  0
 36 54  1  0  0  0  0
 36 73  1  0  0  0  0
 36 78  2  0  0  0  0
 37 62  1  0  0  0  0
 37 68  1  0  0  0  0
 37 79  2  0  0  0  0
 38 63  1  0  0  0  0
 38 74  1  0  0  0  0
 38 80  2  0  0  0  0
 39 69  1  0  0  0  0
 39 72  1  0  0  0  0
 39 81  2  0  0  0  0
 40 43  1  0  0  0  0
 41 54  1  0  0  0  0
 42 68  1  0  0  0  0
 43 45  1  0  0  0  0
 44 46  1  0  0  0  0
 44 49  1  0  0  0  0
 45 53  1  0  0  0  0
 46 55  1  0  0  0  0
 47 50  1  0  0  0  0
 47 56  1  0  0  0  0
 48 51  1  0  0  0  0
 48 56  1  0  0  0  0
 49 69  1  0  0  0  0
 50 67  1  0  0  0  0
 51 67  1  0  0  0  0
 52 55  1  0  0  0  0
 52 69  1  0  0  0  0
 53 73  1  0  0  0  0
 54 68  1  0  0  0  0
 55 66  1  0  0  0  0
 56 82  1  0  0  0  0
 56 84  1  0  0  0  0
 57 63  1  0  0  0  0
 58 64  1  0  0  0  0
 59 64  1  0  0  0  0
 60 64  1  0  0  0  0
 61 76  1  0  0  0  0
 62 64  1  0  0  0  0
 62 74  1  0  0  0  0
 63 76  1  0  0  0  0
 65 66  1  0  0  0  0
M  CHG  2  75   1  76   1
M  ISO  4  39 100  56 101  72 100  84 101
M  END
> <Batch ID>
0158

> <Smiles>
CNC(C)C(=O)NC(C(=O)N1Cc2cc([101O:1][101C:1]3(O)CCN(C(=N)c4cc(F)cc([100NH:0][100C:0](=O)N5CCCC(n6nc(-c7ccc(Oc8ccc(F)cc8F)cc7)c(C(N)=O)c6N)C5)c4)CC3)ccc2CC1C(=O)NC1CCCc2ccccc21)C(C)(C)C

> <Shape>
0.238

> <Color>
0.089

> <Negative vol penalty>
0.000

$$$$

  -OEChem-04052303443D

 85 93  0     1  0  0  0  0  0999 V2000
  -29.9792  -33.9007   23.6414 C   0  0  0  0  0  0  0  0  0  0  0  0
  -30.3482  -32.7356   22.9767 C   0  0  0  0  0  0  0  0  0  0  0  0
  -22.9476  -10.0613   19.8953 C   0  0  0  0  0  0  0  0  0  0  0  0
  -23.9577   -9.6133   22.0438 C   0  0  0  0  0  0  0  0  0  0  0  0
  -28.7629  -33.9591   24.3204 C   0  0  0  0  0  0  0  0  0  0  0  0
  -29.5014  -31.6278   22.9915 C   0  0  0  0  0  0  0  0  0  0  0  0
  -28.6684  -27.5700   18.4808 C   0  0  0  0  0  0  0  0  0  0  0  0
  -22.2030   -8.8866   20.0004 C   0  0  0  0  0  0  0  0  0  0  0  0
  -23.2130   -8.4385   22.1489 C   0  0  0  0  0  0  0  0  0  0  0  0
  -29.1953  -26.2995   18.2529 C   0  0  0  0  0  0  0  0  0  0  0  0
  -20.0501   -7.5598   22.9514 C   0  0  0  0  0  0  0  0  0  0  0  0
  -19.4271   -7.2961   24.1713 C   0  0  0  0  0  0  0  0  0  0  0  0
  -27.2355  -25.3135   19.2559 C   0  0  0  0  0  0  0  0  0  0  0  0
  -20.6860   -5.2435   24.3703 C   0  0  0  0  0  0  0  0  0  0  0  0
  -31.3427  -19.3705   20.1973 C   0  0  0  0  0  0  0  0  0  0  0  0
  -23.8251  -10.4247   20.9170 C   0  0  0  0  0  0  0  0  0  0  0  0
  -24.2246  -12.9220   21.2509 C   0  0  0  0  0  0  0  0  0  0  0  0
  -27.8964  -32.8547   24.3354 C   0  0  0  0  0  0  0  0  0  0  0  0
  -27.4239  -27.7224   19.1089 C   0  0  0  0  0  0  0  0  0  0  0  0
  -28.2730  -31.6710   23.6725 C   0  0  0  0  0  0  0  0  0  0  0  0
  -26.6938  -26.5870   19.4883 C   0  0  0  0  0  0  0  0  0  0  0  0
  -29.7409  -18.6590   21.5773 C   0  0  0  0  0  0  0  0  0  0  0  0
  -30.0961  -19.6944   20.6801 C   0  0  0  0  0  0  0  0  0  0  0  0
  -22.3356   -8.0752   21.1272 C   0  0  0  0  0  0  0  0  0  0  0  0
  -28.4801  -25.1711   18.6431 C   0  0  0  0  0  0  0  0  0  0  0  0
  -20.9909   -6.6653   22.4410 C   0  0  0  0  0  0  0  0  0  0  0  0
  -19.7451   -6.1380   24.8807 C   0  0  0  0  0  0  0  0  0  0  0  0
  -21.3088   -5.5072   23.1504 C   0  0  0  0  0  0  0  0  0  0  0  0
  -24.5950  -11.6378   20.8088 C   0  0  0  0  0  0  0  0  0  0  0  0
  -30.7956  -17.7760   21.5786 C   0  0  0  0  0  0  0  0  0  0  0  0
  -25.2909  -13.7208   20.9172 C   0  0  0  0  0  0  0  0  0  0  0  0
  -23.0241  -13.3541   21.9049 C   0  0  0  0  0  0  0  0  0  0  0  0
  -26.4232  -29.0730   21.8066 C   0  0  0  0  0  0  0  0  0  0  0  0
  -23.4911  -28.3391   20.6289 C   0  0  0  0  0  0  0  0  0  0  0  0
  -29.7176  -21.8515   19.4401 C   0  0  0  0  0  0  0  0  0  0  0  0
  -21.6032  -26.3762   18.5724 C   0  0  0  0  0  0  0  0  0  0  0  0
  -30.7889  -14.6462   20.6694 C   0  0  0  0  0  0  0  0  0  0  0  0
  -26.6134  -32.9493   25.1226 C   0  0  0  0  0  0  0  0  0  0  0  0
  -26.8573  -29.0991   19.3233 C   0  0  0  0  0  0  0  0  0  0  0  0
  -25.3442  -26.6959   20.1479 C   0  0  0  0  0  0  0  0  0  0  0  0
  -25.6041  -31.8579   24.7757 C   0  0  0  0  0  0  0  0  0  0  0  0
  -29.3242  -12.7838   18.0118 C   0  0  0  0  0  0  0  0  0  0  0  0
  -26.2869  -30.4946   24.7294 C   0  0  0  0  0  0  0  0  0  0  0  0
  -27.9359  -12.4206   18.5415 C   0  0  0  0  0  0  0  0  0  0  0  0
  -30.3752  -12.7587   19.1194 C   0  0  0  0  0  0  0  0  0  0  0  0
  -28.6614  -13.2164   20.8304 C   0  0  0  0  0  0  0  0  0  0  0  0
  -27.3703  -30.4567   23.6449 C   0  0  1  0  0  0  0  0  0  0  0  0
  -25.8140  -29.1493   20.4352 C   0  0  1  0  0  0  0  0  0  0  0  0
  -27.5577  -13.2827   19.7609 C   0  0  2  0  0  0  0  0  0  0  0  0
  -19.2311  -25.9882   17.8514 C   0  0  0  0  0  0  0  0  0  0  0  0
  -22.9224  -26.9227   23.2710 C   0  0  0  0  0  0  0  0  0  0  0  0
  -20.9918  -25.7780   22.1615 C   0  0  0  0  0  0  0  0  0  0  0  0
  -21.0114  -28.2634   22.3735 C   0  0  0  0  0  0  0  0  0  0  0  0
  -22.2326  -27.0193   15.7529 C   0  0  0  0  0  0  0  0  0  0  0  0
  -31.0543  -16.5120   22.2843 C   0  0  0  0  0  0  0  0  0  0  0  0
  -28.6283  -22.9035   19.3447 C   0  0  0  0  0  0  0  0  0  1  0  0
  -22.5686  -27.1479   20.7234 C   0  0  1  0  0  0  0  0  0  0  0  0
  -20.5299  -26.7220   17.5560 C   0  0  2  0  0  0  0  0  0  0  0  0
  -28.4929  -18.5436   22.3563 C   0  0  0  0  0  0  0  0  0  0  0  0
  -21.8998  -27.0257   22.1217 C   0  0  0  0  0  0  0  0  0  0  0  0
  -25.8022  -11.6173   20.2376 N   0  0  0  0  0  0  0  0  0  0  0  0
  -26.1996  -12.8986   20.3185 N   0  0  0  0  0  0  0  0  0  0  0  0
  -24.8356  -28.0638   20.3417 N   0  0  0  0  0  0  0  0  0  0  0  0
  -29.9566  -13.5971   20.2454 N   0  0  0  0  0  0  0  0  0  0  0  0
  -25.5305  -15.0393   21.0803 N   0  0  0  0  0  0  0  0  0  0  0  0
  -22.0300  -12.4033   22.1731 N   0  0  0  0  0  0  0  0  0  0  0  0
  -29.3507  -20.8438   20.3255 N   0  0  0  0  0  0  0  0  0  0  0  0
  -26.7709  -30.3008   22.3369 N   0  0  0  0  0  0  0  0  0  0  0  0
  -21.6244  -27.2743   19.6185 N   0  0  0  0  0  0  0  0  0  0  0  0
  -30.3143  -15.3959   21.7388 N   0  0  0  0  0  0  0  0  0  0  0  0
  -20.9775  -26.3515   16.1837 N   0  3  0  0  0  0  0  0  0  0  0  0
  -22.8315  -14.5512   22.2267 O   0  0  0  0  0  0  0  0  0  0  0  0
  -26.5658  -27.9812   22.3445 O   0  0  0  0  0  0  0  0  0  0  0  0
  -23.0343  -29.4726   20.7966 O   0  0  0  0  0  0  0  0  0  0  0  0
  -30.7566  -21.9420   18.7944 O   0  0  0  0  0  0  0  0  0  0  0  0
  -22.3459  -25.4043   18.4523 O   0  0  0  0  0  0  0  0  0  0  0  0
  -31.8720  -14.8996   20.1312 O   0  0  0  0  0  0  0  0  0  0  0  0
  -31.7761  -18.2025   20.7399 O   0  0  0  0  0  0  0  0  0  0  0  0
  -21.6090   -6.9289   21.2301 O   0  0  0  0  0  0  0  0  0  0  0  0
  -28.9924  -23.9298   18.4225 O   0  0  0  0  0  0  0  0  0  1  0  0
  -19.1480   -5.8856   26.0529 F   0  0  0  0  0  0  0  0  0  0  0  0
  -22.2127   -4.6448   22.6657 F   0  0  0  0  0  0  0  0  0  0  0  0
  -27.6084  -19.5742   22.1589 F   0  0  0  0  0  0  0  0  0  0  0  0
  -27.7645  -17.4122   22.0873 F   0  0  0  0  0  0  0  0  0  0  0  0
  -28.7018  -18.5139   23.7110 F   0  0  0  0  0  0  0  0  0  0  0  0
  1  2  1  0  0  0  0
  1  5  2  0  0  0  0
  2  6  2  0  0  0  0
  3  8  2  0  0  0  0
  3 16  1  0  0  0  0
  4  9  1  0  0  0  0
  4 16  2  0  0  0  0
  5 18  1  0  0  0  0
  6 20  1  0  0  0  0
  7 10  2  0  0  0  0
  7 19  1  0  0  0  0
  8 24  1  0  0  0  0
  9 24  2  0  0  0  0
 10 25  1  0  0  0  0
 11 12  2  0  0  0  0
 11 26  1  0  0  0  0
 12 27  1  0  0  0  0
 13 21  1  0  0  0  0
 13 25  2  0  0  0  0
 14 27  2  0  0  0  0
 14 28  1  0  0  0  0
 15 23  2  0  0  0  0
 15 78  1  0  0  0  0
 16 29  1  0  0  0  0
 17 29  1  0  0  0  0
 17 31  2  0  0  0  0
 17 32  1  0  0  0  0
 18 20  2  0  0  0  0
 18 38  1  0  0  0  0
 19 21  2  0  0  0  0
 19 39  1  0  0  0  0
 20 47  1  0  0  0  0
 21 40  1  0  0  0  0
 22 23  1  0  0  0  0
 22 30  2  0  0  0  0
 22 59  1  0  0  0  0
 23 67  1  0  0  0  0
 24 79  1  0  0  0  0
 25 80  1  0  0  0  0
 26 28  2  0  0  0  0
 26 79  1  0  0  0  0
 27 81  1  0  0  0  0
 28 82  1  0  0  0  0
 29 61  2  0  0  0  0
 30 55  1  0  0  0  0
 30 78  1  0  0  0  0
 31 62  1  0  0  0  0
 31 65  1  0  0  0  0
 32 66  1  0  0  0  0
 32 72  2  0  0  0  0
 33 48  1  0  0  0  0
 33 68  1  0  0  0  0
 33 73  2  0  0  0  0
 34 57  1  0  0  0  0
 34 63  1  0  0  0  0
 34 74  2  0  0  0  0
 35 56  1  0  0  0  0
 35 67  1  0  0  0  0
 35 75  2  0  0  0  0
 36 58  1  0  0  0  0
 36 69  1  0  0  0  0
 36 76  2  0  0  0  0
 37 64  1  0  0  0  0
 37 70  1  0  0  0  0
 37 77  2  0  0  0  0
 38 41  1  0  0  0  0
 39 48  1  0  0  0  0
 40 63  1  0  0  0  0
 41 43  1  0  0  0  0
 42 44  1  0  0  0  0
 42 45  1  0  0  0  0
 43 47  1  0  0  0  0
 44 49  1  0  0  0  0
 45 64  1  0  0  0  0
 46 49  1  0  0  0  0
 46 64  1  0  0  0  0
 47 68  1  0  0  0  0
 48 63  1  0  0  0  0
 49 62  1  0  0  0  0
 50 58  1  0  0  0  0
 51 60  1  0  0  0  0
 52 60  1  0  0  0  0
 53 60  1  0  0  0  0
 54 71  1  0  0  0  0
 55 70  1  0  0  0  0
 56 80  1  0  0  0  0
 57 60  1  0  0  0  0
 57 69  1  0  0  0  0
 58 71  1  0  0  0  0
 59 83  1  0  0  0  0
 59 84  1  0  0  0  0
 59 85  1  0  0  0  0
 61 62  1  0  0  0  0
M  CHG  1  71   1
M  ISO  4  37 100  56 101  70 100  80 101
M  END
> <Batch ID>
0158

> <Smiles>
CNC(C)C(=O)NC(C(=O)N1Cc2cc([101O:1][101CH2:1]C(=O)Nc3coc(C[100NH:0][100C:0](=O)N4CCCC(n5nc(-c6ccc(Oc7ccc(F)cc7F)cc6)c(C(N)=O)c5N)C4)c3C(F)(F)F)ccc2CC1C(=O)NC1CCCc2ccccc21)C(C)(C)C

> <Shape>
0.365

> <Color>
0.188

> <Negative vol penalty>
0.000

$$$$

  -OEChem-04052303443D

 82 90  0     1  0  0  0  0  0999 V2000
  -26.1081  -31.9793   18.2810 C   0  0  0  0  0  0  0  0  0  0  0  0
  -27.4100  -31.5081   18.1460 C   0  0  0  0  0  0  0  0  0  0  0  0
  -23.1427   -9.7535   20.0065 C   0  0  0  0  0  0  0  0  0  0  0  0
  -23.8312   -9.9146   22.3167 C   0  0  0  0  0  0  0  0  0  0  0  0
  -25.1758  -31.2476   19.0155 C   0  0  0  0  0  0  0  0  0  0  0  0
  -27.7808  -30.3054   18.7464 C   0  0  0  0  0  0  0  0  0  0  0  0
  -32.1086  -24.6806   17.7721 C   0  0  0  0  0  0  0  0  0  0  0  0
  -22.4196   -8.5981   20.3026 C   0  0  0  0  0  0  0  0  0  0  0  0
  -23.1081   -8.7592   22.6128 C   0  0  0  0  0  0  0  0  0  0  0  0
  -33.0907  -23.9491   18.4386 C   0  0  0  0  0  0  0  0  0  0  0  0
  -19.4482   -7.8116   21.7116 C   0  0  0  0  0  0  0  0  0  0  0  0
  -18.1583   -7.7031   21.1919 C   0  0  0  0  0  0  0  0  0  0  0  0
  -31.3746  -22.7305   19.6173 C   0  0  0  0  0  0  0  0  0  0  0  0
  -18.8053   -5.7011   20.0043 C   0  0  0  0  0  0  0  0  0  0  0  0
  -31.5994  -17.7733   21.5858 C   0  0  0  0  0  0  0  0  0  0  0  0
  -23.8486  -10.4118   21.0136 C   0  0  0  0  0  0  0  0  0  0  0  0
  -24.1327  -12.9336   20.7539 C   0  0  0  0  0  0  0  0  0  0  0  0
  -25.5328  -30.0305   19.6171 C   0  0  0  0  0  0  0  0  0  0  0  0
  -30.7500  -24.4498   18.0317 C   0  0  0  0  0  0  0  0  0  0  0  0
  -26.8529  -29.5574   19.4907 C   0  0  0  0  0  0  0  0  0  0  0  0
  -30.3772  -23.4587   18.9509 C   0  0  0  0  0  0  0  0  0  0  0  0
  -22.4022   -8.1009   21.6057 C   0  0  0  0  0  0  0  0  0  0  0  0
  -32.7238  -22.9759   19.3634 C   0  0  0  0  0  0  0  0  0  0  0  0
  -20.4166   -6.8649   21.3776 C   0  0  0  0  0  0  0  0  0  0  0  0
  -17.8369   -6.6479   20.3383 C   0  0  0  0  0  0  0  0  0  0  0  0
  -20.0952   -5.8096   20.5240 C   0  0  0  0  0  0  0  0  0  0  0  0
  -24.5962  -11.6050   20.7082 C   0  0  0  0  0  0  0  0  0  0  0  0
  -31.4183  -19.0047   22.2389 C   0  0  0  0  0  0  0  0  0  0  0  0
  -25.2171  -13.6885   20.3789 C   0  0  0  0  0  0  0  0  0  0  0  0
  -30.4142  -17.1182   21.7914 C   0  0  0  0  0  0  0  0  0  0  0  0
  -22.8379  -13.4399   21.1041 C   0  0  0  0  0  0  0  0  0  0  0  0
  -28.3583  -26.1968   19.1854 C   0  0  0  0  0  0  0  0  0  0  0  0
  -26.5936  -23.5887   18.4067 C   0  0  0  0  0  0  0  0  0  0  0  0
  -33.6682  -20.0265   21.7447 C   0  0  0  0  0  0  0  0  0  0  0  0
  -26.4937  -20.2286   17.8184 C   0  0  0  0  0  0  0  0  0  0  0  0
  -30.6485  -14.8840   20.6514 C   0  0  0  0  0  0  0  0  0  0  0  0
  -24.5032  -29.2984   20.4408 C   0  0  0  0  0  0  0  0  0  0  0  0
  -29.7024  -25.2288   17.2848 C   0  0  0  0  0  0  0  0  0  0  0  0
  -28.9320  -23.1582   19.2504 C   0  0  0  0  0  0  0  0  0  0  0  0
  -24.8758  -27.8469   20.7319 C   0  0  0  0  0  0  0  0  0  0  0  0
  -29.6661  -12.3076   18.3988 C   0  0  0  0  0  0  0  0  0  0  0  0
  -26.3261  -27.7507   21.1948 C   0  0  0  0  0  0  0  0  0  0  0  0
  -28.2214  -12.0044   18.8026 C   0  0  0  0  0  0  0  0  0  0  0  0
  -30.5380  -12.6300   19.6111 C   0  0  0  0  0  0  0  0  0  0  0  0
  -28.5726  -13.3844   20.8905 C   0  0  0  0  0  0  0  0  0  0  0  0
  -27.2866  -28.2448   20.1064 C   0  0  1  0  0  0  0  0  0  0  0  0
  -28.3584  -25.2663   18.0056 C   0  0  1  0  0  0  0  0  0  0  0  0
  -27.6409  -13.1173   19.6970 C   0  0  2  0  0  0  0  0  0  0  0  0
  -24.9021  -18.3762   17.2414 C   0  0  0  0  0  0  0  0  0  0  0  0
  -25.5587  -23.5870   21.2771 C   0  0  0  0  0  0  0  0  0  0  0  0
  -24.7608  -21.2419   20.9142 C   0  0  0  0  0  0  0  0  0  0  0  0
  -23.8237  -23.1026   19.5423 C   0  0  0  0  0  0  0  0  0  0  0  0
  -34.2504  -23.7219   21.7291 C   0  0  0  0  0  0  0  0  0  0  0  0
  -27.9210  -19.6315   15.2955 C   0  0  0  0  0  0  0  0  0  0  0  0
  -34.3736  -21.3405   22.0327 C   0  0  0  0  0  0  0  0  0  0  0  0
  -26.1900  -22.3198   19.1180 C   0  0  1  0  0  0  0  0  0  0  0  0
  -25.8648  -19.4204   16.6978 C   0  0  2  0  0  0  0  0  0  0  0  0
  -25.1106  -22.5696   20.2089 C   0  0  0  0  0  0  0  0  0  0  0  0
  -25.8753  -11.5177   20.3336 N   0  0  0  0  0  0  0  0  0  0  0  0
  -30.2129  -19.1057   22.8061 N   0  0  0  0  0  0  0  0  0  0  0  0
  -26.2248  -12.8009   20.1404 N   0  0  0  0  0  0  0  0  0  0  0  0
  -27.9449  -23.9511   18.4991 N   0  0  0  0  0  0  0  0  0  0  0  0
  -29.9276  -13.6956   20.4090 N   0  0  0  0  0  0  0  0  0  0  0  0
  -25.3974  -15.0185   20.2332 N   0  0  0  0  0  0  0  0  0  0  0  0
  -21.8383  -12.5261   21.4649 N   0  0  0  0  0  0  0  0  0  0  0  0
  -32.3900  -20.0321   22.2989 N   0  0  0  0  0  0  0  0  0  0  0  0
  -29.9541  -15.8383   21.3942 N   0  0  0  0  0  0  0  0  0  0  0  0
  -27.4526  -27.2354   19.0826 N   0  0  0  0  0  0  0  0  0  0  0  0
  -25.7826  -21.3810   18.0783 N   0  0  0  0  0  0  0  0  0  0  0  0
  -33.5961  -22.4416   21.4679 N   0  0  2  0  0  0  0  0  0  1  0  0
  -26.9185  -18.7224   15.9082 N   0  3  0  0  0  0  0  0  0  0  0  0
  -22.5703  -14.6652   21.0813 O   0  0  0  0  0  0  0  0  0  0  0  0
  -29.1222  -25.9871   20.1204 O   0  0  0  0  0  0  0  0  0  0  0  0
  -25.7428  -24.2308   17.7859 O   0  0  0  0  0  0  0  0  0  0  0  0
  -34.1914  -19.1245   21.0981 O   0  0  0  0  0  0  0  0  0  0  0  0
  -27.5117  -19.8713   18.4072 O   0  0  0  0  0  0  0  0  0  0  0  0
  -31.7870  -15.0543   20.2078 O   0  0  0  0  0  0  0  0  0  0  0  0
  -29.5785  -17.9031   22.5184 O   0  0  0  0  0  0  0  0  0  0  0  0
  -21.6965   -6.9736   21.8951 O   0  0  0  0  0  0  0  0  0  0  0  0
  -33.6804  -22.2609   20.0158 O   0  0  0  0  0  0  0  0  0  1  0  0
  -16.5978   -6.5429   19.8405 F   0  0  0  0  0  0  0  0  0  0  0  0
  -21.0210   -4.8964   20.2005 F   0  0  0  0  0  0  0  0  0  0  0  0
  1  2  1  0  0  0  0
  1  5  2  0  0  0  0
  2  6  2  0  0  0  0
  3  8  2  0  0  0  0
  3 16  1  0  0  0  0
  4  9  1  0  0  0  0
  4 16  2  0  0  0  0
  5 18  1  0  0  0  0
  6 20  1  0  0  0  0
  7 10  2  0  0  0  0
  7 19  1  0  0  0  0
  8 22  1  0  0  0  0
  9 22  2  0  0  0  0
 10 23  1  0  0  0  0
 11 12  2  0  0  0  0
 11 24  1  0  0  0  0
 12 25  1  0  0  0  0
 13 21  1  0  0  0  0
 13 23  2  0  0  0  0
 14 25  2  0  0  0  0
 14 26  1  0  0  0  0
 15 28  1  0  0  0  0
 15 30  2  0  0  0  0
 16 27  1  0  0  0  0
 17 27  1  0  0  0  0
 17 29  2  0  0  0  0
 17 31  1  0  0  0  0
 18 20  2  0  0  0  0
 18 37  1  0  0  0  0
 19 21  2  0  0  0  0
 19 38  1  0  0  0  0
 20 46  1  0  0  0  0
 21 39  1  0  0  0  0
 22 79  1  0  0  0  0
 23 80  1  0  0  0  0
 24 26  2  0  0  0  0
 24 79  1  0  0  0  0
 25 81  1  0  0  0  0
 26 82  1  0  0  0  0
 27 59  2  0  0  0  0
 28 60  2  0  0  0  0
 28 66  1  0  0  0  0
 29 61  1  0  0  0  0
 29 64  1  0  0  0  0
 30 67  1  0  0  0  0
 30 78  1  0  0  0  0
 31 65  1  0  0  0  0
 31 72  2  0  0  0  0
 32 47  1  0  0  0  0
 32 68  1  0  0  0  0
 32 73  2  0  0  0  0
 33 56  1  0  0  0  0
 33 62  1  0  0  0  0
 33 74  2  0  0  0  0
 34 55  1  0  0  0  0
 34 66  1  0  0  0  0
 34 75  2  0  0  0  0
 35 57  1  0  0  0  0
 35 69  1  0  0  0  0
 35 76  2  0  0  0  0
 36 63  1  0  0  0  0
 36 67  1  0  0  0  0
 36 77  2  0  0  0  0
 37 40  1  0  0  0  0
 38 47  1  0  0  0  0
 39 62  1  0  0  0  0
 40 42  1  0  0  0  0
 41 43  1  0  0  0  0
 41 44  1  0  0  0  0
 42 46  1  0  0  0  0
 43 48  1  0  0  0  0
 44 63  1  0  0  0  0
 45 48  1  0  0  0  0
 45 63  1  0  0  0  0
 46 68  1  0  0  0  0
 47 62  1  0  0  0  0
 48 61  1  0  0  0  0
 49 57  1  0  0  0  0
 50 58  1  0  0  0  0
 51 58  1  0  0  0  0
 52 58  1  0  0  0  0
 53 70  1  0  0  0  0
 54 71  1  0  0  0  0
 55 70  1  0  0  0  0
 56 58  1  0  0  0  0
 56 69  1  0  0  0  0
 57 71  1  0  0  0  0
 59 61  1  0  0  0  0
 60 78  1  0  0  0  0
 70 80  1  0  0  0  0
M  CHG  1  71   1
M  ISO  4  36 100  67 100  70 101  80 101
M  END
> <Batch ID>
0158

> <Smiles>
CNC(C)C(=O)NC(C(=O)N1Cc2cc([101O:1][101N:1](C)CC(=O)Nc3cc([100NH:0][100C:0](=O)N4CCCC(n5nc(-c6ccc(Oc7ccc(F)cc7F)cc6)c(C(N)=O)c5N)C4)on3)ccc2CC1C(=O)NC1CCCc2ccccc21)C(C)(C)C

> <Shape>
0.246

> <Color>
0.215

> <Negative vol penalty>
0.000

$$$$

  -OEChem-04052303443D

 82 90  0     1  0  0  0  0  0999 V2000
  -30.4530  -21.5495   10.4529 C   0  0  0  0  0  0  0  0  0  0  0  0
  -31.1240  -21.1956   11.6190 C   0  0  0  0  0  0  0  0  0  0  0  0
  -23.0732   -9.8703   19.9399 C   0  0  0  0  0  0  0  0  0  0  0  0
  -23.8345   -9.8741   22.2328 C   0  0  0  0  0  0  0  0  0  0  0  0
  -29.6449  -22.6855   10.4324 C   0  0  0  0  0  0  0  0  0  0  0  0
  -30.9882  -21.9782   12.7652 C   0  0  0  0  0  0  0  0  0  0  0  0
  -30.2554  -19.2027   16.9370 C   0  0  0  0  0  0  0  0  0  0  0  0
  -22.3285   -8.7175   20.1890 C   0  0  0  0  0  0  0  0  0  0  0  0
  -23.0898   -8.7213   22.4820 C   0  0  0  0  0  0  0  0  0  0  0  0
  -31.3743  -18.5884   17.4978 C   0  0  0  0  0  0  0  0  0  0  0  0
  -19.8614   -7.9255   23.0856 C   0  0  0  0  0  0  0  0  0  0  0  0
  -19.1051   -7.8849   24.2569 C   0  0  0  0  0  0  0  0  0  0  0  0
  -31.5103  -20.3496   19.1406 C   0  0  0  0  0  0  0  0  0  0  0  0
  -20.3454   -5.9456   24.9905 C   0  0  0  0  0  0  0  0  0  0  0  0
  -23.8262  -10.4486   20.9617 C   0  0  0  0  0  0  0  0  0  0  0  0
  -24.1700  -12.9736   20.8442 C   0  0  0  0  0  0  0  0  0  0  0  0
  -29.4914  -23.4770   11.5816 C   0  0  0  0  0  0  0  0  0  0  0  0
  -29.7612  -20.4028   17.4680 C   0  0  0  0  0  0  0  0  0  0  0  0
  -30.1783  -23.1266   12.7596 C   0  0  0  0  0  0  0  0  0  0  0  0
  -30.3834  -20.9757   18.5863 C   0  0  0  0  0  0  0  0  0  0  0  0
  -22.3368   -8.1430   21.4601 C   0  0  0  0  0  0  0  0  0  0  0  0
  -32.0037  -19.1634   18.5980 C   0  0  0  0  0  0  0  0  0  0  0  0
  -20.8596   -6.9761   22.8667 C   0  0  0  0  0  0  0  0  0  0  0  0
  -19.3472   -6.8950   25.2094 C   0  0  0  0  0  0  0  0  0  0  0  0
  -21.1017   -5.9862   23.8191 C   0  0  0  0  0  0  0  0  0  0  0  0
  -24.5961  -11.6391   20.7048 C   0  0  0  0  0  0  0  0  0  0  0  0
  -31.8171  -18.7190   22.2545 C   0  0  0  0  0  0  0  0  0  0  0  0
  -25.2626  -13.7226   20.4811 C   0  0  0  0  0  0  0  0  0  0  0  0
  -30.7160  -19.0857   22.9996 C   0  0  0  0  0  0  0  0  0  0  0  0
  -30.5778  -16.9432   21.9073 C   0  0  0  0  0  0  0  0  0  0  0  0
  -22.9002  -13.4900   21.2645 C   0  0  0  0  0  0  0  0  0  0  0  0
  -33.0458  -19.5526   22.0969 C   0  0  0  0  0  0  0  0  0  0  0  0
  -29.3843  -23.3584   16.3609 C   0  0  0  0  0  0  0  0  0  0  0  0
  -27.9020  -23.8188   19.2092 C   0  0  0  0  0  0  0  0  0  0  0  0
  -27.5008  -22.8491   22.4566 C   0  0  0  0  0  0  0  0  0  0  0  0
  -30.7298  -14.7634   20.6535 C   0  0  0  0  0  0  0  0  0  0  0  0
  -28.6446  -24.7222   11.4977 C   0  0  0  0  0  0  0  0  0  0  0  0
  -28.5372  -21.0387   16.8681 C   0  0  0  0  0  0  0  0  0  0  0  0
  -29.8800  -22.2526   19.2065 C   0  0  0  0  0  0  0  0  0  0  0  0
  -28.2570  -25.2883   12.8613 C   0  0  0  0  0  0  0  0  0  0  0  0
  -29.6118  -12.3533   18.2832 C   0  0  0  0  0  0  0  0  0  0  0  0
  -29.4716  -25.3401   13.7826 C   0  0  0  0  0  0  0  0  0  0  0  0
  -28.1722  -12.0624   18.7134 C   0  0  0  0  0  0  0  0  0  0  0  0
  -30.5279  -12.5799   19.4845 C   0  0  0  0  0  0  0  0  0  0  0  0
  -28.6224  -13.3044   20.8679 C   0  0  0  0  0  0  0  0  0  0  0  0
  -30.0365  -23.9362   14.0303 C   0  0  1  0  0  0  0  0  0  0  0  0
  -28.4287  -22.5297   17.1719 C   0  0  1  0  0  0  0  0  0  0  0  0
  -27.6487  -13.1333   19.6905 C   0  0  2  0  0  0  0  0  0  0  0  0
  -26.2475  -23.4408   24.5486 C   0  0  0  0  0  0  0  0  0  0  0  0
  -35.3868  -19.2619   19.0386 C   0  0  0  0  0  0  0  0  0  0  0  0
  -29.7764  -26.1837   19.6605 C   0  0  0  0  0  0  0  0  0  0  0  0
  -29.1488  -26.1292   22.0836 C   0  0  0  0  0  0  0  0  0  0  0  0
  -27.4075  -26.5826   20.3559 C   0  0  0  0  0  0  0  0  0  0  0  0
  -26.1557  -20.2141   22.5346 C   0  0  0  0  0  0  0  0  0  0  0  0
  -34.1874  -19.0173   21.2402 C   0  0  0  0  0  0  0  0  0  0  0  0
  -28.3444  -24.2459   20.5879 C   0  0  1  0  0  0  0  0  0  0  0  0
  -26.2546  -22.5944   23.2852 C   0  0  2  0  0  0  0  0  0  0  0  0
  -34.0586  -19.4178   19.7679 C   0  0  2  0  0  0  0  0  0  1  0  0
  -28.6801  -25.7623   20.6593 C   0  0  0  0  0  0  0  0  0  0  0  0
  -25.8606  -11.5427   20.2856 N   0  0  0  0  0  0  0  0  0  0  0  0
  -31.7399  -17.4906   21.6277 N   0  0  0  0  0  0  0  0  0  0  0  0
  -26.2385  -12.8261   20.1584 N   0  0  0  0  0  0  0  0  0  0  0  0
  -28.6839  -22.8396   18.5802 N   0  0  0  0  0  0  0  0  0  0  0  0
  -29.9704  -13.6102   20.3635 N   0  0  0  0  0  0  0  0  0  0  0  0
  -25.4740  -15.0540   20.4094 N   0  0  0  0  0  0  0  0  0  0  0  0
  -30.5246  -20.2233   23.7118 N   0  0  0  0  0  0  0  0  0  0  0  0
  -21.8878  -12.5813   21.6014 N   0  0  0  0  0  0  0  0  0  0  0  0
  -30.0837  -15.6881   21.4734 N   0  0  0  0  0  0  0  0  0  0  0  0
  -29.2233  -23.2271   14.9947 N   0  0  0  0  0  0  0  0  0  0  0  0
  -27.2904  -23.8235   21.5039 N   0  0  0  0  0  0  0  0  0  0  0  0
  -26.1798  -21.1594   23.6804 N   0  3  0  0  0  0  0  0  0  0  0  0
  -22.6650  -14.7207   21.3233 O   0  0  0  0  0  0  0  0  0  0  0  0
  -33.1052  -20.6430   22.6603 O   0  0  0  0  0  0  0  0  0  0  0  0
  -30.2058  -24.0658   16.9322 O   0  0  0  0  0  0  0  0  0  0  0  0
  -26.8955  -24.3298   18.7117 O   0  0  0  0  0  0  0  0  0  0  0  0
  -28.5566  -22.2469   22.6389 O   0  0  0  0  0  0  0  0  0  0  0  0
  -31.8587  -14.9317   20.1854 O   0  0  0  0  0  0  0  0  0  0  0  0
  -21.6101   -7.0182   21.7036 O   0  0  0  0  0  0  0  0  0  0  0  0
  -33.0964  -18.5663   19.1469 O   0  0  0  0  0  0  0  0  0  1  0  0
  -18.6219   -6.8570   26.3349 F   0  0  0  0  0  0  0  0  0  0  0  0
  -22.0601   -5.0722   23.6149 F   0  0  0  0  0  0  0  0  0  0  0  0
  -29.5289  -17.8506   22.9178 S   0  0  0  0  0  0  0  0  0  0  0  0
  1  2  1  0  0  0  0
  1  5  2  0  0  0  0
  2  6  2  0  0  0  0
  3  8  2  0  0  0  0
  3 15  1  0  0  0  0
  4  9  1  0  0  0  0
  4 15  2  0  0  0  0
  5 17  1  0  0  0  0
  6 19  1  0  0  0  0
  7 10  2  0  0  0  0
  7 18  1  0  0  0  0
  8 21  1  0  0  0  0
  9 21  2  0  0  0  0
 10 22  1  0  0  0  0
 11 12  2  0  0  0  0
 11 23  1  0  0  0  0
 12 24  1  0  0  0  0
 13 20  1  0  0  0  0
 13 22  2  0  0  0  0
 14 24  2  0  0  0  0
 14 25  1  0  0  0  0
 15 26  1  0  0  0  0
 16 26  1  0  0  0  0
 16 28  2  0  0  0  0
 16 31  1  0  0  0  0
 17 19  2  0  0  0  0
 17 37  1  0  0  0  0
 18 20  2  0  0  0  0
 18 38  1  0  0  0  0
 19 46  1  0  0  0  0
 20 39  1  0  0  0  0
 21 78  1  0  0  0  0
 22 79  1  0  0  0  0
 23 25  2  0  0  0  0
 23 78  1  0  0  0  0
 24 80  1  0  0  0  0
 25 81  1  0  0  0  0
 26 60  2  0  0  0  0
 27 29  2  0  0  0  0
 27 32  1  0  0  0  0
 27 61  1  0  0  0  0
 28 62  1  0  0  0  0
 28 65  1  0  0  0  0
 29 66  1  0  0  0  0
 29 82  1  0  0  0  0
 30 61  2  0  0  0  0
 30 68  1  0  0  0  0
 30 82  1  0  0  0  0
 31 67  1  0  0  0  0
 31 72  2  0  0  0  0
 32 55  1  0  0  0  0
 32 73  2  0  0  0  0
 33 47  1  0  0  0  0
 33 69  1  0  0  0  0
 33 74  2  0  0  0  0
 34 56  1  0  0  0  0
 34 63  1  0  0  0  0
 34 75  2  0  0  0  0
 35 57  1  0  0  0  0
 35 70  1  0  0  0  0
 35 76  2  0  0  0  0
 36 64  1  0  0  0  0
 36 68  1  0  0  0  0
 36 77  2  0  0  0  0
 37 40  1  0  0  0  0
 38 47  1  0  0  0  0
 39 63  1  0  0  0  0
 40 42  1  0  0  0  0
 41 43  1  0  0  0  0
 41 44  1  0  0  0  0
 42 46  1  0  0  0  0
 43 48  1  0  0  0  0
 44 64  1  0  0  0  0
 45 48  1  0  0  0  0
 45 64  1  0  0  0  0
 46 69  1  0  0  0  0
 47 63  1  0  0  0  0
 48 62  1  0  0  0  0
 49 57  1  0  0  0  0
 50 58  1  0  0  0  0
 51 59  1  0  0  0  0
 52 59  1  0  0  0  0
 53 59  1  0  0  0  0
 54 71  1  0  0  0  0
 55 58  1  0  0  0  0
 56 59  1  0  0  0  0
 56 70  1  0  0  0  0
 57 71  1  0  0  0  0
 58 79  1  0  0  0  0
 60 62  1  0  0  0  0
M  CHG  1  71   1
M  ISO  4  36 100  58 101  68 100  79 101
M  END
> <Batch ID>
0158

> <Smiles>
CNC(C)C(=O)NC(C(=O)N1Cc2cc([101O:1][101CH:1](C)CC(=O)c3nc([100NH:0][100C:0](=O)N4CCCC(n5nc(-c6ccc(Oc7ccc(F)cc7F)cc6)c(C(N)=O)c5N)C4)sc3N)ccc2CC1C(=O)NC1CCCc2ccccc21)C(C)(C)C

> <Shape>
0.231

> <Color>
0.184

> <Negative vol penalty>
0.000

$$$$

  -OEChem-04052303443D

 85 94  0     1  0  0  0  0  0999 V2000
  -22.0223  -11.9136   19.1664 C   0  0  0  0  0  0  0  0  0  0  0  0
  -21.8388  -13.2216   19.6032 C   0  0  0  0  0  0  0  0  0  0  0  0
  -30.8663  -29.5348   18.2819 C   0  0  0  0  0  0  0  0  0  0  0  0
  -30.2450  -27.2524   18.7736 C   0  0  0  0  0  0  0  0  0  0  0  0
  -23.2460  -11.2771   19.3698 C   0  0  0  0  0  0  0  0  0  0  0  0
  -22.8786  -13.8935   20.2448 C   0  0  0  0  0  0  0  0  0  0  0  0
  -23.4615  -18.6329   18.5586 C   0  0  0  0  0  0  0  0  0  0  0  0
  -32.2129  -29.1979   18.4191 C   0  0  0  0  0  0  0  0  0  0  0  0
  -31.5916  -26.9154   18.9108 C   0  0  0  0  0  0  0  0  0  0  0  0
  -22.5632  -19.5905   19.0273 C   0  0  0  0  0  0  0  0  0  0  0  0
  -34.0136  -27.2331   21.2483 C   0  0  0  0  0  0  0  0  0  0  0  0
  -34.3767  -26.4465   22.3415 C   0  0  0  0  0  0  0  0  0  0  0  0
  -19.7902  -26.1696   22.0670 C   0  0  0  0  0  0  0  0  0  0  0  0
  -24.2102  -20.3479   20.6188 C   0  0  0  0  0  0  0  0  0  0  0  0
  -18.4419  -25.6062   24.0187 C   0  0  0  0  0  0  0  0  0  0  0  0
  -35.2123  -24.7471   20.8412 C   0  0  0  0  0  0  0  0  0  0  0  0
  -29.8824  -28.5621   18.4592 C   0  0  0  0  0  0  0  0  0  0  0  0
  -27.7191  -28.8663   17.1418 C   0  0  0  0  0  0  0  0  0  0  0  0
  -24.3045  -11.9449   20.0056 C   0  0  0  0  0  0  0  0  0  0  0  0
  -24.7393  -18.5182   19.1248 C   0  0  0  0  0  0  0  0  0  0  0  0
  -24.1172  -13.2649   20.4581 C   0  0  0  0  0  0  0  0  0  0  0  0
  -19.6189  -27.4912   22.4068 C   0  0  0  0  0  0  0  0  0  0  0  0
  -25.1238  -19.3897   20.1538 C   0  0  0  0  0  0  0  0  0  0  0  0
  -18.8889  -27.8729   23.5067 C   0  0  0  0  0  0  0  0  0  0  0  0
  -19.1896  -25.2146   22.8913 C   0  0  0  0  0  0  0  0  0  0  0  0
  -18.2857  -26.9577   24.3368 C   0  0  0  0  0  0  0  0  0  0  0  0
  -32.5755  -27.8882   18.7335 C   0  0  0  0  0  0  0  0  0  0  0  0
  -22.9364  -20.4463   20.0595 C   0  0  0  0  0  0  0  0  0  0  0  0
  -34.2498  -26.7766   19.9515 C   0  0  0  0  0  0  0  0  0  0  0  0
  -34.9761  -25.2036   22.1380 C   0  0  0  0  0  0  0  0  0  0  0  0
  -34.8491  -25.5336   19.7480 C   0  0  0  0  0  0  0  0  0  0  0  0
  -28.4912  -28.9097   18.3182 C   0  0  0  0  0  0  0  0  0  0  0  0
  -26.4725  -29.2891   17.5335 C   0  0  0  0  0  0  0  0  0  0  0  0
  -28.0953  -28.4782   15.8138 C   0  0  0  0  0  0  0  0  0  0  0  0
  -26.3030  -16.2351   20.6887 C   0  0  0  0  0  0  0  0  0  0  0  0
  -28.7818  -18.3147   20.4570 C   0  0  0  0  0  0  0  0  0  0  0  0
  -20.0295  -23.2713   21.5266 C   0  0  0  0  0  0  0  0  0  0  0  0
  -29.8323  -21.5397   20.0800 C   0  0  0  0  0  0  0  0  0  0  0  0
  -22.2886  -28.9029   21.1072 C   0  0  0  0  0  0  0  0  0  0  0  0
  -25.5935  -11.1995   20.2453 C   0  0  0  0  0  0  0  0  0  0  0  0
  -25.7061  -17.4977   18.5898 C   0  0  0  0  0  0  0  0  0  0  0  0
  -19.1207  -29.3372   23.2739 C   0  0  0  0  0  0  0  0  0  0  0  0
  -26.4911  -19.3209   20.7817 C   0  0  0  0  0  0  0  0  0  0  0  0
  -26.7668  -12.1098   20.5989 C   0  0  0  0  0  0  0  0  0  0  0  0
  -24.9000  -31.4236   21.8181 C   0  0  0  0  0  0  0  0  0  0  0  0
  -26.3521  -13.1293   21.6550 C   0  0  0  0  0  0  0  0  0  0  0  0
  -26.0253  -30.9419   20.9081 C   0  0  0  0  0  0  0  0  0  0  0  0
  -24.0633  -30.2657   22.3612 C   0  0  0  0  0  0  0  0  0  0  0  0
  -24.6533  -28.8898   20.3830 C   0  0  0  0  0  0  0  0  0  0  0  0
  -25.2293  -14.0356   21.1360 C   0  0  1  0  0  0  0  0  0  0  0  0
  -19.9428  -28.9048   22.0057 C   0  0  1  0  0  0  0  0  0  0  0  0
  -26.7994  -17.1295   19.5881 C   0  0  1  0  0  0  0  0  0  0  0  0
  -25.4705  -30.0472   19.7896 C   0  0  2  0  0  0  0  0  0  0  0  0
  -31.9171  -22.9320   19.9670 C   0  0  0  0  0  0  0  0  0  0  0  0
  -29.1036  -18.0737   23.4816 C   0  0  0  0  0  0  0  0  0  0  0  0
  -30.5122  -20.1427   23.4266 C   0  0  0  0  0  0  0  0  0  0  0  0
  -31.2525  -18.0991   22.2026 C   0  0  0  0  0  0  0  0  0  0  0  0
  -29.2080  -22.4604   17.3374 C   0  0  0  0  0  0  0  0  0  0  0  0
  -19.9301  -21.7509   21.5750 C   0  0  0  0  0  0  0  0  0  0  0  0
  -20.6718  -21.0669   20.4366 C   0  0  0  0  0  0  0  0  0  1  0  0
  -29.3107  -19.4463   21.3047 C   0  0  1  0  0  0  0  0  0  0  0  0
  -30.8780  -22.1586   19.1701 C   0  0  2  0  0  0  0  0  0  0  0  0
  -30.0182  -18.9407   22.5936 C   0  0  0  0  0  0  0  0  0  0  0  0
  -27.7935  -29.3274   19.3778 N   0  0  0  0  0  0  0  0  0  0  0  0
  -26.5699  -29.5503   18.8686 N   0  0  0  0  0  0  0  0  0  0  0  0
  -27.3985  -18.3022   20.2283 N   0  0  0  0  0  0  0  0  0  0  0  0
  -23.6014  -29.3752   21.2846 N   0  0  0  0  0  0  0  0  0  0  0  0
  -17.5458  -27.3641   25.4562 N   0  0  0  0  0  0  0  0  0  0  0  0
  -25.3134  -29.4594   16.8627 N   0  0  0  0  0  0  0  0  0  0  0  0
  -29.4166  -28.0702   15.5859 N   0  0  0  0  0  0  0  0  0  0  0  0
  -19.3334  -23.8393   22.5903 N   0  0  0  0  0  0  0  0  0  0  0  0
  -25.7639  -15.0428   20.2448 N   0  0  0  0  0  0  0  0  0  0  0  0
  -30.1613  -20.2476   20.4313 N   0  0  0  0  0  0  0  0  0  0  0  0
  -21.3587  -29.3231   22.0531 N   0  0  0  0  0  0  0  0  0  0  0  0
  -30.2357  -23.0935   18.2035 N   0  3  0  0  0  0  0  0  0  0  0  0
  -27.2879  -28.5086   14.8542 O   0  0  0  0  0  0  0  0  0  0  0  0
  -26.4032  -16.5992   21.8546 O   0  0  0  0  0  0  0  0  0  0  0  0
  -29.5679  -17.4767   20.0082 O   0  0  0  0  0  0  0  0  0  0  0  0
  -20.6510  -23.8572   20.6464 O   0  0  0  0  0  0  0  0  0  0  0  0
  -28.8262  -22.1435   20.4457 O   0  0  0  0  0  0  0  0  0  0  0  0
  -21.9633  -28.1545   20.1792 O   0  0  0  0  0  0  0  0  0  0  0  0
  -33.8894  -27.5590   18.8672 O   0  0  0  0  0  0  0  0  0  0  0  0
  -22.0612  -21.3814   20.5194 O   0  0  0  0  0  0  0  0  0  1  0  0
  -35.3261  -24.4490   23.1879 F   0  0  0  0  0  0  0  0  0  0  0  0
  -35.0796  -25.0902   18.5046 F   0  0  0  0  0  0  0  0  0  0  0  0
  1  2  1  0  0  0  0
  1  5  2  0  0  0  0
  2  6  2  0  0  0  0
  3  8  2  0  0  0  0
  3 17  1  0  0  0  0
  4  9  1  0  0  0  0
  4 17  2  0  0  0  0
  5 19  1  0  0  0  0
  6 21  1  0  0  0  0
  7 10  2  0  0  0  0
  7 20  1  0  0  0  0
  8 27  1  0  0  0  0
  9 27  2  0  0  0  0
 10 28  1  0  0  0  0
 11 12  2  0  0  0  0
 11 29  1  0  0  0  0
 12 30  1  0  0  0  0
 13 22  1  0  0  0  0
 13 25  2  0  0  0  0
 14 23  1  0  0  0  0
 14 28  2  0  0  0  0
 15 25  1  0  0  0  0
 15 26  2  0  0  0  0
 16 30  2  0  0  0  0
 16 31  1  0  0  0  0
 17 32  1  0  0  0  0
 18 32  1  0  0  0  0
 18 33  2  0  0  0  0
 18 34  1  0  0  0  0
 19 21  2  0  0  0  0
 19 40  1  0  0  0  0
 20 23  2  0  0  0  0
 20 41  1  0  0  0  0
 21 50  1  0  0  0  0
 22 24  2  0  0  0  0
 22 51  1  0  0  0  0
 23 43  1  0  0  0  0
 24 26  1  0  0  0  0
 24 42  1  0  0  0  0
 25 71  1  0  0  0  0
 26 68  1  0  0  0  0
 27 82  1  0  0  0  0
 28 83  1  0  0  0  0
 29 31  2  0  0  0  0
 29 82  1  0  0  0  0
 30 84  1  0  0  0  0
 31 85  1  0  0  0  0
 32 64  2  0  0  0  0
 33 65  1  0  0  0  0
 33 69  1  0  0  0  0
 34 70  1  0  0  0  0
 34 76  2  0  0  0  0
 35 52  1  0  0  0  0
 35 72  1  0  0  0  0
 35 77  2  0  0  0  0
 36 61  1  0  0  0  0
 36 66  1  0  0  0  0
 36 78  2  0  0  0  0
 37 59  1  0  0  0  0
 37 71  1  0  0  0  0
 37 79  2  0  0  0  0
 38 62  1  0  0  0  0
 38 73  1  0  0  0  0
 38 80  2  0  0  0  0
 39 67  1  0  0  0  0
 39 74  1  0  0  0  0
 39 81  2  0  0  0  0
 40 44  1  0  0  0  0
 41 52  1  0  0  0  0
 42 51  1  0  0  0  0
 43 66  1  0  0  0  0
 44 46  1  0  0  0  0
 45 47  1  0  0  0  0
 45 48  1  0  0  0  0
 46 50  1  0  0  0  0
 47 53  1  0  0  0  0
 48 67  1  0  0  0  0
 49 53  1  0  0  0  0
 49 67  1  0  0  0  0
 50 72  1  0  0  0  0
 51 74  1  0  0  0  0
 52 66  1  0  0  0  0
 53 65  1  0  0  0  0
 54 62  1  0  0  0  0
 55 63  1  0  0  0  0
 56 63  1  0  0  0  0
 57 63  1  0  0  0  0
 58 75  1  0  0  0  0
 59 60  1  0  0  0  0
 60 83  1  0  0  0  0
 61 63  1  0  0  0  0
 61 73  1  0  0  0  0
 62 75  1  0  0  0  0
 64 65  1  0  0  0  0
M  CHG  1  75   1
M  ISO  4  39 100  60 101  74 100  83 101
M  END
> <Batch ID>
0158

> <Smiles>
CNC(C)C(=O)NC(C(=O)N1Cc2cc([101O:1][101CH2:1]CC(=O)Nc3cc(N)c4c(c3)C([100NH:0][100C:0](=O)N3CCCC(n5nc(-c6ccc(Oc7ccc(F)cc7F)cc6)c(C(N)=O)c5N)C3)C4)ccc2CC1C(=O)NC1CCCc2ccccc21)C(C)(C)C

> <Shape>
0.206

> <Color>
0.093

> <Negative vol penalty>
0.000

$$$$

  -OEChem-04052303443D

 86 95  0     1  0  0  0  0  0999 V2000
  -28.1025  -37.6380   22.9083 C   0  0  0  0  0  0  0  0  0  0  0  0
  -28.5756  -36.4414   22.3794 C   0  0  0  0  0  0  0  0  0  0  0  0
  -22.4119  -10.5677   20.9192 C   0  0  0  0  0  0  0  0  0  0  0  0
  -22.1790  -12.0557   19.0301 C   0  0  0  0  0  0  0  0  0  0  0  0
  -27.0904  -37.6233   23.8671 C   0  0  0  0  0  0  0  0  0  0  0  0
  -28.0375  -35.2292   22.8100 C   0  0  0  0  0  0  0  0  0  0  0  0
  -27.1892  -30.1784   19.4519 C   0  0  0  0  0  0  0  0  0  0  0  0
  -21.1696  -10.0040   20.6284 C   0  0  0  0  0  0  0  0  0  0  0  0
  -20.9367  -11.4920   18.7392 C   0  0  0  0  0  0  0  0  0  0  0  0
  -27.9342  -29.0082   19.3132 C   0  0  0  0  0  0  0  0  0  0  0  0
  -19.9044   -7.7569   18.4414 C   0  0  0  0  0  0  0  0  0  0  0  0
  -19.7999   -6.3664   18.4740 C   0  0  0  0  0  0  0  0  0  0  0  0
  -31.0444  -19.8779   18.4543 C   0  0  0  0  0  0  0  0  0  0  0  0
  -29.5641  -19.5978   20.3430 C   0  0  0  0  0  0  0  0  0  0  0  0
  -26.5362  -27.9303   20.9572 C   0  0  0  0  0  0  0  0  0  0  0  0
  -30.1106  -17.7044   18.9453 C   0  0  0  0  0  0  0  0  0  0  0  0
  -18.1176   -6.5333   20.2001 C   0  0  0  0  0  0  0  0  0  0  0  0
  -22.9166  -11.5936   20.1201 C   0  0  0  0  0  0  0  0  0  0  0  0
  -30.3688  -20.4157   19.5497 C   0  0  0  0  0  0  0  0  0  0  0  0
  -25.4556  -11.7618   19.9386 C   0  0  0  0  0  0  0  0  0  0  0  0
  -26.5330  -36.4107   24.3026 C   0  0  0  0  0  0  0  0  0  0  0  0
  -26.1170  -30.2369   20.3539 C   0  0  0  0  0  0  0  0  0  0  0  0
  -27.0179  -35.1981   23.7765 C   0  0  0  0  0  0  0  0  0  0  0  0
  -25.7775  -29.1017   21.1037 C   0  0  0  0  0  0  0  0  0  0  0  0
  -30.9153  -18.5223   18.1521 C   0  0  0  0  0  0  0  0  0  0  0  0
  -29.4350  -18.2422   20.0408 C   0  0  0  0  0  0  0  0  0  0  0  0
  -20.4320  -10.4661   19.5384 C   0  0  0  0  0  0  0  0  0  0  0  0
  -27.6096  -27.8848   20.0680 C   0  0  0  0  0  0  0  0  0  0  0  0
  -19.1155   -8.5357   19.2882 C   0  0  0  0  0  0  0  0  0  0  0  0
  -18.9065   -5.7546   19.3533 C   0  0  0  0  0  0  0  0  0  0  0  0
  -18.2221   -7.9238   20.1675 C   0  0  0  0  0  0  0  0  0  0  0  0
  -24.1995  -12.1767   20.4204 C   0  0  0  0  0  0  0  0  0  0  0  0
  -26.3485  -12.6328   20.5134 C   0  0  0  0  0  0  0  0  0  0  0  0
  -28.5711  -24.6745   18.7830 C   0  0  0  0  0  0  0  0  0  0  0  0
  -27.9343  -25.8298   18.9993 C   0  0  0  0  0  0  0  0  0  1  0  0
  -30.5050  -21.8480   19.8692 C   0  0  0  0  0  0  0  0  0  0  0  0
  -25.7856  -10.6855   19.0507 C   0  0  0  0  0  0  0  0  0  0  0  0
  -25.4586  -31.9524   22.9475 C   0  0  0  0  0  0  0  0  0  0  0  0
  -22.5930  -30.4466   22.7403 C   0  0  0  0  0  0  0  0  0  0  0  0
  -20.8060  -27.7587   21.6316 C   0  0  0  0  0  0  0  0  0  0  0  0
  -27.8787  -17.7850   21.9683 C   0  0  0  0  0  0  0  0  0  0  0  0
  -25.4736  -36.4426   25.3756 C   0  0  0  0  0  0  0  0  0  0  0  0
  -25.3065  -31.4984   20.4723 C   0  0  0  0  0  0  0  0  0  0  0  0
  -24.6231  -29.1064   22.0710 C   0  0  0  0  0  0  0  0  0  0  0  0
  -28.1698  -23.6433   17.7694 C   0  0  0  0  0  0  0  0  0  0  0  0
  -29.7198  -24.1626   19.5973 C   0  0  0  0  0  0  0  0  0  0  0  0
  -24.6968  -35.1348   25.5037 C   0  0  0  0  0  0  0  0  0  0  0  0
  -25.7146  -16.0458   24.1974 C   0  0  0  0  0  0  0  0  0  0  0  0
  -25.6517  -33.9453   25.5114 C   0  0  0  0  0  0  0  0  0  0  0  0
  -25.2308  -14.8500   23.3738 C   0  0  0  0  0  0  0  0  0  0  0  0
  -28.5679  -22.3295   18.4308 C   0  0  0  0  0  0  0  0  0  0  0  0
  -25.8640  -17.3015   23.3403 C   0  0  0  0  0  0  0  0  0  0  0  0
  -26.2078  -15.9421   21.3147 C   0  0  0  0  0  0  0  0  0  0  0  0
  -26.4424  -33.8641   24.2000 C   0  0  1  0  0  0  0  0  0  0  0  0
  -24.5571  -31.6049   21.7968 C   0  0  1  0  0  0  0  0  0  0  0  0
  -26.1043  -14.6376   22.1219 C   0  0  2  0  0  0  0  0  0  0  0  0
  -18.4914  -26.7895   21.6484 C   0  0  0  0  0  0  0  0  0  0  0  0
  -22.9791  -29.5812   25.6406 C   0  0  0  0  0  0  0  0  0  0  0  0
  -21.1724  -27.8816   25.3010 C   0  0  0  0  0  0  0  0  0  0  0  0
  -20.6561  -30.3111   25.0701 C   0  0  0  0  0  0  0  0  0  0  0  0
  -20.6188  -27.8554   18.6796 C   0  0  0  0  0  0  0  0  0  0  0  0
  -22.0206  -29.1585   23.2808 C   0  0  1  0  0  0  0  0  0  0  0  0
  -19.4819  -27.6638   20.8953 C   0  0  2  0  0  0  0  0  0  0  0  0
  -21.7300  -29.2333   24.8064 C   0  0  0  0  0  0  0  0  0  0  0  0
  -24.2830  -13.2292   21.2385 N   0  0  0  0  0  0  0  0  0  0  0  0
  -25.6022  -13.4830   21.2752 N   0  0  0  0  0  0  0  0  0  0  0  0
  -29.6619  -22.7146   19.3370 N   0  0  0  0  0  0  0  0  0  0  0  0
  -23.8649  -30.3655   22.1559 N   0  0  0  0  0  0  0  0  0  0  0  0
  -26.7075  -17.0259   22.1752 N   0  0  0  0  0  0  0  0  0  0  0  0
  -31.5980  -17.9786   17.0441 N   0  0  0  0  0  0  0  0  0  0  0  0
  -27.6915  -12.7466   20.4366 N   0  0  0  0  0  0  0  0  0  0  0  0
  -24.7463   -9.8884   18.5519 N   0  0  0  0  0  0  0  0  0  0  0  0
  -28.6174  -17.4111   20.8462 N   0  0  0  0  0  0  0  0  0  0  0  0
  -25.6187  -33.3104   23.1467 N   0  0  0  0  0  0  0  0  0  0  0  0
  -20.8501  -28.8573   22.4637 N   0  0  0  0  0  0  0  0  0  0  0  0
  -31.4733  -22.2452   20.6895 N   0  3  0  0  0  0  0  0  0  0  0  0
  -19.6844  -27.0827   19.5380 N   0  3  0  0  0  0  0  0  0  0  0  0
  -26.9686  -10.4278   18.7228 O   0  0  0  0  0  0  0  0  0  0  0  0
  -25.9699  -31.0549   23.6069 O   0  0  0  0  0  0  0  0  0  0  0  0
  -21.9328  -31.4850   22.8267 O   0  0  0  0  0  0  0  0  0  0  0  0
  -21.7094  -26.9382   21.4862 O   0  0  0  0  0  0  0  0  0  0  0  0
  -28.2168  -18.6814   22.7456 O   0  0  0  0  0  0  0  0  0  0  0  0
  -19.2199   -9.9161   19.2542 O   0  0  0  0  0  0  0  0  0  0  0  0
  -28.3356  -26.7415   19.9349 O   0  0  0  0  0  0  0  0  0  1  0  0
  -18.8051   -4.4193   19.3833 F   0  0  0  0  0  0  0  0  0  0  0  0
  -17.4608   -8.6667   20.9826 F   0  0  0  0  0  0  0  0  0  0  0  0
  1  2  1  0  0  0  0
  1  5  2  0  0  0  0
  2  6  2  0  0  0  0
  3  8  2  0  0  0  0
  3 18  1  0  0  0  0
  4  9  1  0  0  0  0
  4 18  2  0  0  0  0
  5 21  1  0  0  0  0
  6 23  1  0  0  0  0
  7 10  2  0  0  0  0
  7 22  1  0  0  0  0
  8 27  1  0  0  0  0
  9 27  2  0  0  0  0
 10 28  1  0  0  0  0
 11 12  2  0  0  0  0
 11 29  1  0  0  0  0
 12 30  1  0  0  0  0
 13 19  1  0  0  0  0
 13 25  2  0  0  0  0
 14 19  2  0  0  0  0
 14 26  1  0  0  0  0
 15 24  1  0  0  0  0
 15 28  2  0  0  0  0
 16 25  1  0  0  0  0
 16 26  2  0  0  0  0
 17 30  2  0  0  0  0
 17 31  1  0  0  0  0
 18 32  1  0  0  0  0
 19 36  1  0  0  0  0
 20 32  1  0  0  0  0
 20 33  2  0  0  0  0
 20 37  1  0  0  0  0
 21 23  2  0  0  0  0
 21 42  1  0  0  0  0
 22 24  2  0  0  0  0
 22 43  1  0  0  0  0
 23 54  1  0  0  0  0
 24 44  1  0  0  0  0
 25 70  1  0  0  0  0
 26 73  1  0  0  0  0
 27 83  1  0  0  0  0
 28 84  1  0  0  0  0
 29 31  2  0  0  0  0
 29 83  1  0  0  0  0
 30 85  1  0  0  0  0
 31 86  1  0  0  0  0
 32 65  2  0  0  0  0
 33 66  1  0  0  0  0
 33 71  1  0  0  0  0
 34 35  2  0  0  0  0
 34 45  1  0  0  0  0
 34 46  1  0  0  0  0
 35 84  1  0  0  0  0
 36 67  1  0  0  0  0
 36 76  2  0  0  0  0
 37 72  1  0  0  0  0
 37 78  2  0  0  0  0
 38 55  1  0  0  0  0
 38 74  1  0  0  0  0
 38 79  2  0  0  0  0
 39 62  1  0  0  0  0
 39 68  1  0  0  0  0
 39 80  2  0  0  0  0
 40 63  1  0  0  0  0
 40 75  1  0  0  0  0
 40 81  2  0  0  0  0
 41 69  1  0  0  0  0
 41 73  1  0  0  0  0
 41 82  2  0  0  0  0
 42 47  1  0  0  0  0
 43 55  1  0  0  0  0
 44 68  1  0  0  0  0
 45 51  1  0  0  0  0
 46 67  1  0  0  0  0
 47 49  1  0  0  0  0
 48 50  1  0  0  0  0
 48 52  1  0  0  0  0
 49 54  1  0  0  0  0
 50 56  1  0  0  0  0
 51 67  1  0  0  0  0
 52 69  1  0  0  0  0
 53 56  1  0  0  0  0
 53 69  1  0  0  0  0
 54 74  1  0  0  0  0
 55 68  1  0  0  0  0
 56 66  1  0  0  0  0
 57 63  1  0  0  0  0
 58 64  1  0  0  0  0
 59 64  1  0  0  0  0
 60 64  1  0  0  0  0
 61 77  1  0  0  0  0
 62 64  1  0  0  0  0
 62 75  1  0  0  0  0
 63 77  1  0  0  0  0
 65 66  1  0  0  0  0
M  CHG  2  76   1  77   1
M  ISO  4  35 101  41 100  73 100  84 101
M  END
> <Batch ID>
0158

> <Smiles>
CNC(C)C(=O)NC(C(=O)N1Cc2cc([101O:1][101CH:1]=C3CCN(C(=N)c4cc(N)cc([100NH:0][100C:0](=O)N5CCCC(n6nc(-c7ccc(Oc8ccc(F)cc8F)cc7)c(C(N)=O)c6N)C5)c4)C3)ccc2CC1C(=O)NC1CCCc2ccccc21)C(C)(C)C

> <Shape>
0.286

> <Color>
0.070

> <Negative vol penalty>
0.000

$$$$

  -OEChem-04052303443D

 86 94  0     1  0  0  0  0  0999 V2000
  -25.0068  -33.2064   21.8997 C   0  0  0  0  0  0  0  0  0  0  0  0
  -25.2409  -31.8414   21.7685 C   0  0  0  0  0  0  0  0  0  0  0  0
  -23.2942   -9.6327   21.0244 C   0  0  0  0  0  0  0  0  0  0  0  0
  -23.9106  -10.4533   23.2116 C   0  0  0  0  0  0  0  0  0  0  0  0
  -23.8977  -33.6567   22.6146 C   0  0  0  0  0  0  0  0  0  0  0  0
  -24.3666  -30.9258   22.3532 C   0  0  0  0  0  0  0  0  0  0  0  0
  -23.1975  -27.1003   19.2477 C   0  0  0  0  0  0  0  0  0  0  0  0
  -22.6054   -8.5737   21.6158 C   0  0  0  0  0  0  0  0  0  0  0  0
  -23.2217   -9.3943   23.8030 C   0  0  0  0  0  0  0  0  0  0  0  0
  -24.1454  -26.0889   19.0984 C   0  0  0  0  0  0  0  0  0  0  0  0
  -19.6257   -8.0797   23.1357 C   0  0  0  0  0  0  0  0  0  0  0  0
  -18.3560   -7.7772   22.6440 C   0  0  0  0  0  0  0  0  0  0  0  0
  -31.2800  -19.6934   22.5425 C   0  0  0  0  0  0  0  0  0  0  0  0
  -29.4317  -18.3446   21.7673 C   0  0  0  0  0  0  0  0  0  0  0  0
  -22.9152  -24.7148   20.6534 C   0  0  0  0  0  0  0  0  0  0  0  0
  -31.6937  -17.5172   21.5782 C   0  0  0  0  0  0  0  0  0  0  0  0
  -19.1087   -5.5550   22.0674 C   0  0  0  0  0  0  0  0  0  0  0  0
  -23.9469  -10.5725   21.8223 C   0  0  0  0  0  0  0  0  0  0  0  0
  -29.9099  -19.5196   22.3471 C   0  0  0  0  0  0  0  0  0  0  0  0
  -24.1466  -12.9349   20.8807 C   0  0  0  0  0  0  0  0  0  0  0  0
  -23.0040  -32.7461   23.2001 C   0  0  0  0  0  0  0  0  0  0  0  0
  -22.1053  -26.9305   20.1107 C   0  0  0  0  0  0  0  0  0  0  0  0
  -23.2453  -31.3644   23.0777 C   0  0  0  0  0  0  0  0  0  0  0  0
  -21.9535  -25.7246   20.8098 C   0  0  0  0  0  0  0  0  0  0  0  0
  -32.1719  -18.6922   22.1580 C   0  0  0  0  0  0  0  0  0  0  0  0
  -30.3235  -17.3433   21.3828 C   0  0  0  0  0  0  0  0  0  0  0  0
  -22.5692   -8.4545   23.0050 C   0  0  0  0  0  0  0  0  0  0  0  0
  -24.0059  -24.8971   19.8035 C   0  0  0  0  0  0  0  0  0  0  0  0
  -20.6370   -7.1199   23.0932 C   0  0  0  0  0  0  0  0  0  0  0  0
  -18.0974   -6.5148   22.1099 C   0  0  0  0  0  0  0  0  0  0  0  0
  -20.3785   -5.8575   22.5591 C   0  0  0  0  0  0  0  0  0  0  0  0
  -24.6591  -11.6663   21.2120 C   0  0  0  0  0  0  0  0  0  0  0  0
  -25.2131  -13.6030   20.3305 C   0  0  0  0  0  0  0  0  0  0  0  0
  -25.6131  -23.5003   20.7713 C   0  0  0  0  0  0  0  0  0  1  0  0
  -28.9653  -20.5799   22.7541 C   0  0  0  0  0  0  0  0  0  0  0  0
  -22.8248  -13.4623   21.0549 C   0  0  0  0  0  0  0  0  0  0  0  0
  -26.5421  -22.5381   20.7464 C   0  0  0  0  0  0  0  0  0  0  0  0
  -27.2200  -22.1785   22.0143 C   0  0  0  0  0  0  0  0  0  0  0  0
  -21.0691  -28.3982   22.7328 C   0  0  0  0  0  0  0  0  0  0  0  0
  -18.5300  -26.4123   22.3703 C   0  0  0  0  0  0  0  0  0  0  0  0
  -17.2922  -23.4928   21.1088 C   0  0  0  0  0  0  0  0  0  0  0  0
  -30.5875  -15.0583   20.3556 C   0  0  0  0  0  0  0  0  0  0  0  0
  -21.8450  -33.2810   24.0034 C   0  0  0  0  0  0  0  0  0  0  0  0
  -21.0772  -28.0208   20.2402 C   0  0  0  0  0  0  0  0  0  0  0  0
  -20.7881  -25.4847   21.7333 C   0  0  0  0  0  0  0  0  0  0  0  0
  -20.7608  -32.2412   24.2749 C   0  0  0  0  0  0  0  0  0  0  0  0
  -29.7638  -11.9214   18.8864 C   0  0  0  0  0  0  0  0  0  0  0  0
  -21.3835  -30.9319   24.7488 C   0  0  0  0  0  0  0  0  0  0  0  0
  -28.3201  -11.6797   19.3332 C   0  0  0  0  0  0  0  0  0  0  0  0
  -30.5886  -12.6023   19.9772 C   0  0  0  0  0  0  0  0  0  0  0  0
  -28.5614  -13.5953   20.9640 C   0  0  0  0  0  0  0  0  0  0  0  0
  -22.3061  -30.3399   23.6765 C   0  0  1  0  0  0  0  0  0  0  0  0
  -20.2807  -27.9397   21.5387 C   0  0  1  0  0  0  0  0  0  0  0  0
  -27.6744  -12.9701   19.8750 C   0  0  2  0  0  0  0  0  0  0  0  0
  -15.1911  -22.1244   21.0081 C   0  0  0  0  0  0  0  0  0  0  0  0
  -18.9770  -25.5182   25.2531 C   0  0  0  0  0  0  0  0  0  0  0  0
  -17.5180  -23.5367   24.7913 C   0  0  0  0  0  0  0  0  0  0  0  0
  -16.5790  -25.8414   24.6211 C   0  0  0  0  0  0  0  0  0  0  0  0
  -17.1810  -23.6689   18.1566 C   0  0  0  0  0  0  0  0  0  0  0  0
  -18.1832  -25.0225   22.8469 C   0  0  1  0  0  0  0  0  0  0  0  0
  -16.0301  -23.1907   20.3212 C   0  0  2  0  0  0  0  0  0  0  0  0
  -17.8374  -24.9847   24.3623 C   0  0  0  0  0  0  0  0  0  0  0  0
  -25.9506  -11.5339   20.8983 N   0  0  0  0  0  0  0  0  0  0  0  0
  -26.2586  -12.7279   20.3640 N   0  0  0  0  0  0  0  0  0  0  0  0
  -19.8129  -26.5833   21.8311 N   0  0  0  0  0  0  0  0  0  0  0  0
  -29.9174  -13.8194   20.4388 N   0  0  0  0  0  0  0  0  0  0  0  0
  -33.5573  -18.8681   22.3551 N   0  0  0  0  0  0  0  0  0  0  0  0
  -25.3490  -14.8478   19.8260 N   0  0  0  0  0  0  0  0  0  0  0  0
  -21.8492  -12.6414   21.6369 N   0  0  0  0  0  0  0  0  0  0  0  0
  -29.8381  -16.1497   20.7935 N   0  0  0  0  0  0  0  0  0  0  0  0
  -28.1875  -21.1291   21.8107 N   0  0  0  0  0  0  0  0  0  0  0  0
  -21.5281  -29.6982   22.6385 N   0  0  0  0  0  0  0  0  0  0  0  0
  -17.1118  -24.5483   21.9775 N   0  0  0  0  0  0  0  0  0  0  0  0
  -28.9400  -20.9282   24.0402 N   0  3  0  0  0  0  0  0  0  0  0  0
  -16.3757  -22.7085   18.9541 N   0  3  0  0  0  0  0  0  0  0  0  0
  -22.5136  -14.6213   20.6897 O   0  0  0  0  0  0  0  0  0  0  0  0
  -27.0132  -22.6817   23.1063 O   0  0  0  0  0  0  0  0  0  0  0  0
  -21.2464  -27.6300   23.6710 O   0  0  0  0  0  0  0  0  0  0  0  0
  -17.6909  -27.3114   22.4662 O   0  0  0  0  0  0  0  0  0  0  0  0
  -18.3329  -22.8537   20.9702 O   0  0  0  0  0  0  0  0  0  0  0  0
  -31.7312  -15.1483   19.9020 O   0  0  0  0  0  0  0  0  0  0  0  0
  -26.8980  -21.8664   19.5976 O   0  0  0  0  0  0  0  0  0  0  0  0
  -21.8969   -7.4215   23.5824 O   0  0  0  0  0  0  0  0  0  0  0  0
  -24.9301  -23.9085   19.6602 O   0  0  0  0  0  0  0  0  0  1  0  0
  -16.8776   -6.2240   21.6391 F   0  0  0  0  0  0  0  0  0  0  0  0
  -21.3456   -4.9309   22.5166 F   0  0  0  0  0  0  0  0  0  0  0  0
  1  2  1  0  0  0  0
  1  5  2  0  0  0  0
  2  6  2  0  0  0  0
  3  8  2  0  0  0  0
  3 18  1  0  0  0  0
  4  9  1  0  0  0  0
  4 18  2  0  0  0  0
  5 21  1  0  0  0  0
  6 23  1  0  0  0  0
  7 10  2  0  0  0  0
  7 22  1  0  0  0  0
  8 27  1  0  0  0  0
  9 27  2  0  0  0  0
 10 28  1  0  0  0  0
 11 12  2  0  0  0  0
 11 29  1  0  0  0  0
 12 30  1  0  0  0  0
 13 19  1  0  0  0  0
 13 25  2  0  0  0  0
 14 19  2  0  0  0  0
 14 26  1  0  0  0  0
 15 24  1  0  0  0  0
 15 28  2  0  0  0  0
 16 25  1  0  0  0  0
 16 26  2  0  0  0  0
 17 30  2  0  0  0  0
 17 31  1  0  0  0  0
 18 32  1  0  0  0  0
 19 35  1  0  0  0  0
 20 32  1  0  0  0  0
 20 33  2  0  0  0  0
 20 36  1  0  0  0  0
 21 23  2  0  0  0  0
 21 43  1  0  0  0  0
 22 24  2  0  0  0  0
 22 44  1  0  0  0  0
 23 52  1  0  0  0  0
 24 45  1  0  0  0  0
 25 67  1  0  0  0  0
 26 70  1  0  0  0  0
 27 83  1  0  0  0  0
 28 84  1  0  0  0  0
 29 31  2  0  0  0  0
 29 83  1  0  0  0  0
 30 85  1  0  0  0  0
 31 86  1  0  0  0  0
 32 63  2  0  0  0  0
 33 64  1  0  0  0  0
 33 68  1  0  0  0  0
 34 37  2  0  0  0  0
 34 84  1  0  0  0  0
 35 71  1  0  0  0  0
 35 74  2  0  0  0  0
 36 69  1  0  0  0  0
 36 76  2  0  0  0  0
 37 38  1  0  0  0  0
 37 82  1  0  0  0  0
 38 71  1  0  0  0  0
 38 77  2  0  0  0  0
 39 53  1  0  0  0  0
 39 72  1  0  0  0  0
 39 78  2  0  0  0  0
 40 60  1  0  0  0  0
 40 65  1  0  0  0  0
 40 79  2  0  0  0  0
 41 61  1  0  0  0  0
 41 73  1  0  0  0  0
 41 80  2  0  0  0  0
 42 66  1  0  0  0  0
 42 70  1  0  0  0  0
 42 81  2  0  0  0  0
 43 46  1  0  0  0  0
 44 53  1  0  0  0  0
 45 65  1  0  0  0  0
 46 48  1  0  0  0  0
 47 49  1  0  0  0  0
 47 50  1  0  0  0  0
 48 52  1  0  0  0  0
 49 54  1  0  0  0  0
 50 66  1  0  0  0  0
 51 54  1  0  0  0  0
 51 66  1  0  0  0  0
 52 72  1  0  0  0  0
 53 65  1  0  0  0  0
 54 64  1  0  0  0  0
 55 61  1  0  0  0  0
 56 62  1  0  0  0  0
 57 62  1  0  0  0  0
 58 62  1  0  0  0  0
 59 75  1  0  0  0  0
 60 62  1  0  0  0  0
 60 73  1  0  0  0  0
 61 75  1  0  0  0  0
 63 64  1  0  0  0  0
M  CHG  2  74   1  75   1
M  ISO  4  34 101  42 100  70 100  84 101
M  END
> <Batch ID>
0158

> <Smiles>
CNC(C)C(=O)NC(C(=O)N1Cc2cc([101O:1][101CH2:1]C(=O)C(=O)NC(=N)c3cc(N)cc([100NH:0][100C:0](=O)N4CCCC(n5nc(-c6ccc(Oc7ccc(F)cc7F)cc6)c(C(N)=O)c5N)C4)c3)ccc2CC1C(=O)NC1CCCc2ccccc21)C(C)(C)C

> <Shape>
0.262

> <Color>
0.146

> <Negative vol penalty>
0.000

$$$$
