
  -OEChem-04052303473D

 85 93  0     1  0  0  0  0  0999 V2000
  -24.0705   -8.0028   21.9382 C   0  0  0  0  0  0  0  0  0  0  0  0
  -24.8203   -9.1719   21.8571 C   0  0  0  0  0  0  0  0  0  0  0  0
  -23.0370  -22.0749   24.2958 C   0  0  0  0  0  0  0  0  0  0  0  0
  -26.0049  -33.2399   23.1881 C   0  0  0  0  0  0  0  0  0  0  0  0
  -27.5247  -31.3641   23.2814 C   0  0  0  0  0  0  0  0  0  0  0  0
  -24.3698  -21.6808   24.1779 C   0  0  0  0  0  0  0  0  0  0  0  0
  -22.7230   -8.0140   21.5805 C   0  0  0  0  0  0  0  0  0  0  0  0
  -24.2231  -10.3526   21.4170 C   0  0  0  0  0  0  0  0  0  0  0  0
  -25.4599  -16.0379   23.3285 C   0  0  0  0  0  0  0  0  0  0  0  0
  -22.6115  -23.2749   23.7260 C   0  0  0  0  0  0  0  0  0  0  0  0
  -26.7961  -33.9268   24.1089 C   0  0  0  0  0  0  0  0  0  0  0  0
  -28.3160  -32.0510   24.2021 C   0  0  0  0  0  0  0  0  0  0  0  0
  -26.2545  -17.0536   22.7987 C   0  0  0  0  0  0  0  0  0  0  0  0
  -29.6827  -35.6875   24.0883 C   0  0  0  0  0  0  0  0  0  0  0  0
  -29.9670  -37.0277   23.8263 C   0  0  0  0  0  0  0  0  0  0  0  0
  -24.3082  -18.0233   21.7543 C   0  0  0  0  0  0  0  0  0  0  0  0
  -28.8959  -37.6599   25.8975 C   0  0  0  0  0  0  0  0  0  0  0  0
  -26.3692  -31.9585   22.7744 C   0  0  0  0  0  0  0  0  0  0  0  0
  -25.2771  -22.4867   23.4903 C   0  0  0  0  0  0  0  0  0  0  0  0
  -25.6658  -31.2705   20.4208 C   0  0  0  0  0  0  0  0  0  0  0  0
  -22.1066   -9.1977   21.1451 C   0  0  0  0  0  0  0  0  0  0  0  0
  -24.0829  -16.0011   23.0658 C   0  0  0  0  0  0  0  0  0  0  0  0
  -22.8664  -10.3794   21.0519 C   0  0  0  0  0  0  0  0  0  0  0  0
  -23.4979  -17.0075   22.2841 C   0  0  0  0  0  0  0  0  0  0  0  0
  -23.5189  -24.0809   23.0384 C   0  0  0  0  0  0  0  0  0  0  0  0
  -27.9517  -33.3324   24.6158 C   0  0  0  0  0  0  0  0  0  0  0  0
  -25.6792  -18.0449   22.0091 C   0  0  0  0  0  0  0  0  0  0  0  0
  -29.0050  -35.3335   25.2550 C   0  0  0  0  0  0  0  0  0  0  0  0
  -29.5736  -38.0139   24.7309 C   0  0  0  0  0  0  0  0  0  0  0  0
  -28.6116  -36.3197   26.1596 C   0  0  0  0  0  0  0  0  0  0  0  0
  -24.8517  -23.6868   22.9205 C   0  0  0  0  0  0  0  0  0  0  0  0
  -25.5519  -31.2482   21.8238 C   0  0  0  0  0  0  0  0  0  0  0  0
  -24.6659  -30.4374   19.9819 C   0  0  0  0  0  0  0  0  0  0  0  0
  -26.6873  -22.0662   23.3667 C   0  0  0  0  0  0  0  0  0  0  0  0
  -26.5926  -31.9806   19.5887 C   0  0  0  0  0  0  0  0  0  0  0  0
  -22.1305  -13.9567   21.6127 C   0  0  0  0  0  0  0  0  0  0  0  0
  -28.5027  -20.1894   21.1381 C   0  0  0  0  0  0  0  0  0  0  0  0
  -19.8377  -15.9781   22.6985 C   0  0  0  0  0  0  0  0  0  0  0  0
  -19.0025  -19.1163   23.7478 C   0  0  0  0  0  0  0  0  0  0  0  0
  -21.7956  -25.8333   22.4857 C   0  0  0  0  0  0  0  0  0  0  0  0
  -20.6591   -9.1501   20.7241 C   0  0  0  0  0  0  0  0  0  0  0  0
  -23.2351  -14.9137   23.6668 C   0  0  0  0  0  0  0  0  0  0  0  0
  -22.0210  -17.0247   21.9891 C   0  0  0  0  0  0  0  0  0  0  0  0
  -20.0080  -10.5272   20.6248 C   0  0  0  0  0  0  0  0  0  0  0  0
  -20.3303  -28.8185   21.2134 C   0  0  0  0  0  0  0  0  0  0  0  0
  -20.9152  -11.4934   19.8697 C   0  0  0  0  0  0  0  0  0  0  0  0
  -21.5144  -29.7805   21.0922 C   0  0  0  0  0  0  0  0  0  0  0  0
  -20.4511  -27.9228   22.4450 C   0  0  0  0  0  0  0  0  0  0  0  0
  -22.9038  -28.1539   22.4378 C   0  0  0  0  0  0  0  0  0  0  0  0
  -22.2483  -11.6857   20.6029 C   0  0  1  0  0  0  0  0  0  0  0  0
  -21.9299  -14.6869   22.9104 C   0  0  1  0  0  0  0  0  0  0  0  0
  -22.8593  -29.0322   21.1768 C   0  0  2  0  0  0  0  0  0  0  0  0
  -17.0442  -20.4747   24.5333 C   0  0  0  0  0  0  0  0  0  0  0  0
  -18.8178  -16.1629   19.8287 C   0  0  0  0  0  0  0  0  0  0  0  0
  -17.5244  -18.2009   20.4934 C   0  0  0  0  0  0  0  0  0  0  0  0
  -17.0247  -16.0044   21.5649 C   0  0  0  0  0  0  0  0  0  0  0  0
  -20.2721  -19.6447   26.3684 C   0  0  0  0  0  0  0  0  0  0  0  0
  -28.5787  -21.4856   21.8894 C   0  0  0  0  0  0  0  0  0  0  0  0
  -27.8462  -19.0009   21.7949 C   0  0  0  0  0  0  0  0  0  1  0  0
  -19.1621  -17.2164   22.1606 C   0  0  1  0  0  0  0  0  0  0  0  0
  -18.2151  -19.5994   24.9524 C   0  0  2  0  0  0  0  0  0  0  0  0
  -18.1604  -16.8950   21.0157 C   0  0  0  0  0  0  0  0  0  0  0  0
  -24.5580  -30.4633   22.2481 N   0  0  0  0  0  0  0  0  0  0  0  0
  -28.9928  -20.1121   19.9437 N   0  0  0  0  0  0  0  0  0  0  0  0
  -24.0381  -29.9847   21.1050 N   0  0  0  0  0  0  0  0  0  0  0  0
  -21.2352  -15.9366   22.5943 N   0  0  0  0  0  0  0  0  0  0  0  0
  -21.7484  -27.2431   22.4556 N   0  0  0  0  0  0  0  0  0  0  0  0
  -24.2711  -30.0553   18.7488 N   0  0  0  0  0  0  0  0  0  0  0  0
  -27.5558  -32.7925   20.2031 N   0  0  0  0  0  0  0  0  0  0  0  0
  -23.0833  -25.2988   22.4599 N   0  0  0  0  0  0  0  0  0  0  0  0
  -27.2027  -21.8807   22.1384 N   0  0  0  0  0  0  0  0  0  0  0  0
  -22.0818  -12.5805   21.7280 N   0  0  0  0  0  0  0  0  0  0  0  0
  -18.5616  -17.8855   23.3096 N   0  0  0  0  0  0  0  0  0  0  0  0
  -27.3894  -21.8858   24.4855 N   0  3  0  0  0  0  0  0  0  0  0  0
  -19.0920  -20.3909   25.8610 N   0  3  0  0  0  0  0  0  0  0  0  0
  -26.5570  -31.9105   18.3368 O   0  0  0  0  0  0  0  0  0  0  0  0
  -22.3142  -14.5946   20.5826 O   0  0  0  0  0  0  0  0  0  0  0  0
  -19.1513  -15.0839   23.1994 O   0  0  0  0  0  0  0  0  0  0  0  0
  -19.9148  -19.7675   23.2435 O   0  0  0  0  0  0  0  0  0  0  0  0
  -20.7686  -25.1499   22.5034 O   0  0  0  0  0  0  0  0  0  0  0  0
  -28.7242  -34.0024   25.5141 O   0  0  0  0  0  0  0  0  0  0  0  0
  -26.4526  -19.0370   21.4901 O   0  0  0  0  0  0  0  0  0  1  0  0
  -29.8480  -39.3007   24.4798 F   0  0  0  0  0  0  0  0  0  0  0  0
  -27.9612  -35.9856   27.2826 F   0  0  0  0  0  0  0  0  0  0  0  0
  -25.7257  -24.4607   22.2592 F   0  0  0  0  0  0  0  0  0  0  0  0
  1  2  1  0  0  0  0
  1  7  2  0  0  0  0
  2  8  2  0  0  0  0
  3  6  2  0  0  0  0
  3 10  1  0  0  0  0
  4 11  2  0  0  0  0
  4 18  1  0  0  0  0
  5 12  1  0  0  0  0
  5 18  2  0  0  0  0
  6 19  1  0  0  0  0
  7 21  1  0  0  0  0
  8 23  1  0  0  0  0
  9 13  2  0  0  0  0
  9 22  1  0  0  0  0
 10 25  2  0  0  0  0
 11 26  1  0  0  0  0
 12 26  2  0  0  0  0
 13 27  1  0  0  0  0
 14 15  2  0  0  0  0
 14 28  1  0  0  0  0
 15 29  1  0  0  0  0
 16 24  1  0  0  0  0
 16 27  2  0  0  0  0
 17 29  2  0  0  0  0
 17 30  1  0  0  0  0
 18 32  1  0  0  0  0
 19 31  2  0  0  0  0
 19 34  1  0  0  0  0
 20 32  1  0  0  0  0
 20 33  2  0  0  0  0
 20 35  1  0  0  0  0
 21 23  2  0  0  0  0
 21 41  1  0  0  0  0
 22 24  2  0  0  0  0
 22 42  1  0  0  0  0
 23 50  1  0  0  0  0
 24 43  1  0  0  0  0
 25 31  1  0  0  0  0
 25 70  1  0  0  0  0
 26 81  1  0  0  0  0
 27 82  1  0  0  0  0
 28 30  2  0  0  0  0
 28 81  1  0  0  0  0
 29 83  1  0  0  0  0
 30 84  1  0  0  0  0
 31 85  1  0  0  0  0
 32 63  2  0  0  0  0
 33 65  1  0  0  0  0
 33 68  1  0  0  0  0
 34 71  1  0  0  0  0
 34 74  2  0  0  0  0
 35 69  1  0  0  0  0
 35 76  2  0  0  0  0
 36 51  1  0  0  0  0
 36 72  1  0  0  0  0
 36 77  2  0  0  0  0
 37 58  1  0  0  0  0
 37 59  1  0  0  0  0
 37 64  2  0  0  0  0
 38 60  1  0  0  0  0
 38 66  1  0  0  0  0
 38 78  2  0  0  0  0
 39 61  1  0  0  0  0
 39 73  1  0  0  0  0
 39 79  2  0  0  0  0
 40 67  1  0  0  0  0
 40 70  1  0  0  0  0
 40 80  2  0  0  0  0
 41 44  1  0  0  0  0
 42 51  1  0  0  0  0
 43 66  1  0  0  0  0
 44 46  1  0  0  0  0
 45 47  1  0  0  0  0
 45 48  1  0  0  0  0
 46 50  1  0  0  0  0
 47 52  1  0  0  0  0
 48 67  1  0  0  0  0
 49 52  1  0  0  0  0
 49 67  1  0  0  0  0
 50 72  1  0  0  0  0
 51 66  1  0  0  0  0
 52 65  1  0  0  0  0
 53 61  1  0  0  0  0
 54 62  1  0  0  0  0
 55 62  1  0  0  0  0
 56 62  1  0  0  0  0
 57 75  1  0  0  0  0
 58 71  1  0  0  0  0
 59 82  1  0  0  0  0
 60 62  1  0  0  0  0
 60 73  1  0  0  0  0
 61 75  1  0  0  0  0
 63 65  1  0  0  0  0
M  CHG  2  74   1  75   1
M  ISO  4  40 100  59 101  70 100  82 101
M  END
> <Batch ID>
0159

> <Smiles>
CNC(C)C(=O)NC(C(=O)N1Cc2cc([101O:1][101CH2:1]C(=N)CNC(=N)c3cccc([100NH:0][100C:0](=O)N4CCCC(n5nc(-c6ccc(Oc7ccc(F)cc7F)cc6)c(C(N)=O)c5N)C4)c3F)ccc2CC1C(=O)NC1CCCc2ccccc21)C(C)(C)C

> <Shape>
0.180

> <Color>
0.077

> <Negative vol penalty>
0.000

$$$$

  -OEChem-04052303473D

 84 92  0     1  0  0  0  0  0999 V2000
  -28.5045  -31.8469   27.9835 C   0  0  0  0  0  0  0  0  0  0  0  0
  -28.6022  -30.9126   26.9573 C   0  0  0  0  0  0  0  0  0  0  0  0
  -24.3849   -8.5581   21.3716 C   0  0  0  0  0  0  0  0  0  0  0  0
  -24.0830  -10.3188   22.9982 C   0  0  0  0  0  0  0  0  0  0  0  0
  -27.2573  -32.3526   28.3479 C   0  0  0  0  0  0  0  0  0  0  0  0
  -27.4526  -30.4826   26.2957 C   0  0  0  0  0  0  0  0  0  0  0  0
  -26.9517  -28.9902   20.3773 C   0  0  0  0  0  0  0  0  0  0  0  0
  -23.8737   -7.6312   22.2799 C   0  0  0  0  0  0  0  0  0  0  0  0
  -23.5717   -9.3919   23.9065 C   0  0  0  0  0  0  0  0  0  0  0  0
  -26.9583  -27.7631   19.7155 C   0  0  0  0  0  0  0  0  0  0  0  0
  -20.8375   -6.6732   23.4187 C   0  0  0  0  0  0  0  0  0  0  0  0
  -19.9023   -5.7518   22.9475 C   0  0  0  0  0  0  0  0  0  0  0  0
  -24.5462  -27.7456   19.7367 C   0  0  0  0  0  0  0  0  0  0  0  0
  -21.3736   -3.9397   23.5710 C   0  0  0  0  0  0  0  0  0  0  0  0
  -24.4896   -9.9019   21.7307 C   0  0  0  0  0  0  0  0  0  0  0  0
  -24.2956  -11.6106   19.8464 C   0  0  0  0  0  0  0  0  0  0  0  0
  -26.0929  -31.9357   27.6839 C   0  0  0  0  0  0  0  0  0  0  0  0
  -25.7404  -29.6000   20.7339 C   0  0  0  0  0  0  0  0  0  0  0  0
  -26.1885  -30.9821   26.6524 C   0  0  0  0  0  0  0  0  0  0  0  0
  -24.5269  -28.9817   20.4006 C   0  0  0  0  0  0  0  0  0  0  0  0
  -23.4671   -8.0481   23.5474 C   0  0  0  0  0  0  0  0  0  0  0  0
  -25.7555  -27.1392   19.3977 C   0  0  0  0  0  0  0  0  0  0  0  0
  -22.0408   -6.2279   23.9659 C   0  0  0  0  0  0  0  0  0  0  0  0
  -20.1703   -4.3851   23.0237 C   0  0  0  0  0  0  0  0  0  0  0  0
  -22.3089   -4.8612   24.0421 C   0  0  0  0  0  0  0  0  0  0  0  0
  -25.0181  -10.8597   20.7930 C   0  0  0  0  0  0  0  0  0  0  0  0
  -29.5382  -18.8159   19.3791 C   0  0  0  0  0  0  0  0  0  0  0  0
  -25.2485  -12.3656   19.2073 C   0  0  0  0  0  0  0  0  0  0  0  0
  -28.5869  -17.8487   19.1307 C   0  0  0  0  0  0  0  0  0  0  0  0
  -27.8152  -20.1286   19.0351 C   0  0  0  0  0  0  0  0  0  0  0  0
  -22.8889  -11.6244   19.5697 C   0  0  0  0  0  0  0  0  0  0  0  0
  -30.9150  -18.5358   19.6802 C   0  0  0  0  0  0  0  0  0  0  0  0
  -24.3756  -30.4418   23.4785 C   0  0  0  0  0  0  0  0  0  0  0  0
  -26.4633  -23.6240   18.8448 C   0  0  0  0  0  0  0  0  0  0  0  0
  -22.1563  -31.7671   21.5187 C   0  0  0  0  0  0  0  0  0  0  0  0
  -20.6481  -31.8060   18.4575 C   0  0  0  0  0  0  0  0  0  0  0  0
  -29.7599  -15.6272   19.3189 C   0  0  0  0  0  0  0  0  0  0  0  0
  -24.7619  -32.4751   28.1447 C   0  0  0  0  0  0  0  0  0  0  0  0
  -25.7500  -30.9367   21.4237 C   0  0  0  0  0  0  0  0  0  0  0  0
  -23.1991  -29.6045   20.7433 C   0  0  0  0  0  0  0  0  0  0  0  0
  -23.6328  -32.2482   27.1427 C   0  0  0  0  0  0  0  0  0  0  0  0
  -30.3015  -12.1083   19.3581 C   0  0  0  0  0  0  0  0  0  0  0  0
  -23.6555  -30.8121   26.6291 C   0  0  0  0  0  0  0  0  0  0  0  0
  -28.9158  -11.5316   19.6570 C   0  0  0  0  0  0  0  0  0  0  0  0
  -30.5496  -13.4105   20.1174 C   0  0  0  0  0  0  0  0  0  0  0  0
  -28.1309  -13.8622   20.2392 C   0  0  0  0  0  0  0  0  0  0  0  0
  -24.9670  -30.5096   25.8943 C   0  0  1  0  0  0  0  0  0  0  0  0
  -24.4652  -31.2197   22.1961 C   0  0  1  0  0  0  0  0  0  0  0  0
  -27.8099  -12.5844   19.4470 C   0  0  2  0  0  0  0  0  0  0  0  0
  -31.9535  -19.5501   19.2671 C   0  0  0  0  0  0  0  0  0  0  0  0
  -18.8422  -32.9757   17.1660 C   0  0  0  0  0  0  0  0  0  0  0  0
  -20.0414  -30.1947   23.0566 C   0  0  0  0  0  0  0  0  0  0  0  0
  -18.4467  -30.6369   21.1779 C   0  0  0  0  0  0  0  0  0  0  0  0
  -19.3880  -32.5405   22.4866 C   0  0  0  0  0  0  0  0  0  0  0  0
  -22.5699  -32.7820   16.4295 C   0  0  0  0  0  0  0  0  0  0  0  0
  -27.5671  -22.6112   19.0636 C   0  0  0  0  0  0  0  0  0  0  0  0
  -26.8695  -25.0775   18.9923 C   0  0  0  0  0  0  0  0  0  1  0  0
  -20.8783  -31.2888   20.8729 C   0  0  1  0  0  0  0  0  0  0  0  0
  -20.3235  -32.9459   17.5090 C   0  0  2  0  0  0  0  0  0  0  0  0
  -19.7135  -31.1523   21.8936 C   0  0  0  0  0  0  0  0  0  0  0  0
  -26.3289  -11.1145   20.7613 N   0  0  0  0  0  0  0  0  0  0  0  0
  -29.0976  -20.1238   19.3243 N   0  0  0  0  0  0  0  0  0  0  0  0
  -26.4376  -12.0338   19.7871 N   0  0  0  0  0  0  0  0  0  0  0  0
  -23.2609  -30.9089   21.4231 N   0  0  0  0  0  0  0  0  0  0  0  0
  -29.4641  -14.3612   19.8672 N   0  0  0  0  0  0  0  0  0  0  0  0
  -25.1768  -13.2742   18.2115 N   0  0  0  0  0  0  0  0  0  0  0  0
  -22.0521  -10.7868   20.3198 N   0  0  0  0  0  0  0  0  0  0  0  0
  -28.6443  -16.4333   19.0947 N   0  0  0  0  0  0  0  0  0  0  0  0
  -27.0484  -21.2771   18.9012 N   0  0  0  0  0  0  0  0  0  0  0  0
  -24.9443  -31.0797   24.5643 N   0  0  0  0  0  0  0  0  0  0  0  0
  -20.6060  -32.2103   19.7751 N   0  0  0  0  0  0  0  0  0  0  0  0
  -21.0962  -32.8022   16.2428 N   0  3  0  0  0  0  0  0  0  0  0  0
  -22.3908  -12.3456   18.6723 O   0  0  0  0  0  0  0  0  0  0  0  0
  -31.3379  -17.5178   20.2542 O   0  0  0  0  0  0  0  0  0  0  0  0
  -23.8294  -29.3448   23.4828 O   0  0  0  0  0  0  0  0  0  0  0  0
  -25.3095  -23.3008   18.5658 O   0  0  0  0  0  0  0  0  0  0  0  0
  -22.1757  -32.8649   22.0808 O   0  0  0  0  0  0  0  0  0  0  0  0
  -20.9090  -30.6697   18.0687 O   0  0  0  0  0  0  0  0  0  0  0  0
  -30.9148  -15.9604   19.0414 O   0  0  0  0  0  0  0  0  0  0  0  0
  -22.9680   -7.1439   24.4339 O   0  0  0  0  0  0  0  0  0  0  0  0
  -25.7591  -25.9411   18.7524 O   0  0  0  0  0  0  0  0  0  1  0  0
  -19.2715   -3.5003   22.5727 F   0  0  0  0  0  0  0  0  0  0  0  0
  -23.4626   -4.4273   24.5679 F   0  0  0  0  0  0  0  0  0  0  0  0
  -27.0754  -18.5957   18.8165 S   0  0  0  0  0  0  0  0  0  0  0  0
  1  2  1  0  0  0  0
  1  5  2  0  0  0  0
  2  6  2  0  0  0  0
  3  8  2  0  0  0  0
  3 15  1  0  0  0  0
  4  9  1  0  0  0  0
  4 15  2  0  0  0  0
  5 17  1  0  0  0  0
  6 19  1  0  0  0  0
  7 10  2  0  0  0  0
  7 18  1  0  0  0  0
  8 21  1  0  0  0  0
  9 21  2  0  0  0  0
 10 22  1  0  0  0  0
 11 12  2  0  0  0  0
 11 23  1  0  0  0  0
 12 24  1  0  0  0  0
 13 20  1  0  0  0  0
 13 22  2  0  0  0  0
 14 24  2  0  0  0  0
 14 25  1  0  0  0  0
 15 26  1  0  0  0  0
 16 26  1  0  0  0  0
 16 28  2  0  0  0  0
 16 31  1  0  0  0  0
 17 19  2  0  0  0  0
 17 38  1  0  0  0  0
 18 20  2  0  0  0  0
 18 39  1  0  0  0  0
 19 47  1  0  0  0  0
 20 40  1  0  0  0  0
 21 80  1  0  0  0  0
 22 81  1  0  0  0  0
 23 25  2  0  0  0  0
 23 80  1  0  0  0  0
 24 82  1  0  0  0  0
 25 83  1  0  0  0  0
 26 61  2  0  0  0  0
 27 29  2  0  0  0  0
 27 32  1  0  0  0  0
 27 62  1  0  0  0  0
 28 63  1  0  0  0  0
 28 66  1  0  0  0  0
 29 68  1  0  0  0  0
 29 84  1  0  0  0  0
 30 62  2  0  0  0  0
 30 69  1  0  0  0  0
 30 84  1  0  0  0  0
 31 67  1  0  0  0  0
 31 73  2  0  0  0  0
 32 50  1  0  0  0  0
 32 74  2  0  0  0  0
 33 48  1  0  0  0  0
 33 70  1  0  0  0  0
 33 75  2  0  0  0  0
 34 56  1  0  0  0  0
 34 57  1  0  0  0  0
 34 76  2  0  0  0  0
 35 58  1  0  0  0  0
 35 64  1  0  0  0  0
 35 77  2  0  0  0  0
 36 59  1  0  0  0  0
 36 71  1  0  0  0  0
 36 78  2  0  0  0  0
 37 65  1  0  0  0  0
 37 68  1  0  0  0  0
 37 79  2  0  0  0  0
 38 41  1  0  0  0  0
 39 48  1  0  0  0  0
 40 64  1  0  0  0  0
 41 43  1  0  0  0  0
 42 44  1  0  0  0  0
 42 45  1  0  0  0  0
 43 47  1  0  0  0  0
 44 49  1  0  0  0  0
 45 65  1  0  0  0  0
 46 49  1  0  0  0  0
 46 65  1  0  0  0  0
 47 70  1  0  0  0  0
 48 64  1  0  0  0  0
 49 63  1  0  0  0  0
 51 59  1  0  0  0  0
 52 60  1  0  0  0  0
 53 60  1  0  0  0  0
 54 60  1  0  0  0  0
 55 72  1  0  0  0  0
 56 69  1  0  0  0  0
 57 81  1  0  0  0  0
 58 60  1  0  0  0  0
 58 71  1  0  0  0  0
 59 72  1  0  0  0  0
 61 63  1  0  0  0  0
M  CHG  1  72   1
M  ISO  4  37 100  57 101  68 100  81 101
M  END
> <Batch ID>
0159

> <Smiles>
CNC(C)C(=O)NC(C(=O)N1Cc2cc([101O:1][101CH2:1]C(=O)CNc3nc(C(C)=O)c([100NH:0][100C:0](=O)N4CCCC(n5nc(-c6ccc(Oc7ccc(F)cc7F)cc6)c(C(N)=O)c5N)C4)s3)ccc2CC1C(=O)NC1CCCc2ccccc21)C(C)(C)C

> <Shape>
0.286

> <Color>
0.114

> <Negative vol penalty>
0.000

$$$$

  -OEChem-04052303473D

 85 93  0     1  0  0  0  0  0999 V2000
  -17.5483  -29.4137   27.2721 C   0  0  0  0  0  0  0  0  0  0  0  0
  -18.6627  -28.6128   27.0439 C   0  0  0  0  0  0  0  0  0  0  0  0
  -23.1308   -9.7504   20.0626 C   0  0  0  0  0  0  0  0  0  0  0  0
  -23.7710  -10.0028   22.3785 C   0  0  0  0  0  0  0  0  0  0  0  0
  -16.9109  -30.0405   26.2022 C   0  0  0  0  0  0  0  0  0  0  0  0
  -19.1398  -28.4375   25.7454 C   0  0  0  0  0  0  0  0  0  0  0  0
  -24.9823  -27.7945   24.0254 C   0  0  0  0  0  0  0  0  0  0  0  0
  -22.3771   -8.6244   20.3936 C   0  0  0  0  0  0  0  0  0  0  0  0
  -23.0172   -8.8767   22.7095 C   0  0  0  0  0  0  0  0  0  0  0  0
  -25.7528  -26.6728   23.7222 C   0  0  0  0  0  0  0  0  0  0  0  0
  -19.7637   -8.1229   23.2260 C   0  0  0  0  0  0  0  0  0  0  0  0
  -18.9473   -8.2001   24.3543 C   0  0  0  0  0  0  0  0  0  0  0  0
  -25.2877  -26.9947   21.3771 C   0  0  0  0  0  0  0  0  0  0  0  0
  -20.1525   -6.3594   25.3525 C   0  0  0  0  0  0  0  0  0  0  0  0
  -29.6466  -17.8891   22.3414 C   0  0  0  0  0  0  0  0  0  0  0  0
  -23.8278  -10.4396   21.0550 C   0  0  0  0  0  0  0  0  0  0  0  0
  -24.1707  -12.9408   20.6887 C   0  0  0  0  0  0  0  0  0  0  0  0
  -17.3862  -29.8806   24.8910 C   0  0  0  0  0  0  0  0  0  0  0  0
  -24.3487  -28.5195   23.0059 C   0  0  0  0  0  0  0  0  0  0  0  0
  -18.5074  -29.0618   24.6568 C   0  0  0  0  0  0  0  0  0  0  0  0
  -24.5118  -28.1267   21.6698 C   0  0  0  0  0  0  0  0  0  0  0  0
  -22.3203   -8.1875   21.7170 C   0  0  0  0  0  0  0  0  0  0  0  0
  -25.9032  -26.2711   22.3982 C   0  0  0  0  0  0  0  0  0  0  0  0
  -20.7745   -7.1638   23.1609 C   0  0  0  0  0  0  0  0  0  0  0  0
  -19.1416   -7.3184   25.4175 C   0  0  0  0  0  0  0  0  0  0  0  0
  -20.9689   -6.2821   24.2241 C   0  0  0  0  0  0  0  0  0  0  0  0
  -24.6069  -11.6026   20.7137 C   0  0  0  0  0  0  0  0  0  0  0  0
  -30.1435  -19.1427   22.6344 C   0  0  0  0  0  0  0  0  0  0  0  0
  -30.5035  -17.0527   21.6555 C   0  0  0  0  0  0  0  0  0  0  0  0
  -25.2788  -13.6561   20.3053 C   0  0  0  0  0  0  0  0  0  0  0  0
  -32.1195  -18.6511   21.6241 C   0  0  0  0  0  0  0  0  0  0  0  0
  -22.8793  -13.4883   20.9855 C   0  0  0  0  0  0  0  0  0  0  0  0
  -29.3289  -20.1347   23.3647 C   0  0  0  0  0  0  0  0  0  0  0  0
  -21.3291  -29.1910   22.2747 C   0  0  0  0  0  0  0  0  0  0  0  0
  -28.0779  -23.3096   22.6985 C   0  0  0  0  0  0  0  0  0  0  0  0
  -22.7025  -31.0553   20.0030 C   0  0  0  0  0  0  0  0  0  0  0  0
  -25.4124  -31.6957   18.0299 C   0  0  0  0  0  0  0  0  0  0  0  0
  -30.7267  -14.7539   20.6495 C   0  0  0  0  0  0  0  0  0  0  0  0
  -16.6357  -30.5402   23.7613 C   0  0  0  0  0  0  0  0  0  0  0  0
  -23.5428  -29.7429   23.3473 C   0  0  0  0  0  0  0  0  0  0  0  0
  -23.8690  -28.8828   20.5368 C   0  0  0  0  0  0  0  0  0  0  0  0
  -17.4291  -30.6046   22.4587 C   0  0  0  0  0  0  0  0  0  0  0  0
  -29.7408  -12.0976   18.4933 C   0  0  0  0  0  0  0  0  0  0  0  0
  -18.0787  -29.2567   22.1620 C   0  0  0  0  0  0  0  0  0  0  0  0
  -28.2814  -11.8421   18.8767 C   0  0  0  0  0  0  0  0  0  0  0  0
  -30.5920  -12.4574   19.7097 C   0  0  0  0  0  0  0  0  0  0  0  0
  -28.6148  -13.3085   20.9078 C   0  0  0  0  0  0  0  0  0  0  0  0
  -19.0698  -28.8671   23.2654 C   0  0  1  0  0  0  0  0  0  0  0  0
  -22.5219  -30.1047   22.2731 C   0  0  1  0  0  0  0  0  0  0  0  0
  -27.7046  -13.0060   19.7063 C   0  0  2  0  0  0  0  0  0  0  0  0
  -26.2244  -33.2638   16.2469 C   0  0  0  0  0  0  0  0  0  0  0  0
  -20.9644  -29.6161   17.9492 C   0  0  0  0  0  0  0  0  0  0  0  0
  -22.4621  -30.5146   16.1553 C   0  0  0  0  0  0  0  0  0  0  0  0
  -21.1670  -32.0840   17.5983 C   0  0  0  0  0  0  0  0  0  0  0  0
  -27.6534  -32.6390   19.7173 C   0  0  0  0  0  0  0  0  0  0  0  0
  -28.7794  -22.5086   23.7638 C   0  0  0  0  0  0  0  0  0  0  0  0
  -27.2595  -24.4861   23.1920 C   0  0  0  0  0  0  0  0  0  1  0  0
  -23.1452  -30.8487   18.5745 C   0  0  1  0  0  0  0  0  0  0  0  0
  -26.1661  -32.9812   17.7401 C   0  0  2  0  0  0  0  0  0  0  0  0
  -21.9453  -30.7503   17.5906 C   0  0  0  0  0  0  0  0  0  0  0  0
  -25.8919  -11.4727   20.3731 N   0  0  0  0  0  0  0  0  0  0  0  0
  -31.3798  -19.5585   22.2896 N   0  0  0  0  0  0  0  0  0  0  0  0
  -31.7512  -17.4023   21.2796 N   0  0  0  0  0  0  0  0  0  0  0  0
  -26.2726  -12.7385   20.1305 N   0  0  0  0  0  0  0  0  0  0  0  0
  -23.0858  -30.0684   20.9222 N   0  0  0  0  0  0  0  0  0  0  0  0
  -29.9865  -13.5703   20.4443 N   0  0  0  0  0  0  0  0  0  0  0  0
  -25.4902  -14.9741   20.1040 N   0  0  0  0  0  0  0  0  0  0  0  0
  -33.4198  -19.0516   21.2472 N   0  0  0  0  0  0  0  0  0  0  0  0
  -21.8529  -12.6121   21.3639 N   0  0  0  0  0  0  0  0  0  0  0  0
  -30.0361  -15.7547   21.3321 N   0  0  0  0  0  0  0  0  0  0  0  0
  -29.5296  -21.4422   23.1222 N   0  0  0  0  0  0  0  0  0  0  0  0
  -20.3091  -29.5988   23.1130 N   0  0  0  0  0  0  0  0  0  0  0  0
  -24.0761  -31.9314   18.2751 N   0  0  0  0  0  0  0  0  0  0  0  0
  -28.4276  -19.6864   24.2387 N   0  3  0  0  0  0  0  0  0  0  0  0
  -27.5612  -32.8913   18.2562 N   0  3  0  0  0  0  0  0  0  0  0  0
  -22.6381  -14.7165   20.9014 O   0  0  0  0  0  0  0  0  0  0  0  0
  -21.3332  -28.1908   21.5666 O   0  0  0  0  0  0  0  0  0  0  0  0
  -28.1587  -23.0330   21.5025 O   0  0  0  0  0  0  0  0  0  0  0  0
  -22.0470  -32.0590   20.2938 O   0  0  0  0  0  0  0  0  0  0  0  0
  -25.9541  -30.5925   18.0344 O   0  0  0  0  0  0  0  0  0  0  0  0
  -31.8781  -14.8809   20.2253 O   0  0  0  0  0  0  0  0  0  0  0  0
  -21.5848   -7.0889   22.0404 O   0  0  0  0  0  0  0  0  0  0  0  0
  -26.6542  -25.1762   22.0995 O   0  0  0  0  0  0  0  0  0  1  0  0
  -18.3585   -7.3937   26.5016 F   0  0  0  0  0  0  0  0  0  0  0  0
  -21.9391   -5.3594   24.1678 F   0  0  0  0  0  0  0  0  0  0  0  0
  1  2  1  0  0  0  0
  1  5  2  0  0  0  0
  2  6  2  0  0  0  0
  3  8  2  0  0  0  0
  3 16  1  0  0  0  0
  4  9  1  0  0  0  0
  4 16  2  0  0  0  0
  5 18  1  0  0  0  0
  6 20  1  0  0  0  0
  7 10  2  0  0  0  0
  7 19  1  0  0  0  0
  8 22  1  0  0  0  0
  9 22  2  0  0  0  0
 10 23  1  0  0  0  0
 11 12  2  0  0  0  0
 11 24  1  0  0  0  0
 12 25  1  0  0  0  0
 13 21  1  0  0  0  0
 13 23  2  0  0  0  0
 14 25  2  0  0  0  0
 14 26  1  0  0  0  0
 15 28  1  0  0  0  0
 15 29  2  0  0  0  0
 16 27  1  0  0  0  0
 17 27  1  0  0  0  0
 17 30  2  0  0  0  0
 17 32  1  0  0  0  0
 18 20  2  0  0  0  0
 18 39  1  0  0  0  0
 19 21  2  0  0  0  0
 19 40  1  0  0  0  0
 20 48  1  0  0  0  0
 21 41  1  0  0  0  0
 22 82  1  0  0  0  0
 23 83  1  0  0  0  0
 24 26  2  0  0  0  0
 24 82  1  0  0  0  0
 25 84  1  0  0  0  0
 26 85  1  0  0  0  0
 27 61  2  0  0  0  0
 28 33  1  0  0  0  0
 28 62  2  0  0  0  0
 29 63  1  0  0  0  0
 29 70  1  0  0  0  0
 30 64  1  0  0  0  0
 30 67  1  0  0  0  0
 31 62  1  0  0  0  0
 31 63  2  0  0  0  0
 31 68  1  0  0  0  0
 32 69  1  0  0  0  0
 32 76  2  0  0  0  0
 33 71  1  0  0  0  0
 33 74  2  0  0  0  0
 34 49  1  0  0  0  0
 34 72  1  0  0  0  0
 34 77  2  0  0  0  0
 35 56  1  0  0  0  0
 35 57  1  0  0  0  0
 35 78  2  0  0  0  0
 36 58  1  0  0  0  0
 36 65  1  0  0  0  0
 36 79  2  0  0  0  0
 37 59  1  0  0  0  0
 37 73  1  0  0  0  0
 37 80  2  0  0  0  0
 38 66  1  0  0  0  0
 38 70  1  0  0  0  0
 38 81  2  0  0  0  0
 39 42  1  0  0  0  0
 40 49  1  0  0  0  0
 41 65  1  0  0  0  0
 42 44  1  0  0  0  0
 43 45  1  0  0  0  0
 43 46  1  0  0  0  0
 44 48  1  0  0  0  0
 45 50  1  0  0  0  0
 46 66  1  0  0  0  0
 47 50  1  0  0  0  0
 47 66  1  0  0  0  0
 48 72  1  0  0  0  0
 49 65  1  0  0  0  0
 50 64  1  0  0  0  0
 51 59  1  0  0  0  0
 52 60  1  0  0  0  0
 53 60  1  0  0  0  0
 54 60  1  0  0  0  0
 55 75  1  0  0  0  0
 56 71  1  0  0  0  0
 57 83  1  0  0  0  0
 58 60  1  0  0  0  0
 58 73  1  0  0  0  0
 59 75  1  0  0  0  0
 61 64  1  0  0  0  0
M  CHG  2  74   1  75   1
M  ISO  4  38 100  57 101  70 100  83 101
M  END
> <Batch ID>
0159

> <Smiles>
CNC(C)C(=O)NC(C(=O)N1Cc2cc([101O:1][101CH2:1]C(=O)CNC(=N)c3cc([100NH:0][100C:0](=O)N4CCCC(n5nc(-c6ccc(Oc7ccc(F)cc7F)cc6)c(C(N)=O)c5N)C4)nc(N)n3)ccc2CC1C(=O)NC1CCCc2ccccc21)C(C)(C)C

> <Shape>
0.269

> <Color>
0.186

> <Negative vol penalty>
0.000

$$$$

  -OEChem-04052303473D

 86 94  0     1  0  0  0  0  0999 V2000
  -27.9773  -24.7149   26.2477 C   0  0  0  0  0  0  0  0  0  0  0  0
  -26.9080  -24.4916   25.3862 C   0  0  0  0  0  0  0  0  0  0  0  0
  -29.0785  -26.2594   17.9120 C   0  0  0  0  0  0  0  0  0  0  0  0
  -28.5536  -25.0016   19.9068 C   0  0  0  0  0  0  0  0  0  0  0  0
  -29.1361  -23.9482   26.1320 C   0  0  0  0  0  0  0  0  0  0  0  0
  -26.9973  -23.5021   24.4078 C   0  0  0  0  0  0  0  0  0  0  0  0
  -22.8101  -20.6680   24.1231 C   0  0  0  0  0  0  0  0  0  0  0  0
  -19.8415  -29.5340   23.9899 C   0  0  0  0  0  0  0  0  0  0  0  0
  -30.3470  -25.6801   17.8804 C   0  0  0  0  0  0  0  0  0  0  0  0
  -29.8220  -24.4222   19.8752 C   0  0  0  0  0  0  0  0  0  0  0  0
  -21.7141  -21.2164   23.4583 C   0  0  0  0  0  0  0  0  0  0  0  0
  -32.7927  -22.3400   20.1149 C   0  0  0  0  0  0  0  0  0  0  0  0
  -18.7169  -29.1566   24.7235 C   0  0  0  0  0  0  0  0  0  0  0  0
  -32.8840  -20.9648   20.3301 C   0  0  0  0  0  0  0  0  0  0  0  0
  -22.2711  -19.9324   21.4935 C   0  0  0  0  0  0  0  0  0  0  0  0
  -31.4804  -20.5703   18.4036 C   0  0  0  0  0  0  0  0  0  0  0  0
  -28.1818  -25.9202   18.9252 C   0  0  0  0  0  0  0  0  0  0  0  0
  -18.4259  -27.2348   23.2885 C   0  0  0  0  0  0  0  0  0  0  0  0
  -25.7002  -26.0352   18.3457 C   0  0  0  0  0  0  0  0  0  0  0  0
  -29.2359  -22.9423   25.1579 C   0  0  0  0  0  0  0  0  0  0  0  0
  -23.6526  -19.7545   23.4734 C   0  0  0  0  0  0  0  0  0  0  0  0
  -28.1590  -22.7221   24.2781 C   0  0  0  0  0  0  0  0  0  0  0  0
  -23.3757  -19.3720   22.1531 C   0  0  0  0  0  0  0  0  0  0  0  0
  -20.2584  -28.7619   22.9055 C   0  0  0  0  0  0  0  0  0  0  0  0
  -30.7187  -24.7615   18.8620 C   0  0  0  0  0  0  0  0  0  0  0  0
  -21.4462  -20.8508   22.1424 C   0  0  0  0  0  0  0  0  0  0  0  0
  -32.0453  -22.8303   19.0441 C   0  0  0  0  0  0  0  0  0  0  0  0
  -32.2278  -20.0800   19.4744 C   0  0  0  0  0  0  0  0  0  0  0  0
  -18.0090  -28.0069   24.3729 C   0  0  0  0  0  0  0  0  0  0  0  0
  -31.3891  -21.9455   18.1885 C   0  0  0  0  0  0  0  0  0  0  0  0
  -19.5505  -27.6123   22.5549 C   0  0  0  0  0  0  0  0  0  0  0  0
  -26.8716  -26.5188   18.9586 C   0  0  0  0  0  0  0  0  0  0  0  0
  -24.7356  -26.9563   18.6737 C   0  0  0  0  0  0  0  0  0  0  0  0
  -17.6708  -26.0090   22.9146 C   0  0  0  0  0  0  0  0  0  0  0  0
  -25.5017  -24.8585   17.5509 C   0  0  0  0  0  0  0  0  0  0  0  0
  -26.7283  -19.7179   22.6717 C   0  0  0  0  0  0  0  0  0  0  0  0
  -26.0585  -16.6716   21.7808 C   0  0  0  0  0  0  0  0  0  0  0  0
  -23.7217  -14.3898   20.7910 C   0  0  0  0  0  0  0  0  0  0  0  0
  -22.2147  -30.2595   22.3800 C   0  0  0  0  0  0  0  0  0  0  0  0
  -30.5267  -22.1711   25.0404 C   0  0  0  0  0  0  0  0  0  0  0  0
  -24.8153  -19.1518   24.2131 C   0  0  0  0  0  0  0  0  0  0  0  0
  -24.2376  -18.3798   21.4176 C   0  0  0  0  0  0  0  0  0  0  0  0
  -30.3983  -20.8900   24.2203 C   0  0  0  0  0  0  0  0  0  0  0  0
  -25.1385  -31.5335   20.7971 C   0  0  0  0  0  0  0  0  0  0  0  0
  -29.6339  -21.1579   22.9278 C   0  0  0  0  0  0  0  0  0  0  0  0
  -25.7537  -30.3027   20.1272 C   0  0  0  0  0  0  0  0  0  0  0  0
  -24.5070  -31.1896   22.1449 C   0  0  0  0  0  0  0  0  0  0  0  0
  -24.1549  -28.8543   21.4438 C   0  0  0  0  0  0  0  0  0  0  0  0
  -28.2083  -21.6413   23.2200 C   0  0  1  0  0  0  0  0  0  0  0  0
  -25.9039  -18.6216   23.2851 C   0  0  1  0  0  0  0  0  0  0  0  0
  -24.7461  -29.1386   20.0533 C   0  0  2  0  0  0  0  0  0  0  0  0
  -23.4817  -11.9897   20.0986 C   0  0  0  0  0  0  0  0  0  0  0  0
  -27.2344  -17.3452   19.0470 C   0  0  0  0  0  0  0  0  0  0  0  0
  -26.1262  -15.2909   18.1415 C   0  0  0  0  0  0  0  0  0  0  0  0
  -27.8595  -15.0881   19.9240 C   0  0  0  0  0  0  0  0  0  0  0  0
  -21.9092  -13.7971   23.0543 C   0  0  0  0  0  0  0  0  0  0  0  0
  -17.5330  -23.8313   21.9990 C   0  0  0  0  0  0  0  0  0  0  0  0
  -19.5728  -22.3140   22.2162 C   0  0  0  0  0  0  0  0  0  1  0  0
  -25.5796  -16.0097   20.5113 C   0  0  1  0  0  0  0  0  0  0  0  0
  -23.4360  -12.9736   21.2573 C   0  0  2  0  0  0  0  0  0  0  0  0
  -18.4327  -22.7992   21.3258 C   0  0  1  0  0  0  0  0  0  0  0  0
  -26.6846  -15.9537   19.4189 C   0  0  0  0  0  0  0  0  0  0  0  0
  -26.6717  -27.6587   19.6254 N   0  0  0  0  0  0  0  0  0  0  0  0
  -18.2952  -25.0278   22.3672 N   0  0  0  0  0  0  0  0  0  0  0  0
  -25.3636  -27.8991   19.4333 N   0  0  0  0  0  0  0  0  0  0  0  0
  -25.3664  -17.8232   22.1816 N   0  0  0  0  0  0  0  0  0  0  0  0
  -23.5609  -30.0816   21.9966 N   0  0  0  0  0  0  0  0  0  0  0  0
  -23.4201  -27.0437   18.3835 N   0  0  0  0  0  0  0  0  0  0  0  0
  -16.3170  -26.0301   23.1822 N   0  0  0  0  0  0  0  0  0  0  0  0
  -26.5997  -24.0212   17.3110 N   0  0  0  0  0  0  0  0  0  0  0  0
  -21.4015  -29.1478   22.1625 N   0  0  0  0  0  0  0  0  0  0  0  0
  -27.3636  -20.5273   23.5940 N   0  0  0  0  0  0  0  0  0  0  0  0
  -25.0596  -14.7041   20.9027 N   0  0  0  0  0  0  0  0  0  0  0  0
  -17.6040  -21.6216   20.9317 N   0  3  0  0  0  0  0  0  0  0  0  0
  -22.0868  -12.8974   21.8856 N   0  3  0  0  0  0  0  0  0  0  0  0
  -24.3873  -24.5671   17.0541 O   0  0  0  0  0  0  0  0  0  0  0  0
  -26.7850  -19.8208   21.4519 O   0  0  0  0  0  0  0  0  0  0  0  0
  -27.0070  -16.1807   22.3980 O   0  0  0  0  0  0  0  0  0  0  0  0
  -22.8462  -15.1406   20.3665 O   0  0  0  0  0  0  0  0  0  0  0  0
  -21.8070  -31.3291   22.8402 O   0  0  0  0  0  0  0  0  0  0  0  0
  -31.9563  -24.1958   18.8314 O   0  0  0  0  0  0  0  0  0  0  0  0
  -20.3774  -21.3850   21.4910 O   0  0  0  0  0  0  0  0  0  1  0  0
  -32.3168  -18.7594   19.6802 F   0  0  0  0  0  0  0  0  0  0  0  0
  -16.9299  -27.6545   25.0856 F   0  0  0  0  0  0  0  0  0  0  0  0
  -30.6705  -22.4105   17.1574 F   0  0  0  0  0  0  0  0  0  0  0  0
  -19.9515  -26.8694   21.5117 F   0  0  0  0  0  0  0  0  0  0  0  0
  1  2  1  0  0  0  0
  1  5  2  0  0  0  0
  2  6  2  0  0  0  0
  3  9  2  0  0  0  0
  3 17  1  0  0  0  0
  4 10  1  0  0  0  0
  4 17  2  0  0  0  0
  5 20  1  0  0  0  0
  6 22  1  0  0  0  0
  7 11  2  0  0  0  0
  7 21  1  0  0  0  0
  8 13  1  0  0  0  0
  8 24  2  0  0  0  0
  9 25  1  0  0  0  0
 10 25  2  0  0  0  0
 11 26  1  0  0  0  0
 12 14  2  0  0  0  0
 12 27  1  0  0  0  0
 13 29  2  0  0  0  0
 14 28  1  0  0  0  0
 15 23  1  0  0  0  0
 15 26  2  0  0  0  0
 16 28  2  0  0  0  0
 16 30  1  0  0  0  0
 17 32  1  0  0  0  0
 18 29  1  0  0  0  0
 18 31  2  0  0  0  0
 18 34  1  0  0  0  0
 19 32  1  0  0  0  0
 19 33  2  0  0  0  0
 19 35  1  0  0  0  0
 20 22  2  0  0  0  0
 20 40  1  0  0  0  0
 21 23  2  0  0  0  0
 21 41  1  0  0  0  0
 22 49  1  0  0  0  0
 23 42  1  0  0  0  0
 24 31  1  0  0  0  0
 24 71  1  0  0  0  0
 25 81  1  0  0  0  0
 26 82  1  0  0  0  0
 27 30  2  0  0  0  0
 27 81  1  0  0  0  0
 28 83  1  0  0  0  0
 29 84  1  0  0  0  0
 30 85  1  0  0  0  0
 31 86  1  0  0  0  0
 32 63  2  0  0  0  0
 33 65  1  0  0  0  0
 33 68  1  0  0  0  0
 34 64  2  0  0  0  0
 34 69  1  0  0  0  0
 35 70  1  0  0  0  0
 35 76  2  0  0  0  0
 36 50  1  0  0  0  0
 36 72  1  0  0  0  0
 36 77  2  0  0  0  0
 37 59  1  0  0  0  0
 37 66  1  0  0  0  0
 37 78  2  0  0  0  0
 38 60  1  0  0  0  0
 38 73  1  0  0  0  0
 38 79  2  0  0  0  0
 39 67  1  0  0  0  0
 39 71  1  0  0  0  0
 39 80  2  0  0  0  0
 40 43  1  0  0  0  0
 41 50  1  0  0  0  0
 42 66  1  0  0  0  0
 43 45  1  0  0  0  0
 44 46  1  0  0  0  0
 44 47  1  0  0  0  0
 45 49  1  0  0  0  0
 46 51  1  0  0  0  0
 47 67  1  0  0  0  0
 48 51  1  0  0  0  0
 48 67  1  0  0  0  0
 49 72  1  0  0  0  0
 50 66  1  0  0  0  0
 51 65  1  0  0  0  0
 52 60  1  0  0  0  0
 53 62  1  0  0  0  0
 54 62  1  0  0  0  0
 55 62  1  0  0  0  0
 56 75  1  0  0  0  0
 57 61  1  0  0  0  0
 57 64  1  0  0  0  0
 58 61  1  0  0  0  0
 58 82  1  0  0  0  0
 59 62  1  0  0  0  0
 59 73  1  0  0  0  0
 60 75  1  0  0  0  0
 61 74  1  0  0  0  0
 63 65  1  0  0  0  0
M  CHG  2  74   1  75   1
M  ISO  4  39 100  58 101  71 100  82 101
M  END
> <Batch ID>
0159

> <Smiles>
CNC(C)C(=O)NC(C(=O)N1Cc2cc([101O:1][101CH2:1]C(N)CNC(=N)c3c(F)ccc([100NH:0][100C:0](=O)N4CCCC(n5nc(-c6ccc(Oc7ccc(F)cc7F)cc6)c(C(N)=O)c5N)C4)c3F)ccc2CC1C(=O)NC1CCCc2ccccc21)C(C)(C)C

> <Shape>
0.198

> <Color>
0.081

> <Negative vol penalty>
0.000

$$$$

  -OEChem-04052303473D

 83 91  0     1  0  0  0  0  0999 V2000
  -16.5600  -26.1169   22.7272 C   0  0  0  0  0  0  0  0  0  0  0  0
  -17.8200  -25.5327   22.6468 C   0  0  0  0  0  0  0  0  0  0  0  0
  -22.9312  -10.1029   21.1116 C   0  0  0  0  0  0  0  0  0  0  0  0
  -23.7693  -10.7628   23.2793 C   0  0  0  0  0  0  0  0  0  0  0  0
  -16.4416  -27.4910   22.9314 C   0  0  0  0  0  0  0  0  0  0  0  0
  -18.9626  -26.3227   22.7693 C   0  0  0  0  0  0  0  0  0  0  0  0
  -22.4439  -24.2458   25.8045 C   0  0  0  0  0  0  0  0  0  0  0  0
  -22.1447   -9.1214   21.7145 C   0  0  0  0  0  0  0  0  0  0  0  0
  -22.9828   -9.7813   23.8822 C   0  0  0  0  0  0  0  0  0  0  0  0
  -23.2206  -23.2176   25.2723 C   0  0  0  0  0  0  0  0  0  0  0  0
  -19.2151   -8.9614   23.3952 C   0  0  0  0  0  0  0  0  0  0  0  0
  -17.8915   -8.8409   22.9720 C   0  0  0  0  0  0  0  0  0  0  0  0
  -32.0591  -18.8769   20.6049 C   0  0  0  0  0  0  0  0  0  0  0  0
  -32.0428  -17.4955   20.2974 C   0  0  0  0  0  0  0  0  0  0  0  0
  -25.0190  -24.7802   24.8936 C   0  0  0  0  0  0  0  0  0  0  0  0
  -18.3161   -6.5616   22.2927 C   0  0  0  0  0  0  0  0  0  0  0  0
  -23.7436  -10.9236   21.8940 C   0  0  0  0  0  0  0  0  0  0  0  0
  -24.1957  -13.2717   21.0054 C   0  0  0  0  0  0  0  0  0  0  0  0
  -17.5833  -28.2967   23.0662 C   0  0  0  0  0  0  0  0  0  0  0  0
  -22.9457  -25.5533   25.8753 C   0  0  0  0  0  0  0  0  0  0  0  0
  -18.8594  -27.7091   22.9741 C   0  0  0  0  0  0  0  0  0  0  0  0
  -24.2475  -25.8228   25.4295 C   0  0  0  0  0  0  0  0  0  0  0  0
  -22.1704   -8.9605   23.0998 C   0  0  0  0  0  0  0  0  0  0  0  0
  -24.5073  -23.4853   24.8141 C   0  0  0  0  0  0  0  0  0  0  0  0
  -20.0893   -7.8820   23.2671 C   0  0  0  0  0  0  0  0  0  0  0  0
  -17.4420   -7.6410   22.4208 C   0  0  0  0  0  0  0  0  0  0  0  0
  -19.6398   -6.6821   22.7159 C   0  0  0  0  0  0  0  0  0  0  0  0
  -24.5567  -11.9374   21.2718 C   0  0  0  0  0  0  0  0  0  0  0  0
  -30.8439  -19.1531   21.1869 C   0  0  0  0  0  0  0  0  0  0  0  0
  -25.3076  -13.8161   20.4107 C   0  0  0  0  0  0  0  0  0  0  0  0
  -30.8188  -17.0259   20.7137 C   0  0  0  0  0  0  0  0  0  0  0  0
  -22.9652  -13.9578   21.2718 C   0  0  0  0  0  0  0  0  0  0  0  0
  -30.4191  -20.4821   21.6708 C   0  0  0  0  0  0  0  0  0  0  0  0
  -22.1061  -28.3494   24.6180 C   0  0  0  0  0  0  0  0  0  0  0  0
  -27.2860  -21.6173   23.2717 C   0  0  0  0  0  0  0  0  0  0  0  0
  -24.4690  -29.4783   26.5322 C   0  0  0  0  0  0  0  0  0  0  0  0
  -27.3550  -28.8583   28.2449 C   0  0  0  0  0  0  0  0  0  0  0  0
  -30.8185  -14.5695   20.1550 C   0  0  0  0  0  0  0  0  0  0  0  0
  -17.4055  -29.7845   23.2384 C   0  0  0  0  0  0  0  0  0  0  0  0
  -22.1050  -26.6460   26.4767 C   0  0  0  0  0  0  0  0  0  0  0  0
  -24.8403  -27.2054   25.5020 C   0  0  0  0  0  0  0  0  0  0  0  0
  -18.6631  -30.4950   23.7325 C   0  0  0  0  0  0  0  0  0  0  0  0
  -29.5142  -11.6159   18.6543 C   0  0  0  0  0  0  0  0  0  0  0  0
  -19.8830  -30.0322   22.9423 C   0  0  0  0  0  0  0  0  0  0  0  0
  -28.0785  -11.5460   19.1796 C   0  0  0  0  0  0  0  0  0  0  0  0
  -30.4798  -12.1479   19.7118 C   0  0  0  0  0  0  0  0  0  0  0  0
  -28.6566  -13.3581   20.8436 C   0  0  0  0  0  0  0  0  0  0  0  0
  -20.1222  -28.5289   23.1270 C   0  0  1  0  0  0  0  0  0  0  0  0
  -22.5277  -28.0412   26.0269 C   0  0  1  0  0  0  0  0  0  0  0  0
  -27.6368  -12.8892   19.7930 C   0  0  2  0  0  0  0  0  0  0  0  0
  -29.0728  -29.9874   29.6843 C   0  0  0  0  0  0  0  0  0  0  0  0
  -25.6733  -30.7957   24.0575 C   0  0  0  0  0  0  0  0  0  0  0  0
  -27.8092  -31.0781   25.3328 C   0  0  0  0  0  0  0  0  0  0  0  0
  -25.7290  -32.2064   26.1218 C   0  0  0  0  0  0  0  0  0  0  0  0
  -26.7725  -27.0792   30.5371 C   0  0  0  0  0  0  0  0  0  0  0  0
  -28.6774  -21.8610   22.7487 C   0  0  0  0  0  0  0  0  0  0  0  0
  -26.5766  -22.8288   23.8431 C   0  0  0  0  0  0  0  0  0  1  0  0
  -25.9542  -29.7013   26.3790 C   0  0  1  0  0  0  0  0  0  0  0  0
  -27.7758  -29.1936   29.6644 C   0  0  2  0  0  0  0  0  0  0  0  0
  -26.2798  -30.9196   25.4695 C   0  0  0  0  0  0  0  0  0  0  0  0
  -25.8007  -11.6515   20.8784 N   0  0  0  0  0  0  0  0  0  0  0  0
  -26.2310  -12.8137   20.3587 N   0  0  0  0  0  0  0  0  0  0  0  0
  -23.9768  -28.2414   26.0924 N   0  0  0  0  0  0  0  0  0  0  0  0
  -29.9989  -13.4245   20.2448 N   0  0  0  0  0  0  0  0  0  0  0  0
  -25.5758  -15.0497   19.9323 N   0  0  0  0  0  0  0  0  0  0  0  0
  -21.9252  -13.2493   21.8888 N   0  0  0  0  0  0  0  0  0  0  0  0
  -30.2426  -15.7323   20.6656 N   0  0  0  0  0  0  0  0  0  0  0  0
  -29.1990  -20.6113   22.2215 N   0  0  0  0  0  0  0  0  0  0  0  0
  -20.7425  -28.2695   24.4086 N   0  0  0  0  0  0  0  0  0  0  0  0
  -26.4931  -29.8039   27.7309 N   0  0  0  0  0  0  0  0  0  0  0  0
  -31.2688  -21.5006   21.5366 N   0  3  0  0  0  0  0  0  0  0  0  0
  -27.9766  -27.9455   30.4536 N   0  3  0  0  0  0  0  0  0  0  0  0
  -22.7873  -15.1589   20.9567 O   0  0  0  0  0  0  0  0  0  0  0  0
  -22.9548  -28.6396   23.7831 O   0  0  0  0  0  0  0  0  0  0  0  0
  -26.7528  -20.5091   23.2410 O   0  0  0  0  0  0  0  0  0  0  0  0
  -23.7724  -30.3661   27.0306 O   0  0  0  0  0  0  0  0  0  0  0  0
  -27.7542  -27.8596   27.6501 O   0  0  0  0  0  0  0  0  0  0  0  0
  -31.9373  -14.5277   19.6368 O   0  0  0  0  0  0  0  0  0  0  0  0
  -30.0820  -18.0301   21.2571 O   0  0  0  0  0  0  0  0  0  0  0  0
  -21.4029   -8.0030   23.6884 O   0  0  0  0  0  0  0  0  0  0  0  0
  -25.2674  -22.4836   24.2936 O   0  0  0  0  0  0  0  0  0  1  0  0
  -16.1705   -7.5250   22.0158 F   0  0  0  0  0  0  0  0  0  0  0  0
  -20.4747   -5.6413   22.5914 F   0  0  0  0  0  0  0  0  0  0  0  0
  1  2  1  0  0  0  0
  1  5  2  0  0  0  0
  2  6  2  0  0  0  0
  3  8  2  0  0  0  0
  3 17  1  0  0  0  0
  4  9  1  0  0  0  0
  4 17  2  0  0  0  0
  5 19  1  0  0  0  0
  6 21  1  0  0  0  0
  7 10  2  0  0  0  0
  7 20  1  0  0  0  0
  8 23  1  0  0  0  0
  9 23  2  0  0  0  0
 10 24  1  0  0  0  0
 11 12  2  0  0  0  0
 11 25  1  0  0  0  0
 12 26  1  0  0  0  0
 13 14  1  0  0  0  0
 13 29  2  0  0  0  0
 14 31  2  0  0  0  0
 15 22  1  0  0  0  0
 15 24  2  0  0  0  0
 16 26  2  0  0  0  0
 16 27  1  0  0  0  0
 17 28  1  0  0  0  0
 18 28  1  0  0  0  0
 18 30  2  0  0  0  0
 18 32  1  0  0  0  0
 19 21  2  0  0  0  0
 19 39  1  0  0  0  0
 20 22  2  0  0  0  0
 20 40  1  0  0  0  0
 21 48  1  0  0  0  0
 22 41  1  0  0  0  0
 23 80  1  0  0  0  0
 24 81  1  0  0  0  0
 25 27  2  0  0  0  0
 25 80  1  0  0  0  0
 26 82  1  0  0  0  0
 27 83  1  0  0  0  0
 28 61  2  0  0  0  0
 29 33  1  0  0  0  0
 29 79  1  0  0  0  0
 30 62  1  0  0  0  0
 30 65  1  0  0  0  0
 31 67  1  0  0  0  0
 31 79  1  0  0  0  0
 32 66  1  0  0  0  0
 32 73  2  0  0  0  0
 33 68  1  0  0  0  0
 33 71  2  0  0  0  0
 34 49  1  0  0  0  0
 34 69  1  0  0  0  0
 34 74  2  0  0  0  0
 35 56  1  0  0  0  0
 35 57  1  0  0  0  0
 35 75  2  0  0  0  0
 36 58  1  0  0  0  0
 36 63  1  0  0  0  0
 36 76  2  0  0  0  0
 37 59  1  0  0  0  0
 37 70  1  0  0  0  0
 37 77  2  0  0  0  0
 38 64  1  0  0  0  0
 38 67  1  0  0  0  0
 38 78  2  0  0  0  0
 39 42  1  0  0  0  0
 40 49  1  0  0  0  0
 41 63  1  0  0  0  0
 42 44  1  0  0  0  0
 43 45  1  0  0  0  0
 43 46  1  0  0  0  0
 44 48  1  0  0  0  0
 45 50  1  0  0  0  0
 46 64  1  0  0  0  0
 47 50  1  0  0  0  0
 47 64  1  0  0  0  0
 48 69  1  0  0  0  0
 49 63  1  0  0  0  0
 50 62  1  0  0  0  0
 51 59  1  0  0  0  0
 52 60  1  0  0  0  0
 53 60  1  0  0  0  0
 54 60  1  0  0  0  0
 55 72  1  0  0  0  0
 56 68  1  0  0  0  0
 57 81  1  0  0  0  0
 58 60  1  0  0  0  0
 58 70  1  0  0  0  0
 59 72  1  0  0  0  0
 61 62  1  0  0  0  0
M  CHG  2  71   1  72   1
M  ISO  4  38 100  57 101  67 100  81 101
M  END
> <Batch ID>
0159

> <Smiles>
CNC(C)C(=O)NC(C(=O)N1Cc2cc([101O:1][101CH2:1]C(=O)CNC(=N)c3ccc([100NH:0][100C:0](=O)N4CCCC(n5nc(-c6ccc(Oc7ccc(F)cc7F)cc6)c(C(N)=O)c5N)C4)o3)ccc2CC1C(=O)NC1CCCc2ccccc21)C(C)(C)C

> <Shape>
0.249

> <Color>
0.172

> <Negative vol penalty>
0.000

$$$$

  -OEChem-04052303473D

 85 93  0     1  0  0  0  0  0999 V2000
  -17.5961  -11.0402   23.2990 C   0  0  0  0  0  0  0  0  0  0  0  0
  -18.2051  -12.1730   23.8295 C   0  0  0  0  0  0  0  0  0  0  0  0
  -22.7469  -30.7968   20.6319 C   0  0  0  0  0  0  0  0  0  0  0  0
  -22.6710  -29.0089   22.2550 C   0  0  0  0  0  0  0  0  0  0  0  0
  -18.3676  -10.0683   22.6635 C   0  0  0  0  0  0  0  0  0  0  0  0
  -19.5863  -12.3339   23.7256 C   0  0  0  0  0  0  0  0  0  0  0  0
  -22.6344  -17.5932   22.9804 C   0  0  0  0  0  0  0  0  0  0  0  0
  -21.3616  -30.7237   20.4865 C   0  0  0  0  0  0  0  0  0  0  0  0
  -21.2857  -28.9358   22.1098 C   0  0  0  0  0  0  0  0  0  0  0  0
  -23.2982  -18.4279   23.8784 C   0  0  0  0  0  0  0  0  0  0  0  0
  -18.5758  -30.6384   23.1951 C   0  0  0  0  0  0  0  0  0  0  0  0
  -17.8080  -30.5448   24.3558 C   0  0  0  0  0  0  0  0  0  0  0  0
  -29.1071  -21.0727   22.1053 C   0  0  0  0  0  0  0  0  0  0  0  0
  -29.6905  -22.8646   20.5935 C   0  0  0  0  0  0  0  0  0  0  0  0
  -25.3853  -17.3511   23.3270 C   0  0  0  0  0  0  0  0  0  0  0  0
  -28.5003  -23.3495   22.6393 C   0  0  0  0  0  0  0  0  0  0  0  0
  -16.9201  -28.4295   23.5978 C   0  0  0  0  0  0  0  0  0  0  0  0
  -23.4017  -29.9394   21.5161 C   0  0  0  0  0  0  0  0  0  0  0  0
  -29.6982  -21.5084   20.9194 C   0  0  0  0  0  0  0  0  0  0  0  0
  -25.5515  -30.8106   22.5776 C   0  0  0  0  0  0  0  0  0  0  0  0
  -19.7578  -10.2220   22.5433 C   0  0  0  0  0  0  0  0  0  0  0  0
  -23.3405  -16.6222   22.2559 C   0  0  0  0  0  0  0  0  0  0  0  0
  -20.3774  -11.3624   23.0890 C   0  0  0  0  0  0  0  0  0  0  0  0
  -24.7284  -16.5071   22.4186 C   0  0  0  0  0  0  0  0  0  0  0  0
  -28.5081  -21.9933   22.9652 C   0  0  0  0  0  0  0  0  0  0  0  0
  -29.0915  -23.7852   21.4534 C   0  0  0  0  0  0  0  0  0  0  0  0
  -20.6310  -29.7932   21.2255 C   0  0  0  0  0  0  0  0  0  0  0  0
  -24.6734  -18.3050   24.0539 C   0  0  0  0  0  0  0  0  0  0  0  0
  -18.5157  -29.6277   22.2356 C   0  0  0  0  0  0  0  0  0  0  0  0
  -16.9802  -29.4403   24.5572 C   0  0  0  0  0  0  0  0  0  0  0  0
  -17.6879  -28.5233   22.4370 C   0  0  0  0  0  0  0  0  0  0  0  0
  -24.8328  -30.0140   21.6662 C   0  0  0  0  0  0  0  0  0  0  0  0
  -26.8695  -30.5211   22.3216 C   0  0  0  0  0  0  0  0  0  0  0  0
  -26.6505  -21.8066   24.2840 C   0  0  0  0  0  0  0  0  0  0  0  0
  -30.3185  -20.5541   20.0272 C   0  0  0  0  0  0  0  0  0  0  0  0
  -25.0708  -31.7300   23.5672 C   0  0  0  0  0  0  0  0  0  0  0  0
  -23.2564  -13.4493   22.0847 C   0  0  0  0  0  0  0  0  0  0  0  0
  -25.3961  -13.9108   19.6906 C   0  0  0  0  0  0  0  0  0  0  0  0
  -27.7655  -15.9134   18.2687 C   0  0  0  0  0  0  0  0  0  0  0  0
  -29.6240  -25.7613   19.9845 C   0  0  0  0  0  0  0  0  0  0  0  0
  -20.5559   -9.1219   21.8894 C   0  0  0  0  0  0  0  0  0  0  0  0
  -22.6138  -15.7475   21.2714 C   0  0  0  0  0  0  0  0  0  0  0  0
  -25.5357  -15.4943   21.6498 C   0  0  0  0  0  0  0  0  0  0  0  0
  -21.9668   -9.5472   21.4910 C   0  0  0  0  0  0  0  0  0  0  0  0
  -29.7753  -29.1106   18.7859 C   0  0  0  0  0  0  0  0  0  0  0  0
  -22.6390  -10.3028   22.6329 C   0  0  0  0  0  0  0  0  0  0  0  0
  -28.5940  -29.7964   19.4761 C   0  0  0  0  0  0  0  0  0  0  0  0
  -29.4483  -27.6687   18.4014 C   0  0  0  0  0  0  0  0  0  0  0  0
  -27.7581  -27.5199   20.1876 C   0  0  0  0  0  0  0  0  0  0  0  0
  -21.8699  -11.5847   22.9744 C   0  0  1  0  0  0  0  0  0  0  0  0
  -23.3535  -14.4485   20.9667 C   0  0  1  0  0  0  0  0  0  0  0  0
  -28.0618  -28.9538   20.6519 C   0  0  2  0  0  0  0  0  0  0  0  0
  -25.3490  -22.6244   26.2088 C   0  0  0  0  0  0  0  0  0  0  0  0
  -29.3674  -16.0051   16.3392 C   0  0  0  0  0  0  0  0  0  0  0  0
  -27.2450  -11.9609   21.1361 C   0  0  0  0  0  0  0  0  0  0  0  0
  -29.1297  -12.8090   19.7230 C   0  0  0  0  0  0  0  0  0  0  0  0
  -27.1767  -11.6864   18.6513 C   0  0  0  0  0  0  0  0  0  0  0  0
  -26.4684  -18.3298   17.1563 C   0  0  0  0  0  0  0  0  0  0  0  0
  -24.7793  -20.4213   25.1337 C   0  0  0  0  0  0  0  0  0  1  0  0
  -25.9012  -21.3791   25.5261 C   0  0  1  0  0  0  0  0  0  0  0  0
  -26.8999  -14.0113   19.6055 C   0  0  1  0  0  0  0  0  0  0  0  0
  -27.9748  -16.3637   16.8342 C   0  0  2  0  0  0  0  0  0  0  0  0
  -27.5976  -12.6348   19.7950 C   0  0  0  0  0  0  0  0  0  0  0  0
  -25.6282  -29.2741   20.8892 N   0  0  0  0  0  0  0  0  0  0  0  0
  -27.9129  -21.5543   24.1596 N   0  0  0  0  0  0  0  0  0  0  0  0
  -26.8604  -29.6046   21.3115 N   0  0  0  0  0  0  0  0  0  0  0  0
  -24.7787  -14.6579   20.7038 N   0  0  0  0  0  0  0  0  0  0  0  0
  -28.9541  -26.9303   19.5657 N   0  0  0  0  0  0  0  0  0  0  0  0
  -28.0237  -30.9637   22.8641 N   0  0  0  0  0  0  0  0  0  0  0  0
  -30.3306  -19.2455   20.3316 N   0  0  0  0  0  0  0  0  0  0  0  0
  -23.6867  -31.9080   23.6974 N   0  0  0  0  0  0  0  0  0  0  0  0
  -29.0829  -25.1628   21.1218 N   0  0  0  0  0  0  0  0  0  0  0  0
  -22.1548  -12.6190   22.0031 N   0  0  0  0  0  0  0  0  0  0  0  0
  -27.1943  -14.6601   18.3324 N   0  0  0  0  0  0  0  0  0  0  0  0
  -30.8889  -20.9637   18.8818 N   0  3  0  0  0  0  0  0  0  0  0  0
  -27.8027  -17.8400   16.7243 N   0  3  0  0  0  0  0  0  0  0  0  0
  -25.8461  -32.3869   24.3026 O   0  0  0  0  0  0  0  0  0  0  0  0
  -24.1180  -13.4318   22.9559 O   0  0  0  0  0  0  0  0  0  0  0  0
  -24.7908  -13.2012   18.8833 O   0  0  0  0  0  0  0  0  0  0  0  0
  -28.0808  -16.6029   19.2360 O   0  0  0  0  0  0  0  0  0  0  0  0
  -30.6218  -25.3386   19.3948 O   0  0  0  0  0  0  0  0  0  0  0  0
  -19.2791  -29.7218   21.0841 O   0  0  0  0  0  0  0  0  0  0  0  0
  -25.3237  -19.1181   24.9302 O   0  0  0  0  0  0  0  0  0  1  0  0
  -16.2441  -29.3497   25.6726 F   0  0  0  0  0  0  0  0  0  0  0  0
  -17.6269  -27.5485   21.5194 F   0  0  0  0  0  0  0  0  0  0  0  0
  1  2  1  0  0  0  0
  1  5  2  0  0  0  0
  2  6  2  0  0  0  0
  3  8  2  0  0  0  0
  3 18  1  0  0  0  0
  4  9  1  0  0  0  0
  4 18  2  0  0  0  0
  5 21  1  0  0  0  0
  6 23  1  0  0  0  0
  7 10  2  0  0  0  0
  7 22  1  0  0  0  0
  8 27  1  0  0  0  0
  9 27  2  0  0  0  0
 10 28  1  0  0  0  0
 11 12  2  0  0  0  0
 11 29  1  0  0  0  0
 12 30  1  0  0  0  0
 13 19  1  0  0  0  0
 13 25  2  0  0  0  0
 14 19  2  0  0  0  0
 14 26  1  0  0  0  0
 15 24  1  0  0  0  0
 15 28  2  0  0  0  0
 16 25  1  0  0  0  0
 16 26  2  0  0  0  0
 17 30  2  0  0  0  0
 17 31  1  0  0  0  0
 18 32  1  0  0  0  0
 19 35  1  0  0  0  0
 20 32  1  0  0  0  0
 20 33  2  0  0  0  0
 20 36  1  0  0  0  0
 21 23  2  0  0  0  0
 21 41  1  0  0  0  0
 22 24  2  0  0  0  0
 22 42  1  0  0  0  0
 23 50  1  0  0  0  0
 24 43  1  0  0  0  0
 25 65  1  0  0  0  0
 26 72  1  0  0  0  0
 27 82  1  0  0  0  0
 28 83  1  0  0  0  0
 29 31  2  0  0  0  0
 29 82  1  0  0  0  0
 30 84  1  0  0  0  0
 31 85  1  0  0  0  0
 32 64  2  0  0  0  0
 33 66  1  0  0  0  0
 33 69  1  0  0  0  0
 34 60  1  0  0  0  0
 34 65  2  0  0  0  0
 35 70  1  0  0  0  0
 35 75  2  0  0  0  0
 36 71  1  0  0  0  0
 36 77  2  0  0  0  0
 37 51  1  0  0  0  0
 37 73  1  0  0  0  0
 37 78  2  0  0  0  0
 38 61  1  0  0  0  0
 38 67  1  0  0  0  0
 38 79  2  0  0  0  0
 39 62  1  0  0  0  0
 39 74  1  0  0  0  0
 39 80  2  0  0  0  0
 40 68  1  0  0  0  0
 40 72  1  0  0  0  0
 40 81  2  0  0  0  0
 41 44  1  0  0  0  0
 42 51  1  0  0  0  0
 43 67  1  0  0  0  0
 44 46  1  0  0  0  0
 45 47  1  0  0  0  0
 45 48  1  0  0  0  0
 46 50  1  0  0  0  0
 47 52  1  0  0  0  0
 48 68  1  0  0  0  0
 49 52  1  0  0  0  0
 49 68  1  0  0  0  0
 50 73  1  0  0  0  0
 51 67  1  0  0  0  0
 52 66  1  0  0  0  0
 53 60  1  0  0  0  0
 54 62  1  0  0  0  0
 55 63  1  0  0  0  0
 56 63  1  0  0  0  0
 57 63  1  0  0  0  0
 58 76  1  0  0  0  0
 59 60  1  0  0  0  0
 59 83  1  0  0  0  0
 61 63  1  0  0  0  0
 61 74  1  0  0  0  0
 62 76  1  0  0  0  0
 64 66  1  0  0  0  0
M  CHG  2  75   1  76   1
M  ISO  4  40 100  59 101  72 100  83 101
M  END
> <Batch ID>
0159

> <Smiles>
CNC(C)C(=O)NC(C(=O)N1Cc2cc([101O:1][101CH2:1]C(C)=CNc3cc([100NH:0][100C:0](=O)N4CCCC(n5nc(-c6ccc(Oc7ccc(F)cc7F)cc6)c(C(N)=O)c5N)C4)cc(C(=N)N)c3)ccc2CC1C(=O)NC1CCCc2ccccc21)C(C)(C)C

> <Shape>
0.262

> <Color>
0.055

> <Negative vol penalty>
0.000

$$$$

  -OEChem-04052303473D

 86 94  0     1  0  0  0  0  0999 V2000
  -19.5997  -33.9923   20.9895 C   0  0  0  0  0  0  0  0  0  0  0  0
  -20.8397  -33.5121   20.5807 C   0  0  0  0  0  0  0  0  0  0  0  0
  -26.2078  -11.1196   20.5111 C   0  0  0  0  0  0  0  0  0  0  0  0
  -25.6464  -13.3252   19.7002 C   0  0  0  0  0  0  0  0  0  0  0  0
  -18.9945  -33.4725   22.1330 C   0  0  0  0  0  0  0  0  0  0  0  0
  -21.4759  -32.5125   21.3159 C   0  0  0  0  0  0  0  0  0  0  0  0
  -24.9882  -28.0000   19.1234 C   0  0  0  0  0  0  0  0  0  0  0  0
  -24.8521  -10.7981   20.5753 C   0  0  0  0  0  0  0  0  0  0  0  0
  -24.2906  -13.0036   19.7643 C   0  0  0  0  0  0  0  0  0  0  0  0
  -26.3710  -27.8504   19.0265 C   0  0  0  0  0  0  0  0  0  0  0  0
  -22.4061   -9.8775   18.4299 C   0  0  0  0  0  0  0  0  0  0  0  0
  -22.0096   -8.6375   17.9293 C   0  0  0  0  0  0  0  0  0  0  0  0
  -29.9300  -21.8581   23.3461 C   0  0  0  0  0  0  0  0  0  0  0  0
  -29.8869  -19.8969   21.9358 C   0  0  0  0  0  0  0  0  0  0  0  0
  -26.3749  -26.6041   21.0919 C   0  0  0  0  0  0  0  0  0  0  0  0
  -30.9791  -19.8125   24.0892 C   0  0  0  0  0  0  0  0  0  0  0  0
  -21.1544   -8.0319   20.1062 C   0  0  0  0  0  0  0  0  0  0  0  0
  -26.6050  -12.3832   20.0736 C   0  0  0  0  0  0  0  0  0  0  0  0
  -29.5516  -21.2325   22.1582 C   0  0  0  0  0  0  0  0  0  0  0  0
  -28.8717  -12.5345   18.9129 C   0  0  0  0  0  0  0  0  0  0  0  0
  -19.6192  -32.4592   22.8771 C   0  0  0  0  0  0  0  0  0  0  0  0
  -24.2887  -27.4612   20.2128 C   0  0  0  0  0  0  0  0  0  0  0  0
  -20.8792  -31.9795   22.4711 C   0  0  0  0  0  0  0  0  0  0  0  0
  -24.9829  -26.7460   21.1990 C   0  0  0  0  0  0  0  0  0  0  0  0
  -30.6439  -21.1481   24.3116 C   0  0  0  0  0  0  0  0  0  0  0  0
  -30.6006  -19.1869   22.9013 C   0  0  0  0  0  0  0  0  0  0  0  0
  -23.8935  -11.7401   20.2019 C   0  0  0  0  0  0  0  0  0  0  0  0
  -27.0649  -27.1548   20.0122 C   0  0  0  0  0  0  0  0  0  0  0  0
  -22.1769  -10.1947   19.7688 C   0  0  0  0  0  0  0  0  0  0  0  0
  -21.3837   -7.7147   18.7674 C   0  0  0  0  0  0  0  0  0  0  0  0
  -21.5510   -9.2720   20.6069 C   0  0  0  0  0  0  0  0  0  0  0  0
  -28.0053  -12.7162   20.0076 C   0  0  0  0  0  0  0  0  0  0  0  0
  -30.0844  -13.0059   19.3529 C   0  0  0  0  0  0  0  0  0  0  0  0
  -28.7957  -21.9844   21.1355 C   0  0  0  0  0  0  0  0  0  0  0  0
  -28.6041  -11.9885   17.6145 C   0  0  0  0  0  0  0  0  0  0  0  0
  -22.5169  -28.6685   22.5595 C   0  0  0  0  0  0  0  0  0  0  0  0
  -21.9771  -25.5419   23.2345 C   0  0  0  0  0  0  0  0  0  0  0  0
  -28.7807  -23.9476   19.6112 C   0  0  0  0  0  0  0  0  0  0  0  0
  -23.0341  -22.3049   23.0090 C   0  0  0  0  0  0  0  0  0  0  0  0
  -31.6464  -16.9829   23.5300 C   0  0  0  0  0  0  0  0  0  0  0  0
  -18.9479  -31.9617   24.1326 C   0  0  0  0  0  0  0  0  0  0  0  0
  -22.7937  -27.6084   20.2889 C   0  0  0  0  0  0  0  0  0  0  0  0
  -24.2760  -26.1310   22.3781 C   0  0  0  0  0  0  0  0  0  0  0  0
  -19.5163  -30.6407   24.6448 C   0  0  0  0  0  0  0  0  0  0  0  0
  -32.6536  -13.5724   23.3544 C   0  0  0  0  0  0  0  0  0  0  0  0
  -21.0412  -30.6806   24.6465 C   0  0  0  0  0  0  0  0  0  0  0  0
  -31.6585  -12.9506   22.3720 C   0  0  0  0  0  0  0  0  0  0  0  0
  -31.9924  -14.6269   24.2402 C   0  0  0  0  0  0  0  0  0  0  0  0
  -30.2668  -15.0538   22.5346 C   0  0  0  0  0  0  0  0  0  0  0  0
  -21.5894  -30.8784   23.2281 C   0  0  1  0  0  0  0  0  0  0  0  0
  -22.2502  -27.4605   21.7067 C   0  0  1  0  0  0  0  0  0  0  0  0
  -30.9011  -14.0321   21.5768 C   0  0  2  0  0  0  0  0  0  0  0  0
  -22.4010  -19.9739   23.6896 C   0  0  0  0  0  0  0  0  0  0  0  0
  -29.8176  -27.2839   17.9976 C   0  0  0  0  0  0  0  0  0  0  0  0
  -22.8899  -26.1293   26.0861 C   0  0  0  0  0  0  0  0  0  0  0  0
  -23.1468  -23.6638   26.4374 C   0  0  0  0  0  0  0  0  0  0  0  0
  -20.9026  -24.6205   25.9168 C   0  0  0  0  0  0  0  0  0  0  0  0
  -22.8532  -21.4077   20.1945 C   0  0  0  0  0  0  0  0  0  0  0  0
  -29.6907  -25.0950   19.2319 C   0  0  0  0  0  0  0  0  0  0  0  0
  -22.6524  -24.5021   24.0957 C   0  0  1  0  0  0  0  0  0  0  0  0
  -22.3090  -21.0344   22.6034 C   0  0  2  0  0  0  0  0  0  0  0  0
  -28.9173  -26.3290   18.7702 C   0  0  1  0  0  0  0  0  0  1  0  0
  -22.4118  -24.7420   25.6129 C   0  0  0  0  0  0  0  0  0  0  0  0
  -28.6159  -13.2604   21.0636 N   0  0  0  0  0  0  0  0  0  0  0  0
  -29.8788  -13.4246   20.6345 N   0  0  0  0  0  0  0  0  0  0  0  0
  -22.8147  -26.3075   22.4111 N   0  0  0  0  0  0  0  0  0  0  0  0
  -31.2979  -15.6203   23.4182 N   0  0  0  0  0  0  0  0  0  0  0  0
  -31.0270  -21.7808   25.5124 N   0  0  0  0  0  0  0  0  0  0  0  0
  -31.2959  -13.0988   18.7647 N   0  0  0  0  0  0  0  0  0  0  0  0
  -27.3035  -11.5514   17.3285 N   0  0  0  0  0  0  0  0  0  0  0  0
  -30.9417  -17.8303   22.6756 N   0  0  0  0  0  0  0  0  0  0  0  0
  -29.3624  -23.0787   20.6088 N   0  0  0  0  0  0  0  0  0  0  0  0
  -21.5336  -29.6366   22.4870 N   0  0  0  0  0  0  0  0  0  0  0  0
  -22.1846  -23.2068   23.6140 N   0  0  0  0  0  0  0  0  0  0  0  0
  -27.5914  -21.5274   20.7937 N   0  3  0  0  0  0  0  0  0  0  0  0
  -22.8982  -20.4784   21.3526 N   0  3  0  0  0  0  0  0  0  0  0  0
  -29.4959  -11.8759   16.7395 O   0  0  0  0  0  0  0  0  0  0  0  0
  -23.5385  -28.7179   23.2345 O   0  0  0  0  0  0  0  0  0  0  0  0
  -20.7508  -25.6654   23.2851 O   0  0  0  0  0  0  0  0  0  0  0  0
  -27.6689  -23.7371   19.1492 O   0  0  0  0  0  0  0  0  0  0  0  0
  -24.2349  -22.4782   22.8123 O   0  0  0  0  0  0  0  0  0  0  0  0
  -32.5258  -17.3664   24.3057 O   0  0  0  0  0  0  0  0  0  0  0  0
  -22.5704  -11.4266   20.2642 O   0  0  0  0  0  0  0  0  0  0  0  0
  -28.4146  -27.0079   19.9204 O   0  0  0  0  0  0  0  0  0  1  0  0
  -21.0016   -6.5245   18.2861 F   0  0  0  0  0  0  0  0  0  0  0  0
  -21.3271   -9.5715   21.8937 F   0  0  0  0  0  0  0  0  0  0  0  0
  1  2  1  0  0  0  0
  1  5  2  0  0  0  0
  2  6  2  0  0  0  0
  3  8  2  0  0  0  0
  3 18  1  0  0  0  0
  4  9  1  0  0  0  0
  4 18  2  0  0  0  0
  5 21  1  0  0  0  0
  6 23  1  0  0  0  0
  7 10  2  0  0  0  0
  7 22  1  0  0  0  0
  8 27  1  0  0  0  0
  9 27  2  0  0  0  0
 10 28  1  0  0  0  0
 11 12  2  0  0  0  0
 11 29  1  0  0  0  0
 12 30  1  0  0  0  0
 13 19  1  0  0  0  0
 13 25  2  0  0  0  0
 14 19  2  0  0  0  0
 14 26  1  0  0  0  0
 15 24  1  0  0  0  0
 15 28  2  0  0  0  0
 16 25  1  0  0  0  0
 16 26  2  0  0  0  0
 17 30  2  0  0  0  0
 17 31  1  0  0  0  0
 18 32  1  0  0  0  0
 19 34  1  0  0  0  0
 20 32  1  0  0  0  0
 20 33  2  0  0  0  0
 20 35  1  0  0  0  0
 21 23  2  0  0  0  0
 21 41  1  0  0  0  0
 22 24  2  0  0  0  0
 22 42  1  0  0  0  0
 23 50  1  0  0  0  0
 24 43  1  0  0  0  0
 25 68  1  0  0  0  0
 26 71  1  0  0  0  0
 27 83  1  0  0  0  0
 28 84  1  0  0  0  0
 29 31  2  0  0  0  0
 29 83  1  0  0  0  0
 30 85  1  0  0  0  0
 31 86  1  0  0  0  0
 32 64  2  0  0  0  0
 33 65  1  0  0  0  0
 33 69  1  0  0  0  0
 34 72  1  0  0  0  0
 34 75  2  0  0  0  0
 35 70  1  0  0  0  0
 35 77  2  0  0  0  0
 36 51  1  0  0  0  0
 36 73  1  0  0  0  0
 36 78  2  0  0  0  0
 37 60  1  0  0  0  0
 37 66  1  0  0  0  0
 37 79  2  0  0  0  0
 38 59  1  0  0  0  0
 38 72  1  0  0  0  0
 38 80  2  0  0  0  0
 39 61  1  0  0  0  0
 39 74  1  0  0  0  0
 39 81  2  0  0  0  0
 40 67  1  0  0  0  0
 40 71  1  0  0  0  0
 40 82  2  0  0  0  0
 41 44  1  0  0  0  0
 42 51  1  0  0  0  0
 43 66  1  0  0  0  0
 44 46  1  0  0  0  0
 45 47  1  0  0  0  0
 45 48  1  0  0  0  0
 46 50  1  0  0  0  0
 47 52  1  0  0  0  0
 48 67  1  0  0  0  0
 49 52  1  0  0  0  0
 49 67  1  0  0  0  0
 50 73  1  0  0  0  0
 51 66  1  0  0  0  0
 52 65  1  0  0  0  0
 53 61  1  0  0  0  0
 54 62  1  0  0  0  0
 55 63  1  0  0  0  0
 56 63  1  0  0  0  0
 57 63  1  0  0  0  0
 58 76  1  0  0  0  0
 59 62  1  0  0  0  0
 60 63  1  0  0  0  0
 60 74  1  0  0  0  0
 61 76  1  0  0  0  0
 62 84  1  0  0  0  0
 64 65  1  0  0  0  0
M  CHG  2  75   1  76   1
M  ISO  4  40 100  62 101  71 100  84 101
M  END
> <Batch ID>
0159

> <Smiles>
CNC(C)C(=O)NC(C(=O)N1Cc2cc([101O:1][101CH:1](C)CC(=O)NC(=N)c3cc(N)cc([100NH:0][100C:0](=O)N4CCCC(n5nc(-c6ccc(Oc7ccc(F)cc7F)cc6)c(C(N)=O)c5N)C4)c3)ccc2CC1C(=O)NC1CCCc2ccccc21)C(C)(C)C

> <Shape>
0.227

> <Color>
0.085

> <Negative vol penalty>
0.000

$$$$

  -OEChem-04052303473D

 89 97  0     1  0  0  0  0  0999 V2000
  -27.0369  -34.0791   24.6836 C   0  0  0  0  0  0  0  0  0  0  0  0
  -27.3963  -32.8450   24.1516 C   0  0  0  0  0  0  0  0  0  0  0  0
  -24.6448   -9.5721   21.3612 C   0  0  0  0  0  0  0  0  0  0  0  0
  -22.8321  -10.8630   20.4204 C   0  0  0  0  0  0  0  0  0  0  0  0
  -25.7699  -34.2556   25.2382 C   0  0  0  0  0  0  0  0  0  0  0  0
  -26.4892  -31.7861   24.1748 C   0  0  0  0  0  0  0  0  0  0  0  0
  -26.3032  -29.2905   19.7723 C   0  0  0  0  0  0  0  0  0  0  0  0
  -23.7542   -8.5422   21.6640 C   0  0  0  0  0  0  0  0  0  0  0  0
  -21.9415   -9.8331   20.7232 C   0  0  0  0  0  0  0  0  0  0  0  0
  -27.3349  -28.3914   19.5060 C   0  0  0  0  0  0  0  0  0  0  0  0
  -21.4446   -7.8643   24.0370 C   0  0  0  0  0  0  0  0  0  0  0  0
  -21.5363   -7.2798   25.3001 C   0  0  0  0  0  0  0  0  0  0  0  0
  -25.9087  -26.5654   20.1776 C   0  0  0  0  0  0  0  0  0  0  0  0
  -25.3123  -21.2023   21.1470 C   0  0  0  0  0  0  0  0  0  0  0  0
  -25.5854  -21.6397   18.7867 C   0  0  0  0  0  0  0  0  0  0  0  0
  -21.9864   -5.1382   24.2763 C   0  0  0  0  0  0  0  0  0  0  0  0
  -24.1837  -10.7326   20.7394 C   0  0  0  0  0  0  0  0  0  0  0  0
  -24.1929  -19.8076   19.5226 C   0  0  0  0  0  0  0  0  0  0  0  0
  -25.8385  -11.9635   19.2380 C   0  0  0  0  0  0  0  0  0  0  0  0
  -24.8435  -33.2011   25.2596 C   0  0  0  0  0  0  0  0  0  0  0  0
  -25.0680  -28.8341   20.2544 C   0  0  0  0  0  0  0  0  0  0  0  0
  -25.2092  -31.9482   24.7314 C   0  0  0  0  0  0  0  0  0  0  0  0
  -24.8621  -27.4605   20.4468 C   0  0  0  0  0  0  0  0  0  0  0  0
  -24.4750  -20.1268   20.8508 C   0  0  0  0  0  0  0  0  0  0  0  0
  -25.8675  -21.9588   20.1149 C   0  0  0  0  0  0  0  0  0  0  0  0
  -24.7481  -20.5641   18.4905 C   0  0  0  0  0  0  0  0  0  0  0  0
  -22.4026   -8.6727   21.3451 C   0  0  0  0  0  0  0  0  0  0  0  0
  -27.1387  -27.0288   19.7113 C   0  0  0  0  0  0  0  0  0  0  0  0
  -21.6238   -7.0858   22.8935 C   0  0  0  0  0  0  0  0  0  0  0  0
  -21.8072   -5.9167   25.4198 C   0  0  0  0  0  0  0  0  0  0  0  0
  -21.8947   -5.7227   23.0132 C   0  0  0  0  0  0  0  0  0  0  0  0
  -25.1031  -11.7970   20.4269 C   0  0  0  0  0  0  0  0  0  0  0  0
  -26.5560  -13.1176   19.4369 C   0  0  0  0  0  0  0  0  0  0  0  0
  -23.3157  -18.6809   19.2179 C   0  0  0  0  0  0  0  0  0  0  0  0
  -25.8700  -11.1479   18.0593 C   0  0  0  0  0  0  0  0  0  0  0  0
  -23.3877  -29.2974   22.9126 C   0  0  0  0  0  0  0  0  0  0  0  0
  -29.6310  -24.5456   20.4435 C   0  0  0  0  0  0  0  0  0  0  0  0
  -21.1424  -27.5726   21.3296 C   0  0  0  0  0  0  0  0  0  0  0  0
  -27.3498  -23.9029   19.5184 C   0  0  0  0  0  0  0  0  0  0  0  0
  -20.4272  -25.2821   18.9029 C   0  0  0  0  0  0  0  0  0  0  0  0
  -25.6908  -17.9070   22.9246 C   0  0  0  0  0  0  0  0  0  0  0  0
  -23.5026  -33.4260   25.9124 C   0  0  0  0  0  0  0  0  0  0  0  0
  -23.9564  -29.8142   20.5114 C   0  0  0  0  0  0  0  0  0  0  0  0
  -23.5481  -26.9175   20.9436 C   0  0  0  0  0  0  0  0  0  0  0  0
  -22.4673  -32.3610   25.5600 C   0  0  0  0  0  0  0  0  0  0  0  0
  -28.5242  -15.7511   22.9129 C   0  0  0  0  0  0  0  0  0  0  0  0
  -23.0718  -30.9663   25.6870 C   0  0  0  0  0  0  0  0  0  0  0  0
  -28.0351  -14.5083   22.1671 C   0  0  0  0  0  0  0  0  0  0  0  0
  -27.4240  -16.3580   23.7807 C   0  0  0  0  0  0  0  0  0  0  0  0
  -25.6769  -15.4100   22.3237 C   0  0  0  0  0  0  0  0  0  0  0  0
  -24.2442  -30.7826   24.7157 C   0  0  1  0  0  0  0  0  0  0  0  0
  -22.9094  -29.2877   21.4882 C   0  0  1  0  0  0  0  0  0  0  0  0
  -26.7350  -14.7949   21.3919 C   0  0  2  0  0  0  0  0  0  0  0  0
  -21.8485  -18.9631   19.1029 C   0  0  0  0  0  0  0  0  0  0  0  0
  -29.8853  -23.3531   21.3295 C   0  0  0  0  0  0  0  0  0  0  0  0
  -18.5058  -24.0428   17.8686 C   0  0  0  0  0  0  0  0  0  0  0  0
  -21.0300  -25.7263   23.7563 C   0  0  0  0  0  0  0  0  0  0  0  0
  -19.8575  -24.0363   22.3289 C   0  0  0  0  0  0  0  0  0  0  0  0
  -18.8048  -26.2588   22.7467 C   0  0  0  0  0  0  0  0  0  0  0  0
  -20.9358  -26.4785   16.2442 C   0  0  0  0  0  0  0  0  0  0  0  0
  -23.8953  -19.3352   21.9780 C   0  0  0  0  0  0  0  0  0  0  0  0
  -28.1812  -24.9566   20.2357 C   0  0  2  0  0  0  0  0  0  1  0  0
  -20.8081  -26.1051   21.2120 C   0  0  1  0  0  0  0  0  0  0  0  0
  -19.3889  -25.2788   17.7955 C   0  0  2  0  0  0  0  0  0  0  0  0
  -20.1506  -25.5417   22.5034 C   0  0  0  0  0  0  0  0  0  0  0  0
  -25.3326  -12.7676   21.3153 N   0  0  0  0  0  0  0  0  0  0  0  0
  -26.2203  -13.5551   20.6844 N   0  0  0  0  0  0  0  0  0  0  0  0
  -22.4941  -27.9163   21.1866 N   0  0  0  0  0  0  0  0  0  0  0  0
  -26.2194  -16.6071   22.9852 N   0  0  0  0  0  0  0  0  0  0  0  0
  -24.4762  -20.2595   17.1377 N   0  0  0  0  0  0  0  0  0  0  0  0
  -27.4353  -13.7908   18.6647 N   0  0  0  0  0  0  0  0  0  0  0  0
  -25.0710   -9.9970   18.0216 N   0  0  0  0  0  0  0  0  0  0  0  0
  -26.7168  -23.0503   20.4154 N   0  0  0  0  0  0  0  0  0  0  0  0
  -23.7566  -30.5467   23.3737 N   0  0  0  0  0  0  0  0  0  0  0  0
  -19.9861  -25.9684   20.0145 N   0  0  0  0  0  0  0  0  0  0  0  0
  -24.5515  -18.0573   22.1435 N   0  0  0  0  0  0  0  0  0  0  0  0
  -20.0538  -25.3031   16.4620 N   0  3  0  0  0  0  0  0  0  0  0  0
  -23.6941  -17.5225   19.0547 O   0  0  0  0  0  0  0  0  0  0  0  0
  -26.5979  -11.4224   17.0753 O   0  0  0  0  0  0  0  0  0  0  0  0
  -23.4184  -28.2493   23.5468 O   0  0  0  0  0  0  0  0  0  0  0  0
  -30.5658  -25.1531   19.9212 O   0  0  0  0  0  0  0  0  0  0  0  0
  -20.2366  -28.3847   21.5336 O   0  0  0  0  0  0  0  0  0  0  0  0
  -27.2939  -23.8710   18.2921 O   0  0  0  0  0  0  0  0  0  0  0  0
  -21.5187  -24.7278   18.7943 O   0  0  0  0  0  0  0  0  0  0  0  0
  -26.1997  -18.8640   23.5181 O   0  0  0  0  0  0  0  0  0  0  0  0
  -21.5333   -7.6678   21.6402 O   0  0  0  0  0  0  0  0  0  0  0  0
  -28.1442  -26.1491   19.4528 O   0  0  0  0  0  0  0  0  0  1  0  0
  -21.8967   -5.3558   26.6328 F   0  0  0  0  0  0  0  0  0  0  0  0
  -22.0690   -4.9699   21.9183 F   0  0  0  0  0  0  0  0  0  0  0  0
  1  2  1  0  0  0  0
  1  5  2  0  0  0  0
  2  6  2  0  0  0  0
  3  8  2  0  0  0  0
  3 17  1  0  0  0  0
  4  9  1  0  0  0  0
  4 17  2  0  0  0  0
  5 20  1  0  0  0  0
  6 22  1  0  0  0  0
  7 10  2  0  0  0  0
  7 21  1  0  0  0  0
  8 27  1  0  0  0  0
  9 27  2  0  0  0  0
 10 28  1  0  0  0  0
 11 12  2  0  0  0  0
 11 29  1  0  0  0  0
 12 30  1  0  0  0  0
 13 23  1  0  0  0  0
 13 28  2  0  0  0  0
 14 24  1  0  0  0  0
 14 25  2  0  0  0  0
 15 25  1  0  0  0  0
 15 26  2  0  0  0  0
 16 30  2  0  0  0  0
 16 31  1  0  0  0  0
 17 32  1  0  0  0  0
 18 24  2  0  0  0  0
 18 26  1  0  0  0  0
 18 34  1  0  0  0  0
 19 32  1  0  0  0  0
 19 33  2  0  0  0  0
 19 35  1  0  0  0  0
 20 22  2  0  0  0  0
 20 42  1  0  0  0  0
 21 23  2  0  0  0  0
 21 43  1  0  0  0  0
 22 51  1  0  0  0  0
 23 44  1  0  0  0  0
 24 61  1  0  0  0  0
 25 73  1  0  0  0  0
 26 70  1  0  0  0  0
 27 86  1  0  0  0  0
 28 87  1  0  0  0  0
 29 31  2  0  0  0  0
 29 86  1  0  0  0  0
 30 88  1  0  0  0  0
 31 89  1  0  0  0  0
 32 66  2  0  0  0  0
 33 67  1  0  0  0  0
 33 71  1  0  0  0  0
 34 54  1  0  0  0  0
 34 78  2  0  0  0  0
 35 72  1  0  0  0  0
 35 79  2  0  0  0  0
 36 52  1  0  0  0  0
 36 74  1  0  0  0  0
 36 80  2  0  0  0  0
 37 55  1  0  0  0  0
 37 62  1  0  0  0  0
 37 81  2  0  0  0  0
 38 63  1  0  0  0  0
 38 68  1  0  0  0  0
 38 82  2  0  0  0  0
 39 62  1  0  0  0  0
 39 73  1  0  0  0  0
 39 83  2  0  0  0  0
 40 64  1  0  0  0  0
 40 75  1  0  0  0  0
 40 84  2  0  0  0  0
 41 69  1  0  0  0  0
 41 76  1  0  0  0  0
 41 85  2  0  0  0  0
 42 45  1  0  0  0  0
 43 52  1  0  0  0  0
 44 68  1  0  0  0  0
 45 47  1  0  0  0  0
 46 48  1  0  0  0  0
 46 49  1  0  0  0  0
 47 51  1  0  0  0  0
 48 53  1  0  0  0  0
 49 69  1  0  0  0  0
 50 53  1  0  0  0  0
 50 69  1  0  0  0  0
 51 74  1  0  0  0  0
 52 68  1  0  0  0  0
 53 67  1  0  0  0  0
 56 64  1  0  0  0  0
 57 65  1  0  0  0  0
 58 65  1  0  0  0  0
 59 65  1  0  0  0  0
 60 77  1  0  0  0  0
 61 76  1  0  0  0  0
 62 87  1  0  0  0  0
 63 65  1  0  0  0  0
 63 75  1  0  0  0  0
 64 77  1  0  0  0  0
 66 67  1  0  0  0  0
M  CHG  1  77   1
M  ISO  4  41 100  62 101  76 100  87 101
M  END
> <Batch ID>
0159

> <Smiles>
CNC(C)C(=O)NC(C(=O)N1Cc2cc([101O:1][101CH:1](C(C)=O)C(=O)Nc3cc(N)c(C(C)=O)c(C[100NH:0][100C:0](=O)N4CCCC(n5nc(-c6ccc(Oc7ccc(F)cc7F)cc6)c(C(N)=O)c5N)C4)c3)ccc2CC1C(=O)NC1CCCc2ccccc21)C(C)(C)C

> <Shape>
0.264

> <Color>
0.089

> <Negative vol penalty>
0.000

$$$$

  -OEChem-04052303473D

 85 93  0     1  0  0  0  0  0999 V2000
  -29.5755  -30.1084   26.6823 C   0  0  0  0  0  0  0  0  0  0  0  0
  -29.1777  -29.1674   25.7380 C   0  0  0  0  0  0  0  0  0  0  0  0
  -23.2698  -11.9988   23.2723 C   0  0  0  0  0  0  0  0  0  0  0  0
  -23.0016  -14.3285   22.6915 C   0  0  0  0  0  0  0  0  0  0  0  0
  -28.6340  -30.9658   27.2499 C   0  0  0  0  0  0  0  0  0  0  0  0
  -27.8377  -29.0826   25.3616 C   0  0  0  0  0  0  0  0  0  0  0  0
  -27.2503  -28.6700   20.3487 C   0  0  0  0  0  0  0  0  0  0  0  0
  -22.4435  -12.1801   24.3813 C   0  0  0  0  0  0  0  0  0  0  0  0
  -22.1752  -14.5099   23.8005 C   0  0  0  0  0  0  0  0  0  0  0  0
  -27.4814  -27.4175   19.7815 C   0  0  0  0  0  0  0  0  0  0  0  0
  -19.7043  -15.5027   26.2758 C   0  0  0  0  0  0  0  0  0  0  0  0
  -18.5268  -16.2285   26.0963 C   0  0  0  0  0  0  0  0  0  0  0  0
  -25.1041  -27.0128   19.7212 C   0  0  0  0  0  0  0  0  0  0  0  0
  -31.3660  -17.9973   20.1810 C   0  0  0  0  0  0  0  0  0  0  0  0
  -29.1371  -18.6805   19.5895 C   0  0  0  0  0  0  0  0  0  0  0  0
  -17.7813  -14.6146   24.4603 C   0  0  0  0  0  0  0  0  0  0  0  0
  -23.5489  -13.0730   22.4274 C   0  0  0  0  0  0  0  0  0  0  0  0
  -24.0117  -12.5173   19.9810 C   0  0  0  0  0  0  0  0  0  0  0  0
  -27.2834  -30.8979   26.8732 C   0  0  0  0  0  0  0  0  0  0  0  0
  -25.9426  -29.0995   20.6169 C   0  0  0  0  0  0  0  0  0  0  0  0
  -26.8769  -29.9390   25.9258 C   0  0  0  0  0  0  0  0  0  0  0  0
  -24.8589  -28.2721   20.2895 C   0  0  0  0  0  0  0  0  0  0  0  0
  -30.0601  -17.6697   19.8337 C   0  0  0  0  0  0  0  0  0  0  0  0
  -21.8962  -13.4356   24.6454 C   0  0  0  0  0  0  0  0  0  0  0  0
  -26.4084  -26.5875   19.4703 C   0  0  0  0  0  0  0  0  0  0  0  0
  -19.9204  -14.3328   25.5474 C   0  0  0  0  0  0  0  0  0  0  0  0
  -17.5653  -15.7845   25.1886 C   0  0  0  0  0  0  0  0  0  0  0  0
  -18.9589  -13.8887   24.6397 C   0  0  0  0  0  0  0  0  0  0  0  0
  -24.4029  -12.8865   21.2820 C   0  0  0  0  0  0  0  0  0  0  0  0
  -31.6959  -19.3400   20.2700 C   0  0  0  0  0  0  0  0  0  0  0  0
  -29.5668  -19.9927   19.7052 C   0  0  0  0  0  0  0  0  0  0  0  0
  -25.1851  -12.4756   19.2684 C   0  0  0  0  0  0  0  0  0  0  0  0
  -22.7044  -12.2373   19.4630 C   0  0  0  0  0  0  0  0  0  0  0  0
  -24.3374  -29.8962   23.2422 C   0  0  0  0  0  0  0  0  0  0  0  0
  -27.6886  -23.2030   19.2071 C   0  0  0  0  0  0  0  0  0  0  0  0
  -22.0284  -30.7088   21.1136 C   0  0  0  0  0  0  0  0  0  0  0  0
  -20.6749  -30.2942   18.0083 C   0  0  0  0  0  0  0  0  0  0  0  0
  -30.4678  -15.1860   19.9406 C   0  0  0  0  0  0  0  0  0  0  0  0
  -26.2942  -31.8140   27.5492 C   0  0  0  0  0  0  0  0  0  0  0  0
  -25.7088  -30.4642   21.2044 C   0  0  0  0  0  0  0  0  0  0  0  0
  -23.4349  -28.6947   20.5388 C   0  0  0  0  0  0  0  0  0  0  0  0
  -24.9567  -31.9107   26.8199 C   0  0  0  0  0  0  0  0  0  0  0  0
  -29.8748  -11.6773   19.8198 C   0  0  0  0  0  0  0  0  0  0  0  0
  -24.4584  -30.5221   26.4321 C   0  0  0  0  0  0  0  0  0  0  0  0
  -28.3677  -11.5560   20.0566 C   0  0  0  0  0  0  0  0  0  0  0  0
  -30.4901  -12.8039   20.6479 C   0  0  0  0  0  0  0  0  0  0  0  0
  -28.3329  -13.9906   20.7336 C   0  0  0  0  0  0  0  0  0  0  0  0
  -25.4367  -29.8328   25.4734 C   0  0  1  0  0  0  0  0  0  0  0  0
  -24.3613  -30.5886   21.9089 C   0  0  1  0  0  0  0  0  0  0  0  0
  -27.6573  -12.9113   19.8720 C   0  0  2  0  0  0  0  0  0  0  0  0
  -33.7806  -20.5919   19.5772 C   0  0  0  0  0  0  0  0  0  0  0  0
  -18.7677  -31.0660   16.5716 C   0  0  0  0  0  0  0  0  0  0  0  0
  -20.1210  -28.9252   22.6918 C   0  0  0  0  0  0  0  0  0  0  0  0
  -18.5641  -28.9746   20.7317 C   0  0  0  0  0  0  0  0  0  0  0  0
  -19.1312  -31.0902   21.9254 C   0  0  0  0  0  0  0  0  0  0  0  0
  -22.5088  -31.4260   15.9798 C   0  0  0  0  0  0  0  0  0  0  0  0
  -28.9276  -22.3988   19.5389 C   0  0  0  0  0  0  0  0  0  0  0  0
  -27.8523  -24.7096   19.2590 C   0  0  0  0  0  0  0  0  0  1  0  0
  -33.0886  -19.7284   20.6396 C   0  0  1  0  0  0  0  0  0  0  0  0
  -20.8732  -29.9876   20.4621 C   0  0  1  0  0  0  0  0  0  0  0  0
  -20.2177  -31.2991   16.9664 C   0  0  2  0  0  0  0  0  0  0  0  0
  -19.6992  -29.7353   21.4497 C   0  0  0  0  0  0  0  0  0  0  0  0
  -25.7218  -13.0663   21.3923 N   0  0  0  0  0  0  0  0  0  0  0  0
  -30.8269  -20.3498   20.0403 N   0  0  0  0  0  0  0  0  0  0  0  0
  -26.1695  -12.8090   20.1515 N   0  0  0  0  0  0  0  0  0  0  0  0
  -23.2582  -30.0355   21.1206 N   0  0  0  0  0  0  0  0  0  0  0  0
  -29.7686  -14.0576   20.4187 N   0  0  0  0  0  0  0  0  0  0  0  0
  -25.4605  -12.1866   17.9789 N   0  0  0  0  0  0  0  0  0  0  0  0
  -21.6082  -12.3269   20.3317 N   0  0  0  0  0  0  0  0  0  0  0  0
  -29.6714  -16.3111   19.7296 N   0  0  0  0  0  0  0  0  0  0  0  0
  -28.6346  -20.9906   19.4593 N   0  0  0  0  0  0  0  0  0  0  0  0
  -25.2865  -30.3588   24.1335 N   0  0  0  0  0  0  0  0  0  0  0  0
  -20.5090  -30.7757   19.2897 N   0  0  0  0  0  0  0  0  0  0  0  0
  -33.1744  -20.4695   21.9442 N   0  3  0  0  0  0  0  0  0  0  0  0
  -21.0607  -31.1954   15.7418 N   0  3  0  0  0  0  0  0  0  0  0  0
  -22.5159  -11.9010   18.2693 O   0  0  0  0  0  0  0  0  0  0  0  0
  -23.5174  -29.0090   23.4476 O   0  0  0  0  0  0  0  0  0  0  0  0
  -26.6145  -22.6796   18.9137 O   0  0  0  0  0  0  0  0  0  0  0  0
  -21.8479  -31.8313   21.5922 O   0  0  0  0  0  0  0  0  0  0  0  0
  -21.1300  -29.1908   17.7150 O   0  0  0  0  0  0  0  0  0  0  0  0
  -31.6787  -15.1484   19.7077 O   0  0  0  0  0  0  0  0  0  0  0  0
  -21.0896  -13.6129   25.7273 O   0  0  0  0  0  0  0  0  0  0  0  0
  -26.6313  -25.3643   18.9172 O   0  0  0  0  0  0  0  0  0  1  0  0
  -16.4339  -16.4807   25.0175 F   0  0  0  0  0  0  0  0  0  0  0  0
  -19.1603  -12.7650   23.9380 F   0  0  0  0  0  0  0  0  0  0  0  0
  1  2  1  0  0  0  0
  1  5  2  0  0  0  0
  2  6  2  0  0  0  0
  3  8  2  0  0  0  0
  3 17  1  0  0  0  0
  4  9  1  0  0  0  0
  4 17  2  0  0  0  0
  5 19  1  0  0  0  0
  6 21  1  0  0  0  0
  7 10  2  0  0  0  0
  7 20  1  0  0  0  0
  8 24  1  0  0  0  0
  9 24  2  0  0  0  0
 10 25  1  0  0  0  0
 11 12  2  0  0  0  0
 11 26  1  0  0  0  0
 12 27  1  0  0  0  0
 13 22  1  0  0  0  0
 13 25  2  0  0  0  0
 14 23  1  0  0  0  0
 14 30  2  0  0  0  0
 15 23  2  0  0  0  0
 15 31  1  0  0  0  0
 16 27  2  0  0  0  0
 16 28  1  0  0  0  0
 17 29  1  0  0  0  0
 18 29  1  0  0  0  0
 18 32  2  0  0  0  0
 18 33  1  0  0  0  0
 19 21  2  0  0  0  0
 19 39  1  0  0  0  0
 20 22  2  0  0  0  0
 20 40  1  0  0  0  0
 21 48  1  0  0  0  0
 22 41  1  0  0  0  0
 23 70  1  0  0  0  0
 24 82  1  0  0  0  0
 25 83  1  0  0  0  0
 26 28  2  0  0  0  0
 26 82  1  0  0  0  0
 27 84  1  0  0  0  0
 28 85  1  0  0  0  0
 29 63  2  0  0  0  0
 30 59  1  0  0  0  0
 30 64  1  0  0  0  0
 31 64  2  0  0  0  0
 31 71  1  0  0  0  0
 32 65  1  0  0  0  0
 32 68  1  0  0  0  0
 33 69  1  0  0  0  0
 33 76  2  0  0  0  0
 34 49  1  0  0  0  0
 34 72  1  0  0  0  0
 34 77  2  0  0  0  0
 35 57  1  0  0  0  0
 35 58  1  0  0  0  0
 35 78  2  0  0  0  0
 36 60  1  0  0  0  0
 36 66  1  0  0  0  0
 36 79  2  0  0  0  0
 37 61  1  0  0  0  0
 37 73  1  0  0  0  0
 37 80  2  0  0  0  0
 38 67  1  0  0  0  0
 38 70  1  0  0  0  0
 38 81  2  0  0  0  0
 39 42  1  0  0  0  0
 40 49  1  0  0  0  0
 41 66  1  0  0  0  0
 42 44  1  0  0  0  0
 43 45  1  0  0  0  0
 43 46  1  0  0  0  0
 44 48  1  0  0  0  0
 45 50  1  0  0  0  0
 46 67  1  0  0  0  0
 47 50  1  0  0  0  0
 47 67  1  0  0  0  0
 48 72  1  0  0  0  0
 49 66  1  0  0  0  0
 50 65  1  0  0  0  0
 51 59  1  0  0  0  0
 52 61  1  0  0  0  0
 53 62  1  0  0  0  0
 54 62  1  0  0  0  0
 55 62  1  0  0  0  0
 56 75  1  0  0  0  0
 57 71  1  0  0  0  0
 58 83  1  0  0  0  0
 59 74  1  0  0  0  0
 60 62  1  0  0  0  0
 60 73  1  0  0  0  0
 61 75  1  0  0  0  0
 63 65  1  0  0  0  0
M  CHG  2  74   1  75   1
M  ISO  4  38 100  58 101  70 100  83 101
M  END
> <Batch ID>
0159

> <Smiles>
CNC(C)C(=O)NC(C(=O)N1Cc2cc([101O:1][101CH2:1]C(=O)CNc3cc([100NH:0][100C:0](=O)N4CCCC(n5nc(-c6ccc(Oc7ccc(F)cc7F)cc6)c(C(N)=O)c5N)C4)cc(C(C)N)n3)ccc2CC1C(=O)NC1CCCc2ccccc21)C(C)(C)C

> <Shape>
0.249

> <Color>
0.092

> <Negative vol penalty>
0.000

$$$$

  -OEChem-04052303473D

 87 95  0     1  0  0  0  0  0999 V2000
  -28.0194  -35.9019   24.9896 C   0  0  0  0  0  0  0  0  0  0  0  0
  -28.4530  -34.7734   24.3013 C   0  0  0  0  0  0  0  0  0  0  0  0
  -27.7525   -7.0412   18.2773 C   0  0  0  0  0  0  0  0  0  0  0  0
  -27.9134   -8.5649   16.4093 C   0  0  0  0  0  0  0  0  0  0  0  0
  -26.8027  -35.8774   25.6699 C   0  0  0  0  0  0  0  0  0  0  0  0
  -27.6705  -33.6192   24.2937 C   0  0  0  0  0  0  0  0  0  0  0  0
  -27.0629  -29.6133   19.7014 C   0  0  0  0  0  0  0  0  0  0  0  0
  -27.7003   -5.9633   17.3936 C   0  0  0  0  0  0  0  0  0  0  0  0
  -27.8612   -7.4870   15.5256 C   0  0  0  0  0  0  0  0  0  0  0  0
  -27.6607  -28.3796   19.4477 C   0  0  0  0  0  0  0  0  0  0  0  0
  -29.8725   -4.1614   15.5314 C   0  0  0  0  0  0  0  0  0  0  0  0
  -30.6624   -3.0484   15.8192 C   0  0  0  0  0  0  0  0  0  0  0  0
  -25.7613  -27.2638   20.4307 C   0  0  0  0  0  0  0  0  0  0  0  0
  -28.6811   -1.6701   15.9271 C   0  0  0  0  0  0  0  0  0  0  0  0
  -25.9172  -18.2399   20.3576 C   0  0  0  0  0  0  0  0  0  0  0  0
  -27.8590   -8.3421   17.7852 C   0  0  0  0  0  0  0  0  0  0  0  0
  -29.0628  -10.0336   19.2675 C   0  0  0  0  0  0  0  0  0  0  0  0
  -26.0003  -34.7256   25.6626 C   0  0  0  0  0  0  0  0  0  0  0  0
  -25.8126  -29.6820   20.3327 C   0  0  0  0  0  0  0  0  0  0  0  0
  -26.4424  -33.5789   24.9756 C   0  0  0  0  0  0  0  0  0  0  0  0
  -25.1486  -28.4995   20.6891 C   0  0  0  0  0  0  0  0  0  0  0  0
  -26.8630  -17.2277   20.3838 C   0  0  0  0  0  0  0  0  0  0  0  0
  -28.5293  -18.9006   19.9265 C   0  0  0  0  0  0  0  0  0  0  0  0
  -27.7547   -6.1862   16.0177 C   0  0  0  0  0  0  0  0  0  0  0  0
  -27.0112  -27.2047   19.8149 C   0  0  0  0  0  0  0  0  0  0  0  0
  -28.4868   -4.0288   15.4416 C   0  0  0  0  0  0  0  0  0  0  0  0
  -30.0668   -1.8027   16.0170 C   0  0  0  0  0  0  0  0  0  0  0  0
  -27.8911   -2.7831   15.6394 C   0  0  0  0  0  0  0  0  0  0  0  0
  -28.1917  -17.5727   20.1632 C   0  0  0  0  0  0  0  0  0  0  0  0
  -27.9125   -9.4560   18.6976 C   0  0  0  0  0  0  0  0  0  0  0  0
  -27.5089  -19.8379   19.9205 C   0  0  0  0  0  0  0  0  0  0  0  0
  -28.5820  -11.0510   20.0550 C   0  0  0  0  0  0  0  0  0  0  0  0
  -30.4427   -9.6819   19.1001 C   0  0  0  0  0  0  0  0  0  0  0  0
  -24.7405  -30.9186   23.0576 C   0  0  0  0  0  0  0  0  0  0  0  0
  -27.6559  -23.5780   19.6526 C   0  0  0  0  0  0  0  0  0  0  0  0
  -21.8532  -30.0436   21.8658 C   0  0  0  0  0  0  0  0  0  0  0  0
  -30.9839  -18.4104   19.6831 C   0  0  0  0  0  0  0  0  0  0  0  0
  -20.0769  -28.0189   19.7700 C   0  0  0  0  0  0  0  0  0  0  0  0
  -25.1997  -15.3987   20.8680 C   0  0  0  0  0  0  0  0  0  0  0  0
  -24.7150  -34.7312   26.4518 C   0  0  0  0  0  0  0  0  0  0  0  0
  -25.1691  -31.0197   20.5753 C   0  0  0  0  0  0  0  0  0  0  0  0
  -23.7958  -28.5183   21.3510 C   0  0  0  0  0  0  0  0  0  0  0  0
  -23.7688  -33.5916   26.0829 C   0  0  0  0  0  0  0  0  0  0  0  0
  -23.8532  -12.1599   21.4801 C   0  0  0  0  0  0  0  0  0  0  0  0
  -24.5277  -32.2704   26.0088 C   0  0  0  0  0  0  0  0  0  0  0  0
  -24.8839  -11.2152   20.8576 C   0  0  0  0  0  0  0  0  0  0  0  0
  -23.6872  -13.4380   20.6599 C   0  0  0  0  0  0  0  0  0  0  0  0
  -25.9653  -13.2127   19.7496 C   0  0  0  0  0  0  0  0  0  0  0  0
  -25.6101  -32.3162   24.9235 C   0  0  1  0  0  0  0  0  0  0  0  0
  -24.1261  -30.9880   21.6882 C   0  0  1  0  0  0  0  0  0  0  0  0
  -26.2145  -11.9400   20.5754 C   0  0  2  0  0  0  0  0  0  0  0  0
  -32.2519  -19.1793   19.4085 C   0  0  0  0  0  0  0  0  0  0  0  0
  -17.7296  -27.5117   19.0417 C   0  0  0  0  0  0  0  0  0  0  0  0
  -21.3692  -28.5439   24.4785 C   0  0  0  0  0  0  0  0  0  0  0  0
  -19.5053  -27.3142   23.3463 C   0  0  0  0  0  0  0  0  0  0  0  0
  -19.3841  -29.7919   23.6089 C   0  0  0  0  0  0  0  0  0  0  0  0
  -20.6651  -28.7539   16.9641 C   0  0  0  0  0  0  0  0  0  0  0  0
  -26.9933  -22.2758   20.0491 C   0  0  0  0  0  0  0  0  0  0  0  0
  -26.8713  -24.8358   19.9717 C   0  0  0  0  0  0  0  0  0  1  0  0
  -20.9998  -28.8003   21.9361 C   0  0  1  0  0  0  0  0  0  0  0  0
  -18.9844  -28.3239   18.7611 C   0  0  2  0  0  0  0  0  0  0  0  0
  -20.3410  -28.6119   23.3318 C   0  0  0  0  0  0  0  0  0  0  0  0
  -26.2069  -19.5408   20.1308 N   0  0  0  0  0  0  0  0  0  0  0  0
  -26.7857  -10.0565   19.0897 N   0  0  0  0  0  0  0  0  0  0  0  0
  -27.2256  -11.0219   19.9145 N   0  0  0  0  0  0  0  0  0  0  0  0
  -23.2107  -29.8509   21.5727 N   0  0  0  0  0  0  0  0  0  0  0  0
  -24.9881  -14.0723   20.4358 N   0  0  0  0  0  0  0  0  0  0  0  0
  -29.1913  -11.9587   20.8470 N   0  0  0  0  0  0  0  0  0  0  0  0
  -30.7612   -8.6105   18.2546 N   0  0  0  0  0  0  0  0  0  0  0  0
  -29.8628  -19.2498   19.7046 N   0  0  0  0  0  0  0  0  0  0  0  0
  -26.4850  -15.8845   20.6301 N   0  0  0  0  0  0  0  0  0  0  0  0
  -27.8364  -21.1656   19.6859 N   0  0  0  0  0  0  0  0  0  0  0  0
  -25.0187  -32.1530   23.6127 N   0  0  0  0  0  0  0  0  0  0  0  0
  -20.0485  -28.8953   20.8341 N   0  0  0  0  0  0  0  0  0  0  0  0
  -19.4504  -28.0073   17.3814 N   0  3  0  0  0  0  0  0  0  0  0  0
  -31.3646  -10.2890   19.6959 O   0  0  0  0  0  0  0  0  0  0  0  0
  -24.9455  -29.8259   23.5731 O   0  0  0  0  0  0  0  0  0  0  0  0
  -28.7576  -23.6248   19.1069 O   0  0  0  0  0  0  0  0  0  0  0  0
  -21.3331  -31.1457   22.0565 O   0  0  0  0  0  0  0  0  0  0  0  0
  -31.0102  -17.1958   19.8534 O   0  0  0  0  0  0  0  0  0  0  0  0
  -20.8734  -27.0934   19.6300 O   0  0  0  0  0  0  0  0  0  0  0  0
  -24.3148  -16.0458   21.4338 O   0  0  0  0  0  0  0  0  0  0  0  0
  -27.7040   -5.1346   15.1551 O   0  0  0  0  0  0  0  0  0  0  0  0
  -27.5928  -25.9992   19.5690 O   0  0  0  0  0  0  0  0  0  1  0  0
  -30.8256   -0.7337   16.2917 F   0  0  0  0  0  0  0  0  0  0  0  0
  -26.5605   -2.6493   15.5532 F   0  0  0  0  0  0  0  0  0  0  0  0
  -29.1432  -16.6269   20.1783 F   0  0  0  0  0  0  0  0  0  0  0  0
  1  2  1  0  0  0  0
  1  5  2  0  0  0  0
  2  6  2  0  0  0  0
  3  8  2  0  0  0  0
  3 16  1  0  0  0  0
  4  9  1  0  0  0  0
  4 16  2  0  0  0  0
  5 18  1  0  0  0  0
  6 20  1  0  0  0  0
  7 10  2  0  0  0  0
  7 19  1  0  0  0  0
  8 24  1  0  0  0  0
  9 24  2  0  0  0  0
 10 25  1  0  0  0  0
 11 12  2  0  0  0  0
 11 26  1  0  0  0  0
 12 27  1  0  0  0  0
 13 21  1  0  0  0  0
 13 25  2  0  0  0  0
 14 27  2  0  0  0  0
 14 28  1  0  0  0  0
 15 22  1  0  0  0  0
 15 63  2  0  0  0  0
 16 30  1  0  0  0  0
 17 30  1  0  0  0  0
 17 32  2  0  0  0  0
 17 33  1  0  0  0  0
 18 20  2  0  0  0  0
 18 40  1  0  0  0  0
 19 21  2  0  0  0  0
 19 41  1  0  0  0  0
 20 49  1  0  0  0  0
 21 42  1  0  0  0  0
 22 29  2  0  0  0  0
 22 71  1  0  0  0  0
 23 29  1  0  0  0  0
 23 31  2  0  0  0  0
 23 70  1  0  0  0  0
 24 83  1  0  0  0  0
 25 84  1  0  0  0  0
 26 28  2  0  0  0  0
 26 83  1  0  0  0  0
 27 85  1  0  0  0  0
 28 86  1  0  0  0  0
 29 87  1  0  0  0  0
 30 64  2  0  0  0  0
 31 63  1  0  0  0  0
 31 72  1  0  0  0  0
 32 65  1  0  0  0  0
 32 68  1  0  0  0  0
 33 69  1  0  0  0  0
 33 76  2  0  0  0  0
 34 50  1  0  0  0  0
 34 73  1  0  0  0  0
 34 77  2  0  0  0  0
 35 58  1  0  0  0  0
 35 59  1  0  0  0  0
 35 78  2  0  0  0  0
 36 60  1  0  0  0  0
 36 66  1  0  0  0  0
 36 79  2  0  0  0  0
 37 52  1  0  0  0  0
 37 70  1  0  0  0  0
 37 80  2  0  0  0  0
 38 61  1  0  0  0  0
 38 74  1  0  0  0  0
 38 81  2  0  0  0  0
 39 67  1  0  0  0  0
 39 71  1  0  0  0  0
 39 82  2  0  0  0  0
 40 43  1  0  0  0  0
 41 50  1  0  0  0  0
 42 66  1  0  0  0  0
 43 45  1  0  0  0  0
 44 46  1  0  0  0  0
 44 47  1  0  0  0  0
 45 49  1  0  0  0  0
 46 51  1  0  0  0  0
 47 67  1  0  0  0  0
 48 51  1  0  0  0  0
 48 67  1  0  0  0  0
 49 73  1  0  0  0  0
 50 66  1  0  0  0  0
 51 65  1  0  0  0  0
 53 61  1  0  0  0  0
 54 62  1  0  0  0  0
 55 62  1  0  0  0  0
 56 62  1  0  0  0  0
 57 75  1  0  0  0  0
 58 72  1  0  0  0  0
 59 84  1  0  0  0  0
 60 62  1  0  0  0  0
 60 74  1  0  0  0  0
 61 75  1  0  0  0  0
 64 65  1  0  0  0  0
M  CHG  1  75   1
M  ISO  4  39 100  59 101  71 100  84 101
M  END
> <Batch ID>
0159

> <Smiles>
CNC(C)C(=O)NC(C(=O)N1Cc2cc([101O:1][101CH2:1]C(=O)CNc3ncc([100NH:0][100C:0](=O)N4CCCC(n5nc(-c6ccc(Oc7ccc(F)cc7F)cc6)c(C(N)=O)c5N)C4)c(F)c3NC(C)=O)ccc2CC1C(=O)NC1CCCc2ccccc21)C(C)(C)C

> <Shape>
0.261

> <Color>
0.078

> <Negative vol penalty>
0.000

$$$$

  -OEChem-04052303473D

 88 96  0     1  0  0  0  0  0999 V2000
  -26.6082  -37.8641   21.2323 C   0  0  0  0  0  0  0  0  0  0  0  0
  -27.2530  -36.6461   21.0426 C   0  0  0  0  0  0  0  0  0  0  0  0
  -23.1492  -10.4169   20.6133 C   0  0  0  0  0  0  0  0  0  0  0  0
  -24.4486   -9.1674   22.2218 C   0  0  0  0  0  0  0  0  0  0  0  0
  -25.4543  -37.9267   22.0124 C   0  0  0  0  0  0  0  0  0  0  0  0
  -26.7449  -35.4900   21.6338 C   0  0  0  0  0  0  0  0  0  0  0  0
  -26.8580  -29.8190   19.3245 C   0  0  0  0  0  0  0  0  0  0  0  0
  -22.2074   -9.3887   20.5753 C   0  0  0  0  0  0  0  0  0  0  0  0
  -23.5068   -8.1392   22.1839 C   0  0  0  0  0  0  0  0  0  0  0  0
  -27.7030  -28.7325   19.5465 C   0  0  0  0  0  0  0  0  0  0  0  0
  -20.4548   -7.5098   23.4913 C   0  0  0  0  0  0  0  0  0  0  0  0
  -20.0464   -6.9620   24.7073 C   0  0  0  0  0  0  0  0  0  0  0  0
  -26.1365  -27.8506   21.1551 C   0  0  0  0  0  0  0  0  0  0  0  0
  -27.0333  -20.0406   20.0583 C   0  0  0  0  0  0  0  0  0  0  0  0
  -20.8521   -4.7962   24.0021 C   0  0  0  0  0  0  0  0  0  0  0  0
  -24.2698  -10.3063   21.4364 C   0  0  0  0  0  0  0  0  0  0  0  0
  -25.2514  -12.4826   22.3353 C   0  0  0  0  0  0  0  0  0  0  0  0
  -24.9263  -36.7691   22.6055 C   0  0  0  0  0  0  0  0  0  0  0  0
  -25.6490  -29.9352   20.0253 C   0  0  0  0  0  0  0  0  0  0  0  0
  -25.5835  -35.5373   22.4237 C   0  0  0  0  0  0  0  0  0  0  0  0
  -25.2768  -28.9382   20.9383 C   0  0  0  0  0  0  0  0  0  0  0  0
  -27.2158  -18.7281   19.5611 C   0  0  0  0  0  0  0  0  0  0  0  0
  -22.3862   -8.2499   21.3607 C   0  0  0  0  0  0  0  0  0  0  0  0
  -27.3437  -27.7496   20.4640 C   0  0  0  0  0  0  0  0  0  0  0  0
  -21.0617   -6.7009   22.5306 C   0  0  0  0  0  0  0  0  0  0  0  0
  -20.2451   -5.6052   24.9627 C   0  0  0  0  0  0  0  0  0  0  0  0
  -21.2604   -5.3441   22.7860 C   0  0  0  0  0  0  0  0  0  0  0  0
  -25.2433  -11.3678   21.4756 C   0  0  0  0  0  0  0  0  0  0  0  0
  -28.5612  -18.6001   19.3053 C   0  0  0  0  0  0  0  0  0  0  0  0
  -26.3749  -13.1858   21.9751 C   0  0  0  0  0  0  0  0  0  0  0  0
  -28.2803  -20.6210   20.0711 C   0  0  0  0  0  0  0  0  0  0  0  0
  -29.3577  -17.4770   18.7800 C   0  0  0  0  0  0  0  0  0  0  0  0
  -24.3261  -12.8495   23.3672 C   0  0  0  0  0  0  0  0  0  0  0  0
  -24.4374  -32.0420   22.0740 C   0  0  0  0  0  0  0  0  0  0  0  0
  -28.3828  -24.2761   20.5979 C   0  0  0  0  0  0  0  0  0  0  0  0
  -21.7702  -30.2215   21.7664 C   0  0  0  0  0  0  0  0  0  0  0  0
  -24.9704  -17.9539   19.1076 C   0  0  0  0  0  0  0  0  0  0  0  0
  -20.4044  -27.1905   20.9955 C   0  0  0  0  0  0  0  0  0  0  0  0
  -29.6238  -15.3371   17.9790 C   0  0  0  0  0  0  0  0  0  0  0  0
  -23.7032  -36.8943   23.4791 C   0  0  0  0  0  0  0  0  0  0  0  0
  -24.7360  -31.0996   19.7548 C   0  0  0  0  0  0  0  0  0  0  0  0
  -23.9801  -29.0058   21.7015 C   0  0  0  0  0  0  0  0  0  0  0  0
  -23.0183  -35.5599   23.7629 C   0  0  0  0  0  0  0  0  0  0  0  0
  -30.2424  -11.9281   18.9792 C   0  0  0  0  0  0  0  0  0  0  0  0
  -24.0466  -34.5061   24.1615 C   0  0  0  0  0  0  0  0  0  0  0  0
  -28.9799  -11.5606   19.7589 C   0  0  0  0  0  0  0  0  0  0  0  0
  -29.9299  -12.8665   17.8177 C   0  0  0  0  0  0  0  0  0  0  0  0
  -27.9372  -13.7432   19.0049 C   0  0  0  0  0  0  0  0  0  0  0  0
  -25.0490  -34.2570   23.0281 C   0  0  1  0  0  0  0  0  0  0  0  0
  -23.7699  -31.3804   20.9016 C   0  0  1  0  0  0  0  0  0  0  0  0
  -28.2184  -12.8218   20.2041 C   0  0  1  0  0  0  0  0  0  0  0  0
  -24.1240  -15.8734   20.2024 C   0  0  0  0  0  0  0  0  0  0  0  0
  -24.6064  -15.9008   17.7234 C   0  0  0  0  0  0  0  0  0  0  0  0
  -18.2004  -25.9969   20.8731 C   0  0  0  0  0  0  0  0  0  0  0  0
  -21.7314  -29.9865   24.8083 C   0  0  0  0  0  0  0  0  0  0  0  0
  -20.1422  -28.0667   24.5700 C   0  0  0  0  0  0  0  0  0  0  0  0
  -19.4875  -30.3334   23.7600 C   0  0  0  0  0  0  0  0  0  0  0  0
  -20.7060  -26.6879   18.0946 C   0  0  0  0  0  0  0  0  0  0  0  0
  -27.8351  -22.9109   20.9564 C   0  0  0  0  0  0  0  0  0  0  0  0
  -27.5528  -25.4572   21.0619 C   0  0  0  0  0  0  0  0  0  1  0  0
  -21.2157  -29.0093   22.4748 C   0  0  1  0  0  0  0  0  0  0  0  0
  -24.1365  -16.7157   18.9278 C   0  0  0  0  0  0  0  0  0  0  0  0
  -19.2330  -26.8099   20.1081 C   0  0  2  0  0  0  0  0  0  0  0  0
  -20.6696  -29.3484   23.8905 C   0  0  0  0  0  0  0  0  0  0  0  0
  -26.2794  -11.3592   20.6326 N   0  0  0  0  0  0  0  0  0  0  0  0
  -28.8150  -16.3468   18.4647 N   0  0  0  0  0  0  0  0  0  0  0  0
  -26.9489  -12.4773   20.9609 N   0  0  0  0  0  0  0  0  0  0  0  0
  -23.1243  -30.1670   21.4067 N   0  0  0  0  0  0  0  0  0  0  0  0
  -29.1773  -14.0359   18.2740 N   0  0  0  0  0  0  0  0  0  0  0  0
  -26.9179  -14.3349   22.4302 N   0  0  0  0  0  0  0  0  0  0  0  0
  -23.2261  -12.0145   23.6061 N   0  0  0  0  0  0  0  0  0  0  0  0
  -26.2583  -17.7444   19.3599 N   0  0  0  0  0  0  0  0  0  0  0  0
  -28.7107  -21.8833   20.4540 N   0  0  0  0  0  0  0  0  0  0  0  0
  -24.4576  -33.4220   22.0047 N   0  0  0  0  0  0  0  0  0  0  0  0
  -20.2247  -28.4286   21.5753 N   0  0  0  0  0  0  0  0  0  0  0  0
  -24.2893  -19.0967   19.0315 N   0  3  0  0  0  0  0  0  0  0  0  0
  -19.7033  -26.0006   18.9484 N   0  3  0  0  0  0  0  0  0  0  0  0
  -24.4616  -13.8957   24.0459 O   0  0  0  0  0  0  0  0  0  0  0  0
  -24.8984  -31.3517   22.9754 O   0  0  0  0  0  0  0  0  0  0  0  0
  -29.4307  -24.4290   19.9716 O   0  0  0  0  0  0  0  0  0  0  0  0
  -21.0275  -31.1786   21.5341 O   0  0  0  0  0  0  0  0  0  0  0  0
  -21.3794  -26.4608   21.1610 O   0  0  0  0  0  0  0  0  0  0  0  0
  -30.6551  -15.5337   17.3319 O   0  0  0  0  0  0  0  0  0  0  0  0
  -29.2172  -19.7495   19.6136 O   0  0  0  0  0  0  0  0  0  0  0  0
  -21.4673   -7.2464   21.3241 O   0  0  0  0  0  0  0  0  0  0  0  0
  -28.1670  -26.6884   20.6831 O   0  0  0  0  0  0  0  0  0  1  0  0
  -19.8543   -5.0795   26.1311 F   0  0  0  0  0  0  0  0  0  0  0  0
  -21.8441   -4.5621   21.8675 F   0  0  0  0  0  0  0  0  0  0  0  0
  1  2  1  0  0  0  0
  1  5  2  0  0  0  0
  2  6  2  0  0  0  0
  3  8  2  0  0  0  0
  3 16  1  0  0  0  0
  4  9  1  0  0  0  0
  4 16  2  0  0  0  0
  5 18  1  0  0  0  0
  6 20  1  0  0  0  0
  7 10  2  0  0  0  0
  7 19  1  0  0  0  0
  8 23  1  0  0  0  0
  9 23  2  0  0  0  0
 10 24  1  0  0  0  0
 11 12  2  0  0  0  0
 11 25  1  0  0  0  0
 12 26  1  0  0  0  0
 13 21  1  0  0  0  0
 13 24  2  0  0  0  0
 14 22  1  0  0  0  0
 14 31  2  0  0  0  0
 15 26  2  0  0  0  0
 15 27  1  0  0  0  0
 16 28  1  0  0  0  0
 17 28  1  0  0  0  0
 17 30  2  0  0  0  0
 17 33  1  0  0  0  0
 18 20  2  0  0  0  0
 18 40  1  0  0  0  0
 19 21  2  0  0  0  0
 19 41  1  0  0  0  0
 20 49  1  0  0  0  0
 21 42  1  0  0  0  0
 22 29  2  0  0  0  0
 22 72  1  0  0  0  0
 23 85  1  0  0  0  0
 24 86  1  0  0  0  0
 25 27  2  0  0  0  0
 25 85  1  0  0  0  0
 26 87  1  0  0  0  0
 27 88  1  0  0  0  0
 28 65  2  0  0  0  0
 29 32  1  0  0  0  0
 29 84  1  0  0  0  0
 30 67  1  0  0  0  0
 30 70  1  0  0  0  0
 31 73  1  0  0  0  0
 31 84  1  0  0  0  0
 32 66  2  0  0  0  0
 33 71  1  0  0  0  0
 33 78  2  0  0  0  0
 34 50  1  0  0  0  0
 34 74  1  0  0  0  0
 34 79  2  0  0  0  0
 35 59  1  0  0  0  0
 35 60  1  0  0  0  0
 35 80  2  0  0  0  0
 36 61  1  0  0  0  0
 36 68  1  0  0  0  0
 36 81  2  0  0  0  0
 37 62  1  0  0  0  0
 37 72  1  0  0  0  0
 37 76  2  0  0  0  0
 38 63  1  0  0  0  0
 38 75  1  0  0  0  0
 38 82  2  0  0  0  0
 39 66  1  0  0  0  0
 39 69  1  0  0  0  0
 39 83  2  0  0  0  0
 40 43  1  0  0  0  0
 41 50  1  0  0  0  0
 42 68  1  0  0  0  0
 43 45  1  0  0  0  0
 44 46  1  0  0  0  0
 44 47  1  0  0  0  0
 45 49  1  0  0  0  0
 46 51  1  0  0  0  0
 47 69  1  0  0  0  0
 48 51  1  0  0  0  0
 48 69  1  0  0  0  0
 49 74  1  0  0  0  0
 50 68  1  0  0  0  0
 51 67  1  0  0  0  0
 52 62  1  0  0  0  0
 53 62  1  0  0  0  0
 54 63  1  0  0  0  0
 55 64  1  0  0  0  0
 56 64  1  0  0  0  0
 57 64  1  0  0  0  0
 58 77  1  0  0  0  0
 59 73  1  0  0  0  0
 60 86  1  0  0  0  0
 61 64  1  0  0  0  0
 61 75  1  0  0  0  0
 63 77  1  0  0  0  0
 65 67  1  0  0  0  0
M  CHG  2  76   1  77   1
M  ISO  4  39 100  60 101  66 100  86 101
M  END
> <Batch ID>
0159

> <Smiles>
CNC(C)C(=O)NC(C(=O)N1Cc2cc([101O:1][101CH2:1]C(=O)CNc3cc(NC(=N)C(C)C)c(C=[100N:0][100C:0](=O)N4CCCC(n5nc(-c6ccc(Oc7ccc(F)cc7F)cc6)c(C(N)=O)c5N)C4)o3)ccc2CC1C(=O)NC1CCCc2ccccc21)C(C)(C)C

> <Shape>
0.357

> <Color>
0.116

> <Negative vol penalty>
0.000

$$$$

  -OEChem-04052303473D

 82 90  0     1  0  0  0  0  0999 V2000
  -28.5414  -11.0745   20.4719 C   0  0  0  0  0  0  0  0  0  0  0  0
  -28.7913  -12.3962   20.1170 C   0  0  0  0  0  0  0  0  0  0  0  0
  -19.2866  -28.3991   23.4856 C   0  0  0  0  0  0  0  0  0  0  0  0
  -20.1646  -26.4786   22.3117 C   0  0  0  0  0  0  0  0  0  0  0  0
  -27.2289  -10.6353   20.6405 C   0  0  0  0  0  0  0  0  0  0  0  0
  -27.7286  -13.2794   19.9294 C   0  0  0  0  0  0  0  0  0  0  0  0
  -28.5244  -17.7712   22.1282 C   0  0  0  0  0  0  0  0  0  0  0  0
  -17.9908  -27.9136   23.3108 C   0  0  0  0  0  0  0  0  0  0  0  0
  -18.8687  -25.9931   22.1370 C   0  0  0  0  0  0  0  0  0  0  0  0
  -29.3712  -18.6616   21.4694 C   0  0  0  0  0  0  0  0  0  0  0  0
  -15.8171  -24.0665   21.6966 C   0  0  0  0  0  0  0  0  0  0  0  0
  -15.5920  -22.7125   21.9451 C   0  0  0  0  0  0  0  0  0  0  0  0
  -30.6743  -27.6794   18.6839 C   0  0  0  0  0  0  0  0  0  0  0  0
  -29.7333  -28.7363   18.7142 C   0  0  0  0  0  0  0  0  0  0  0  0
  -27.4512  -19.8396   20.6063 C   0  0  0  0  0  0  0  0  0  0  0  0
  -16.3231  -23.0101   24.2285 C   0  0  0  0  0  0  0  0  0  0  0  0
  -20.3736  -27.6817   22.9860 C   0  0  0  0  0  0  0  0  0  0  0  0
  -22.5807  -27.9215   24.2426 C   0  0  0  0  0  0  0  0  0  0  0  0
  -26.1501  -11.5160   20.4643 C   0  0  0  0  0  0  0  0  0  0  0  0
  -27.1323  -17.9021   22.0220 C   0  0  0  0  0  0  0  0  0  0  0  0
  -26.4004  -12.8513   20.0945 C   0  0  0  0  0  0  0  0  0  0  0  0
  -26.5889  -18.9512   21.2668 C   0  0  0  0  0  0  0  0  0  0  0  0
  -17.7818  -26.7106   22.6365 C   0  0  0  0  0  0  0  0  0  0  0  0
  -28.8346  -19.6942   20.7060 C   0  0  0  0  0  0  0  0  0  0  0  0
  -16.2952  -24.8922   22.7141 C   0  0  0  0  0  0  0  0  0  0  0  0
  -15.8450  -22.1843   23.2110 C   0  0  0  0  0  0  0  0  0  0  0  0
  -16.5482  -24.3640   23.9800 C   0  0  0  0  0  0  0  0  0  0  0  0
  -21.7124  -28.1830   23.1657 C   0  0  0  0  0  0  0  0  0  0  0  0
  -30.0849  -26.6243   19.3407 C   0  0  0  0  0  0  0  0  0  0  0  0
  -23.7214  -28.6252   23.9426 C   0  0  0  0  0  0  0  0  0  0  0  0
  -28.6360  -28.2516   19.3871 C   0  0  0  0  0  0  0  0  0  0  0  0
  -22.3745  -27.1145   25.4096 C   0  0  0  0  0  0  0  0  0  0  0  0
  -30.7094  -25.3021   19.5513 C   0  0  0  0  0  0  0  0  0  0  0  0
  -24.7883  -16.0805   20.8857 C   0  0  0  0  0  0  0  0  0  0  0  0
  -22.9026  -18.4083   22.1300 C   0  0  0  0  0  0  0  0  0  0  0  0
  -30.3276  -22.8643   19.8377 C   0  0  0  0  0  0  0  0  0  0  0  0
  -22.5868  -21.6568   23.1271 C   0  0  0  0  0  0  0  0  0  0  0  0
  -26.9810  -30.1505   19.4250 C   0  0  0  0  0  0  0  0  0  0  0  0
  -24.7467  -10.9834   20.6114 C   0  0  0  0  0  0  0  0  0  0  0  0
  -26.2325  -16.9495   22.7605 C   0  0  0  0  0  0  0  0  0  0  0  0
  -25.1012  -19.1473   21.1373 C   0  0  0  0  0  0  0  0  0  0  0  0
  -23.6925  -12.0774   20.7600 C   0  0  0  0  0  0  0  0  0  0  0  0
  -24.7774  -32.4610   21.0007 C   0  0  0  0  0  0  0  0  0  0  0  0
  -23.9098  -13.1729   19.7211 C   0  0  0  0  0  0  0  0  0  0  0  0
  -23.8464  -31.5693   21.8255 C   0  0  0  0  0  0  0  0  0  0  0  0
  -25.1501  -31.8129   19.6685 C   0  0  0  0  0  0  0  0  0  0  0  0
  -24.7675  -29.5628   20.5956 C   0  0  0  0  0  0  0  0  0  0  0  0
  -25.2753  -13.8457   19.9063 C   0  0  1  0  0  0  0  0  0  0  0  0
  -24.8305  -16.8683   22.1645 C   0  0  1  0  0  0  0  0  0  0  0  0
  -24.4163  -30.1450   21.9745 C   0  0  2  0  0  0  0  0  0  0  0  0
  -20.9145  -23.2757   24.0651 C   0  0  0  0  0  0  0  0  0  0  0  0
  -21.5880  -18.6365   19.3859 C   0  0  0  0  0  0  0  0  0  0  0  0
  -20.6408  -20.8411   20.1003 C   0  0  0  0  0  0  0  0  0  0  0  0
  -20.0021  -18.7585   21.3158 C   0  0  0  0  0  0  0  0  0  0  0  0
  -24.2064  -22.0965   25.5648 C   0  0  0  0  0  0  0  0  0  0  0  0
  -29.1773  -21.8936   19.8686 C   0  0  0  0  0  0  0  0  0  1  0  0
  -22.3268  -19.7059   21.6167 C   0  0  1  0  0  0  0  0  0  0  0  0
  -22.0094  -22.2714   24.3894 C   0  0  2  0  0  0  0  0  0  0  0  0
  -21.1675  -19.4809   20.6054 C   0  0  0  0  0  0  0  0  0  0  0  0
  -22.2550  -28.9900   22.2501 N   0  0  0  0  0  0  0  0  0  0  0  0
  -23.4764  -29.2418   22.7509 N   0  0  0  0  0  0  0  0  0  0  0  0
  -24.2630  -18.1863   21.8730 N   0  0  0  0  0  0  0  0  0  0  0  0
  -25.6867  -30.4681   19.8884 N   0  0  0  0  0  0  0  0  0  0  0  0
  -24.9000  -28.7707   24.5846 N   0  0  0  0  0  0  0  0  0  0  0  0
  -21.1441  -26.4605   25.5609 N   0  0  0  0  0  0  0  0  0  0  0  0
  -27.3969  -28.8527   19.7203 N   0  0  0  0  0  0  0  0  0  0  0  0
  -29.9089  -24.2298   19.6253 N   0  0  0  0  0  0  0  0  0  0  0  0
  -25.2334  -14.7784   21.0120 N   0  0  0  0  0  0  0  0  0  0  0  0
  -21.9502  -20.4796   22.7949 N   0  0  0  0  0  0  0  0  0  0  0  0
  -32.0373  -25.2527   19.6533 N   0  3  0  0  0  0  0  0  0  0  0  0
  -23.0762  -22.9714   25.1594 N   0  3  0  0  0  0  0  0  0  0  0  0
  -23.2492  -26.9906   26.3001 O   0  0  0  0  0  0  0  0  0  0  0  0
  -24.3806  -16.6140   19.8606 O   0  0  0  0  0  0  0  0  0  0  0  0
  -22.1741  -17.6238   22.7427 O   0  0  0  0  0  0  0  0  0  0  0  0
  -31.5050  -22.5645   19.9734 O   0  0  0  0  0  0  0  0  0  0  0  0
  -23.5077  -22.1715   22.4966 O   0  0  0  0  0  0  0  0  0  0  0  0
  -27.6804  -30.9782   18.8353 O   0  0  0  0  0  0  0  0  0  0  0  0
  -28.8422  -26.9649   19.7723 O   0  0  0  0  0  0  0  0  0  0  0  0
  -16.5174  -26.2364   22.4660 O   0  0  0  0  0  0  0  0  0  0  0  0
  -29.6589  -20.5642   20.0613 O   0  0  0  0  0  0  0  0  0  1  0  0
  -15.6274  -20.8844   23.4499 F   0  0  0  0  0  0  0  0  0  0  0  0
  -17.0065  -25.1526   24.9618 F   0  0  0  0  0  0  0  0  0  0  0  0
  1  2  1  0  0  0  0
  1  5  2  0  0  0  0
  2  6  2  0  0  0  0
  3  8  2  0  0  0  0
  3 17  1  0  0  0  0
  4  9  1  0  0  0  0
  4 17  2  0  0  0  0
  5 19  1  0  0  0  0
  6 21  1  0  0  0  0
  7 10  2  0  0  0  0
  7 20  1  0  0  0  0
  8 23  1  0  0  0  0
  9 23  2  0  0  0  0
 10 24  1  0  0  0  0
 11 12  2  0  0  0  0
 11 25  1  0  0  0  0
 12 26  1  0  0  0  0
 13 14  1  0  0  0  0
 13 29  2  0  0  0  0
 14 31  2  0  0  0  0
 15 22  1  0  0  0  0
 15 24  2  0  0  0  0
 16 26  2  0  0  0  0
 16 27  1  0  0  0  0
 17 28  1  0  0  0  0
 18 28  1  0  0  0  0
 18 30  2  0  0  0  0
 18 32  1  0  0  0  0
 19 21  2  0  0  0  0
 19 39  1  0  0  0  0
 20 22  2  0  0  0  0
 20 40  1  0  0  0  0
 21 48  1  0  0  0  0
 22 41  1  0  0  0  0
 23 79  1  0  0  0  0
 24 80  1  0  0  0  0
 25 27  2  0  0  0  0
 25 79  1  0  0  0  0
 26 81  1  0  0  0  0
 27 82  1  0  0  0  0
 28 60  2  0  0  0  0
 29 33  1  0  0  0  0
 29 78  1  0  0  0  0
 30 61  1  0  0  0  0
 30 64  1  0  0  0  0
 31 66  1  0  0  0  0
 31 78  1  0  0  0  0
 32 65  1  0  0  0  0
 32 72  2  0  0  0  0
 33 67  1  0  0  0  0
 33 70  2  0  0  0  0
 34 49  1  0  0  0  0
 34 68  1  0  0  0  0
 34 73  2  0  0  0  0
 35 57  1  0  0  0  0
 35 62  1  0  0  0  0
 35 74  2  0  0  0  0
 36 56  1  0  0  0  0
 36 67  1  0  0  0  0
 36 75  2  0  0  0  0
 37 58  1  0  0  0  0
 37 69  1  0  0  0  0
 37 76  2  0  0  0  0
 38 63  1  0  0  0  0
 38 66  1  0  0  0  0
 38 77  2  0  0  0  0
 39 42  1  0  0  0  0
 40 49  1  0  0  0  0
 41 62  1  0  0  0  0
 42 44  1  0  0  0  0
 43 45  1  0  0  0  0
 43 46  1  0  0  0  0
 44 48  1  0  0  0  0
 45 50  1  0  0  0  0
 46 63  1  0  0  0  0
 47 50  1  0  0  0  0
 47 63  1  0  0  0  0
 48 68  1  0  0  0  0
 49 62  1  0  0  0  0
 50 61  1  0  0  0  0
 51 58  1  0  0  0  0
 52 59  1  0  0  0  0
 53 59  1  0  0  0  0
 54 59  1  0  0  0  0
 55 71  1  0  0  0  0
 56 80  1  0  0  0  0
 57 59  1  0  0  0  0
 57 69  1  0  0  0  0
 58 71  1  0  0  0  0
 60 61  1  0  0  0  0
M  CHG  2  70   1  71   1
M  ISO  4  38 100  56 101  66 100  80 101
M  END
> <Batch ID>
0159

> <Smiles>
CNC(C)C(=O)NC(C(=O)N1Cc2cc([101O:1][101CH2:1]C(=O)NC(=N)c3ccc([100NH:0][100C:0](=O)N4CCCC(n5nc(-c6ccc(Oc7ccc(F)cc7F)cc6)c(C(N)=O)c5N)C4)o3)ccc2CC1C(=O)NC1CCCc2ccccc21)C(C)(C)C

> <Shape>
0.231

> <Color>
0.080

> <Negative vol penalty>
0.000

$$$$

  -OEChem-04052303473D

 89 98  0     1  0  0  0  0  0999 V2000
  -24.6035  -16.4026   26.3728 C   0  0  0  0  0  0  0  0  0  0  0  0
  -23.5663  -17.3061   26.5747 C   0  0  0  0  0  0  0  0  0  0  0  0
  -29.4317  -17.0413   19.7333 C   0  0  0  0  0  0  0  0  0  0  0  0
  -27.2164  -17.5914   20.5250 C   0  0  0  0  0  0  0  0  0  0  0  0
  -25.0479  -28.1388   18.8058 C   0  0  0  0  0  0  0  0  0  0  0  0
  -25.7847  -16.8270   25.7679 C   0  0  0  0  0  0  0  0  0  0  0  0
  -23.7053  -18.6315   26.1611 C   0  0  0  0  0  0  0  0  0  0  0  0
  -21.6811  -26.2390   25.0429 C   0  0  0  0  0  0  0  0  0  0  0  0
  -25.9926  -27.1245   18.9615 C   0  0  0  0  0  0  0  0  0  0  0  0
  -29.2473  -15.7187   20.1363 C   0  0  0  0  0  0  0  0  0  0  0  0
  -27.0320  -16.2688   20.9280 C   0  0  0  0  0  0  0  0  0  0  0  0
  -22.2079  -27.5050   24.7911 C   0  0  0  0  0  0  0  0  0  0  0  0
  -26.2675  -13.3104   19.4844 C   0  0  0  0  0  0  0  0  0  0  0  0
  -25.0521  -12.7023   19.1707 C   0  0  0  0  0  0  0  0  0  0  0  0
  -23.3160  -26.6469   22.8278 C   0  0  0  0  0  0  0  0  0  0  0  0
  -26.8345  -28.2134   20.9471 C   0  0  0  0  0  0  0  0  0  0  0  0
  -24.6222  -12.3484   21.5216 C   0  0  0  0  0  0  0  0  0  0  0  0
  -28.4162  -17.9777   19.9277 C   0  0  0  0  0  0  0  0  0  0  0  0
  -24.9965  -29.1905   19.7207 C   0  0  0  0  0  0  0  0  0  0  0  0
  -28.2962  -19.9021   18.2575 C   0  0  0  0  0  0  0  0  0  0  0  0
  -25.9421  -18.1613   25.3583 C   0  0  0  0  0  0  0  0  0  0  0  0
  -21.9771  -25.1631   24.1936 C   0  0  0  0  0  0  0  0  0  0  0  0
  -24.8806  -19.0735   25.5271 C   0  0  0  0  0  0  0  0  0  0  0  0
  -22.7896  -25.3688   23.0695 C   0  0  0  0  0  0  0  0  0  0  0  0
  -26.8859  -27.1617   20.0321 C   0  0  0  0  0  0  0  0  0  0  0  0
  -25.8898  -29.2277   20.7913 C   0  0  0  0  0  0  0  0  0  0  0  0
  -28.0475  -15.3325   20.7336 C   0  0  0  0  0  0  0  0  0  0  0  0
  -23.0278  -27.7085   23.6851 C   0  0  0  0  0  0  0  0  0  0  0  0
  -26.6604  -13.4373   20.8168 C   0  0  0  0  0  0  0  0  0  0  0  0
  -24.2294  -12.2214   20.1892 C   0  0  0  0  0  0  0  0  0  0  0  0
  -25.8378  -12.9564   21.8354 C   0  0  0  0  0  0  0  0  0  0  0  0
  -28.6063  -19.3442   19.5122 C   0  0  0  0  0  0  0  0  0  0  0  0
  -28.6625  -21.2212   18.3683 C   0  0  0  0  0  0  0  0  0  0  0  0
  -23.9816  -30.2511   19.5270 C   0  0  0  0  0  0  0  0  0  0  0  0
  -27.7279  -19.2833   17.0957 C   0  0  0  0  0  0  0  0  0  0  0  0
  -23.4440  -22.3653   24.5457 C   0  0  0  0  0  0  0  0  0  0  0  0
  -24.3386  -31.0975   24.0687 C   0  0  0  0  0  0  0  0  0  0  0  0
  -22.4489  -21.9006   21.4934 C   0  0  0  0  0  0  0  0  0  0  0  0
  -21.4728  -23.2706   18.5240 C   0  0  0  0  0  0  0  0  0  0  0  0
  -28.8043  -26.0160   21.1955 C   0  0  0  0  0  0  0  0  0  0  0  0
  -27.2387  -18.5650   24.7017 C   0  0  0  0  0  0  0  0  0  0  0  0
  -21.3793  -23.8097   24.4641 C   0  0  0  0  0  0  0  0  0  0  0  0
  -23.1213  -24.2514   22.1157 C   0  0  0  0  0  0  0  0  0  0  0  0
  -22.6575  -29.9599   18.8722 C   0  0  0  0  0  0  0  0  0  0  0  0
  -27.4612  -20.0739   24.7029 C   0  0  0  0  0  0  0  0  0  0  0  0
  -21.8796  -31.1671   19.3406 C   0  0  0  0  0  0  0  0  0  0  0  0
  -31.3194  -23.6122   21.9524 C   0  0  0  0  0  0  0  0  0  0  0  0
  -26.2175  -20.7830   24.1882 C   0  0  0  0  0  0  0  0  0  0  0  0
  -30.8123  -22.3334   21.2818 C   0  0  0  0  0  0  0  0  0  0  0  0
  -22.9603  -32.2192   19.4907 C   0  0  0  0  0  0  0  0  0  0  0  0
  -30.1752  -24.4373   22.5385 C   0  0  0  0  0  0  0  0  0  0  0  0
  -28.5813  -23.4674   20.9297 C   0  0  0  0  0  0  0  0  0  0  0  0
  -25.0208  -20.5272   25.1131 C   0  0  1  0  0  0  0  0  0  0  0  0
  -22.1639  -22.6705   23.8205 C   0  0  1  0  0  0  0  0  0  0  0  0
  -29.6916  -22.6352   20.2676 C   0  0  2  0  0  0  0  0  0  0  0  0
  -20.7587  -22.6381   16.2030 C   0  0  0  0  0  0  0  0  0  0  0  0
  -25.3457  -21.2622   20.7786 C   0  0  0  0  0  0  0  0  0  0  0  0
  -24.7471  -21.5770   18.3681 C   0  0  0  0  0  0  0  0  0  0  0  0
  -23.6520  -19.7729   19.6980 C   0  0  0  0  0  0  0  0  0  0  0  0
  -18.8307  -24.5609   18.8604 C   0  0  0  0  0  0  0  0  0  0  0  0
  -23.7923  -29.7814   24.5652 C   0  0  0  0  0  0  0  0  0  1  0  0
  -26.4304  -30.1820   23.0325 C   0  0  0  0  0  0  0  0  0  0  0  0
  -25.8393  -31.2563   23.9403 C   0  0  2  0  0  0  0  0  0  0  0  0
  -23.0238  -22.1841   20.1266 C   0  0  1  0  0  0  0  0  0  0  0  0
  -20.2963  -22.9684   17.6136 C   0  0  2  0  0  0  0  0  0  0  0  0
  -24.1877  -21.2199   19.7617 C   0  0  0  0  0  0  0  0  0  0  0  0
  -29.1294  -20.2358   20.3579 N   0  0  0  0  0  0  0  0  0  0  0  0
  -24.1761  -31.4851   19.8895 N   0  0  0  0  0  0  0  0  0  0  0  0
  -23.5507  -32.0867   23.7922 N   0  0  0  0  0  0  0  0  0  0  0  0
  -29.1509  -21.3674   19.6333 N   0  0  0  0  0  0  0  0  0  0  0  0
  -22.5178  -22.9449   22.4264 N   0  0  0  0  0  0  0  0  0  0  0  0
  -29.1535  -24.6879   21.5196 N   0  0  0  0  0  0  0  0  0  0  0  0
  -28.6112  -22.2587   17.5061 N   0  0  0  0  0  0  0  0  0  0  0  0
  -27.4104  -17.9194   17.1528 N   0  0  0  0  0  0  0  0  0  0  0  0
  -27.8453  -26.1309   20.1897 N   0  0  0  0  0  0  0  0  0  0  0  0
  -25.8560  -30.2644   21.7099 N   0  0  0  0  0  0  0  0  0  0  0  0
  -23.8217  -21.0374   24.4856 N   0  0  0  0  0  0  0  0  0  0  0  0
  -21.9013  -22.1451   19.1955 N   0  0  0  0  0  0  0  0  0  0  0  0
  -26.4678  -31.1653   25.2894 N   0  3  0  0  0  0  0  0  0  0  0  0
  -19.3796  -24.1413   17.5452 N   0  3  0  0  0  0  0  0  0  0  0  0
  -27.5232  -19.9172   16.0327 O   0  0  0  0  0  0  0  0  0  0  0  0
  -24.0453  -23.2679   25.1161 O   0  0  0  0  0  0  0  0  0  0  0  0
  -21.9503  -20.7958   21.7225 O   0  0  0  0  0  0  0  0  0  0  0  0
  -21.9651  -24.3921   18.6262 O   0  0  0  0  0  0  0  0  0  0  0  0
  -29.3379  -26.9808   21.7490 O   0  0  0  0  0  0  0  0  0  0  0  0
  -27.8671  -14.0419   21.1268 O   0  0  0  0  0  0  0  0  0  0  0  0
  -23.5439  -28.9431   23.4374 O   0  0  0  0  0  0  0  0  0  1  0  0
  -23.0614  -11.6389   19.8878 F   0  0  0  0  0  0  0  0  0  0  0  0
  -26.2093  -13.0766   23.1173 F   0  0  0  0  0  0  0  0  0  0  0  0
  1  2  1  0  0  0  0
  1  6  2  0  0  0  0
  2  7  2  0  0  0  0
  3 10  2  0  0  0  0
  3 18  1  0  0  0  0
  4 11  1  0  0  0  0
  4 18  2  0  0  0  0
  5  9  2  0  0  0  0
  5 19  1  0  0  0  0
  6 21  1  0  0  0  0
  7 23  1  0  0  0  0
  8 12  2  0  0  0  0
  8 22  1  0  0  0  0
  9 25  1  0  0  0  0
 10 27  1  0  0  0  0
 11 27  2  0  0  0  0
 12 28  1  0  0  0  0
 13 14  2  0  0  0  0
 13 29  1  0  0  0  0
 14 30  1  0  0  0  0
 15 24  1  0  0  0  0
 15 28  2  0  0  0  0
 16 25  2  0  0  0  0
 16 26  1  0  0  0  0
 17 30  2  0  0  0  0
 17 31  1  0  0  0  0
 18 32  1  0  0  0  0
 19 26  2  0  0  0  0
 19 34  1  0  0  0  0
 20 32  1  0  0  0  0
 20 33  2  0  0  0  0
 20 35  1  0  0  0  0
 21 23  2  0  0  0  0
 21 41  1  0  0  0  0
 22 24  2  0  0  0  0
 22 42  1  0  0  0  0
 23 53  1  0  0  0  0
 24 43  1  0  0  0  0
 25 75  1  0  0  0  0
 26 76  1  0  0  0  0
 27 86  1  0  0  0  0
 28 87  1  0  0  0  0
 29 31  2  0  0  0  0
 29 86  1  0  0  0  0
 30 88  1  0  0  0  0
 31 89  1  0  0  0  0
 32 67  2  0  0  0  0
 33 70  1  0  0  0  0
 33 73  1  0  0  0  0
 34 44  1  0  0  0  0
 34 68  2  0  0  0  0
 35 74  1  0  0  0  0
 35 81  2  0  0  0  0
 36 54  1  0  0  0  0
 36 77  1  0  0  0  0
 36 82  2  0  0  0  0
 37 61  1  0  0  0  0
 37 63  1  0  0  0  0
 37 69  2  0  0  0  0
 38 64  1  0  0  0  0
 38 71  1  0  0  0  0
 38 83  2  0  0  0  0
 39 65  1  0  0  0  0
 39 78  1  0  0  0  0
 39 84  2  0  0  0  0
 40 72  1  0  0  0  0
 40 75  1  0  0  0  0
 40 85  2  0  0  0  0
 41 45  1  0  0  0  0
 42 54  1  0  0  0  0
 43 71  1  0  0  0  0
 44 46  1  0  0  0  0
 45 48  1  0  0  0  0
 46 50  1  0  0  0  0
 47 49  1  0  0  0  0
 47 51  1  0  0  0  0
 48 53  1  0  0  0  0
 49 55  1  0  0  0  0
 50 68  1  0  0  0  0
 51 72  1  0  0  0  0
 52 55  1  0  0  0  0
 52 72  1  0  0  0  0
 53 77  1  0  0  0  0
 54 71  1  0  0  0  0
 55 70  1  0  0  0  0
 56 65  1  0  0  0  0
 57 66  1  0  0  0  0
 58 66  1  0  0  0  0
 59 66  1  0  0  0  0
 60 80  1  0  0  0  0
 61 87  1  0  0  0  0
 62 63  1  0  0  0  0
 62 76  1  0  0  0  0
 63 79  1  0  0  0  0
 64 66  1  0  0  0  0
 64 78  1  0  0  0  0
 65 80  1  0  0  0  0
 67 70  1  0  0  0  0
M  CHG  2  79   1  80   1
M  ISO  4  40 100  61 101  75 100  87 101
M  END
> <Batch ID>
0159

> <Smiles>
CNC(C)C(=O)NC(C(=O)N1Cc2cc([101O:1][101CH2:1]C(=N)C(N)CNc3cc([100NH:0][100C:0](=O)N4CCCC(n5nc(-c6ccc(Oc7ccc(F)cc7F)cc6)c(C(N)=O)c5N)C4)ccc3C3=NCCC3)ccc2CC1C(=O)NC1CCCc2ccccc21)C(C)(C)C

> <Shape>
0.196

> <Color>
0.083

> <Negative vol penalty>
0.000

$$$$

  -OEChem-04052303473D

 86 94  0     1  0  0  0  0  0999 V2000
  -22.1936   -8.1532   20.5421 C   0  0  0  0  0  0  0  0  0  0  0  0
  -22.2182   -9.5133   20.2503 C   0  0  0  0  0  0  0  0  0  0  0  0
  -26.1787  -28.2842   18.8196 C   0  0  0  0  0  0  0  0  0  0  0  0
  -26.4153  -28.7171   21.1847 C   0  0  0  0  0  0  0  0  0  0  0  0
  -23.0790   -7.6269   21.4818 C   0  0  0  0  0  0  0  0  0  0  0  0
  -23.1275  -10.3480   20.8990 C   0  0  0  0  0  0  0  0  0  0  0  0
  -25.4170  -13.5640   17.7271 C   0  0  0  0  0  0  0  0  0  0  0  0
  -24.7987  -28.4568   18.9260 C   0  0  0  0  0  0  0  0  0  0  0  0
  -25.0353  -28.8898   21.2911 C   0  0  0  0  0  0  0  0  0  0  0  0
  -24.6909  -14.6827   17.3207 C   0  0  0  0  0  0  0  0  0  0  0  0
  -22.2857  -26.9304   21.4681 C   0  0  0  0  0  0  0  0  0  0  0  0
  -21.6359  -26.3133   22.5370 C   0  0  0  0  0  0  0  0  0  0  0  0
  -25.8655  -16.0269   18.9433 C   0  0  0  0  0  0  0  0  0  0  0  0
  -25.8995  -21.2584   19.4041 C   0  0  0  0  0  0  0  0  0  0  0  0
  -20.8854  -28.4700   23.3259 C   0  0  0  0  0  0  0  0  0  0  0  0
  -24.1303  -22.7030   18.9737 C   0  0  0  0  0  0  0  0  0  0  0  0
  -26.9870  -28.4143   19.9489 C   0  0  0  0  0  0  0  0  0  0  0  0
  -29.3747  -29.2251   19.5625 C   0  0  0  0  0  0  0  0  0  0  0  0
  -24.0061   -8.4540   22.1352 C   0  0  0  0  0  0  0  0  0  0  0  0
  -26.3666  -13.6663   18.7538 C   0  0  0  0  0  0  0  0  0  0  0  0
  -24.0252   -9.8325   21.8493 C   0  0  0  0  0  0  0  0  0  0  0  0
  -26.6041  -14.9086   19.3591 C   0  0  0  0  0  0  0  0  0  0  0  0
  -24.8154  -21.5892   18.5407 C   0  0  0  0  0  0  0  0  0  0  0  0
  -24.2270  -28.7597   20.1618 C   0  0  0  0  0  0  0  0  0  0  0  0
  -24.9131  -15.9138   17.9308 C   0  0  0  0  0  0  0  0  0  0  0  0
  -22.2354  -28.3173   21.3282 C   0  0  0  0  0  0  0  0  0  0  0  0
  -20.9358  -27.0831   23.4659 C   0  0  0  0  0  0  0  0  0  0  0  0
  -21.5353  -29.0871   22.2570 C   0  0  0  0  0  0  0  0  0  0  0  0
  -28.4126  -28.2355   19.8397 C   0  0  0  0  0  0  0  0  0  0  0  0
  -26.0017  -22.1323   20.4642 C   0  0  0  0  0  0  0  0  0  0  0  0
  -30.5715  -28.5512   19.5670 C   0  0  0  0  0  0  0  0  0  0  0  0
  -29.2020  -30.6280   19.3225 C   0  0  0  0  0  0  0  0  0  0  0  0
  -27.0258  -22.0402   21.5151 C   0  0  0  0  0  0  0  0  0  0  0  0
  -26.6983  -12.3749   21.6393 C   0  0  0  0  0  0  0  0  0  0  0  0
  -29.5612  -13.8981   21.5643 C   0  0  0  0  0  0  0  0  0  0  0  0
  -25.2853  -20.1829   16.6284 C   0  0  0  0  0  0  0  0  0  0  0  0
  -31.4636  -16.4296   20.2918 C   0  0  0  0  0  0  0  0  0  0  0  0
  -28.6905  -23.4918   20.3083 C   0  0  0  0  0  0  0  0  0  0  0  0
  -24.9113   -7.8475   23.1780 C   0  0  0  0  0  0  0  0  0  0  0  0
  -27.1605  -12.4558   19.1623 C   0  0  0  0  0  0  0  0  0  0  0  0
  -27.6269  -15.0757   20.4520 C   0  0  0  0  0  0  0  0  0  0  0  0
  -26.0968   -8.7359   23.5466 C   0  0  0  0  0  0  0  0  0  0  0  0
  -32.0848  -24.5180   21.7575 C   0  0  0  0  0  0  0  0  0  0  0  0
  -25.6356  -10.1706   23.7827 C   0  0  0  0  0  0  0  0  0  0  0  0
  -31.8167  -25.9694   21.3764 C   0  0  0  0  0  0  0  0  0  0  0  0
  -30.7927  -23.7072   21.6991 C   0  0  0  0  0  0  0  0  0  0  0  0
  -30.6214  -24.7617   19.4442 C   0  0  0  0  0  0  0  0  0  0  0  0
  -25.0137  -10.7661   22.5138 C   0  0  1  0  0  0  0  0  0  0  0  0
  -27.7368  -12.5664   20.5705 C   0  0  1  0  0  0  0  0  0  0  0  0
  -31.2323  -26.0832   19.9533 C   0  0  1  0  0  0  0  0  0  0  0  0
  -26.6923  -20.6708   16.6080 C   0  0  0  0  0  0  0  0  0  0  0  0
  -33.7537  -17.4434   20.4493 C   0  0  0  0  0  0  0  0  0  0  0  0
  -23.2246  -18.6184   14.2841 C   0  0  0  0  0  0  0  0  0  0  0  0
  -28.8079  -15.1797   24.2289 C   0  0  0  0  0  0  0  0  0  0  0  0
  -30.6364  -16.8503   23.8628 C   0  0  0  0  0  0  0  0  0  0  0  0
  -31.1872  -14.4262   24.0694 C   0  0  0  0  0  0  0  0  0  0  0  0
  -27.5512  -21.1058   23.7500 C   0  0  0  0  0  0  0  0  0  0  0  0
  -32.0232  -15.8955   17.4351 C   0  0  0  0  0  0  0  0  0  0  0  0
  -23.7802  -17.0493   16.1750 C   0  0  0  0  0  0  0  0  0  1  0  0
  -30.0556  -15.2656   21.9701 C   0  0  1  0  0  0  0  0  0  0  0  0
  -32.8699  -16.4435   19.7202 C   0  0  2  0  0  0  0  0  0  0  0  0
  -23.6687  -18.5022   15.7329 C   0  0  1  0  0  0  0  0  0  0  0  0
  -30.1511  -15.4272   23.5136 C   0  0  0  0  0  0  0  0  0  0  0  0
  -28.9516  -27.0250   20.0079 N   0  0  0  0  0  0  0  0  0  0  0  0
  -30.2654  -27.2496   19.8358 N   0  0  0  0  0  0  0  0  0  0  0  0
  -28.3732  -13.8613   20.8206 N   0  0  0  0  0  0  0  0  0  0  0  0
  -29.9852  -23.9802   20.5048 N   0  0  0  0  0  0  0  0  0  0  0  0
  -31.8453  -28.9510   19.3671 N   0  0  0  0  0  0  0  0  0  0  0  0
  -27.9044  -31.1566   19.3548 N   0  0  0  0  0  0  0  0  0  0  0  0
  -24.4661  -20.9038   17.4056 N   0  0  0  0  0  0  0  0  0  0  0  0
  -28.2084  -22.6645   21.3986 N   0  0  0  0  0  0  0  0  0  0  0  0
  -26.0477  -11.1572   21.5798 N   0  0  0  0  0  0  0  0  0  0  0  0
  -31.3189  -15.4676   21.2689 N   0  0  0  0  0  0  0  0  0  0  0  0
  -26.6818  -21.3151   22.5893 N   0  3  0  0  0  0  0  0  0  0  0  0
  -24.9917  -19.1317   15.8537 N   0  3  0  0  0  0  0  0  0  0  0  0
  -32.8384  -16.8095   18.2759 N   0  3  0  0  0  0  0  0  0  0  0  0
  -30.1681  -31.3873   19.0702 O   0  0  0  0  0  0  0  0  0  0  0  0
  -26.5028  -13.2652   22.4583 O   0  0  0  0  0  0  0  0  0  0  0  0
  -30.2092  -12.8999   21.8888 O   0  0  0  0  0  0  0  0  0  0  0  0
  -30.5827  -17.1980   19.9122 O   0  0  0  0  0  0  0  0  0  0  0  0
  -27.9916  -23.7015   19.3239 O   0  0  0  0  0  0  0  0  0  0  0  0
  -22.8804  -28.9284   20.2660 O   0  0  0  0  0  0  0  0  0  0  0  0
  -24.2053  -17.0072   17.5365 O   0  0  0  0  0  0  0  0  0  1  0  0
  -20.3105  -26.4902   24.4915 F   0  0  0  0  0  0  0  0  0  0  0  0
  -21.4824  -30.4199   22.1272 F   0  0  0  0  0  0  0  0  0  0  0  0
  -24.7939  -23.3452   20.4158 S   0  0  0  0  0  0  0  0  0  0  0  0
  1  2  1  0  0  0  0
  1  5  2  0  0  0  0
  2  6  2  0  0  0  0
  3  8  2  0  0  0  0
  3 17  1  0  0  0  0
  4  9  1  0  0  0  0
  4 17  2  0  0  0  0
  5 19  1  0  0  0  0
  6 21  1  0  0  0  0
  7 10  2  0  0  0  0
  7 20  1  0  0  0  0
  8 24  1  0  0  0  0
  9 24  2  0  0  0  0
 10 25  1  0  0  0  0
 11 12  2  0  0  0  0
 11 26  1  0  0  0  0
 12 27  1  0  0  0  0
 13 22  1  0  0  0  0
 13 25  2  0  0  0  0
 14 23  1  0  0  0  0
 14 30  2  0  0  0  0
 15 27  2  0  0  0  0
 15 28  1  0  0  0  0
 16 23  2  0  0  0  0
 16 86  1  0  0  0  0
 17 29  1  0  0  0  0
 18 29  1  0  0  0  0
 18 31  2  0  0  0  0
 18 32  1  0  0  0  0
 19 21  2  0  0  0  0
 19 39  1  0  0  0  0
 20 22  2  0  0  0  0
 20 40  1  0  0  0  0
 21 48  1  0  0  0  0
 22 41  1  0  0  0  0
 23 70  1  0  0  0  0
 24 82  1  0  0  0  0
 25 83  1  0  0  0  0
 26 28  2  0  0  0  0
 26 82  1  0  0  0  0
 27 84  1  0  0  0  0
 28 85  1  0  0  0  0
 29 64  2  0  0  0  0
 30 33  1  0  0  0  0
 30 86  1  0  0  0  0
 31 65  1  0  0  0  0
 31 68  1  0  0  0  0
 32 69  1  0  0  0  0
 32 77  2  0  0  0  0
 33 71  1  0  0  0  0
 33 74  2  0  0  0  0
 34 49  1  0  0  0  0
 34 72  1  0  0  0  0
 34 78  2  0  0  0  0
 35 60  1  0  0  0  0
 35 66  1  0  0  0  0
 35 79  2  0  0  0  0
 36 51  1  0  0  0  0
 36 70  1  0  0  0  0
 36 75  2  0  0  0  0
 37 61  1  0  0  0  0
 37 73  1  0  0  0  0
 37 80  2  0  0  0  0
 38 67  1  0  0  0  0
 38 71  1  0  0  0  0
 38 81  2  0  0  0  0
 39 42  1  0  0  0  0
 40 49  1  0  0  0  0
 41 66  1  0  0  0  0
 42 44  1  0  0  0  0
 43 45  1  0  0  0  0
 43 46  1  0  0  0  0
 44 48  1  0  0  0  0
 45 50  1  0  0  0  0
 46 67  1  0  0  0  0
 47 50  1  0  0  0  0
 47 67  1  0  0  0  0
 48 72  1  0  0  0  0
 49 66  1  0  0  0  0
 50 65  1  0  0  0  0
 52 61  1  0  0  0  0
 53 62  1  0  0  0  0
 54 63  1  0  0  0  0
 55 63  1  0  0  0  0
 56 63  1  0  0  0  0
 57 74  1  0  0  0  0
 58 76  1  0  0  0  0
 59 62  1  0  0  0  0
 59 83  1  0  0  0  0
 60 63  1  0  0  0  0
 60 73  1  0  0  0  0
 61 76  1  0  0  0  0
 62 75  1  0  0  0  0
 64 65  1  0  0  0  0
M  CHG  3  74   1  75   1  76   1
M  ISO  4  38 100  59 101  71 100  83 101
M  END
> <Batch ID>
0159

> <Smiles>
CN=C([100NH:0][100C:0](=O)N1CCCC(n2nc(-c3ccc(Oc4ccc(F)cc4F)cc3)c(C(N)=O)c2N)C1)c1cc(NC(C)=NC(C)[101CH2:1][101O:1]c2ccc3c(c2)CN(C(=O)C(NC(=O)C(C)NC)C(C)(C)C)C(C(=O)NC2CCCc4ccccc42)C3)cs1

> <Shape>
0.239

> <Color>
0.061

> <Negative vol penalty>
0.000

$$$$

  -OEChem-04052303473D

 91 99  0     1  0  0  0  0  0999 V2000
  -24.3214  -30.6700   21.9337 C   0  0  0  0  0  0  0  0  0  0  0  0
  -23.3478  -30.1808   21.0702 C   0  0  0  0  0  0  0  0  0  0  0  0
  -26.3191  -12.9890   21.5065 C   0  0  0  0  0  0  0  0  0  0  0  0
  -25.9853  -13.6788   19.2152 C   0  0  0  0  0  0  0  0  0  0  0  0
  -25.6088  -30.1386   21.8991 C   0  0  0  0  0  0  0  0  0  0  0  0
  -23.6580  -29.1520   20.1801 C   0  0  0  0  0  0  0  0  0  0  0  0
  -22.4770  -23.8167   14.4041 C   0  0  0  0  0  0  0  0  0  0  0  0
  -25.0945  -12.3218   21.4841 C   0  0  0  0  0  0  0  0  0  0  0  0
  -24.7606  -13.0114   19.1928 C   0  0  0  0  0  0  0  0  0  0  0  0
  -23.1414  -23.0182   13.4742 C   0  0  0  0  0  0  0  0  0  0  0  0
  -23.8730   -9.3960   20.3089 C   0  0  0  0  0  0  0  0  0  0  0  0
  -23.8253   -8.1105   20.8482 C   0  0  0  0  0  0  0  0  0  0  0  0
  -28.8221  -20.9877   16.4626 C   0  0  0  0  0  0  0  0  0  0  0  0
  -29.3130  -23.1739   15.5591 C   0  0  0  0  0  0  0  0  0  0  0  0
  -24.4401  -22.0363   15.2542 C   0  0  0  0  0  0  0  0  0  0  0  0
  -29.6336  -22.7403   17.9141 C   0  0  0  0  0  0  0  0  0  0  0  0
  -22.1758   -8.8452   22.4534 C   0  0  0  0  0  0  0  0  0  0  0  0
  -26.7645  -13.6676   20.3721 C   0  0  0  0  0  0  0  0  0  0  0  0
  -28.8788  -21.8609   15.3764 C   0  0  0  0  0  0  0  0  0  0  0  0
  -29.2901  -13.8329   20.0529 C   0  0  0  0  0  0  0  0  0  0  0  0
  -25.9375  -29.1113   20.9993 C   0  0  0  0  0  0  0  0  0  0  0  0
  -22.7973  -23.7386   15.7671 C   0  0  0  0  0  0  0  0  0  0  0  0
  -24.9453  -28.5861   20.1466 C   0  0  0  0  0  0  0  0  0  0  0  0
  -23.7764  -22.8330   16.1997 C   0  0  0  0  0  0  0  0  0  0  0  0
  -29.1994  -21.4274   17.7315 C   0  0  0  0  0  0  0  0  0  0  0  0
  -29.6903  -23.6136   16.8279 C   0  0  0  0  0  0  0  0  0  0  0  0
  -24.3152  -12.3329   20.3272 C   0  0  0  0  0  0  0  0  0  0  0  0
  -24.1252  -22.1299   13.8988 C   0  0  0  0  0  0  0  0  0  0  0  0
  -23.0722  -10.4062   20.8419 C   0  0  0  0  0  0  0  0  0  0  0  0
  -22.9767   -7.8351   21.9204 C   0  0  0  0  0  0  0  0  0  0  0  0
  -22.2236  -10.1307   21.9142 C   0  0  0  0  0  0  0  0  0  0  0  0
  -28.0293  -14.3576   20.3948 C   0  0  0  0  0  0  0  0  0  0  0  0
  -30.1597  -14.8794   20.2403 C   0  0  0  0  0  0  0  0  0  0  0  0
  -28.4785  -21.3957   14.0333 C   0  0  0  0  0  0  0  0  0  0  0  0
  -29.6436  -12.5173   19.6058 C   0  0  0  0  0  0  0  0  0  0  0  0
  -23.9524  -25.7721   17.9199 C   0  0  0  0  0  0  0  0  0  0  0  0
  -23.3662  -23.3276   19.9701 C   0  0  0  0  0  0  0  0  0  0  0  0
  -23.7600  -19.7412   19.9729 C   0  0  0  0  0  0  0  0  0  0  0  0
  -24.9252  -21.6562   10.6059 C   0  0  0  0  0  0  0  0  0  0  0  0
  -29.4813  -20.8156   20.1589 C   0  0  0  0  0  0  0  0  0  0  0  0
  -27.3444  -28.5674   21.0097 C   0  0  0  0  0  0  0  0  0  0  0  0
  -22.0526  -24.5875   16.7607 C   0  0  0  0  0  0  0  0  0  0  0  0
  -24.1431  -22.6965   17.6541 C   0  0  0  0  0  0  0  0  0  0  0  0
  -27.6936  -27.7977   19.7401 C   0  0  0  0  0  0  0  0  0  0  0  0
  -30.7307  -18.8519   22.8534 C   0  0  0  0  0  0  0  0  0  0  0  0
  -26.6018  -26.7848   19.4294 C   0  0  0  0  0  0  0  0  0  0  0  0
  -30.2998  -17.4279   22.4945 C   0  0  0  0  0  0  0  0  0  0  0  0
  -29.6754  -19.8815   22.4535 C   0  0  0  0  0  0  0  0  0  0  0  0
  -28.8113  -18.3904   20.6931 C   0  0  0  0  0  0  0  0  0  0  0  0
  -25.2679  -27.4884   19.1489 C   0  0  1  0  0  0  0  0  0  0  0  0
  -22.8198  -24.7951   18.0629 C   0  0  1  0  0  0  0  0  0  0  0  0
  -29.8704  -17.3243   21.0178 C   0  0  2  0  0  0  0  0  0  0  0  0
  -22.5018  -17.9627   21.2184 C   0  0  0  0  0  0  0  0  0  0  0  0
  -25.5980  -23.6007   22.0328 C   0  0  0  0  0  0  0  0  0  0  0  0
  -25.5122  -21.1189   22.3515 C   0  0  0  0  0  0  0  0  0  0  0  0
  -23.5145  -22.5133   22.8878 C   0  0  0  0  0  0  0  0  0  0  0  0
  -23.0946  -18.2996   17.4753 C   0  0  0  0  0  0  0  0  0  0  0  0
  -30.5307  -25.4567   18.2847 C   0  0  0  0  0  0  0  0  0  0  0  0
  -26.9779  -21.6501   12.0891 C   0  0  0  0  0  0  0  0  0  0  0  0
  -24.1524  -22.1398   20.4701 C   0  0  1  0  0  0  0  0  0  0  0  0
  -22.6527  -18.7053   19.8999 C   0  0  2  0  0  0  0  0  0  0  0  0
  -25.5054  -22.0188   11.9653 C   0  0  2  0  0  0  0  0  0  1  0  0
  -24.6989  -22.3543   21.9098 C   0  0  0  0  0  0  0  0  0  0  0  0
  -30.9903  -26.8894   18.1845 C   0  0  0  0  0  0  0  0  0  0  0  0
  -28.0883  -15.6378   20.7710 N   0  0  0  0  0  0  0  0  0  0  0  0
  -29.3967  -15.9263   20.6668 N   0  0  0  0  0  0  0  0  0  0  0  0
  -23.3912  -23.5526   18.5864 N   0  0  0  0  0  0  0  0  0  0  0  0
  -29.3211  -19.7260   21.0410 N   0  0  0  0  0  0  0  0  0  0  0  0
  -31.4950  -14.9969   20.0804 N   0  0  0  0  0  0  0  0  0  0  0  0
  -29.1465  -20.3742   13.4974 N   0  0  0  0  0  0  0  0  0  0  0  0
  -28.6266  -11.5629   19.4675 N   0  0  0  0  0  0  0  0  0  0  0  0
  -25.5251  -22.3253    9.5620 N   0  0  0  0  0  0  0  0  0  0  0  0
  -29.1429  -20.5398   18.8345 N   0  0  0  0  0  0  0  0  0  0  0  0
  -30.1296  -24.9410   17.0125 N   0  0  0  0  0  0  0  0  0  0  0  0
  -24.2189  -26.4961   19.0663 N   0  0  0  0  0  0  0  0  0  0  0  0
  -23.2760  -20.9819   20.3300 N   0  0  0  0  0  0  0  0  0  0  0  0
  -27.4684  -22.0224   13.4203 N   0  3  0  0  0  0  0  0  0  0  0  0
  -22.9447  -17.7094   18.8304 N   0  3  0  0  0  0  0  0  0  0  0  0
  -30.8286  -12.1928   19.3527 O   0  0  0  0  0  0  0  0  0  0  0  0
  -24.5417  -25.8614   16.8492 O   0  0  0  0  0  0  0  0  0  0  0  0
  -22.7468  -24.0257   20.7766 O   0  0  0  0  0  0  0  0  0  0  0  0
  -24.9372  -19.4753   19.7402 O   0  0  0  0  0  0  0  0  0  0  0  0
  -23.9990  -20.8619   10.4622 O   0  0  0  0  0  0  0  0  0  0  0  0
  -29.9144  -21.9045   20.5445 O   0  0  0  0  0  0  0  0  0  0  0  0
  -23.1202  -11.6817   20.3049 O   0  0  0  0  0  0  0  0  0  0  0  0
  -24.7757  -21.3499   12.9932 O   0  0  0  0  0  0  0  0  0  1  0  0
  -22.9298   -6.6002   22.4371 F   0  0  0  0  0  0  0  0  0  0  0  0
  -21.4511  -11.0968   22.4297 F   0  0  0  0  0  0  0  0  0  0  0  0
  -31.3607  -27.3529   19.3988 F   0  0  0  0  0  0  0  0  0  0  0  0
  -32.0521  -27.0101   17.3593 F   0  0  0  0  0  0  0  0  0  0  0  0
  -30.0072  -27.6914   17.7232 F   0  0  0  0  0  0  0  0  0  0  0  0
  1  2  1  0  0  0  0
  1  5  2  0  0  0  0
  2  6  2  0  0  0  0
  3  8  2  0  0  0  0
  3 18  1  0  0  0  0
  4  9  1  0  0  0  0
  4 18  2  0  0  0  0
  5 21  1  0  0  0  0
  6 23  1  0  0  0  0
  7 10  2  0  0  0  0
  7 22  1  0  0  0  0
  8 27  1  0  0  0  0
  9 27  2  0  0  0  0
 10 28  1  0  0  0  0
 11 12  2  0  0  0  0
 11 29  1  0  0  0  0
 12 30  1  0  0  0  0
 13 19  2  0  0  0  0
 13 25  1  0  0  0  0
 14 19  1  0  0  0  0
 14 26  2  0  0  0  0
 15 24  1  0  0  0  0
 15 28  2  0  0  0  0
 16 25  2  0  0  0  0
 16 26  1  0  0  0  0
 17 30  2  0  0  0  0
 17 31  1  0  0  0  0
 18 32  1  0  0  0  0
 19 34  1  0  0  0  0
 20 32  1  0  0  0  0
 20 33  2  0  0  0  0
 20 35  1  0  0  0  0
 21 23  2  0  0  0  0
 21 41  1  0  0  0  0
 22 24  2  0  0  0  0
 22 42  1  0  0  0  0
 23 50  1  0  0  0  0
 24 43  1  0  0  0  0
 25 73  1  0  0  0  0
 26 74  1  0  0  0  0
 27 85  1  0  0  0  0
 28 86  1  0  0  0  0
 29 31  2  0  0  0  0
 29 85  1  0  0  0  0
 30 87  1  0  0  0  0
 31 88  1  0  0  0  0
 32 65  2  0  0  0  0
 33 66  1  0  0  0  0
 33 69  1  0  0  0  0
 34 70  1  0  0  0  0
 34 77  2  0  0  0  0
 35 71  1  0  0  0  0
 35 79  2  0  0  0  0
 36 51  1  0  0  0  0
 36 75  1  0  0  0  0
 36 80  2  0  0  0  0
 37 60  1  0  0  0  0
 37 67  1  0  0  0  0
 37 81  2  0  0  0  0
 38 61  1  0  0  0  0
 38 76  1  0  0  0  0
 38 82  2  0  0  0  0
 39 62  1  0  0  0  0
 39 72  1  0  0  0  0
 39 83  2  0  0  0  0
 40 68  1  0  0  0  0
 40 73  1  0  0  0  0
 40 84  2  0  0  0  0
 41 44  1  0  0  0  0
 42 51  1  0  0  0  0
 43 67  1  0  0  0  0
 44 46  1  0  0  0  0
 45 47  1  0  0  0  0
 45 48  1  0  0  0  0
 46 50  1  0  0  0  0
 47 52  1  0  0  0  0
 48 68  1  0  0  0  0
 49 52  1  0  0  0  0
 49 68  1  0  0  0  0
 50 75  1  0  0  0  0
 51 67  1  0  0  0  0
 52 66  1  0  0  0  0
 53 61  1  0  0  0  0
 54 63  1  0  0  0  0
 55 63  1  0  0  0  0
 56 63  1  0  0  0  0
 57 78  1  0  0  0  0
 58 64  1  0  0  0  0
 58 74  1  0  0  0  0
 59 62  1  0  0  0  0
 59 77  1  0  0  0  0
 60 63  1  0  0  0  0
 60 76  1  0  0  0  0
 61 78  1  0  0  0  0
 62 86  1  0  0  0  0
 64 89  1  0  0  0  0
 64 90  1  0  0  0  0
 64 91  1  0  0  0  0
 65 66  1  0  0  0  0
M  CHG  2  77   1  78   1
M  ISO  4  40 100  62 101  73 100  86 101
M  END
> <Batch ID>
0159

> <Smiles>
CNC(C)C(=O)NC(C(=O)N1Cc2cc([101O:1][101CH:1](CNC(=N)c3cc(NCC(F)(F)F)cc([100NH:0][100C:0](=O)N4CCCC(n5nc(-c6ccc(Oc7ccc(F)cc7F)cc6)c(C(N)=O)c5N)C4)c3)C(N)=O)ccc2CC1C(=O)NC1CCCc2ccccc21)C(C)(C)C

> <Shape>
0.241

> <Color>
0.077

> <Negative vol penalty>
0.000

$$$$

  -OEChem-04052303473D

 85 93  0     1  0  0  0  0  0999 V2000
  -27.8473  -37.4069   19.2264 C   0  0  0  0  0  0  0  0  0  0  0  0
  -28.3020  -36.1039   19.0507 C   0  0  0  0  0  0  0  0  0  0  0  0
  -21.8045   -7.0755   18.9395 C   0  0  0  0  0  0  0  0  0  0  0  0
  -23.9923   -7.7069   18.1321 C   0  0  0  0  0  0  0  0  0  0  0  0
  -26.9931  -37.7090   20.2862 C   0  0  0  0  0  0  0  0  0  0  0  0
  -27.9036  -35.1024   19.9354 C   0  0  0  0  0  0  0  0  0  0  0  0
  -26.8455  -29.2196   18.6017 C   0  0  0  0  0  0  0  0  0  0  0  0
  -21.6166   -6.2805   17.8088 C   0  0  0  0  0  0  0  0  0  0  0  0
  -23.8045   -6.9119   17.0015 C   0  0  0  0  0  0  0  0  0  0  0  0
  -27.6258  -28.0721   18.7369 C   0  0  0  0  0  0  0  0  0  0  0  0
  -20.7077   -3.8010   15.3106 C   0  0  0  0  0  0  0  0  0  0  0  0
  -20.1795   -2.5236   15.4965 C   0  0  0  0  0  0  0  0  0  0  0  0
  -26.5533  -27.5985   20.8452 C   0  0  0  0  0  0  0  0  0  0  0  0
  -25.9968  -17.1341   20.4395 C   0  0  0  0  0  0  0  0  0  0  0  0
  -22.0579   -1.9518   16.9043 C   0  0  0  0  0  0  0  0  0  0  0  0
  -22.9923   -7.7887   19.1011 C   0  0  0  0  0  0  0  0  0  0  0  0
  -23.7527   -8.2214   21.4974 C   0  0  0  0  0  0  0  0  0  0  0  0
  -26.5763  -36.7087   21.1786 C   0  0  0  0  0  0  0  0  0  0  0  0
  -25.9194  -29.5715   19.5941 C   0  0  0  0  0  0  0  0  0  0  0  0
  -27.0441  -35.3916   21.0089 C   0  0  0  0  0  0  0  0  0  0  0  0
  -25.7606  -28.7495   20.7189 C   0  0  0  0  0  0  0  0  0  0  0  0
  -25.9366  -15.7433   20.1841 C   0  0  0  0  0  0  0  0  0  0  0  0
  -22.6166   -6.1987   16.8398 C   0  0  0  0  0  0  0  0  0  0  0  0
  -27.4818  -27.2629   19.8601 C   0  0  0  0  0  0  0  0  0  0  0  0
  -21.9111   -4.1539   15.9215 C   0  0  0  0  0  0  0  0  0  0  0  0
  -20.8545   -1.5989   16.2934 C   0  0  0  0  0  0  0  0  0  0  0  0
  -22.5861   -3.2293   16.7184 C   0  0  0  0  0  0  0  0  0  0  0  0
  -23.1867   -8.6105   20.2685 C   0  0  0  0  0  0  0  0  0  0  0  0
  -27.1576  -15.3995   19.6520 C   0  0  0  0  0  0  0  0  0  0  0  0
  -23.7109   -9.3566   22.2694 C   0  0  0  0  0  0  0  0  0  0  0  0
  -27.2503  -17.5410   20.0456 C   0  0  0  0  0  0  0  0  0  0  0  0
  -24.2700   -6.9478   21.9046 C   0  0  0  0  0  0  0  0  0  0  0  0
  -25.5627  -32.0504   21.5516 C   0  0  0  0  0  0  0  0  0  0  0  0
  -28.1883  -21.1578   20.4108 C   0  0  0  0  0  0  0  0  0  0  0  0
  -28.1978  -23.7287   20.2040 C   0  0  0  0  0  0  0  0  0  0  0  0
  -22.7876  -30.5528   22.3119 C   0  0  0  0  0  0  0  0  0  0  0  0
  -21.0081  -27.6438   22.4478 C   0  0  0  0  0  0  0  0  0  0  0  0
  -23.6046  -15.1849   20.9562 C   0  0  0  0  0  0  0  0  0  0  0  0
  -25.6900  -37.0927   22.3369 C   0  0  0  0  0  0  0  0  0  0  0  0
  -25.0664  -30.7982   19.4205 C   0  0  0  0  0  0  0  0  0  0  0  0
  -24.7662  -29.0724   21.8030 C   0  0  0  0  0  0  0  0  0  0  0  0
  -25.0159  -35.8997   23.0097 C   0  0  0  0  0  0  0  0  0  0  0  0
  -21.1965  -13.3884   22.8670 C   0  0  0  0  0  0  0  0  0  0  0  0
  -26.0264  -34.7834   23.2539 C   0  0  0  0  0  0  0  0  0  0  0  0
  -21.4891  -11.9236   22.5340 C   0  0  0  0  0  0  0  0  0  0  0  0
  -21.3914  -14.2957   21.6535 C   0  0  0  0  0  0  0  0  0  0  0  0
  -22.9870  -12.7063   20.6550 C   0  0  0  0  0  0  0  0  0  0  0  0
  -26.6145  -34.2728   21.9329 C   0  0  1  0  0  0  0  0  0  0  0  0
  -24.5195  -31.3371   20.7388 C   0  0  1  0  0  0  0  0  0  0  0  0
  -22.8672  -11.7626   21.8628 C   0  0  2  0  0  0  0  0  0  0  0  0
  -27.7360  -14.1322   19.1799 C   0  0  0  0  0  0  0  0  0  0  0  0
  -18.7804  -26.7284   23.1524 C   0  0  0  0  0  0  0  0  0  0  0  0
  -23.6528  -30.7030   25.2340 C   0  0  0  0  0  0  0  0  0  0  0  0
  -21.9139  -28.9817   25.7649 C   0  0  0  0  0  0  0  0  0  0  0  0
  -21.2332  -31.1945   24.8359 C   0  0  0  0  0  0  0  0  0  0  0  0
  -20.3746  -26.7521   19.6978 C   0  0  0  0  0  0  0  0  0  0  0  0
  -27.6487  -22.4927   20.8882 C   0  0  0  0  0  0  0  0  0  0  0  0
  -27.2357  -19.9863   20.5411 C   0  0  0  0  0  0  0  0  0  0  0  0
  -27.6731  -25.0542   20.7210 C   0  0  0  0  0  0  0  0  0  1  0  0
  -22.3760  -29.5162   23.3294 C   0  0  1  0  0  0  0  0  0  0  0  0
  -19.5959  -27.3053   22.0057 C   0  0  2  0  0  0  0  0  0  0  0  0
  -22.3142  -30.0935   24.7717 C   0  0  0  0  0  0  0  0  0  0  0  0
  -22.8126   -9.8927   20.2561 N   0  0  0  0  0  0  0  0  0  0  0  0
  -23.1442  -10.3191   21.4867 N   0  0  0  0  0  0  0  0  0  0  0  0
  -23.9598  -30.2857   21.5905 N   0  0  0  0  0  0  0  0  0  0  0  0
  -22.7203  -14.0917   21.0727 N   0  0  0  0  0  0  0  0  0  0  0  0
  -24.1039   -9.6154   23.5347 N   0  0  0  0  0  0  0  0  0  0  0  0
  -24.2363   -5.8887   20.9872 N   0  0  0  0  0  0  0  0  0  0  0  0
  -24.8509  -14.8637   20.4196 N   0  0  0  0  0  0  0  0  0  0  0  0
  -27.8669  -18.7838   20.0607 N   0  0  0  0  0  0  0  0  0  0  0  0
  -25.6744  -33.3978   21.2659 N   0  0  0  0  0  0  0  0  0  0  0  0
  -21.1149  -28.9568   22.8551 N   0  0  0  0  0  0  0  0  0  0  0  0
  -19.6246  -26.3063   20.9002 N   0  3  0  0  0  0  0  0  0  0  0  0
  -24.7330   -6.7502   23.0535 O   0  0  0  0  0  0  0  0  0  0  0  0
  -26.2168  -31.4250   22.3779 O   0  0  0  0  0  0  0  0  0  0  0  0
  -29.3350  -21.0279   19.9846 O   0  0  0  0  0  0  0  0  0  0  0  0
  -28.9894  -23.6708   19.2645 O   0  0  0  0  0  0  0  0  0  0  0  0
  -22.0906  -31.5588   22.1576 O   0  0  0  0  0  0  0  0  0  0  0  0
  -21.9240  -26.8243   22.4367 O   0  0  0  0  0  0  0  0  0  0  0  0
  -23.2898  -16.3171   21.3319 O   0  0  0  0  0  0  0  0  0  0  0  0
  -27.9641  -16.4896   19.5644 O   0  0  0  0  0  0  0  0  0  0  0  0
  -22.4338   -5.4229   15.7366 O   0  0  0  0  0  0  0  0  0  0  0  0
  -28.2426  -26.1427   19.9949 O   0  0  0  0  0  0  0  0  0  1  0  0
  -20.3464   -0.3727   16.4731 F   0  0  0  0  0  0  0  0  0  0  0  0
  -23.7419   -3.5629   17.3088 F   0  0  0  0  0  0  0  0  0  0  0  0
  1  2  1  0  0  0  0
  1  5  2  0  0  0  0
  2  6  2  0  0  0  0
  3  8  2  0  0  0  0
  3 16  1  0  0  0  0
  4  9  1  0  0  0  0
  4 16  2  0  0  0  0
  5 18  1  0  0  0  0
  6 20  1  0  0  0  0
  7 10  2  0  0  0  0
  7 19  1  0  0  0  0
  8 23  1  0  0  0  0
  9 23  2  0  0  0  0
 10 24  1  0  0  0  0
 11 12  2  0  0  0  0
 11 25  1  0  0  0  0
 12 26  1  0  0  0  0
 13 21  1  0  0  0  0
 13 24  2  0  0  0  0
 14 22  1  0  0  0  0
 14 31  2  0  0  0  0
 15 26  2  0  0  0  0
 15 27  1  0  0  0  0
 16 28  1  0  0  0  0
 17 28  1  0  0  0  0
 17 30  2  0  0  0  0
 17 32  1  0  0  0  0
 18 20  2  0  0  0  0
 18 39  1  0  0  0  0
 19 21  2  0  0  0  0
 19 40  1  0  0  0  0
 20 48  1  0  0  0  0
 21 41  1  0  0  0  0
 22 29  2  0  0  0  0
 22 69  1  0  0  0  0
 23 82  1  0  0  0  0
 24 83  1  0  0  0  0
 25 27  2  0  0  0  0
 25 82  1  0  0  0  0
 26 84  1  0  0  0  0
 27 85  1  0  0  0  0
 28 63  2  0  0  0  0
 29 51  1  0  0  0  0
 29 81  1  0  0  0  0
 30 64  1  0  0  0  0
 30 67  1  0  0  0  0
 31 70  1  0  0  0  0
 31 81  1  0  0  0  0
 32 68  1  0  0  0  0
 32 74  2  0  0  0  0
 33 49  1  0  0  0  0
 33 71  1  0  0  0  0
 33 75  2  0  0  0  0
 34 57  1  0  0  0  0
 34 58  1  0  0  0  0
 34 76  2  0  0  0  0
 35 57  1  0  0  0  0
 35 59  1  0  0  0  0
 35 77  2  0  0  0  0
 36 60  1  0  0  0  0
 36 65  1  0  0  0  0
 36 78  2  0  0  0  0
 37 61  1  0  0  0  0
 37 72  1  0  0  0  0
 37 79  2  0  0  0  0
 38 66  1  0  0  0  0
 38 69  1  0  0  0  0
 38 80  2  0  0  0  0
 39 42  1  0  0  0  0
 40 49  1  0  0  0  0
 41 65  1  0  0  0  0
 42 44  1  0  0  0  0
 43 45  1  0  0  0  0
 43 46  1  0  0  0  0
 44 48  1  0  0  0  0
 45 50  1  0  0  0  0
 46 66  1  0  0  0  0
 47 50  1  0  0  0  0
 47 66  1  0  0  0  0
 48 71  1  0  0  0  0
 49 65  1  0  0  0  0
 50 64  1  0  0  0  0
 52 61  1  0  0  0  0
 53 62  1  0  0  0  0
 54 62  1  0  0  0  0
 55 62  1  0  0  0  0
 56 73  1  0  0  0  0
 58 70  1  0  0  0  0
 59 83  1  0  0  0  0
 60 62  1  0  0  0  0
 60 72  1  0  0  0  0
 61 73  1  0  0  0  0
 63 64  1  0  0  0  0
M  CHG  1  73   1
M  ISO  4  38 100  59 101  69 100  83 101
M  END
> <Batch ID>
0159

> <Smiles>
CNC(C)C(=O)NC(C(=O)N1Cc2cc([101O:1][101CH2:1]C(=O)CC(=O)CNc3cc([100NH:0][100C:0](=O)N4CCCC(n5nc(-c6ccc(Oc7ccc(F)cc7F)cc6)c(C(N)=O)c5N)C4)c(C)o3)ccc2CC1C(=O)NC1CCCc2ccccc21)C(C)(C)C

> <Shape>
0.262

> <Color>
0.104

> <Negative vol penalty>
0.000

$$$$

  -OEChem-04052303473D

 84 92  0     1  0  0  0  0  0999 V2000
  -22.9254   -7.8692   20.5797 C   0  0  0  0  0  0  0  0  0  0  0  0
  -22.2931   -8.9731   20.0167 C   0  0  0  0  0  0  0  0  0  0  0  0
  -29.9283  -24.1874   18.1050 C   0  0  0  0  0  0  0  0  0  0  0  0
  -31.3102  -24.9683   19.9264 C   0  0  0  0  0  0  0  0  0  0  0  0
  -23.7784   -8.0367   21.6698 C   0  0  0  0  0  0  0  0  0  0  0  0
  -22.5126  -10.2451   20.5441 C   0  0  0  0  0  0  0  0  0  0  0  0
  -22.9617  -17.1123   18.5552 C   0  0  0  0  0  0  0  0  0  0  0  0
  -31.0693  -23.7789   17.4144 C   0  0  0  0  0  0  0  0  0  0  0  0
  -32.4512  -24.5598   19.2358 C   0  0  0  0  0  0  0  0  0  0  0  0
  -22.4351  -18.3630   18.8752 C   0  0  0  0  0  0  0  0  0  0  0  0
  -34.0963  -21.6695   18.6358 C   0  0  0  0  0  0  0  0  0  0  0  0
  -35.0716  -20.9754   19.3518 C   0  0  0  0  0  0  0  0  0  0  0  0
  -23.9911  -18.5420   20.7099 C   0  0  0  0  0  0  0  0  0  0  0  0
  -36.6820  -22.6988   18.8288 C   0  0  0  0  0  0  0  0  0  0  0  0
  -30.0488  -24.7821   19.3610 C   0  0  0  0  0  0  0  0  0  0  0  0
  -28.1067  -24.4444   20.9803 C   0  0  0  0  0  0  0  0  0  0  0  0
  -24.0160   -9.3127   22.2048 C   0  0  0  0  0  0  0  0  0  0  0  0
  -24.0013  -16.5614   19.3181 C   0  0  0  0  0  0  0  0  0  0  0  0
  -23.3685  -10.4297   21.6432 C   0  0  0  0  0  0  0  0  0  0  0  0
  -24.5308  -17.2853   20.3959 C   0  0  0  0  0  0  0  0  0  0  0  0
  -32.3308  -23.9651   17.9798 C   0  0  0  0  0  0  0  0  0  0  0  0
  -22.9478  -19.0767   19.9544 C   0  0  0  0  0  0  0  0  0  0  0  0
  -34.4139  -22.8782   18.0162 C   0  0  0  0  0  0  0  0  0  0  0  0
  -36.3644  -21.4901   19.4484 C   0  0  0  0  0  0  0  0  0  0  0  0
  -35.7068  -23.3929   18.1128 C   0  0  0  0  0  0  0  0  0  0  0  0
  -28.8705  -25.2048   20.0745 C   0  0  0  0  0  0  0  0  0  0  0  0
  -20.7441  -26.3304   21.1373 C   0  0  0  0  0  0  0  0  0  0  0  0
  -27.1028  -25.2926   21.3794 C   0  0  0  0  0  0  0  0  0  0  0  0
  -19.4688  -25.9932   21.5399 C   0  0  0  0  0  0  0  0  0  0  0  0
  -20.9502  -24.1474   21.0911 C   0  0  0  0  0  0  0  0  0  0  0  0
  -28.2885  -23.0924   21.4214 C   0  0  0  0  0  0  0  0  0  0  0  0
  -21.2325  -27.7237   20.9728 C   0  0  0  0  0  0  0  0  0  0  0  0
  -24.3318  -13.9568   21.1100 C   0  0  0  0  0  0  0  0  0  0  0  0
  -27.4189  -14.9383   21.2786 C   0  0  0  0  0  0  0  0  0  0  0  0
  -29.6578  -17.5061   21.0766 C   0  0  0  0  0  0  0  0  0  0  0  0
  -23.1963  -29.0703   20.2991 C   0  0  0  0  0  0  0  0  0  0  0  0
  -24.9093   -9.4382   23.4135 C   0  0  0  0  0  0  0  0  0  0  0  0
  -24.5763  -15.2229   18.9436 C   0  0  0  0  0  0  0  0  0  0  0  0
  -25.6605  -16.7470   21.2341 C   0  0  0  0  0  0  0  0  0  0  0  0
  -25.3807  -10.8660   23.6768 C   0  0  0  0  0  0  0  0  0  0  0  0
  -26.5041  -30.2683   20.6462 C   0  0  0  0  0  0  0  0  0  0  0  0
  -24.2117  -11.8410   23.5779 C   0  0  0  0  0  0  0  0  0  0  0  0
  -27.3546  -28.9956   20.6113 C   0  0  0  0  0  0  0  0  0  0  0  0
  -25.3217  -30.1872   19.6817 C   0  0  0  0  0  0  0  0  0  0  0  0
  -25.3274  -27.7284   19.7935 C   0  0  0  0  0  0  0  0  0  0  0  0
  -23.6005  -11.8287   22.1716 C   0  0  1  0  0  0  0  0  0  0  0  0
  -25.2873  -14.5324   20.1034 C   0  0  1  0  0  0  0  0  0  0  0  0
  -26.4904  -27.7324   20.7987 C   0  0  1  0  0  0  0  0  0  0  0  0
  -32.1068  -18.0064   21.2991 C   0  0  0  0  0  0  0  0  0  0  0  0
  -27.1737  -14.7759   24.3156 C   0  0  0  0  0  0  0  0  0  0  0  0
  -29.2533  -16.1593   24.4878 C   0  0  0  0  0  0  0  0  0  0  0  0
  -29.3353  -13.9178   23.3962 C   0  0  0  0  0  0  0  0  0  0  0  0
  -17.1144  -26.3743   22.2730 C   0  0  0  0  0  0  0  0  0  0  0  0
  -29.8429  -18.4276   18.2703 C   0  0  0  0  0  0  0  0  0  0  0  0
  -22.8666  -22.6616   20.5038 C   0  0  0  0  0  0  0  0  0  0  0  0
  -28.2058  -15.8380   22.2007 C   0  0  1  0  0  0  0  0  0  0  0  0
  -30.9824  -17.6325   20.3459 C   0  0  2  0  0  0  0  0  0  0  0  0
  -23.3090  -21.2539   20.8761 C   0  0  2  0  0  0  0  0  0  1  0  0
  -28.4694  -15.1823   23.5857 C   0  0  0  0  0  0  0  0  0  0  0  0
  -28.3926  -26.4408   19.9078 N   0  0  0  0  0  0  0  0  0  0  0  0
  -21.5950  -25.2733   20.8799 N   0  0  0  0  0  0  0  0  0  0  0  0
  -27.3177  -26.4636   20.7141 N   0  0  0  0  0  0  0  0  0  0  0  0
  -26.1847  -15.4314   20.8320 N   0  0  0  0  0  0  0  0  0  0  0  0
  -24.5492  -28.9688   19.9306 N   0  0  0  0  0  0  0  0  0  0  0  0
  -26.0660  -25.1434   22.2309 N   0  0  0  0  0  0  0  0  0  0  0  0
  -29.3714  -22.3631   20.9116 N   0  0  0  0  0  0  0  0  0  0  0  0
  -18.4415  -26.8194   21.8551 N   0  0  0  0  0  0  0  0  0  0  0  0
  -21.5041  -22.8885   20.9283 N   0  0  0  0  0  0  0  0  0  0  0  0
  -22.5578  -27.8519   20.5563 N   0  0  0  0  0  0  0  0  0  0  0  0
  -24.4259  -12.5859   21.2552 N   0  0  0  0  0  0  0  0  0  0  0  0
  -29.4160  -16.2084   21.4749 N   0  0  0  0  0  0  0  0  0  0  0  0
  -30.8935  -18.6802   19.2898 N   0  3  0  0  0  0  0  0  0  0  0  0
  -27.5042  -22.5418   22.2309 O   0  0  0  0  0  0  0  0  0  0  0  0
  -20.4574  -28.6560   21.1672 O   0  0  0  0  0  0  0  0  0  0  0  0
  -23.5668  -14.7016   21.7115 O   0  0  0  0  0  0  0  0  0  0  0  0
  -27.8854  -13.8416   20.9604 O   0  0  0  0  0  0  0  0  0  0  0  0
  -28.9139  -18.4636   21.2774 O   0  0  0  0  0  0  0  0  0  0  0  0
  -22.6168  -30.1536   20.4255 O   0  0  0  0  0  0  0  0  0  0  0  0
  -33.4444  -23.5665   17.3064 O   0  0  0  0  0  0  0  0  0  0  0  0
  -22.4353  -20.2974   20.2693 O   0  0  0  0  0  0  0  0  0  1  0  0
  -37.3005  -20.8242   20.1373 F   0  0  0  0  0  0  0  0  0  0  0  0
  -36.0175  -24.5542   17.5207 F   0  0  0  0  0  0  0  0  0  0  0  0
  -23.2407  -21.1137   22.2271 F   0  0  0  0  0  0  0  0  0  0  0  0
  -19.3172  -24.2859   21.6003 S   0  0  0  0  0  0  0  0  0  0  0  0
  1  2  1  0  0  0  0
  1  5  2  0  0  0  0
  2  6  2  0  0  0  0
  3  8  2  0  0  0  0
  3 15  1  0  0  0  0
  4  9  1  0  0  0  0
  4 15  2  0  0  0  0
  5 17  1  0  0  0  0
  6 19  1  0  0  0  0
  7 10  2  0  0  0  0
  7 18  1  0  0  0  0
  8 21  1  0  0  0  0
  9 21  2  0  0  0  0
 10 22  1  0  0  0  0
 11 12  2  0  0  0  0
 11 23  1  0  0  0  0
 12 24  1  0  0  0  0
 13 20  1  0  0  0  0
 13 22  2  0  0  0  0
 14 24  2  0  0  0  0
 14 25  1  0  0  0  0
 15 26  1  0  0  0  0
 16 26  1  0  0  0  0
 16 28  2  0  0  0  0
 16 31  1  0  0  0  0
 17 19  2  0  0  0  0
 17 37  1  0  0  0  0
 18 20  2  0  0  0  0
 18 38  1  0  0  0  0
 19 46  1  0  0  0  0
 20 39  1  0  0  0  0
 21 79  1  0  0  0  0
 22 80  1  0  0  0  0
 23 25  2  0  0  0  0
 23 79  1  0  0  0  0
 24 81  1  0  0  0  0
 25 82  1  0  0  0  0
 26 60  2  0  0  0  0
 27 29  2  0  0  0  0
 27 32  1  0  0  0  0
 27 61  1  0  0  0  0
 28 62  1  0  0  0  0
 28 65  1  0  0  0  0
 29 67  1  0  0  0  0
 29 84  1  0  0  0  0
 30 61  2  0  0  0  0
 30 68  1  0  0  0  0
 30 84  1  0  0  0  0
 31 66  1  0  0  0  0
 31 73  2  0  0  0  0
 32 69  1  0  0  0  0
 32 74  2  0  0  0  0
 33 47  1  0  0  0  0
 33 70  1  0  0  0  0
 33 75  2  0  0  0  0
 34 56  1  0  0  0  0
 34 63  1  0  0  0  0
 34 76  2  0  0  0  0
 35 57  1  0  0  0  0
 35 71  1  0  0  0  0
 35 77  2  0  0  0  0
 36 64  1  0  0  0  0
 36 69  1  0  0  0  0
 36 78  2  0  0  0  0
 37 40  1  0  0  0  0
 38 47  1  0  0  0  0
 39 63  1  0  0  0  0
 40 42  1  0  0  0  0
 41 43  1  0  0  0  0
 41 44  1  0  0  0  0
 42 46  1  0  0  0  0
 43 48  1  0  0  0  0
 44 64  1  0  0  0  0
 45 48  1  0  0  0  0
 45 64  1  0  0  0  0
 46 70  1  0  0  0  0
 47 63  1  0  0  0  0
 48 62  1  0  0  0  0
 49 57  1  0  0  0  0
 50 59  1  0  0  0  0
 51 59  1  0  0  0  0
 52 59  1  0  0  0  0
 53 67  1  0  0  0  0
 54 72  1  0  0  0  0
 55 58  1  0  0  0  0
 55 68  1  0  0  0  0
 56 59  1  0  0  0  0
 56 71  1  0  0  0  0
 57 72  1  0  0  0  0
 58 80  1  0  0  0  0
 58 83  1  0  0  0  0
 60 62  1  0  0  0  0
M  CHG  1  72   1
M  ISO  4  36 100  58 101  69 100  80 101
M  END
> <Batch ID>
0159

> <Smiles>
CNc1sc(NC[101CH:1](F)[101O:1]c2ccc3c(c2)CN(C(=O)C(NC(=O)C(C)NC)C(C)(C)C)C(C(=O)NC2CCCc4ccccc42)C3)nc1C(=O)[100NH:0][100C:0](=O)N1CCCC(n2nc(-c3ccc(Oc4ccc(F)cc4F)cc3)c(C(N)=O)c2N)C1

> <Shape>
0.241

> <Color>
0.047

> <Negative vol penalty>
0.000

$$$$

  -OEChem-04052303473D

 83 91  0     1  0  0  0  0  0999 V2000
  -19.9206  -34.3881   23.8601 C   0  0  0  0  0  0  0  0  0  0  0  0
  -21.2509  -34.1437   23.5344 C   0  0  0  0  0  0  0  0  0  0  0  0
  -26.2822  -12.4866   21.6375 C   0  0  0  0  0  0  0  0  0  0  0  0
  -25.8441  -13.3332   19.4175 C   0  0  0  0  0  0  0  0  0  0  0  0
  -19.0863  -33.3302   24.2188 C   0  0  0  0  0  0  0  0  0  0  0  0
  -21.7479  -32.8413   23.5681 C   0  0  0  0  0  0  0  0  0  0  0  0
  -25.9692  -30.4142   19.8539 C   0  0  0  0  0  0  0  0  0  0  0  0
  -25.1323  -11.7006   21.5647 C   0  0  0  0  0  0  0  0  0  0  0  0
  -24.6942  -12.5471   19.3447 C   0  0  0  0  0  0  0  0  0  0  0  0
  -27.3398  -30.2055   20.0014 C   0  0  0  0  0  0  0  0  0  0  0  0
  -24.1996   -8.7764   20.1461 C   0  0  0  0  0  0  0  0  0  0  0  0
  -24.2923   -7.4512   20.5712 C   0  0  0  0  0  0  0  0  0  0  0  0
  -28.0293  -22.6918   16.7385 C   0  0  0  0  0  0  0  0  0  0  0  0
  -27.9129  -21.3809   17.2592 C   0  0  0  0  0  0  0  0  0  0  0  0
  -26.9129  -27.9365   20.7003 C   0  0  0  0  0  0  0  0  0  0  0  0
  -22.6011   -7.8699   22.2451 C   0  0  0  0  0  0  0  0  0  0  0  0
  -26.6381  -13.3030   20.5639 C   0  0  0  0  0  0  0  0  0  0  0  0
  -29.1282  -13.7560   20.2443 C   0  0  0  0  0  0  0  0  0  0  0  0
  -19.5708  -32.0130   24.2476 C   0  0  0  0  0  0  0  0  0  0  0  0
  -25.0581  -29.3873   20.1395 C   0  0  0  0  0  0  0  0  0  0  0  0
  -20.9196  -31.7649   23.9288 C   0  0  0  0  0  0  0  0  0  0  0  0
  -25.5314  -28.1339   20.5532 C   0  0  0  0  0  0  0  0  0  0  0  0
  -24.3383  -11.7308   20.4183 C   0  0  0  0  0  0  0  0  0  0  0  0
  -27.8117  -28.9674   20.4274 C   0  0  0  0  0  0  0  0  0  0  0  0
  -23.3077   -9.6484   20.7705 C   0  0  0  0  0  0  0  0  0  0  0  0
  -23.4930   -6.9979   21.6207 C   0  0  0  0  0  0  0  0  0  0  0  0
  -22.5084   -9.1951   21.8200 C   0  0  0  0  0  0  0  0  0  0  0  0
  -27.8256  -14.1157   20.6387 C   0  0  0  0  0  0  0  0  0  0  0  0
  -28.4016  -23.4906   17.7946 C   0  0  0  0  0  0  0  0  0  0  0  0
  -29.8886  -14.8668   20.5169 C   0  0  0  0  0  0  0  0  0  0  0  0
  -28.2226  -21.4720   18.5963 C   0  0  0  0  0  0  0  0  0  0  0  0
  -29.6079  -12.5275   19.6816 C   0  0  0  0  0  0  0  0  0  0  0  0
  -28.6397  -24.9463   17.7130 C   0  0  0  0  0  0  0  0  0  0  0  0
  -22.6901  -29.0052   22.2253 C   0  0  0  0  0  0  0  0  0  0  0  0
  -22.1986  -26.2578   20.5724 C   0  0  0  0  0  0  0  0  0  0  0  0
  -23.4803  -23.8210   18.5559 C   0  0  0  0  0  0  0  0  0  0  0  0
  -29.2738  -27.0046   18.9529 C   0  0  0  0  0  0  0  0  0  0  0  0
  -28.6033  -20.6855   20.9591 C   0  0  0  0  0  0  0  0  0  0  0  0
  -18.6434  -30.9078   24.6873 C   0  0  0  0  0  0  0  0  0  0  0  0
  -23.5842  -29.6201   19.9497 C   0  0  0  0  0  0  0  0  0  0  0  0
  -24.5959  -26.9924   20.8531 C   0  0  0  0  0  0  0  0  0  0  0  0
  -19.1500  -29.5115   24.3356 C   0  0  0  0  0  0  0  0  0  0  0  0
  -30.0892  -18.6367   23.4634 C   0  0  0  0  0  0  0  0  0  0  0  0
  -20.6218  -29.3676   24.7098 C   0  0  0  0  0  0  0  0  0  0  0  0
  -29.8012  -17.2120   22.9842 C   0  0  0  0  0  0  0  0  0  0  0  0
  -28.9278  -19.5821   23.1619 C   0  0  0  0  0  0  0  0  0  0  0  0
  -28.1941  -18.1670   21.2835 C   0  0  0  0  0  0  0  0  0  0  0  0
  -21.4892  -30.3629   23.9298 C   0  0  1  0  0  0  0  0  0  0  0  0
  -22.7184  -28.6626   20.7626 C   0  0  1  0  0  0  0  0  0  0  0  0
  -29.3619  -17.1924   21.5070 C   0  0  2  0  0  0  0  0  0  0  0  0
  -22.8470  -21.6854   17.4003 C   0  0  0  0  0  0  0  0  0  0  0  0
  -31.1332  -27.4312   20.5617 C   0  0  0  0  0  0  0  0  0  0  0  0
  -22.3415  -24.7767   23.2362 C   0  0  0  0  0  0  0  0  0  0  0  0
  -22.6586  -22.6484   21.9564 C   0  0  0  0  0  0  0  0  0  0  0  0
  -20.5563  -23.9635   21.6850 C   0  0  0  0  0  0  0  0  0  0  0  0
  -24.0556  -24.9596   15.8854 C   0  0  0  0  0  0  0  0  0  0  0  0
  -22.7049  -24.8397   20.6808 C   0  0  1  0  0  0  0  0  0  0  0  0
  -22.9590  -23.1968   17.2741 C   0  0  2  0  0  0  0  0  0  0  0  0
  -29.6285  -27.4343   20.3595 C   0  0  1  0  0  0  0  0  0  1  0  0
  -22.0831  -24.0790   21.8859 C   0  0  0  0  0  0  0  0  0  0  0  0
  -27.7587  -15.3579   21.1251 N   0  0  0  0  0  0  0  0  0  0  0  0
  -29.0288  -15.7883   21.0381 N   0  0  0  0  0  0  0  0  0  0  0  0
  -23.1634  -27.2714   20.6585 N   0  0  0  0  0  0  0  0  0  0  0  0
  -28.5694  -19.5132   21.7436 N   0  0  0  0  0  0  0  0  0  0  0  0
  -31.2022  -15.1353   20.3593 N   0  0  0  0  0  0  0  0  0  0  0  0
  -28.6922  -11.4885   19.4669 N   0  0  0  0  0  0  0  0  0  0  0  0
  -28.2746  -20.4915   19.6179 N   0  0  0  0  0  0  0  0  0  0  0  0
  -28.9986  -25.5910   18.8316 N   0  0  0  0  0  0  0  0  0  0  0  0
  -21.6960  -29.8993   22.5746 N   0  0  0  0  0  0  0  0  0  0  0  0
  -22.4528  -24.2161   19.3862 N   0  0  0  0  0  0  0  0  0  0  0  0
  -28.4819  -25.5352   16.5279 N   0  3  0  0  0  0  0  0  0  0  0  0
  -23.8722  -23.5072   16.1381 N   0  3  0  0  0  0  0  0  0  0  0  0
  -30.8158  -12.3506   19.3935 O   0  0  0  0  0  0  0  0  0  0  0  0
  -23.5086  -28.4951   22.9813 O   0  0  0  0  0  0  0  0  0  0  0  0
  -20.9924  -26.4585   20.4098 O   0  0  0  0  0  0  0  0  0  0  0  0
  -24.6791  -23.9423   18.7981 O   0  0  0  0  0  0  0  0  0  0  0  0
  -29.1950  -27.7567   17.9914 O   0  0  0  0  0  0  0  0  0  0  0  0
  -28.9283  -21.7761   21.4357 O   0  0  0  0  0  0  0  0  0  0  0  0
  -28.5217  -22.7547   18.9306 O   0  0  0  0  0  0  0  0  0  0  0  0
  -23.2162  -10.9636   20.3468 O   0  0  0  0  0  0  0  0  0  0  0  0
  -29.1489  -28.7613   20.5728 O   0  0  0  0  0  0  0  0  0  1  0  0
  -23.5811   -5.7248   22.0278 F   0  0  0  0  0  0  0  0  0  0  0  0
  -21.6489  -10.0279   22.4230 F   0  0  0  0  0  0  0  0  0  0  0  0
  1  2  1  0  0  0  0
  1  5  2  0  0  0  0
  2  6  2  0  0  0  0
  3  8  2  0  0  0  0
  3 17  1  0  0  0  0
  4  9  1  0  0  0  0
  4 17  2  0  0  0  0
  5 19  1  0  0  0  0
  6 21  1  0  0  0  0
  7 10  2  0  0  0  0
  7 20  1  0  0  0  0
  8 23  1  0  0  0  0
  9 23  2  0  0  0  0
 10 24  1  0  0  0  0
 11 12  2  0  0  0  0
 11 25  1  0  0  0  0
 12 26  1  0  0  0  0
 13 14  1  0  0  0  0
 13 29  2  0  0  0  0
 14 31  2  0  0  0  0
 15 22  1  0  0  0  0
 15 24  2  0  0  0  0
 16 26  2  0  0  0  0
 16 27  1  0  0  0  0
 17 28  1  0  0  0  0
 18 28  1  0  0  0  0
 18 30  2  0  0  0  0
 18 32  1  0  0  0  0
 19 21  2  0  0  0  0
 19 39  1  0  0  0  0
 20 22  2  0  0  0  0
 20 40  1  0  0  0  0
 21 48  1  0  0  0  0
 22 41  1  0  0  0  0
 23 80  1  0  0  0  0
 24 81  1  0  0  0  0
 25 27  2  0  0  0  0
 25 80  1  0  0  0  0
 26 82  1  0  0  0  0
 27 83  1  0  0  0  0
 28 61  2  0  0  0  0
 29 33  1  0  0  0  0
 29 79  1  0  0  0  0
 30 62  1  0  0  0  0
 30 65  1  0  0  0  0
 31 67  1  0  0  0  0
 31 79  1  0  0  0  0
 32 66  1  0  0  0  0
 32 73  2  0  0  0  0
 33 68  1  0  0  0  0
 33 71  2  0  0  0  0
 34 49  1  0  0  0  0
 34 69  1  0  0  0  0
 34 74  2  0  0  0  0
 35 57  1  0  0  0  0
 35 63  1  0  0  0  0
 35 75  2  0  0  0  0
 36 58  1  0  0  0  0
 36 70  1  0  0  0  0
 36 76  2  0  0  0  0
 37 59  1  0  0  0  0
 37 68  1  0  0  0  0
 37 77  2  0  0  0  0
 38 64  1  0  0  0  0
 38 67  1  0  0  0  0
 38 78  2  0  0  0  0
 39 42  1  0  0  0  0
 40 49  1  0  0  0  0
 41 63  1  0  0  0  0
 42 44  1  0  0  0  0
 43 45  1  0  0  0  0
 43 46  1  0  0  0  0
 44 48  1  0  0  0  0
 45 50  1  0  0  0  0
 46 64  1  0  0  0  0
 47 50  1  0  0  0  0
 47 64  1  0  0  0  0
 48 69  1  0  0  0  0
 49 63  1  0  0  0  0
 50 62  1  0  0  0  0
 51 58  1  0  0  0  0
 52 59  1  0  0  0  0
 53 60  1  0  0  0  0
 54 60  1  0  0  0  0
 55 60  1  0  0  0  0
 56 72  1  0  0  0  0
 57 60  1  0  0  0  0
 57 70  1  0  0  0  0
 58 72  1  0  0  0  0
 59 81  1  0  0  0  0
 61 62  1  0  0  0  0
M  CHG  2  71   1  72   1
M  ISO  4  38 100  59 101  67 100  81 101
M  END
> <Batch ID>
0159

> <Smiles>
CNC(C)C(=O)NC(C(=O)N1Cc2cc([101O:1][101CH:1](C)C(=O)NC(=N)c3ccc([100NH:0][100C:0](=O)N4CCCC(n5nc(-c6ccc(Oc7ccc(F)cc7F)cc6)c(C(N)=O)c5N)C4)o3)ccc2CC1C(=O)NC1CCCc2ccccc21)C(C)(C)C

> <Shape>
0.273

> <Color>
0.084

> <Negative vol penalty>
0.000

$$$$

  -OEChem-04052303473D

 84 92  0     1  0  0  0  0  0999 V2000
  -19.3409  -15.9227   18.2747 C   0  0  0  0  0  0  0  0  0  0  0  0
  -20.2888  -16.9316   18.4130 C   0  0  0  0  0  0  0  0  0  0  0  0
  -17.0032  -25.0817   21.1372 C   0  0  0  0  0  0  0  0  0  0  0  0
  -18.9382  -23.6352   21.1600 C   0  0  0  0  0  0  0  0  0  0  0  0
  -19.5477  -14.6854   18.8832 C   0  0  0  0  0  0  0  0  0  0  0  0
  -21.4435  -16.7041   19.1608 C   0  0  0  0  0  0  0  0  0  0  0  0
  -27.0355  -18.9524   18.0744 C   0  0  0  0  0  0  0  0  0  0  0  0
  -16.2282  -24.0371   20.6336 C   0  0  0  0  0  0  0  0  0  0  0  0
  -18.1632  -22.5905   20.6565 C   0  0  0  0  0  0  0  0  0  0  0  0
  -27.7315  -20.0351   18.6101 C   0  0  0  0  0  0  0  0  0  0  0  0
  -16.6131  -19.4390   19.7166 C   0  0  0  0  0  0  0  0  0  0  0  0
  -16.7574  -18.1820   20.3037 C   0  0  0  0  0  0  0  0  0  0  0  0
  -28.7530  -27.2941   19.1149 C   0  0  0  0  0  0  0  0  0  0  0  0
  -28.8281  -18.5529   20.1657 C   0  0  0  0  0  0  0  0  0  0  0  0
  -16.0669  -19.0962   22.4308 C   0  0  0  0  0  0  0  0  0  0  0  0
  -28.2274  -28.5314   18.7796 C   0  0  0  0  0  0  0  0  0  0  0  0
  -18.3583  -24.8808   21.4003 C   0  0  0  0  0  0  0  0  0  0  0  0
  -19.3819  -26.2782   23.2731 C   0  0  0  0  0  0  0  0  0  0  0  0
  -20.7101  -14.4394   19.6307 C   0  0  0  0  0  0  0  0  0  0  0  0
  -27.2228  -17.6612   18.5884 C   0  0  0  0  0  0  0  0  0  0  0  0
  -21.6654  -15.4627   19.7809 C   0  0  0  0  0  0  0  0  0  0  0  0
  -28.1352  -17.4550   19.6330 C   0  0  0  0  0  0  0  0  0  0  0  0
  -27.8813  -26.3275   19.6041 C   0  0  0  0  0  0  0  0  0  0  0  0
  -26.5297  -26.6237   19.7410 C   0  0  0  0  0  0  0  0  0  0  0  0
  -16.8081  -22.7915   20.3933 C   0  0  0  0  0  0  0  0  0  0  0  0
  -28.6258  -19.8359   19.6578 C   0  0  0  0  0  0  0  0  0  0  0  0
  -16.1957  -20.5247   20.4866 C   0  0  0  0  0  0  0  0  0  0  0  0
  -16.4843  -18.0106   21.6608 C   0  0  0  0  0  0  0  0  0  0  0  0
  -15.9226  -20.3533   21.8437 C   0  0  0  0  0  0  0  0  0  0  0  0
  -19.1596  -25.9597   21.9200 C   0  0  0  0  0  0  0  0  0  0  0  0
  -26.1036  -27.8912   19.3779 C   0  0  0  0  0  0  0  0  0  0  0  0
  -20.2049  -27.3771   23.2365 C   0  0  0  0  0  0  0  0  0  0  0  0
  -18.8886  -25.6378   24.4573 C   0  0  0  0  0  0  0  0  0  0  0  0
  -29.8737  -23.2182   20.3264 C   0  0  0  0  0  0  0  0  0  0  0  0
  -29.7022  -24.6368   19.8659 C   0  0  0  0  0  0  0  0  0  0  0  0
  -25.3528  -15.5200   20.0104 C   0  0  0  0  0  0  0  0  0  0  0  0
  -27.9814  -13.6356   19.7617 C   0  0  0  0  0  0  0  0  0  0  0  0
  -31.3741  -13.4205   19.4620 C   0  0  0  0  0  0  0  0  0  0  0  0
  -24.1094  -29.4203   19.2010 C   0  0  0  0  0  0  0  0  0  0  0  0
  -20.8673  -13.1016   20.3092 C   0  0  0  0  0  0  0  0  0  0  0  0
  -26.4843  -16.4997   17.9817 C   0  0  0  0  0  0  0  0  0  0  0  0
  -28.3873  -16.0856   20.2070 C   0  0  0  0  0  0  0  0  0  0  0  0
  -22.2937  -12.8178   20.7731 C   0  0  0  0  0  0  0  0  0  0  0  0
  -21.2859  -31.1565   20.5012 C   0  0  0  0  0  0  0  0  0  0  0  0
  -22.8713  -14.0307   21.4957 C   0  0  0  0  0  0  0  0  0  0  0  0
  -20.4434  -30.0507   21.1410 C   0  0  0  0  0  0  0  0  0  0  0  0
  -21.9678  -30.6804   19.2197 C   0  0  0  0  0  0  0  0  0  0  0  0
  -21.9134  -28.3431   19.9963 C   0  0  0  0  0  0  0  0  0  0  0  0
  -22.9424  -15.2461   20.5635 C   0  0  1  0  0  0  0  0  0  0  0  0
  -26.3695  -15.3062   18.9249 C   0  0  1  0  0  0  0  0  0  0  0  0
  -21.2589  -28.7558   21.3249 C   0  0  2  0  0  0  0  0  0  0  0  0
  -33.2370  -11.7450   19.3219 C   0  0  0  0  0  0  0  0  0  0  0  0
  -27.7489  -13.1299   22.7618 C   0  0  0  0  0  0  0  0  0  0  0  0
  -30.1007  -12.2718   22.7288 C   0  0  0  0  0  0  0  0  0  0  0  0
  -28.3328  -11.1113   21.4058 C   0  0  0  0  0  0  0  0  0  0  0  0
  -32.1841  -14.3722   16.7792 C   0  0  0  0  0  0  0  0  0  0  0  0
  -29.0548  -22.1747   19.6123 C   0  0  0  0  0  0  0  0  0  1  0  0
  -29.1860  -13.3610   20.6293 C   0  0  1  0  0  0  0  0  0  0  0  0
  -32.2535  -12.5988   18.5368 C   0  0  2  0  0  0  0  0  0  0  0  0
  -28.8361  -12.4947   21.8721 C   0  0  0  0  0  0  0  0  0  0  0  0
  -26.9205  -28.8560   18.8988 N   0  0  0  0  0  0  0  0  0  0  0  0
  -19.7903  -26.7894   21.0847 N   0  0  0  0  0  0  0  0  0  0  0  0
  -20.4170  -27.6401   21.9151 N   0  0  0  0  0  0  0  0  0  0  0  0
  -27.6364  -14.9829   19.5842 N   0  0  0  0  0  0  0  0  0  0  0  0
  -22.7250  -29.4523   19.4712 N   0  0  0  0  0  0  0  0  0  0  0  0
  -25.6268  -25.6590   20.2342 N   0  0  0  0  0  0  0  0  0  0  0  0
  -20.7606  -28.1346   24.2060 N   0  0  0  0  0  0  0  0  0  0  0  0
  -18.0543  -24.5207   24.3146 N   0  0  0  0  0  0  0  0  0  0  0  0
  -28.3921  -25.0557   19.9535 N   0  0  0  0  0  0  0  0  0  0  0  0
  -24.7294  -28.2101   19.5101 N   0  0  0  0  0  0  0  0  0  0  0  0
  -24.0725  -15.1299   19.6669 N   0  0  0  0  0  0  0  0  0  0  0  0
  -30.1933  -12.7712   19.7542 N   0  0  0  0  0  0  0  0  0  0  0  0
  -33.0272  -13.4921   17.6288 N   0  3  0  0  0  0  0  0  0  0  0  0
  -19.1658  -26.0540   25.6077 O   0  0  0  0  0  0  0  0  0  0  0  0
  -30.6432  -23.0136   21.2530 O   0  0  0  0  0  0  0  0  0  0  0  0
  -30.7036  -25.2056   19.4638 O   0  0  0  0  0  0  0  0  0  0  0  0
  -25.7042  -16.0017   21.0810 O   0  0  0  0  0  0  0  0  0  0  0  0
  -27.3734  -12.6898   19.2543 O   0  0  0  0  0  0  0  0  0  0  0  0
  -31.7035  -14.5260   19.8861 O   0  0  0  0  0  0  0  0  0  0  0  0
  -24.7066  -30.4036   18.7554 O   0  0  0  0  0  0  0  0  0  0  0  0
  -16.0521  -21.7718   19.9021 O   0  0  0  0  0  0  0  0  0  0  0  0
  -29.3060  -20.8911   20.1830 O   0  0  0  0  0  0  0  0  0  1  0  0
  -16.6215  -16.8031   22.2241 F   0  0  0  0  0  0  0  0  0  0  0  0
  -15.5202  -21.3922   22.5883 F   0  0  0  0  0  0  0  0  0  0  0  0
  1  2  1  0  0  0  0
  1  5  2  0  0  0  0
  2  6  2  0  0  0  0
  3  8  2  0  0  0  0
  3 17  1  0  0  0  0
  4  9  1  0  0  0  0
  4 17  2  0  0  0  0
  5 19  1  0  0  0  0
  6 21  1  0  0  0  0
  7 10  2  0  0  0  0
  7 20  1  0  0  0  0
  8 25  1  0  0  0  0
  9 25  2  0  0  0  0
 10 26  1  0  0  0  0
 11 12  2  0  0  0  0
 11 27  1  0  0  0  0
 12 28  1  0  0  0  0
 13 16  2  0  0  0  0
 13 23  1  0  0  0  0
 14 22  1  0  0  0  0
 14 26  2  0  0  0  0
 15 28  2  0  0  0  0
 15 29  1  0  0  0  0
 16 61  1  0  0  0  0
 17 30  1  0  0  0  0
 18 30  1  0  0  0  0
 18 32  2  0  0  0  0
 18 33  1  0  0  0  0
 19 21  2  0  0  0  0
 19 40  1  0  0  0  0
 20 22  2  0  0  0  0
 20 41  1  0  0  0  0
 21 49  1  0  0  0  0
 22 42  1  0  0  0  0
 23 24  2  0  0  0  0
 23 69  1  0  0  0  0
 24 31  1  0  0  0  0
 24 66  1  0  0  0  0
 25 81  1  0  0  0  0
 26 82  1  0  0  0  0
 27 29  2  0  0  0  0
 27 81  1  0  0  0  0
 28 83  1  0  0  0  0
 29 84  1  0  0  0  0
 30 62  2  0  0  0  0
 31 61  2  0  0  0  0
 31 70  1  0  0  0  0
 32 63  1  0  0  0  0
 32 67  1  0  0  0  0
 33 68  1  0  0  0  0
 33 74  2  0  0  0  0
 34 35  1  0  0  0  0
 34 57  1  0  0  0  0
 34 75  2  0  0  0  0
 35 69  1  0  0  0  0
 35 76  2  0  0  0  0
 36 50  1  0  0  0  0
 36 71  1  0  0  0  0
 36 77  2  0  0  0  0
 37 58  1  0  0  0  0
 37 64  1  0  0  0  0
 37 78  2  0  0  0  0
 38 59  1  0  0  0  0
 38 72  1  0  0  0  0
 38 79  2  0  0  0  0
 39 65  1  0  0  0  0
 39 70  1  0  0  0  0
 39 80  2  0  0  0  0
 40 43  1  0  0  0  0
 41 50  1  0  0  0  0
 42 64  1  0  0  0  0
 43 45  1  0  0  0  0
 44 46  1  0  0  0  0
 44 47  1  0  0  0  0
 45 49  1  0  0  0  0
 46 51  1  0  0  0  0
 47 65  1  0  0  0  0
 48 51  1  0  0  0  0
 48 65  1  0  0  0  0
 49 71  1  0  0  0  0
 50 64  1  0  0  0  0
 51 63  1  0  0  0  0
 52 59  1  0  0  0  0
 53 60  1  0  0  0  0
 54 60  1  0  0  0  0
 55 60  1  0  0  0  0
 56 73  1  0  0  0  0
 57 82  1  0  0  0  0
 58 60  1  0  0  0  0
 58 72  1  0  0  0  0
 59 73  1  0  0  0  0
 62 63  1  0  0  0  0
M  CHG  1  73   1
M  ISO  4  39 100  57 101  70 100  82 101
M  END
> <Batch ID>
0159

> <Smiles>
CNC(C)C(=O)NC(C(=O)N1Cc2cc([101O:1][101CH2:1]C(=O)C(=O)Nc3ccnc([100NH:0][100C:0](=O)N4CCCC(n5nc(-c6ccc(Oc7ccc(F)cc7F)cc6)c(C(N)=O)c5N)C4)c3N)ccc2CC1C(=O)NC1CCCc2ccccc21)C(C)(C)C

> <Shape>
0.238

> <Color>
0.062

> <Negative vol penalty>
0.000

$$$$

  -OEChem-04052303473D

 85 93  0     1  0  0  0  0  0999 V2000
  -29.8615  -35.3915   19.3441 C   0  0  0  0  0  0  0  0  0  0  0  0
  -29.8565  -34.0389   19.6696 C   0  0  0  0  0  0  0  0  0  0  0  0
  -23.6828  -16.6355   20.8357 C   0  0  0  0  0  0  0  0  0  0  0  0
  -23.0377  -15.1897   19.0107 C   0  0  0  0  0  0  0  0  0  0  0  0
  -28.9148  -36.2463   19.9071 C   0  0  0  0  0  0  0  0  0  0  0  0
  -28.9054  -33.5406   20.5592 C   0  0  0  0  0  0  0  0  0  0  0  0
  -26.8347  -29.2041   18.9615 C   0  0  0  0  0  0  0  0  0  0  0  0
  -22.8114  -17.6178   20.3656 C   0  0  0  0  0  0  0  0  0  0  0  0
  -22.1661  -16.1720   18.5406 C   0  0  0  0  0  0  0  0  0  0  0  0
  -27.5864  -28.0414   19.1251 C   0  0  0  0  0  0  0  0  0  0  0  0
  -21.0218  -20.6453   19.4406 C   0  0  0  0  0  0  0  0  0  0  0  0
  -21.4886  -21.9588   19.3913 C   0  0  0  0  0  0  0  0  0  0  0  0
  -26.3048  -27.4973   21.0950 C   0  0  0  0  0  0  0  0  0  0  0  0
  -23.2463  -21.2774   17.8803 C   0  0  0  0  0  0  0  0  0  0  0  0
  -29.3257  -19.3985   17.6506 C   0  0  0  0  0  0  0  0  0  0  0  0
  -23.7961  -15.4214   20.1582 C   0  0  0  0  0  0  0  0  0  0  0  0
  -24.4049  -13.3788   21.5599 C   0  0  0  0  0  0  0  0  0  0  0  0
  -27.9456  -35.7564   20.7966 C   0  0  0  0  0  0  0  0  0  0  0  0
  -25.8180  -29.5283   19.8712 C   0  0  0  0  0  0  0  0  0  0  0  0
  -27.9457  -34.3899   21.1357 C   0  0  0  0  0  0  0  0  0  0  0  0
  -25.5400  -28.6634   20.9393 C   0  0  0  0  0  0  0  0  0  0  0  0
  -22.0529  -17.3861   19.2181 C   0  0  0  0  0  0  0  0  0  0  0  0
  -27.3234  -27.1892   20.1936 C   0  0  0  0  0  0  0  0  0  0  0  0
  -21.6673  -19.6478   18.7098 C   0  0  0  0  0  0  0  0  0  0  0  0
  -22.6008  -22.2749   18.6111 C   0  0  0  0  0  0  0  0  0  0  0  0
  -22.7796  -19.9639   17.9296 C   0  0  0  0  0  0  0  0  0  0  0  0
  -24.6966  -14.4064   20.6430 C   0  0  0  0  0  0  0  0  0  0  0  0
  -28.4874  -18.4369   17.0604 C   0  0  0  0  0  0  0  0  0  0  0  0
  -25.5852  -12.6883   21.6886 C   0  0  0  0  0  0  0  0  0  0  0  0
  -28.4584  -20.3695   18.0760 C   0  0  0  0  0  0  0  0  0  0  0  0
  -27.6121  -24.9101   19.7540 C   0  0  0  0  0  0  0  0  0  1  0  0
  -23.1769  -13.0755   22.2350 C   0  0  0  0  0  0  0  0  0  0  0  0
  -28.9116  -17.1744   16.4379 C   0  0  0  0  0  0  0  0  0  0  0  0
  -28.2384  -23.7315   19.8356 C   0  0  0  0  0  0  0  0  0  0  0  0
  -27.6979  -22.5170   19.1445 C   0  0  0  0  0  0  0  0  0  0  0  0
  -25.2925  -31.9300   21.8859 C   0  0  0  0  0  0  0  0  0  0  0  0
  -22.4410  -30.4414   22.3042 C   0  0  0  0  0  0  0  0  0  0  0  0
  -20.6285  -27.5544   22.1412 C   0  0  0  0  0  0  0  0  0  0  0  0
  -28.7501  -15.8331   18.5614 C   0  0  0  0  0  0  0  0  0  0  0  0
  -26.9722  -36.7275   21.4163 C   0  0  0  0  0  0  0  0  0  0  0  0
  -24.9985  -30.7727   19.6655 C   0  0  0  0  0  0  0  0  0  0  0  0
  -24.4458  -28.9556   21.9321 C   0  0  0  0  0  0  0  0  0  0  0  0
  -25.7645  -36.0517   22.0606 C   0  0  0  0  0  0  0  0  0  0  0  0
  -29.3820  -12.0603   18.7654 C   0  0  0  0  0  0  0  0  0  0  0  0
  -26.2084  -34.8742   22.9226 C   0  0  0  0  0  0  0  0  0  0  0  0
  -28.0883  -11.8790   19.5509 C   0  0  0  0  0  0  0  0  0  0  0  0
  -29.4110  -13.4348   18.1019 C   0  0  0  0  0  0  0  0  0  0  0  0
  -28.8196  -14.1937   20.4040 C   0  0  0  0  0  0  0  0  0  0  0  0
  -26.9145  -33.8071   22.0776 C   0  0  1  0  0  0  0  0  0  0  0  0
  -24.3285  -31.2650   20.9446 C   0  0  1  0  0  0  0  0  0  0  0  0
  -27.9348  -12.9540   20.6466 C   0  0  1  0  0  0  0  0  0  0  0  0
  -18.3328  -26.6421   22.5828 C   0  0  0  0  0  0  0  0  0  0  0  0
  -23.0126  -30.4604   25.3014 C   0  0  0  0  0  0  0  0  0  0  0  0
  -21.2127  -28.7433   25.5849 C   0  0  0  0  0  0  0  0  0  0  0  0
  -20.6495  -31.0013   24.6866 C   0  0  0  0  0  0  0  0  0  0  0  0
  -29.5871  -16.0955   14.3110 C   0  0  0  0  0  0  0  0  0  0  0  0
  -20.2630  -26.7843   19.3071 C   0  0  0  0  0  0  0  0  0  0  0  0
  -21.9201  -29.3701   23.2316 C   0  0  1  0  0  0  0  0  0  0  0  0
  -19.2640  -27.2538   21.5477 C   0  0  2  0  0  0  0  0  0  0  0  0
  -21.7207  -29.8890   24.6837 C   0  0  0  0  0  0  0  0  0  0  0  0
  -25.9629  -14.3753   20.2193 N   0  0  0  0  0  0  0  0  0  0  0  0
  -27.1988  -18.7850   17.1155 N   0  0  0  0  0  0  0  0  0  0  0  0
  -26.4774  -13.3199   20.8730 N   0  0  0  0  0  0  0  0  0  0  0  0
  -23.6765  -30.1877   21.6919 N   0  0  0  0  0  0  0  0  0  0  0  0
  -28.9702  -14.5198   18.9858 N   0  0  0  0  0  0  0  0  0  0  0  0
  -25.9366  -11.6086   22.4188 N   0  0  0  0  0  0  0  0  0  0  0  0
  -22.0608  -13.8865   21.9880 N   0  0  0  0  0  0  0  0  0  0  0  0
  -28.6645  -21.6024   18.7469 N   0  0  0  0  0  0  0  0  0  0  0  0
  -29.0132  -16.0408   17.1496 N   0  0  0  0  0  0  0  0  0  0  0  0
  -25.9458  -33.0206   21.3443 N   0  0  0  0  0  0  0  0  0  0  0  0
  -20.7070  -28.8481   22.6118 N   0  0  0  0  0  0  0  0  0  0  0  0
  -29.1623  -17.2392   15.1222 N   0  3  0  0  0  0  0  0  0  0  0  0
  -29.4377  -23.6260   20.5760 N   0  3  0  0  0  0  0  0  0  0  0  0
  -19.3928  -26.3004   20.4096 N   0  3  0  0  0  0  0  0  0  0  0  0
  -23.0768  -12.1238   23.0459 O   0  0  0  0  0  0  0  0  0  0  0  0
  -26.4841  -22.4076   18.9841 O   0  0  0  0  0  0  0  0  0  0  0  0
  -25.4321  -31.4874   23.0200 O   0  0  0  0  0  0  0  0  0  0  0  0
  -21.7727  -31.4625   22.1240 O   0  0  0  0  0  0  0  0  0  0  0  0
  -21.5328  -26.7234   22.1865 O   0  0  0  0  0  0  0  0  0  0  0  0
  -28.3825  -16.7600   19.2738 O   0  0  0  0  0  0  0  0  0  0  0  0
  -27.1860  -20.0149   17.7624 O   0  0  0  0  0  0  0  0  0  0  0  0
  -21.2022  -18.3444   18.7592 O   0  0  0  0  0  0  0  0  0  0  0  0
  -28.0561  -26.0540   20.3560 O   0  0  0  0  0  0  0  0  0  1  0  0
  -23.0480  -23.5366   18.5627 F   0  0  0  0  0  0  0  0  0  0  0  0
  -23.4031  -19.0101   17.2244 F   0  0  0  0  0  0  0  0  0  0  0  0
  1  2  1  0  0  0  0
  1  5  2  0  0  0  0
  2  6  2  0  0  0  0
  3  8  2  0  0  0  0
  3 16  1  0  0  0  0
  4  9  1  0  0  0  0
  4 16  2  0  0  0  0
  5 18  1  0  0  0  0
  6 20  1  0  0  0  0
  7 10  2  0  0  0  0
  7 19  1  0  0  0  0
  8 22  1  0  0  0  0
  9 22  2  0  0  0  0
 10 23  1  0  0  0  0
 11 12  2  0  0  0  0
 11 24  1  0  0  0  0
 12 25  1  0  0  0  0
 13 21  1  0  0  0  0
 13 23  2  0  0  0  0
 14 25  2  0  0  0  0
 14 26  1  0  0  0  0
 15 28  1  0  0  0  0
 15 30  2  0  0  0  0
 16 27  1  0  0  0  0
 17 27  1  0  0  0  0
 17 29  2  0  0  0  0
 17 32  1  0  0  0  0
 18 20  2  0  0  0  0
 18 40  1  0  0  0  0
 19 21  2  0  0  0  0
 19 41  1  0  0  0  0
 20 49  1  0  0  0  0
 21 42  1  0  0  0  0
 22 82  1  0  0  0  0
 23 83  1  0  0  0  0
 24 26  2  0  0  0  0
 24 82  1  0  0  0  0
 25 84  1  0  0  0  0
 26 85  1  0  0  0  0
 27 61  2  0  0  0  0
 28 33  1  0  0  0  0
 28 62  2  0  0  0  0
 29 63  1  0  0  0  0
 29 66  1  0  0  0  0
 30 68  1  0  0  0  0
 30 81  1  0  0  0  0
 31 34  2  0  0  0  0
 31 83  1  0  0  0  0
 32 67  1  0  0  0  0
 32 75  2  0  0  0  0
 33 69  1  0  0  0  0
 33 72  2  0  0  0  0
 34 35  1  0  0  0  0
 34 73  1  0  0  0  0
 35 68  1  0  0  0  0
 35 76  2  0  0  0  0
 36 50  1  0  0  0  0
 36 70  1  0  0  0  0
 36 77  2  0  0  0  0
 37 58  1  0  0  0  0
 37 64  1  0  0  0  0
 37 78  2  0  0  0  0
 38 59  1  0  0  0  0
 38 71  1  0  0  0  0
 38 79  2  0  0  0  0
 39 65  1  0  0  0  0
 39 69  1  0  0  0  0
 39 80  2  0  0  0  0
 40 43  1  0  0  0  0
 41 50  1  0  0  0  0
 42 64  1  0  0  0  0
 43 45  1  0  0  0  0
 44 46  1  0  0  0  0
 44 47  1  0  0  0  0
 45 49  1  0  0  0  0
 46 51  1  0  0  0  0
 47 65  1  0  0  0  0
 48 51  1  0  0  0  0
 48 65  1  0  0  0  0
 49 70  1  0  0  0  0
 50 64  1  0  0  0  0
 51 63  1  0  0  0  0
 52 59  1  0  0  0  0
 53 60  1  0  0  0  0
 54 60  1  0  0  0  0
 55 60  1  0  0  0  0
 56 72  1  0  0  0  0
 57 74  1  0  0  0  0
 58 60  1  0  0  0  0
 58 71  1  0  0  0  0
 59 74  1  0  0  0  0
 61 63  1  0  0  0  0
 62 81  1  0  0  0  0
M  CHG  3  72   1  73   1  74   1
M  ISO  4  31 101  39 100  69 100  83 101
M  END
> <Batch ID>
0159

> <Smiles>
CN=C([100NH:0][100C:0](=O)N1CCCC(n2nc(-c3ccc(Oc4ccc(F)cc4F)cc3)c(C(N)=O)c2N)C1)c1cc(NC(=O)C(=N)[101CH2:1][101O:1]c2ccc3c(c2)CN(C(=O)C(NC(=O)C(C)NC)C(C)(C)C)C(C(=O)NC2CCCc4ccccc42)C3)on1

> <Shape>
0.242

> <Color>
0.080

> <Negative vol penalty>
0.000

$$$$

  -OEChem-04052303473D

 85 93  0     1  0  0  0  0  0999 V2000
  -23.4387  -23.8930   18.7063 C   0  0  0  0  0  0  0  0  0  0  0  0
  -24.5458  -23.1599   19.1213 C   0  0  0  0  0  0  0  0  0  0  0  0
  -21.6413  -29.3051   21.5574 C   0  0  0  0  0  0  0  0  0  0  0  0
  -22.8504  -28.8184   23.5916 C   0  0  0  0  0  0  0  0  0  0  0  0
  -22.1550  -23.4666   19.0445 C   0  0  0  0  0  0  0  0  0  0  0  0
  -24.3699  -22.0004   19.8757 C   0  0  0  0  0  0  0  0  0  0  0  0
  -27.2779  -18.1781   18.2701 C   0  0  0  0  0  0  0  0  0  0  0  0
  -20.4382  -29.0262   22.2057 C   0  0  0  0  0  0  0  0  0  0  0  0
  -21.6473  -28.5395   24.2400 C   0  0  0  0  0  0  0  0  0  0  0  0
  -28.6229  -18.2038   18.6366 C   0  0  0  0  0  0  0  0  0  0  0  0
  -18.3463  -30.5878   24.3547 C   0  0  0  0  0  0  0  0  0  0  0  0
  -17.2856  -31.4727   24.1615 C   0  0  0  0  0  0  0  0  0  0  0  0
  -28.1656  -16.6258   20.4029 C   0  0  0  0  0  0  0  0  0  0  0  0
  -30.8764  -22.4788   21.9499 C   0  0  0  0  0  0  0  0  0  0  0  0
  -15.9591  -29.6797   23.2327 C   0  0  0  0  0  0  0  0  0  0  0  0
  -22.8474  -29.2011   22.2503 C   0  0  0  0  0  0  0  0  0  0  0  0
  -24.7405  -30.7342   21.4930 C   0  0  0  0  0  0  0  0  0  0  0  0
  -21.9629  -22.2961   19.7953 C   0  0  0  0  0  0  0  0  0  0  0  0
  -26.3632  -17.3830   18.9755 C   0  0  0  0  0  0  0  0  0  0  0  0
  -23.0825  -21.5587   20.2255 C   0  0  0  0  0  0  0  0  0  0  0  0
  -26.8101  -16.5898   20.0419 C   0  0  0  0  0  0  0  0  0  0  0  0
  -30.1641  -23.6386   22.3717 C   0  0  0  0  0  0  0  0  0  0  0  0
  -20.4412  -28.6434   23.5470 C   0  0  0  0  0  0  0  0  0  0  0  0
  -29.0664  -17.4299   19.7049 C   0  0  0  0  0  0  0  0  0  0  0  0
  -18.2135  -29.2489   23.9868 C   0  0  0  0  0  0  0  0  0  0  0  0
  -16.0919  -31.0186   23.6005 C   0  0  0  0  0  0  0  0  0  0  0  0
  -17.0199  -28.7948   23.4258 C   0  0  0  0  0  0  0  0  0  0  0  0
  -24.0906  -29.4886   21.5810 C   0  0  0  0  0  0  0  0  0  0  0  0
  -29.1859  -23.3381   23.2938 C   0  0  0  0  0  0  0  0  0  0  0  0
  -25.8735  -30.4793   20.7596 C   0  0  0  0  0  0  0  0  0  0  0  0
  -30.4154  -21.3361   22.5660 C   0  0  0  0  0  0  0  0  0  0  0  0
  -24.3546  -32.0078   22.0266 C   0  0  0  0  0  0  0  0  0  0  0  0
  -28.2659  -24.2098   23.9521 C   0  0  0  0  0  0  0  0  0  0  0  0
  -23.7568  -17.9572   20.7020 C   0  0  0  0  0  0  0  0  0  0  0  0
  -23.5496  -14.7203   20.7508 C   0  0  0  0  0  0  0  0  0  0  0  0
  -31.8414  -19.4798   21.6363 C   0  0  0  0  0  0  0  0  0  0  0  0
  -25.1395  -11.7113   20.4969 C   0  0  0  0  0  0  0  0  0  0  0  0
  -29.1116  -25.5262   19.8472 C   0  0  0  0  0  0  0  0  0  0  0  0
  -20.5583  -21.9008   20.1768 C   0  0  0  0  0  0  0  0  0  0  0  0
  -24.9207  -17.3459   18.5508 C   0  0  0  0  0  0  0  0  0  0  0  0
  -25.8721  -15.7037   20.8186 C   0  0  0  0  0  0  0  0  0  0  0  0
  -20.4419  -20.4575   20.6602 C   0  0  0  0  0  0  0  0  0  0  0  0
  -27.5597  -27.5563   17.3679 C   0  0  0  0  0  0  0  0  0  0  0  0
  -21.5454  -20.1402   21.6644 C   0  0  0  0  0  0  0  0  0  0  0  0
  -26.5533  -28.3941   18.1586 C   0  0  0  0  0  0  0  0  0  0  0  0
  -27.6749  -26.1390   17.9245 C   0  0  0  0  0  0  0  0  0  0  0  0
  -26.9640  -26.9002   20.1581 C   0  0  0  0  0  0  0  0  0  0  0  0
  -22.9315  -20.2822   21.0242 C   0  0  1  0  0  0  0  0  0  0  0  0
  -23.9814  -16.8936   19.6646 C   0  0  1  0  0  0  0  0  0  0  0  0
  -26.8545  -28.3545   19.6689 C   0  0  2  0  0  0  0  0  0  0  0  0
  -26.9142  -23.6596   24.3528 C   0  0  0  0  0  0  0  0  0  0  0  0
  -24.7129   -9.2414   20.6191 C   0  0  0  0  0  0  0  0  0  0  0  0
  -23.3851  -14.9017   23.7922 C   0  0  0  0  0  0  0  0  0  0  0  0
  -23.9164  -12.4573   23.8971 C   0  0  0  0  0  0  0  0  0  0  0  0
  -21.8349  -13.2318   22.7614 C   0  0  0  0  0  0  0  0  0  0  0  0
  -26.0253  -11.3026   17.7028 C   0  0  0  0  0  0  0  0  0  0  0  0
  -30.4536  -25.0032   21.8683 C   0  0  0  0  0  0  0  0  0  0  0  0
  -31.9550  -17.9694   21.8090 C   0  0  0  0  0  0  0  0  0  0  0  0
  -30.6783  -17.2283   21.4419 C   0  0  0  0  0  0  0  0  0  1  0  0
  -24.0725  -13.6291   21.6535 C   0  0  1  0  0  0  0  0  0  0  0  0
  -24.8029  -10.4574   19.7103 C   0  0  2  0  0  0  0  0  0  0  0  0
  -23.3198  -13.5731   23.0128 C   0  0  0  0  0  0  0  0  0  0  0  0
  -24.7553  -28.5147   20.9535 N   0  0  0  0  0  0  0  0  0  0  0  0
  -25.8347  -29.1484   20.4641 N   0  0  0  0  0  0  0  0  0  0  0  0
  -24.4702  -15.7066   20.3690 N   0  0  0  0  0  0  0  0  0  0  0  0
  -27.9628  -26.1716   19.3604 N   0  0  0  0  0  0  0  0  0  0  0  0
  -26.8892  -31.2661   20.3450 N   0  0  0  0  0  0  0  0  0  0  0  0
  -23.1607  -32.0928   22.7556 N   0  0  0  0  0  0  0  0  0  0  0  0
  -30.8277  -19.9878   22.4442 N   0  0  0  0  0  0  0  0  0  0  0  0
  -23.2277  -19.1306   20.1993 N   0  0  0  0  0  0  0  0  0  0  0  0
  -24.0044  -12.3931   20.8814 N   0  0  0  0  0  0  0  0  0  0  0  0
  -29.3132  -25.6110   21.2194 N   0  0  0  0  0  0  0  0  0  0  0  0
  -25.8467  -10.1971   18.6789 N   0  3  0  0  0  0  0  0  0  0  0  0
  -25.0397  -33.0433   21.8477 O   0  0  0  0  0  0  0  0  0  0  0  0
  -28.4660  -25.4092   24.2331 O   0  0  0  0  0  0  0  0  0  0  0  0
  -24.0410  -17.7295   21.8721 O   0  0  0  0  0  0  0  0  0  0  0  0
  -22.3698  -14.6946   20.3918 O   0  0  0  0  0  0  0  0  0  0  0  0
  -32.5706  -20.1063   20.8747 O   0  0  0  0  0  0  0  0  0  0  0  0
  -26.2939  -12.0499   20.7486 O   0  0  0  0  0  0  0  0  0  0  0  0
  -29.9019  -24.9239   19.1127 O   0  0  0  0  0  0  0  0  0  0  0  0
  -19.2673  -28.3714   24.1800 O   0  0  0  0  0  0  0  0  0  0  0  0
  -30.3785  -17.4536   20.0650 O   0  0  0  0  0  0  0  0  0  1  0  0
  -15.0728  -31.8681   23.4165 F   0  0  0  0  0  0  0  0  0  0  0  0
  -16.8860  -27.5094   23.0715 F   0  0  0  0  0  0  0  0  0  0  0  0
  -29.1290  -21.6637   23.6477 S   0  0  0  0  0  0  0  0  0  0  0  0
  1  2  1  0  0  0  0
  1  5  2  0  0  0  0
  2  6  2  0  0  0  0
  3  8  2  0  0  0  0
  3 16  1  0  0  0  0
  4  9  1  0  0  0  0
  4 16  2  0  0  0  0
  5 18  1  0  0  0  0
  6 20  1  0  0  0  0
  7 10  2  0  0  0  0
  7 19  1  0  0  0  0
  8 23  1  0  0  0  0
  9 23  2  0  0  0  0
 10 24  1  0  0  0  0
 11 12  2  0  0  0  0
 11 25  1  0  0  0  0
 12 26  1  0  0  0  0
 13 21  1  0  0  0  0
 13 24  2  0  0  0  0
 14 22  1  0  0  0  0
 14 31  2  0  0  0  0
 15 26  2  0  0  0  0
 15 27  1  0  0  0  0
 16 28  1  0  0  0  0
 17 28  1  0  0  0  0
 17 30  2  0  0  0  0
 17 32  1  0  0  0  0
 18 20  2  0  0  0  0
 18 39  1  0  0  0  0
 19 21  2  0  0  0  0
 19 40  1  0  0  0  0
 20 48  1  0  0  0  0
 21 41  1  0  0  0  0
 22 29  2  0  0  0  0
 22 57  1  0  0  0  0
 23 81  1  0  0  0  0
 24 82  1  0  0  0  0
 25 27  2  0  0  0  0
 25 81  1  0  0  0  0
 26 83  1  0  0  0  0
 27 84  1  0  0  0  0
 28 63  2  0  0  0  0
 29 33  1  0  0  0  0
 29 85  1  0  0  0  0
 30 64  1  0  0  0  0
 30 67  1  0  0  0  0
 31 69  1  0  0  0  0
 31 85  1  0  0  0  0
 32 68  1  0  0  0  0
 32 74  2  0  0  0  0
 33 51  1  0  0  0  0
 33 75  2  0  0  0  0
 34 49  1  0  0  0  0
 34 70  1  0  0  0  0
 34 76  2  0  0  0  0
 35 60  1  0  0  0  0
 35 65  1  0  0  0  0
 35 77  2  0  0  0  0
 36 58  1  0  0  0  0
 36 69  1  0  0  0  0
 36 78  2  0  0  0  0
 37 61  1  0  0  0  0
 37 71  1  0  0  0  0
 37 79  2  0  0  0  0
 38 66  1  0  0  0  0
 38 72  1  0  0  0  0
 38 80  2  0  0  0  0
 39 42  1  0  0  0  0
 40 49  1  0  0  0  0
 41 65  1  0  0  0  0
 42 44  1  0  0  0  0
 43 45  1  0  0  0  0
 43 46  1  0  0  0  0
 44 48  1  0  0  0  0
 45 50  1  0  0  0  0
 46 66  1  0  0  0  0
 47 50  1  0  0  0  0
 47 66  1  0  0  0  0
 48 70  1  0  0  0  0
 49 65  1  0  0  0  0
 50 64  1  0  0  0  0
 52 61  1  0  0  0  0
 53 62  1  0  0  0  0
 54 62  1  0  0  0  0
 55 62  1  0  0  0  0
 56 73  1  0  0  0  0
 57 72  1  0  0  0  0
 58 59  1  0  0  0  0
 59 82  1  0  0  0  0
 60 62  1  0  0  0  0
 60 71  1  0  0  0  0
 61 73  1  0  0  0  0
 63 64  1  0  0  0  0
M  CHG  1  73   1
M  ISO  4  38 100  59 101  72 100  82 101
M  END
> <Batch ID>
0159

> <Smiles>
CNC(C)C(=O)NC(C(=O)N1Cc2cc([101O:1][101CH2:1]CC(=O)Nc3cc(C[100NH:0][100C:0](=O)N4CCCC(n5nc(-c6ccc(Oc7ccc(F)cc7F)cc6)c(C(N)=O)c5N)C4)c(C(C)=O)s3)ccc2CC1C(=O)NC1CCCc2ccccc21)C(C)(C)C

> <Shape>
0.237

> <Color>
0.077

> <Negative vol penalty>
0.000

$$$$

  -OEChem-04052303473D

 85 94  0     1  0  0  0  0  0999 V2000
  -29.7555  -31.3622   26.0180 C   0  0  0  0  0  0  0  0  0  0  0  0
  -28.9969  -30.3180   25.4989 C   0  0  0  0  0  0  0  0  0  0  0  0
  -26.0230  -13.5057   21.4158 C   0  0  0  0  0  0  0  0  0  0  0  0
  -26.2292  -12.0488   19.4995 C   0  0  0  0  0  0  0  0  0  0  0  0
  -29.2246  -32.6505   26.0674 C   0  0  0  0  0  0  0  0  0  0  0  0
  -27.7064  -30.5613   25.0299 C   0  0  0  0  0  0  0  0  0  0  0  0
  -26.7946  -28.3017   20.5905 C   0  0  0  0  0  0  0  0  0  0  0  0
  -24.7981  -12.9177   21.7311 C   0  0  0  0  0  0  0  0  0  0  0  0
  -25.0043  -11.4607   19.8149 C   0  0  0  0  0  0  0  0  0  0  0  0
  -26.5199  -26.9351   20.6162 C   0  0  0  0  0  0  0  0  0  0  0  0
  -23.8357   -9.1618   21.9990 C   0  0  0  0  0  0  0  0  0  0  0  0
  -23.7542   -7.7703   21.9472 C   0  0  0  0  0  0  0  0  0  0  0  0
  -24.1619  -27.4119   20.4376 C   0  0  0  0  0  0  0  0  0  0  0  0
  -22.0232   -7.9343   20.2697 C   0  0  0  0  0  0  0  0  0  0  0  0
  -26.7385  -13.0713   20.2999 C   0  0  0  0  0  0  0  0  0  0  0  0
  -29.2785  -13.2776   20.4153 C   0  0  0  0  0  0  0  0  0  0  0  0
  -27.9306  -32.9115   25.5899 C   0  0  0  0  0  0  0  0  0  0  0  0
  -25.7526  -29.2356   20.4990 C   0  0  0  0  0  0  0  0  0  0  0  0
  -27.1572  -31.8540   25.0742 C   0  0  0  0  0  0  0  0  0  0  0  0
  -24.4263  -28.7897   20.4083 C   0  0  0  0  0  0  0  0  0  0  0  0
  -24.2888  -11.8951   20.9307 C   0  0  0  0  0  0  0  0  0  0  0  0
  -25.2032  -26.4901   20.5427 C   0  0  0  0  0  0  0  0  0  0  0  0
  -23.0110   -9.9396   21.1862 C   0  0  0  0  0  0  0  0  0  0  0  0
  -22.8480   -7.1565   21.0825 C   0  0  0  0  0  0  0  0  0  0  0  0
  -22.1048   -9.3258   20.3216 C   0  0  0  0  0  0  0  0  0  0  0  0
  -28.0036  -13.6788   19.9733 C   0  0  0  0  0  0  0  0  0  0  0  0
  -30.1419  -14.1701   19.8285 C   0  0  0  0  0  0  0  0  0  0  0  0
  -23.8371  -23.0294   17.0228 C   0  0  0  0  0  0  0  0  0  0  0  0
  -29.6493  -12.1948   21.2789 C   0  0  0  0  0  0  0  0  0  0  0  0
  -24.6713  -31.5792   22.3544 C   0  0  0  0  0  0  0  0  0  0  0  0
  -22.7405  -32.1714   19.8160 C   0  0  0  0  0  0  0  0  0  0  0  0
  -21.1988  -30.9887   17.0104 C   0  0  0  0  0  0  0  0  0  0  0  0
  -29.6304  -19.6969   17.8787 C   0  0  0  0  0  0  0  0  0  0  0  0
  -27.3820  -34.3115   25.7076 C   0  0  0  0  0  0  0  0  0  0  0  0
  -26.0674  -30.7055   20.4455 C   0  0  0  0  0  0  0  0  0  0  0  0
  -23.2729  -29.7509   20.2884 C   0  0  0  0  0  0  0  0  0  0  0  0
  -22.4514  -22.8543   17.5943 C   0  0  0  0  0  0  0  0  0  0  0  0
  -26.1462  -34.5559   24.8455 C   0  0  0  0  0  0  0  0  0  0  0  0
  -22.7093  -22.5608   19.0693 C   0  0  0  0  0  0  0  0  0  0  0  0
  -30.6142  -16.9640   15.9830 C   0  0  0  0  0  0  0  0  0  0  0  0
  -25.1520  -33.4094   25.0004 C   0  0  0  0  0  0  0  0  0  0  0  0
  -30.1816  -15.7625   16.8224 C   0  0  0  0  0  0  0  0  0  0  0  0
  -28.4057  -22.7176   18.6690 C   0  0  0  0  0  0  0  0  0  0  0  0
  -26.5298  -21.0530   18.3231 C   0  0  0  0  0  0  0  0  0  0  0  0
  -29.5587  -18.0628   16.0205 C   0  0  0  0  0  0  0  0  0  0  0  0
  -29.2006  -21.6156   19.3648 C   0  0  0  0  0  0  0  0  0  0  0  0
  -28.7883  -17.3363   18.2551 C   0  0  0  0  0  0  0  0  0  0  0  0
  -25.7627  -32.0827   24.5330 C   0  0  1  0  0  0  0  0  0  0  0  0
  -24.8938  -31.5837   20.8684 C   0  0  1  0  0  0  0  0  0  0  0  0
  -26.8932  -22.4759   18.7824 C   0  0  2  0  0  0  0  0  0  0  0  0
  -29.8230  -16.1929   18.2554 C   0  0  1  0  0  0  0  0  0  0  0  0
  -24.0150  -23.2877   19.3763 C   0  0  2  0  0  0  0  0  0  0  0  0
  -27.3755  -19.9625   19.0124 C   0  0  2  0  0  0  0  0  0  0  0  0
  -26.9674  -19.7720   20.4766 C   0  0  0  0  0  0  0  0  0  0  0  0
  -19.6550  -31.6980   15.1636 C   0  0  0  0  0  0  0  0  0  0  0  0
  -20.3764  -32.0258   21.7395 C   0  0  0  0  0  0  0  0  0  0  0  0
  -18.8671  -31.7870   19.7563 C   0  0  0  0  0  0  0  0  0  0  0  0
  -20.2294  -33.8570   20.0426 C   0  0  0  0  0  0  0  0  0  0  0  0
  -23.2335  -30.4258   14.9363 C   0  0  0  0  0  0  0  0  0  0  0  0
  -26.1180  -23.5179   17.9778 C   0  0  0  0  0  0  0  0  0  0  0  0
  -23.7757  -24.7098   19.8728 C   0  0  0  0  0  0  0  0  0  1  0  0
  -21.3735  -31.7020   19.3800 C   0  0  1  0  0  0  0  0  0  0  0  0
  -21.1033  -31.5472   15.6021 C   0  0  2  0  0  0  0  0  0  0  0  0
  -20.2330  -32.3247   20.2338 C   0  0  0  0  0  0  0  0  0  0  0  0
  -28.0484  -14.7434   19.1680 N   0  0  0  0  0  0  0  0  0  0  0  0
  -29.3620  -15.0188   19.0994 N   0  0  0  0  0  0  0  0  0  0  0  0
  -24.6957  -23.2677   18.0939 N   0  0  0  0  0  0  0  0  0  0  0  0
  -23.6316  -31.1782   20.2465 N   0  0  0  0  0  0  0  0  0  0  0  0
  -29.2356  -18.4408   17.3965 N   0  0  0  0  0  0  0  0  0  0  0  0
  -28.8113  -20.2963   18.8587 N   0  0  0  0  0  0  0  0  0  0  0  0
  -31.4846  -14.3040   19.8702 N   0  0  0  0  0  0  0  0  0  0  0  0
  -28.6365  -11.3746   21.7946 N   0  0  0  0  0  0  0  0  0  0  0  0
  -25.7615  -32.0072   23.0877 N   0  0  0  0  0  0  0  0  0  0  0  0
  -21.2783  -31.9916   17.9534 N   0  0  0  0  0  0  0  0  0  0  0  0
  -21.7945  -30.6444   14.6388 N   0  3  0  0  0  0  0  0  0  0  0  0
  -24.1053  -22.9970   15.8311 O   0  0  0  0  0  0  0  0  0  0  0  0
  -30.8418  -11.9716   21.5975 O   0  0  0  0  0  0  0  0  0  0  0  0
  -23.5901  -31.2158   22.8024 O   0  0  0  0  0  0  0  0  0  0  0  0
  -23.0102  -33.3742   19.7692 O   0  0  0  0  0  0  0  0  0  0  0  0
  -21.1988  -29.7833   17.2504 O   0  0  0  0  0  0  0  0  0  0  0  0
  -30.6479  -20.2583   17.4525 O   0  0  0  0  0  0  0  0  0  0  0  0
  -23.0937  -11.3209   21.2383 O   0  0  0  0  0  0  0  0  0  0  0  0
  -24.9298  -25.1448   20.5684 O   0  0  0  0  0  0  0  0  0  1  0  0
  -22.7709   -5.8203   21.0317 F   0  0  0  0  0  0  0  0  0  0  0  0
  -21.3107  -10.0677   19.5374 F   0  0  0  0  0  0  0  0  0  0  0  0
  1  2  1  0  0  0  0
  1  5  2  0  0  0  0
  2  6  2  0  0  0  0
  3  8  2  0  0  0  0
  3 15  1  0  0  0  0
  4  9  1  0  0  0  0
  4 15  2  0  0  0  0
  5 17  1  0  0  0  0
  6 19  1  0  0  0  0
  7 10  2  0  0  0  0
  7 18  1  0  0  0  0
  8 21  1  0  0  0  0
  9 21  2  0  0  0  0
 10 22  1  0  0  0  0
 11 12  2  0  0  0  0
 11 23  1  0  0  0  0
 12 24  1  0  0  0  0
 13 20  1  0  0  0  0
 13 22  2  0  0  0  0
 14 24  2  0  0  0  0
 14 25  1  0  0  0  0
 15 26  1  0  0  0  0
 16 26  1  0  0  0  0
 16 27  2  0  0  0  0
 16 29  1  0  0  0  0
 17 19  2  0  0  0  0
 17 34  1  0  0  0  0
 18 20  2  0  0  0  0
 18 35  1  0  0  0  0
 19 48  1  0  0  0  0
 20 36  1  0  0  0  0
 21 82  1  0  0  0  0
 22 83  1  0  0  0  0
 23 25  2  0  0  0  0
 23 82  1  0  0  0  0
 24 84  1  0  0  0  0
 25 85  1  0  0  0  0
 26 65  2  0  0  0  0
 27 66  1  0  0  0  0
 27 71  1  0  0  0  0
 28 37  1  0  0  0  0
 28 67  1  0  0  0  0
 28 76  2  0  0  0  0
 29 72  1  0  0  0  0
 29 77  2  0  0  0  0
 30 49  1  0  0  0  0
 30 73  1  0  0  0  0
 30 78  2  0  0  0  0
 31 62  1  0  0  0  0
 31 68  1  0  0  0  0
 31 79  2  0  0  0  0
 32 63  1  0  0  0  0
 32 74  1  0  0  0  0
 32 80  2  0  0  0  0
 33 69  1  0  0  0  0
 33 70  1  0  0  0  0
 33 81  2  0  0  0  0
 34 38  1  0  0  0  0
 35 49  1  0  0  0  0
 36 68  1  0  0  0  0
 37 39  1  0  0  0  0
 38 41  1  0  0  0  0
 39 52  1  0  0  0  0
 40 42  1  0  0  0  0
 40 45  1  0  0  0  0
 41 48  1  0  0  0  0
 42 51  1  0  0  0  0
 43 46  1  0  0  0  0
 43 50  1  0  0  0  0
 44 50  1  0  0  0  0
 44 53  1  0  0  0  0
 45 69  1  0  0  0  0
 46 70  1  0  0  0  0
 47 51  1  0  0  0  0
 47 69  1  0  0  0  0
 48 73  1  0  0  0  0
 49 68  1  0  0  0  0
 50 60  1  0  0  0  0
 51 66  1  0  0  0  0
 52 61  1  0  0  0  0
 52 67  1  0  0  0  0
 53 54  1  0  0  0  0
 53 70  1  0  0  0  0
 55 63  1  0  0  0  0
 56 64  1  0  0  0  0
 57 64  1  0  0  0  0
 58 64  1  0  0  0  0
 59 75  1  0  0  0  0
 60 67  1  0  0  0  0
 61 83  1  0  0  0  0
 62 64  1  0  0  0  0
 62 74  1  0  0  0  0
 63 75  1  0  0  0  0
 65 66  1  0  0  0  0
M  CHG  1  75   1
M  ISO  4  33 100  61 101  70 100  83 101
M  END
> <Batch ID>
0159

> <Smiles>
CNC(C)C(=O)NC(C(=O)N1Cc2cc([101O:1][101CH2:1]C3CCC(=O)N3CC3CC[100N:0]([100C:0](=O)N4CCCC(n5nc(-c6ccc(Oc7ccc(F)cc7F)cc6)c(C(N)=O)c5N)C4)C(C)C3)ccc2CC1C(=O)NC1CCCc2ccccc21)C(C)(C)C

> <Shape>
0.263

> <Color>
0.076

> <Negative vol penalty>
0.000

$$$$

  -OEChem-04052303473D

 87 95  0     1  0  0  0  0  0999 V2000
  -24.2191  -23.2426   17.2454 C   0  0  0  0  0  0  0  0  0  0  0  0
  -25.2862  -22.4252   17.6042 C   0  0  0  0  0  0  0  0  0  0  0  0
  -23.1439  -29.5292   25.3416 C   0  0  0  0  0  0  0  0  0  0  0  0
  -24.7279  -29.6786   23.5234 C   0  0  0  0  0  0  0  0  0  0  0  0
  -22.9696  -23.0544   17.8346 C   0  0  0  0  0  0  0  0  0  0  0  0
  -25.1045  -21.4199   18.5533 C   0  0  0  0  0  0  0  0  0  0  0  0
  -27.2305  -17.0364   17.1712 C   0  0  0  0  0  0  0  0  0  0  0  0
  -23.4531  -30.8362   25.7183 C   0  0  0  0  0  0  0  0  0  0  0  0
  -25.0370  -30.9856   23.9001 C   0  0  0  0  0  0  0  0  0  0  0  0
  -28.6115  -16.9221   17.3250 C   0  0  0  0  0  0  0  0  0  0  0  0
  -26.9140  -32.5215   26.2557 C   0  0  0  0  0  0  0  0  0  0  0  0
  -28.2608  -32.8819   26.2996 C   0  0  0  0  0  0  0  0  0  0  0  0
  -30.1850  -21.9661   20.3870 C   0  0  0  0  0  0  0  0  0  0  0  0
  -28.2755  -15.6885   19.3707 C   0  0  0  0  0  0  0  0  0  0  0  0
  -27.8560  -34.5960   24.6457 C   0  0  0  0  0  0  0  0  0  0  0  0
  -23.7814  -28.9504   24.2442 C   0  0  0  0  0  0  0  0  0  0  0  0
  -29.2065  -22.8167   20.9777 C   0  0  0  0  0  0  0  0  0  0  0  0
  -22.4648  -27.1889   22.9513 C   0  0  0  0  0  0  0  0  0  0  0  0
  -22.7701  -22.0401   18.7843 C   0  0  0  0  0  0  0  0  0  0  0  0
  -26.3604  -16.4861   18.1233 C   0  0  0  0  0  0  0  0  0  0  0  0
  -23.8515  -21.2189   19.1567 C   0  0  0  0  0  0  0  0  0  0  0  0
  -26.8838  -15.7950   19.2253 C   0  0  0  0  0  0  0  0  0  0  0  0
  -24.3996  -31.5643   24.9976 C   0  0  0  0  0  0  0  0  0  0  0  0
  -29.1342  -16.2506   18.4264 C   0  0  0  0  0  0  0  0  0  0  0  0
  -26.0383  -33.1983   25.4067 C   0  0  0  0  0  0  0  0  0  0  0  0
  -28.7318  -33.9192   25.4947 C   0  0  0  0  0  0  0  0  0  0  0  0
  -26.5093  -34.2355   24.6017 C   0  0  0  0  0  0  0  0  0  0  0  0
  -23.4629  -27.6002   23.8549 C   0  0  0  0  0  0  0  0  0  0  0  0
  -22.5670  -25.8195   22.9268 C   0  0  0  0  0  0  0  0  0  0  0  0
  -30.2998  -20.7672   21.0556 C   0  0  0  0  0  0  0  0  0  0  0  0
  -28.6103  -22.2354   22.0753 C   0  0  0  0  0  0  0  0  0  0  0  0
  -32.4862  -17.3603   18.9220 C   0  0  0  0  0  0  0  0  0  0  0  0
  -28.8621  -24.1326   20.5034 C   0  0  0  0  0  0  0  0  0  0  0  0
  -21.5290  -27.9746   22.2012 C   0  0  0  0  0  0  0  0  0  0  0  0
  -32.8580  -18.4655   19.5969 C   0  0  0  0  0  0  0  0  0  0  0  0
  -29.5396  -24.7465   19.2871 C   0  0  0  0  0  0  0  0  0  0  0  0
  -24.1676  -17.6609   20.1020 C   0  0  0  0  0  0  0  0  0  0  0  0
  -23.5921  -14.5254   20.7021 C   0  0  0  0  0  0  0  0  0  0  0  0
  -24.7512  -11.3156   20.7034 C   0  0  0  0  0  0  0  0  0  0  0  0
  -27.0573  -22.0403   24.0492 C   0  0  0  0  0  0  0  0  0  0  0  0
  -21.4131  -21.9055   19.4286 C   0  0  0  0  0  0  0  0  0  0  0  0
  -24.8728  -16.5949   17.9289 C   0  0  0  0  0  0  0  0  0  0  0  0
  -25.9922  -15.1688   20.2651 C   0  0  0  0  0  0  0  0  0  0  0  0
  -21.2106  -20.5756   20.1502 C   0  0  0  0  0  0  0  0  0  0  0  0
  -23.8823  -22.1128   25.6589 C   0  0  0  0  0  0  0  0  0  0  0  0
  -22.4222  -20.2489   21.0174 C   0  0  0  0  0  0  0  0  0  0  0  0
  -23.3210  -23.4884   25.2917 C   0  0  0  0  0  0  0  0  0  0  0  0
  -25.3917  -22.1593   25.8895 C   0  0  0  0  0  0  0  0  0  0  0  0
  -25.6075  -24.1308   24.4280 C   0  0  0  0  0  0  0  0  0  0  0  0
  -23.6878  -20.1015   20.1641 C   0  0  1  0  0  0  0  0  0  0  0  0
  -24.0877  -16.4413   19.2279 C   0  0  1  0  0  0  0  0  0  0  0  0
  -24.1008  -24.1215   24.1227 C   0  0  2  0  0  0  0  0  0  0  0  0
  -34.1182  -18.4616   20.4237 C   0  0  0  0  0  0  0  0  0  0  0  0
  -28.8968  -24.4846   17.9598 C   0  0  0  0  0  0  0  0  0  0  0  0
  -24.0635   -8.9730   21.2839 C   0  0  0  0  0  0  0  0  0  0  0  0
  -23.9642  -15.1531   23.6648 C   0  0  0  0  0  0  0  0  0  0  0  0
  -24.2141  -12.6971   24.0822 C   0  0  0  0  0  0  0  0  0  0  0  0
  -22.0770  -13.5923   23.1581 C   0  0  0  0  0  0  0  0  0  0  0  0
  -25.0999  -10.3974   17.9115 C   0  0  0  0  0  0  0  0  0  0  0  0
  -31.2859  -17.1893   18.0457 C   0  0  0  0  0  0  0  0  0  1  0  0
  -32.0766  -19.7532   19.6272 C   0  0  0  0  0  0  0  0  0  0  0  0
  -24.1272  -13.5085   21.6811 C   0  0  1  0  0  0  0  0  0  0  0  0
  -24.1418  -10.0243   20.1878 C   0  0  2  0  0  0  0  0  0  0  0  0
  -23.6127  -13.7511   23.1281 C   0  0  0  0  0  0  0  0  0  0  0  0
  -24.1486  -26.5749   24.3674 N   0  0  0  0  0  0  0  0  0  0  0  0
  -27.9584  -24.9041   21.0652 N   0  0  0  0  0  0  0  0  0  0  0  0
  -23.5804  -25.5059   23.7840 N   0  0  0  0  0  0  0  0  0  0  0  0
  -24.5448  -15.3076   20.0340 N   0  0  0  0  0  0  0  0  0  0  0  0
  -26.0645  -22.7673   24.7395 N   0  0  0  0  0  0  0  0  0  0  0  0
  -21.8879  -24.8650   22.2558 N   0  0  0  0  0  0  0  0  0  0  0  0
  -21.5608  -29.3685   22.3444 N   0  0  0  0  0  0  0  0  0  0  0  0
  -27.6034  -22.7076   22.9533 N   0  0  0  0  0  0  0  0  0  0  0  0
  -31.1571  -19.7247   20.7377 N   0  0  0  0  0  0  0  0  0  0  0  0
  -23.7033  -18.8153   19.5010 N   0  0  0  0  0  0  0  0  0  0  0  0
  -23.7852  -12.1988   21.1370 N   0  0  0  0  0  0  0  0  0  0  0  0
  -24.9592   -9.4764   19.0686 N   0  3  0  0  0  0  0  0  0  0  0  0
  -20.6786  -27.4550   21.4394 O   0  0  0  0  0  0  0  0  0  0  0  0
  -30.5515  -25.4067   19.4649 O   0  0  0  0  0  0  0  0  0  0  0  0
  -24.6158  -17.5616   21.2382 O   0  0  0  0  0  0  0  0  0  0  0  0
  -22.3739  -14.6173   20.5309 O   0  0  0  0  0  0  0  0  0  0  0  0
  -25.9632  -11.5188   20.7231 O   0  0  0  0  0  0  0  0  0  0  0  0
  -27.3786  -20.8983   24.3877 O   0  0  0  0  0  0  0  0  0  0  0  0
  -24.7013  -32.8398   25.3647 O   0  0  0  0  0  0  0  0  0  0  0  0
  -30.4817  -16.1381   18.5793 O   0  0  0  0  0  0  0  0  0  1  0  0
  -30.0248  -34.2662   25.5381 F   0  0  0  0  0  0  0  0  0  0  0  0
  -25.6725  -34.8901   23.7850 F   0  0  0  0  0  0  0  0  0  0  0  0
  -29.2305  -20.6705   22.3896 S   0  0  0  0  0  0  0  0  0  0  0  0
  1  2  1  0  0  0  0
  1  5  2  0  0  0  0
  2  6  2  0  0  0  0
  3  8  2  0  0  0  0
  3 16  1  0  0  0  0
  4  9  1  0  0  0  0
  4 16  2  0  0  0  0
  5 19  1  0  0  0  0
  6 21  1  0  0  0  0
  7 10  2  0  0  0  0
  7 20  1  0  0  0  0
  8 23  1  0  0  0  0
  9 23  2  0  0  0  0
 10 24  1  0  0  0  0
 11 12  2  0  0  0  0
 11 25  1  0  0  0  0
 12 26  1  0  0  0  0
 13 17  1  0  0  0  0
 13 30  2  0  0  0  0
 14 22  1  0  0  0  0
 14 24  2  0  0  0  0
 15 26  2  0  0  0  0
 15 27  1  0  0  0  0
 16 28  1  0  0  0  0
 17 31  2  0  0  0  0
 17 33  1  0  0  0  0
 18 28  1  0  0  0  0
 18 29  2  0  0  0  0
 18 34  1  0  0  0  0
 19 21  2  0  0  0  0
 19 41  1  0  0  0  0
 20 22  2  0  0  0  0
 20 42  1  0  0  0  0
 21 50  1  0  0  0  0
 22 43  1  0  0  0  0
 23 83  1  0  0  0  0
 24 84  1  0  0  0  0
 25 27  2  0  0  0  0
 25 83  1  0  0  0  0
 26 85  1  0  0  0  0
 27 86  1  0  0  0  0
 28 65  2  0  0  0  0
 29 67  1  0  0  0  0
 29 70  1  0  0  0  0
 30 73  1  0  0  0  0
 30 87  1  0  0  0  0
 31 72  1  0  0  0  0
 31 87  1  0  0  0  0
 32 35  2  0  0  0  0
 32 60  1  0  0  0  0
 33 36  1  0  0  0  0
 33 66  2  0  0  0  0
 34 71  1  0  0  0  0
 34 77  2  0  0  0  0
 35 53  1  0  0  0  0
 35 61  1  0  0  0  0
 36 54  1  0  0  0  0
 36 78  2  0  0  0  0
 37 51  1  0  0  0  0
 37 74  1  0  0  0  0
 37 79  2  0  0  0  0
 38 62  1  0  0  0  0
 38 68  1  0  0  0  0
 38 80  2  0  0  0  0
 39 63  1  0  0  0  0
 39 75  1  0  0  0  0
 39 81  2  0  0  0  0
 40 69  1  0  0  0  0
 40 72  1  0  0  0  0
 40 82  2  0  0  0  0
 41 44  1  0  0  0  0
 42 51  1  0  0  0  0
 43 68  1  0  0  0  0
 44 46  1  0  0  0  0
 45 47  1  0  0  0  0
 45 48  1  0  0  0  0
 46 50  1  0  0  0  0
 47 52  1  0  0  0  0
 48 69  1  0  0  0  0
 49 52  1  0  0  0  0
 49 69  1  0  0  0  0
 50 74  1  0  0  0  0
 51 68  1  0  0  0  0
 52 67  1  0  0  0  0
 55 63  1  0  0  0  0
 56 64  1  0  0  0  0
 57 64  1  0  0  0  0
 58 64  1  0  0  0  0
 59 76  1  0  0  0  0
 60 84  1  0  0  0  0
 61 73  1  0  0  0  0
 62 64  1  0  0  0  0
 62 75  1  0  0  0  0
 63 76  1  0  0  0  0
 65 67  1  0  0  0  0
M  CHG  1  76   1
M  ISO  4  40 100  60 101  72 100  84 101
M  END
> <Batch ID>
0159

> <Smiles>
CNC(C)C(=O)NC(C(=O)N1Cc2cc([101O:1][101CH2:1]C=C(C)CNc3cc(C(=N)C(C)=O)c([100NH:0][100C:0](=O)N4CCCC(n5nc(-c6ccc(Oc7ccc(F)cc7F)cc6)c(C(N)=O)c5N)C4)s3)ccc2CC1C(=O)NC1CCCc2ccccc21)C(C)(C)C

> <Shape>
0.180

> <Color>
0.071

> <Negative vol penalty>
0.000

$$$$

  -OEChem-04052303473D

 85 93  0     1  0  0  0  0  0999 V2000
  -32.0515  -16.9954   21.8673 C   0  0  0  0  0  0  0  0  0  0  0  0
  -30.8439  -17.6801   21.7769 C   0  0  0  0  0  0  0  0  0  0  0  0
  -28.2505  -26.8744   21.7138 C   0  0  0  0  0  0  0  0  0  0  0  0
  -29.6332  -28.7116   20.9721 C   0  0  0  0  0  0  0  0  0  0  0  0
  -32.1312  -15.6670   21.4514 C   0  0  0  0  0  0  0  0  0  0  0  0
  -29.7154  -17.0371   21.2695 C   0  0  0  0  0  0  0  0  0  0  0  0
  -25.5693  -17.9123   24.0424 C   0  0  0  0  0  0  0  0  0  0  0  0
  -29.0222  -25.9896   20.9607 C   0  0  0  0  0  0  0  0  0  0  0  0
  -30.4049  -27.8267   20.2191 C   0  0  0  0  0  0  0  0  0  0  0  0
  -24.9365  -19.1427   23.8707 C   0  0  0  0  0  0  0  0  0  0  0  0
  -32.0139  -24.4381   21.2357 C   0  0  0  0  0  0  0  0  0  0  0  0
  -32.4030  -23.2422   21.8390 C   0  0  0  0  0  0  0  0  0  0  0  0
  -23.3051  -18.0965   22.4344 C   0  0  0  0  0  0  0  0  0  0  0  0
  -31.2402  -21.9989   20.1246 C   0  0  0  0  0  0  0  0  0  0  0  0
  -28.5560  -28.2355   21.7194 C   0  0  0  0  0  0  0  0  0  0  0  0
  -27.9674  -29.5337   23.8350 C   0  0  0  0  0  0  0  0  0  0  0  0
  -31.0007  -15.0044   20.9476 C   0  0  0  0  0  0  0  0  0  0  0  0
  -25.0802  -16.7649   23.4015 C   0  0  0  0  0  0  0  0  0  0  0  0
  -29.7803  -15.6990   20.8452 C   0  0  0  0  0  0  0  0  0  0  0  0
  -23.9319  -16.8522   22.6016 C   0  0  0  0  0  0  0  0  0  0  0  0
  -20.8486  -26.8829   23.0629 C   0  0  0  0  0  0  0  0  0  0  0  0
  -30.0994  -26.4657   20.2134 C   0  0  0  0  0  0  0  0  0  0  0  0
  -23.8059  -19.2355   23.0644 C   0  0  0  0  0  0  0  0  0  0  0  0
  -31.2377  -24.4144   20.0769 C   0  0  0  0  0  0  0  0  0  0  0  0
  -32.0162  -22.0226   21.2835 C   0  0  0  0  0  0  0  0  0  0  0  0
  -30.8509  -23.1948   19.5214 C   0  0  0  0  0  0  0  0  0  0  0  0
  -27.7588  -29.1501   22.4967 C   0  0  0  0  0  0  0  0  0  0  0  0
  -19.9808  -27.8910   22.7360 C   0  0  0  0  0  0  0  0  0  0  0  0
  -20.0041  -25.8201   23.4273 C   0  0  0  0  0  0  0  0  0  0  0  0
  -26.9460  -30.4119   24.1036 C   0  0  0  0  0  0  0  0  0  0  0  0
  -20.1927  -29.2730   22.2702 C   0  0  0  0  0  0  0  0  0  0  0  0
  -28.9926  -29.1322   24.7533 C   0  0  0  0  0  0  0  0  0  0  0  0
  -26.2357  -14.7354   21.2451 C   0  0  0  0  0  0  0  0  0  0  0  0
  -23.4860  -13.1271   21.8577 C   0  0  0  0  0  0  0  0  0  0  0  0
  -19.6546  -23.4590   24.2206 C   0  0  0  0  0  0  0  0  0  0  0  0
  -20.2597  -13.2219   22.9660 C   0  0  0  0  0  0  0  0  0  0  0  0
  -21.5017  -31.0630   21.6586 C   0  0  0  0  0  0  0  0  0  0  0  0
  -31.1471  -13.5826   20.4663 C   0  0  0  0  0  0  0  0  0  0  0  0
  -25.7586  -15.4400   23.6183 C   0  0  0  0  0  0  0  0  0  0  0  0
  -23.3551  -15.6462   21.9078 C   0  0  0  0  0  0  0  0  0  0  0  0
  -29.8146  -12.8591   20.2897 C   0  0  0  0  0  0  0  0  0  0  0  0
  -24.0631  -33.5802   21.9873 C   0  0  0  0  0  0  0  0  0  0  0  0
  -28.8225  -13.7430   19.5405 C   0  0  0  0  0  0  0  0  0  0  0  0
  -25.3263  -32.7585   22.2438 C   0  0  0  0  0  0  0  0  0  0  0  0
  -23.1124  -32.8627   21.0339 C   0  0  0  0  0  0  0  0  0  0  0  0
  -24.0052  -30.6576   21.7334 C   0  0  0  0  0  0  0  0  0  0  0  0
  -28.5281  -15.0283   20.3233 C   0  0  1  0  0  0  0  0  0  0  0  0
  -25.4758  -14.4349   22.5060 C   0  0  1  0  0  0  0  0  0  0  0  0
  -24.9744  -31.3366   22.7161 C   0  0  1  0  0  0  0  0  0  0  0  0
  -18.2524  -11.7564   23.3138 C   0  0  0  0  0  0  0  0  0  0  0  0
  -20.5082  -21.2951   22.2590 C   0  0  0  0  0  0  0  0  0  0  0  0
  -22.9451  -13.1597   18.8550 C   0  0  0  0  0  0  0  0  0  0  0  0
  -20.5637  -12.5647   19.3481 C   0  0  0  0  0  0  0  0  0  0  0  0
  -22.3971  -10.9998   19.9904 C   0  0  0  0  0  0  0  0  0  0  0  0
  -20.2381  -13.7447   25.8790 C   0  0  0  0  0  0  0  0  0  0  0  0
  -20.4967  -22.2541   24.6101 C   0  0  0  0  0  0  0  0  0  0  0  0
  -22.0873  -13.1461   21.2902 C   0  0  1  0  0  0  0  0  0  0  0  0
  -19.5052  -12.3421   23.9465 C   0  0  2  0  0  0  0  0  0  0  0  0
  -21.3582  -21.7417   23.4490 C   0  0  1  0  0  0  0  0  0  0  0  0
  -22.0100  -12.4909   19.8823 C   0  0  0  0  0  0  0  0  0  0  0  0
  -26.6890  -29.7364   21.9530 N   0  0  0  0  0  0  0  0  0  0  0  0
  -18.7114  -26.1442   23.3335 N   0  0  0  0  0  0  0  0  0  0  0  0
  -21.3784  -29.7581   22.0963 N   0  0  0  0  0  0  0  0  0  0  0  0
  -26.2161  -30.4974   22.9547 N   0  0  0  0  0  0  0  0  0  0  0  0
  -24.0577  -14.3745   22.1459 N   0  0  0  0  0  0  0  0  0  0  0  0
  -22.8281  -31.5041   21.4980 N   0  0  0  0  0  0  0  0  0  0  0  0
  -22.1958  -26.9151   23.0370 N   0  0  0  0  0  0  0  0  0  0  0  0
  -26.6101  -31.1116   25.2081 N   0  0  0  0  0  0  0  0  0  0  0  0
  -29.9642  -28.2226   24.3140 N   0  0  0  0  0  0  0  0  0  0  0  0
  -20.4411  -24.5424   23.8500 N   0  0  0  0  0  0  0  0  0  0  0  0
  -27.6077  -14.7602   21.4075 N   0  0  0  0  0  0  0  0  0  0  0  0
  -21.2324  -12.5158   22.2903 N   0  0  0  0  0  0  0  0  0  0  0  0
  -22.1605  -20.6218   23.9199 N   0  0  0  0  0  0  0  0  0  1  0  0
  -19.1018  -13.1303   25.1453 N   0  3  0  0  0  0  0  0  0  0  0  0
  -29.0361  -29.5545   25.9337 O   0  0  0  0  0  0  0  0  0  0  0  0
  -25.6227  -14.9290   20.2018 O   0  0  0  0  0  0  0  0  0  0  0  0
  -24.0479  -12.0451   22.0454 O   0  0  0  0  0  0  0  0  0  0  0  0
  -18.4289  -23.3971   24.2543 O   0  0  0  0  0  0  0  0  0  0  0  0
  -20.0086  -14.4151   22.8121 O   0  0  0  0  0  0  0  0  0  0  0  0
  -20.5432  -31.8001   21.4157 O   0  0  0  0  0  0  0  0  0  0  0  0
  -18.7024  -27.4623   22.8934 O   0  0  0  0  0  0  0  0  0  0  0  0
  -30.8528  -25.6025   19.4786 O   0  0  0  0  0  0  0  0  0  0  0  0
  -23.1868  -20.4354   22.8946 O   0  0  0  0  0  0  0  0  0  1  0  0
  -32.3914  -20.8743   21.8621 F   0  0  0  0  0  0  0  0  0  0  0  0
  -30.1063  -23.1656   18.4076 F   0  0  0  0  0  0  0  0  0  0  0  0
  1  2  1  0  0  0  0
  1  5  2  0  0  0  0
  2  6  2  0  0  0  0
  3  8  2  0  0  0  0
  3 15  1  0  0  0  0
  4  9  1  0  0  0  0
  4 15  2  0  0  0  0
  5 17  1  0  0  0  0
  6 19  1  0  0  0  0
  7 10  2  0  0  0  0
  7 18  1  0  0  0  0
  8 22  1  0  0  0  0
  9 22  2  0  0  0  0
 10 23  1  0  0  0  0
 11 12  2  0  0  0  0
 11 24  1  0  0  0  0
 12 25  1  0  0  0  0
 13 20  1  0  0  0  0
 13 23  2  0  0  0  0
 14 25  2  0  0  0  0
 14 26  1  0  0  0  0
 15 27  1  0  0  0  0
 16 27  1  0  0  0  0
 16 30  2  0  0  0  0
 16 32  1  0  0  0  0
 17 19  2  0  0  0  0
 17 38  1  0  0  0  0
 18 20  2  0  0  0  0
 18 39  1  0  0  0  0
 19 47  1  0  0  0  0
 20 40  1  0  0  0  0
 21 28  2  0  0  0  0
 21 29  1  0  0  0  0
 21 67  1  0  0  0  0
 22 82  1  0  0  0  0
 23 83  1  0  0  0  0
 24 26  2  0  0  0  0
 24 82  1  0  0  0  0
 25 84  1  0  0  0  0
 26 85  1  0  0  0  0
 27 61  2  0  0  0  0
 28 31  1  0  0  0  0
 28 81  1  0  0  0  0
 29 62  2  0  0  0  0
 29 70  1  0  0  0  0
 30 64  1  0  0  0  0
 30 68  1  0  0  0  0
 31 63  2  0  0  0  0
 32 69  1  0  0  0  0
 32 75  2  0  0  0  0
 33 48  1  0  0  0  0
 33 71  1  0  0  0  0
 33 76  2  0  0  0  0
 34 57  1  0  0  0  0
 34 65  1  0  0  0  0
 34 77  2  0  0  0  0
 35 56  1  0  0  0  0
 35 70  1  0  0  0  0
 35 78  2  0  0  0  0
 36 58  1  0  0  0  0
 36 72  1  0  0  0  0
 36 79  2  0  0  0  0
 37 63  1  0  0  0  0
 37 66  1  0  0  0  0
 37 80  2  0  0  0  0
 38 41  1  0  0  0  0
 39 48  1  0  0  0  0
 40 65  1  0  0  0  0
 41 43  1  0  0  0  0
 42 44  1  0  0  0  0
 42 45  1  0  0  0  0
 43 47  1  0  0  0  0
 44 49  1  0  0  0  0
 45 66  1  0  0  0  0
 46 49  1  0  0  0  0
 46 66  1  0  0  0  0
 47 71  1  0  0  0  0
 48 65  1  0  0  0  0
 49 64  1  0  0  0  0
 50 58  1  0  0  0  0
 51 59  1  0  0  0  0
 52 60  1  0  0  0  0
 53 60  1  0  0  0  0
 54 60  1  0  0  0  0
 55 74  1  0  0  0  0
 56 59  1  0  0  0  0
 57 60  1  0  0  0  0
 57 72  1  0  0  0  0
 58 74  1  0  0  0  0
 59 73  1  0  0  0  0
 61 64  1  0  0  0  0
 62 81  1  0  0  0  0
 73 83  1  0  0  0  0
M  CHG  1  74   1
M  ISO  4  37 100  63 100  73 101  83 101
M  END
> <Batch ID>
0159

> <Smiles>
CNC(C)C(=O)NC(C(=O)N1Cc2cc([101O:1][101NH:1]C(C)CC(=O)Nc3noc(C=[100N:0][100C:0](=O)N4CCCC(n5nc(-c6ccc(Oc7ccc(F)cc7F)cc6)c(C(N)=O)c5N)C4)c3N)ccc2CC1C(=O)NC1CCCc2ccccc21)C(C)(C)C

> <Shape>
0.255

> <Color>
0.061

> <Negative vol penalty>
0.000

$$$$

  -OEChem-04052303473D

 84 92  0     1  0  0  0  0  0999 V2000
  -28.1946  -11.2873   19.4678 C   0  0  0  0  0  0  0  0  0  0  0  0
  -28.3322  -12.5585   18.9196 C   0  0  0  0  0  0  0  0  0  0  0  0
  -19.9803  -26.4112   23.4326 C   0  0  0  0  0  0  0  0  0  0  0  0
  -19.6818  -28.1005   21.7314 C   0  0  0  0  0  0  0  0  0  0  0  0
  -27.0265  -10.9452   20.1477 C   0  0  0  0  0  0  0  0  0  0  0  0
  -27.3011  -13.4881   19.0501 C   0  0  0  0  0  0  0  0  0  0  0  0
  -28.9818  -18.0828   20.3573 C   0  0  0  0  0  0  0  0  0  0  0  0
  -18.6430  -26.5491   23.8042 C   0  0  0  0  0  0  0  0  0  0  0  0
  -18.3444  -28.2384   22.1030 C   0  0  0  0  0  0  0  0  0  0  0  0
  -29.5486  -18.8636   19.3509 C   0  0  0  0  0  0  0  0  0  0  0  0
  -14.7584  -28.7776   22.3637 C   0  0  0  0  0  0  0  0  0  0  0  0
  -13.8048  -28.8353   21.3474 C   0  0  0  0  0  0  0  0  0  0  0  0
  -27.4794  -20.0859   19.1422 C   0  0  0  0  0  0  0  0  0  0  0  0
  -14.4825  -26.6444   20.5871 C   0  0  0  0  0  0  0  0  0  0  0  0
  -29.5286  -26.0210   18.7589 C   0  0  0  0  0  0  0  0  0  0  0  0
  -20.4997  -27.1869   22.3962 C   0  0  0  0  0  0  0  0  0  0  0  0
  -22.4096  -26.1671   21.0472 C   0  0  0  0  0  0  0  0  0  0  0  0
  -25.9845  -11.8743   20.2950 C   0  0  0  0  0  0  0  0  0  0  0  0
  -27.6538  -18.2909   20.7569 C   0  0  0  0  0  0  0  0  0  0  0  0
  -26.1173  -13.1577   19.7315 C   0  0  0  0  0  0  0  0  0  0  0  0
  -26.8989  -19.3082   20.1557 C   0  0  0  0  0  0  0  0  0  0  0  0
  -17.8250  -27.4627   23.1394 C   0  0  0  0  0  0  0  0  0  0  0  0
  -28.7964  -19.8634   18.7412 C   0  0  0  0  0  0  0  0  0  0  0  0
  -15.5742  -27.6534   22.4917 C   0  0  0  0  0  0  0  0  0  0  0  0
  -13.6668  -27.7687   20.4591 C   0  0  0  0  0  0  0  0  0  0  0  0
  -15.4362  -26.5868   21.6034 C   0  0  0  0  0  0  0  0  0  0  0  0
  -21.8813  -27.0454   22.0122 C   0  0  0  0  0  0  0  0  0  0  0  0
  -29.5207  -28.2869   18.4503 C   0  0  0  0  0  0  0  0  0  0  0  0
  -30.3532  -25.8749   17.6652 C   0  0  0  0  0  0  0  0  0  0  0  0
  -30.3459  -28.1410   17.3570 C   0  0  0  0  0  0  0  0  0  0  0  0
  -23.7601  -26.4176   21.0577 C   0  0  0  0  0  0  0  0  0  0  0  0
  -21.7397  -25.2105   20.2155 C   0  0  0  0  0  0  0  0  0  0  0  0
  -25.0052  -16.5335   20.7417 C   0  0  0  0  0  0  0  0  0  0  0  0
  -23.7819  -19.0654   22.3589 C   0  0  0  0  0  0  0  0  0  0  0  0
  -30.4263  -23.3696   17.9147 C   0  0  0  0  0  0  0  0  0  0  0  0
  -23.9500  -22.3963   23.0823 C   0  0  0  0  0  0  0  0  0  0  0  0
  -28.0466  -29.9902   21.1456 C   0  0  0  0  0  0  0  0  0  0  0  0
  -24.7214  -11.4431   20.9974 C   0  0  0  0  0  0  0  0  0  0  0  0
  -27.0656  -17.4578   21.8626 C   0  0  0  0  0  0  0  0  0  0  0  0
  -25.4754  -19.5852   20.5624 C   0  0  0  0  0  0  0  0  0  0  0  0
  -23.8287  -12.6087   21.4154 C   0  0  0  0  0  0  0  0  0  0  0  0
  -26.5826  -29.1177   24.2716 C   0  0  0  0  0  0  0  0  0  0  0  0
  -23.6760  -13.6024   20.2682 C   0  0  0  0  0  0  0  0  0  0  0  0
  -25.2704  -28.4344   23.8830 C   0  0  0  0  0  0  0  0  0  0  0  0
  -26.9167  -30.2740   23.3317 C   0  0  0  0  0  0  0  0  0  0  0  0
  -25.6174  -29.2403   21.5104 C   0  0  0  0  0  0  0  0  0  0  0  0
  -25.0311  -14.2018   19.8736 C   0  0  1  0  0  0  0  0  0  0  0  0
  -25.5409  -17.4164   21.8331 C   0  0  1  0  0  0  0  0  0  0  0  0
  -25.2666  -28.0323   22.3958 C   0  0  2  0  0  0  0  0  0  0  0  0
  -22.7912  -24.1855   24.4065 C   0  0  0  0  0  0  0  0  0  0  0  0
  -21.5504  -19.1554   20.2799 C   0  0  0  0  0  0  0  0  0  0  0  0
  -20.9981  -21.4644   21.0745 C   0  0  0  0  0  0  0  0  0  0  0  0
  -20.7974  -19.5289   22.6353 C   0  0  0  0  0  0  0  0  0  0  0  0
  -26.3699  -22.9276   24.7013 C   0  0  0  0  0  0  0  0  0  0  0  0
  -29.0458  -29.6262   18.9032 C   0  0  0  0  0  0  0  0  0  0  0  0
  -31.0809  -22.1972   17.1929 C   0  0  0  0  0  0  0  0  0  0  0  0
  -30.7548  -20.8510   17.8217 C   0  0  0  0  0  0  0  0  0  1  0  0
  -23.0936  -20.3513   21.9694 C   0  0  1  0  0  0  0  0  0  0  0  0
  -23.8995  -23.1442   24.4024 C   0  0  2  0  0  0  0  0  0  0  0  0
  -21.6360  -20.1187   21.4805 C   0  0  0  0  0  0  0  0  0  0  0  0
  -29.0975  -27.2296   19.1710 N   0  0  0  0  0  0  0  0  0  0  0  0
  -22.8195  -27.7974   22.5937 N   0  0  0  0  0  0  0  0  0  0  0  0
  -30.7767  -26.9323   16.9446 N   0  0  0  0  0  0  0  0  0  0  0  0
  -23.9511  -27.3924   21.9923 N   0  0  0  0  0  0  0  0  0  0  0  0
  -24.9431  -18.7397   21.6438 N   0  0  0  0  0  0  0  0  0  0  0  0
  -26.8980  -29.8257   21.9372 N   0  0  0  0  0  0  0  0  0  0  0  0
  -30.7564  -29.2888   16.6428 N   0  0  0  0  0  0  0  0  0  0  0  0
  -24.7909  -25.8968   20.3587 N   0  0  0  0  0  0  0  0  0  0  0  0
  -20.3490  -25.0815   20.3324 N   0  0  0  0  0  0  0  0  0  0  0  0
  -30.7603  -24.5710   17.2952 N   0  0  0  0  0  0  0  0  0  0  0  0
  -25.4286  -15.2205   20.8216 N   0  0  0  0  0  0  0  0  0  0  0  0
  -23.2027  -21.2382   23.1225 N   0  0  0  0  0  0  0  0  0  0  0  0
  -27.9462  -29.5325   19.8374 N   0  0  0  0  0  0  0  0  0  0  0  0
  -25.1951  -23.8358   24.6558 N   0  3  0  0  0  0  0  0  0  0  0  0
  -22.3580  -24.4799   19.4047 O   0  0  0  0  0  0  0  0  0  0  0  0
  -24.2616  -17.0079   19.8910 O   0  0  0  0  0  0  0  0  0  0  0  0
  -23.3108  -18.3789   23.2691 O   0  0  0  0  0  0  0  0  0  0  0  0
  -29.7141  -23.2136   18.9009 O   0  0  0  0  0  0  0  0  0  0  0  0
  -24.5855  -22.8011   22.1113 O   0  0  0  0  0  0  0  0  0  0  0  0
  -29.0865  -30.5017   21.5744 O   0  0  0  0  0  0  0  0  0  0  0  0
  -16.5199  -27.5973   23.5016 O   0  0  0  0  0  0  0  0  0  0  0  0
  -29.3470  -20.6265   17.7581 O   0  0  0  0  0  0  0  0  0  1  0  0
  -12.7499  -27.8236   19.4842 F   0  0  0  0  0  0  0  0  0  0  0  0
  -16.2162  -25.5036   21.7221 F   0  0  0  0  0  0  0  0  0  0  0  0
  1  2  1  0  0  0  0
  1  5  2  0  0  0  0
  2  6  2  0  0  0  0
  3  8  2  0  0  0  0
  3 16  1  0  0  0  0
  4  9  1  0  0  0  0
  4 16  2  0  0  0  0
  5 18  1  0  0  0  0
  6 20  1  0  0  0  0
  7 10  2  0  0  0  0
  7 19  1  0  0  0  0
  8 22  1  0  0  0  0
  9 22  2  0  0  0  0
 10 23  1  0  0  0  0
 11 12  2  0  0  0  0
 11 24  1  0  0  0  0
 12 25  1  0  0  0  0
 13 21  1  0  0  0  0
 13 23  2  0  0  0  0
 14 25  2  0  0  0  0
 14 26  1  0  0  0  0
 15 29  1  0  0  0  0
 15 61  2  0  0  0  0
 16 27  1  0  0  0  0
 17 27  1  0  0  0  0
 17 31  2  0  0  0  0
 17 32  1  0  0  0  0
 18 20  2  0  0  0  0
 18 38  1  0  0  0  0
 19 21  2  0  0  0  0
 19 39  1  0  0  0  0
 20 47  1  0  0  0  0
 21 40  1  0  0  0  0
 22 81  1  0  0  0  0
 23 82  1  0  0  0  0
 24 26  2  0  0  0  0
 24 81  1  0  0  0  0
 25 83  1  0  0  0  0
 26 84  1  0  0  0  0
 27 62  2  0  0  0  0
 28 30  2  0  0  0  0
 28 55  1  0  0  0  0
 28 61  1  0  0  0  0
 29 63  2  0  0  0  0
 29 70  1  0  0  0  0
 30 63  1  0  0  0  0
 30 67  1  0  0  0  0
 31 64  1  0  0  0  0
 31 68  1  0  0  0  0
 32 69  1  0  0  0  0
 32 75  2  0  0  0  0
 33 48  1  0  0  0  0
 33 71  1  0  0  0  0
 33 76  2  0  0  0  0
 34 58  1  0  0  0  0
 34 65  1  0  0  0  0
 34 77  2  0  0  0  0
 35 56  1  0  0  0  0
 35 70  1  0  0  0  0
 35 78  2  0  0  0  0
 36 59  1  0  0  0  0
 36 72  1  0  0  0  0
 36 79  2  0  0  0  0
 37 66  1  0  0  0  0
 37 73  1  0  0  0  0
 37 80  2  0  0  0  0
 38 41  1  0  0  0  0
 39 48  1  0  0  0  0
 40 65  1  0  0  0  0
 41 43  1  0  0  0  0
 42 44  1  0  0  0  0
 42 45  1  0  0  0  0
 43 47  1  0  0  0  0
 44 49  1  0  0  0  0
 45 66  1  0  0  0  0
 46 49  1  0  0  0  0
 46 66  1  0  0  0  0
 47 71  1  0  0  0  0
 48 65  1  0  0  0  0
 49 64  1  0  0  0  0
 50 59  1  0  0  0  0
 51 60  1  0  0  0  0
 52 60  1  0  0  0  0
 53 60  1  0  0  0  0
 54 74  1  0  0  0  0
 55 73  1  0  0  0  0
 56 57  1  0  0  0  0
 57 82  1  0  0  0  0
 58 60  1  0  0  0  0
 58 72  1  0  0  0  0
 59 74  1  0  0  0  0
 62 64  1  0  0  0  0
M  CHG  1  74   1
M  ISO  4  37 100  57 101  73 100  82 101
M  END
> <Batch ID>
0159

> <Smiles>
CNC(C)C(=O)NC(C(=O)N1Cc2cc([101O:1][101CH2:1]CC(=O)Nc3cnc(C[100NH:0][100C:0](=O)N4CCCC(n5nc(-c6ccc(Oc7ccc(F)cc7F)cc6)c(C(N)=O)c5N)C4)c(N)n3)ccc2CC1C(=O)NC1CCCc2ccccc21)C(C)(C)C

> <Shape>
0.216

> <Color>
0.062

> <Negative vol penalty>
0.000

$$$$

  -OEChem-04052303473D

 89 97  0     1  0  0  0  0  0999 V2000
  -23.1621   -8.1626   22.1689 C   0  0  0  0  0  0  0  0  0  0  0  0
  -24.2933   -8.9636   22.0497 C   0  0  0  0  0  0  0  0  0  0  0  0
  -19.5282  -27.8805   22.0778 C   0  0  0  0  0  0  0  0  0  0  0  0
  -20.2908  -25.7220   22.8500 C   0  0  0  0  0  0  0  0  0  0  0  0
  -22.0376   -8.4257   21.3878 C   0  0  0  0  0  0  0  0  0  0  0  0
  -24.3011  -10.0275   21.1483 C   0  0  0  0  0  0  0  0  0  0  0  0
  -27.1120  -15.4236   21.8461 C   0  0  0  0  0  0  0  0  0  0  0  0
  -18.2664  -27.3435   21.8228 C   0  0  0  0  0  0  0  0  0  0  0  0
  -19.0290  -25.1850   22.5950 C   0  0  0  0  0  0  0  0  0  0  0  0
  -28.3282  -15.9155   21.3745 C   0  0  0  0  0  0  0  0  0  0  0  0
  -14.7402  -26.6254   21.3074 C   0  0  0  0  0  0  0  0  0  0  0  0
  -13.6278  -27.3587   21.7202 C   0  0  0  0  0  0  0  0  0  0  0  0
  -27.1827  -16.9571   19.5246 C   0  0  0  0  0  0  0  0  0  0  0  0
  -27.8512  -23.0676   21.3326 C   0  0  0  0  0  0  0  0  0  0  0  0
  -14.3975  -27.2387   24.0072 C   0  0  0  0  0  0  0  0  0  0  0  0
  -28.9151  -23.9070   19.3782 C   0  0  0  0  0  0  0  0  0  0  0  0
  -20.5404  -27.0698   22.5914 C   0  0  0  0  0  0  0  0  0  0  0  0
  -22.2924  -28.2107   24.0530 C   0  0  0  0  0  0  0  0  0  0  0  0
  -22.0281   -9.4992   20.4833 C   0  0  0  0  0  0  0  0  0  0  0  0
  -25.9213  -15.6859   21.1534 C   0  0  0  0  0  0  0  0  0  0  0  0
  -23.1759  -10.3043   20.3533 C   0  0  0  0  0  0  0  0  0  0  0  0
  -25.9523  -16.4694   19.9909 C   0  0  0  0  0  0  0  0  0  0  0  0
  -28.4158  -21.8246   21.0692 C   0  0  0  0  0  0  0  0  0  0  0  0
  -28.1006  -24.1339   20.4759 C   0  0  0  0  0  0  0  0  0  0  0  0
  -18.0168  -25.9958   22.0814 C   0  0  0  0  0  0  0  0  0  0  0  0
  -28.3641  -16.6800   20.2120 C   0  0  0  0  0  0  0  0  0  0  0  0
  -15.6813  -26.1987   22.2445 C   0  0  0  0  0  0  0  0  0  0  0  0
  -13.4565  -27.6654   23.0701 C   0  0  0  0  0  0  0  0  0  0  0  0
  -15.5099  -26.5054   23.5944 C   0  0  0  0  0  0  0  0  0  0  0  0
  -21.8442  -27.6238   22.8545 C   0  0  0  0  0  0  0  0  0  0  0  0
  -29.2160  -21.7010   19.9449 C   0  0  0  0  0  0  0  0  0  0  0  0
  -23.5908  -28.5752   23.7923 C   0  0  0  0  0  0  0  0  0  0  0  0
  -21.5974  -28.4086   25.2913 C   0  0  0  0  0  0  0  0  0  0  0  0
  -29.8567  -20.4200   19.5857 C   0  0  0  0  0  0  0  0  0  0  0  0
  -23.7310  -13.8985   19.7003 C   0  0  0  0  0  0  0  0  0  0  0  0
  -31.3784  -16.1888   20.9903 C   0  0  0  0  0  0  0  0  0  0  0  0
  -22.1834  -16.7330   19.3957 C   0  0  0  0  0  0  0  0  0  0  0  0
  -22.3730  -20.1380   19.2641 C   0  0  0  0  0  0  0  0  0  0  0  0
  -27.7021  -26.5652   19.9502 C   0  0  0  0  0  0  0  0  0  0  0  0
  -20.8062   -9.7155   19.6262 C   0  0  0  0  0  0  0  0  0  0  0  0
  -24.6141  -15.1704   21.6899 C   0  0  0  0  0  0  0  0  0  0  0  0
  -24.6995  -16.7966   19.2215 C   0  0  0  0  0  0  0  0  0  0  0  0
  -20.7614  -11.0908   18.9653 C   0  0  0  0  0  0  0  0  0  0  0  0
  -26.4591  -29.8930   20.1909 C   0  0  0  0  0  0  0  0  0  0  0  0
  -22.1117  -11.4268   18.3400 C   0  0  0  0  0  0  0  0  0  0  0  0
  -25.1786  -29.7430   21.0155 C   0  0  0  0  0  0  0  0  0  0  0  0
  -26.6664  -28.7112   19.2453 C   0  0  0  0  0  0  0  0  0  0  0  0
  -25.3386  -27.2396   20.7082 C   0  0  0  0  0  0  0  0  0  0  0  0
  -23.2139  -11.4827   19.4046 C   0  0  1  0  0  0  0  0  0  0  0  0
  -23.5290  -15.0675   20.6225 C   0  0  1  0  0  0  0  0  0  0  0  0
  -25.1205  -28.3745   21.7222 C   0  0  2  0  0  0  0  0  0  0  0  0
  -31.9141  -16.0065   22.3875 C   0  0  0  0  0  0  0  0  0  0  0  0
  -20.9452  -22.1805   18.9693 C   0  0  0  0  0  0  0  0  0  0  0  0
  -21.9916  -16.1642   16.4042 C   0  0  0  0  0  0  0  0  0  0  0  0
  -21.4440  -18.5815   16.0504 C   0  0  0  0  0  0  0  0  0  0  0  0
  -19.9254  -17.1470   17.4138 C   0  0  0  0  0  0  0  0  0  0  0  0
  -23.1139  -21.1830   21.9320 C   0  0  0  0  0  0  0  0  0  0  0  0
  -31.4058  -18.6032   20.2153 C   0  0  0  0  0  0  0  0  0  0  0  0
  -30.5584  -17.4449   20.7180 C   0  0  1  0  0  0  0  0  0  1  0  0
  -22.1646  -17.8354   18.3645 C   0  0  1  0  0  0  0  0  0  0  0  0
  -21.5724  -21.2193   19.9671 C   0  0  2  0  0  0  0  0  0  0  0  0
  -28.1546  -20.6767   21.9813 C   0  0  0  0  0  0  0  0  0  0  0  0
  -21.4054  -17.4244   17.0714 C   0  0  0  0  0  0  0  0  0  0  0  0
  -29.4813  -22.7138   19.0896 N   0  0  0  0  0  0  0  0  0  0  0  0
  -22.7816  -27.6141   21.9031 N   0  0  0  0  0  0  0  0  0  0  0  0
  -23.8318  -28.1995   22.5036 N   0  0  0  0  0  0  0  0  0  0  0  0
  -23.4469  -16.2644   19.7828 N   0  0  0  0  0  0  0  0  0  0  0  0
  -26.6028  -27.4490   19.9853 N   0  0  0  0  0  0  0  0  0  0  0  0
  -24.5383  -29.1774   24.5420 N   0  0  0  0  0  0  0  0  0  0  0  0
  -20.2683  -27.9745   25.3883 N   0  0  0  0  0  0  0  0  0  0  0  0
  -29.5544  -19.8751   18.4073 N   0  0  0  0  0  0  0  0  0  0  0  0
  -27.5398  -25.4124   20.7179 N   0  0  0  0  0  0  0  0  0  0  0  0
  -23.1439  -12.7274   20.1398 N   0  0  0  0  0  0  0  0  0  0  0  0
  -21.6145  -19.0100   19.0326 N   0  0  0  0  0  0  0  0  0  0  0  0
  -30.7060  -19.8687   20.4597 N   0  3  0  0  0  0  0  0  0  0  0  0
  -22.4501  -22.0003   20.8840 N   0  3  0  0  0  0  0  0  0  0  0  0
  -22.1336  -28.9690   26.2772 O   0  0  0  0  0  0  0  0  0  0  0  0
  -24.3708  -14.0484   18.6660 O   0  0  0  0  0  0  0  0  0  0  0  0
  -31.5939  -15.3479   20.1171 O   0  0  0  0  0  0  0  0  0  0  0  0
  -21.1166  -16.3085   19.8466 O   0  0  0  0  0  0  0  0  0  0  0  0
  -23.5521  -20.2811   18.9484 O   0  0  0  0  0  0  0  0  0  0  0  0
  -28.7239  -26.8254   19.3097 O   0  0  0  0  0  0  0  0  0  0  0  0
  -16.7855  -25.4714   21.8329 O   0  0  0  0  0  0  0  0  0  0  0  0
  -29.5500  -17.1609   19.7491 O   0  0  0  0  0  0  0  0  0  1  0  0
  -12.3890  -28.3709   23.4662 F   0  0  0  0  0  0  0  0  0  0  0  0
  -16.4112  -26.0992   24.4991 F   0  0  0  0  0  0  0  0  0  0  0  0
  -27.3433  -20.9867   23.0368 F   0  0  0  0  0  0  0  0  0  0  0  0
  -27.5486  -19.6157   21.3688 F   0  0  0  0  0  0  0  0  0  0  0  0
  -29.2967  -20.1733   22.5358 F   0  0  0  0  0  0  0  0  0  0  0  0
  1  2  1  0  0  0  0
  1  5  2  0  0  0  0
  2  6  2  0  0  0  0
  3  8  2  0  0  0  0
  3 17  1  0  0  0  0
  4  9  1  0  0  0  0
  4 17  2  0  0  0  0
  5 19  1  0  0  0  0
  6 21  1  0  0  0  0
  7 10  2  0  0  0  0
  7 20  1  0  0  0  0
  8 25  1  0  0  0  0
  9 25  2  0  0  0  0
 10 26  1  0  0  0  0
 11 12  2  0  0  0  0
 11 27  1  0  0  0  0
 12 28  1  0  0  0  0
 13 22  1  0  0  0  0
 13 26  2  0  0  0  0
 14 23  1  0  0  0  0
 14 24  2  0  0  0  0
 15 28  2  0  0  0  0
 15 29  1  0  0  0  0
 16 24  1  0  0  0  0
 16 64  2  0  0  0  0
 17 30  1  0  0  0  0
 18 30  1  0  0  0  0
 18 32  2  0  0  0  0
 18 33  1  0  0  0  0
 19 21  2  0  0  0  0
 19 40  1  0  0  0  0
 20 22  2  0  0  0  0
 20 41  1  0  0  0  0
 21 49  1  0  0  0  0
 22 42  1  0  0  0  0
 23 31  2  0  0  0  0
 23 62  1  0  0  0  0
 24 72  1  0  0  0  0
 25 83  1  0  0  0  0
 26 84  1  0  0  0  0
 27 29  2  0  0  0  0
 27 83  1  0  0  0  0
 28 85  1  0  0  0  0
 29 86  1  0  0  0  0
 30 65  2  0  0  0  0
 31 34  1  0  0  0  0
 31 64  1  0  0  0  0
 32 66  1  0  0  0  0
 32 69  1  0  0  0  0
 33 70  1  0  0  0  0
 33 77  2  0  0  0  0
 34 71  1  0  0  0  0
 34 75  2  0  0  0  0
 35 50  1  0  0  0  0
 35 73  1  0  0  0  0
 35 78  2  0  0  0  0
 36 52  1  0  0  0  0
 36 59  1  0  0  0  0
 36 79  2  0  0  0  0
 37 60  1  0  0  0  0
 37 67  1  0  0  0  0
 37 80  2  0  0  0  0
 38 61  1  0  0  0  0
 38 74  1  0  0  0  0
 38 81  2  0  0  0  0
 39 68  1  0  0  0  0
 39 72  1  0  0  0  0
 39 82  2  0  0  0  0
 40 43  1  0  0  0  0
 41 50  1  0  0  0  0
 42 67  1  0  0  0  0
 43 45  1  0  0  0  0
 44 46  1  0  0  0  0
 44 47  1  0  0  0  0
 45 49  1  0  0  0  0
 46 51  1  0  0  0  0
 47 68  1  0  0  0  0
 48 51  1  0  0  0  0
 48 68  1  0  0  0  0
 49 73  1  0  0  0  0
 50 67  1  0  0  0  0
 51 66  1  0  0  0  0
 53 61  1  0  0  0  0
 54 63  1  0  0  0  0
 55 63  1  0  0  0  0
 56 63  1  0  0  0  0
 57 76  1  0  0  0  0
 58 59  1  0  0  0  0
 58 75  1  0  0  0  0
 59 84  1  0  0  0  0
 60 63  1  0  0  0  0
 60 74  1  0  0  0  0
 61 76  1  0  0  0  0
 62 87  1  0  0  0  0
 62 88  1  0  0  0  0
 62 89  1  0  0  0  0
 65 66  1  0  0  0  0
M  CHG  2  75   1  76   1
M  ISO  4  39 100  59 101  72 100  84 101
M  END
> <Batch ID>
0159

> <Smiles>
CNC(C)C(=O)NC(C(=O)N1Cc2cc([101O:1][101CH:1](CNC(=N)c3ncc([100NH:0][100C:0](=O)N4CCCC(n5nc(-c6ccc(Oc7ccc(F)cc7F)cc6)c(C(N)=O)c5N)C4)cc3C(F)(F)F)C(C)=O)ccc2CC1C(=O)NC1CCCc2ccccc21)C(C)(C)C

> <Shape>
0.241

> <Color>
0.080

> <Negative vol penalty>
0.000

$$$$

  -OEChem-04052303473D

 82 90  0     1  0  0  0  0  0999 V2000
  -27.4302  -23.3635   18.0939 C   0  0  0  0  0  0  0  0  0  0  0  0
  -26.2376  -23.8767   18.5935 C   0  0  0  0  0  0  0  0  0  0  0  0
  -26.5204  -15.6781   20.2412 C   0  0  0  0  0  0  0  0  0  0  0  0
  -24.2347  -15.4807   20.9986 C   0  0  0  0  0  0  0  0  0  0  0  0
  -28.6406  -23.7021   18.6975 C   0  0  0  0  0  0  0  0  0  0  0  0
  -26.2545  -24.7281   19.6977 C   0  0  0  0  0  0  0  0  0  0  0  0
  -23.2433  -28.7545   19.0928 C   0  0  0  0  0  0  0  0  0  0  0  0
  -26.5624  -14.3033   20.0094 C   0  0  0  0  0  0  0  0  0  0  0  0
  -24.2766  -14.1059   20.7668 C   0  0  0  0  0  0  0  0  0  0  0  0
  -21.8748  -28.5590   19.2736 C   0  0  0  0  0  0  0  0  0  0  0  0
  -25.4976  -11.3556   22.3082 C   0  0  0  0  0  0  0  0  0  0  0  0
  -24.9740  -10.5163   23.2915 C   0  0  0  0  0  0  0  0  0  0  0  0
  -22.0427  -29.4819   21.4960 C   0  0  0  0  0  0  0  0  0  0  0  0
  -23.3747   -9.6504   21.7011 C   0  0  0  0  0  0  0  0  0  0  0  0
  -21.8523  -26.3949   24.8041 C   0  0  0  0  0  0  0  0  0  0  0  0
  -25.3566  -16.2668   20.7359 C   0  0  0  0  0  0  0  0  0  0  0  0
  -24.9253  -18.6910   20.0687 C   0  0  0  0  0  0  0  0  0  0  0  0
  -28.6732  -24.5658   19.8037 C   0  0  0  0  0  0  0  0  0  0  0  0
  -24.0251  -29.3060   20.1180 C   0  0  0  0  0  0  0  0  0  0  0  0
  -27.4663  -25.0776   20.3175 C   0  0  0  0  0  0  0  0  0  0  0  0
  -23.4205  -29.6857   21.3248 C   0  0  0  0  0  0  0  0  0  0  0  0
  -25.4405  -13.5172   20.2721 C   0  0  0  0  0  0  0  0  0  0  0  0
  -21.2748  -28.9200   20.4764 C   0  0  0  0  0  0  0  0  0  0  0  0
  -24.9596  -11.3424   21.0212 C   0  0  0  0  0  0  0  0  0  0  0  0
  -23.9126   -9.6637   22.9880 C   0  0  0  0  0  0  0  0  0  0  0  0
  -23.8982  -10.4898   20.7177 C   0  0  0  0  0  0  0  0  0  0  0  0
  -25.3129  -17.6869   20.9761 C   0  0  0  0  0  0  0  0  0  0  0  0
  -25.0573  -19.8616   20.7750 C   0  0  0  0  0  0  0  0  0  0  0  0
  -21.2611  -25.8938   23.6710 C   0  0  0  0  0  0  0  0  0  0  0  0
  -22.6708  -24.4892   24.4557 C   0  0  0  0  0  0  0  0  0  0  0  0
  -24.4852  -18.5759   18.7091 C   0  0  0  0  0  0  0  0  0  0  0  0
  -26.4876  -28.2924   21.8536 C   0  0  0  0  0  0  0  0  0  0  0  0
  -26.4518  -31.3373   22.9715 C   0  0  0  0  0  0  0  0  0  0  0  0
  -19.7589  -25.7833   21.6522 C   0  0  0  0  0  0  0  0  0  0  0  0
  -24.6780  -34.1999   23.5244 C   0  0  0  0  0  0  0  0  0  0  0  0
  -24.3387  -22.8607   25.4110 C   0  0  0  0  0  0  0  0  0  0  0  0
  -30.0017  -24.8655   20.4518 C   0  0  0  0  0  0  0  0  0  0  0  0
  -25.4952  -29.5351   19.8974 C   0  0  0  0  0  0  0  0  0  0  0  0
  -24.2118  -30.3005   22.4492 C   0  0  0  0  0  0  0  0  0  0  0  0
  -29.9650  -26.0718   21.3865 C   0  0  0  0  0  0  0  0  0  0  0  0
  -27.2221  -20.7775   25.2579 C   0  0  0  0  0  0  0  0  0  0  0  0
  -28.7495  -25.9985   22.3052 C   0  0  0  0  0  0  0  0  0  0  0  0
  -26.9506  -19.8704   24.0557 C   0  0  0  0  0  0  0  0  0  0  0  0
  -25.9463  -21.0746   26.0439 C   0  0  0  0  0  0  0  0  0  0  0  0
  -24.5616  -20.6946   24.0420 C   0  0  0  0  0  0  0  0  0  0  0  0
  -27.4458  -26.0238   21.4983 C   0  0  1  0  0  0  0  0  0  0  0  0
  -26.2870  -29.6294   21.1980 C   0  0  1  0  0  0  0  0  0  0  0  0
  -25.8060  -20.4201   23.1820 C   0  0  2  0  0  0  0  0  0  0  0  0
  -24.9090  -36.5054   24.4881 C   0  0  0  0  0  0  0  0  0  0  0  0
  -18.2769  -28.1917   19.0164 C   0  0  0  0  0  0  0  0  0  0  0  0
  -26.3347  -30.1691   25.7878 C   0  0  0  0  0  0  0  0  0  0  0  0
  -25.6184  -32.4204   26.6167 C   0  0  0  0  0  0  0  0  0  0  0  0
  -27.8509  -32.1424   25.5391 C   0  0  0  0  0  0  0  0  0  0  0  0
  -24.0386  -35.4741   20.9308 C   0  0  0  0  0  0  0  0  0  0  0  0
  -18.7260  -26.6836   20.9813 C   0  0  0  0  0  0  0  0  0  0  0  0
  -25.7658  -32.0493   24.1124 C   0  0  1  0  0  0  0  0  0  0  0  0
  -24.9964  -35.6548   23.2305 C   0  0  2  0  0  0  0  0  0  0  0  0
  -19.3392  -27.6393   19.9577 C   0  0  2  0  0  0  0  0  0  1  0  0
  -26.3776  -31.6819   25.4937 C   0  0  0  0  0  0  0  0  0  0  0  0
  -22.7545  -25.4902   25.3026 N   0  0  0  0  0  0  0  0  0  0  0  0
  -25.6649  -18.1767   22.1678 N   0  0  0  0  0  0  0  0  0  0  0  0
  -25.4991  -19.5015   22.0141 N   0  0  0  0  0  0  0  0  0  0  0  0
  -25.6470  -30.4985   22.1876 N   0  0  0  0  0  0  0  0  0  0  0  0
  -24.9081  -21.5959   25.1521 N   0  0  0  0  0  0  0  0  0  0  0  0
  -24.8376  -21.1535   20.4508 N   0  0  0  0  0  0  0  0  0  0  0  0
  -24.4070  -17.2984   18.1380 N   0  0  0  0  0  0  0  0  0  0  0  0
  -20.2833  -26.4028   22.7836 N   0  0  0  0  0  0  0  0  0  0  0  0
  -23.3855  -23.2659   24.4773 N   0  0  0  0  0  0  0  0  0  0  0  0
  -27.1472  -27.3712   21.0625 N   0  0  0  0  0  0  0  0  0  0  0  0
  -25.8175  -33.4724   23.7954 N   0  0  0  0  0  0  0  0  0  0  0  0
  -24.0407  -36.2015   22.2260 N   0  3  0  0  0  0  0  0  0  0  0  0
  -24.1862  -19.5776   18.0158 O   0  0  0  0  0  0  0  0  0  0  0  0
  -26.0759  -28.1106   22.9934 O   0  0  0  0  0  0  0  0  0  0  0  0
  -27.6557  -31.5242   22.7786 O   0  0  0  0  0  0  0  0  0  0  0  0
  -20.0461  -24.6760   21.2101 O   0  0  0  0  0  0  0  0  0  0  0  0
  -23.5326  -33.7543   23.5181 O   0  0  0  0  0  0  0  0  0  0  0  0
  -24.6918  -23.5466   26.3737 O   0  0  0  0  0  0  0  0  0  0  0  0
  -21.7849  -24.6585   23.4363 O   0  0  0  0  0  0  0  0  0  0  0  0
  -25.4810  -12.1757   20.0458 O   0  0  0  0  0  0  0  0  0  0  0  0
  -19.9393  -28.7297   20.6557 O   0  0  0  0  0  0  0  0  0  1  0  0
  -23.4110   -8.8566   23.9321 F   0  0  0  0  0  0  0  0  0  0  0  0
  -23.3780  -10.4718   19.4829 F   0  0  0  0  0  0  0  0  0  0  0  0
  1  2  1  0  0  0  0
  1  5  2  0  0  0  0
  2  6  2  0  0  0  0
  3  8  2  0  0  0  0
  3 16  1  0  0  0  0
  4  9  1  0  0  0  0
  4 16  2  0  0  0  0
  5 18  1  0  0  0  0
  6 20  1  0  0  0  0
  7 10  2  0  0  0  0
  7 19  1  0  0  0  0
  8 22  1  0  0  0  0
  9 22  2  0  0  0  0
 10 23  1  0  0  0  0
 11 12  2  0  0  0  0
 11 24  1  0  0  0  0
 12 25  1  0  0  0  0
 13 21  1  0  0  0  0
 13 23  2  0  0  0  0
 14 25  2  0  0  0  0
 14 26  1  0  0  0  0
 15 29  2  0  0  0  0
 15 60  1  0  0  0  0
 16 27  1  0  0  0  0
 17 27  1  0  0  0  0
 17 28  2  0  0  0  0
 17 31  1  0  0  0  0
 18 20  2  0  0  0  0
 18 37  1  0  0  0  0
 19 21  2  0  0  0  0
 19 38  1  0  0  0  0
 20 46  1  0  0  0  0
 21 39  1  0  0  0  0
 22 79  1  0  0  0  0
 23 80  1  0  0  0  0
 24 26  2  0  0  0  0
 24 79  1  0  0  0  0
 25 81  1  0  0  0  0
 26 82  1  0  0  0  0
 27 61  2  0  0  0  0
 28 62  1  0  0  0  0
 28 65  1  0  0  0  0
 29 67  1  0  0  0  0
 29 78  1  0  0  0  0
 30 60  2  0  0  0  0
 30 68  1  0  0  0  0
 30 78  1  0  0  0  0
 31 66  1  0  0  0  0
 31 72  2  0  0  0  0
 32 47  1  0  0  0  0
 32 69  1  0  0  0  0
 32 73  2  0  0  0  0
 33 56  1  0  0  0  0
 33 63  1  0  0  0  0
 33 74  2  0  0  0  0
 34 55  1  0  0  0  0
 34 67  1  0  0  0  0
 34 75  2  0  0  0  0
 35 57  1  0  0  0  0
 35 70  1  0  0  0  0
 35 76  2  0  0  0  0
 36 64  1  0  0  0  0
 36 68  1  0  0  0  0
 36 77  2  0  0  0  0
 37 40  1  0  0  0  0
 38 47  1  0  0  0  0
 39 63  1  0  0  0  0
 40 42  1  0  0  0  0
 41 43  1  0  0  0  0
 41 44  1  0  0  0  0
 42 46  1  0  0  0  0
 43 48  1  0  0  0  0
 44 64  1  0  0  0  0
 45 48  1  0  0  0  0
 45 64  1  0  0  0  0
 46 69  1  0  0  0  0
 47 63  1  0  0  0  0
 48 62  1  0  0  0  0
 49 57  1  0  0  0  0
 50 58  1  0  0  0  0
 51 59  1  0  0  0  0
 52 59  1  0  0  0  0
 53 59  1  0  0  0  0
 54 71  1  0  0  0  0
 55 58  1  0  0  0  0
 56 59  1  0  0  0  0
 56 70  1  0  0  0  0
 57 71  1  0  0  0  0
 58 80  1  0  0  0  0
 61 62  1  0  0  0  0
M  CHG  1  71   1
M  ISO  4  36 100  58 101  68 100  80 101
M  END
> <Batch ID>
0159

> <Smiles>
CNC(C)C(=O)NC(C(=O)N1Cc2cc([101O:1][101CH:1](C)CC(=O)Nc3cnc([100NH:0][100C:0](=O)N4CCCC(n5nc(-c6ccc(Oc7ccc(F)cc7F)cc6)c(C(N)=O)c5N)C4)o3)ccc2CC1C(=O)NC1CCCc2ccccc21)C(C)(C)C

> <Shape>
0.250

> <Color>
0.053

> <Negative vol penalty>
0.000

$$$$

  -OEChem-04052303473D

 84 92  0     1  0  0  0  0  0999 V2000
  -31.0692  -37.4603   18.4214 C   0  0  0  0  0  0  0  0  0  0  0  0
  -31.1411  -36.0867   18.2134 C   0  0  0  0  0  0  0  0  0  0  0  0
  -24.6680   -9.1026   21.8171 C   0  0  0  0  0  0  0  0  0  0  0  0
  -23.0007  -10.3722   20.6149 C   0  0  0  0  0  0  0  0  0  0  0  0
  -30.5817  -37.9567   19.6297 C   0  0  0  0  0  0  0  0  0  0  0  0
  -30.7265  -35.2085   19.2141 C   0  0  0  0  0  0  0  0  0  0  0  0
  -27.9949  -29.7808   18.4492 C   0  0  0  0  0  0  0  0  0  0  0  0
  -23.6614   -8.4767   22.5523 C   0  0  0  0  0  0  0  0  0  0  0  0
  -21.9940   -9.7463   21.3501 C   0  0  0  0  0  0  0  0  0  0  0  0
  -28.4830  -28.4749   18.4627 C   0  0  0  0  0  0  0  0  0  0  0  0
  -21.5112   -6.2813   24.4944 C   0  0  0  0  0  0  0  0  0  0  0  0
  -21.5997   -4.9004   24.6705 C   0  0  0  0  0  0  0  0  0  0  0  0
  -27.8431  -28.2661   20.7792 C   0  0  0  0  0  0  0  0  0  0  0  0
  -21.5237   -4.5903   22.2756 C   0  0  0  0  0  0  0  0  0  0  0  0
  -24.5720  -19.7509   17.5990 C   0  0  0  0  0  0  0  0  0  0  0  0
  -24.3377  -10.0504   20.8484 C   0  0  0  0  0  0  0  0  0  0  0  0
  -25.9306  -10.2686   18.8678 C   0  0  0  0  0  0  0  0  0  0  0  0
  -30.1519  -37.0842   20.6420 C   0  0  0  0  0  0  0  0  0  0  0  0
  -27.4362  -30.3439   19.6056 C   0  0  0  0  0  0  0  0  0  0  0  0
  -30.2340  -35.6936   20.4376 C   0  0  0  0  0  0  0  0  0  0  0  0
  -27.3463  -29.5785   20.7770 C   0  0  0  0  0  0  0  0  0  0  0  0
  -22.3244   -8.7985   22.3188 C   0  0  0  0  0  0  0  0  0  0  0  0
  -28.4098  -27.7184   19.6286 C   0  0  0  0  0  0  0  0  0  0  0  0
  -21.4289   -6.8167   23.2090 C   0  0  0  0  0  0  0  0  0  0  0  0
  -21.6060   -4.0549   23.5611 C   0  0  0  0  0  0  0  0  0  0  0  0
  -21.4352   -5.9711   22.0996 C   0  0  0  0  0  0  0  0  0  0  0  0
  -24.5861  -18.3889   17.9835 C   0  0  0  0  0  0  0  0  0  0  0  0
  -25.3771  -10.6977   20.0891 C   0  0  0  0  0  0  0  0  0  0  0  0
  -26.8730  -11.2207   18.5646 C   0  0  0  0  0  0  0  0  0  0  0  0
  -25.7234  -20.3039   18.1095 C   0  0  0  0  0  0  0  0  0  0  0  0
  -25.7453  -18.2066   18.7012 C   0  0  0  0  0  0  0  0  0  0  0  0
  -27.6155  -23.5442   18.3064 C   0  0  0  0  0  0  0  0  0  0  0  0
  -25.6205   -9.1128   18.0781 C   0  0  0  0  0  0  0  0  0  0  0  0
  -28.6773  -24.2535   18.7223 C   0  0  0  0  0  0  0  0  0  0  0  0
  -27.4277  -22.0881   18.5992 C   0  0  0  0  0  0  0  0  0  0  0  0
  -28.1525  -32.8193   21.4664 C   0  0  0  0  0  0  0  0  0  0  0  0
  -25.3491  -32.0499   22.9058 C   0  0  0  0  0  0  0  0  0  0  0  0
  -22.9979  -29.6713   23.5842 C   0  0  0  0  0  0  0  0  0  0  0  0
  -27.4841  -16.9769   20.0469 C   0  0  0  0  0  0  0  0  0  0  0  0
  -29.6767  -37.6672   21.9493 C   0  0  0  0  0  0  0  0  0  0  0  0
  -26.8899  -31.7447   19.5672 C   0  0  0  0  0  0  0  0  0  0  0  0
  -26.7373  -30.1295   22.0395 C   0  0  0  0  0  0  0  0  0  0  0  0
  -28.9070  -36.6733   22.8154 C   0  0  0  0  0  0  0  0  0  0  0  0
  -29.8262  -14.3632   20.6471 C   0  0  0  0  0  0  0  0  0  0  0  0
  -29.6447  -35.3398   22.8816 C   0  0  0  0  0  0  0  0  0  0  0  0
  -29.0029  -13.0875   20.4550 C   0  0  0  0  0  0  0  0  0  0  0  0
  -29.0083  -15.4721   21.3068 C   0  0  0  0  0  0  0  0  0  0  0  0
  -26.9095  -14.5033   20.4550 C   0  0  0  0  0  0  0  0  0  0  0  0
  -29.7707  -34.7093   21.4894 C   0  0  1  0  0  0  0  0  0  0  0  0
  -26.8091  -32.3926   20.9460 C   0  0  1  0  0  0  0  0  0  0  0  0
  -27.6717  -13.3790   19.7349 C   0  0  2  0  0  0  0  0  0  0  0  0
  -20.8387  -29.3309   24.8169 C   0  0  0  0  0  0  0  0  0  0  0  0
  -26.8742  -31.9597   25.5470 C   0  0  0  0  0  0  0  0  0  0  0  0
  -24.9403  -30.7188   26.5411 C   0  0  0  0  0  0  0  0  0  0  0  0
  -24.6216  -33.0379   25.6794 C   0  0  0  0  0  0  0  0  0  0  0  0
  -21.5508  -28.9845   21.0955 C   0  0  0  0  0  0  0  0  0  0  0  0
  -28.8318  -25.7145   18.4192 C   0  0  0  0  0  0  0  0  0  1  0  0
  -24.9443  -31.1401   24.0404 C   0  0  1  0  0  0  0  0  0  0  0  0
  -21.4830  -29.6963   23.4887 C   0  0  2  0  0  0  0  0  0  0  0  0
  -25.3584  -31.7041   25.4289 C   0  0  0  0  0  0  0  0  0  0  0  0
  -25.9226  -11.8339   20.5314 N   0  0  0  0  0  0  0  0  0  0  0  0
  -26.8287  -12.1267   19.5831 N   0  0  0  0  0  0  0  0  0  0  0  0
  -26.2228  -31.5063   21.9534 N   0  0  0  0  0  0  0  0  0  0  0  0
  -27.7638  -15.6959   20.5679 N   0  0  0  0  0  0  0  0  0  0  0  0
  -27.7270  -11.3628   17.5288 N   0  0  0  0  0  0  0  0  0  0  0  0
  -24.6256   -8.2382   18.5359 N   0  0  0  0  0  0  0  0  0  0  0  0
  -26.2419  -21.6208   18.0453 N   0  0  0  0  0  0  0  0  0  0  0  0
  -26.2879  -17.0614   19.3353 N   0  0  0  0  0  0  0  0  0  0  0  0
  -28.5187  -34.0992   21.0958 N   0  0  0  0  0  0  0  0  0  0  0  0
  -23.5109  -30.9139   23.8906 N   0  0  0  0  0  0  0  0  0  0  0  0
  -21.0130  -28.7294   22.4566 N   0  3  0  0  0  0  0  0  0  0  0  0
  -26.2197   -8.8543   17.0069 O   0  0  0  0  0  0  0  0  0  0  0  0
  -28.2492  -21.4513   19.2471 O   0  0  0  0  0  0  0  0  0  0  0  0
  -28.8075  -32.0454   22.1546 O   0  0  0  0  0  0  0  0  0  0  0  0
  -24.9009  -33.1983   22.8621 O   0  0  0  0  0  0  0  0  0  0  0  0
  -23.6596  -28.6506   23.4083 O   0  0  0  0  0  0  0  0  0  0  0  0
  -28.2626  -17.9223   20.1960 O   0  0  0  0  0  0  0  0  0  0  0  0
  -26.4442  -19.3691   18.7826 O   0  0  0  0  0  0  0  0  0  0  0  0
  -29.6908  -23.6926   19.4738 O   0  0  0  0  0  0  0  0  0  0  0  0
  -21.3418   -8.1878   23.0358 O   0  0  0  0  0  0  0  0  0  0  0  0
  -28.8860  -26.4437   19.6447 O   0  0  0  0  0  0  0  0  0  1  0  0
  -21.6926   -2.7290   23.7302 F   0  0  0  0  0  0  0  0  0  0  0  0
  -21.3575   -6.4797   20.8622 F   0  0  0  0  0  0  0  0  0  0  0  0
  -23.6631  -17.4727   17.7060 F   0  0  0  0  0  0  0  0  0  0  0  0
  1  2  1  0  0  0  0
  1  5  2  0  0  0  0
  2  6  2  0  0  0  0
  3  8  2  0  0  0  0
  3 16  1  0  0  0  0
  4  9  1  0  0  0  0
  4 16  2  0  0  0  0
  5 18  1  0  0  0  0
  6 20  1  0  0  0  0
  7 10  2  0  0  0  0
  7 19  1  0  0  0  0
  8 22  1  0  0  0  0
  9 22  2  0  0  0  0
 10 23  1  0  0  0  0
 11 12  2  0  0  0  0
 11 24  1  0  0  0  0
 12 25  1  0  0  0  0
 13 21  1  0  0  0  0
 13 23  2  0  0  0  0
 14 25  2  0  0  0  0
 14 26  1  0  0  0  0
 15 27  1  0  0  0  0
 15 30  2  0  0  0  0
 16 28  1  0  0  0  0
 17 28  1  0  0  0  0
 17 29  2  0  0  0  0
 17 33  1  0  0  0  0
 18 20  2  0  0  0  0
 18 40  1  0  0  0  0
 19 21  2  0  0  0  0
 19 41  1  0  0  0  0
 20 49  1  0  0  0  0
 21 42  1  0  0  0  0
 22 80  1  0  0  0  0
 23 81  1  0  0  0  0
 24 26  2  0  0  0  0
 24 80  1  0  0  0  0
 25 82  1  0  0  0  0
 26 83  1  0  0  0  0
 27 31  2  0  0  0  0
 27 84  1  0  0  0  0
 28 61  2  0  0  0  0
 29 62  1  0  0  0  0
 29 65  1  0  0  0  0
 30 67  1  0  0  0  0
 30 78  1  0  0  0  0
 31 68  1  0  0  0  0
 31 78  1  0  0  0  0
 32 34  2  0  0  0  0
 32 35  1  0  0  0  0
 33 66  1  0  0  0  0
 33 72  2  0  0  0  0
 34 57  1  0  0  0  0
 34 79  1  0  0  0  0
 35 67  1  0  0  0  0
 35 73  2  0  0  0  0
 36 50  1  0  0  0  0
 36 69  1  0  0  0  0
 36 74  2  0  0  0  0
 37 58  1  0  0  0  0
 37 63  1  0  0  0  0
 37 75  2  0  0  0  0
 38 59  1  0  0  0  0
 38 70  1  0  0  0  0
 38 76  2  0  0  0  0
 39 64  1  0  0  0  0
 39 68  1  0  0  0  0
 39 77  2  0  0  0  0
 40 43  1  0  0  0  0
 41 50  1  0  0  0  0
 42 63  1  0  0  0  0
 43 45  1  0  0  0  0
 44 46  1  0  0  0  0
 44 47  1  0  0  0  0
 45 49  1  0  0  0  0
 46 51  1  0  0  0  0
 47 64  1  0  0  0  0
 48 51  1  0  0  0  0
 48 64  1  0  0  0  0
 49 69  1  0  0  0  0
 50 63  1  0  0  0  0
 51 62  1  0  0  0  0
 52 59  1  0  0  0  0
 53 60  1  0  0  0  0
 54 60  1  0  0  0  0
 55 60  1  0  0  0  0
 56 71  1  0  0  0  0
 57 81  1  0  0  0  0
 58 60  1  0  0  0  0
 58 70  1  0  0  0  0
 59 71  1  0  0  0  0
 61 62  1  0  0  0  0
M  CHG  1  71   1
M  ISO  4  39 100  57 101  68 100  81 101
M  END
> <Batch ID>
0159

> <Smiles>
CNC(C)C(=O)NC(C(=O)N1Cc2cc([101O:1][101CH2:1]C(=O)CC(=O)Nc3cc(F)c([100NH:0][100C:0](=O)N4CCCC(n5nc(-c6ccc(Oc7ccc(F)cc7F)cc6)c(C(N)=O)c5N)C4)o3)ccc2CC1C(=O)NC1CCCc2ccccc21)C(C)(C)C

> <Shape>
0.272

> <Color>
0.098

> <Negative vol penalty>
0.000

$$$$

  -OEChem-04052303473D

 85 93  0     1  0  0  0  0  0999 V2000
  -31.3862  -36.3472   23.2289 C   0  0  0  0  0  0  0  0  0  0  0  0
  -32.1640  -35.4124   23.9047 C   0  0  0  0  0  0  0  0  0  0  0  0
  -23.0835   -9.9514   19.8586 C   0  0  0  0  0  0  0  0  0  0  0  0
  -23.8961   -9.7990   22.1288 C   0  0  0  0  0  0  0  0  0  0  0  0
  -30.1900  -35.9545   22.6299 C   0  0  0  0  0  0  0  0  0  0  0  0
  -31.7454  -34.0846   23.9827 C   0  0  0  0  0  0  0  0  0  0  0  0
  -34.3486  -27.4148   24.2151 C   0  0  0  0  0  0  0  0  0  0  0  0
  -22.3534   -8.7770   20.0411 C   0  0  0  0  0  0  0  0  0  0  0  0
  -23.1659   -8.6246   22.3113 C   0  0  0  0  0  0  0  0  0  0  0  0
  -34.2590  -26.2495   24.9753 C   0  0  0  0  0  0  0  0  0  0  0  0
  -19.9580   -7.7582   22.9270 C   0  0  0  0  0  0  0  0  0  0  0  0
  -19.2286   -7.6274   24.1087 C   0  0  0  0  0  0  0  0  0  0  0  0
  -32.2141  -25.6697   23.8346 C   0  0  0  0  0  0  0  0  0  0  0  0
  -20.4997   -5.6523   24.6747 C   0  0  0  0  0  0  0  0  0  0  0  0
  -31.7827  -17.5855   22.0006 C   0  0  0  0  0  0  0  0  0  0  0  0
  -23.8549  -10.4624   20.9024 C   0  0  0  0  0  0  0  0  0  0  0  0
  -24.1768  -12.9924   20.9580 C   0  0  0  0  0  0  0  0  0  0  0  0
  -29.7613  -34.6193   22.6923 C   0  0  0  0  0  0  0  0  0  0  0  0
  -33.3641  -27.7222   23.2649 C   0  0  0  0  0  0  0  0  0  0  0  0
  -30.5416  -33.6740   23.3851 C   0  0  0  0  0  0  0  0  0  0  0  0
  -32.2948  -26.8382   23.0618 C   0  0  0  0  0  0  0  0  0  0  0  0
  -22.3946   -8.1136   21.2674 C   0  0  0  0  0  0  0  0  0  0  0  0
  -33.1902  -25.3782   24.7871 C   0  0  0  0  0  0  0  0  0  0  0  0
  -20.9582   -6.8360   22.6191 C   0  0  0  0  0  0  0  0  0  0  0  0
  -19.4994   -6.5745   24.9826 C   0  0  0  0  0  0  0  0  0  0  0  0
  -21.2291   -5.7831   23.4930 C   0  0  0  0  0  0  0  0  0  0  0  0
  -24.6098  -11.6752   20.7144 C   0  0  0  0  0  0  0  0  0  0  0  0
  -25.2552  -13.7753   20.6254 C   0  0  0  0  0  0  0  0  0  0  0  0
  -30.5890  -16.9197   22.1845 C   0  0  0  0  0  0  0  0  0  0  0  0
  -30.8424  -18.9777   23.4105 C   0  0  0  0  0  0  0  0  0  0  0  0
  -22.9129  -13.4659   21.4417 C   0  0  0  0  0  0  0  0  0  0  0  0
  -30.6640  -20.1630   24.2858 C   0  0  0  0  0  0  0  0  0  0  0  0
  -31.2747  -30.0872   22.8845 C   0  0  0  0  0  0  0  0  0  0  0  0
  -34.3223  -22.2304   25.2527 C   0  0  0  0  0  0  0  0  0  0  0  0
  -30.6840  -28.5904   20.0679 C   0  0  0  0  0  0  0  0  0  0  0  0
  -31.7881  -22.2639   25.0617 C   0  0  0  0  0  0  0  0  0  0  0  0
  -30.7711  -25.7062   18.2457 C   0  0  0  0  0  0  0  0  0  0  0  0
  -30.7169  -14.8512   20.7522 C   0  0  0  0  0  0  0  0  0  0  0  0
  -28.4375  -34.2519   22.0699 C   0  0  0  0  0  0  0  0  0  0  0  0
  -33.4893  -28.9698   22.4342 C   0  0  0  0  0  0  0  0  0  0  0  0
  -31.2225  -27.1121   22.0403 C   0  0  0  0  0  0  0  0  0  0  0  0
  -28.2510  -32.7491   21.8776 C   0  0  0  0  0  0  0  0  0  0  0  0
  -29.5643  -12.6058   18.2409 C   0  0  0  0  0  0  0  0  0  0  0  0
  -28.6526  -31.9953   23.1415 C   0  0  0  0  0  0  0  0  0  0  0  0
  -28.1369  -12.2718   18.6806 C   0  0  0  0  0  0  0  0  0  0  0  0
  -30.5054  -12.7547   19.4351 C   0  0  0  0  0  0  0  0  0  0  0  0
  -28.6260  -13.3614   20.9079 C   0  0  0  0  0  0  0  0  0  0  0  0
  -30.1336  -32.2192   23.4703 C   0  0  1  0  0  0  0  0  0  0  0  0
  -32.1577  -29.4389   21.8561 C   0  0  1  0  0  0  0  0  0  0  0  0
  -27.6274  -13.2656   19.7428 C   0  0  2  0  0  0  0  0  0  0  0  0
  -34.4291  -21.8052   26.6912 C   0  0  0  0  0  0  0  0  0  0  0  0
  -30.1859  -24.7854   15.9858 C   0  0  0  0  0  0  0  0  0  0  0  0
  -27.7345  -28.5558   20.8485 C   0  0  0  0  0  0  0  0  0  0  0  0
  -27.3562  -26.8332   19.0714 C   0  0  0  0  0  0  0  0  0  0  0  0
  -28.1721  -29.1068   18.4486 C   0  0  0  0  0  0  0  0  0  0  0  0
  -33.5860  -24.9870   17.6815 C   0  0  0  0  0  0  0  0  0  0  0  0
  -33.0947  -23.0021   24.8192 C   0  0  1  0  0  0  0  0  0  1  0  0
  -29.7417  -27.5025   19.6124 C   0  0  1  0  0  0  0  0  0  0  0  0
  -31.2727  -25.4159   16.8426 C   0  0  2  0  0  0  0  0  0  0  0  0
  -28.2701  -27.9951   19.5159 C   0  0  0  0  0  0  0  0  0  0  0  0
  -31.9297  -18.7660   22.7025 N   0  0  0  0  0  0  0  0  0  0  0  0
  -25.8652  -11.6204   20.2619 N   0  0  0  0  0  0  0  0  0  0  0  0
  -29.5710  -20.3189   24.9599 N   0  0  0  0  0  0  0  0  0  0  0  0
  -35.2469  -21.9486   24.3926 N   0  0  0  0  0  0  0  0  0  0  0  0
  -26.2304  -12.9130   20.2184 N   0  0  0  0  0  0  0  0  0  0  0  0
  -31.3859  -28.3481   21.2572 N   0  0  0  0  0  0  0  0  0  0  0  0
  -29.9599  -13.7147   20.3972 N   0  0  0  0  0  0  0  0  0  0  0  0
  -25.4549  -15.1103   20.6443 N   0  0  0  0  0  0  0  0  0  0  0  0
  -21.9152  -12.5262   21.7349 N   0  0  0  0  0  0  0  0  0  0  0  0
  -30.0824  -15.7092   21.6499 N   0  0  0  0  0  0  0  0  0  0  0  0
  -31.7184  -21.0772   24.3192 N   0  0  0  0  0  0  0  0  0  0  0  0
  -30.9701  -31.4074   22.6127 N   0  0  0  0  0  0  0  0  0  0  0  0
  -30.2841  -26.9912   18.3583 N   0  0  0  0  0  0  0  0  0  0  0  0
  -32.4339  -24.4830   16.8903 N   0  3  0  0  0  0  0  0  0  0  0  0
  -22.6697  -14.6871   21.5933 O   0  0  0  0  0  0  0  0  0  0  0  0
  -30.8964  -29.4374   23.8521 O   0  0  0  0  0  0  0  0  0  0  0  0
  -30.7985  -29.6143   19.3896 O   0  0  0  0  0  0  0  0  0  0  0  0
  -30.9163  -22.6926   25.8128 O   0  0  0  0  0  0  0  0  0  0  0  0
  -30.8043  -24.8748   19.1503 O   0  0  0  0  0  0  0  0  0  0  0  0
  -31.8337  -15.0628   20.2727 O   0  0  0  0  0  0  0  0  0  0  0  0
  -21.6821   -6.9677   21.4459 O   0  0  0  0  0  0  0  0  0  0  0  0
  -33.1000  -24.2405   25.5283 O   0  0  0  0  0  0  0  0  0  1  0  0
  -18.7999   -6.4499   26.1181 F   0  0  0  0  0  0  0  0  0  0  0  0
  -22.1896   -4.8947   23.2031 F   0  0  0  0  0  0  0  0  0  0  0  0
  -29.6036  -17.7973   23.2801 S   0  0  0  0  0  0  0  0  0  0  0  0
  1  2  1  0  0  0  0
  1  5  2  0  0  0  0
  2  6  2  0  0  0  0
  3  8  2  0  0  0  0
  3 16  1  0  0  0  0
  4  9  1  0  0  0  0
  4 16  2  0  0  0  0
  5 18  1  0  0  0  0
  6 20  1  0  0  0  0
  7 10  2  0  0  0  0
  7 19  1  0  0  0  0
  8 22  1  0  0  0  0
  9 22  2  0  0  0  0
 10 23  1  0  0  0  0
 11 12  2  0  0  0  0
 11 24  1  0  0  0  0
 12 25  1  0  0  0  0
 13 21  1  0  0  0  0
 13 23  2  0  0  0  0
 14 25  2  0  0  0  0
 14 26  1  0  0  0  0
 15 29  2  0  0  0  0
 15 61  1  0  0  0  0
 16 27  1  0  0  0  0
 17 27  1  0  0  0  0
 17 28  2  0  0  0  0
 17 31  1  0  0  0  0
 18 20  2  0  0  0  0
 18 39  1  0  0  0  0
 19 21  2  0  0  0  0
 19 40  1  0  0  0  0
 20 48  1  0  0  0  0
 21 41  1  0  0  0  0
 22 81  1  0  0  0  0
 23 82  1  0  0  0  0
 24 26  2  0  0  0  0
 24 81  1  0  0  0  0
 25 83  1  0  0  0  0
 26 84  1  0  0  0  0
 27 62  2  0  0  0  0
 28 65  1  0  0  0  0
 28 68  1  0  0  0  0
 29 70  1  0  0  0  0
 29 85  1  0  0  0  0
 30 32  1  0  0  0  0
 30 61  2  0  0  0  0
 30 85  1  0  0  0  0
 31 69  1  0  0  0  0
 31 75  2  0  0  0  0
 32 63  2  0  0  0  0
 32 71  1  0  0  0  0
 33 49  1  0  0  0  0
 33 72  1  0  0  0  0
 33 76  2  0  0  0  0
 34 51  1  0  0  0  0
 34 57  1  0  0  0  0
 34 64  2  0  0  0  0
 35 58  1  0  0  0  0
 35 66  1  0  0  0  0
 35 77  2  0  0  0  0
 36 57  1  0  0  0  0
 36 71  1  0  0  0  0
 36 78  2  0  0  0  0
 37 59  1  0  0  0  0
 37 73  1  0  0  0  0
 37 79  2  0  0  0  0
 38 67  1  0  0  0  0
 38 70  1  0  0  0  0
 38 80  2  0  0  0  0
 39 42  1  0  0  0  0
 40 49  1  0  0  0  0
 41 66  1  0  0  0  0
 42 44  1  0  0  0  0
 43 45  1  0  0  0  0
 43 46  1  0  0  0  0
 44 48  1  0  0  0  0
 45 50  1  0  0  0  0
 46 67  1  0  0  0  0
 47 50  1  0  0  0  0
 47 67  1  0  0  0  0
 48 72  1  0  0  0  0
 49 66  1  0  0  0  0
 50 65  1  0  0  0  0
 52 59  1  0  0  0  0
 53 60  1  0  0  0  0
 54 60  1  0  0  0  0
 55 60  1  0  0  0  0
 56 74  1  0  0  0  0
 57 82  1  0  0  0  0
 58 60  1  0  0  0  0
 58 73  1  0  0  0  0
 59 74  1  0  0  0  0
 62 65  1  0  0  0  0
M  CHG  1  74   1
M  ISO  4  38 100  57 101  70 100  82 101
M  END
> <Batch ID>
0159

> <Smiles>
CNC(C)C(=O)NC(C(=O)N1Cc2cc([101O:1][101CH:1](C(C)=N)C(=O)NC(=N)c3ncc([100NH:0][100C:0](=O)N4CCCC(n5nc(-c6ccc(Oc7ccc(F)cc7F)cc6)c(C(N)=O)c5N)C4)s3)ccc2CC1C(=O)NC1CCCc2ccccc21)C(C)(C)C

> <Shape>
0.227

> <Color>
0.188

> <Negative vol penalty>
0.000

$$$$

  -OEChem-04052303473D

 93102  0     1  0  0  0  0  0999 V2000
  -23.1780   -7.9174   21.7799 C   0  0  0  0  0  0  0  0  0  0  0  0
  -24.2388   -8.8153   21.8426 C   0  0  0  0  0  0  0  0  0  0  0  0
  -21.8353  -28.4877   21.2236 C   0  0  0  0  0  0  0  0  0  0  0  0
  -22.9276  -27.7837   23.2603 C   0  0  0  0  0  0  0  0  0  0  0  0
  -21.9441   -8.3318   21.2801 C   0  0  0  0  0  0  0  0  0  0  0  0
  -24.0665  -10.1279   21.4045 C   0  0  0  0  0  0  0  0  0  0  0  0
  -26.0567  -13.5183   24.5966 C   0  0  0  0  0  0  0  0  0  0  0  0
  -20.6040  -28.4726   21.8787 C   0  0  0  0  0  0  0  0  0  0  0  0
  -21.6963  -27.7687   23.9155 C   0  0  0  0  0  0  0  0  0  0  0  0
  -27.4392  -13.6944   24.5578 C   0  0  0  0  0  0  0  0  0  0  0  0
  -18.8941  -30.4600   24.0141 C   0  0  0  0  0  0  0  0  0  0  0  0
  -18.0395  -31.5438   23.8129 C   0  0  0  0  0  0  0  0  0  0  0  0
  -27.1427  -15.6791   23.2191 C   0  0  0  0  0  0  0  0  0  0  0  0
  -29.9188  -20.3383   23.5448 C   0  0  0  0  0  0  0  0  0  0  0  0
  -29.2074  -22.6153   23.1629 C   0  0  0  0  0  0  0  0  0  0  0  0
  -29.3113  -21.0570   21.3196 C   0  0  0  0  0  0  0  0  0  0  0  0
  -16.3642  -30.0553   22.9102 C   0  0  0  0  0  0  0  0  0  0  0  0
  -22.9971  -28.1432   21.9143 C   0  0  0  0  0  0  0  0  0  0  0  0
  -25.1635  -29.2401   21.1326 C   0  0  0  0  0  0  0  0  0  0  0  0
  -21.7539   -9.6527   20.8447 C   0  0  0  0  0  0  0  0  0  0  0  0
  -25.2059  -14.4167   23.9367 C   0  0  0  0  0  0  0  0  0  0  0  0
  -22.8293  -10.5599   20.8972 C   0  0  0  0  0  0  0  0  0  0  0  0
  -25.7497  -15.5137   23.2532 C   0  0  0  0  0  0  0  0  0  0  0  0
  -29.6471  -21.6167   24.0319 C   0  0  0  0  0  0  0  0  0  0  0  0
  -29.7510  -20.0584   22.1886 C   0  0  0  0  0  0  0  0  0  0  0  0
  -29.0395  -22.3355   21.8067 C   0  0  0  0  0  0  0  0  0  0  0  0
  -20.5345  -28.1132   23.2247 C   0  0  0  0  0  0  0  0  0  0  0  0
  -27.9826  -14.7733   23.8666 C   0  0  0  0  0  0  0  0  0  0  0  0
  -18.4839  -29.1738   23.6633 C   0  0  0  0  0  0  0  0  0  0  0  0
  -16.7746  -31.3415   23.2610 C   0  0  0  0  0  0  0  0  0  0  0  0
  -17.2189  -28.9715   23.1114 C   0  0  0  0  0  0  0  0  0  0  0  0
  -24.2693  -28.1579   21.2380 C   0  0  0  0  0  0  0  0  0  0  0  0
  -30.2403  -16.8781   20.1996 C   0  0  0  0  0  0  0  0  0  0  0  0
  -26.2148  -28.7466   20.3992 C   0  0  0  0  0  0  0  0  0  0  0  0
  -30.2001  -16.2150   18.9909 C   0  0  0  0  0  0  0  0  0  0  0  0
  -30.8520  -14.8897   20.8938 C   0  0  0  0  0  0  0  0  0  0  0  0
  -25.0538  -30.5722   21.6513 C   0  0  0  0  0  0  0  0  0  0  0  0
  -29.9240  -18.2696   20.3748 C   0  0  0  0  0  0  0  0  0  0  0  0
  -23.1017  -14.1837   21.5657 C   0  0  0  0  0  0  0  0  0  0  0  0
  -30.4187  -13.4560   25.3501 C   0  0  0  0  0  0  0  0  0  0  0  0
  -22.4809  -17.2736   22.3336 C   0  0  0  0  0  0  0  0  0  0  0  0
  -23.5730  -20.1852   23.7396 C   0  0  0  0  0  0  0  0  0  0  0  0
  -28.3719  -23.2390   19.5519 C   0  0  0  0  0  0  0  0  0  0  0  0
  -20.4155  -10.0415   20.2682 C   0  0  0  0  0  0  0  0  0  0  0  0
  -23.7155  -14.2278   24.0106 C   0  0  0  0  0  0  0  0  0  0  0  0
  -24.8787  -16.5180   22.5454 C   0  0  0  0  0  0  0  0  0  0  0  0
  -20.2086  -11.5509   20.1730 C   0  0  0  0  0  0  0  0  0  0  0  0
  -27.2348  -25.4905   17.0389 C   0  0  0  0  0  0  0  0  0  0  0  0
  -21.4401  -12.2218   19.5728 C   0  0  0  0  0  0  0  0  0  0  0  0
  -26.4318  -26.5319   17.8217 C   0  0  0  0  0  0  0  0  0  0  0  0
  -27.0615  -24.0878   17.6186 C   0  0  0  0  0  0  0  0  0  0  0  0
  -26.5323  -25.0135   19.8394 C   0  0  0  0  0  0  0  0  0  0  0  0
  -22.6746  -11.9988   20.4546 C   0  0  1  0  0  0  0  0  0  0  0  0
  -22.9690  -14.9152   22.8715 C   0  0  1  0  0  0  0  0  0  0  0  0
  -26.7265  -26.4518   19.3324 C   0  0  2  0  0  0  0  0  0  0  0  0
  -30.5761  -12.0166   25.7513 C   0  0  0  0  0  0  0  0  0  0  0  0
  -22.8558  -22.5485   24.1840 C   0  0  0  0  0  0  0  0  0  0  0  0
  -22.9596  -17.9677   19.4011 C   0  0  0  0  0  0  0  0  0  0  0  0
  -23.1719  -20.3692   20.0764 C   0  0  0  0  0  0  0  0  0  0  0  0
  -21.0254  -19.1549   20.4519 C   0  0  0  0  0  0  0  0  0  0  0  0
  -23.8139  -19.8305   26.6679 C   0  0  0  0  0  0  0  0  0  0  0  0
  -31.4508  -14.0193   23.1542 C   0  0  0  0  0  0  0  0  0  0  0  0
  -30.1400  -13.7730   23.8927 C   0  0  2  0  0  0  0  0  0  1  0  0
  -23.0257  -18.6131   21.9002 C   0  0  1  0  0  0  0  0  0  0  0  0
  -22.9210  -21.1313   24.7317 C   0  0  2  0  0  0  0  0  0  0  0  0
  -22.5624  -19.0064   20.4690 C   0  0  0  0  0  0  0  0  0  0  0  0
  -24.7136  -27.0599   20.6208 N   0  0  0  0  0  0  0  0  0  0  0  0
  -30.6135  -16.1197   21.2919 N   0  0  0  0  0  0  0  0  0  0  0  0
  -30.5618  -14.3877   26.2365 N   0  0  0  0  0  0  0  0  0  0  0  0
  -25.8985  -27.4496   20.1205 N   0  0  0  0  0  0  0  0  0  0  0  0
  -23.4279  -16.2866   22.6412 N   0  0  0  0  0  0  0  0  0  0  0  0
  -27.3618  -24.0879   19.0520 N   0  0  0  0  0  0  0  0  0  0  0  0
  -29.8168  -21.8998   25.4034 N   0  0  0  0  0  0  0  0  0  0  0  0
  -27.3696  -29.3001   19.9720 N   0  0  0  0  0  0  0  0  0  0  0  0
  -29.8704  -16.7091   17.7725 N   0  0  0  0  0  0  0  0  0  0  0  0
  -23.9075  -30.9121   22.3827 N   0  0  0  0  0  0  0  0  0  0  0  0
  -30.0264  -18.7586   21.6940 N   0  0  0  0  0  0  0  0  0  0  0  0
  -28.5908  -23.3495   20.9246 N   0  0  0  0  0  0  0  0  0  0  0  0
  -31.2495  -13.8613   21.7323 N   0  0  0  0  0  0  0  0  0  0  0  0
  -22.6426  -12.8809   21.6015 N   0  0  0  0  0  0  0  0  0  0  0  0
  -22.6397  -19.5653   22.9359 N   0  0  0  0  0  0  0  0  0  0  0  0
  -23.6910  -21.1554   26.0074 N   0  3  0  0  0  0  0  0  0  0  0  0
  -25.9383  -31.4404   21.4577 O   0  0  0  0  0  0  0  0  0  0  0  0
  -29.5490  -18.9934   19.4302 O   0  0  0  0  0  0  0  0  0  0  0  0
  -23.5836  -14.7592   20.5971 O   0  0  0  0  0  0  0  0  0  0  0  0
  -21.2601  -17.1113   22.4037 O   0  0  0  0  0  0  0  0  0  0  0  0
  -24.7889  -20.0159   23.6808 O   0  0  0  0  0  0  0  0  0  0  0  0
  -29.0152  -22.4902   18.8120 O   0  0  0  0  0  0  0  0  0  0  0  0
  -19.3332  -28.0987   23.8644 O   0  0  0  0  0  0  0  0  0  0  0  0
  -29.3316  -14.9471   23.8266 O   0  0  0  0  0  0  0  0  0  1  0  0
  -15.9534  -32.3822   23.0693 F   0  0  0  0  0  0  0  0  0  0  0  0
  -16.8187  -27.7380   22.7735 F   0  0  0  0  0  0  0  0  0  0  0  0
  -30.6476  -14.5752   19.2192 S   0  0  0  0  0  0  0  0  0  0  0  0
  1  2  1  0  0  0  0
  1  5  2  0  0  0  0
  2  6  2  0  0  0  0
  3  8  2  0  0  0  0
  3 18  1  0  0  0  0
  4  9  1  0  0  0  0
  4 18  2  0  0  0  0
  5 20  1  0  0  0  0
  6 22  1  0  0  0  0
  7 10  2  0  0  0  0
  7 21  1  0  0  0  0
  8 27  1  0  0  0  0
  9 27  2  0  0  0  0
 10 28  1  0  0  0  0
 11 12  2  0  0  0  0
 11 29  1  0  0  0  0
 12 30  1  0  0  0  0
 13 23  1  0  0  0  0
 13 28  2  0  0  0  0
 14 24  2  0  0  0  0
 14 25  1  0  0  0  0
 15 24  1  0  0  0  0
 15 26  2  0  0  0  0
 16 25  2  0  0  0  0
 16 26  1  0  0  0  0
 17 30  2  0  0  0  0
 17 31  1  0  0  0  0
 18 32  1  0  0  0  0
 19 32  1  0  0  0  0
 19 34  2  0  0  0  0
 19 37  1  0  0  0  0
 20 22  2  0  0  0  0
 20 44  1  0  0  0  0
 21 23  2  0  0  0  0
 21 45  1  0  0  0  0
 22 53  1  0  0  0  0
 23 46  1  0  0  0  0
 24 73  1  0  0  0  0
 25 77  1  0  0  0  0
 26 78  1  0  0  0  0
 27 89  1  0  0  0  0
 28 90  1  0  0  0  0
 29 31  2  0  0  0  0
 29 89  1  0  0  0  0
 30 91  1  0  0  0  0
 31 92  1  0  0  0  0
 32 67  2  0  0  0  0
 33 35  2  0  0  0  0
 33 38  1  0  0  0  0
 33 68  1  0  0  0  0
 34 70  1  0  0  0  0
 34 74  1  0  0  0  0
 35 75  1  0  0  0  0
 35 93  1  0  0  0  0
 36 68  2  0  0  0  0
 36 79  1  0  0  0  0
 36 93  1  0  0  0  0
 37 76  1  0  0  0  0
 37 83  2  0  0  0  0
 38 77  1  0  0  0  0
 38 84  2  0  0  0  0
 39 54  1  0  0  0  0
 39 80  1  0  0  0  0
 39 85  2  0  0  0  0
 40 56  1  0  0  0  0
 40 63  1  0  0  0  0
 40 69  2  0  0  0  0
 41 64  1  0  0  0  0
 41 71  1  0  0  0  0
 41 86  2  0  0  0  0
 42 65  1  0  0  0  0
 42 81  1  0  0  0  0
 42 87  2  0  0  0  0
 43 72  1  0  0  0  0
 43 78  1  0  0  0  0
 43 88  2  0  0  0  0
 44 47  1  0  0  0  0
 45 54  1  0  0  0  0
 46 71  1  0  0  0  0
 47 49  1  0  0  0  0
 48 50  1  0  0  0  0
 48 51  1  0  0  0  0
 49 53  1  0  0  0  0
 50 55  1  0  0  0  0
 51 72  1  0  0  0  0
 52 55  1  0  0  0  0
 52 72  1  0  0  0  0
 53 80  1  0  0  0  0
 54 71  1  0  0  0  0
 55 70  1  0  0  0  0
 57 65  1  0  0  0  0
 58 66  1  0  0  0  0
 59 66  1  0  0  0  0
 60 66  1  0  0  0  0
 61 82  1  0  0  0  0
 62 63  1  0  0  0  0
 62 79  1  0  0  0  0
 63 90  1  0  0  0  0
 64 66  1  0  0  0  0
 64 81  1  0  0  0  0
 65 82  1  0  0  0  0
 67 70  1  0  0  0  0
M  CHG  1  82   1
M  ISO  4  43 100  63 101  78 100  90 101
M  END
> <Batch ID>
0159

> <Smiles>
CNC(C)C(=O)NC(C(=O)N1Cc2cc([101O:1][101CH:1](CNc3nc(C(=O)Nc4cc(N)cc([100NH:0][100C:0](=O)N5CCCC(n6nc(-c7ccc(Oc8ccc(F)cc8F)cc7)c(C(N)=O)c6N)C5)c4)c(N)s3)C(C)=N)ccc2CC1C(=O)NC1CCCc2ccccc21)C(C)(C)C

> <Shape>
0.247

> <Color>
0.059

> <Negative vol penalty>
0.000

$$$$

  -OEChem-04052303473D

 84 92  0     1  0  0  0  0  0999 V2000
  -16.8206  -28.7142   24.4942 C   0  0  0  0  0  0  0  0  0  0  0  0
  -17.8845  -27.8205   24.5632 C   0  0  0  0  0  0  0  0  0  0  0  0
  -22.9706  -10.1590   21.6319 C   0  0  0  0  0  0  0  0  0  0  0  0
  -23.8002  -11.1943   23.6511 C   0  0  0  0  0  0  0  0  0  0  0  0
  -16.8123  -29.7125   23.5209 C   0  0  0  0  0  0  0  0  0  0  0  0
  -18.9404  -27.9240   23.6582 C   0  0  0  0  0  0  0  0  0  0  0  0
  -24.8503  -26.7428   24.7458 C   0  0  0  0  0  0  0  0  0  0  0  0
  -22.1917   -9.2909   22.3970 C   0  0  0  0  0  0  0  0  0  0  0  0
  -23.0213  -10.3262   24.4162 C   0  0  0  0  0  0  0  0  0  0  0  0
  -25.6467  -25.6277   24.4889 C   0  0  0  0  0  0  0  0  0  0  0  0
  -19.2614   -9.4013   24.0805 C   0  0  0  0  0  0  0  0  0  0  0  0
  -17.9394   -9.1973   23.6850 C   0  0  0  0  0  0  0  0  0  0  0  0
  -26.4156  -26.6549   22.4462 C   0  0  0  0  0  0  0  0  0  0  0  0
  -32.0196  -17.3743   19.5383 C   0  0  0  0  0  0  0  0  0  0  0  0
  -18.3846   -6.8382   23.4139 C   0  0  0  0  0  0  0  0  0  0  0  0
  -23.7749  -11.1107   22.2590 C   0  0  0  0  0  0  0  0  0  0  0  0
  -24.2079  -13.2715   20.9742 C   0  0  0  0  0  0  0  0  0  0  0  0
  -17.8732  -29.8342   22.6097 C   0  0  0  0  0  0  0  0  0  0  0  0
  -24.8223  -27.8195   23.8478 C   0  0  0  0  0  0  0  0  0  0  0  0
  -18.9456  -28.9240   22.6710 C   0  0  0  0  0  0  0  0  0  0  0  0
  -25.6200  -27.7836   22.6952 C   0  0  0  0  0  0  0  0  0  0  0  0
  -32.0227  -18.7884   19.5960 C   0  0  0  0  0  0  0  0  0  0  0  0
  -22.2170   -9.3745   23.7891 C   0  0  0  0  0  0  0  0  0  0  0  0
  -26.4273  -25.5823   23.3375 C   0  0  0  0  0  0  0  0  0  0  0  0
  -20.1450   -8.3237   24.1425 C   0  0  0  0  0  0  0  0  0  0  0  0
  -17.5010   -7.9158   23.3518 C   0  0  0  0  0  0  0  0  0  0  0  0
  -19.7066   -7.0422   23.8092 C   0  0  0  0  0  0  0  0  0  0  0  0
  -24.5801  -12.0073   21.4692 C   0  0  0  0  0  0  0  0  0  0  0  0
  -25.3159  -13.7134   20.2934 C   0  0  0  0  0  0  0  0  0  0  0  0
  -30.7990  -16.9746   20.0305 C   0  0  0  0  0  0  0  0  0  0  0  0
  -30.8036  -19.1521   20.1191 C   0  0  0  0  0  0  0  0  0  0  0  0
  -28.7645  -22.1546   21.0916 C   0  0  0  0  0  0  0  0  0  0  0  0
  -22.9713  -13.9829   21.1170 C   0  0  0  0  0  0  0  0  0  0  0  0
  -27.6358  -22.6904   21.5840 C   0  0  0  0  0  0  0  0  0  0  0  0
  -28.9828  -20.6813   20.9405 C   0  0  0  0  0  0  0  0  0  0  0  0
  -22.5801  -29.1926   22.0615 C   0  0  0  0  0  0  0  0  0  0  0  0
  -24.9385  -31.3298   21.4350 C   0  0  0  0  0  0  0  0  0  0  0  0
  -28.2830  -31.9901   21.2769 C   0  0  0  0  0  0  0  0  0  0  0  0
  -30.8205  -14.4584   19.9090 C   0  0  0  0  0  0  0  0  0  0  0  0
  -17.7972  -30.9000   21.5452 C   0  0  0  0  0  0  0  0  0  0  0  0
  -23.9783  -29.0266   24.1528 C   0  0  0  0  0  0  0  0  0  0  0  0
  -25.6410  -28.9222   21.7096 C   0  0  0  0  0  0  0  0  0  0  0  0
  -19.1343  -31.1748   20.8618 C   0  0  0  0  0  0  0  0  0  0  0  0
  -29.5436  -11.2770   18.9470 C   0  0  0  0  0  0  0  0  0  0  0  0
  -19.8179  -29.8655   20.4805 C   0  0  0  0  0  0  0  0  0  0  0  0
  -28.1078  -11.2874   19.4767 C   0  0  0  0  0  0  0  0  0  0  0  0
  -30.5031  -11.9938   19.8953 C   0  0  0  0  0  0  0  0  0  0  0  0
  -28.6682  -13.3670   20.7989 C   0  0  0  0  0  0  0  0  0  0  0  0
  -20.1212  -29.0193   21.7228 C   0  0  1  0  0  0  0  0  0  0  0  0
  -23.6340  -29.8440   22.9116 C   0  0  1  0  0  0  0  0  0  0  0  0
  -27.6538  -12.7132   19.8464 C   0  0  2  0  0  0  0  0  0  0  0  0
  -33.1167  -19.6836   19.1762 C   0  0  0  0  0  0  0  0  0  0  0  0
  -29.9056  -33.8141   20.6958 C   0  0  0  0  0  0  0  0  0  0  0  0
  -24.4228  -30.8399   18.4678 C   0  0  0  0  0  0  0  0  0  0  0  0
  -26.6319  -31.9115   17.9783 C   0  0  0  0  0  0  0  0  0  0  0  0
  -24.8228  -33.2325   19.0760 C   0  0  0  0  0  0  0  0  0  0  0  0
  -29.4072  -32.0214   24.0145 C   0  0  0  0  0  0  0  0  0  0  0  0
  -27.4447  -24.1726   21.7147 C   0  0  0  0  0  0  0  0  0  1  0  0
  -26.0285  -31.4454   20.3969 C   0  0  1  0  0  0  0  0  0  0  0  0
  -29.1069  -33.1499   21.8065 C   0  0  2  0  0  0  0  0  0  0  0  0
  -25.4748  -31.8349   18.9971 C   0  0  0  0  0  0  0  0  0  0  0  0
  -25.8270  -11.6680   21.1315 N   0  0  0  0  0  0  0  0  0  0  0  0
  -26.2480  -12.7254   20.4169 N   0  0  0  0  0  0  0  0  0  0  0  0
  -24.7940  -30.0776   22.0490 N   0  0  0  0  0  0  0  0  0  0  0  0
  -30.0107  -13.3396   20.1974 N   0  0  0  0  0  0  0  0  0  0  0  0
  -25.5741  -14.8469   19.6070 N   0  0  0  0  0  0  0  0  0  0  0  0
  -21.9366  -13.3838   21.8484 N   0  0  0  0  0  0  0  0  0  0  0  0
  -30.2387  -20.4193   20.4062 N   0  0  0  0  0  0  0  0  0  0  0  0
  -30.2340  -15.6874   20.2091 N   0  0  0  0  0  0  0  0  0  0  0  0
  -21.2868  -29.5315   22.4110 N   0  0  0  0  0  0  0  0  0  0  0  0
  -27.0068  -32.3844   20.9350 N   0  0  0  0  0  0  0  0  0  0  0  0
  -30.0587  -32.6751   22.8504 N   0  3  0  0  0  0  0  0  0  0  0  0
  -22.7835  -15.1089   20.5972 O   0  0  0  0  0  0  0  0  0  0  0  0
  -28.1266  -19.8676   21.2647 O   0  0  0  0  0  0  0  0  0  0  0  0
  -22.9154  -28.4396   21.1548 O   0  0  0  0  0  0  0  0  0  0  0  0
  -24.2457  -32.3163   21.6967 O   0  0  0  0  0  0  0  0  0  0  0  0
  -28.7284  -30.8493   21.1732 O   0  0  0  0  0  0  0  0  0  0  0  0
  -31.9403  -14.3365   19.4058 O   0  0  0  0  0  0  0  0  0  0  0  0
  -30.0517  -18.0522   20.3866 O   0  0  0  0  0  0  0  0  0  0  0  0
  -26.5657  -21.9160   21.9861 O   0  0  0  0  0  0  0  0  0  0  0  0
  -21.4569   -8.5277   24.5360 O   0  0  0  0  0  0  0  0  0  0  0  0
  -27.2051  -24.4948   23.0840 O   0  0  0  0  0  0  0  0  0  1  0  0
  -16.2311   -7.7198   22.9736 F   0  0  0  0  0  0  0  0  0  0  0  0
  -20.5505   -6.0029   23.8681 F   0  0  0  0  0  0  0  0  0  0  0  0
  1  2  1  0  0  0  0
  1  5  2  0  0  0  0
  2  6  2  0  0  0  0
  3  8  2  0  0  0  0
  3 16  1  0  0  0  0
  4  9  1  0  0  0  0
  4 16  2  0  0  0  0
  5 18  1  0  0  0  0
  6 20  1  0  0  0  0
  7 10  2  0  0  0  0
  7 19  1  0  0  0  0
  8 23  1  0  0  0  0
  9 23  2  0  0  0  0
 10 24  1  0  0  0  0
 11 12  2  0  0  0  0
 11 25  1  0  0  0  0
 12 26  1  0  0  0  0
 13 21  1  0  0  0  0
 13 24  2  0  0  0  0
 14 22  1  0  0  0  0
 14 30  2  0  0  0  0
 15 26  2  0  0  0  0
 15 27  1  0  0  0  0
 16 28  1  0  0  0  0
 17 28  1  0  0  0  0
 17 29  2  0  0  0  0
 17 33  1  0  0  0  0
 18 20  2  0  0  0  0
 18 40  1  0  0  0  0
 19 21  2  0  0  0  0
 19 41  1  0  0  0  0
 20 49  1  0  0  0  0
 21 42  1  0  0  0  0
 22 31  2  0  0  0  0
 22 52  1  0  0  0  0
 23 81  1  0  0  0  0
 24 82  1  0  0  0  0
 25 27  2  0  0  0  0
 25 81  1  0  0  0  0
 26 83  1  0  0  0  0
 27 84  1  0  0  0  0
 28 62  2  0  0  0  0
 29 63  1  0  0  0  0
 29 66  1  0  0  0  0
 30 69  1  0  0  0  0
 30 79  1  0  0  0  0
 31 68  1  0  0  0  0
 31 79  1  0  0  0  0
 32 34  2  0  0  0  0
 32 35  1  0  0  0  0
 33 67  1  0  0  0  0
 33 73  2  0  0  0  0
 34 58  1  0  0  0  0
 34 80  1  0  0  0  0
 35 68  1  0  0  0  0
 35 74  2  0  0  0  0
 36 50  1  0  0  0  0
 36 70  1  0  0  0  0
 36 75  2  0  0  0  0
 37 59  1  0  0  0  0
 37 64  1  0  0  0  0
 37 76  2  0  0  0  0
 38 60  1  0  0  0  0
 38 71  1  0  0  0  0
 38 77  2  0  0  0  0
 39 65  1  0  0  0  0
 39 69  1  0  0  0  0
 39 78  2  0  0  0  0
 40 43  1  0  0  0  0
 41 50  1  0  0  0  0
 42 64  1  0  0  0  0
 43 45  1  0  0  0  0
 44 46  1  0  0  0  0
 44 47  1  0  0  0  0
 45 49  1  0  0  0  0
 46 51  1  0  0  0  0
 47 65  1  0  0  0  0
 48 51  1  0  0  0  0
 48 65  1  0  0  0  0
 49 70  1  0  0  0  0
 50 64  1  0  0  0  0
 51 63  1  0  0  0  0
 53 60  1  0  0  0  0
 54 61  1  0  0  0  0
 55 61  1  0  0  0  0
 56 61  1  0  0  0  0
 57 72  1  0  0  0  0
 58 82  1  0  0  0  0
 59 61  1  0  0  0  0
 59 71  1  0  0  0  0
 60 72  1  0  0  0  0
 62 63  1  0  0  0  0
M  CHG  1  72   1
M  ISO  4  39 100  58 101  69 100  82 101
M  END
> <Batch ID>
0159

> <Smiles>
CNC(C)C(=O)NC(C(=O)N1Cc2cc([101O:1][101CH2:1]C(=O)CC(=O)Nc3oc([100NH:0][100C:0](=O)N4CCCC(n5nc(-c6ccc(Oc7ccc(F)cc7F)cc6)c(C(N)=O)c5N)C4)cc3C)ccc2CC1C(=O)NC1CCCc2ccccc21)C(C)(C)C

> <Shape>
0.245

> <Color>
0.152

> <Negative vol penalty>
0.000

$$$$

  -OEChem-04052303473D

 89 97  0     1  0  0  0  0  0999 V2000
  -18.8263  -25.7378   22.7422 C   0  0  0  0  0  0  0  0  0  0  0  0
  -20.2069  -25.7750   22.5752 C   0  0  0  0  0  0  0  0  0  0  0  0
  -23.6836   -9.6503   21.8658 C   0  0  0  0  0  0  0  0  0  0  0  0
  -24.2793  -11.0002   23.7789 C   0  0  0  0  0  0  0  0  0  0  0  0
  -18.0723  -26.8970   22.5643 C   0  0  0  0  0  0  0  0  0  0  0  0
  -20.8342  -26.9713   22.2290 C   0  0  0  0  0  0  0  0  0  0  0  0
  -25.0192  -27.8282   24.9486 C   0  0  0  0  0  0  0  0  0  0  0  0
  -23.1425   -8.6853   22.7153 C   0  0  0  0  0  0  0  0  0  0  0  0
  -23.7382  -10.0352   24.6284 C   0  0  0  0  0  0  0  0  0  0  0  0
  -26.1691  -27.1285   24.5853 C   0  0  0  0  0  0  0  0  0  0  0  0
  -20.2954   -8.2377   24.4835 C   0  0  0  0  0  0  0  0  0  0  0  0
  -19.0520   -7.7023   24.1475 C   0  0  0  0  0  0  0  0  0  0  0  0
  -31.1366  -18.2877   20.1716 C   0  0  0  0  0  0  0  0  0  0  0  0
  -30.5102  -20.5690   20.6617 C   0  0  0  0  0  0  0  0  0  0  0  0
  -26.9771  -29.0765   23.4141 C   0  0  0  0  0  0  0  0  0  0  0  0
  -28.8026  -18.8960   20.3119 C   0  0  0  0  0  0  0  0  0  0  0  0
  -20.0338   -5.4980   24.0274 C   0  0  0  0  0  0  0  0  0  0  0  0
  -24.2521  -10.8078   22.3976 C   0  0  0  0  0  0  0  0  0  0  0  0
  -31.4970  -19.6058   20.4516 C   0  0  0  0  0  0  0  0  0  0  0  0
  -24.1455  -12.9063   20.9511 C   0  0  0  0  0  0  0  0  0  0  0  0
  -18.6917  -28.1102   22.2252 C   0  0  0  0  0  0  0  0  0  0  0  0
  -24.8344  -29.1561   24.5375 C   0  0  0  0  0  0  0  0  0  0  0  0
  -20.0876  -28.1475   22.0450 C   0  0  0  0  0  0  0  0  0  0  0  0
  -25.8252  -29.7916   23.7757 C   0  0  0  0  0  0  0  0  0  0  0  0
  -29.7894  -17.9328   20.1017 C   0  0  0  0  0  0  0  0  0  0  0  0
  -29.1630  -20.2141   20.5919 C   0  0  0  0  0  0  0  0  0  0  0  0
  -23.1698   -8.8777   24.0965 C   0  0  0  0  0  0  0  0  0  0  0  0
  -27.1469  -27.7517   23.8155 C   0  0  0  0  0  0  0  0  0  0  0  0
  -21.4080   -7.4034   24.5913 C   0  0  0  0  0  0  0  0  0  0  0  0
  -18.9212   -6.3324   23.9195 C   0  0  0  0  0  0  0  0  0  0  0  0
  -21.2772   -6.0335   24.3633 C   0  0  0  0  0  0  0  0  0  0  0  0
  -24.8117  -11.8047   21.5207 C   0  0  0  0  0  0  0  0  0  0  0  0
  -25.1079  -13.5411   20.2046 C   0  0  0  0  0  0  0  0  0  0  0  0
  -32.8934  -19.9739   20.5231 C   0  0  0  0  0  0  0  0  0  0  0  0
  -22.7789  -13.3189   21.0849 C   0  0  0  0  0  0  0  0  0  0  0  0
  -27.2334  -24.7805   21.5986 C   0  0  0  0  0  0  0  0  0  0  0  0
  -27.1655  -23.3026   21.2700 C   0  0  0  0  0  0  0  0  0  0  0  0
  -22.6993  -30.6691   22.7330 C   0  0  0  0  0  0  0  0  0  0  0  0
  -24.3146  -33.3049   23.7158 C   0  0  0  0  0  0  0  0  0  0  0  0
  -27.2186  -34.6482   24.9030 C   0  0  0  0  0  0  0  0  0  0  0  0
  -30.2771  -15.5157   19.5859 C   0  0  0  0  0  0  0  0  0  0  0  0
  -17.8297  -29.3266   21.9970 C   0  0  0  0  0  0  0  0  0  0  0  0
  -23.6007  -29.9056   24.9603 C   0  0  0  0  0  0  0  0  0  0  0  0
  -25.6841  -31.2221   23.3259 C   0  0  0  0  0  0  0  0  0  0  0  0
  -18.6128  -30.6369   21.9976 C   0  0  0  0  0  0  0  0  0  0  0  0
  -29.7671  -12.0609   18.8921 C   0  0  0  0  0  0  0  0  0  0  0  0
  -19.8677  -30.5092   21.1399 C   0  0  0  0  0  0  0  0  0  0  0  0
  -28.3776  -11.7769   19.4672 C   0  0  0  0  0  0  0  0  0  0  0  0
  -30.5467  -13.0512   19.7554 C   0  0  0  0  0  0  0  0  0  0  0  0
  -28.4555  -14.0240   20.6212 C   0  0  0  0  0  0  0  0  0  0  0  0
  -20.8074  -29.4315   21.6939 C   0  0  1  0  0  0  0  0  0  0  0  0
  -23.2808  -31.0897   24.0531 C   0  0  1  0  0  0  0  0  0  0  0  0
  -27.6078  -13.0816   19.7511 C   0  0  2  0  0  0  0  0  0  0  0  0
  -28.2470  -36.8367   25.5739 C   0  0  0  0  0  0  0  0  0  0  0  0
  -29.8268  -27.6214   21.7472 C   0  0  0  0  0  0  0  0  0  0  0  0
  -24.6246  -34.0579   20.7752 C   0  0  0  0  0  0  0  0  0  0  0  0
  -26.4183  -35.6694   21.4490 C   0  0  0  0  0  0  0  0  0  0  0  0
  -24.0902  -35.9733   22.2919 C   0  0  0  0  0  0  0  0  0  0  0  0
  -27.6667  -33.7197   27.6772 C   0  0  0  0  0  0  0  0  0  0  0  0
  -28.6002  -25.4222   21.7198 C   0  0  0  0  0  0  0  0  0  0  0  0
  -28.4622  -22.5552   21.0958 C   0  0  0  0  0  0  0  0  0  0  0  0
  -25.5017  -34.0842   23.2034 C   0  0  1  0  0  0  0  0  0  0  0  0
  -27.4909  -35.6057   26.0490 C   0  0  2  0  0  0  0  0  0  0  0  0
  -28.5174  -26.9120   22.0625 C   0  0  1  0  0  0  0  0  0  1  0  0
  -25.1607  -34.9186   21.9365 C   0  0  0  0  0  0  0  0  0  0  0  0
  -26.0979  -11.7403   21.1663 N   0  0  0  0  0  0  0  0  0  0  0  0
  -26.2476  -12.8094   20.3658 N   0  0  0  0  0  0  0  0  0  0  0  0
  -24.4572  -31.9107   23.7594 N   0  0  0  0  0  0  0  0  0  0  0  0
  -29.7571  -14.2643   19.9788 N   0  0  0  0  0  0  0  0  0  0  0  0
  -25.0820  -14.6481   19.4324 N   0  0  0  0  0  0  0  0  0  0  0  0
  -33.8516  -19.0536   20.3214 N   0  0  0  0  0  0  0  0  0  0  0  0
  -21.9255  -12.5527   21.8905 N   0  0  0  0  0  0  0  0  0  0  0  0
  -29.4235  -16.5936   19.8185 N   0  0  0  0  0  0  0  0  0  0  0  0
  -28.1820  -21.1717   20.8011 N   0  0  0  0  0  0  0  0  0  0  0  0
  -21.5336  -29.9349   22.8401 N   0  0  0  0  0  0  0  0  0  0  0  0
  -25.9861  -34.8767   24.3284 N   0  0  0  0  0  0  0  0  0  0  0  0
  -33.2511  -21.2412   20.7903 N   0  3  0  0  0  0  0  0  0  0  0  0
  -28.3018  -34.9341   27.1036 N   0  3  0  0  0  0  0  0  0  0  0  0
  -22.3239  -14.3276   20.4942 O   0  0  0  0  0  0  0  0  0  0  0  0
  -26.1696  -25.3688   21.7428 O   0  0  0  0  0  0  0  0  0  0  0  0
  -26.0510  -22.8049   21.1727 O   0  0  0  0  0  0  0  0  0  0  0  0
  -23.2656  -30.9883   21.6942 O   0  0  0  0  0  0  0  0  0  0  0  0
  -23.3009  -33.9113   24.0712 O   0  0  0  0  0  0  0  0  0  0  0  0
  -28.0206  -33.7863   24.5502 O   0  0  0  0  0  0  0  0  0  0  0  0
  -31.3861  -15.6201   19.0555 O   0  0  0  0  0  0  0  0  0  0  0  0
  -22.6416   -7.9364   24.9257 O   0  0  0  0  0  0  0  0  0  0  0  0
  -28.2699  -27.0708   23.4589 O   0  0  0  0  0  0  0  0  0  1  0  0
  -17.7268   -5.8181   23.5984 F   0  0  0  0  0  0  0  0  0  0  0  0
  -22.3423   -5.2267   24.4665 F   0  0  0  0  0  0  0  0  0  0  0  0
  1  2  1  0  0  0  0
  1  5  2  0  0  0  0
  2  6  2  0  0  0  0
  3  8  2  0  0  0  0
  3 18  1  0  0  0  0
  4  9  1  0  0  0  0
  4 18  2  0  0  0  0
  5 21  1  0  0  0  0
  6 23  1  0  0  0  0
  7 10  2  0  0  0  0
  7 22  1  0  0  0  0
  8 27  1  0  0  0  0
  9 27  2  0  0  0  0
 10 28  1  0  0  0  0
 11 12  2  0  0  0  0
 11 29  1  0  0  0  0
 12 30  1  0  0  0  0
 13 19  2  0  0  0  0
 13 25  1  0  0  0  0
 14 19  1  0  0  0  0
 14 26  2  0  0  0  0
 15 24  1  0  0  0  0
 15 28  2  0  0  0  0
 16 25  2  0  0  0  0
 16 26  1  0  0  0  0
 17 30  2  0  0  0  0
 17 31  1  0  0  0  0
 18 32  1  0  0  0  0
 19 34  1  0  0  0  0
 20 32  1  0  0  0  0
 20 33  2  0  0  0  0
 20 35  1  0  0  0  0
 21 23  2  0  0  0  0
 21 42  1  0  0  0  0
 22 24  2  0  0  0  0
 22 43  1  0  0  0  0
 23 51  1  0  0  0  0
 24 44  1  0  0  0  0
 25 73  1  0  0  0  0
 26 74  1  0  0  0  0
 27 86  1  0  0  0  0
 28 87  1  0  0  0  0
 29 31  2  0  0  0  0
 29 86  1  0  0  0  0
 30 88  1  0  0  0  0
 31 89  1  0  0  0  0
 32 66  2  0  0  0  0
 33 67  1  0  0  0  0
 33 70  1  0  0  0  0
 34 71  1  0  0  0  0
 34 77  2  0  0  0  0
 35 72  1  0  0  0  0
 35 79  2  0  0  0  0
 36 37  1  0  0  0  0
 36 60  1  0  0  0  0
 36 80  2  0  0  0  0
 37 61  1  0  0  0  0
 37 81  2  0  0  0  0
 38 52  1  0  0  0  0
 38 75  1  0  0  0  0
 38 82  2  0  0  0  0
 39 62  1  0  0  0  0
 39 68  1  0  0  0  0
 39 83  2  0  0  0  0
 40 63  1  0  0  0  0
 40 76  1  0  0  0  0
 40 84  2  0  0  0  0
 41 69  1  0  0  0  0
 41 73  1  0  0  0  0
 41 85  2  0  0  0  0
 42 45  1  0  0  0  0
 43 52  1  0  0  0  0
 44 68  1  0  0  0  0
 45 47  1  0  0  0  0
 46 48  1  0  0  0  0
 46 49  1  0  0  0  0
 47 51  1  0  0  0  0
 48 53  1  0  0  0  0
 49 69  1  0  0  0  0
 50 53  1  0  0  0  0
 50 69  1  0  0  0  0
 51 75  1  0  0  0  0
 52 68  1  0  0  0  0
 53 67  1  0  0  0  0
 54 63  1  0  0  0  0
 55 64  1  0  0  0  0
 56 65  1  0  0  0  0
 57 65  1  0  0  0  0
 58 65  1  0  0  0  0
 59 78  1  0  0  0  0
 60 64  1  0  0  0  0
 61 74  1  0  0  0  0
 62 65  1  0  0  0  0
 62 76  1  0  0  0  0
 63 78  1  0  0  0  0
 64 87  1  0  0  0  0
 66 67  1  0  0  0  0
M  CHG  2  77   1  78   1
M  ISO  4  41 100  64 101  73 100  87 101
M  END
> <Batch ID>
0159

> <Smiles>
CNC(C)C(=O)NC(C(=O)N1Cc2cc([101O:1][101CH:1](C)CC(=O)C(=O)CNc3cc([100NH:0][100C:0](=O)N4CCCC(n5nc(-c6ccc(Oc7ccc(F)cc7F)cc6)c(C(N)=O)c5N)C4)cc(C(=N)N)c3)ccc2CC1C(=O)NC1CCCc2ccccc21)C(C)(C)C

> <Shape>
0.320

> <Color>
0.123

> <Negative vol penalty>
0.000

$$$$

  -OEChem-04052303473D

 86 95  0     1  0  0  0  0  0999 V2000
  -29.2814  -37.2680   22.0946 C   0  0  0  0  0  0  0  0  0  0  0  0
  -29.5388  -35.9974   21.5899 C   0  0  0  0  0  0  0  0  0  0  0  0
  -25.9604  -13.1780   21.4020 C   0  0  0  0  0  0  0  0  0  0  0  0
  -26.0018  -15.2339   20.1337 C   0  0  0  0  0  0  0  0  0  0  0  0
  -28.3777  -37.4302   23.1438 C   0  0  0  0  0  0  0  0  0  0  0  0
  -28.8933  -34.8880   22.1349 C   0  0  0  0  0  0  0  0  0  0  0  0
  -27.0602  -29.8624   19.1534 C   0  0  0  0  0  0  0  0  0  0  0  0
  -24.5700  -13.1412   21.2970 C   0  0  0  0  0  0  0  0  0  0  0  0
  -24.6114  -15.1971   20.0287 C   0  0  0  0  0  0  0  0  0  0  0  0
  -27.6286  -28.5975   19.0095 C   0  0  0  0  0  0  0  0  0  0  0  0
  -22.2972  -13.5762   18.1746 C   0  0  0  0  0  0  0  0  0  0  0  0
  -21.7358  -13.8434   16.9260 C   0  0  0  0  0  0  0  0  0  0  0  0
  -26.2744  -27.7880   20.8344 C   0  0  0  0  0  0  0  0  0  0  0  0
  -32.9415  -22.2263   20.6207 C   0  0  0  0  0  0  0  0  0  0  0  0
  -20.5402  -15.7209   17.8655 C   0  0  0  0  0  0  0  0  0  0  0  0
  -34.3776  -22.2609   22.4479 C   0  0  0  0  0  0  0  0  0  0  0  0
  -26.6763  -14.2243   20.8204 C   0  0  0  0  0  0  0  0  0  0  0  0
  -29.0266  -13.2988   20.4640 C   0  0  0  0  0  0  0  0  0  0  0  0
  -27.7135  -36.3233   23.6955 C   0  0  0  0  0  0  0  0  0  0  0  0
  -26.1011  -30.1028   20.1477 C   0  0  0  0  0  0  0  0  0  0  0  0
  -27.9808  -35.0354   23.1934 C   0  0  0  0  0  0  0  0  0  0  0  0
  -25.6936  -29.0562   20.9872 C   0  0  0  0  0  0  0  0  0  0  0  0
  -33.3905  -21.5560   21.7951 C   0  0  0  0  0  0  0  0  0  0  0  0
  -23.8955  -14.1507   20.6104 C   0  0  0  0  0  0  0  0  0  0  0  0
  -27.2378  -27.5608   19.8519 C   0  0  0  0  0  0  0  0  0  0  0  0
  -21.9800  -14.3812   19.2687 C   0  0  0  0  0  0  0  0  0  0  0  0
  -20.8573  -14.9158   16.7714 C   0  0  0  0  0  0  0  0  0  0  0  0
  -21.1015  -15.4536   19.1141 C   0  0  0  0  0  0  0  0  0  0  0  0
  -28.1126  -14.2632   20.9290 C   0  0  0  0  0  0  0  0  0  0  0  0
  -33.6026  -23.4184   20.4208 C   0  0  0  0  0  0  0  0  0  0  0  0
  -30.2585  -13.7988   20.8090 C   0  0  0  0  0  0  0  0  0  0  0  0
  -28.7839  -12.0617   19.7811 C   0  0  0  0  0  0  0  0  0  0  0  0
  -33.3461  -24.3287   19.2905 C   0  0  0  0  0  0  0  0  0  0  0  0
  -25.9362  -31.9984   22.6940 C   0  0  0  0  0  0  0  0  0  0  0  0
  -22.8925  -30.8863   22.8402 C   0  0  0  0  0  0  0  0  0  0  0  0
  -20.6680  -28.4206   22.0536 C   0  0  0  0  0  0  0  0  0  0  0  0
  -31.9024  -19.5174   21.6757 C   0  0  0  0  0  0  0  0  0  0  0  0
  -26.7807  -36.5429   24.8601 C   0  0  0  0  0  0  0  0  0  0  0  0
  -25.4780  -31.4661   20.2726 C   0  0  0  0  0  0  0  0  0  0  0  0
  -24.6528  -29.2573   22.0572 C   0  0  0  0  0  0  0  0  0  0  0  0
  -25.8569  -35.3585   25.1323 C   0  0  0  0  0  0  0  0  0  0  0  0
  -31.6177  -16.7909   24.3607 C   0  0  0  0  0  0  0  0  0  0  0  0
  -26.6444  -34.0522   25.1152 C   0  0  0  0  0  0  0  0  0  0  0  0
  -31.4162  -15.5718   23.4637 C   0  0  0  0  0  0  0  0  0  0  0  0
  -29.9325  -24.3768   20.0670 C   0  0  0  0  0  0  0  0  0  0  0  0
  -30.3014  -24.4730   17.5684 C   0  0  0  0  0  0  0  0  0  0  0  0
  -32.3116  -17.9352   23.6326 C   0  0  0  0  0  0  0  0  0  0  0  0
  -31.2574  -25.0989   20.2890 C   0  0  0  0  0  0  0  0  0  0  0  0
  -31.6257  -25.1956   17.7932 C   0  0  0  0  0  0  0  0  0  0  0  0
  -30.5991  -17.4095   21.8872 C   0  0  0  0  0  0  0  0  0  0  0  0
  -27.2818  -33.8102   23.7416 C   0  0  1  0  0  0  0  0  0  0  0  0
  -24.8859  -31.7282   21.6540 C   0  0  1  0  0  0  0  0  0  0  0  0
  -31.0417  -15.9436   22.0153 C   0  0  2  0  0  0  0  0  0  0  0  0
  -29.2777  -24.7089   18.7046 C   0  0  0  0  0  0  0  0  0  0  0  0
  -28.0695  -23.7780   18.4905 C   0  0  0  0  0  0  0  0  0  0  0  0
  -18.2602  -27.7746   22.3413 C   0  0  0  0  0  0  0  0  0  0  0  0
  -23.4522  -30.0986   25.7343 C   0  0  0  0  0  0  0  0  0  0  0  0
  -21.4144  -28.6459   25.6599 C   0  0  0  0  0  0  0  0  0  0  0  0
  -21.1987  -31.1112   25.3459 C   0  0  0  0  0  0  0  0  0  0  0  0
  -20.1989  -28.4183   19.1314 C   0  0  0  0  0  0  0  0  0  0  0  0
  -28.7667  -26.1618   18.6852 C   0  0  0  0  0  0  0  0  0  1  0  0
  -22.2143  -29.7111   23.5020 C   0  0  1  0  0  0  0  0  0  0  0  0
  -19.2755  -28.4748   21.4515 C   0  0  2  0  0  0  0  0  0  0  0  0
  -22.0910  -29.8881   25.0417 C   0  0  0  0  0  0  0  0  0  0  0  0
  -28.7125  -15.2975   21.5242 N   0  0  0  0  0  0  0  0  0  0  0  0
  -30.0168  -14.9858   21.4356 N   0  0  0  0  0  0  0  0  0  0  0  0
  -32.1350  -24.8451   19.1317 N   0  0  0  0  0  0  0  0  0  0  0  0
  -24.0777  -30.6097   22.1440 N   0  0  0  0  0  0  0  0  0  0  0  0
  -31.6339  -18.3222   22.3868 N   0  0  0  0  0  0  0  0  0  0  0  0
  -31.5140  -13.3344   20.6346 N   0  0  0  0  0  0  0  0  0  0  0  0
  -28.7368  -12.0697   18.3804 N   0  0  0  0  0  0  0  0  0  0  0  0
  -32.8950  -20.3109   22.2569 N   0  0  0  0  0  0  0  0  0  0  0  0
  -26.2912  -33.3295   22.8024 N   0  0  0  0  0  0  0  0  0  0  0  0
  -20.9384  -29.5370   22.8164 N   0  0  0  0  0  0  0  0  0  0  0  0
  -34.3336  -24.6195   18.4487 N   0  3  0  0  0  0  0  0  0  0  0  0
  -19.2629  -27.8155   20.1150 N   0  3  0  0  0  0  0  0  0  0  0  0
  -28.5975  -10.9840   20.3955 O   0  0  0  0  0  0  0  0  0  0  0  0
  -26.3898  -31.0684   23.3504 O   0  0  0  0  0  0  0  0  0  0  0  0
  -22.3854  -32.0071   22.9314 O   0  0  0  0  0  0  0  0  0  0  0  0
  -21.4374  -27.4802   21.8689 O   0  0  0  0  0  0  0  0  0  0  0  0
  -31.3069  -19.7988   20.6335 O   0  0  0  0  0  0  0  0  0  0  0  0
  -22.5388  -14.1150   20.5075 O   0  0  0  0  0  0  0  0  0  0  0  0
  -27.7914  -26.3253   19.7140 O   0  0  0  0  0  0  0  0  0  1  0  0
  -20.3195  -15.1733   15.5720 F   0  0  0  0  0  0  0  0  0  0  0  0
  -20.7939  -16.2312   20.1613 F   0  0  0  0  0  0  0  0  0  0  0  0
  -34.7593  -23.7248   21.6457 S   0  0  0  0  0  0  0  0  0  0  0  0
  1  2  1  0  0  0  0
  1  5  2  0  0  0  0
  2  6  2  0  0  0  0
  3  8  2  0  0  0  0
  3 17  1  0  0  0  0
  4  9  1  0  0  0  0
  4 17  2  0  0  0  0
  5 19  1  0  0  0  0
  6 21  1  0  0  0  0
  7 10  2  0  0  0  0
  7 20  1  0  0  0  0
  8 24  1  0  0  0  0
  9 24  2  0  0  0  0
 10 25  1  0  0  0  0
 11 12  2  0  0  0  0
 11 26  1  0  0  0  0
 12 27  1  0  0  0  0
 13 22  1  0  0  0  0
 13 25  2  0  0  0  0
 14 23  1  0  0  0  0
 14 30  2  0  0  0  0
 15 27  2  0  0  0  0
 15 28  1  0  0  0  0
 16 23  2  0  0  0  0
 16 86  1  0  0  0  0
 17 29  1  0  0  0  0
 18 29  1  0  0  0  0
 18 31  2  0  0  0  0
 18 32  1  0  0  0  0
 19 21  2  0  0  0  0
 19 38  1  0  0  0  0
 20 22  2  0  0  0  0
 20 39  1  0  0  0  0
 21 51  1  0  0  0  0
 22 40  1  0  0  0  0
 23 72  1  0  0  0  0
 24 82  1  0  0  0  0
 25 83  1  0  0  0  0
 26 28  2  0  0  0  0
 26 82  1  0  0  0  0
 27 84  1  0  0  0  0
 28 85  1  0  0  0  0
 29 65  2  0  0  0  0
 30 33  1  0  0  0  0
 30 86  1  0  0  0  0
 31 66  1  0  0  0  0
 31 70  1  0  0  0  0
 32 71  1  0  0  0  0
 32 77  2  0  0  0  0
 33 67  1  0  0  0  0
 33 75  2  0  0  0  0
 34 52  1  0  0  0  0
 34 73  1  0  0  0  0
 34 78  2  0  0  0  0
 35 62  1  0  0  0  0
 35 68  1  0  0  0  0
 35 79  2  0  0  0  0
 36 63  1  0  0  0  0
 36 74  1  0  0  0  0
 36 80  2  0  0  0  0
 37 69  1  0  0  0  0
 37 72  1  0  0  0  0
 37 81  2  0  0  0  0
 38 41  1  0  0  0  0
 39 52  1  0  0  0  0
 40 68  1  0  0  0  0
 41 43  1  0  0  0  0
 42 44  1  0  0  0  0
 42 47  1  0  0  0  0
 43 51  1  0  0  0  0
 44 53  1  0  0  0  0
 45 48  1  0  0  0  0
 45 54  1  0  0  0  0
 46 49  1  0  0  0  0
 46 54  1  0  0  0  0
 47 69  1  0  0  0  0
 48 67  1  0  0  0  0
 49 67  1  0  0  0  0
 50 53  1  0  0  0  0
 50 69  1  0  0  0  0
 51 73  1  0  0  0  0
 52 68  1  0  0  0  0
 53 66  1  0  0  0  0
 54 55  1  0  0  0  0
 54 61  1  0  0  0  0
 56 63  1  0  0  0  0
 57 64  1  0  0  0  0
 58 64  1  0  0  0  0
 59 64  1  0  0  0  0
 60 76  1  0  0  0  0
 61 83  1  0  0  0  0
 62 64  1  0  0  0  0
 62 74  1  0  0  0  0
 63 76  1  0  0  0  0
 65 66  1  0  0  0  0
M  CHG  2  75   1  76   1
M  ISO  4  37 100  61 101  72 100  83 101
M  END
> <Batch ID>
0159

> <Smiles>
CNC(C)C(=O)NC(C(=O)N1Cc2cc([101O:1][101CH2:1]C3(C)CCN(C(=N)c4cc([100NH:0][100C:0](=O)N5CCCC(n6nc(-c7ccc(Oc8ccc(F)cc8F)cc7)c(C(N)=O)c6N)C5)cs4)CC3)ccc2CC1C(=O)NC1CCCc2ccccc21)C(C)(C)C

> <Shape>
0.281

> <Color>
0.067

> <Negative vol penalty>
0.000

$$$$

  -OEChem-04052303473D

 86 94  0     1  0  0  0  0  0999 V2000
  -27.1654  -34.6965   23.1285 C   0  0  0  0  0  0  0  0  0  0  0  0
  -27.5301  -33.3554   23.0680 C   0  0  0  0  0  0  0  0  0  0  0  0
  -23.1333   -9.9030   21.5510 C   0  0  0  0  0  0  0  0  0  0  0  0
  -23.7783  -11.0117   23.5984 C   0  0  0  0  0  0  0  0  0  0  0  0
  -25.8461  -35.0468   23.4126 C   0  0  0  0  0  0  0  0  0  0  0  0
  -26.5759  -32.3637   23.2926 C   0  0  0  0  0  0  0  0  0  0  0  0
  -26.8554  -28.5988   19.9173 C   0  0  0  0  0  0  0  0  0  0  0  0
  -22.3977   -8.9735   22.2861 C   0  0  0  0  0  0  0  0  0  0  0  0
  -23.0427  -10.0821   24.3335 C   0  0  0  0  0  0  0  0  0  0  0  0
  -27.8668  -27.6562   20.0971 C   0  0  0  0  0  0  0  0  0  0  0  0
  -23.0112   -6.2018   24.1206 C   0  0  0  0  0  0  0  0  0  0  0  0
  -23.1420   -4.8560   23.7780 C   0  0  0  0  0  0  0  0  0  0  0  0
  -26.2733  -26.1461   21.0968 C   0  0  0  0  0  0  0  0  0  0  0  0
  -31.6842  -17.7811   19.7925 C   0  0  0  0  0  0  0  0  0  0  0  0
  -20.7754   -4.7465   23.3045 C   0  0  0  0  0  0  0  0  0  0  0  0
  -29.6806  -18.4951   20.5312 C   0  0  0  0  0  0  0  0  0  0  0  0
  -23.8237  -10.9221   22.2072 C   0  0  0  0  0  0  0  0  0  0  0  0
  -24.1281  -13.1084   20.9285 C   0  0  0  0  0  0  0  0  0  0  0  0
  -24.8731  -34.0588   23.6312 C   0  0  0  0  0  0  0  0  0  0  0  0
  -25.5453  -28.3259   20.3365 C   0  0  0  0  0  0  0  0  0  0  0  0
  -25.2426  -32.7011   23.5811 C   0  0  0  0  0  0  0  0  0  0  0  0
  -25.2466  -27.0859   20.9189 C   0  0  0  0  0  0  0  0  0  0  0  0
  -30.4134  -17.3614   20.2573 C   0  0  0  0  0  0  0  0  0  0  0  0
  -22.3523   -9.0630   23.6773 C   0  0  0  0  0  0  0  0  0  0  0  0
  -27.5764  -26.4308   20.6896 C   0  0  0  0  0  0  0  0  0  0  0  0
  -21.7625   -6.8199   24.0552 C   0  0  0  0  0  0  0  0  0  0  0  0
  -22.0241   -4.1284   23.3700 C   0  0  0  0  0  0  0  0  0  0  0  0
  -20.6446   -6.0923   23.6471 C   0  0  0  0  0  0  0  0  0  0  0  0
  -24.5843  -11.8823   21.4485 C   0  0  0  0  0  0  0  0  0  0  0  0
  -31.6894  -19.1586   19.7967 C   0  0  0  0  0  0  0  0  0  0  0  0
  -25.2240  -13.6419   20.2954 C   0  0  0  0  0  0  0  0  0  0  0  0
  -22.8298  -13.7113   21.0105 C   0  0  0  0  0  0  0  0  0  0  0  0
  -32.7721  -19.9984   19.4037 C   0  0  0  0  0  0  0  0  0  0  0  0
  -23.5498  -29.6192   22.4457 C   0  0  0  0  0  0  0  0  0  0  0  0
  -29.1610  -23.1031   19.2777 C   0  0  0  0  0  0  0  0  0  0  0  0
  -21.4525  -27.4925   21.1804 C   0  0  0  0  0  0  0  0  0  0  0  0
  -20.9541  -24.5531   19.5196 C   0  0  0  0  0  0  0  0  0  0  0  0
  -30.6562  -14.8561   20.1544 C   0  0  0  0  0  0  0  0  0  0  0  0
  -23.4700  -34.4867   23.9815 C   0  0  0  0  0  0  0  0  0  0  0  0
  -24.4602  -29.3428   20.1110 C   0  0  0  0  0  0  0  0  0  0  0  0
  -23.8521  -26.7360   21.3678 C   0  0  0  0  0  0  0  0  0  0  0  0
  -22.4388  -33.3704   23.8372 C   0  0  0  0  0  0  0  0  0  0  0  0
  -29.7019  -11.5738   19.1580 C   0  0  0  0  0  0  0  0  0  0  0  0
  -22.9497  -32.0852   24.4806 C   0  0  0  0  0  0  0  0  0  0  0  0
  -28.2479  -11.4623   19.6223 C   0  0  0  0  0  0  0  0  0  0  0  0
  -30.5522  -12.3733   20.1436 C   0  0  0  0  0  0  0  0  0  0  0  0
  -28.5671  -13.5865   20.9539 C   0  0  0  0  0  0  0  0  0  0  0  0
  -24.2309  -31.5961   23.7943 C   0  0  1  0  0  0  0  0  0  0  0  0
  -23.2667  -29.1597   21.0434 C   0  0  1  0  0  0  0  0  0  0  0  0
  -27.6569  -12.8449   19.9612 C   0  0  2  0  0  0  0  0  0  0  0  0
  -19.1285  -23.0595   18.6631 C   0  0  0  0  0  0  0  0  0  0  0  0
  -20.9232  -26.5142   24.0217 C   0  0  0  0  0  0  0  0  0  0  0  0
  -19.8688  -24.4642   23.0449 C   0  0  0  0  0  0  0  0  0  0  0  0
  -18.8830  -26.7099   22.5887 C   0  0  0  0  0  0  0  0  0  0  0  0
  -21.8738  -24.8395   16.7212 C   0  0  0  0  0  0  0  0  0  0  0  0
  -30.1883  -24.1029   19.7899 C   0  0  0  0  0  0  0  0  0  0  0  0
  -30.0390  -21.0202   20.4127 C   0  0  0  0  0  0  0  0  0  0  0  0
  -29.6309  -25.5114   19.9217 C   0  0  0  0  0  0  0  0  0  1  0  0
  -29.6506  -21.6752   19.0849 C   0  0  1  0  0  0  0  0  0  0  0  0
  -21.0634  -26.0656   21.4830 C   0  0  1  0  0  0  0  0  0  0  0  0
  -20.0746  -24.2034   18.3327 C   0  0  2  0  0  0  0  0  0  0  0  0
  -20.2114  -25.9455   22.7780 C   0  0  0  0  0  0  0  0  0  0  0  0
  -25.8698  -11.6503   21.1697 N   0  0  0  0  0  0  0  0  0  0  0  0
  -30.4664  -19.5816   20.2478 N   0  0  0  0  0  0  0  0  0  0  0  0
  -26.2307  -12.7379   20.4676 N   0  0  0  0  0  0  0  0  0  0  0  0
  -22.8268  -27.7658   21.1315 N   0  0  0  0  0  0  0  0  0  0  0  0
  -29.9330  -13.6727   20.4138 N   0  0  0  0  0  0  0  0  0  0  0  0
  -25.4151  -14.7913   19.6136 N   0  0  0  0  0  0  0  0  0  0  0  0
  -21.8180  -13.0277   21.6986 N   0  0  0  0  0  0  0  0  0  0  0  0
  -33.9444  -19.4758   18.9719 N   0  0  0  0  0  0  0  0  0  0  0  0
  -29.9534  -16.0311   20.4191 N   0  0  0  0  0  0  0  0  0  0  0  0
  -23.9161  -30.9483   22.5391 N   0  0  0  0  0  0  0  0  0  0  0  0
  -20.4033  -25.5596   20.2843 N   0  0  0  0  0  0  0  0  0  0  0  0
  -32.6651  -21.3476   19.4469 N   0  3  0  0  0  0  0  0  0  0  0  0
  -28.5536  -20.8706   18.4706 N   0  3  0  0  0  0  0  0  0  0  0  0
  -20.9125  -23.7989   17.1685 N   0  3  0  0  0  0  0  0  0  0  0  0
  -22.5701  -14.8156   20.4751 O   0  0  0  0  0  0  0  0  0  0  0  0
  -23.4423  -28.8270   23.3744 O   0  0  0  0  0  0  0  0  0  0  0  0
  -28.0005  -23.4224   19.0188 O   0  0  0  0  0  0  0  0  0  0  0  0
  -20.5697  -28.3321   20.9874 O   0  0  0  0  0  0  0  0  0  0  0  0
  -22.0211  -23.9873   19.7477 O   0  0  0  0  0  0  0  0  0  0  0  0
  -31.8041  -14.8294   19.7031 O   0  0  0  0  0  0  0  0  0  0  0  0
  -21.6344   -8.1563   24.3949 O   0  0  0  0  0  0  0  0  0  0  0  0
  -28.5619  -25.5092   20.8669 O   0  0  0  0  0  0  0  0  0  1  0  0
  -22.1502   -2.8364   23.0395 F   0  0  0  0  0  0  0  0  0  0  0  0
  -19.4426   -6.6810   23.5812 F   0  0  0  0  0  0  0  0  0  0  0  0
  1  2  1  0  0  0  0
  1  5  2  0  0  0  0
  2  6  2  0  0  0  0
  3  8  2  0  0  0  0
  3 17  1  0  0  0  0
  4  9  1  0  0  0  0
  4 17  2  0  0  0  0
  5 19  1  0  0  0  0
  6 21  1  0  0  0  0
  7 10  2  0  0  0  0
  7 20  1  0  0  0  0
  8 24  1  0  0  0  0
  9 24  2  0  0  0  0
 10 25  1  0  0  0  0
 11 12  2  0  0  0  0
 11 26  1  0  0  0  0
 12 27  1  0  0  0  0
 13 22  1  0  0  0  0
 13 25  2  0  0  0  0
 14 23  1  0  0  0  0
 14 30  2  0  0  0  0
 15 27  2  0  0  0  0
 15 28  1  0  0  0  0
 16 23  2  0  0  0  0
 16 64  1  0  0  0  0
 17 29  1  0  0  0  0
 18 29  1  0  0  0  0
 18 31  2  0  0  0  0
 18 32  1  0  0  0  0
 19 21  2  0  0  0  0
 19 39  1  0  0  0  0
 20 22  2  0  0  0  0
 20 40  1  0  0  0  0
 21 48  1  0  0  0  0
 22 41  1  0  0  0  0
 23 71  1  0  0  0  0
 24 83  1  0  0  0  0
 25 84  1  0  0  0  0
 26 28  2  0  0  0  0
 26 83  1  0  0  0  0
 27 85  1  0  0  0  0
 28 86  1  0  0  0  0
 29 63  2  0  0  0  0
 30 33  1  0  0  0  0
 30 64  1  0  0  0  0
 31 65  1  0  0  0  0
 31 68  1  0  0  0  0
 32 69  1  0  0  0  0
 32 77  2  0  0  0  0
 33 70  1  0  0  0  0
 33 74  2  0  0  0  0
 34 49  1  0  0  0  0
 34 72  1  0  0  0  0
 34 78  2  0  0  0  0
 35 56  1  0  0  0  0
 35 59  1  0  0  0  0
 35 79  2  0  0  0  0
 36 60  1  0  0  0  0
 36 66  1  0  0  0  0
 36 80  2  0  0  0  0
 37 61  1  0  0  0  0
 37 73  1  0  0  0  0
 37 81  2  0  0  0  0
 38 67  1  0  0  0  0
 38 71  1  0  0  0  0
 38 82  2  0  0  0  0
 39 42  1  0  0  0  0
 40 49  1  0  0  0  0
 41 66  1  0  0  0  0
 42 44  1  0  0  0  0
 43 45  1  0  0  0  0
 43 46  1  0  0  0  0
 44 48  1  0  0  0  0
 45 50  1  0  0  0  0
 46 67  1  0  0  0  0
 47 50  1  0  0  0  0
 47 67  1  0  0  0  0
 48 72  1  0  0  0  0
 49 66  1  0  0  0  0
 50 65  1  0  0  0  0
 51 61  1  0  0  0  0
 52 62  1  0  0  0  0
 53 62  1  0  0  0  0
 54 62  1  0  0  0  0
 55 76  1  0  0  0  0
 56 58  1  0  0  0  0
 57 59  1  0  0  0  0
 57 64  1  0  0  0  0
 58 84  1  0  0  0  0
 59 75  1  0  0  0  0
 60 62  1  0  0  0  0
 60 73  1  0  0  0  0
 61 76  1  0  0  0  0
 63 65  1  0  0  0  0
M  CHG  3  74   1  75   1  76   1
M  ISO  4  38 100  58 101  71 100  84 101
M  END
> <Batch ID>
0159

> <Smiles>
CNC(C)C(=O)NC(C(=O)N1Cc2cc([101O:1][101CH2:1]CC(=O)C(N)Cn3cc([100NH:0][100C:0](=O)N4CCCC(n5nc(-c6ccc(Oc7ccc(F)cc7F)cc6)c(C(N)=O)c5N)C4)cc3C(=N)N)ccc2CC1C(=O)NC1CCCc2ccccc21)C(C)(C)C

> <Shape>
0.344

> <Color>
0.166

> <Negative vol penalty>
0.000

$$$$

  -OEChem-04052303473D

 84 92  0     1  0  0  0  0  0999 V2000
  -32.1731  -32.7536   19.6341 C   0  0  0  0  0  0  0  0  0  0  0  0
  -32.1692  -31.7136   20.5581 C   0  0  0  0  0  0  0  0  0  0  0  0
  -23.0983   -9.8083   19.8843 C   0  0  0  0  0  0  0  0  0  0  0  0
  -23.8746   -9.7429   22.1713 C   0  0  0  0  0  0  0  0  0  0  0  0
  -31.2460  -32.7629   18.5929 C   0  0  0  0  0  0  0  0  0  0  0  0
  -31.2374  -30.6827   20.4419 C   0  0  0  0  0  0  0  0  0  0  0  0
  -33.3088  -26.1085   21.0980 C   0  0  0  0  0  0  0  0  0  0  0  0
  -22.3925   -8.6228   20.0899 C   0  0  0  0  0  0  0  0  0  0  0  0
  -23.1688   -8.5574   22.3769 C   0  0  0  0  0  0  0  0  0  0  0  0
  -33.5738  -25.7115   22.4080 C   0  0  0  0  0  0  0  0  0  0  0  0
  -21.2800   -5.7057   23.6090 C   0  0  0  0  0  0  0  0  0  0  0  0
  -20.5342   -5.5893   24.7819 C   0  0  0  0  0  0  0  0  0  0  0  0
  -31.5817  -17.6934   21.9305 C   0  0  0  0  0  0  0  0  0  0  0  0
  -31.5557  -24.3899   22.4094 C   0  0  0  0  0  0  0  0  0  0  0  0
  -19.2245   -7.5155   24.1403 C   0  0  0  0  0  0  0  0  0  0  0  0
  -23.8394  -10.3683   20.9249 C   0  0  0  0  0  0  0  0  0  0  0  0
  -31.4854  -18.8818   22.6932 C   0  0  0  0  0  0  0  0  0  0  0  0
  -24.1016  -12.9057   20.9094 C   0  0  0  0  0  0  0  0  0  0  0  0
  -30.3086  -31.7267   18.4582 C   0  0  0  0  0  0  0  0  0  0  0  0
  -32.1576  -25.6571   20.4366 C   0  0  0  0  0  0  0  0  0  0  0  0
  -30.2960  -30.6789   19.3986 C   0  0  0  0  0  0  0  0  0  0  0  0
  -31.2797  -24.7806   21.0902 C   0  0  0  0  0  0  0  0  0  0  0  0
  -22.4278   -7.9974   21.3363 C   0  0  0  0  0  0  0  0  0  0  0  0
  -32.6958  -24.8544   23.0649 C   0  0  0  0  0  0  0  0  0  0  0  0
  -20.9982   -6.7271   22.7018 C   0  0  0  0  0  0  0  0  0  0  0  0
  -19.5064   -6.4941   25.0476 C   0  0  0  0  0  0  0  0  0  0  0  0
  -19.9704   -7.6319   22.9674 C   0  0  0  0  0  0  0  0  0  0  0  0
  -24.5691  -11.5925   20.7130 C   0  0  0  0  0  0  0  0  0  0  0  0
  -25.1671  -13.7037   20.5714 C   0  0  0  0  0  0  0  0  0  0  0  0
  -30.3987  -17.0187   22.1235 C   0  0  0  0  0  0  0  0  0  0  0  0
  -30.2503  -18.8487   23.2977 C   0  0  0  0  0  0  0  0  0  0  0  0
  -32.5061  -19.9426   22.8161 C   0  0  0  0  0  0  0  0  0  0  0  0
  -22.8188  -13.3633   21.3575 C   0  0  0  0  0  0  0  0  0  0  0  0
  -29.5865  -27.0581   19.1996 C   0  0  0  0  0  0  0  0  0  0  0  0
  -28.9309  -24.0562   18.1599 C   0  0  0  0  0  0  0  0  0  0  0  0
  -29.3625  -20.6941   18.5559 C   0  0  0  0  0  0  0  0  0  0  0  0
  -33.0922  -22.1318   23.8361 C   0  0  0  0  0  0  0  0  0  0  0  0
  -30.5993  -14.9121   20.7567 C   0  0  0  0  0  0  0  0  0  0  0  0
  -29.2955  -31.8045   17.3436 C   0  0  0  0  0  0  0  0  0  0  0  0
  -31.8998  -26.0733   19.0144 C   0  0  0  0  0  0  0  0  0  0  0  0
  -30.0404  -24.2514   20.4173 C   0  0  0  0  0  0  0  0  0  0  0  0
  -28.5838  -30.4812   17.0739 C   0  0  0  0  0  0  0  0  0  0  0  0
  -29.5430  -12.5661   18.2955 C   0  0  0  0  0  0  0  0  0  0  0  0
  -28.1235  -29.8463   18.3823 C   0  0  0  0  0  0  0  0  0  0  0  0
  -28.1163  -12.2117   18.7212 C   0  0  0  0  0  0  0  0  0  0  0  0
  -30.4594  -12.7728   19.5001 C   0  0  0  0  0  0  0  0  0  0  0  0
  -28.5412  -13.3784   20.9224 C   0  0  0  0  0  0  0  0  0  0  0  0
  -29.3169  -29.5299   19.2918 C   0  0  1  0  0  0  0  0  0  0  0  0
  -30.4315  -25.9614   18.6158 C   0  0  1  0  0  0  0  0  0  0  0  0
  -27.5655  -13.2243   19.7443 C   0  0  2  0  0  0  0  0  0  0  0  0
  -28.6702  -18.4902   17.5757 C   0  0  0  0  0  0  0  0  0  0  0  0
  -32.8765  -22.9460   26.1851 C   0  0  0  0  0  0  0  0  0  0  0  0
  -26.1947  -24.3305   19.4820 C   0  0  0  0  0  0  0  0  0  0  0  0
  -25.9389  -21.8461   19.3077 C   0  0  0  0  0  0  0  0  0  0  0  0
  -26.1636  -23.2231   17.2399 C   0  0  0  0  0  0  0  0  0  0  0  0
  -32.1570  -19.9791   17.8936 C   0  0  0  0  0  0  0  0  0  0  0  0
  -28.1830  -22.8704   18.7197 C   0  0  1  0  0  0  0  0  0  0  0  0
  -29.7105  -19.5994   17.5634 C   0  0  2  0  0  0  0  0  0  0  0  0
  -32.4781  -23.1791   24.7387 C   0  0  1  0  0  0  0  0  0  1  0  0
  -26.6423  -23.0788   18.7010 C   0  0  0  0  0  0  0  0  0  0  0  0
  -25.8332  -11.5540   20.2833 N   0  0  0  0  0  0  0  0  0  0  0  0
  -26.1690  -12.8531   20.2069 N   0  0  0  0  0  0  0  0  0  0  0  0
  -29.8289  -24.6923   19.0287 N   0  0  0  0  0  0  0  0  0  0  0  0
  -29.8752  -13.7478   20.4237 N   0  0  0  0  0  0  0  0  0  0  0  0
  -25.3355  -15.0430   20.5533 N   0  0  0  0  0  0  0  0  0  0  0  0
  -21.8382  -12.4095   21.6623 N   0  0  0  0  0  0  0  0  0  0  0  0
  -29.9296  -15.7811   21.6174 N   0  0  0  0  0  0  0  0  0  0  0  0
  -32.2279  -20.9996   23.5915 N   0  0  0  0  0  0  0  0  0  0  0  0
  -29.9906  -28.3304   18.8426 N   0  0  0  0  0  0  0  0  0  0  0  0
  -28.6378  -21.7076   17.9652 N   0  0  0  0  0  0  0  0  0  0  0  0
  -33.6471  -19.7863   22.1455 N   0  3  0  0  0  0  0  0  0  0  0  0
  -31.0363  -19.0039   17.8928 N   0  3  0  0  0  0  0  0  0  0  0  0
  -22.5448  -14.5824   21.4681 O   0  0  0  0  0  0  0  0  0  0  0  0
  -28.6371  -26.7712   19.9194 O   0  0  0  0  0  0  0  0  0  0  0  0
  -28.7312  -24.4009   16.9924 O   0  0  0  0  0  0  0  0  0  0  0  0
  -29.6967  -20.6524   19.7379 O   0  0  0  0  0  0  0  0  0  0  0  0
  -34.2009  -22.2124   23.3257 O   0  0  0  0  0  0  0  0  0  0  0  0
  -31.7191  -15.1356   20.2898 O   0  0  0  0  0  0  0  0  0  0  0  0
  -29.5816  -17.7163   22.9555 O   0  0  0  0  0  0  0  0  0  0  0  0
  -21.7390   -6.8408   21.5374 O   0  0  0  0  0  0  0  0  0  0  0  0
  -32.9518  -24.4659   24.3437 O   0  0  0  0  0  0  0  0  0  1  0  0
  -18.7893   -6.3813   26.1733 F   0  0  0  0  0  0  0  0  0  0  0  0
  -19.6942   -8.6145   22.0990 F   0  0  0  0  0  0  0  0  0  0  0  0
  -29.7673  -19.7938   24.1099 F   0  0  0  0  0  0  0  0  0  0  0  0
  1  2  1  0  0  0  0
  1  5  2  0  0  0  0
  2  6  2  0  0  0  0
  3  8  2  0  0  0  0
  3 16  1  0  0  0  0
  4  9  1  0  0  0  0
  4 16  2  0  0  0  0
  5 19  1  0  0  0  0
  6 21  1  0  0  0  0
  7 10  2  0  0  0  0
  7 20  1  0  0  0  0
  8 23  1  0  0  0  0
  9 23  2  0  0  0  0
 10 24  1  0  0  0  0
 11 12  2  0  0  0  0
 11 25  1  0  0  0  0
 12 26  1  0  0  0  0
 13 17  1  0  0  0  0
 13 30  2  0  0  0  0
 14 22  1  0  0  0  0
 14 24  2  0  0  0  0
 15 26  2  0  0  0  0
 15 27  1  0  0  0  0
 16 28  1  0  0  0  0
 17 31  2  0  0  0  0
 17 32  1  0  0  0  0
 18 28  1  0  0  0  0
 18 29  2  0  0  0  0
 18 33  1  0  0  0  0
 19 21  2  0  0  0  0
 19 39  1  0  0  0  0
 20 22  2  0  0  0  0
 20 40  1  0  0  0  0
 21 48  1  0  0  0  0
 22 41  1  0  0  0  0
 23 80  1  0  0  0  0
 24 81  1  0  0  0  0
 25 27  2  0  0  0  0
 25 80  1  0  0  0  0
 26 82  1  0  0  0  0
 27 83  1  0  0  0  0
 28 61  2  0  0  0  0
 29 62  1  0  0  0  0
 29 65  1  0  0  0  0
 30 67  1  0  0  0  0
 30 79  1  0  0  0  0
 31 79  1  0  0  0  0
 31 84  1  0  0  0  0
 32 68  1  0  0  0  0
 32 71  2  0  0  0  0
 33 66  1  0  0  0  0
 33 73  2  0  0  0  0
 34 49  1  0  0  0  0
 34 69  1  0  0  0  0
 34 74  2  0  0  0  0
 35 57  1  0  0  0  0
 35 63  1  0  0  0  0
 35 75  2  0  0  0  0
 36 58  1  0  0  0  0
 36 70  1  0  0  0  0
 36 76  2  0  0  0  0
 37 59  1  0  0  0  0
 37 68  1  0  0  0  0
 37 77  2  0  0  0  0
 38 64  1  0  0  0  0
 38 67  1  0  0  0  0
 38 78  2  0  0  0  0
 39 42  1  0  0  0  0
 40 49  1  0  0  0  0
 41 63  1  0  0  0  0
 42 44  1  0  0  0  0
 43 45  1  0  0  0  0
 43 46  1  0  0  0  0
 44 48  1  0  0  0  0
 45 50  1  0  0  0  0
 46 64  1  0  0  0  0
 47 50  1  0  0  0  0
 47 64  1  0  0  0  0
 48 69  1  0  0  0  0
 49 63  1  0  0  0  0
 50 62  1  0  0  0  0
 51 58  1  0  0  0  0
 52 59  1  0  0  0  0
 53 60  1  0  0  0  0
 54 60  1  0  0  0  0
 55 60  1  0  0  0  0
 56 72  1  0  0  0  0
 57 60  1  0  0  0  0
 57 70  1  0  0  0  0
 58 72  1  0  0  0  0
 59 81  1  0  0  0  0
 61 62  1  0  0  0  0
M  CHG  2  71   1  72   1
M  ISO  4  38 100  59 101  67 100  81 101
M  END
> <Batch ID>
0159

> <Smiles>
CNC(C)C(=O)NC(C(=O)N1Cc2cc([101O:1][101CH:1](C)C(=O)NC(=N)c3cc([100NH:0][100C:0](=O)N4CCCC(n5nc(-c6ccc(Oc7ccc(F)cc7F)cc6)c(C(N)=O)c5N)C4)oc3F)ccc2CC1C(=O)NC1CCCc2ccccc21)C(C)(C)C

> <Shape>
0.244

> <Color>
0.220

> <Negative vol penalty>
0.000

$$$$

  -OEChem-04052303473D

 90 99  0     1  0  0  0  0  0999 V2000
  -21.3490  -13.0025   21.7302 C   0  0  0  0  0  0  0  0  0  0  0  0
  -21.8347  -14.2177   22.1995 C   0  0  0  0  0  0  0  0  0  0  0  0
  -21.7718  -20.7082   20.1874 C   0  0  0  0  0  0  0  0  0  0  0  0
  -19.5097  -21.3406   19.6218 C   0  0  0  0  0  0  0  0  0  0  0  0
  -26.1561  -30.4490   20.2967 C   0  0  0  0  0  0  0  0  0  0  0  0
  -22.1927  -12.1426   21.0302 C   0  0  0  0  0  0  0  0  0  0  0  0
  -23.1608  -14.5788   21.9588 C   0  0  0  0  0  0  0  0  0  0  0  0
  -25.6896  -21.0720   21.8716 C   0  0  0  0  0  0  0  0  0  0  0  0
  -21.8065  -19.8495   19.0889 C   0  0  0  0  0  0  0  0  0  0  0  0
  -19.5444  -20.4818   18.5231 C   0  0  0  0  0  0  0  0  0  0  0  0
  -26.2471  -22.3470   21.9698 C   0  0  0  0  0  0  0  0  0  0  0  0
  -20.6652  -16.7673   18.3002 C   0  0  0  0  0  0  0  0  0  0  0  0
  -24.8678  -30.7460   19.8522 C   0  0  0  0  0  0  0  0  0  0  0  0
  -21.1923  -15.4904   18.4931 C   0  0  0  0  0  0  0  0  0  0  0  0
  -28.4351  -21.4394   21.4832 C   0  0  0  0  0  0  0  0  0  0  0  0
  -22.8901  -15.9407   16.8342 C   0  0  0  0  0  0  0  0  0  0  0  0
  -20.6234  -21.4538   20.4539 C   0  0  0  0  0  0  0  0  0  0  0  0
  -26.3492  -29.4708   21.2722 C   0  0  0  0  0  0  0  0  0  0  0  0
  -20.7498  -21.9946   22.9437 C   0  0  0  0  0  0  0  0  0  0  0  0
  -23.5331  -12.4885   20.7921 C   0  0  0  0  0  0  0  0  0  0  0  0
  -26.5013  -19.9768   21.5633 C   0  0  0  0  0  0  0  0  0  0  0  0
  -24.0215  -13.7351   21.2335 C   0  0  0  0  0  0  0  0  0  0  0  0
  -27.8803  -20.1617   21.3712 C   0  0  0  0  0  0  0  0  0  0  0  0
  -23.9655  -29.0867   21.3588 C   0  0  0  0  0  0  0  0  0  0  0  0
  -20.6928  -19.7363   18.2567 C   0  0  0  0  0  0  0  0  0  0  0  0
  -27.6165  -22.5302   21.7763 C   0  0  0  0  0  0  0  0  0  0  0  0
  -21.2504  -17.6309   17.3742 C   0  0  0  0  0  0  0  0  0  0  0  0
  -22.3048  -15.0771   17.7601 C   0  0  0  0  0  0  0  0  0  0  0  0
  -23.7725  -30.0649   20.3833 C   0  0  0  0  0  0  0  0  0  0  0  0
  -22.3629  -17.2176   16.6413 C   0  0  0  0  0  0  0  0  0  0  0  0
  -25.2539  -28.7897   21.8033 C   0  0  0  0  0  0  0  0  0  0  0  0
  -20.5867  -22.3406   21.5890 C   0  0  0  0  0  0  0  0  0  0  0  0
  -20.6306  -23.1847   23.6189 C   0  0  0  0  0  0  0  0  0  0  0  0
  -27.7118  -29.1598   21.7399 C   0  0  0  0  0  0  0  0  0  0  0  0
  -20.9879  -20.7120   23.5388 C   0  0  0  0  0  0  0  0  0  0  0  0
  -26.7177  -16.2850   20.9311 C   0  0  0  0  0  0  0  0  0  0  0  0
  -28.5677  -17.6471   18.8982 C   0  0  0  0  0  0  0  0  0  0  0  0
  -30.4236  -18.4946   16.1642 C   0  0  0  0  0  0  0  0  0  0  0  0
  -21.5527  -28.8768   22.0520 C   0  0  0  0  0  0  0  0  0  0  0  0
  -24.4002  -11.5237   20.0223 C   0  0  0  0  0  0  0  0  0  0  0  0
  -25.9540  -18.5763   21.5082 C   0  0  0  0  0  0  0  0  0  0  0  0
  -28.7204  -18.9494   21.0756 C   0  0  0  0  0  0  0  0  0  0  0  0
  -25.8911  -11.7907   20.2020 C   0  0  0  0  0  0  0  0  0  0  0  0
  -18.5275  -27.4755   23.3017 C   0  0  0  0  0  0  0  0  0  0  0  0
  -26.1866  -13.2651   19.9709 C   0  0  0  0  0  0  0  0  0  0  0  0
  -18.7296  -25.9679   23.1332 C   0  0  0  0  0  0  0  0  0  0  0  0
  -29.8327  -26.3824   21.8656 C   0  0  0  0  0  0  0  0  0  0  0  0
  -27.9053  -25.9922   20.2751 C   0  0  0  0  0  0  0  0  0  0  0  0
  -19.1467  -28.2631   22.1484 C   0  0  0  0  0  0  0  0  0  0  0  0
  -29.7805  -27.8763   21.5564 C   0  0  0  0  0  0  0  0  0  0  0  0
  -27.8608  -27.4865   19.9684 C   0  0  0  0  0  0  0  0  0  0  0  0
  -20.7602  -26.4540   21.7094 C   0  0  0  0  0  0  0  0  0  0  0  0
  -25.4686  -14.1354   21.0101 C   0  0  1  0  0  0  0  0  0  0  0  0
  -26.6400  -17.7018   20.4434 C   0  0  1  0  0  0  0  0  0  0  0  0
  -20.2102  -25.6226   22.8799 C   0  0  2  0  0  0  0  0  0  0  0  0
  -29.3130  -25.5310   20.6941 C   0  0  0  0  0  0  0  0  0  0  0  0
  -32.2116  -17.6052   14.6445 C   0  0  0  0  0  0  0  0  0  0  0  0
  -30.6573  -18.1669   21.0585 C   0  0  0  0  0  0  0  0  0  0  0  0
  -32.4027  -18.1947   19.2638 C   0  0  0  0  0  0  0  0  0  0  0  0
  -31.0721  -16.1252   19.6751 C   0  0  0  0  0  0  0  0  0  0  0  0
  -28.6587  -18.6689   13.7950 C   0  0  0  0  0  0  0  0  0  0  0  0
  -31.5210  -25.2783   19.9300 C   0  0  0  0  0  0  0  0  0  0  0  0
  -29.3063  -24.0492   21.0729 C   0  0  0  0  0  0  0  0  0  1  0  0
  -29.9643  -18.1121   18.5720 C   0  0  1  0  0  0  0  0  0  0  0  0
  -30.7152  -17.7496   14.8741 C   0  0  2  0  0  0  0  0  0  0  0  0
  -31.0019  -17.6674   19.6412 C   0  0  0  0  0  0  0  0  0  0  0  0
  -20.3795  -23.6482   21.4121 N   0  0  0  0  0  0  0  0  0  0  0  0
  -20.4115  -24.1342   22.6646 N   0  0  0  0  0  0  0  0  0  0  0  0
  -28.4138  -28.2198   21.1221 N   0  0  0  0  0  0  0  0  0  0  0  0
  -28.0252  -18.0787   20.1147 N   0  0  0  0  0  0  0  0  0  0  0  0
  -20.5508  -27.8868   21.9701 N   0  0  0  0  0  0  0  0  0  0  0  0
  -20.6927  -23.5012   24.9297 N   0  0  0  0  0  0  0  0  0  0  0  0
  -21.0831  -19.5935   22.6996 N   0  0  0  0  0  0  0  0  0  0  0  0
  -22.8526  -28.3957   21.8988 N   0  0  0  0  0  0  0  0  0  0  0  0
  -25.6019  -15.5258   20.6346 N   0  0  0  0  0  0  0  0  0  0  0  0
  -30.2507  -17.6307   17.2249 N   0  0  0  0  0  0  0  0  0  0  0  0
  -28.2165  -29.8280   22.7728 N   0  3  0  0  0  0  0  0  0  0  0  0
  -30.1295  -18.4767   13.7125 N   0  3  0  0  0  0  0  0  0  0  0  0
  -21.0962  -20.5599   24.7792 O   0  0  0  0  0  0  0  0  0  0  0  0
  -27.7169  -15.9066   21.5313 O   0  0  0  0  0  0  0  0  0  0  0  0
  -27.9736  -16.9162   18.1005 O   0  0  0  0  0  0  0  0  0  0  0  0
  -30.3596  -19.7204   16.2258 O   0  0  0  0  0  0  0  0  0  0  0  0
  -21.2798  -30.0598   22.2712 O   0  0  0  0  0  0  0  0  0  0  0  0
  -20.7264  -18.8986   17.1844 O   0  0  0  0  0  0  0  0  0  0  0  0
  -28.1535  -23.7783   21.8692 O   0  0  0  0  0  0  0  0  0  1  0  0
  -30.2091  -25.6970   19.5920 O   0  0  0  0  0  0  0  0  0  0  0  0
  -22.8118  -13.8514   17.9466 F   0  0  0  0  0  0  0  0  0  0  0  0
  -22.5388  -30.3586   19.9483 F   0  0  0  0  0  0  0  0  0  0  0  0
  -22.9302  -18.0432   15.7511 F   0  0  0  0  0  0  0  0  0  0  0  0
  -25.4416  -27.8497   22.7424 F   0  0  0  0  0  0  0  0  0  0  0  0
  1  2  1  0  0  0  0
  1  6  2  0  0  0  0
  2  7  2  0  0  0  0
  3  9  2  0  0  0  0
  3 17  1  0  0  0  0
  4 10  1  0  0  0  0
  4 17  2  0  0  0  0
  5 13  2  0  0  0  0
  5 18  1  0  0  0  0
  6 20  1  0  0  0  0
  7 22  1  0  0  0  0
  8 11  2  0  0  0  0
  8 21  1  0  0  0  0
  9 25  1  0  0  0  0
 10 25  2  0  0  0  0
 11 26  1  0  0  0  0
 12 14  2  0  0  0  0
 12 27  1  0  0  0  0
 13 29  1  0  0  0  0
 14 28  1  0  0  0  0
 15 23  1  0  0  0  0
 15 26  2  0  0  0  0
 16 28  2  0  0  0  0
 16 30  1  0  0  0  0
 17 32  1  0  0  0  0
 18 31  2  0  0  0  0
 18 34  1  0  0  0  0
 19 32  1  0  0  0  0
 19 33  2  0  0  0  0
 19 35  1  0  0  0  0
 20 22  2  0  0  0  0
 20 40  1  0  0  0  0
 21 23  2  0  0  0  0
 21 41  1  0  0  0  0
 22 53  1  0  0  0  0
 23 42  1  0  0  0  0
 24 29  2  0  0  0  0
 24 31  1  0  0  0  0
 24 74  1  0  0  0  0
 25 84  1  0  0  0  0
 26 85  1  0  0  0  0
 27 30  2  0  0  0  0
 27 84  1  0  0  0  0
 28 87  1  0  0  0  0
 29 88  1  0  0  0  0
 30 89  1  0  0  0  0
 31 90  1  0  0  0  0
 32 67  2  0  0  0  0
 33 68  1  0  0  0  0
 33 72  1  0  0  0  0
 34 69  1  0  0  0  0
 34 77  2  0  0  0  0
 35 73  1  0  0  0  0
 35 79  2  0  0  0  0
 36 54  1  0  0  0  0
 36 75  1  0  0  0  0
 36 80  2  0  0  0  0
 37 64  1  0  0  0  0
 37 70  1  0  0  0  0
 37 81  2  0  0  0  0
 38 65  1  0  0  0  0
 38 76  1  0  0  0  0
 38 82  2  0  0  0  0
 39 71  1  0  0  0  0
 39 74  1  0  0  0  0
 39 83  2  0  0  0  0
 40 43  1  0  0  0  0
 41 54  1  0  0  0  0
 42 70  1  0  0  0  0
 43 45  1  0  0  0  0
 44 46  1  0  0  0  0
 44 49  1  0  0  0  0
 45 53  1  0  0  0  0
 46 55  1  0  0  0  0
 47 50  1  0  0  0  0
 47 56  1  0  0  0  0
 48 51  1  0  0  0  0
 48 56  1  0  0  0  0
 49 71  1  0  0  0  0
 50 69  1  0  0  0  0
 51 69  1  0  0  0  0
 52 55  1  0  0  0  0
 52 71  1  0  0  0  0
 53 75  1  0  0  0  0
 54 70  1  0  0  0  0
 55 68  1  0  0  0  0
 56 63  1  0  0  0  0
 56 86  1  0  0  0  0
 57 65  1  0  0  0  0
 58 66  1  0  0  0  0
 59 66  1  0  0  0  0
 60 66  1  0  0  0  0
 61 78  1  0  0  0  0
 62 86  1  0  0  0  0
 63 85  1  0  0  0  0
 64 66  1  0  0  0  0
 64 76  1  0  0  0  0
 65 78  1  0  0  0  0
 67 68  1  0  0  0  0
M  CHG  2  77   1  78   1
M  ISO  4  39 100  63 101  74 100  85 101
M  END
> <Batch ID>
0159

> <Smiles>
CNC(C)C(=O)NC(C(=O)N1Cc2cc([101O:1][101CH2:1]C3(OC)CCN(C(=N)c4ccc(F)c([100NH:0][100C:0](=O)N5CCCC(n6nc(-c7ccc(Oc8ccc(F)cc8F)cc7)c(C(N)=O)c6N)C5)c4F)CC3)ccc2CC1C(=O)NC1CCCc2ccccc21)C(C)(C)C

> <Shape>
0.232

> <Color>
0.068

> <Negative vol penalty>
0.000

$$$$

  -OEChem-04052303473D

 87 95  0     1  0  0  0  0  0999 V2000
  -40.0322  -24.2838   18.7154 C   0  0  0  0  0  0  0  0  0  0  0  0
  -39.0689  -25.0867   19.3178 C   0  0  0  0  0  0  0  0  0  0  0  0
  -23.1009   -9.9085   19.9040 C   0  0  0  0  0  0  0  0  0  0  0  0
  -23.8700   -9.8609   22.1939 C   0  0  0  0  0  0  0  0  0  0  0  0
  -39.6799  -23.4523   17.6532 C   0  0  0  0  0  0  0  0  0  0  0  0
  -37.7529  -25.0593   18.8576 C   0  0  0  0  0  0  0  0  0  0  0  0
  -32.3248  -23.2864   23.2489 C   0  0  0  0  0  0  0  0  0  0  0  0
  -22.3714   -8.7403   20.1248 C   0  0  0  0  0  0  0  0  0  0  0  0
  -23.1404   -8.6927   22.4146 C   0  0  0  0  0  0  0  0  0  0  0  0
  -31.2104  -23.1626   24.0789 C   0  0  0  0  0  0  0  0  0  0  0  0
  -19.9241   -7.8412   23.0069 C   0  0  0  0  0  0  0  0  0  0  0  0
  -19.1725   -7.7601   24.1791 C   0  0  0  0  0  0  0  0  0  0  0  0
  -31.5059  -19.4368   23.0247 C   0  0  0  0  0  0  0  0  0  0  0  0
  -31.8109  -17.4416   21.6968 C   0  0  0  0  0  0  0  0  0  0  0  0
  -29.7479  -23.3683   22.1640 C   0  0  0  0  0  0  0  0  0  0  0  0
  -29.7468  -17.7850   22.9045 C   0  0  0  0  0  0  0  0  0  0  0  0
  -20.4391   -5.8176   24.8570 C   0  0  0  0  0  0  0  0  0  0  0  0
  -23.8503  -10.4688   20.9386 C   0  0  0  0  0  0  0  0  0  0  0  0
  -32.2956  -18.6572   22.1795 C   0  0  0  0  0  0  0  0  0  0  0  0
  -24.1626  -13.0001   20.8872 C   0  0  0  0  0  0  0  0  0  0  0  0
  -38.3569  -23.4075   17.1860 C   0  0  0  0  0  0  0  0  0  0  0  0
  -32.1550  -23.4363   21.8697 C   0  0  0  0  0  0  0  0  0  0  0  0
  -37.3829  -24.2274   17.7872 C   0  0  0  0  0  0  0  0  0  0  0  0
  -30.8606  -23.4802   21.3262 C   0  0  0  0  0  0  0  0  0  0  0  0
  -30.2315  -19.0006   23.3873 C   0  0  0  0  0  0  0  0  0  0  0  0
  -30.5365  -17.0055   22.0593 C   0  0  0  0  0  0  0  0  0  0  0  0
  -22.3911   -8.1324   21.3801 C   0  0  0  0  0  0  0  0  0  0  0  0
  -29.9252  -23.2037   23.5379 C   0  0  0  0  0  0  0  0  0  0  0  0
  -20.9332   -6.9104   22.7597 C   0  0  0  0  0  0  0  0  0  0  0  0
  -19.4299   -6.7484   25.1042 C   0  0  0  0  0  0  0  0  0  0  0  0
  -21.1907   -5.8987   23.6848 C   0  0  0  0  0  0  0  0  0  0  0  0
  -24.6046  -11.6752   20.7110 C   0  0  0  0  0  0  0  0  0  0  0  0
  -25.2445  -13.7719   20.5407 C   0  0  0  0  0  0  0  0  0  0  0  0
  -33.6167  -19.1095   21.8033 C   0  0  0  0  0  0  0  0  0  0  0  0
  -22.8880  -13.4893   21.3249 C   0  0  0  0  0  0  0  0  0  0  0  0
  -33.7817  -23.8280   18.5117 C   0  0  0  0  0  0  0  0  0  0  0  0
  -26.9348  -21.7372   24.8759 C   0  0  0  0  0  0  0  0  0  0  0  0
  -31.4080  -21.9216   18.1350 C   0  0  0  0  0  0  0  0  0  0  0  0
  -28.1474  -19.5108   24.7028 C   0  0  0  0  0  0  0  0  0  0  0  0
  -29.5271  -19.4157   18.4276 C   0  0  0  0  0  0  0  0  0  0  0  0
  -30.6990  -14.8757   20.7238 C   0  0  0  0  0  0  0  0  0  0  0  0
  -38.0337  -22.5280   16.0041 C   0  0  0  0  0  0  0  0  0  0  0  0
  -33.3252  -23.6350   20.9450 C   0  0  0  0  0  0  0  0  0  0  0  0
  -30.7254  -23.6778   19.8410 C   0  0  0  0  0  0  0  0  0  0  0  0
  -36.5388  -22.2793   15.8206 C   0  0  0  0  0  0  0  0  0  0  0  0
  -29.6028  -12.5154   18.2938 C   0  0  0  0  0  0  0  0  0  0  0  0
  -35.7614  -23.5861   15.9418 C   0  0  0  0  0  0  0  0  0  0  0  0
  -28.1684  -12.1954   18.7205 C   0  0  0  0  0  0  0  0  0  0  0  0
  -30.5201  -12.7215   19.4979 C   0  0  0  0  0  0  0  0  0  0  0  0
  -28.6106  -13.3854   20.9058 C   0  0  0  0  0  0  0  0  0  0  0  0
  -35.9396  -24.2071   17.3325 C   0  0  1  0  0  0  0  0  0  0  0  0
  -33.1194  -22.9877   19.5637 C   0  0  1  0  0  0  0  0  0  0  0  0
  -27.6350  -13.2335   19.7273 C   0  0  2  0  0  0  0  0  0  0  0  0
  -28.0153  -17.4218   18.2380 C   0  0  0  0  0  0  0  0  0  0  0  0
  -29.7639  -24.2271   17.0011 C   0  0  0  0  0  0  0  0  0  0  0  0
  -28.0169  -22.5612   16.3371 C   0  0  0  0  0  0  0  0  0  0  0  0
  -30.3060  -22.4236   15.3555 C   0  0  0  0  0  0  0  0  0  0  0  0
  -31.8064  -17.5862   17.9622 C   0  0  0  0  0  0  0  0  0  0  0  0
  -27.6388  -20.6193   25.6050 C   0  0  0  0  0  0  0  0  0  0  0  0
  -27.6726  -22.4832   23.7913 C   0  0  0  0  0  0  0  0  0  1  0  0
  -29.9524  -21.7703   17.7721 C   0  0  1  0  0  0  0  0  0  0  0  0
  -29.3512  -18.0281   17.8376 C   0  0  2  0  0  0  0  0  0  0  0  0
  -29.5182  -22.7477   16.6436 C   0  0  0  0  0  0  0  0  0  0  0  0
  -25.8687  -11.6056   20.2855 N   0  0  0  0  0  0  0  0  0  0  0  0
  -25.7359  -22.0736   25.2262 N   0  0  0  0  0  0  0  0  0  0  0  0
  -26.2303  -12.8965   20.1913 N   0  0  0  0  0  0  0  0  0  0  0  0
  -31.7176  -22.8544   19.1323 N   0  0  0  0  0  0  0  0  0  0  0  0
  -29.9529  -13.7212   20.4055 N   0  0  0  0  0  0  0  0  0  0  0  0
  -25.4393  -15.1072   20.5037 N   0  0  0  0  0  0  0  0  0  0  0  0
  -34.0925  -20.2790   22.2626 N   0  0  0  0  0  0  0  0  0  0  0  0
  -21.8879  -12.5595   21.6407 N   0  0  0  0  0  0  0  0  0  0  0  0
  -29.4301  -19.7917   24.2445 N   0  0  0  0  0  0  0  0  0  0  0  0
  -30.0444  -15.7702   21.5699 N   0  0  0  0  0  0  0  0  0  0  0  0
  -35.1126  -23.5212   18.3020 N   0  0  0  0  0  0  0  0  0  0  0  0
  -29.7564  -20.3609   17.4502 N   0  0  0  0  0  0  0  0  0  0  0  0
  -34.3858  -18.3650   20.9912 N   0  3  0  0  0  0  0  0  0  0  0  0
  -30.4379  -17.1235   18.3086 N   0  3  0  0  0  0  0  0  0  0  0  0
  -22.6378  -14.7151   21.4172 O   0  0  0  0  0  0  0  0  0  0  0  0
  -33.1334  -24.6906   17.9308 O   0  0  0  0  0  0  0  0  0  0  0  0
  -32.2503  -21.2368   17.5478 O   0  0  0  0  0  0  0  0  0  0  0  0
  -27.4569  -18.5324   24.4359 O   0  0  0  0  0  0  0  0  0  0  0  0
  -29.4635  -19.6394   19.6344 O   0  0  0  0  0  0  0  0  0  0  0  0
  -31.8242  -15.0703   20.2568 O   0  0  0  0  0  0  0  0  0  0  0  0
  -21.6792   -6.9927   21.5959 O   0  0  0  0  0  0  0  0  0  0  0  0
  -28.8417  -23.0778   24.3534 O   0  0  0  0  0  0  0  0  0  1  0  0
  -18.7090   -6.6716   26.2305 F   0  0  0  0  0  0  0  0  0  0  0  0
  -22.1597   -5.0023   23.4534 F   0  0  0  0  0  0  0  0  0  0  0  0
  1  2  1  0  0  0  0
  1  5  2  0  0  0  0
  2  6  2  0  0  0  0
  3  8  2  0  0  0  0
  3 18  1  0  0  0  0
  4  9  1  0  0  0  0
  4 18  2  0  0  0  0
  5 21  1  0  0  0  0
  6 23  1  0  0  0  0
  7 10  2  0  0  0  0
  7 22  1  0  0  0  0
  8 27  1  0  0  0  0
  9 27  2  0  0  0  0
 10 28  1  0  0  0  0
 11 12  2  0  0  0  0
 11 29  1  0  0  0  0
 12 30  1  0  0  0  0
 13 19  1  0  0  0  0
 13 25  2  0  0  0  0
 14 19  2  0  0  0  0
 14 26  1  0  0  0  0
 15 24  1  0  0  0  0
 15 28  2  0  0  0  0
 16 25  1  0  0  0  0
 16 26  2  0  0  0  0
 17 30  2  0  0  0  0
 17 31  1  0  0  0  0
 18 32  1  0  0  0  0
 19 34  1  0  0  0  0
 20 32  1  0  0  0  0
 20 33  2  0  0  0  0
 20 35  1  0  0  0  0
 21 23  2  0  0  0  0
 21 42  1  0  0  0  0
 22 24  2  0  0  0  0
 22 43  1  0  0  0  0
 23 51  1  0  0  0  0
 24 44  1  0  0  0  0
 25 72  1  0  0  0  0
 26 73  1  0  0  0  0
 27 84  1  0  0  0  0
 28 85  1  0  0  0  0
 29 31  2  0  0  0  0
 29 84  1  0  0  0  0
 30 86  1  0  0  0  0
 31 87  1  0  0  0  0
 32 64  2  0  0  0  0
 33 66  1  0  0  0  0
 33 69  1  0  0  0  0
 34 70  1  0  0  0  0
 34 76  2  0  0  0  0
 35 71  1  0  0  0  0
 35 78  2  0  0  0  0
 36 52  1  0  0  0  0
 36 74  1  0  0  0  0
 36 79  2  0  0  0  0
 37 59  1  0  0  0  0
 37 60  1  0  0  0  0
 37 65  2  0  0  0  0
 38 61  1  0  0  0  0
 38 67  1  0  0  0  0
 38 80  2  0  0  0  0
 39 59  1  0  0  0  0
 39 72  1  0  0  0  0
 39 81  2  0  0  0  0
 40 62  1  0  0  0  0
 40 75  1  0  0  0  0
 40 82  2  0  0  0  0
 41 68  1  0  0  0  0
 41 73  1  0  0  0  0
 41 83  2  0  0  0  0
 42 45  1  0  0  0  0
 43 52  1  0  0  0  0
 44 67  1  0  0  0  0
 45 47  1  0  0  0  0
 46 48  1  0  0  0  0
 46 49  1  0  0  0  0
 47 51  1  0  0  0  0
 48 53  1  0  0  0  0
 49 68  1  0  0  0  0
 50 53  1  0  0  0  0
 50 68  1  0  0  0  0
 51 74  1  0  0  0  0
 52 67  1  0  0  0  0
 53 66  1  0  0  0  0
 54 62  1  0  0  0  0
 55 63  1  0  0  0  0
 56 63  1  0  0  0  0
 57 63  1  0  0  0  0
 58 77  1  0  0  0  0
 60 85  1  0  0  0  0
 61 63  1  0  0  0  0
 61 75  1  0  0  0  0
 62 77  1  0  0  0  0
 64 66  1  0  0  0  0
M  CHG  2  76   1  77   1
M  ISO  4  41 100  60 101  73 100  85 101
M  END
> <Batch ID>
0159

> <Smiles>
CNC(C)C(=O)NC(C(=O)N1Cc2cc([101O:1][101CH2:1]C(=N)CC(=O)Nc3cc([100NH:0][100C:0](=O)N4CCCC(n5nc(-c6ccc(Oc7ccc(F)cc7F)cc6)c(C(N)=O)c5N)C4)cc(C(=N)N)c3)ccc2CC1C(=O)NC1CCCc2ccccc21)C(C)(C)C

> <Shape>
0.219

> <Color>
0.182

> <Negative vol penalty>
0.000

$$$$

  -OEChem-04052303473D

 89 97  0     1  0  0  0  0  0999 V2000
  -28.3974  -32.5751   27.7549 C   0  0  0  0  0  0  0  0  0  0  0  0
  -28.6971  -31.7354   26.6870 C   0  0  0  0  0  0  0  0  0  0  0  0
  -24.1440   -9.7555   22.1542 C   0  0  0  0  0  0  0  0  0  0  0  0
  -24.5565  -11.3614   23.9115 C   0  0  0  0  0  0  0  0  0  0  0  0
  -27.0864  -32.6682   28.2204 C   0  0  0  0  0  0  0  0  0  0  0  0
  -27.6861  -30.9874   26.0846 C   0  0  0  0  0  0  0  0  0  0  0  0
  -27.2212  -29.5280   20.1550 C   0  0  0  0  0  0  0  0  0  0  0  0
  -23.7451   -8.8168   23.1057 C   0  0  0  0  0  0  0  0  0  0  0  0
  -24.1576  -10.4227   24.8630 C   0  0  0  0  0  0  0  0  0  0  0  0
  -27.5504  -28.3747   19.4443 C   0  0  0  0  0  0  0  0  0  0  0  0
  -20.9951   -8.1658   24.9623 C   0  0  0  0  0  0  0  0  0  0  0  0
  -19.8360   -7.4340   24.7046 C   0  0  0  0  0  0  0  0  0  0  0  0
  -25.2660  -27.6203   19.6220 C   0  0  0  0  0  0  0  0  0  0  0  0
  -21.1119   -5.3840   24.7871 C   0  0  0  0  0  0  0  0  0  0  0  0
  -29.5500  -20.2631   20.5338 C   0  0  0  0  0  0  0  0  0  0  0  0
  -24.5497  -11.0278   22.5571 C   0  0  0  0  0  0  0  0  0  0  0  0
  -24.1480  -12.9342   20.9104 C   0  0  0  0  0  0  0  0  0  0  0  0
  -26.0572  -31.9284   27.6172 C   0  0  0  0  0  0  0  0  0  0  0  0
  -25.9121  -29.7314   20.6148 C   0  0  0  0  0  0  0  0  0  0  0  0
  -26.3604  -31.0697   26.5433 C   0  0  0  0  0  0  0  0  0  0  0  0
  -24.9221  -28.7783   20.3361 C   0  0  0  0  0  0  0  0  0  0  0  0
  -23.7519   -9.1504   24.4601 C   0  0  0  0  0  0  0  0  0  0  0  0
  -26.5734  -27.4192   19.1802 C   0  0  0  0  0  0  0  0  0  0  0  0
  -22.2127   -7.5068   25.1323 C   0  0  0  0  0  0  0  0  0  0  0  0
  -19.8944   -6.0431   24.6170 C   0  0  0  0  0  0  0  0  0  0  0  0
  -22.2711   -6.1159   25.0447 C   0  0  0  0  0  0  0  0  0  0  0  0
  -24.9625  -11.9977   21.5747 C   0  0  0  0  0  0  0  0  0  0  0  0
  -25.0101  -13.6156   20.0864 C   0  0  0  0  0  0  0  0  0  0  0  0
  -29.6273  -20.9102   19.3183 C   0  0  0  0  0  0  0  0  0  0  0  0
  -30.9804  -18.9298   19.5409 C   0  0  0  0  0  0  0  0  0  0  0  0
  -27.3109  -25.1996   19.1934 C   0  0  0  0  0  0  0  0  0  1  0  0
  -22.7382  -13.1675   21.0276 C   0  0  0  0  0  0  0  0  0  0  0  0
  -31.9040  -17.7980   19.3368 C   0  0  0  0  0  0  0  0  0  0  0  0
  -27.6494  -24.0408   18.6153 C   0  0  0  0  0  0  0  0  0  0  0  0
  -28.0956  -22.8997   19.4796 C   0  0  0  0  0  0  0  0  0  0  0  0
  -24.5652  -30.0626   23.4748 C   0  0  0  0  0  0  0  0  0  0  0  0
  -21.9085  -30.6838   21.7202 C   0  0  0  0  0  0  0  0  0  0  0  0
  -20.2354  -30.3191   18.7682 C   0  0  0  0  0  0  0  0  0  0  0  0
  -29.9221  -16.2968   19.7337 C   0  0  0  0  0  0  0  0  0  0  0  0
  -24.6636  -32.0261   28.1857 C   0  0  0  0  0  0  0  0  0  0  0  0
  -25.5671  -30.9934   21.3569 C   0  0  0  0  0  0  0  0  0  0  0  0
  -23.4974  -28.9588   20.7900 C   0  0  0  0  0  0  0  0  0  0  0  0
  -23.5851  -31.4844   27.2510 C   0  0  0  0  0  0  0  0  0  0  0  0
  -29.7966  -12.6743   18.8039 C   0  0  0  0  0  0  0  0  0  0  0  0
  -24.0041  -30.1341   26.6783 C   0  0  0  0  0  0  0  0  0  0  0  0
  -28.4866  -12.2534   19.4663 C   0  0  0  0  0  0  0  0  0  0  0  0
  -30.4530  -13.8299   19.5512 C   0  0  0  0  0  0  0  0  0  0  0  0
  -28.2495  -14.6021   20.3853 C   0  0  0  0  0  0  0  0  0  0  0  0
  -25.2868  -30.2612   25.8477 C   0  0  1  0  0  0  0  0  0  0  0  0
  -24.3185  -30.8553   22.2224 C   0  0  1  0  0  0  0  0  0  0  0  0
  -27.5477  -13.4589   19.6347 C   0  0  2  0  0  0  0  0  0  0  0  0
  -18.0685  -30.9055   17.6465 C   0  0  0  0  0  0  0  0  0  0  0  0
  -36.2427  -15.7562   18.3151 C   0  0  0  0  0  0  0  0  0  0  0  0
  -36.0272  -17.8493   19.6673 C   0  0  0  0  0  0  0  0  0  0  0  0
  -35.4620  -17.8821   17.2310 C   0  0  0  0  0  0  0  0  0  0  0  0
  -20.4916  -28.5109   23.3268 C   0  0  0  0  0  0  0  0  0  0  0  0
  -18.7022  -28.4807   21.5759 C   0  0  0  0  0  0  0  0  0  0  0  0
  -19.1165  -30.5553   22.8977 C   0  0  0  0  0  0  0  0  0  0  0  0
  -21.6133  -31.8747   16.6610 C   0  0  0  0  0  0  0  0  0  0  0  0
  -33.9550  -16.6885   18.8832 C   0  0  0  0  0  0  0  0  0  0  0  0
  -20.7915  -29.8503   21.1400 C   0  0  1  0  0  0  0  0  0  0  0  0
  -19.5103  -31.3233   17.8906 C   0  0  2  0  0  0  0  0  0  0  0  0
  -35.4124  -17.0356   18.5142 C   0  0  0  0  0  0  0  0  0  0  0  0
  -19.8026  -29.3447   22.2281 C   0  0  0  0  0  0  0  0  0  0  0  0
  -30.3249  -19.1271   20.6632 N   0  0  0  0  0  0  0  0  0  0  0  0
  -26.2436  -12.0743   21.2047 N   0  0  0  0  0  0  0  0  0  0  0  0
  -33.1586  -17.8928   19.0591 N   0  0  0  0  0  0  0  0  0  0  0  0
  -26.2406  -13.0669   20.2988 N   0  0  0  0  0  0  0  0  0  0  0  0
  -23.2111  -30.2063   21.5175 N   0  0  0  0  0  0  0  0  0  0  0  0
  -29.5254  -14.9515   19.7561 N   0  0  0  0  0  0  0  0  0  0  0  0
  -24.8282  -14.6245   19.2081 N   0  0  0  0  0  0  0  0  0  0  0  0
  -22.0023  -12.3775   21.9213 N   0  0  0  0  0  0  0  0  0  0  0  0
  -28.9975  -22.0761   18.8200 N   0  0  0  0  0  0  0  0  0  0  0  0
  -31.2699  -16.5526   19.4558 N   0  0  0  0  0  0  0  0  0  0  0  0
  -24.9930  -30.8227   24.5466 N   0  0  0  0  0  0  0  0  0  0  0  0
  -20.1711  -30.6656   20.1012 N   0  0  0  0  0  0  0  0  0  0  0  0
  -20.1934  -31.4472   16.5719 N   0  3  0  0  0  0  0  0  0  0  0  0
  -22.1457  -14.0392   20.3476 O   0  0  0  0  0  0  0  0  0  0  0  0
  -27.6721  -22.7727   20.6235 O   0  0  0  0  0  0  0  0  0  0  0  0
  -24.3796  -28.8513   23.4696 O   0  0  0  0  0  0  0  0  0  0  0  0
  -21.6358  -31.7239   22.3246 O   0  0  0  0  0  0  0  0  0  0  0  0
  -20.7990  -29.3246   18.3167 O   0  0  0  0  0  0  0  0  0  0  0  0
  -29.1410  -17.2386   19.9062 O   0  0  0  0  0  0  0  0  0  0  0  0
  -27.6031  -23.8516   17.2490 O   0  0  0  0  0  0  0  0  0  0  0  0
  -23.3625   -8.2348   25.3888 O   0  0  0  0  0  0  0  0  0  0  0  0
  -26.8922  -26.2923   18.4873 O   0  0  0  0  0  0  0  0  0  1  0  0
  -18.7809   -5.3403   24.3711 F   0  0  0  0  0  0  0  0  0  0  0  0
  -23.4377   -5.4771   25.2083 F   0  0  0  0  0  0  0  0  0  0  0  0
  -30.7129  -20.0720   18.2885 S   0  0  0  0  0  0  0  0  0  0  0  0
  1  2  1  0  0  0  0
  1  5  2  0  0  0  0
  2  6  2  0  0  0  0
  3  8  2  0  0  0  0
  3 16  1  0  0  0  0
  4  9  1  0  0  0  0
  4 16  2  0  0  0  0
  5 18  1  0  0  0  0
  6 20  1  0  0  0  0
  7 10  2  0  0  0  0
  7 19  1  0  0  0  0
  8 22  1  0  0  0  0
  9 22  2  0  0  0  0
 10 23  1  0  0  0  0
 11 12  2  0  0  0  0
 11 24  1  0  0  0  0
 12 25  1  0  0  0  0
 13 21  1  0  0  0  0
 13 23  2  0  0  0  0
 14 25  2  0  0  0  0
 14 26  1  0  0  0  0
 15 29  2  0  0  0  0
 15 65  1  0  0  0  0
 16 27  1  0  0  0  0
 17 27  1  0  0  0  0
 17 28  2  0  0  0  0
 17 32  1  0  0  0  0
 18 20  2  0  0  0  0
 18 40  1  0  0  0  0
 19 21  2  0  0  0  0
 19 41  1  0  0  0  0
 20 49  1  0  0  0  0
 21 42  1  0  0  0  0
 22 85  1  0  0  0  0
 23 86  1  0  0  0  0
 24 26  2  0  0  0  0
 24 85  1  0  0  0  0
 25 87  1  0  0  0  0
 26 88  1  0  0  0  0
 27 66  2  0  0  0  0
 28 68  1  0  0  0  0
 28 71  1  0  0  0  0
 29 73  1  0  0  0  0
 29 89  1  0  0  0  0
 30 33  1  0  0  0  0
 30 65  2  0  0  0  0
 30 89  1  0  0  0  0
 31 34  2  0  0  0  0
 31 86  1  0  0  0  0
 32 72  1  0  0  0  0
 32 78  2  0  0  0  0
 33 67  2  0  0  0  0
 33 74  1  0  0  0  0
 34 35  1  0  0  0  0
 34 84  1  0  0  0  0
 35 73  1  0  0  0  0
 35 79  2  0  0  0  0
 36 50  1  0  0  0  0
 36 75  1  0  0  0  0
 36 80  2  0  0  0  0
 37 61  1  0  0  0  0
 37 69  1  0  0  0  0
 37 81  2  0  0  0  0
 38 62  1  0  0  0  0
 38 76  1  0  0  0  0
 38 82  2  0  0  0  0
 39 70  1  0  0  0  0
 39 74  1  0  0  0  0
 39 83  2  0  0  0  0
 40 43  1  0  0  0  0
 41 50  1  0  0  0  0
 42 69  1  0  0  0  0
 43 45  1  0  0  0  0
 44 46  1  0  0  0  0
 44 47  1  0  0  0  0
 45 49  1  0  0  0  0
 46 51  1  0  0  0  0
 47 70  1  0  0  0  0
 48 51  1  0  0  0  0
 48 70  1  0  0  0  0
 49 75  1  0  0  0  0
 50 69  1  0  0  0  0
 51 68  1  0  0  0  0
 52 62  1  0  0  0  0
 53 63  1  0  0  0  0
 54 63  1  0  0  0  0
 55 63  1  0  0  0  0
 56 64  1  0  0  0  0
 57 64  1  0  0  0  0
 58 64  1  0  0  0  0
 59 77  1  0  0  0  0
 60 63  1  0  0  0  0
 60 67  1  0  0  0  0
 61 64  1  0  0  0  0
 61 76  1  0  0  0  0
 62 77  1  0  0  0  0
 66 68  1  0  0  0  0
M  CHG  1  77   1
M  ISO  4  31 101  39 100  74 100  86 101
M  END
> <Batch ID>
0159

> <Smiles>
CNC(C)C(=O)NC(C(=O)N1Cc2cc([101O:1][101CH2:1]C(=O)C(=O)Nc3cnc(C(=NCC(C)(C)C)[100NH:0][100C:0](=O)N4CCCC(n5nc(-c6ccc(Oc7ccc(F)cc7F)cc6)c(C(N)=O)c5N)C4)s3)ccc2CC1C(=O)NC1CCCc2ccccc21)C(C)(C)C

> <Shape>
0.293

> <Color>
0.116

> <Negative vol penalty>
0.000

$$$$

  -OEChem-04052303473D

 84 92  0     1  0  0  0  0  0999 V2000
  -28.7040  -31.8501   27.7797 C   0  0  0  0  0  0  0  0  0  0  0  0
  -28.7687  -30.9145   26.7521 C   0  0  0  0  0  0  0  0  0  0  0  0
  -24.3223   -8.5820   21.3523 C   0  0  0  0  0  0  0  0  0  0  0  0
  -24.1203  -10.3426   22.9944 C   0  0  0  0  0  0  0  0  0  0  0  0
  -27.4682  -32.3464   28.1923 C   0  0  0  0  0  0  0  0  0  0  0  0
  -27.5973  -30.4738   26.1373 C   0  0  0  0  0  0  0  0  0  0  0  0
  -26.8747  -28.9651   20.2460 C   0  0  0  0  0  0  0  0  0  0  0  0
  -23.8314   -7.6618   22.2785 C   0  0  0  0  0  0  0  0  0  0  0  0
  -23.6293   -9.4224   23.9206 C   0  0  0  0  0  0  0  0  0  0  0  0
  -26.8650  -27.7367   19.5867 C   0  0  0  0  0  0  0  0  0  0  0  0
  -20.8268   -6.7569   23.5382 C   0  0  0  0  0  0  0  0  0  0  0  0
  -19.8560   -5.8547   23.1034 C   0  0  0  0  0  0  0  0  0  0  0  0
  -29.1108  -20.0617   19.1341 C   0  0  0  0  0  0  0  0  0  0  0  0
  -24.4558  -27.6997   19.7034 C   0  0  0  0  0  0  0  0  0  0  0  0
  -21.3173   -4.0134   23.6614 C   0  0  0  0  0  0  0  0  0  0  0  0
  -24.4669   -9.9224   21.7103 C   0  0  0  0  0  0  0  0  0  0  0  0
  -29.6013  -18.7248   19.1796 C   0  0  0  0  0  0  0  0  0  0  0  0
  -24.2281  -11.6407   19.8400 C   0  0  0  0  0  0  0  0  0  0  0  0
  -26.2818  -31.9188   27.5757 C   0  0  0  0  0  0  0  0  0  0  0  0
  -25.6735  -29.5658   20.6493 C   0  0  0  0  0  0  0  0  0  0  0  0
  -26.3443  -30.9639   26.5430 C   0  0  0  0  0  0  0  0  0  0  0  0
  -24.4528  -28.9370   20.3654 C   0  0  0  0  0  0  0  0  0  0  0  0
  -23.4848   -8.0820   23.5626 C   0  0  0  0  0  0  0  0  0  0  0  0
  -25.6557  -27.1024   19.3179 C   0  0  0  0  0  0  0  0  0  0  0  0
  -22.0430   -6.2874   24.0345 C   0  0  0  0  0  0  0  0  0  0  0  0
  -20.1012   -4.4829   23.1650 C   0  0  0  0  0  0  0  0  0  0  0  0
  -22.2881   -4.9156   24.0962 C   0  0  0  0  0  0  0  0  0  0  0  0
  -24.9745  -10.8733   20.7542 C   0  0  0  0  0  0  0  0  0  0  0  0
  -25.1681  -12.3799   19.1643 C   0  0  0  0  0  0  0  0  0  0  0  0
  -27.7565  -20.1079   18.8864 C   0  0  0  0  0  0  0  0  0  0  0  0
  -28.6030  -17.7999   18.9651 C   0  0  0  0  0  0  0  0  0  0  0  0
  -30.9731  -18.3565   19.4196 C   0  0  0  0  0  0  0  0  0  0  0  0
  -22.8117  -11.6817   19.6211 C   0  0  0  0  0  0  0  0  0  0  0  0
  -24.4115  -30.4023   23.4442 C   0  0  0  0  0  0  0  0  0  0  0  0
  -26.3697  -23.5919   18.7436 C   0  0  0  0  0  0  0  0  0  0  0  0
  -22.1057  -31.7055   21.5715 C   0  0  0  0  0  0  0  0  0  0  0  0
  -20.4772  -31.7259   18.5725 C   0  0  0  0  0  0  0  0  0  0  0  0
  -29.7408  -15.5563   19.0994 C   0  0  0  0  0  0  0  0  0  0  0  0
  -24.9658  -32.4484   28.0879 C   0  0  0  0  0  0  0  0  0  0  0  0
  -25.6995  -30.9039   21.3358 C   0  0  0  0  0  0  0  0  0  0  0  0
  -23.1346  -29.5498   20.7593 C   0  0  0  0  0  0  0  0  0  0  0  0
  -23.7998  -32.2103   27.1318 C   0  0  0  0  0  0  0  0  0  0  0  0
  -30.2173  -12.0278   19.1073 C   0  0  0  0  0  0  0  0  0  0  0  0
  -23.8138  -30.7734   26.6202 C   0  0  0  0  0  0  0  0  0  0  0  0
  -28.8344  -11.4760   19.4613 C   0  0  0  0  0  0  0  0  0  0  0  0
  -30.5207  -13.3226   19.8592 C   0  0  0  0  0  0  0  0  0  0  0  0
  -28.1179  -13.8190   20.0811 C   0  0  0  0  0  0  0  0  0  0  0  0
  -25.0976  -30.4799   25.8347 C   0  0  1  0  0  0  0  0  0  0  0  0
  -24.4440  -31.1782   22.1579 C   0  0  1  0  0  0  0  0  0  0  0  0
  -27.7408  -12.5500   19.2994 C   0  0  2  0  0  0  0  0  0  0  0  0
  -32.0504  -19.3117   18.9726 C   0  0  0  0  0  0  0  0  0  0  0  0
  -18.6121  -32.8783   17.3514 C   0  0  0  0  0  0  0  0  0  0  0  0
  -20.0663  -30.1194   23.1948 C   0  0  0  0  0  0  0  0  0  0  0  0
  -18.3948  -30.5448   21.3800 C   0  0  0  0  0  0  0  0  0  0  0  0
  -19.3717  -32.4586   22.6470 C   0  0  0  0  0  0  0  0  0  0  0  0
  -22.3092  -32.7132   16.4682 C   0  0  0  0  0  0  0  0  0  0  0  0
  -27.4895  -22.5885   18.9203 C   0  0  0  0  0  0  0  0  0  0  0  0
  -26.7696  -25.0489   18.8723 C   0  0  0  0  0  0  0  0  0  1  0  0
  -20.8071  -31.2156   20.9777 C   0  0  1  0  0  0  0  0  0  0  0  0
  -20.1060  -32.8612   17.6355 C   0  0  2  0  0  0  0  0  0  0  0  0
  -19.6848  -31.0719   22.0440 C   0  0  0  0  0  0  0  0  0  0  0  0
  -26.2875  -11.1036   20.6696 N   0  0  0  0  0  0  0  0  0  0  0  0
  -26.3734  -12.0240   19.6940 N   0  0  0  0  0  0  0  0  0  0  0  0
  -23.2127  -30.8561   21.4338 N   0  0  0  0  0  0  0  0  0  0  0  0
  -29.4439  -14.2942   19.6561 N   0  0  0  0  0  0  0  0  0  0  0  0
  -25.0729  -13.2930   18.1746 N   0  0  0  0  0  0  0  0  0  0  0  0
  -21.9908  -10.8574   20.4027 N   0  0  0  0  0  0  0  0  0  0  0  0
  -28.6323  -16.3838   18.9231 N   0  0  0  0  0  0  0  0  0  0  0  0
  -26.9756  -21.2499   18.7809 N   0  0  0  0  0  0  0  0  0  0  0  0
  -25.0176  -31.0470   24.5056 N   0  0  0  0  0  0  0  0  0  0  0  0
  -20.4840  -32.1326   19.8900 N   0  0  0  0  0  0  0  0  0  0  0  0
  -20.8292  -32.7211   16.3400 N   0  3  0  0  0  0  0  0  0  0  0  0
  -31.3528  -17.3082   19.9640 O   0  0  0  0  0  0  0  0  0  0  0  0
  -22.2910  -12.4150   18.7467 O   0  0  0  0  0  0  0  0  0  0  0  0
  -23.8750  -29.3009   23.4721 O   0  0  0  0  0  0  0  0  0  0  0  0
  -25.2084  -23.2588   18.5111 O   0  0  0  0  0  0  0  0  0  0  0  0
  -22.1384  -32.8047   22.1305 O   0  0  0  0  0  0  0  0  0  0  0  0
  -20.7318  -30.5909   18.1756 O   0  0  0  0  0  0  0  0  0  0  0  0
  -30.8895  -15.8688   18.7757 O   0  0  0  0  0  0  0  0  0  0  0  0
  -23.0055   -7.1844   24.4665 O   0  0  0  0  0  0  0  0  0  0  0  0
  -25.6435  -25.9030   18.6751 O   0  0  0  0  0  0  0  0  0  1  0  0
  -19.1682   -3.6166   22.7489 F   0  0  0  0  0  0  0  0  0  0  0  0
  -23.4541   -4.4586   24.5732 F   0  0  0  0  0  0  0  0  0  0  0  0
  -27.0819  -18.5439   18.7099 S   0  0  0  0  0  0  0  0  0  0  0  0
  1  2  1  0  0  0  0
  1  5  2  0  0  0  0
  2  6  2  0  0  0  0
  3  8  2  0  0  0  0
  3 16  1  0  0  0  0
  4  9  1  0  0  0  0
  4 16  2  0  0  0  0
  5 19  1  0  0  0  0
  6 21  1  0  0  0  0
  7 10  2  0  0  0  0
  7 20  1  0  0  0  0
  8 23  1  0  0  0  0
  9 23  2  0  0  0  0
 10 24  1  0  0  0  0
 11 12  2  0  0  0  0
 11 25  1  0  0  0  0
 12 26  1  0  0  0  0
 13 17  1  0  0  0  0
 13 30  2  0  0  0  0
 14 22  1  0  0  0  0
 14 24  2  0  0  0  0
 15 26  2  0  0  0  0
 15 27  1  0  0  0  0
 16 28  1  0  0  0  0
 17 31  2  0  0  0  0
 17 32  1  0  0  0  0
 18 28  1  0  0  0  0
 18 29  2  0  0  0  0
 18 33  1  0  0  0  0
 19 21  2  0  0  0  0
 19 39  1  0  0  0  0
 20 22  2  0  0  0  0
 20 40  1  0  0  0  0
 21 48  1  0  0  0  0
 22 41  1  0  0  0  0
 23 80  1  0  0  0  0
 24 81  1  0  0  0  0
 25 27  2  0  0  0  0
 25 80  1  0  0  0  0
 26 82  1  0  0  0  0
 27 83  1  0  0  0  0
 28 62  2  0  0  0  0
 29 63  1  0  0  0  0
 29 66  1  0  0  0  0
 30 69  1  0  0  0  0
 30 84  1  0  0  0  0
 31 68  1  0  0  0  0
 31 84  1  0  0  0  0
 32 51  1  0  0  0  0
 32 73  2  0  0  0  0
 33 67  1  0  0  0  0
 33 74  2  0  0  0  0
 34 49  1  0  0  0  0
 34 70  1  0  0  0  0
 34 75  2  0  0  0  0
 35 57  1  0  0  0  0
 35 58  1  0  0  0  0
 35 76  2  0  0  0  0
 36 59  1  0  0  0  0
 36 64  1  0  0  0  0
 36 77  2  0  0  0  0
 37 60  1  0  0  0  0
 37 71  1  0  0  0  0
 37 78  2  0  0  0  0
 38 65  1  0  0  0  0
 38 68  1  0  0  0  0
 38 79  2  0  0  0  0
 39 42  1  0  0  0  0
 40 49  1  0  0  0  0
 41 64  1  0  0  0  0
 42 44  1  0  0  0  0
 43 45  1  0  0  0  0
 43 46  1  0  0  0  0
 44 48  1  0  0  0  0
 45 50  1  0  0  0  0
 46 65  1  0  0  0  0
 47 50  1  0  0  0  0
 47 65  1  0  0  0  0
 48 70  1  0  0  0  0
 49 64  1  0  0  0  0
 50 63  1  0  0  0  0
 52 60  1  0  0  0  0
 53 61  1  0  0  0  0
 54 61  1  0  0  0  0
 55 61  1  0  0  0  0
 56 72  1  0  0  0  0
 57 69  1  0  0  0  0
 58 81  1  0  0  0  0
 59 61  1  0  0  0  0
 59 71  1  0  0  0  0
 60 72  1  0  0  0  0
 62 63  1  0  0  0  0
M  CHG  1  72   1
M  ISO  4  38 100  58 101  68 100  81 101
M  END
> <Batch ID>
0159

> <Smiles>
CNC(C)C(=O)NC(C(=O)N1Cc2cc([101O:1][101CH2:1]C(=O)CNc3cc(C(C)=O)c([100NH:0][100C:0](=O)N4CCCC(n5nc(-c6ccc(Oc7ccc(F)cc7F)cc6)c(C(N)=O)c5N)C4)s3)ccc2CC1C(=O)NC1CCCc2ccccc21)C(C)(C)C

> <Shape>
0.283

> <Color>
0.103

> <Negative vol penalty>
0.000

$$$$

  -OEChem-04052303473D

 83 91  0     1  0  0  0  0  0999 V2000
  -27.0093  -33.6405   23.5772 C   0  0  0  0  0  0  0  0  0  0  0  0
  -28.0001  -32.6638   23.5746 C   0  0  0  0  0  0  0  0  0  0  0  0
  -23.0757   -9.8656   19.9446 C   0  0  0  0  0  0  0  0  0  0  0  0
  -23.8347   -9.8787   22.2383 C   0  0  0  0  0  0  0  0  0  0  0  0
  -25.7007  -33.3034   23.9205 C   0  0  0  0  0  0  0  0  0  0  0  0
  -27.6830  -31.3497   23.9164 C   0  0  0  0  0  0  0  0  0  0  0  0
  -30.1330  -26.2452   21.5825 C   0  0  0  0  0  0  0  0  0  0  0  0
  -22.3322   -8.7128   20.1972 C   0  0  0  0  0  0  0  0  0  0  0  0
  -23.0911   -8.7259   22.4909 C   0  0  0  0  0  0  0  0  0  0  0  0
  -31.1371  -25.3928   22.0395 C   0  0  0  0  0  0  0  0  0  0  0  0
  -19.8630   -7.9284   23.0941 C   0  0  0  0  0  0  0  0  0  0  0  0
  -19.1056   -7.8912   24.2648 C   0  0  0  0  0  0  0  0  0  0  0  0
  -29.4625  -23.9382   22.9877 C   0  0  0  0  0  0  0  0  0  0  0  0
  -20.3474   -5.9561   25.0067 C   0  0  0  0  0  0  0  0  0  0  0  0
  -23.8270  -10.4485   20.9652 C   0  0  0  0  0  0  0  0  0  0  0  0
  -24.1680  -12.9735   20.8389 C   0  0  0  0  0  0  0  0  0  0  0  0
  -25.3654  -31.9825   24.2573 C   0  0  0  0  0  0  0  0  0  0  0  0
  -28.7842  -25.9556   21.8345 C   0  0  0  0  0  0  0  0  0  0  0  0
  -26.3689  -30.9949   24.2658 C   0  0  0  0  0  0  0  0  0  0  0  0
  -28.4430  -24.7872   22.5305 C   0  0  0  0  0  0  0  0  0  0  0  0
  -22.3398   -8.1430   21.4703 C   0  0  0  0  0  0  0  0  0  0  0  0
  -30.8021  -24.2406   22.7447 C   0  0  0  0  0  0  0  0  0  0  0  0
  -20.8626   -6.9795   22.8797 C   0  0  0  0  0  0  0  0  0  0  0  0
  -19.3478   -6.9051   25.2211 C   0  0  0  0  0  0  0  0  0  0  0  0
  -21.1048   -5.9933   23.8359 C   0  0  0  0  0  0  0  0  0  0  0  0
  -24.5958  -11.6390   20.7047 C   0  0  0  0  0  0  0  0  0  0  0  0
  -31.8068  -18.7330   22.2362 C   0  0  0  0  0  0  0  0  0  0  0  0
  -25.2600  -13.7224   20.4741 C   0  0  0  0  0  0  0  0  0  0  0  0
  -30.7045  -19.1011   22.9788 C   0  0  0  0  0  0  0  0  0  0  0  0
  -30.5700  -16.9545   21.8941 C   0  0  0  0  0  0  0  0  0  0  0  0
  -22.8972  -13.4899   21.2560 C   0  0  0  0  0  0  0  0  0  0  0  0
  -33.0280  -19.5629   22.0777 C   0  0  0  0  0  0  0  0  0  0  0  0
  -26.4392  -27.3979   23.4232 C   0  0  0  0  0  0  0  0  0  0  0  0
  -24.6425  -25.0092   22.1631 C   0  0  0  0  0  0  0  0  0  0  0  0
  -33.5638  -21.9852   22.5362 C   0  0  0  0  0  0  0  0  0  0  0  0
  -24.5148  -21.8549   20.8665 C   0  0  0  0  0  0  0  0  0  0  0  0
  -30.7258  -14.7703   20.6485 C   0  0  0  0  0  0  0  0  0  0  0  0
  -23.9468  -31.6756   24.6672 C   0  0  0  0  0  0  0  0  0  0  0  0
  -27.7117  -26.8714   21.3115 C   0  0  0  0  0  0  0  0  0  0  0  0
  -27.0091  -24.4205   22.8096 C   0  0  0  0  0  0  0  0  0  0  0  0
  -23.6178  -30.1850   24.6537 C   0  0  0  0  0  0  0  0  0  0  0  0
  -29.6132  -12.3503   18.2857 C   0  0  0  0  0  0  0  0  0  0  0  0
  -24.7227  -29.3882   25.3402 C   0  0  0  0  0  0  0  0  0  0  0  0
  -28.1734  -12.0593   18.7155 C   0  0  0  0  0  0  0  0  0  0  0  0
  -30.5277  -12.5824   19.4872 C   0  0  0  0  0  0  0  0  0  0  0  0
  -28.6200  -13.3096   20.8659 C   0  0  0  0  0  0  0  0  0  0  0  0
  -26.0592  -29.5533   24.6067 C   0  0  1  0  0  0  0  0  0  0  0  0
  -26.3948  -26.7442   22.0711 C   0  0  1  0  0  0  0  0  0  0  0  0
  -27.6477  -13.1331   19.6881 C   0  0  2  0  0  0  0  0  0  0  0  0
  -22.8998  -20.1615   19.9602 C   0  0  0  0  0  0  0  0  0  0  0  0
  -23.7122  -24.3813   25.0004 C   0  0  0  0  0  0  0  0  0  0  0  0
  -22.8971  -22.1652   24.1681 C   0  0  0  0  0  0  0  0  0  0  0  0
  -21.9146  -24.2728   23.2651 C   0  0  0  0  0  0  0  0  0  0  0  0
  -25.8486  -21.8255   18.2247 C   0  0  0  0  0  0  0  0  0  0  0  0
  -32.9829  -23.3467   22.4267 C   0  0  0  0  0  0  0  0  0  1  0  0
  -24.2624  -23.6142   22.5973 C   0  0  1  0  0  0  0  0  0  0  0  0
  -23.8442  -21.3042   19.6209 C   0  0  2  0  0  0  0  0  0  0  0  0
  -23.2238  -23.6160   23.7543 C   0  0  0  0  0  0  0  0  0  0  0  0
  -25.8608  -11.5426   20.2872 N   0  0  0  0  0  0  0  0  0  0  0  0
  -31.7317  -17.5023   21.6138 N   0  0  0  0  0  0  0  0  0  0  0  0
  -26.2373  -12.8260   20.1558 N   0  0  0  0  0  0  0  0  0  0  0  0
  -25.9969  -25.3511   22.2832 N   0  0  0  0  0  0  0  0  0  0  0  0
  -29.9680  -13.6152   20.3618 N   0  0  0  0  0  0  0  0  0  0  0  0
  -25.4700  -15.0538   20.3978 N   0  0  0  0  0  0  0  0  0  0  0  0
  -30.5111  -20.2410   23.6867 N   0  0  0  0  0  0  0  0  0  0  0  0
  -21.8854  -12.5812   21.5951 N   0  0  0  0  0  0  0  0  0  0  0  0
  -34.7815  -21.9323   23.0663 N   0  0  0  0  0  0  0  0  0  0  0  0
  -30.0778  -15.6972   21.4643 N   0  0  0  0  0  0  0  0  0  0  0  0
  -26.0859  -28.7338   23.4142 N   0  0  0  0  0  0  0  0  0  0  0  0
  -23.8158  -22.9197   21.3945 N   0  0  0  0  0  0  0  0  0  0  0  0
  -34.1741  -19.0094   21.8993 N   0  3  0  0  0  0  0  0  0  0  0  0
  -32.7779  -20.9898   22.1123 N   0  3  0  0  0  0  0  0  0  0  0  0
  -24.8673  -20.7995   18.6620 N   0  3  0  0  0  0  0  0  0  0  0  0
  -22.6604  -14.7206   21.3101 O   0  0  0  0  0  0  0  0  0  0  0  0
  -26.7681  -26.7387   24.4025 O   0  0  0  0  0  0  0  0  0  0  0  0
  -23.7710  -25.7652   21.7265 O   0  0  0  0  0  0  0  0  0  0  0  0
  -25.5528  -21.3849   21.3273 O   0  0  0  0  0  0  0  0  0  0  0  0
  -31.8550  -14.9383   20.1809 O   0  0  0  0  0  0  0  0  0  0  0  0
  -21.6142   -7.0182   21.7172 O   0  0  0  0  0  0  0  0  0  0  0  0
  -31.7803  -23.4073   23.1925 O   0  0  0  0  0  0  0  0  0  1  0  0
  -18.6214   -6.8704   26.3460 F   0  0  0  0  0  0  0  0  0  0  0  0
  -22.0645   -5.0797   23.6360 F   0  0  0  0  0  0  0  0  0  0  0  0
  -29.5189  -17.8643   22.9003 S   0  0  0  0  0  0  0  0  0  0  0  0
  1  2  1  0  0  0  0
  1  5  2  0  0  0  0
  2  6  2  0  0  0  0
  3  8  2  0  0  0  0
  3 15  1  0  0  0  0
  4  9  1  0  0  0  0
  4 15  2  0  0  0  0
  5 17  1  0  0  0  0
  6 19  1  0  0  0  0
  7 10  2  0  0  0  0
  7 18  1  0  0  0  0
  8 21  1  0  0  0  0
  9 21  2  0  0  0  0
 10 22  1  0  0  0  0
 11 12  2  0  0  0  0
 11 23  1  0  0  0  0
 12 24  1  0  0  0  0
 13 20  1  0  0  0  0
 13 22  2  0  0  0  0
 14 24  2  0  0  0  0
 14 25  1  0  0  0  0
 15 26  1  0  0  0  0
 16 26  1  0  0  0  0
 16 28  2  0  0  0  0
 16 31  1  0  0  0  0
 17 19  2  0  0  0  0
 17 38  1  0  0  0  0
 18 20  2  0  0  0  0
 18 39  1  0  0  0  0
 19 47  1  0  0  0  0
 20 40  1  0  0  0  0
 21 79  1  0  0  0  0
 22 80  1  0  0  0  0
 23 25  2  0  0  0  0
 23 79  1  0  0  0  0
 24 81  1  0  0  0  0
 25 82  1  0  0  0  0
 26 59  2  0  0  0  0
 27 29  2  0  0  0  0
 27 32  1  0  0  0  0
 27 60  1  0  0  0  0
 28 61  1  0  0  0  0
 28 64  1  0  0  0  0
 29 65  1  0  0  0  0
 29 83  1  0  0  0  0
 30 60  2  0  0  0  0
 30 68  1  0  0  0  0
 30 83  1  0  0  0  0
 31 66  1  0  0  0  0
 31 74  2  0  0  0  0
 32 71  2  0  0  0  0
 32 72  1  0  0  0  0
 33 48  1  0  0  0  0
 33 69  1  0  0  0  0
 33 75  2  0  0  0  0
 34 56  1  0  0  0  0
 34 62  1  0  0  0  0
 34 76  2  0  0  0  0
 35 55  1  0  0  0  0
 35 67  1  0  0  0  0
 35 72  2  0  0  0  0
 36 57  1  0  0  0  0
 36 70  1  0  0  0  0
 36 77  2  0  0  0  0
 37 63  1  0  0  0  0
 37 68  1  0  0  0  0
 37 78  2  0  0  0  0
 38 41  1  0  0  0  0
 39 48  1  0  0  0  0
 40 62  1  0  0  0  0
 41 43  1  0  0  0  0
 42 44  1  0  0  0  0
 42 45  1  0  0  0  0
 43 47  1  0  0  0  0
 44 49  1  0  0  0  0
 45 63  1  0  0  0  0
 46 49  1  0  0  0  0
 46 63  1  0  0  0  0
 47 69  1  0  0  0  0
 48 62  1  0  0  0  0
 49 61  1  0  0  0  0
 50 57  1  0  0  0  0
 51 58  1  0  0  0  0
 52 58  1  0  0  0  0
 53 58  1  0  0  0  0
 54 73  1  0  0  0  0
 55 80  1  0  0  0  0
 56 58  1  0  0  0  0
 56 70  1  0  0  0  0
 57 73  1  0  0  0  0
 59 61  1  0  0  0  0
M  CHG  3  71   1  72   1  73   1
M  ISO  4  37 100  55 101  68 100  80 101
M  END
> <Batch ID>
0159

> <Smiles>
CNC(C)C(=O)NC(C(=O)N1Cc2cc([101O:1][101CH2:1]C(=N)NC(=N)c3nc([100NH:0][100C:0](=O)N4CCCC(n5nc(-c6ccc(Oc7ccc(F)cc7F)cc6)c(C(N)=O)c5N)C4)sc3N)ccc2CC1C(=O)NC1CCCc2ccccc21)C(C)(C)C

> <Shape>
0.243

> <Color>
0.170

> <Negative vol penalty>
0.000

$$$$

  -OEChem-04052303473D

 87 96  0     1  0  0  0  0  0999 V2000
  -27.2686  -38.3777   21.2916 C   0  0  0  0  0  0  0  0  0  0  0  0
  -27.8666  -37.1773   20.9214 C   0  0  0  0  0  0  0  0  0  0  0  0
  -26.3776   -8.3880   20.1065 C   0  0  0  0  0  0  0  0  0  0  0  0
  -26.5268   -8.7750   22.4867 C   0  0  0  0  0  0  0  0  0  0  0  0
  -26.3027  -38.3931   22.2970 C   0  0  0  0  0  0  0  0  0  0  0  0
  -27.4997  -35.9918   21.5573 C   0  0  0  0  0  0  0  0  0  0  0  0
  -27.1605  -30.4180   19.0426 C   0  0  0  0  0  0  0  0  0  0  0  0
  -27.1786   -7.2540   20.2407 C   0  0  0  0  0  0  0  0  0  0  0  0
  -27.3277   -7.6410   22.6209 C   0  0  0  0  0  0  0  0  0  0  0  0
  -28.0395  -29.3358   19.0385 C   0  0  0  0  0  0  0  0  0  0  0  0
  -30.4659   -6.5554   20.6016 C   0  0  0  0  0  0  0  0  0  0  0  0
  -31.4975   -6.3787   19.6796 C   0  0  0  0  0  0  0  0  0  0  0  0
  -26.8486  -28.3692   20.9004 C   0  0  0  0  0  0  0  0  0  0  0  0
  -30.5154   -4.2844   18.9820 C   0  0  0  0  0  0  0  0  0  0  0  0
  -26.0517   -9.1486   21.2295 C   0  0  0  0  0  0  0  0  0  0  0  0
  -23.8207  -10.3841   21.1693 C   0  0  0  0  0  0  0  0  0  0  0  0
  -25.9169  -37.2058   22.9388 C   0  0  0  0  0  0  0  0  0  0  0  0
  -26.1239  -30.4894   19.9843 C   0  0  0  0  0  0  0  0  0  0  0  0
  -26.5287  -35.9915   22.5731 C   0  0  0  0  0  0  0  0  0  0  0  0
  -25.9563  -29.4521   20.9128 C   0  0  0  0  0  0  0  0  0  0  0  0
  -27.6536   -6.8804   21.4979 C   0  0  0  0  0  0  0  0  0  0  0  0
  -27.8854  -28.3126   19.9693 C   0  0  0  0  0  0  0  0  0  0  0  0
  -29.4590   -5.5965   20.7139 C   0  0  0  0  0  0  0  0  0  0  0  0
  -31.5222   -5.2433   18.8698 C   0  0  0  0  0  0  0  0  0  0  0  0
  -29.4837   -4.4611   19.9041 C   0  0  0  0  0  0  0  0  0  0  0  0
  -25.2249  -10.3205   21.0915 C   0  0  0  0  0  0  0  0  0  0  0  0
  -29.2172  -19.3220   20.9744 C   0  0  0  0  0  0  0  0  0  0  0  0
  -23.5257  -11.7110   20.9729 C   0  0  0  0  0  0  0  0  0  0  0  0
  -30.0170  -18.8381   19.9603 C   0  0  0  0  0  0  0  0  0  0  0  0
  -29.4195  -21.1665   19.8052 C   0  0  0  0  0  0  0  0  0  0  0  0
  -22.8682   -9.3372   21.3988 C   0  0  0  0  0  0  0  0  0  0  0  0
  -25.3548  -32.4967   22.3258 C   0  0  0  0  0  0  0  0  0  0  0  0
  -28.9668  -24.8543   19.7342 C   0  0  0  0  0  0  0  0  0  0  0  0
  -22.6928  -30.6519   22.5059 C   0  0  0  0  0  0  0  0  0  0  0  0
  -21.2134  -27.6344   21.9121 C   0  0  0  0  0  0  0  0  0  0  0  0
  -27.4725  -16.3897   21.7221 C   0  0  0  0  0  0  0  0  0  0  0  0
  -24.9026  -37.2792   24.0525 C   0  0  0  0  0  0  0  0  0  0  0  0
  -25.1679  -31.6504   19.9584 C   0  0  0  0  0  0  0  0  0  0  0  0
  -24.8472  -29.4713   21.9316 C   0  0  0  0  0  0  0  0  0  0  0  0
  -24.2997  -35.9251   24.4175 C   0  0  0  0  0  0  0  0  0  0  0  0
  -27.2022  -20.1167   23.5209 C   0  0  0  0  0  0  0  0  0  0  0  0
  -25.9890  -19.2905   23.1178 C   0  0  0  0  0  0  0  0  0  0  0  0
  -25.6334  -15.4248   18.6698 C   0  0  0  0  0  0  0  0  0  0  0  0
  -25.3946  -34.8712   24.5490 C   0  0  0  0  0  0  0  0  0  0  0  0
  -28.4766  -19.2732   23.4950 C   0  0  0  0  0  0  0  0  0  0  0  0
  -24.8689  -14.1524   19.0415 C   0  0  0  0  0  0  0  0  0  0  0  0
  -25.7560  -16.3887   19.8447 C   0  0  0  0  0  0  0  0  0  0  0  0
  -26.2054  -18.5799   21.7845 C   0  0  0  0  0  0  0  0  0  0  0  0
  -26.2777  -14.3167   21.1458 C   0  0  0  0  0  0  0  0  0  0  0  0
  -26.1396  -34.6811   23.2223 C   0  0  1  0  0  0  0  0  0  0  0  0
  -28.6853  -18.5243   22.1638 C   0  0  1  0  0  0  0  0  0  0  0  0
  -24.4611  -31.8722   21.2920 C   0  0  1  0  0  0  0  0  0  0  0  0
  -24.9597  -13.8146   20.5416 C   0  0  2  0  0  0  0  0  0  0  0  0
  -19.0393  -26.4152   22.2026 C   0  0  0  0  0  0  0  0  0  0  0  0
  -23.2915  -30.2972   25.4767 C   0  0  0  0  0  0  0  0  0  0  0  0
  -21.6986  -28.3658   25.4959 C   0  0  0  0  0  0  0  0  0  0  0  0
  -20.8761  -30.6529   24.9345 C   0  0  0  0  0  0  0  0  0  0  0  0
  -20.9054  -27.2503   18.9938 C   0  0  0  0  0  0  0  0  0  0  0  0
  -28.5159  -23.4677   20.1418 C   0  0  0  0  0  0  0  0  0  0  0  0
  -28.2439  -26.0032   20.4101 C   0  0  0  0  0  0  0  0  0  1  0  0
  -22.3054  -29.4050   23.2637 C   0  0  1  0  0  0  0  0  0  0  0  0
  -19.8847  -27.2723   21.2734 C   0  0  2  0  0  0  0  0  0  0  0  0
  -22.0651  -29.6805   24.7749 C   0  0  0  0  0  0  0  0  0  0  0  0
  -25.7831  -11.5122   20.8632 N   0  0  0  0  0  0  0  0  0  0  0  0
  -28.8739  -20.6570   20.8873 N   0  0  0  0  0  0  0  0  0  0  0  0
  -24.7243  -12.3371   20.7958 N   0  0  0  0  0  0  0  0  0  0  0  0
  -23.9421  -30.6309   21.8700 N   0  0  0  0  0  0  0  0  0  0  0  0
  -26.4511  -15.7649   20.9837 N   0  0  0  0  0  0  0  0  0  0  0  0
  -27.4468  -17.7921   21.8010 N   0  0  0  0  0  0  0  0  0  0  0  0
  -22.3604  -12.3917   20.9359 N   0  0  0  0  0  0  0  0  0  0  0  0
  -30.4950  -17.5803   19.8006 N   0  0  0  0  0  0  0  0  0  0  0  0
  -23.3421   -8.0308   21.5807 N   0  0  0  0  0  0  0  0  0  0  0  0
  -29.2836  -22.4622   19.4163 N   0  0  0  0  0  0  0  0  0  0  0  0
  -25.3523  -33.8785   22.3110 N   0  0  0  0  0  0  0  0  0  0  0  0
  -21.1517  -28.8461   22.5673 N   0  0  0  0  0  0  0  0  0  0  0  0
  -20.1070  -26.5158   20.0087 N   0  3  0  0  0  0  0  0  0  0  0  0
  -21.6325   -9.5513   21.4248 O   0  0  0  0  0  0  0  0  0  0  0  0
  -25.9980  -31.7782   23.0820 O   0  0  0  0  0  0  0  0  0  0  0  0
  -29.8594  -25.0481   18.9098 O   0  0  0  0  0  0  0  0  0  0  0  0
  -21.9124  -31.6067   22.4734 O   0  0  0  0  0  0  0  0  0  0  0  0
  -22.2056  -26.9127   21.8403 O   0  0  0  0  0  0  0  0  0  0  0  0
  -28.3711  -15.7282   22.2581 O   0  0  0  0  0  0  0  0  0  0  0  0
  -28.4350   -5.7738   21.6292 O   0  0  0  0  0  0  0  0  0  0  0  0
  -28.7511  -27.2445   19.9678 O   0  0  0  0  0  0  0  0  0  1  0  0
  -32.5121   -5.0745   17.9834 F   0  0  0  0  0  0  0  0  0  0  0  0
  -28.5186   -3.5371   20.0066 F   0  0  0  0  0  0  0  0  0  0  0  0
  -30.3577  -20.0965   18.8460 S   0  0  0  0  0  0  0  0  0  0  0  0
  1  2  1  0  0  0  0
  1  5  2  0  0  0  0
  2  6  2  0  0  0  0
  3  8  2  0  0  0  0
  3 15  1  0  0  0  0
  4  9  1  0  0  0  0
  4 15  2  0  0  0  0
  5 17  1  0  0  0  0
  6 19  1  0  0  0  0
  7 10  2  0  0  0  0
  7 18  1  0  0  0  0
  8 21  1  0  0  0  0
  9 21  2  0  0  0  0
 10 22  1  0  0  0  0
 11 12  2  0  0  0  0
 11 23  1  0  0  0  0
 12 24  1  0  0  0  0
 13 20  1  0  0  0  0
 13 22  2  0  0  0  0
 14 24  2  0  0  0  0
 14 25  1  0  0  0  0
 15 26  1  0  0  0  0
 16 26  1  0  0  0  0
 16 28  2  0  0  0  0
 16 31  1  0  0  0  0
 17 19  2  0  0  0  0
 17 37  1  0  0  0  0
 18 20  2  0  0  0  0
 18 38  1  0  0  0  0
 19 50  1  0  0  0  0
 20 39  1  0  0  0  0
 21 83  1  0  0  0  0
 22 84  1  0  0  0  0
 23 25  2  0  0  0  0
 23 83  1  0  0  0  0
 24 85  1  0  0  0  0
 25 86  1  0  0  0  0
 26 64  2  0  0  0  0
 27 29  2  0  0  0  0
 27 51  1  0  0  0  0
 27 65  1  0  0  0  0
 28 66  1  0  0  0  0
 28 70  1  0  0  0  0
 29 71  1  0  0  0  0
 29 87  1  0  0  0  0
 30 65  2  0  0  0  0
 30 73  1  0  0  0  0
 30 87  1  0  0  0  0
 31 72  1  0  0  0  0
 31 77  2  0  0  0  0
 32 52  1  0  0  0  0
 32 74  1  0  0  0  0
 32 78  2  0  0  0  0
 33 59  1  0  0  0  0
 33 60  1  0  0  0  0
 33 79  2  0  0  0  0
 34 61  1  0  0  0  0
 34 67  1  0  0  0  0
 34 80  2  0  0  0  0
 35 62  1  0  0  0  0
 35 75  1  0  0  0  0
 35 81  2  0  0  0  0
 36 68  1  0  0  0  0
 36 69  1  0  0  0  0
 36 82  2  0  0  0  0
 37 40  1  0  0  0  0
 38 52  1  0  0  0  0
 39 67  1  0  0  0  0
 40 44  1  0  0  0  0
 41 42  1  0  0  0  0
 41 45  1  0  0  0  0
 42 48  1  0  0  0  0
 43 46  1  0  0  0  0
 43 47  1  0  0  0  0
 44 50  1  0  0  0  0
 45 51  1  0  0  0  0
 46 53  1  0  0  0  0
 47 68  1  0  0  0  0
 48 69  1  0  0  0  0
 49 53  1  0  0  0  0
 49 68  1  0  0  0  0
 50 74  1  0  0  0  0
 51 69  1  0  0  0  0
 52 67  1  0  0  0  0
 53 66  1  0  0  0  0
 54 62  1  0  0  0  0
 55 63  1  0  0  0  0
 56 63  1  0  0  0  0
 57 63  1  0  0  0  0
 58 76  1  0  0  0  0
 59 73  1  0  0  0  0
 60 84  1  0  0  0  0
 61 63  1  0  0  0  0
 61 75  1  0  0  0  0
 62 76  1  0  0  0  0
 64 66  1  0  0  0  0
M  CHG  1  76   1
M  ISO  4  36 100  60 101  69 100  84 101
M  END
> <Batch ID>
0159

> <Smiles>
CNC(C)C(=O)NC(C(=O)N1Cc2cc([101O:1][101CH2:1]C(=O)CNc3nc(C4CCCC[100N:0]4[100C:0](=O)N4CCCC(n5nc(-c6ccc(Oc7ccc(F)cc7F)cc6)c(C(N)=O)c5N)C4)c(N)s3)ccc2CC1C(=O)NC1CCCc2ccccc21)C(C)(C)C

> <Shape>
0.288

> <Color>
0.093

> <Negative vol penalty>
0.000

$$$$

  -OEChem-04052303473D

 85 94  0     1  0  0  0  0  0999 V2000
  -24.3396  -25.9044   27.6618 C   0  0  0  0  0  0  0  0  0  0  0  0
  -25.5651  -25.5870   27.0848 C   0  0  0  0  0  0  0  0  0  0  0  0
  -23.0802   -9.8641   19.9431 C   0  0  0  0  0  0  0  0  0  0  0  0
  -23.8367   -9.8782   22.2375 C   0  0  0  0  0  0  0  0  0  0  0  0
  -23.1564  -25.6336   26.9758 C   0  0  0  0  0  0  0  0  0  0  0  0
  -25.6080  -24.9974   25.8219 C   0  0  0  0  0  0  0  0  0  0  0  0
  -29.8503  -25.8727   21.4926 C   0  0  0  0  0  0  0  0  0  0  0  0
  -22.3380   -8.7103   20.1948 C   0  0  0  0  0  0  0  0  0  0  0  0
  -23.0945   -8.7244   22.4893 C   0  0  0  0  0  0  0  0  0  0  0  0
  -30.9723  -25.1358   21.1163 C   0  0  0  0  0  0  0  0  0  0  0  0
  -19.8668   -7.9224   23.0891 C   0  0  0  0  0  0  0  0  0  0  0  0
  -19.1082   -7.8841   24.2589 C   0  0  0  0  0  0  0  0  0  0  0  0
  -29.6817  -24.0691   19.3797 C   0  0  0  0  0  0  0  0  0  0  0  0
  -31.1040  -17.8779   20.6521 C   0  0  0  0  0  0  0  0  0  0  0  0
  -20.3519   -5.9507   25.0021 C   0  0  0  0  0  0  0  0  0  0  0  0
  -29.5729  -17.9909   22.2992 C   0  0  0  0  0  0  0  0  0  0  0  0
  -23.8296  -10.4481   20.9644 C   0  0  0  0  0  0  0  0  0  0  0  0
  -24.1672  -12.9735   20.8385 C   0  0  0  0  0  0  0  0  0  0  0  0
  -23.1852  -25.0492   25.6997 C   0  0  0  0  0  0  0  0  0  0  0  0
  -28.6306  -25.7051   20.8213 C   0  0  0  0  0  0  0  0  0  0  0  0
  -24.4240  -24.7172   25.1188 C   0  0  0  0  0  0  0  0  0  0  0  0
  -28.5464  -24.8069   19.7478 C   0  0  0  0  0  0  0  0  0  0  0  0
  -30.2404  -17.1128   21.4742 C   0  0  0  0  0  0  0  0  0  0  0  0
  -22.3451   -8.1404   21.4680 C   0  0  0  0  0  0  0  0  0  0  0  0
  -30.8874  -24.2317   20.0615 C   0  0  0  0  0  0  0  0  0  0  0  0
  -20.8680   -6.9748   22.8757 C   0  0  0  0  0  0  0  0  0  0  0  0
  -19.3507   -6.8983   25.2155 C   0  0  0  0  0  0  0  0  0  0  0  0
  -21.1105   -5.9890   23.8322 C   0  0  0  0  0  0  0  0  0  0  0  0
  -24.5970  -11.6396   20.7048 C   0  0  0  0  0  0  0  0  0  0  0  0
  -30.9381  -19.2004   20.9999 C   0  0  0  0  0  0  0  0  0  0  0  0
  -25.2586  -13.7240   20.4750 C   0  0  0  0  0  0  0  0  0  0  0  0
  -22.8952  -13.4881   21.2542 C   0  0  0  0  0  0  0  0  0  0  0  0
  -31.6378  -20.3524   20.4038 C   0  0  0  0  0  0  0  0  0  0  0  0
  -25.7240  -24.7295   21.6600 C   0  0  0  0  0  0  0  0  0  0  0  0
  -24.9783  -25.6094   18.6282 C   0  0  0  0  0  0  0  0  0  0  0  0
  -26.0358  -26.1805   15.4341 C   0  0  0  0  0  0  0  0  0  0  0  0
  -30.7226  -14.7798   20.6550 C   0  0  0  0  0  0  0  0  0  0  0  0
  -21.8784  -24.7320   25.0169 C   0  0  0  0  0  0  0  0  0  0  0  0
  -27.4365  -26.5272   21.2222 C   0  0  0  0  0  0  0  0  0  0  0  0
  -27.2656  -24.6049   18.9815 C   0  0  0  0  0  0  0  0  0  0  0  0
  -22.0241  -24.4491   23.5239 C   0  0  0  0  0  0  0  0  0  0  0  0
  -29.6161  -12.3578   18.2914 C   0  0  0  0  0  0  0  0  0  0  0  0
  -34.5478  -21.0558   22.4408 C   0  0  0  0  0  0  0  0  0  0  0  0
  -23.1847  -23.4915   23.2729 C   0  0  0  0  0  0  0  0  0  0  0  0
  -28.1763  -12.0648   18.7196 C   0  0  0  0  0  0  0  0  0  0  0  0
  -34.9303  -21.6716   21.0990 C   0  0  0  0  0  0  0  0  0  0  0  0
  -33.4058  -20.1095   22.0924 C   0  0  0  0  0  0  0  0  0  0  0  0
  -30.5290  -12.5914   19.4938 C   0  0  0  0  0  0  0  0  0  0  0  0
  -28.6186  -13.3161   20.8703 C   0  0  0  0  0  0  0  0  0  0  0  0
  -24.5126  -24.0996   23.7401 C   0  0  1  0  0  0  0  0  0  0  0  0
  -26.1109  -25.9001   20.8013 C   0  0  1  0  0  0  0  0  0  0  0  0
  -27.6479  -13.1380   19.6915 C   0  0  2  0  0  0  0  0  0  0  0  0
  -33.5912  -21.8684   20.3820 C   0  0  2  0  0  0  0  0  0  0  0  0
  -25.1894  -26.8526   13.1693 C   0  0  0  0  0  0  0  0  0  0  0  0
  -23.8132  -22.8166   18.2376 C   0  0  0  0  0  0  0  0  0  0  0  0
  -23.8626  -23.2174   15.7667 C   0  0  0  0  0  0  0  0  0  0  0  0
  -22.4562  -24.6627   17.2350 C   0  0  0  0  0  0  0  0  0  0  0  0
  -29.5415  -20.4612   22.6545 C   0  0  0  0  0  0  0  0  0  0  0  0
  -27.7453  -28.5959   15.3839 C   0  0  0  0  0  0  0  0  0  0  0  0
  -32.9264  -23.1960   20.7140 C   0  0  0  0  0  0  0  0  0  1  0  0
  -24.9710  -24.9189   17.2858 C   0  0  1  0  0  0  0  0  0  0  0  0
  -25.7862  -27.3361   14.4819 C   0  0  2  0  0  0  0  0  0  0  0  0
  -23.7995  -23.9060   17.1467 C   0  0  0  0  0  0  0  0  0  0  0  0
  -25.8627  -11.5450   20.2886 N   0  0  0  0  0  0  0  0  0  0  0  0
  -30.0052  -19.2571   22.0023 N   0  0  0  0  0  0  0  0  0  0  0  0
  -26.2375  -12.8289   20.1576 N   0  0  0  0  0  0  0  0  0  0  0  0
  -32.7821  -20.7583   20.9261 N   0  0  0  0  0  0  0  0  0  0  0  0
  -26.1241  -25.4272   19.4155 N   0  0  0  0  0  0  0  0  0  0  0  0
  -29.9668  -13.6235   20.3677 N   0  0  0  0  0  0  0  0  0  0  0  0
  -25.4668  -15.0556   20.3989 N   0  0  0  0  0  0  0  0  0  0  0  0
  -21.8844  -12.5780   21.5923 N   0  0  0  0  0  0  0  0  0  0  0  0
  -30.0724  -15.7058   21.4701 N   0  0  0  0  0  0  0  0  0  0  0  0
  -24.9893  -25.0713   22.7793 N   0  0  0  0  0  0  0  0  0  0  0  0
  -24.9677  -25.9777   16.2821 N   0  0  0  0  0  0  0  0  0  0  0  0
  -31.1079  -20.9641   19.3486 N   0  3  0  0  0  0  0  0  0  0  0  0
  -27.0618  -28.0471   14.1845 N   0  3  0  0  0  0  0  0  0  0  0  0
  -22.6567  -14.7185   21.3081 O   0  0  0  0  0  0  0  0  0  0  0  0
  -26.0654  -23.5996   21.3307 O   0  0  0  0  0  0  0  0  0  0  0  0
  -24.0064  -26.2913   18.9628 O   0  0  0  0  0  0  0  0  0  0  0  0
  -27.0730  -25.5212   15.4240 O   0  0  0  0  0  0  0  0  0  0  0  0
  -31.8521  -14.9493   20.1887 O   0  0  0  0  0  0  0  0  0  0  0  0
  -21.6208   -7.0147   21.7141 O   0  0  0  0  0  0  0  0  0  0  0  0
  -31.9810  -23.5106   19.6926 O   0  0  0  0  0  0  0  0  0  1  0  0
  -18.6232   -6.8626   26.3396 F   0  0  0  0  0  0  0  0  0  0  0  0
  -22.0717   -5.0767   23.6333 F   0  0  0  0  0  0  0  0  0  0  0  0
  1  2  1  0  0  0  0
  1  5  2  0  0  0  0
  2  6  2  0  0  0  0
  3  8  2  0  0  0  0
  3 17  1  0  0  0  0
  4  9  1  0  0  0  0
  4 17  2  0  0  0  0
  5 19  1  0  0  0  0
  6 21  1  0  0  0  0
  7 10  2  0  0  0  0
  7 20  1  0  0  0  0
  8 24  1  0  0  0  0
  9 24  2  0  0  0  0
 10 25  1  0  0  0  0
 11 12  2  0  0  0  0
 11 26  1  0  0  0  0
 12 27  1  0  0  0  0
 13 22  1  0  0  0  0
 13 25  2  0  0  0  0
 14 23  1  0  0  0  0
 14 30  2  0  0  0  0
 15 27  2  0  0  0  0
 15 28  1  0  0  0  0
 16 23  2  0  0  0  0
 16 65  1  0  0  0  0
 17 29  1  0  0  0  0
 18 29  1  0  0  0  0
 18 31  2  0  0  0  0
 18 32  1  0  0  0  0
 19 21  2  0  0  0  0
 19 38  1  0  0  0  0
 20 22  2  0  0  0  0
 20 39  1  0  0  0  0
 21 50  1  0  0  0  0
 22 40  1  0  0  0  0
 23 72  1  0  0  0  0
 24 82  1  0  0  0  0
 25 83  1  0  0  0  0
 26 28  2  0  0  0  0
 26 82  1  0  0  0  0
 27 84  1  0  0  0  0
 28 85  1  0  0  0  0
 29 64  2  0  0  0  0
 30 33  1  0  0  0  0
 30 65  1  0  0  0  0
 31 66  1  0  0  0  0
 31 70  1  0  0  0  0
 32 71  1  0  0  0  0
 32 77  2  0  0  0  0
 33 67  1  0  0  0  0
 33 75  2  0  0  0  0
 34 51  1  0  0  0  0
 34 73  1  0  0  0  0
 34 78  2  0  0  0  0
 35 61  1  0  0  0  0
 35 68  1  0  0  0  0
 35 79  2  0  0  0  0
 36 62  1  0  0  0  0
 36 74  1  0  0  0  0
 36 80  2  0  0  0  0
 37 69  1  0  0  0  0
 37 72  1  0  0  0  0
 37 81  2  0  0  0  0
 38 41  1  0  0  0  0
 39 51  1  0  0  0  0
 40 68  1  0  0  0  0
 41 44  1  0  0  0  0
 42 45  1  0  0  0  0
 42 48  1  0  0  0  0
 43 46  1  0  0  0  0
 43 47  1  0  0  0  0
 44 50  1  0  0  0  0
 45 52  1  0  0  0  0
 46 53  1  0  0  0  0
 47 67  1  0  0  0  0
 48 69  1  0  0  0  0
 49 52  1  0  0  0  0
 49 69  1  0  0  0  0
 50 73  1  0  0  0  0
 51 68  1  0  0  0  0
 52 66  1  0  0  0  0
 53 60  1  0  0  0  0
 53 67  1  0  0  0  0
 54 62  1  0  0  0  0
 55 63  1  0  0  0  0
 56 63  1  0  0  0  0
 57 63  1  0  0  0  0
 58 65  1  0  0  0  0
 59 76  1  0  0  0  0
 60 83  1  0  0  0  0
 61 63  1  0  0  0  0
 61 74  1  0  0  0  0
 62 76  1  0  0  0  0
 64 66  1  0  0  0  0
M  CHG  2  75   1  76   1
M  ISO  4  37 100  60 101  72 100  83 101
M  END
> <Batch ID>
0159

> <Smiles>
CNC(C)C(=O)NC(C(=O)N1Cc2cc([101O:1][101CH2:1]C3CCCN3C(=N)c3cc([100NH:0][100C:0](=O)N4CCCC(n5nc(-c6ccc(Oc7ccc(F)cc7F)cc6)c(C(N)=O)c5N)C4)cn3C)ccc2CC1C(=O)NC1CCCc2ccccc21)C(C)(C)C

> <Shape>
0.219

> <Color>
0.188

> <Negative vol penalty>
0.000

$$$$

  -OEChem-04052303473D

 87 96  0     1  0  0  0  0  0999 V2000
  -17.2128  -31.8186   20.7360 C   0  0  0  0  0  0  0  0  0  0  0  0
  -18.5238  -32.2816   20.7839 C   0  0  0  0  0  0  0  0  0  0  0  0
  -26.3796  -12.3319   21.5674 C   0  0  0  0  0  0  0  0  0  0  0  0
  -25.4864  -13.5890   19.7076 C   0  0  0  0  0  0  0  0  0  0  0  0
  -16.8271  -30.7377   21.5277 C   0  0  0  0  0  0  0  0  0  0  0  0
  -19.4497  -31.6646   21.6245 C   0  0  0  0  0  0  0  0  0  0  0  0
  -25.4921  -28.7603   18.9892 C   0  0  0  0  0  0  0  0  0  0  0  0
  -25.2138  -11.5673   21.6105 C   0  0  0  0  0  0  0  0  0  0  0  0
  -24.3206  -12.8244   19.7507 C   0  0  0  0  0  0  0  0  0  0  0  0
  -26.7697  -28.3683   18.5886 C   0  0  0  0  0  0  0  0  0  0  0  0
  -23.8763   -8.9668   19.9132 C   0  0  0  0  0  0  0  0  0  0  0  0
  -24.0119   -7.5850   20.0466 C   0  0  0  0  0  0  0  0  0  0  0  0
  -29.8775  -21.5676   16.8348 C   0  0  0  0  0  0  0  0  0  0  0  0
  -27.2646  -27.6415   20.8414 C   0  0  0  0  0  0  0  0  0  0  0  0
  -22.7570   -7.6610   22.1097 C   0  0  0  0  0  0  0  0  0  0  0  0
  -29.9958  -21.3149   14.4728 C   0  0  0  0  0  0  0  0  0  0  0  0
  -28.6199  -19.9184   15.6707 C   0  0  0  0  0  0  0  0  0  0  0  0
  -26.5159  -13.3428   20.6159 C   0  0  0  0  0  0  0  0  0  0  0  0
  -29.0324  -13.6719   20.3574 C   0  0  0  0  0  0  0  0  0  0  0  0
  -17.7511  -30.1011   22.3713 C   0  0  0  0  0  0  0  0  0  0  0  0
  -25.0901  -28.5800   20.3156 C   0  0  0  0  0  0  0  0  0  0  0  0
  -19.0756  -30.5751   22.4293 C   0  0  0  0  0  0  0  0  0  0  0  0
  -30.4067  -21.9798   15.6169 C   0  0  0  0  0  0  0  0  0  0  0  0
  -25.9818  -28.0207   21.2456 C   0  0  0  0  0  0  0  0  0  0  0  0
  -28.9665  -20.5178   16.8709 C   0  0  0  0  0  0  0  0  0  0  0  0
  -24.1843  -11.8135   20.7022 C   0  0  0  0  0  0  0  0  0  0  0  0
  -27.6537  -27.8105   19.5125 C   0  0  0  0  0  0  0  0  0  0  0  0
  -23.1811   -9.6958   20.8781 C   0  0  0  0  0  0  0  0  0  0  0  0
  -23.4522   -6.9321   21.1448 C   0  0  0  0  0  0  0  0  0  0  0  0
  -22.6215   -9.0429   21.9763 C   0  0  0  0  0  0  0  0  0  0  0  0
  -27.7197  -14.1334   20.5713 C   0  0  0  0  0  0  0  0  0  0  0  0
  -29.8070  -14.8050   20.4064 C   0  0  0  0  0  0  0  0  0  0  0  0
  -28.9942  -26.4724   18.1393 C   0  0  0  0  0  0  0  0  0  1  0  0
  -29.5089  -12.3381   20.1344 C   0  0  0  0  0  0  0  0  0  0  0  0
  -30.1589  -26.0188   17.6704 C   0  0  0  0  0  0  0  0  0  0  0  0
  -30.1262  -24.9819   16.6104 C   0  0  0  0  0  0  0  0  0  0  0  0
  -22.3665  -28.9535   22.8687 C   0  0  0  0  0  0  0  0  0  0  0  0
  -23.7081  -26.2439   23.3869 C   0  0  0  0  0  0  0  0  0  0  0  0
  -25.1732  -23.1633   23.3585 C   0  0  0  0  0  0  0  0  0  0  0  0
  -28.6652  -20.5782   19.3713 C   0  0  0  0  0  0  0  0  0  0  0  0
  -17.2757  -28.9664   23.2437 C   0  0  0  0  0  0  0  0  0  0  0  0
  -23.7453  -29.0441   20.8053 C   0  0  0  0  0  0  0  0  0  0  0  0
  -25.5183  -27.8776   22.6695 C   0  0  0  0  0  0  0  0  0  0  0  0
  -18.4113  -28.1305   23.8283 C   0  0  0  0  0  0  0  0  0  0  0  0
  -33.1206  -22.8828   17.2200 C   0  0  0  0  0  0  0  0  0  0  0  0
  -29.9422  -19.1663   22.3801 C   0  0  0  0  0  0  0  0  0  0  0  0
  -32.8537  -22.6643   15.7337 C   0  0  0  0  0  0  0  0  0  0  0  0
  -19.4986  -29.0337   24.4018 C   0  0  0  0  0  0  0  0  0  0  0  0
  -29.6421  -17.6726   22.2355 C   0  0  0  0  0  0  0  0  0  0  0  0
  -32.3166  -24.1335   17.5405 C   0  0  0  0  0  0  0  0  0  0  0  0
  -28.8280  -20.0284   21.7892 C   0  0  0  0  0  0  0  0  0  0  0  0
  -28.1656  -18.2159   20.2577 C   0  0  0  0  0  0  0  0  0  0  0  0
  -31.4037  -23.1235   15.5437 C   0  0  2  0  0  0  0  0  0  0  0  0
  -20.1151  -29.9165   23.3100 C   0  0  1  0  0  0  0  0  0  0  0  0
  -23.1491  -28.1286   21.8896 C   0  0  1  0  0  0  0  0  0  0  0  0
  -29.2899  -17.3068   20.7803 C   0  0  2  0  0  0  0  0  0  0  0  0
  -25.1522  -20.9610   24.5614 C   0  0  0  0  0  0  0  0  0  0  0  0
  -25.2839  -27.4874   25.6835 C   0  0  0  0  0  0  0  0  0  0  0  0
  -26.0319  -25.1853   26.3230 C   0  0  0  0  0  0  0  0  0  0  0  0
  -23.6069  -25.7675   26.3793 C   0  0  0  0  0  0  0  0  0  0  0  0
  -24.3489  -21.7064   20.9179 C   0  0  0  0  0  0  0  0  0  0  0  0
  -24.7606  -25.4785   24.1483 C   0  0  1  0  0  0  0  0  0  0  0  0
  -24.5818  -21.7659   23.4040 C   0  0  2  0  0  0  0  0  0  0  0  0
  -24.9257  -25.9898   25.6074 C   0  0  0  0  0  0  0  0  0  0  0  0
  -29.1129  -20.2911   14.4684 N   0  0  0  0  0  0  0  0  0  0  0  0
  -27.6600  -15.4566   20.7434 N   0  0  0  0  0  0  0  0  0  0  0  0
  -28.9448  -15.8362   20.6379 N   0  0  0  0  0  0  0  0  0  0  0  0
  -31.1949  -24.1096   16.6057 N   0  0  0  0  0  0  0  0  0  0  0  0
  -24.1312  -27.3880   22.6995 N   0  0  0  0  0  0  0  0  0  0  0  0
  -28.5518  -19.6277   20.4079 N   0  0  0  0  0  0  0  0  0  0  0  0
  -31.1347  -15.0100   20.2737 N   0  0  0  0  0  0  0  0  0  0  0  0
  -29.5864  -11.8680   18.8163 N   0  0  0  0  0  0  0  0  0  0  0  0
  -28.4104  -20.0741   18.0963 N   0  0  0  0  0  0  0  0  0  0  0  0
  -21.0473  -29.1525   22.5089 N   0  0  0  0  0  0  0  0  0  0  0  0
  -24.3948  -24.0699   24.0465 N   0  0  0  0  0  0  0  0  0  0  0  0
  -24.8738  -21.0384   22.1366 N   0  3  0  0  0  0  0  0  0  0  0  0
  -29.8401  -11.5798   21.0771 O   0  0  0  0  0  0  0  0  0  0  0  0
  -29.1661  -25.0047   15.8535 O   0  0  0  0  0  0  0  0  0  0  0  0
  -22.9176  -29.3776   23.8778 O   0  0  0  0  0  0  0  0  0  0  0  0
  -22.5407  -25.8436   23.4040 O   0  0  0  0  0  0  0  0  0  0  0  0
  -26.2227  -23.4237   22.7745 O   0  0  0  0  0  0  0  0  0  0  0  0
  -28.9928  -21.7464   19.5950 O   0  0  0  0  0  0  0  0  0  0  0  0
  -31.3709  -26.4756   18.1310 O   0  0  0  0  0  0  0  0  0  0  0  0
  -23.0467  -11.0674   20.7438 O   0  0  0  0  0  0  0  0  0  0  0  0
  -28.8978  -27.4258   19.1137 O   0  0  0  0  0  0  0  0  0  1  0  0
  -23.5812   -5.6049   21.2720 F   0  0  0  0  0  0  0  0  0  0  0  0
  -21.9515   -9.7377   22.9059 F   0  0  0  0  0  0  0  0  0  0  0  0
  1  2  1  0  0  0  0
  1  5  2  0  0  0  0
  2  6  2  0  0  0  0
  3  8  2  0  0  0  0
  3 18  1  0  0  0  0
  4  9  1  0  0  0  0
  4 18  2  0  0  0  0
  5 20  1  0  0  0  0
  6 22  1  0  0  0  0
  7 10  2  0  0  0  0
  7 21  1  0  0  0  0
  8 26  1  0  0  0  0
  9 26  2  0  0  0  0
 10 27  1  0  0  0  0
 11 12  2  0  0  0  0
 11 28  1  0  0  0  0
 12 29  1  0  0  0  0
 13 23  2  0  0  0  0
 13 25  1  0  0  0  0
 14 24  1  0  0  0  0
 14 27  2  0  0  0  0
 15 29  2  0  0  0  0
 15 30  1  0  0  0  0
 16 23  1  0  0  0  0
 16 65  2  0  0  0  0
 17 25  2  0  0  0  0
 17 65  1  0  0  0  0
 18 31  1  0  0  0  0
 19 31  1  0  0  0  0
 19 32  2  0  0  0  0
 19 34  1  0  0  0  0
 20 22  2  0  0  0  0
 20 41  1  0  0  0  0
 21 24  2  0  0  0  0
 21 42  1  0  0  0  0
 22 54  1  0  0  0  0
 23 53  1  0  0  0  0
 24 43  1  0  0  0  0
 25 73  1  0  0  0  0
 26 84  1  0  0  0  0
 27 85  1  0  0  0  0
 28 30  2  0  0  0  0
 28 84  1  0  0  0  0
 29 86  1  0  0  0  0
 30 87  1  0  0  0  0
 31 66  2  0  0  0  0
 32 67  1  0  0  0  0
 32 71  1  0  0  0  0
 33 35  2  0  0  0  0
 33 85  1  0  0  0  0
 34 72  1  0  0  0  0
 34 77  2  0  0  0  0
 35 36  1  0  0  0  0
 35 83  1  0  0  0  0
 36 68  1  0  0  0  0
 36 78  2  0  0  0  0
 37 55  1  0  0  0  0
 37 74  1  0  0  0  0
 37 79  2  0  0  0  0
 38 62  1  0  0  0  0
 38 69  1  0  0  0  0
 38 80  2  0  0  0  0
 39 63  1  0  0  0  0
 39 75  1  0  0  0  0
 39 81  2  0  0  0  0
 40 70  1  0  0  0  0
 40 73  1  0  0  0  0
 40 82  2  0  0  0  0
 41 44  1  0  0  0  0
 42 55  1  0  0  0  0
 43 69  1  0  0  0  0
 44 48  1  0  0  0  0
 45 47  1  0  0  0  0
 45 50  1  0  0  0  0
 46 49  1  0  0  0  0
 46 51  1  0  0  0  0
 47 53  1  0  0  0  0
 48 54  1  0  0  0  0
 49 56  1  0  0  0  0
 50 68  1  0  0  0  0
 51 70  1  0  0  0  0
 52 56  1  0  0  0  0
 52 70  1  0  0  0  0
 53 68  1  0  0  0  0
 54 74  1  0  0  0  0
 55 69  1  0  0  0  0
 56 67  1  0  0  0  0
 57 63  1  0  0  0  0
 58 64  1  0  0  0  0
 59 64  1  0  0  0  0
 60 64  1  0  0  0  0
 61 76  1  0  0  0  0
 62 64  1  0  0  0  0
 62 75  1  0  0  0  0
 63 76  1  0  0  0  0
 66 67  1  0  0  0  0
M  CHG  1  76   1
M  ISO  4  33 101  40 100  73 100  85 101
M  END
> <Batch ID>
0159

> <Smiles>
CNC(C)C(=O)NC(C(=O)N1Cc2cc([101O:1][101CH2:1]C(=O)C(=O)N3CCCC3c3cncc([100NH:0][100C:0](=O)N4CCCC(n5nc(-c6ccc(Oc7ccc(F)cc7F)cc6)c(C(N)=O)c5N)C4)c3)ccc2CC1C(=O)NC1CCCc2ccccc21)C(C)(C)C

> <Shape>
0.252

> <Color>
0.095

> <Negative vol penalty>
0.000

$$$$

  -OEChem-04052303473D

 84 92  0     1  0  0  0  0  0999 V2000
  -26.7287  -16.7371   13.5982 C   0  0  0  0  0  0  0  0  0  0  0  0
  -27.4896  -16.0482   14.5373 C   0  0  0  0  0  0  0  0  0  0  0  0
  -25.6923  -27.1932   20.6355 C   0  0  0  0  0  0  0  0  0  0  0  0
  -26.3521  -26.1475   22.7112 C   0  0  0  0  0  0  0  0  0  0  0  0
  -25.6211  -17.4781   14.0082 C   0  0  0  0  0  0  0  0  0  0  0  0
  -27.1440  -16.1009   15.8872 C   0  0  0  0  0  0  0  0  0  0  0  0
  -27.7383  -11.6180   20.0171 C   0  0  0  0  0  0  0  0  0  0  0  0
  -24.6087  -27.7895   21.2803 C   0  0  0  0  0  0  0  0  0  0  0  0
  -25.2686  -26.7439   23.3560 C   0  0  0  0  0  0  0  0  0  0  0  0
  -28.7071  -11.3567   20.9850 C   0  0  0  0  0  0  0  0  0  0  0  0
  -24.0682  -30.4401   23.3089 C   0  0  0  0  0  0  0  0  0  0  0  0
  -23.8229  -31.7888   23.0516 C   0  0  0  0  0  0  0  0  0  0  0  0
  -30.0158  -17.1750   20.9168 C   0  0  0  0  0  0  0  0  0  0  0  0
  -27.3394  -12.4542   22.6416 C   0  0  0  0  0  0  0  0  0  0  0  0
  -21.6312  -31.2284   22.2034 C   0  0  0  0  0  0  0  0  0  0  0  0
  -30.6967  -16.4749   23.0855 C   0  0  0  0  0  0  0  0  0  0  0  0
  -29.9440  -18.6266   22.7993 C   0  0  0  0  0  0  0  0  0  0  0  0
  -26.5640  -26.3721   21.3509 C   0  0  0  0  0  0  0  0  0  0  0  0
  -30.5118  -16.1747   21.7455 C   0  0  0  0  0  0  0  0  0  0  0  0
  -28.9805  -26.2820   20.5384 C   0  0  0  0  0  0  0  0  0  0  0  0
  -25.2561  -17.5320   15.3626 C   0  0  0  0  0  0  0  0  0  0  0  0
  -26.5656  -12.3101   20.3525 C   0  0  0  0  0  0  0  0  0  0  0  0
  -26.0313  -16.8444   16.3159 C   0  0  0  0  0  0  0  0  0  0  0  0
  -26.3561  -12.7207   21.6767 C   0  0  0  0  0  0  0  0  0  0  0  0
  -29.7240  -18.4273   21.4459 C   0  0  0  0  0  0  0  0  0  0  0  0
  -24.3969  -27.5649   22.6406 C   0  0  0  0  0  0  0  0  0  0  0  0
  -28.5091  -11.7774   22.2969 C   0  0  0  0  0  0  0  0  0  0  0  0
  -23.0950  -29.4854   23.0134 C   0  0  0  0  0  0  0  0  0  0  0  0
  -22.6044  -32.1830   22.4989 C   0  0  0  0  0  0  0  0  0  0  0  0
  -21.8765  -29.8796   22.4607 C   0  0  0  0  0  0  0  0  0  0  0  0
  -27.6832  -25.7554   20.6852 C   0  0  0  0  0  0  0  0  0  0  0  0
  -29.6644  -25.3193   19.8370 C   0  0  0  0  0  0  0  0  0  0  0  0
  -30.8329  -14.8349   21.2141 C   0  0  0  0  0  0  0  0  0  0  0  0
  -29.5191  -27.5297   20.9952 C   0  0  0  0  0  0  0  0  0  0  0  0
  -25.2519  -15.0628   19.4577 C   0  0  0  0  0  0  0  0  0  0  0  0
  -22.7842  -14.0338   21.2946 C   0  0  0  0  0  0  0  0  0  0  0  0
  -21.7126  -12.0669   23.8694 C   0  0  0  0  0  0  0  0  0  0  0  0
  -28.9574  -19.4142   19.2585 C   0  0  0  0  0  0  0  0  0  0  0  0
  -24.0784  -18.3846   15.7637 C   0  0  0  0  0  0  0  0  0  0  0  0
  -25.5182  -12.5606   19.3025 C   0  0  0  0  0  0  0  0  0  0  0  0
  -25.1053  -13.4494   22.0925 C   0  0  0  0  0  0  0  0  0  0  0  0
  -23.5591  -18.0845   17.1674 C   0  0  0  0  0  0  0  0  0  0  0  0
  -28.9813  -21.8229   16.6366 C   0  0  0  0  0  0  0  0  0  0  0  0
  -24.7164  -17.9960   18.1572 C   0  0  0  0  0  0  0  0  0  0  0  0
  -28.7753  -23.1532   17.3645 C   0  0  0  0  0  0  0  0  0  0  0  0
  -28.1752  -20.6947   17.2778 C   0  0  0  0  0  0  0  0  0  0  0  0
  -28.1762  -21.8572   19.4498 C   0  0  0  0  0  0  0  0  0  0  0  0
  -25.6737  -16.8570   17.7863 C   0  0  1  0  0  0  0  0  0  0  0  0
  -24.5943  -13.7250   19.6460 C   0  0  1  0  0  0  0  0  0  0  0  0
  -29.0186  -23.0101   18.8797 C   0  0  2  0  0  0  0  0  0  0  0  0
  -19.6473  -11.4670   25.1625 C   0  0  0  0  0  0  0  0  0  0  0  0
  -22.9444  -16.6942   22.7800 C   0  0  0  0  0  0  0  0  0  0  0  0
  -21.5612  -15.6797   24.6036 C   0  0  0  0  0  0  0  0  0  0  0  0
  -20.6201  -15.9033   22.3043 C   0  0  0  0  0  0  0  0  0  0  0  0
  -31.1026  -10.0004   22.4292 C   0  0  0  0  0  0  0  0  0  0  0  0
  -31.7042  -11.8816   23.9715 C   0  0  0  0  0  0  0  0  0  0  0  0
  -21.9011   -9.2222   23.0751 C   0  0  0  0  0  0  0  0  0  0  0  0
  -31.0030  -12.4054   21.6205 C   0  0  0  0  0  0  0  0  0  0  0  0
  -22.4054  -14.1694   22.7496 C   0  0  1  0  0  0  0  0  0  0  0  0
  -20.5406  -11.1090   23.9850 C   0  0  2  0  0  0  0  0  0  0  0  0
  -21.9073  -15.5996   23.1015 C   0  0  0  0  0  0  0  0  0  0  0  0
  -30.8097  -11.4535   22.8052 C   0  0  0  0  0  0  0  0  0  1  0  0
  -30.4246  -17.6794   23.6357 N   0  0  0  0  0  0  0  0  0  0  0  0
  -27.5485  -24.5516   20.1222 N   0  0  0  0  0  0  0  0  0  0  0  0
  -28.7700  -24.3139   19.6147 N   0  0  0  0  0  0  0  0  0  0  0  0
  -24.1135  -13.6762   21.0283 N   0  0  0  0  0  0  0  0  0  0  0  0
  -28.4601  -20.6162   18.7122 N   0  0  0  0  0  0  0  0  0  0  0  0
  -30.9376  -25.2432   19.3947 N   0  0  0  0  0  0  0  0  0  0  0  0
  -31.2275  -14.7408   19.9443 N   0  0  0  0  0  0  0  0  0  0  0  0
  -28.6789  -28.4018   21.7007 N   0  0  0  0  0  0  0  0  0  0  0  0
  -29.2219  -19.4686   20.6266 N   0  0  0  0  0  0  0  0  0  0  0  0
  -25.1188  -15.5808   18.1836 N   0  0  0  0  0  0  0  0  0  0  0  0
  -21.4334  -13.1152   23.0183 N   0  0  0  0  0  0  0  0  0  0  0  0
  -30.7101  -13.7825   22.0305 N   0  3  0  0  0  0  0  0  0  0  0  0
  -21.0288   -9.7135   24.1727 N   0  3  0  0  0  0  0  0  0  0  0  0
  -30.7056  -27.8686   20.7697 O   0  0  0  0  0  0  0  0  0  0  0  0
  -25.8356  -15.5869   20.3992 O   0  0  0  0  0  0  0  0  0  0  0  0
  -21.9303  -14.2306   20.4264 O   0  0  0  0  0  0  0  0  0  0  0  0
  -22.7686  -11.9038   24.4766 O   0  0  0  0  0  0  0  0  0  0  0  0
  -29.1613  -18.4188   18.5588 O   0  0  0  0  0  0  0  0  0  0  0  0
  -23.3398  -28.1468   23.2702 O   0  0  0  0  0  0  0  0  0  0  0  0
  -29.4534  -11.5242   23.2435 O   0  0  0  0  0  0  0  0  0  1  0  0
  -22.3684  -33.4785   22.2533 F   0  0  0  0  0  0  0  0  0  0  0  0
  -20.9373  -28.9672   22.1758 F   0  0  0  0  0  0  0  0  0  0  0  0
  1  2  1  0  0  0  0
  1  5  2  0  0  0  0
  2  6  2  0  0  0  0
  3  8  2  0  0  0  0
  3 18  1  0  0  0  0
  4  9  1  0  0  0  0
  4 18  2  0  0  0  0
  5 21  1  0  0  0  0
  6 23  1  0  0  0  0
  7 10  2  0  0  0  0
  7 22  1  0  0  0  0
  8 26  1  0  0  0  0
  9 26  2  0  0  0  0
 10 27  1  0  0  0  0
 11 12  2  0  0  0  0
 11 28  1  0  0  0  0
 12 29  1  0  0  0  0
 13 19  2  0  0  0  0
 13 25  1  0  0  0  0
 14 24  1  0  0  0  0
 14 27  2  0  0  0  0
 15 29  2  0  0  0  0
 15 30  1  0  0  0  0
 16 19  1  0  0  0  0
 16 63  2  0  0  0  0
 17 25  2  0  0  0  0
 17 63  1  0  0  0  0
 18 31  1  0  0  0  0
 19 33  1  0  0  0  0
 20 31  1  0  0  0  0
 20 32  2  0  0  0  0
 20 34  1  0  0  0  0
 21 23  2  0  0  0  0
 21 39  1  0  0  0  0
 22 24  2  0  0  0  0
 22 40  1  0  0  0  0
 23 48  1  0  0  0  0
 24 41  1  0  0  0  0
 25 71  1  0  0  0  0
 26 81  1  0  0  0  0
 27 82  1  0  0  0  0
 28 30  2  0  0  0  0
 28 81  1  0  0  0  0
 29 83  1  0  0  0  0
 30 84  1  0  0  0  0
 31 64  2  0  0  0  0
 32 65  1  0  0  0  0
 32 68  1  0  0  0  0
 33 69  1  0  0  0  0
 33 74  2  0  0  0  0
 34 70  1  0  0  0  0
 34 76  2  0  0  0  0
 35 49  1  0  0  0  0
 35 72  1  0  0  0  0
 35 77  2  0  0  0  0
 36 59  1  0  0  0  0
 36 66  1  0  0  0  0
 36 78  2  0  0  0  0
 37 60  1  0  0  0  0
 37 73  1  0  0  0  0
 37 79  2  0  0  0  0
 38 67  1  0  0  0  0
 38 71  1  0  0  0  0
 38 80  2  0  0  0  0
 39 42  1  0  0  0  0
 40 49  1  0  0  0  0
 41 66  1  0  0  0  0
 42 44  1  0  0  0  0
 43 45  1  0  0  0  0
 43 46  1  0  0  0  0
 44 48  1  0  0  0  0
 45 50  1  0  0  0  0
 46 67  1  0  0  0  0
 47 50  1  0  0  0  0
 47 67  1  0  0  0  0
 48 72  1  0  0  0  0
 49 66  1  0  0  0  0
 50 65  1  0  0  0  0
 51 60  1  0  0  0  0
 52 61  1  0  0  0  0
 53 61  1  0  0  0  0
 54 61  1  0  0  0  0
 55 62  1  0  0  0  0
 56 62  1  0  0  0  0
 57 75  1  0  0  0  0
 58 62  1  0  0  0  0
 58 74  1  0  0  0  0
 59 61  1  0  0  0  0
 59 73  1  0  0  0  0
 60 75  1  0  0  0  0
 62 82  1  0  0  0  0
 64 65  1  0  0  0  0
M  CHG  2  74   1  75   1
M  ISO  4  38 100  62 101  71 100  82 101
M  END
> <Batch ID>
0159

> <Smiles>
CNC(C)C(=O)NC(C(=O)N1Cc2cc([101O:1][101C:1](C)(C)CNC(=N)c3cncc([100NH:0][100C:0](=O)N4CCCC(n5nc(-c6ccc(Oc7ccc(F)cc7F)cc6)c(C(N)=O)c5N)C4)c3)ccc2CC1C(=O)NC1CCCc2ccccc21)C(C)(C)C

> <Shape>
0.227

> <Color>
0.074

> <Negative vol penalty>
0.000

$$$$

  -OEChem-04052303473D

 85 93  0     1  0  0  0  0  0999 V2000
  -34.7356  -31.2961   26.9832 C   0  0  0  0  0  0  0  0  0  0  0  0
  -35.4373  -30.1535   26.6124 C   0  0  0  0  0  0  0  0  0  0  0  0
  -23.0016   -9.8805   19.9908 C   0  0  0  0  0  0  0  0  0  0  0  0
  -23.7200   -9.9526   22.2964 C   0  0  0  0  0  0  0  0  0  0  0  0
  -33.3427  -31.3073   26.9237 C   0  0  0  0  0  0  0  0  0  0  0  0
  -34.7464  -29.0210   26.1829 C   0  0  0  0  0  0  0  0  0  0  0  0
  -36.5383  -25.0150   21.9113 C   0  0  0  0  0  0  0  0  0  0  0  0
  -22.2364   -8.7470   20.2647 C   0  0  0  0  0  0  0  0  0  0  0  0
  -22.9547   -8.8191   22.5703 C   0  0  0  0  0  0  0  0  0  0  0  0
  -37.1491  -23.7645   21.9954 C   0  0  0  0  0  0  0  0  0  0  0  0
  -23.2064   -5.4767   22.1279 C   0  0  0  0  0  0  0  0  0  0  0  0
  -23.7935   -4.4671   22.8905 C   0  0  0  0  0  0  0  0  0  0  0  0
  -31.7955  -17.5069   21.6744 C   0  0  0  0  0  0  0  0  0  0  0  0
  -34.9890  -22.7045   21.8237 C   0  0  0  0  0  0  0  0  0  0  0  0
  -22.0643   -4.7213   24.5585 C   0  0  0  0  0  0  0  0  0  0  0  0
  -23.7435  -10.4833   21.0066 C   0  0  0  0  0  0  0  0  0  0  0  0
  -31.7378  -18.7521   22.3447 C   0  0  0  0  0  0  0  0  0  0  0  0
  -24.1248  -12.9980   20.8100 C   0  0  0  0  0  0  0  0  0  0  0  0
  -32.6348  -30.1776   26.4840 C   0  0  0  0  0  0  0  0  0  0  0  0
  -35.1449  -25.1200   21.7935 C   0  0  0  0  0  0  0  0  0  0  0  0
  -33.3426  -29.0167   26.1187 C   0  0  0  0  0  0  0  0  0  0  0  0
  -34.3631  -23.9574   21.7357 C   0  0  0  0  0  0  0  0  0  0  0  0
  -22.2129   -8.2163   21.5544 C   0  0  0  0  0  0  0  0  0  0  0  0
  -36.3742  -22.6091   21.9546 C   0  0  0  0  0  0  0  0  0  0  0  0
  -22.0482   -6.1087   22.5807 C   0  0  0  0  0  0  0  0  0  0  0  0
  -23.2225   -4.0893   24.1057 C   0  0  0  0  0  0  0  0  0  0  0  0
  -21.4772   -5.7310   23.7960 C   0  0  0  0  0  0  0  0  0  0  0  0
  -24.5347  -11.6540   20.7242 C   0  0  0  0  0  0  0  0  0  0  0  0
  -25.2343  -13.7194   20.4426 C   0  0  0  0  0  0  0  0  0  0  0  0
  -30.5778  -16.9028   21.8851 C   0  0  0  0  0  0  0  0  0  0  0  0
  -30.4888  -18.8203   22.9170 C   0  0  0  0  0  0  0  0  0  0  0  0
  -32.7807  -19.7865   22.4324 C   0  0  0  0  0  0  0  0  0  0  0  0
  -22.8548  -13.5454   21.1882 C   0  0  0  0  0  0  0  0  0  0  0  0
  -32.8339  -26.3959   23.5642 C   0  0  0  0  0  0  0  0  0  0  0  0
  -30.9805  -25.5949   21.0254 C   0  0  0  0  0  0  0  0  0  0  0  0
  -30.5178  -23.6109   18.2874 C   0  0  0  0  0  0  0  0  0  0  0  0
  -30.7114  -14.6923   20.6842 C   0  0  0  0  0  0  0  0  0  0  0  0
  -31.1272  -30.2212   26.4816 C   0  0  0  0  0  0  0  0  0  0  0  0
  -34.5037  -26.4756   21.6770 C   0  0  0  0  0  0  0  0  0  0  0  0
  -32.8652  -24.0154   21.5897 C   0  0  0  0  0  0  0  0  0  0  0  0
  -30.4869  -29.1062   25.6588 C   0  0  0  0  0  0  0  0  0  0  0  0
  -29.6042  -12.2176   18.3761 C   0  0  0  0  0  0  0  0  0  0  0  0
  -31.1384  -27.7647   25.9794 C   0  0  0  0  0  0  0  0  0  0  0  0
  -28.1529  -11.9609   18.7883 C   0  0  0  0  0  0  0  0  0  0  0  0
  -30.5008  -12.4730   19.5864 C   0  0  0  0  0  0  0  0  0  0  0  0
  -28.5802  -13.2698   20.9076 C   0  0  0  0  0  0  0  0  0  0  0  0
  -32.6300  -27.7768   25.6239 C   0  0  1  0  0  0  0  0  0  0  0  0
  -33.0315  -26.4766   22.0768 C   0  0  1  0  0  0  0  0  0  0  0  0
  -27.6263  -13.0715   19.7183 C   0  0  2  0  0  0  0  0  0  0  0  0
  -28.8898  -23.1647   16.4305 C   0  0  0  0  0  0  0  0  0  0  0  0
  -29.1600  -24.1191   22.9793 C   0  0  0  0  0  0  0  0  0  0  0  0
  -28.1371  -22.9360   21.0243 C   0  0  0  0  0  0  0  0  0  0  0  0
  -27.9585  -25.4171   21.2112 C   0  0  0  0  0  0  0  0  0  0  0  0
  -37.0133  -19.0126   22.0990 C   0  0  0  0  0  0  0  0  0  0  0  0
  -35.3823  -20.2373   20.6443 C   0  0  0  0  0  0  0  0  0  0  0  0
  -34.1569  -18.0538   23.5176 C   0  0  0  0  0  0  0  0  0  0  0  0
  -32.5090  -24.3186   16.2154 C   0  0  0  0  0  0  0  0  0  0  0  0
  -35.1505  -20.2899   23.1841 C   0  0  0  0  0  0  0  0  0  0  0  0
  -30.1862  -24.3755   20.6240 C   0  0  1  0  0  0  0  0  0  0  0  0
  -30.1252  -23.9414   16.8587 C   0  0  2  0  0  0  0  0  0  0  0  0
  -28.8885  -24.2106   21.4644 C   0  0  0  0  0  0  0  0  0  0  0  0
  -36.1132  -20.2455   21.9889 C   0  0  0  0  0  0  0  0  0  1  0  0
  -25.8053  -11.5263   20.3328 N   0  0  0  0  0  0  0  0  0  0  0  0
  -26.2035  -12.7995   20.1693 N   0  0  0  0  0  0  0  0  0  0  0  0
  -32.2845  -25.3643   21.4859 N   0  0  0  0  0  0  0  0  0  0  0  0
  -29.9415  -13.5401   20.4190 N   0  0  0  0  0  0  0  0  0  0  0  0
  -25.4657  -15.0446   20.3298 N   0  0  0  0  0  0  0  0  0  0  0  0
  -29.8856  -19.7667   23.6674 N   0  0  0  0  0  0  0  0  0  0  0  0
  -21.8236  -12.6624   21.5363 N   0  0  0  0  0  0  0  0  0  0  0  0
  -30.0632  -15.6530   21.4597 N   0  0  0  0  0  0  0  0  0  0  0  0
  -32.8104  -27.6246   24.1961 N   0  0  0  0  0  0  0  0  0  0  0  0
  -29.9572  -24.4919   19.1879 N   0  0  0  0  0  0  0  0  0  0  0  0
  -34.0113  -19.4259   23.0225 N   0  0  0  0  0  0  0  0  0  0  0  0
  -31.2376  -23.6069   15.9252 N   0  3  0  0  0  0  0  0  0  0  0  0
  -32.4937  -20.8896   21.9688 O   0  0  0  0  0  0  0  0  0  0  0  0
  -22.6358  -14.7805   21.2006 O   0  0  0  0  0  0  0  0  0  0  0  0
  -32.7104  -25.3002   24.0987 O   0  0  0  0  0  0  0  0  0  0  0  0
  -30.4655  -26.7115   20.9269 O   0  0  0  0  0  0  0  0  0  0  0  0
  -31.2456  -22.6636   18.5760 O   0  0  0  0  0  0  0  0  0  0  0  0
  -31.8511  -14.8294   20.2323 O   0  0  0  0  0  0  0  0  0  0  0  0
  -29.7755  -17.6970   22.6415 O   0  0  0  0  0  0  0  0  0  0  0  0
  -21.4660   -7.1103   21.8221 O   0  0  0  0  0  0  0  0  0  0  0  0
  -36.9678  -21.3874   22.0372 O   0  0  0  0  0  0  0  0  0  1  0  0
  -23.7856   -3.1187   24.8372 F   0  0  0  0  0  0  0  0  0  0  0  0
  -20.3639   -6.3336   24.2356 F   0  0  0  0  0  0  0  0  0  0  0  0
  1  2  1  0  0  0  0
  1  5  2  0  0  0  0
  2  6  2  0  0  0  0
  3  8  2  0  0  0  0
  3 16  1  0  0  0  0
  4  9  1  0  0  0  0
  4 16  2  0  0  0  0
  5 19  1  0  0  0  0
  6 21  1  0  0  0  0
  7 10  2  0  0  0  0
  7 20  1  0  0  0  0
  8 23  1  0  0  0  0
  9 23  2  0  0  0  0
 10 24  1  0  0  0  0
 11 12  2  0  0  0  0
 11 25  1  0  0  0  0
 12 26  1  0  0  0  0
 13 17  1  0  0  0  0
 13 30  2  0  0  0  0
 14 22  1  0  0  0  0
 14 24  2  0  0  0  0
 15 26  2  0  0  0  0
 15 27  1  0  0  0  0
 16 28  1  0  0  0  0
 17 31  2  0  0  0  0
 17 32  1  0  0  0  0
 18 28  1  0  0  0  0
 18 29  2  0  0  0  0
 18 33  1  0  0  0  0
 19 21  2  0  0  0  0
 19 38  1  0  0  0  0
 20 22  2  0  0  0  0
 20 39  1  0  0  0  0
 21 47  1  0  0  0  0
 22 40  1  0  0  0  0
 23 82  1  0  0  0  0
 24 83  1  0  0  0  0
 25 27  2  0  0  0  0
 25 82  1  0  0  0  0
 26 84  1  0  0  0  0
 27 85  1  0  0  0  0
 28 63  2  0  0  0  0
 29 64  1  0  0  0  0
 29 67  1  0  0  0  0
 30 70  1  0  0  0  0
 30 81  1  0  0  0  0
 31 68  1  0  0  0  0
 31 81  1  0  0  0  0
 32 73  1  0  0  0  0
 32 75  2  0  0  0  0
 33 69  1  0  0  0  0
 33 76  2  0  0  0  0
 34 48  1  0  0  0  0
 34 71  1  0  0  0  0
 34 77  2  0  0  0  0
 35 59  1  0  0  0  0
 35 65  1  0  0  0  0
 35 78  2  0  0  0  0
 36 60  1  0  0  0  0
 36 72  1  0  0  0  0
 36 79  2  0  0  0  0
 37 66  1  0  0  0  0
 37 70  1  0  0  0  0
 37 80  2  0  0  0  0
 38 41  1  0  0  0  0
 39 48  1  0  0  0  0
 40 65  1  0  0  0  0
 41 43  1  0  0  0  0
 42 44  1  0  0  0  0
 42 45  1  0  0  0  0
 43 47  1  0  0  0  0
 44 49  1  0  0  0  0
 45 66  1  0  0  0  0
 46 49  1  0  0  0  0
 46 66  1  0  0  0  0
 47 71  1  0  0  0  0
 48 65  1  0  0  0  0
 49 64  1  0  0  0  0
 50 60  1  0  0  0  0
 51 61  1  0  0  0  0
 52 61  1  0  0  0  0
 53 61  1  0  0  0  0
 54 62  1  0  0  0  0
 55 62  1  0  0  0  0
 56 73  1  0  0  0  0
 57 74  1  0  0  0  0
 58 62  1  0  0  0  0
 58 73  1  0  0  0  0
 59 61  1  0  0  0  0
 59 72  1  0  0  0  0
 60 74  1  0  0  0  0
 62 83  1  0  0  0  0
 63 64  1  0  0  0  0
M  CHG  1  74   1
M  ISO  4  37 100  62 101  70 100  83 101
M  END
> <Batch ID>
0159

> <Smiles>
CNC(C)C(=O)NC(C(=O)N1Cc2cc([101O:1][101C:1](C)(C)CN(C)C(=O)c3cc([100NH:0][100C:0](=O)N4CCCC(n5nc(-c6ccc(Oc7ccc(F)cc7F)cc6)c(C(N)=O)c5N)C4)oc3N)ccc2CC1C(=O)NC1CCCc2ccccc21)C(C)(C)C

> <Shape>
0.228

> <Color>
0.186

> <Negative vol penalty>
0.000

$$$$

  -OEChem-04052303473D

 81 89  0     1  0  0  0  0  0999 V2000
  -30.7212  -29.8607   25.3833 C   0  0  0  0  0  0  0  0  0  0  0  0
  -29.9730  -28.8930   24.7206 C   0  0  0  0  0  0  0  0  0  0  0  0
  -22.8103  -10.4277   20.7398 C   0  0  0  0  0  0  0  0  0  0  0  0
  -24.5446   -9.2253   21.9161 C   0  0  0  0  0  0  0  0  0  0  0  0
  -30.0866  -30.9696   25.9415 C   0  0  0  0  0  0  0  0  0  0  0  0
  -28.5895  -29.0332   24.6165 C   0  0  0  0  0  0  0  0  0  0  0  0
  -26.8778  -28.0105   19.9615 C   0  0  0  0  0  0  0  0  0  0  0  0
  -22.0412   -9.2653   20.6855 C   0  0  0  0  0  0  0  0  0  0  0  0
  -23.7755   -8.0629   21.8619 C   0  0  0  0  0  0  0  0  0  0  0  0
  -26.7611  -26.6673   19.6069 C   0  0  0  0  0  0  0  0  0  0  0  0
  -21.1301   -6.7496   23.5043 C   0  0  0  0  0  0  0  0  0  0  0  0
  -21.0286   -5.9865   24.6675 C   0  0  0  0  0  0  0  0  0  0  0  0
  -24.3929  -26.7606   20.0564 C   0  0  0  0  0  0  0  0  0  0  0  0
  -22.0127   -4.1032   23.5178 C   0  0  0  0  0  0  0  0  0  0  0  0
  -24.0620  -10.4077   21.3551 C   0  0  0  0  0  0  0  0  0  0  0  0
  -24.8494  -12.5865   22.4231 C   0  0  0  0  0  0  0  0  0  0  0  0
  -28.6959  -31.1283   25.8359 C   0  0  0  0  0  0  0  0  0  0  0  0
  -25.7529  -28.7372   20.3774 C   0  0  0  0  0  0  0  0  0  0  0  0
  -27.9356  -30.1446   25.1750 C   0  0  0  0  0  0  0  0  0  0  0  0
  -24.4976  -28.1137   20.4133 C   0  0  0  0  0  0  0  0  0  0  0  0
  -22.5238   -8.0829   21.2466 C   0  0  0  0  0  0  0  0  0  0  0  0
  -25.5190  -26.0413   19.6570 C   0  0  0  0  0  0  0  0  0  0  0  0
  -21.6727   -6.1894   22.3478 C   0  0  0  0  0  0  0  0  0  0  0  0
  -21.4700   -4.6633   24.6743 C   0  0  0  0  0  0  0  0  0  0  0  0
  -22.1141   -4.8663   22.3546 C   0  0  0  0  0  0  0  0  0  0  0  0
  -24.8572  -11.6080   21.4110 C   0  0  0  0  0  0  0  0  0  0  0  0
  -25.7739  -13.5146   22.0104 C   0  0  0  0  0  0  0  0  0  0  0  0
  -24.0757  -12.6506   23.6285 C   0  0  0  0  0  0  0  0  0  0  0  0
  -24.9114  -30.2314   23.0538 C   0  0  0  0  0  0  0  0  0  0  0  0
  -26.0856  -22.4629   19.8067 C   0  0  0  0  0  0  0  0  0  0  0  0
  -22.3763  -31.1799   21.2660 C   0  0  0  0  0  0  0  0  0  0  0  0
  -20.3372  -30.5981   18.5920 C   0  0  0  0  0  0  0  0  0  0  0  0
  -27.6189  -16.6428   17.6324 C   0  0  0  0  0  0  0  0  0  0  0  0
  -28.0490  -32.3200   26.4963 C   0  0  0  0  0  0  0  0  0  0  0  0
  -25.8909  -30.1927   20.7310 C   0  0  0  0  0  0  0  0  0  0  0  0
  -23.2556  -28.8550   20.8334 C   0  0  0  0  0  0  0  0  0  0  0  0
  -26.6237  -32.5828   26.0171 C   0  0  0  0  0  0  0  0  0  0  0  0
  -29.1967  -13.3580   18.3037 C   0  0  0  0  0  0  0  0  0  0  0  0
  -25.8207  -31.2860   25.9937 C   0  0  0  0  0  0  0  0  0  0  0  0
  -28.1629  -12.6706   19.1940 C   0  0  0  0  0  0  0  0  0  0  0  0
  -28.5508  -14.3734   17.3664 C   0  0  0  0  0  0  0  0  0  0  0  0
  -26.1417  -18.6282   17.6876 C   0  0  0  0  0  0  0  0  0  0  0  0
  -26.6862  -14.7073   18.9582 C   0  0  0  0  0  0  0  0  0  0  0  0
  -26.8180  -17.6181   19.8322 C   0  0  0  0  0  0  0  0  0  0  0  0
  -26.7419  -19.9678   18.0822 C   0  0  0  0  0  0  0  0  0  0  0  0
  -26.4358  -30.2738   25.0198 C   0  0  1  0  0  0  0  0  0  0  0  0
  -24.7685  -30.6975   21.6325 C   0  0  1  0  0  0  0  0  0  0  0  0
  -27.3104  -13.7083   19.9444 C   0  0  1  0  0  0  0  0  0  0  0  0
  -27.4440  -18.9398   20.3021 C   0  0  1  0  0  0  0  0  0  0  0  0
  -28.9567  -18.9739   20.0857 C   0  0  0  0  0  0  0  0  0  0  0  0
  -18.3296  -31.5266   17.4068 C   0  0  0  0  0  0  0  0  0  0  0  0
  -20.5722  -30.0863   23.4704 C   0  0  0  0  0  0  0  0  0  0  0  0
  -18.6638  -30.1657   21.8518 C   0  0  0  0  0  0  0  0  0  0  0  0
  -19.8318  -32.2710   22.5044 C   0  0  0  0  0  0  0  0  0  0  0  0
  -21.8610  -31.0097   16.0885 C   0  0  0  0  0  0  0  0  0  0  0  0
  -27.1762  -21.4527   20.0476 C   0  0  0  0  0  0  0  0  0  0  0  0
  -26.5222  -23.8884   19.5365 C   0  0  0  0  0  0  0  0  0  1  0  0
  -21.0011  -30.6255   20.9822 C   0  0  1  0  0  0  0  0  0  0  0  0
  -19.8485  -31.5096   17.4808 C   0  0  2  0  0  0  0  0  0  0  0  0
  -20.0408  -30.7723   22.1961 C   0  0  0  0  0  0  0  0  0  0  0  0
  -25.7182  -11.8885   20.4292 N   0  0  0  0  0  0  0  0  0  0  0  0
  -26.2601  -13.0538   20.8224 N   0  0  0  0  0  0  0  0  0  0  0  0
  -23.4431  -30.2746   21.1757 N   0  0  0  0  0  0  0  0  0  0  0  0
  -27.7092  -15.3206   18.0975 N   0  0  0  0  0  0  0  0  0  0  0  0
  -26.8077  -17.5204   18.3673 N   0  0  0  0  0  0  0  0  0  0  0  0
  -26.2103  -14.6719   22.5515 N   0  0  0  0  0  0  0  0  0  0  0  0
  -23.1725  -11.6136   23.8986 N   0  0  0  0  0  0  0  0  0  0  0  0
  -26.0952  -30.6142   23.6550 N   0  0  0  0  0  0  0  0  0  0  0  0
  -20.5361  -31.2887   19.7687 N   0  0  0  0  0  0  0  0  0  0  0  0
  -26.7403  -20.0874   19.5899 N   0  3  1  0  0  0  0  0  0  0  0  0
  -20.3780  -31.0521   16.1650 N   0  3  0  0  0  0  0  0  0  0  0  0
  -24.1703  -13.6077   24.4338 O   0  0  0  0  0  0  0  0  0  0  0  0
  -24.0135  -29.5745   23.5674 O   0  0  0  0  0  0  0  0  0  0  0  0
  -24.8992  -22.1382   19.8516 O   0  0  0  0  0  0  0  0  0  0  0  0
  -22.5002  -32.3738   21.5502 O   0  0  0  0  0  0  0  0  0  0  0  0
  -20.5203  -29.3932   18.4331 O   0  0  0  0  0  0  0  0  0  0  0  0
  -28.2325  -17.0171   16.6251 O   0  0  0  0  0  0  0  0  0  0  0  0
  -21.7734   -6.9485   21.1940 O   0  0  0  0  0  0  0  0  0  0  0  0
  -25.4012  -24.7167   19.3085 O   0  0  0  0  0  0  0  0  0  1  0  0
  -21.3739   -3.9312   25.7918 F   0  0  0  0  0  0  0  0  0  0  0  0
  -22.6374   -4.3230   21.2469 F   0  0  0  0  0  0  0  0  0  0  0  0
  1  2  1  0  0  0  0
  1  5  2  0  0  0  0
  2  6  2  0  0  0  0
  3  8  2  0  0  0  0
  3 15  1  0  0  0  0
  4  9  1  0  0  0  0
  4 15  2  0  0  0  0
  5 17  1  0  0  0  0
  6 19  1  0  0  0  0
  7 10  2  0  0  0  0
  7 18  1  0  0  0  0
  8 21  1  0  0  0  0
  9 21  2  0  0  0  0
 10 22  1  0  0  0  0
 11 12  2  0  0  0  0
 11 23  1  0  0  0  0
 12 24  1  0  0  0  0
 13 20  1  0  0  0  0
 13 22  2  0  0  0  0
 14 24  2  0  0  0  0
 14 25  1  0  0  0  0
 15 26  1  0  0  0  0
 16 26  1  0  0  0  0
 16 27  2  0  0  0  0
 16 28  1  0  0  0  0
 17 19  2  0  0  0  0
 17 34  1  0  0  0  0
 18 20  2  0  0  0  0
 18 35  1  0  0  0  0
 19 46  1  0  0  0  0
 20 36  1  0  0  0  0
 21 78  1  0  0  0  0
 22 79  1  0  0  0  0
 23 25  2  0  0  0  0
 23 78  1  0  0  0  0
 24 80  1  0  0  0  0
 25 81  1  0  0  0  0
 26 61  2  0  0  0  0
 27 62  1  0  0  0  0
 27 66  1  0  0  0  0
 28 67  1  0  0  0  0
 28 72  2  0  0  0  0
 29 47  1  0  0  0  0
 29 68  1  0  0  0  0
 29 73  2  0  0  0  0
 30 56  1  0  0  0  0
 30 57  1  0  0  0  0
 30 74  2  0  0  0  0
 31 58  1  0  0  0  0
 31 63  1  0  0  0  0
 31 75  2  0  0  0  0
 32 59  1  0  0  0  0
 32 69  1  0  0  0  0
 32 76  2  0  0  0  0
 33 64  1  0  0  0  0
 33 65  1  0  0  0  0
 33 77  2  0  0  0  0
 34 37  1  0  0  0  0
 35 47  1  0  0  0  0
 36 63  1  0  0  0  0
 37 39  1  0  0  0  0
 38 40  1  0  0  0  0
 38 41  1  0  0  0  0
 39 46  1  0  0  0  0
 40 48  1  0  0  0  0
 41 64  1  0  0  0  0
 42 45  1  0  0  0  0
 42 65  1  0  0  0  0
 43 48  1  0  0  0  0
 43 64  1  0  0  0  0
 44 49  1  0  0  0  0
 44 65  1  0  0  0  0
 45 70  1  0  0  0  0
 46 68  1  0  0  0  0
 47 63  1  0  0  0  0
 48 62  1  0  0  0  0
 49 50  1  0  0  0  0
 49 70  1  0  0  0  0
 51 59  1  0  0  0  0
 52 60  1  0  0  0  0
 53 60  1  0  0  0  0
 54 60  1  0  0  0  0
 55 71  1  0  0  0  0
 56 70  1  0  0  0  0
 57 79  1  0  0  0  0
 58 60  1  0  0  0  0
 58 69  1  0  0  0  0
 59 71  1  0  0  0  0
 61 62  1  0  0  0  0
M  CHG  2  70   1  71   1
M  ISO  4  33 100  57 101  65 100  79 101
M  END
> <Batch ID>
0159

> <Smiles>
CNC(C)C(=O)NC(C(=O)N1Cc2cc([101O:1][101CH2:1]C(=O)CN3CC[100N:0]([100C:0](=O)N4CCCC(n5nc(-c6ccc(Oc7ccc(F)cc7F)cc6)c(C(N)=O)c5N)C4)CC3C)ccc2CC1C(=O)NC1CCCc2ccccc21)C(C)(C)C

> <Shape>
0.288

> <Color>
0.114

> <Negative vol penalty>
0.000

$$$$

  -OEChem-04052303473D

 86 94  0     1  0  0  0  0  0999 V2000
  -25.6327  -35.4276   23.2709 C   0  0  0  0  0  0  0  0  0  0  0  0
  -26.2468  -34.1937   23.0819 C   0  0  0  0  0  0  0  0  0  0  0  0
  -26.2539  -11.0691   21.1772 C   0  0  0  0  0  0  0  0  0  0  0  0
  -25.5942  -12.0717   19.0804 C   0  0  0  0  0  0  0  0  0  0  0  0
  -24.3004  -35.4869   23.6778 C   0  0  0  0  0  0  0  0  0  0  0  0
  -25.5292  -33.0182   23.3007 C   0  0  0  0  0  0  0  0  0  0  0  0
  -26.2445  -29.5951   19.6380 C   0  0  0  0  0  0  0  0  0  0  0  0
  -24.9444  -10.6345   21.3815 C   0  0  0  0  0  0  0  0  0  0  0  0
  -24.2846  -11.6370   19.2846 C   0  0  0  0  0  0  0  0  0  0  0  0
  -27.4331  -28.8670   19.6703 C   0  0  0  0  0  0  0  0  0  0  0  0
  -22.9535   -8.1276   20.2929 C   0  0  0  0  0  0  0  0  0  0  0  0
  -22.7664   -6.8160   20.7292 C   0  0  0  0  0  0  0  0  0  0  0  0
  -28.7515  -19.1274   16.5485 C   0  0  0  0  0  0  0  0  0  0  0  0
  -26.2611  -27.0095   20.6680 C   0  0  0  0  0  0  0  0  0  0  0  0
  -29.5121  -20.6590   18.2552 C   0  0  0  0  0  0  0  0  0  0  0  0
  -21.6641   -7.6345   22.7172 C   0  0  0  0  0  0  0  0  0  0  0  0
  -26.5788  -11.7878   20.0267 C   0  0  0  0  0  0  0  0  0  0  0  0
  -28.2487  -20.1991   15.8108 C   0  0  0  0  0  0  0  0  0  0  0  0
  -28.9650  -11.5438   19.1582 C   0  0  0  0  0  0  0  0  0  0  0  0
  -23.5633  -34.3116   23.8923 C   0  0  0  0  0  0  0  0  0  0  0  0
  -25.0555  -29.0389   20.1314 C   0  0  0  0  0  0  0  0  0  0  0  0
  -24.1862  -33.0619   23.7121 C   0  0  0  0  0  0  0  0  0  0  0  0
  -25.0583  -27.7316   20.6385 C   0  0  0  0  0  0  0  0  0  0  0  0
  -29.3832  -19.3573   17.7707 C   0  0  0  0  0  0  0  0  0  0  0  0
  -29.0093  -21.7307   17.5175 C   0  0  0  0  0  0  0  0  0  0  0  0
  -28.3776  -21.5008   16.2953 C   0  0  0  0  0  0  0  0  0  0  0  0
  -23.9597  -10.9184   20.4352 C   0  0  0  0  0  0  0  0  0  0  0  0
  -27.4421  -27.5751   20.1880 C   0  0  0  0  0  0  0  0  0  0  0  0
  -22.4960   -9.1927   21.0689 C   0  0  0  0  0  0  0  0  0  0  0  0
  -22.1217   -6.5694   21.9413 C   0  0  0  0  0  0  0  0  0  0  0  0
  -21.8513   -8.9461   22.2810 C   0  0  0  0  0  0  0  0  0  0  0  0
  -27.9313  -12.2375   19.8154 C   0  0  0  0  0  0  0  0  0  0  0  0
  -30.0434  -12.3919   19.2235 C   0  0  0  0  0  0  0  0  0  0  0  0
  -27.5949  -19.9227   14.5374 C   0  0  0  0  0  0  0  0  0  0  0  0
  -28.9516  -10.2485   18.5436 C   0  0  0  0  0  0  0  0  0  0  0  0
  -29.7182  -24.8895   19.4357 C   0  0  0  0  0  0  0  0  0  0  0  0
  -29.7511  -23.4044   19.2179 C   0  0  0  0  0  0  0  0  0  0  0  0
  -23.0381  -29.7749   22.4749 C   0  0  0  0  0  0  0  0  0  0  0  0
  -21.2962  -27.3479   21.2109 C   0  0  0  0  0  0  0  0  0  0  0  0
  -21.2404  -24.4726   19.3734 C   0  0  0  0  0  0  0  0  0  0  0  0
  -30.5462  -18.3226   19.7515 C   0  0  0  0  0  0  0  0  0  0  0  0
  -22.1398  -34.4259   24.3773 C   0  0  0  0  0  0  0  0  0  0  0  0
  -23.7764  -29.8275   20.0649 C   0  0  0  0  0  0  0  0  0  0  0  0
  -23.8046  -27.0814   21.1618 C   0  0  0  0  0  0  0  0  0  0  0  0
  -21.3392  -33.1350   24.2256 C   0  0  0  0  0  0  0  0  0  0  0  0
  -31.9159  -15.8667   21.9353 C   0  0  0  0  0  0  0  0  0  0  0  0
  -22.1469  -31.9434   24.7300 C   0  0  0  0  0  0  0  0  0  0  0  0
  -31.1478  -14.5928   21.5755 C   0  0  0  0  0  0  0  0  0  0  0  0
  -31.0246  -17.1054   21.8644 C   0  0  0  0  0  0  0  0  0  0  0  0
  -29.5372  -16.0069   20.2364 C   0  0  0  0  0  0  0  0  0  0  0  0
  -23.4338  -31.7647   23.9154 C   0  0  1  0  0  0  0  0  0  0  0  0
  -22.7286  -29.3521   21.0667 C   0  0  1  0  0  0  0  0  0  0  0  0
  -30.4094  -14.7408   20.2308 C   0  0  2  0  0  0  0  0  0  0  0  0
  -19.6754  -22.6950   18.5438 C   0  0  0  0  0  0  0  0  0  0  0  0
  -21.2209  -26.1155   24.0012 C   0  0  0  0  0  0  0  0  0  0  0  0
  -20.5076  -23.9568   22.9526 C   0  0  0  0  0  0  0  0  0  0  0  0
  -19.0640  -25.9804   22.7425 C   0  0  0  0  0  0  0  0  0  0  0  0
  -21.8366  -25.1048   16.5443 C   0  0  0  0  0  0  0  0  0  0  0  0
  -28.4940  -25.4433   20.1168 C   0  0  0  0  0  0  0  0  0  1  0  0
  -21.2228  -25.8564   21.4324 C   0  0  1  0  0  0  0  0  0  0  0  0
  -20.3459  -24.0239   18.2319 C   0  0  2  0  0  0  0  0  0  0  0  0
  -20.5280  -25.4899   22.7742 C   0  0  0  0  0  0  0  0  0  0  0  0
  -28.3183  -13.4342   20.2653 N   0  0  0  0  0  0  0  0  0  0  0  0
  -27.4558  -18.7267   14.0524 N   0  0  0  0  0  0  0  0  0  0  0  0
  -29.6071  -13.4989   19.8902 N   0  0  0  0  0  0  0  0  0  0  0  0
  -22.5804  -27.8953   21.0811 N   0  0  0  0  0  0  0  0  0  0  0  0
  -30.3611  -17.1819   20.5610 N   0  0  0  0  0  0  0  0  0  0  0  0
  -27.8671  -22.5875   15.5456 N   0  0  0  0  0  0  0  0  0  0  0  0
  -31.3127  -12.2913   18.7751 N   0  0  0  0  0  0  0  0  0  0  0  0
  -27.7604   -9.5104   18.5663 N   0  0  0  0  0  0  0  0  0  0  0  0
  -29.1523  -23.0409   18.0310 N   0  0  0  0  0  0  0  0  0  0  0  0
  -29.8926  -18.2684   18.5208 N   0  0  0  0  0  0  0  0  0  0  0  0
  -23.1432  -31.1427   22.6414 N   0  0  0  0  0  0  0  0  0  0  0  0
  -20.5722  -25.2999   20.2511 N   0  0  0  0  0  0  0  0  0  0  0  0
  -21.1413  -23.8669   16.9815 N   0  3  0  0  0  0  0  0  0  0  0  0
  -29.9705   -9.7532   18.0050 O   0  0  0  0  0  0  0  0  0  0  0  0
  -30.6688  -25.5415   19.0309 O   0  0  0  0  0  0  0  0  0  0  0  0
  -30.2615  -22.7340   20.1000 O   0  0  0  0  0  0  0  0  0  0  0  0
  -23.1703  -28.9234   23.3462 O   0  0  0  0  0  0  0  0  0  0  0  0
  -20.2522  -28.0020   21.1482 O   0  0  0  0  0  0  0  0  0  0  0  0
  -22.4135  -24.1212   19.4781 O   0  0  0  0  0  0  0  0  0  0  0  0
  -31.2558  -19.2655   20.1112 O   0  0  0  0  0  0  0  0  0  0  0  0
  -22.6818  -10.4942   20.6340 O   0  0  0  0  0  0  0  0  0  0  0  0
  -28.6009  -26.8625   20.2213 O   0  0  0  0  0  0  0  0  0  1  0  0
  -21.9407   -5.3098   22.3593 F   0  0  0  0  0  0  0  0  0  0  0  0
  -21.4085   -9.9651   23.0302 F   0  0  0  0  0  0  0  0  0  0  0  0
  1  2  1  0  0  0  0
  1  5  2  0  0  0  0
  2  6  2  0  0  0  0
  3  8  2  0  0  0  0
  3 17  1  0  0  0  0
  4  9  1  0  0  0  0
  4 17  2  0  0  0  0
  5 20  1  0  0  0  0
  6 22  1  0  0  0  0
  7 10  2  0  0  0  0
  7 21  1  0  0  0  0
  8 27  1  0  0  0  0
  9 27  2  0  0  0  0
 10 28  1  0  0  0  0
 11 12  2  0  0  0  0
 11 29  1  0  0  0  0
 12 30  1  0  0  0  0
 13 18  2  0  0  0  0
 13 24  1  0  0  0  0
 14 23  1  0  0  0  0
 14 28  2  0  0  0  0
 15 24  2  0  0  0  0
 15 25  1  0  0  0  0
 16 30  2  0  0  0  0
 16 31  1  0  0  0  0
 17 32  1  0  0  0  0
 18 26  1  0  0  0  0
 18 34  1  0  0  0  0
 19 32  1  0  0  0  0
 19 33  2  0  0  0  0
 19 35  1  0  0  0  0
 20 22  2  0  0  0  0
 20 42  1  0  0  0  0
 21 23  2  0  0  0  0
 21 43  1  0  0  0  0
 22 51  1  0  0  0  0
 23 44  1  0  0  0  0
 24 72  1  0  0  0  0
 25 26  2  0  0  0  0
 25 71  1  0  0  0  0
 26 68  1  0  0  0  0
 27 83  1  0  0  0  0
 28 84  1  0  0  0  0
 29 31  2  0  0  0  0
 29 83  1  0  0  0  0
 30 85  1  0  0  0  0
 31 86  1  0  0  0  0
 32 63  2  0  0  0  0
 33 65  1  0  0  0  0
 33 69  1  0  0  0  0
 34 64  2  0  0  0  0
 35 70  1  0  0  0  0
 35 76  2  0  0  0  0
 36 37  1  0  0  0  0
 36 59  1  0  0  0  0
 36 77  2  0  0  0  0
 37 71  1  0  0  0  0
 37 78  2  0  0  0  0
 38 52  1  0  0  0  0
 38 73  1  0  0  0  0
 38 79  2  0  0  0  0
 39 60  1  0  0  0  0
 39 66  1  0  0  0  0
 39 80  2  0  0  0  0
 40 61  1  0  0  0  0
 40 74  1  0  0  0  0
 40 81  2  0  0  0  0
 41 67  1  0  0  0  0
 41 72  1  0  0  0  0
 41 82  2  0  0  0  0
 42 45  1  0  0  0  0
 43 52  1  0  0  0  0
 44 66  1  0  0  0  0
 45 47  1  0  0  0  0
 46 48  1  0  0  0  0
 46 49  1  0  0  0  0
 47 51  1  0  0  0  0
 48 53  1  0  0  0  0
 49 67  1  0  0  0  0
 50 53  1  0  0  0  0
 50 67  1  0  0  0  0
 51 73  1  0  0  0  0
 52 66  1  0  0  0  0
 53 65  1  0  0  0  0
 54 61  1  0  0  0  0
 55 62  1  0  0  0  0
 56 62  1  0  0  0  0
 57 62  1  0  0  0  0
 58 75  1  0  0  0  0
 59 84  1  0  0  0  0
 60 62  1  0  0  0  0
 60 74  1  0  0  0  0
 61 75  1  0  0  0  0
 63 65  1  0  0  0  0
M  CHG  1  75   1
M  ISO  4  41 100  59 101  72 100  84 101
M  END
> <Batch ID>
0159

> <Smiles>
CNC(C)C(=O)NC(C(=O)N1Cc2cc([101O:1][101CH2:1]C(=O)C(=O)Nc3cc([100NH:0][100C:0](=O)N4CCCC(n5nc(-c6ccc(Oc7ccc(F)cc7F)cc6)c(C(N)=O)c5N)C4)cc(C=N)c3N)ccc2CC1C(=O)NC1CCCc2ccccc21)C(C)(C)C

> <Shape>
0.326

> <Color>
0.087

> <Negative vol penalty>
0.000

$$$$

  -OEChem-04052303473D

 87 95  0     1  0  0  0  0  0999 V2000
  -27.3095  -33.1064   15.0553 C   0  0  0  0  0  0  0  0  0  0  0  0
  -27.9848  -32.2806   15.9484 C   0  0  0  0  0  0  0  0  0  0  0  0
  -25.2209   -9.0920   21.9293 C   0  0  0  0  0  0  0  0  0  0  0  0
  -24.2455  -10.7405   23.4017 C   0  0  0  0  0  0  0  0  0  0  0  0
  -26.1431  -33.7572   15.4550 C   0  0  0  0  0  0  0  0  0  0  0  0
  -27.4946  -32.1061   17.2421 C   0  0  0  0  0  0  0  0  0  0  0  0
  -27.5607  -27.2591   18.7074 C   0  0  0  0  0  0  0  0  0  0  0  0
  -24.7693   -8.0743   22.7696 C   0  0  0  0  0  0  0  0  0  0  0  0
  -23.7939   -9.7228   24.2420 C   0  0  0  0  0  0  0  0  0  0  0  0
  -28.7873  -26.7320   19.1088 C   0  0  0  0  0  0  0  0  0  0  0  0
  -23.5616   -5.0257   24.3388 C   0  0  0  0  0  0  0  0  0  0  0  0
  -22.9584   -3.9160   23.7471 C   0  0  0  0  0  0  0  0  0  0  0  0
  -26.8722  -21.7781   20.0227 C   0  0  0  0  0  0  0  0  0  0  0  0
  -26.3533  -19.4562   19.6029 C   0  0  0  0  0  0  0  0  0  0  0  0
  -28.1559  -27.0362   21.4170 C   0  0  0  0  0  0  0  0  0  0  0  0
  -28.4936  -20.0646   20.5442 C   0  0  0  0  0  0  0  0  0  0  0  0
  -21.2607   -5.3468   22.7944 C   0  0  0  0  0  0  0  0  0  0  0  0
  -24.9590  -10.4251   22.2454 C   0  0  0  0  0  0  0  0  0  0  0  0
  -25.9858  -20.8014   19.5690 C   0  0  0  0  0  0  0  0  0  0  0  0
  -24.7410  -12.0460   20.2877 C   0  0  0  0  0  0  0  0  0  0  0  0
  -25.6331  -33.5830   16.7513 C   0  0  0  0  0  0  0  0  0  0  0  0
  -26.6252  -27.6896   19.6592 C   0  0  0  0  0  0  0  0  0  0  0  0
  -26.3210  -32.7564   17.6599 C   0  0  0  0  0  0  0  0  0  0  0  0
  -26.9170  -27.5661   21.0251 C   0  0  0  0  0  0  0  0  0  0  0  0
  -28.1261  -21.4098   20.5102 C   0  0  0  0  0  0  0  0  0  0  0  0
  -27.6072  -19.0878   20.0905 C   0  0  0  0  0  0  0  0  0  0  0  0
  -24.0558   -8.3897   23.9259 C   0  0  0  0  0  0  0  0  0  0  0  0
  -29.0863  -26.6231   20.4637 C   0  0  0  0  0  0  0  0  0  0  0  0
  -23.0144   -6.2960   24.1584 C   0  0  0  0  0  0  0  0  0  0  0  0
  -21.8080   -4.0765   22.9749 C   0  0  0  0  0  0  0  0  0  0  0  0
  -21.8639   -6.4565   23.3862 C   0  0  0  0  0  0  0  0  0  0  0  0
  -25.4257  -11.4768   21.3781 C   0  0  0  0  0  0  0  0  0  0  0  0
  -25.6044  -12.9954   19.7980 C   0  0  0  0  0  0  0  0  0  0  0  0
  -24.6857  -21.1831   19.0638 C   0  0  0  0  0  0  0  0  0  0  0  0
  -23.4409  -11.7437   19.7643 C   0  0  0  0  0  0  0  0  0  0  0  0
  -30.9461  -23.4891   21.8640 C   0  0  0  0  0  0  0  0  0  0  0  0
  -30.2900  -22.1987   21.4776 C   0  0  0  0  0  0  0  0  0  0  0  0
  -25.2606  -30.4725   20.3641 C   0  0  0  0  0  0  0  0  0  0  0  0
  -23.5276  -28.6584   22.4203 C   0  0  0  0  0  0  0  0  0  0  0  0
  -23.2974  -25.8068   24.2810 C   0  0  0  0  0  0  0  0  0  0  0  0
  -29.1866  -17.1864   20.5767 C   0  0  0  0  0  0  0  0  0  0  0  0
  -24.3948  -34.3447   17.1526 C   0  0  0  0  0  0  0  0  0  0  0  0
  -25.2957  -28.2312   19.2103 C   0  0  0  0  0  0  0  0  0  0  0  0
  -25.9388  -27.9950   22.0870 C   0  0  0  0  0  0  0  0  0  0  0  0
  -23.7365  -33.8115   18.4224 C   0  0  0  0  0  0  0  0  0  0  0  0
  -30.4745  -13.8789   20.8577 C   0  0  0  0  0  0  0  0  0  0  0  0
  -24.7827  -33.5739   19.5068 C   0  0  0  0  0  0  0  0  0  0  0  0
  -29.2195  -13.0059   20.9284 C   0  0  0  0  0  0  0  0  0  0  0  0
  -30.2860  -15.2038   21.5944 C   0  0  0  0  0  0  0  0  0  0  0  0
  -27.8468  -15.1012   21.2642 C   0  0  0  0  0  0  0  0  0  0  0  0
  -25.8072  -32.5223   19.0640 C   0  0  1  0  0  0  0  0  0  0  0  0
  -24.6258  -29.1147   20.2581 C   0  0  1  0  0  0  0  0  0  0  0  0
  -27.9662  -13.7836   20.4811 C   0  0  2  0  0  0  0  0  0  0  0  0
  -21.7785  -24.6207   25.8884 C   0  0  0  0  0  0  0  0  0  0  0  0
  -24.3649  -30.5874   24.6312 C   0  0  0  0  0  0  0  0  0  0  0  0
  -23.6424  -28.8721   26.3057 C   0  0  0  0  0  0  0  0  0  0  0  0
  -21.9751  -29.8575   24.7334 C   0  0  0  0  0  0  0  0  0  0  0  0
  -23.0152  -23.4781   22.4765 C   0  0  0  0  0  0  0  0  0  0  0  0
  -31.7653  -24.2125   20.8273 C   0  0  0  0  0  0  0  0  0  0  0  0
  -30.8881  -25.1409   20.0026 C   0  0  0  0  0  0  0  0  0  1  0  0
  -23.6891  -28.2193   23.8556 C   0  0  1  0  0  0  0  0  0  0  0  0
  -22.1806  -24.7897   24.4315 C   0  0  2  0  0  0  0  0  0  0  0  0
  -23.4373  -29.3777   24.8617 C   0  0  0  0  0  0  0  0  0  0  0  0
  -26.6311  -12.0192   21.5701 N   0  0  0  0  0  0  0  0  0  0  0  0
  -30.8002  -23.8973   23.0797 N   0  0  0  0  0  0  0  0  0  0  0  0
  -26.7107  -12.9391   20.5937 N   0  0  0  0  0  0  0  0  0  0  0  0
  -24.6550  -28.5241   21.5977 N   0  0  0  0  0  0  0  0  0  0  0  0
  -29.0821  -15.8865   21.1155 N   0  0  0  0  0  0  0  0  0  0  0  0
  -25.5175  -13.8645   18.7686 N   0  0  0  0  0  0  0  0  0  0  0  0
  -24.3221  -22.4761   19.0274 N   0  0  0  0  0  0  0  0  0  0  0  0
  -22.6867  -10.7399   20.3872 N   0  0  0  0  0  0  0  0  0  0  0  0
  -29.0246  -22.4000   20.9705 N   0  0  0  0  0  0  0  0  0  0  0  0
  -27.9811  -17.7215   20.1240 N   0  0  0  0  0  0  0  0  0  0  0  0
  -25.2502  -31.1920   19.1844 N   0  0  0  0  0  0  0  0  0  0  0  0
  -22.8065  -27.0713   24.0331 N   0  0  0  0  0  0  0  0  0  0  0  0
  -23.8255  -20.2500   18.6228 N   0  3  0  0  0  0  0  0  0  0  0  0
  -22.6135  -23.4637   23.9067 N   0  3  0  0  0  0  0  0  0  0  0  0
  -22.9689  -12.3344   18.7634 O   0  0  0  0  0  0  0  0  0  0  0  0
  -30.9292  -21.1777   21.6684 O   0  0  0  0  0  0  0  0  0  0  0  0
  -25.7240  -30.8407   21.4371 O   0  0  0  0  0  0  0  0  0  0  0  0
  -22.4390  -29.0976   22.0412 O   0  0  0  0  0  0  0  0  0  0  0  0
  -24.4861  -25.5101   24.3778 O   0  0  0  0  0  0  0  0  0  0  0  0
  -30.2704  -17.7703   20.4961 O   0  0  0  0  0  0  0  0  0  0  0  0
  -23.6149   -7.3969   24.7459 O   0  0  0  0  0  0  0  0  0  0  0  0
  -30.2831  -26.1095   20.8583 O   0  0  0  0  0  0  0  0  0  1  0  0
  -21.2297   -3.0109   22.4055 F   0  0  0  0  0  0  0  0  0  0  0  0
  -21.3342   -7.6746   23.2083 F   0  0  0  0  0  0  0  0  0  0  0  0
  1  2  1  0  0  0  0
  1  5  2  0  0  0  0
  2  6  2  0  0  0  0
  3  8  2  0  0  0  0
  3 18  1  0  0  0  0
  4  9  1  0  0  0  0
  4 18  2  0  0  0  0
  5 21  1  0  0  0  0
  6 23  1  0  0  0  0
  7 10  2  0  0  0  0
  7 22  1  0  0  0  0
  8 27  1  0  0  0  0
  9 27  2  0  0  0  0
 10 28  1  0  0  0  0
 11 12  2  0  0  0  0
 11 29  1  0  0  0  0
 12 30  1  0  0  0  0
 13 19  1  0  0  0  0
 13 25  2  0  0  0  0
 14 19  2  0  0  0  0
 14 26  1  0  0  0  0
 15 24  1  0  0  0  0
 15 28  2  0  0  0  0
 16 25  1  0  0  0  0
 16 26  2  0  0  0  0
 17 30  2  0  0  0  0
 17 31  1  0  0  0  0
 18 32  1  0  0  0  0
 19 34  1  0  0  0  0
 20 32  1  0  0  0  0
 20 33  2  0  0  0  0
 20 35  1  0  0  0  0
 21 23  2  0  0  0  0
 21 42  1  0  0  0  0
 22 24  2  0  0  0  0
 22 43  1  0  0  0  0
 23 51  1  0  0  0  0
 24 44  1  0  0  0  0
 25 72  1  0  0  0  0
 26 73  1  0  0  0  0
 27 84  1  0  0  0  0
 28 85  1  0  0  0  0
 29 31  2  0  0  0  0
 29 84  1  0  0  0  0
 30 86  1  0  0  0  0
 31 87  1  0  0  0  0
 32 64  2  0  0  0  0
 33 66  1  0  0  0  0
 33 69  1  0  0  0  0
 34 70  1  0  0  0  0
 34 76  2  0  0  0  0
 35 71  1  0  0  0  0
 35 78  2  0  0  0  0
 36 37  1  0  0  0  0
 36 59  1  0  0  0  0
 36 65  2  0  0  0  0
 37 72  1  0  0  0  0
 37 79  2  0  0  0  0
 38 52  1  0  0  0  0
 38 74  1  0  0  0  0
 38 80  2  0  0  0  0
 39 61  1  0  0  0  0
 39 67  1  0  0  0  0
 39 81  2  0  0  0  0
 40 62  1  0  0  0  0
 40 75  1  0  0  0  0
 40 82  2  0  0  0  0
 41 68  1  0  0  0  0
 41 73  1  0  0  0  0
 41 83  2  0  0  0  0
 42 45  1  0  0  0  0
 43 52  1  0  0  0  0
 44 67  1  0  0  0  0
 45 47  1  0  0  0  0
 46 48  1  0  0  0  0
 46 49  1  0  0  0  0
 47 51  1  0  0  0  0
 48 53  1  0  0  0  0
 49 68  1  0  0  0  0
 50 53  1  0  0  0  0
 50 68  1  0  0  0  0
 51 74  1  0  0  0  0
 52 67  1  0  0  0  0
 53 66  1  0  0  0  0
 54 62  1  0  0  0  0
 55 63  1  0  0  0  0
 56 63  1  0  0  0  0
 57 63  1  0  0  0  0
 58 77  1  0  0  0  0
 59 60  1  0  0  0  0
 60 85  1  0  0  0  0
 61 63  1  0  0  0  0
 61 75  1  0  0  0  0
 62 77  1  0  0  0  0
 64 66  1  0  0  0  0
M  CHG  2  76   1  77   1
M  ISO  4  41 100  60 101  73 100  85 101
M  END
> <Batch ID>
0159

> <Smiles>
CNC(C)C(=O)NC(C(=O)N1Cc2cc([101O:1][101CH2:1]CC(=N)C(=O)Nc3cc([100NH:0][100C:0](=O)N4CCCC(n5nc(-c6ccc(Oc7ccc(F)cc7F)cc6)c(C(N)=O)c5N)C4)cc(C(=N)N)c3)ccc2CC1C(=O)NC1CCCc2ccccc21)C(C)(C)C

> <Shape>
0.254

> <Color>
0.052

> <Negative vol penalty>
0.000

$$$$

  -OEChem-04052303473D

 86 95  0     1  0  0  0  0  0999 V2000
  -28.9638  -32.8563   22.2485 C   0  0  0  0  0  0  0  0  0  0  0  0
  -28.8269  -31.4769   22.1306 C   0  0  0  0  0  0  0  0  0  0  0  0
  -23.1175   -9.8430   19.9490 C   0  0  0  0  0  0  0  0  0  0  0  0
  -23.8308   -9.9132   22.2562 C   0  0  0  0  0  0  0  0  0  0  0  0
  -27.9251  -33.6154   22.7858 C   0  0  0  0  0  0  0  0  0  0  0  0
  -27.6515  -30.8557   22.5511 C   0  0  0  0  0  0  0  0  0  0  0  0
  -25.9716  -27.4239   19.2276 C   0  0  0  0  0  0  0  0  0  0  0  0
  -22.3877   -8.6833   20.2099 C   0  0  0  0  0  0  0  0  0  0  0  0
  -23.1009   -8.7535   22.5172 C   0  0  0  0  0  0  0  0  0  0  0  0
  -26.6121  -26.1856   19.2123 C   0  0  0  0  0  0  0  0  0  0  0  0
  -19.8748   -7.9151   23.0734 C   0  0  0  0  0  0  0  0  0  0  0  0
  -19.0951   -7.8883   24.2297 C   0  0  0  0  0  0  0  0  0  0  0  0
  -24.8185  -25.2484   20.5252 C   0  0  0  0  0  0  0  0  0  0  0  0
  -20.3530   -5.9886   25.0337 C   0  0  0  0  0  0  0  0  0  0  0  0
  -29.8965  -18.0606   22.6909 C   0  0  0  0  0  0  0  0  0  0  0  0
  -23.8391  -10.4579   20.9722 C   0  0  0  0  0  0  0  0  0  0  0  0
  -24.1420  -12.9852   20.8025 C   0  0  0  0  0  0  0  0  0  0  0  0
  -26.7326  -33.0043   23.2042 C   0  0  0  0  0  0  0  0  0  0  0  0
  -24.7531  -27.5867   19.9021 C   0  0  0  0  0  0  0  0  0  0  0  0
  -26.5963  -31.6071   23.0958 C   0  0  0  0  0  0  0  0  0  0  0  0
  -24.1633  -26.4892   20.5453 C   0  0  0  0  0  0  0  0  0  0  0  0
  -22.3794   -8.1386   21.4940 C   0  0  0  0  0  0  0  0  0  0  0  0
  -26.0370  -25.0984   19.8636 C   0  0  0  0  0  0  0  0  0  0  0  0
  -20.8935   -6.9786   22.8972 C   0  0  0  0  0  0  0  0  0  0  0  0
  -19.3342   -6.9251   25.2099 C   0  0  0  0  0  0  0  0  0  0  0  0
  -21.1326   -6.0154   23.8773 C   0  0  0  0  0  0  0  0  0  0  0  0
  -24.5937  -11.6556   20.7031 C   0  0  0  0  0  0  0  0  0  0  0  0
  -30.8904  -19.0522   22.7592 C   0  0  0  0  0  0  0  0  0  0  0  0
  -25.2288  -13.7447   20.4442 C   0  0  0  0  0  0  0  0  0  0  0  0
  -30.4688  -17.0779   21.9275 C   0  0  0  0  0  0  0  0  0  0  0  0
  -22.8550  -13.4887   21.1846 C   0  0  0  0  0  0  0  0  0  0  0  0
  -23.7644  -29.3531   22.3528 C   0  0  0  0  0  0  0  0  0  0  0  0
  -20.8639  -28.1406   21.5530 C   0  0  0  0  0  0  0  0  0  0  0  0
  -19.0791  -25.6468   20.0557 C   0  0  0  0  0  0  0  0  0  0  0  0
  -30.6726  -14.8854   20.7036 C   0  0  0  0  0  0  0  0  0  0  0  0
  -25.6561  -33.8608   23.8225 C   0  0  0  0  0  0  0  0  0  0  0  0
  -24.0616  -28.9224   19.8866 C   0  0  0  0  0  0  0  0  0  0  0  0
  -22.8463  -26.6065   21.2667 C   0  0  0  0  0  0  0  0  0  0  0  0
  -24.2968  -33.1702   23.8981 C   0  0  0  0  0  0  0  0  0  0  0  0
  -29.6457  -12.4018   18.3682 C   0  0  0  0  0  0  0  0  0  0  0  0
  -24.4477  -31.7525   24.4404 C   0  0  0  0  0  0  0  0  0  0  0  0
  -28.2026  -12.0956   18.7756 C   0  0  0  0  0  0  0  0  0  0  0  0
  -30.1520  -22.6153   20.4447 C   0  0  0  0  0  0  0  0  0  0  0  0
  -28.1206  -22.6123   21.9460 C   0  0  0  0  0  0  0  0  0  0  0  0
  -30.5325  -12.6723   19.5823 C   0  0  0  0  0  0  0  0  0  0  0  0
  -28.5866  -13.3948   20.9091 C   0  0  0  0  0  0  0  0  0  0  0  0
  -30.7109  -21.4264   21.2156 C   0  0  0  0  0  0  0  0  0  0  0  0
  -28.6956  -21.4231   22.7045 C   0  0  0  0  0  0  0  0  0  0  0  0
  -25.3269  -30.8996   23.5179 C   0  0  1  0  0  0  0  0  0  0  0  0
  -23.0789  -29.0999   21.0399 C   0  0  1  0  0  0  0  0  0  0  0  0
  -27.6406  -13.1794   19.7165 C   0  0  2  0  0  0  0  0  0  0  0  0
  -28.6244  -22.6672   20.5030 C   0  0  0  0  0  0  0  0  0  0  0  0
  -32.1951  -20.8693   23.9377 C   0  0  0  0  0  0  0  0  0  0  0  0
  -16.7239  -24.9128   19.5957 C   0  0  0  0  0  0  0  0  0  0  0  0
  -20.5826  -27.2342   24.4529 C   0  0  0  0  0  0  0  0  0  0  0  0
  -18.7224  -25.7238   23.7273 C   0  0  0  0  0  0  0  0  0  0  0  0
  -18.5005  -28.1932   23.4529 C   0  0  0  0  0  0  0  0  0  0  0  0
  -19.4899  -25.7686   17.1273 C   0  0  0  0  0  0  0  0  0  0  0  0
  -28.0854  -23.8932   19.7760 C   0  0  0  0  0  0  0  0  0  1  0  0
  -30.8244  -20.3814   23.4754 C   0  0  1  0  0  0  0  0  0  0  0  0
  -20.0735  -26.9147   21.9419 C   0  0  1  0  0  0  0  0  0  0  0  0
  -17.9240  -25.6859   19.0715 C   0  0  2  0  0  0  0  0  0  0  0  0
  -19.4955  -27.0144   23.3819 C   0  0  0  0  0  0  0  0  0  0  0  0
  -25.8681  -11.5718   20.3122 N   0  0  0  0  0  0  0  0  0  0  0  0
  -31.9946  -18.7106   22.0894 N   0  0  0  0  0  0  0  0  0  0  0  0
  -26.2265  -12.8584   20.1627 N   0  0  0  0  0  0  0  0  0  0  0  0
  -22.2123  -27.9347   21.2285 N   0  0  0  0  0  0  0  0  0  0  0  0
  -29.9393  -13.7126   20.4253 N   0  0  0  0  0  0  0  0  0  0  0  0
  -25.4189  -15.0776   20.3456 N   0  0  0  0  0  0  0  0  0  0  0  0
  -21.8515  -12.5703   21.5220 N   0  0  0  0  0  0  0  0  0  0  0  0
  -29.9939  -15.8172   21.4883 N   0  0  0  0  0  0  0  0  0  0  0  0
  -24.5757  -30.4717   22.3574 N   0  0  0  0  0  0  0  0  0  0  0  0
  -19.0642  -26.7335   20.9042 N   0  0  0  0  0  0  0  0  0  0  0  0
  -30.2022  -21.4630   22.6356 N   0  3  0  0  0  0  0  0  0  0  0  0
  -18.3337  -25.0908   17.7681 N   0  3  0  0  0  0  0  0  0  0  0  0
  -22.5976  -14.7162   21.2097 O   0  0  0  0  0  0  0  0  0  0  0  0
  -23.5703  -28.5909   23.2926 O   0  0  0  0  0  0  0  0  0  0  0  0
  -20.3038  -29.2394   21.5308 O   0  0  0  0  0  0  0  0  0  0  0  0
  -19.9093  -24.7407   20.0727 O   0  0  0  0  0  0  0  0  0  0  0  0
  -31.8080  -15.0627   20.2548 O   0  0  0  0  0  0  0  0  0  0  0  0
  -31.7211  -17.4540   21.5624 O   0  0  0  0  0  0  0  0  0  0  0  0
  -21.6671   -7.0071   21.7490 O   0  0  0  0  0  0  0  0  0  0  0  0
  -26.6604  -23.8888   19.8508 O   0  0  0  0  0  0  0  0  0  1  0  0
  -18.5865   -6.9004   26.3209 F   0  0  0  0  0  0  0  0  0  0  0  0
  -22.1106   -5.1140   23.7142 F   0  0  0  0  0  0  0  0  0  0  0  0
  -28.1435  -21.5662   19.8502 F   0  0  0  0  0  0  0  0  0  0  0  0
  1  2  1  0  0  0  0
  1  5  2  0  0  0  0
  2  6  2  0  0  0  0
  3  8  2  0  0  0  0
  3 16  1  0  0  0  0
  4  9  1  0  0  0  0
  4 16  2  0  0  0  0
  5 18  1  0  0  0  0
  6 20  1  0  0  0  0
  7 10  2  0  0  0  0
  7 19  1  0  0  0  0
  8 22  1  0  0  0  0
  9 22  2  0  0  0  0
 10 23  1  0  0  0  0
 11 12  2  0  0  0  0
 11 24  1  0  0  0  0
 12 25  1  0  0  0  0
 13 21  1  0  0  0  0
 13 23  2  0  0  0  0
 14 25  2  0  0  0  0
 14 26  1  0  0  0  0
 15 28  1  0  0  0  0
 15 30  2  0  0  0  0
 16 27  1  0  0  0  0
 17 27  1  0  0  0  0
 17 29  2  0  0  0  0
 17 31  1  0  0  0  0
 18 20  2  0  0  0  0
 18 36  1  0  0  0  0
 19 21  2  0  0  0  0
 19 37  1  0  0  0  0
 20 49  1  0  0  0  0
 21 38  1  0  0  0  0
 22 82  1  0  0  0  0
 23 83  1  0  0  0  0
 24 26  2  0  0  0  0
 24 82  1  0  0  0  0
 25 84  1  0  0  0  0
 26 85  1  0  0  0  0
 27 64  2  0  0  0  0
 28 60  1  0  0  0  0
 28 65  2  0  0  0  0
 29 66  1  0  0  0  0
 29 69  1  0  0  0  0
 30 71  1  0  0  0  0
 30 81  1  0  0  0  0
 31 70  1  0  0  0  0
 31 76  2  0  0  0  0
 32 50  1  0  0  0  0
 32 72  1  0  0  0  0
 32 77  2  0  0  0  0
 33 61  1  0  0  0  0
 33 67  1  0  0  0  0
 33 78  2  0  0  0  0
 34 62  1  0  0  0  0
 34 73  1  0  0  0  0
 34 79  2  0  0  0  0
 35 68  1  0  0  0  0
 35 71  1  0  0  0  0
 35 80  2  0  0  0  0
 36 39  1  0  0  0  0
 37 50  1  0  0  0  0
 38 67  1  0  0  0  0
 39 41  1  0  0  0  0
 40 42  1  0  0  0  0
 40 45  1  0  0  0  0
 41 49  1  0  0  0  0
 42 51  1  0  0  0  0
 43 47  1  0  0  0  0
 43 52  1  0  0  0  0
 44 48  1  0  0  0  0
 44 52  1  0  0  0  0
 45 68  1  0  0  0  0
 46 51  1  0  0  0  0
 46 68  1  0  0  0  0
 47 74  1  0  0  0  0
 48 74  1  0  0  0  0
 49 72  1  0  0  0  0
 50 67  1  0  0  0  0
 51 66  1  0  0  0  0
 52 59  1  0  0  0  0
 52 86  1  0  0  0  0
 53 60  1  0  0  0  0
 54 62  1  0  0  0  0
 55 63  1  0  0  0  0
 56 63  1  0  0  0  0
 57 63  1  0  0  0  0
 58 75  1  0  0  0  0
 59 83  1  0  0  0  0
 60 74  1  0  0  0  0
 61 63  1  0  0  0  0
 61 73  1  0  0  0  0
 62 75  1  0  0  0  0
 64 66  1  0  0  0  0
 65 81  1  0  0  0  0
M  CHG  2  74   1  75   1
M  ISO  4  35 100  59 101  71 100  83 101
M  END
> <Batch ID>
0159

> <Smiles>
CNC(C)C(=O)NC(C(=O)N1Cc2cc([101O:1][101CH2:1]C3(F)CCN(C(C)c4cc([100NH:0][100C:0](=O)N5CCCC(n6nc(-c7ccc(Oc8ccc(F)cc8F)cc7)c(C(N)=O)c6N)C5)on4)CC3)ccc2CC1C(=O)NC1CCCc2ccccc21)C(C)(C)C

> <Shape>
0.371

> <Color>
0.206

> <Negative vol penalty>
0.000

$$$$

  -OEChem-04052303473D

 90 98  0     1  0  0  0  0  0999 V2000
  -30.1145  -34.9522   23.7411 C   0  0  0  0  0  0  0  0  0  0  0  0
  -29.7515  -33.6093   23.7605 C   0  0  0  0  0  0  0  0  0  0  0  0
  -23.5373   -8.9232   20.2053 C   0  0  0  0  0  0  0  0  0  0  0  0
  -23.1465  -10.5651   21.9340 C   0  0  0  0  0  0  0  0  0  0  0  0
  -29.1315  -35.9396   23.7931 C   0  0  0  0  0  0  0  0  0  0  0  0
  -28.4053  -33.2531   23.8331 C   0  0  0  0  0  0  0  0  0  0  0  0
  -27.2003  -29.5438   20.6029 C   0  0  0  0  0  0  0  0  0  0  0  0
  -22.7417   -8.0081   20.8946 C   0  0  0  0  0  0  0  0  0  0  0  0
  -22.3510   -9.6500   22.6234 C   0  0  0  0  0  0  0  0  0  0  0  0
  -27.5560  -28.2449   20.9635 C   0  0  0  0  0  0  0  0  0  0  0  0
  -23.0540   -5.9422   23.5515 C   0  0  0  0  0  0  0  0  0  0  0  0
  -23.5301   -4.6373   23.6785 C   0  0  0  0  0  0  0  0  0  0  0  0
  -28.3365  -19.8758   19.6152 C   0  0  0  0  0  0  0  0  0  0  0  0
  -25.2950  -27.8363   21.6986 C   0  0  0  0  0  0  0  0  0  0  0  0
  -30.4094  -18.1820   20.4007 C   0  0  0  0  0  0  0  0  0  0  0  0
  -21.5843   -3.8133   22.5072 C   0  0  0  0  0  0  0  0  0  0  0  0
  -23.7397  -10.2018   20.7250 C   0  0  0  0  0  0  0  0  0  0  0  0
  -29.4919  -20.4069   20.1882 C   0  0  0  0  0  0  0  0  0  0  0  0
  -24.1436  -12.0737   19.0396 C   0  0  0  0  0  0  0  0  0  0  0  0
  -27.7721  -35.5953   23.8567 C   0  0  0  0  0  0  0  0  0  0  0  0
  -25.8897  -30.0030   20.7978 C   0  0  0  0  0  0  0  0  0  0  0  0
  -27.4033  -34.2368   23.8874 C   0  0  0  0  0  0  0  0  0  0  0  0
  -24.9246  -29.1406   21.3372 C   0  0  0  0  0  0  0  0  0  0  0  0
  -29.2539  -17.6508   19.8277 C   0  0  0  0  0  0  0  0  0  0  0  0
  -22.1485   -8.3714   22.1036 C   0  0  0  0  0  0  0  0  0  0  0  0
  -26.6040  -27.3919   21.5142 C   0  0  0  0  0  0  0  0  0  0  0  0
  -21.8430   -6.1826   22.9024 C   0  0  0  0  0  0  0  0  0  0  0  0
  -22.7953   -3.5728   23.1563 C   0  0  0  0  0  0  0  0  0  0  0  0
  -28.2174  -18.4977   19.4350 C   0  0  0  0  0  0  0  0  0  0  0  0
  -30.5284  -19.5601   20.5809 C   0  0  0  0  0  0  0  0  0  0  0  0
  -21.1081   -5.1182   22.3802 C   0  0  0  0  0  0  0  0  0  0  0  0
  -24.5619  -11.1473   20.0137 C   0  0  0  0  0  0  0  0  0  0  0  0
  -25.2929  -12.7317   18.6756 C   0  0  0  0  0  0  0  0  0  0  0  0
  -29.6152  -21.8662   20.3779 C   0  0  0  0  0  0  0  0  0  0  0  0
  -22.8333  -12.3175   18.5112 C   0  0  0  0  0  0  0  0  0  0  0  0
  -24.5568  -32.3170   22.5219 C   0  0  0  0  0  0  0  0  0  0  0  0
  -28.5272  -24.3011   22.0930 C   0  0  0  0  0  0  0  0  0  0  0  0
  -21.8699  -31.4090   20.9475 C   0  0  0  0  0  0  0  0  0  0  0  0
  -20.1843  -28.9651   19.2645 C   0  0  0  0  0  0  0  0  0  0  0  0
  -30.0721  -15.2731   19.9807 C   0  0  0  0  0  0  0  0  0  0  0  0
  -26.7480  -36.6978   23.9589 C   0  0  0  0  0  0  0  0  0  0  0  0
  -25.5155  -31.3983   20.3788 C   0  0  0  0  0  0  0  0  0  0  0  0
  -23.4991  -29.5785   21.5482 C   0  0  0  0  0  0  0  0  0  0  0  0
  -25.3245  -36.2369   23.6566 C   0  0  0  0  0  0  0  0  0  0  0  0
  -30.1403  -11.7223   19.7272 C   0  0  0  0  0  0  0  0  0  0  0  0
  -25.0162  -34.9375   24.3938 C   0  0  0  0  0  0  0  0  0  0  0  0
  -28.6607  -11.3324   19.6990 C   0  0  0  0  0  0  0  0  0  0  0  0
  -30.3975  -12.9049   20.6594 C   0  0  0  0  0  0  0  0  0  0  0  0
  -28.0808  -13.6955   20.3820 C   0  0  0  0  0  0  0  0  0  0  0  0
  -25.9522  -33.8106   23.9406 C   0  0  1  0  0  0  0  0  0  0  0  0
  -24.2781  -31.9265   21.0980 C   0  0  1  0  0  0  0  0  0  0  0  0
  -27.7624  -12.5503   19.4069 C   0  0  2  0  0  0  0  0  0  0  0  0
  -17.9930  -28.5065   18.1307 C   0  0  0  0  0  0  0  0  0  0  0  0
  -20.5272  -31.1062   23.6706 C   0  0  0  0  0  0  0  0  0  0  0  0
  -18.7255  -29.7720   22.5561 C   0  0  0  0  0  0  0  0  0  0  0  0
  -19.0921  -32.1535   21.9106 C   0  0  0  0  0  0  0  0  0  0  0  0
  -32.1459  -23.3409   23.1185 C   0  0  0  0  0  0  0  0  0  0  0  0
  -21.5014  -28.4814   16.6587 C   0  0  0  0  0  0  0  0  0  0  0  0
  -28.3034  -25.7334   21.6465 C   0  0  0  0  0  0  0  0  0  1  0  0
  -29.9352  -23.7571   21.9333 C   0  0  1  0  0  0  0  0  0  0  0  0
  -20.7721  -30.4036   21.1983 C   0  0  1  0  0  0  0  0  0  0  0  0
  -19.4244  -28.9875   17.9505 C   0  0  2  0  0  0  0  0  0  0  0  0
  -19.8065  -30.8509   22.3318 C   0  0  0  0  0  0  0  0  0  0  0  0
  -30.7488  -23.9228   23.2061 C   0  0  0  0  0  0  0  0  0  0  0  0
  -25.8745  -11.2083   20.2532 N   0  0  0  0  0  0  0  0  0  0  0  0
  -26.2910  -12.1807   19.4243 N   0  0  0  0  0  0  0  0  0  0  0  0
  -23.1838  -30.9540   21.1284 N   0  0  0  0  0  0  0  0  0  0  0  0
  -29.5139  -14.0226   20.3205 N   0  0  0  0  0  0  0  0  0  0  0  0
  -25.5371  -13.7220   17.7912 N   0  0  0  0  0  0  0  0  0  0  0  0
  -21.7642  -11.5517   18.9959 N   0  0  0  0  0  0  0  0  0  0  0  0
  -29.1357  -16.2506   19.6456 N   0  0  0  0  0  0  0  0  0  0  0  0
  -29.7831  -22.3389   21.6217 N   0  0  0  0  0  0  0  0  0  0  0  0
  -25.5304  -33.2880   22.6587 N   0  0  0  0  0  0  0  0  0  0  0  0
  -20.1210  -30.1809   19.9119 N   0  0  0  0  0  0  0  0  0  0  0  0
  -29.5510  -22.6476   19.2997 N   0  3  0  0  0  0  0  0  0  0  0  0
  -20.0933  -28.1083   16.9503 N   0  3  0  0  0  0  0  0  0  0  0  0
  -22.6196  -13.1775   17.6233 O   0  0  0  0  0  0  0  0  0  0  0  0
  -23.9336  -31.7784   23.4292 O   0  0  0  0  0  0  0  0  0  0  0  0
  -27.6164  -23.6255   22.5728 O   0  0  0  0  0  0  0  0  0  0  0  0
  -21.5730  -32.5538   20.5970 O   0  0  0  0  0  0  0  0  0  0  0  0
  -20.7719  -27.9677   19.6772 O   0  0  0  0  0  0  0  0  0  0  0  0
  -31.2921  -15.4552   19.9602 O   0  0  0  0  0  0  0  0  0  0  0  0
  -21.3720   -7.4788   22.7764 O   0  0  0  0  0  0  0  0  0  0  0  0
  -26.9487  -26.1238   21.8676 O   0  0  0  0  0  0  0  0  0  1  0  0
  -23.2534   -2.3199   23.2770 F   0  0  0  0  0  0  0  0  0  0  0  0
  -27.1021  -17.9980   18.8834 F   0  0  0  0  0  0  0  0  0  0  0  0
  -31.6426  -20.0611   21.1327 F   0  0  0  0  0  0  0  0  0  0  0  0
  -19.9446   -5.3431   21.7546 F   0  0  0  0  0  0  0  0  0  0  0  0
  -30.8587  -25.2445   23.5035 F   0  0  0  0  0  0  0  0  0  0  0  0
  -30.1002  -23.3450   24.2499 F   0  0  0  0  0  0  0  0  0  0  0  0
  1  2  1  0  0  0  0
  1  5  2  0  0  0  0
  2  6  2  0  0  0  0
  3  8  2  0  0  0  0
  3 17  1  0  0  0  0
  4  9  1  0  0  0  0
  4 17  2  0  0  0  0
  5 20  1  0  0  0  0
  6 22  1  0  0  0  0
  7 10  2  0  0  0  0
  7 21  1  0  0  0  0
  8 25  1  0  0  0  0
  9 25  2  0  0  0  0
 10 26  1  0  0  0  0
 11 12  2  0  0  0  0
 11 27  1  0  0  0  0
 12 28  1  0  0  0  0
 13 18  1  0  0  0  0
 13 29  2  0  0  0  0
 14 23  1  0  0  0  0
 14 26  2  0  0  0  0
 15 24  2  0  0  0  0
 15 30  1  0  0  0  0
 16 28  2  0  0  0  0
 16 31  1  0  0  0  0
 17 32  1  0  0  0  0
 18 30  2  0  0  0  0
 18 34  1  0  0  0  0
 19 32  1  0  0  0  0
 19 33  2  0  0  0  0
 19 35  1  0  0  0  0
 20 22  2  0  0  0  0
 20 41  1  0  0  0  0
 21 23  2  0  0  0  0
 21 42  1  0  0  0  0
 22 50  1  0  0  0  0
 23 43  1  0  0  0  0
 24 29  1  0  0  0  0
 24 71  1  0  0  0  0
 25 83  1  0  0  0  0
 26 84  1  0  0  0  0
 27 31  2  0  0  0  0
 27 83  1  0  0  0  0
 28 85  1  0  0  0  0
 29 86  1  0  0  0  0
 30 87  1  0  0  0  0
 31 88  1  0  0  0  0
 32 65  2  0  0  0  0
 33 66  1  0  0  0  0
 33 69  1  0  0  0  0
 34 72  1  0  0  0  0
 34 75  2  0  0  0  0
 35 70  1  0  0  0  0
 35 77  2  0  0  0  0
 36 51  1  0  0  0  0
 36 73  1  0  0  0  0
 36 78  2  0  0  0  0
 37 59  1  0  0  0  0
 37 60  1  0  0  0  0
 37 79  2  0  0  0  0
 38 61  1  0  0  0  0
 38 67  1  0  0  0  0
 38 80  2  0  0  0  0
 39 62  1  0  0  0  0
 39 74  1  0  0  0  0
 39 81  2  0  0  0  0
 40 68  1  0  0  0  0
 40 71  1  0  0  0  0
 40 82  2  0  0  0  0
 41 44  1  0  0  0  0
 42 51  1  0  0  0  0
 43 67  1  0  0  0  0
 44 46  1  0  0  0  0
 45 47  1  0  0  0  0
 45 48  1  0  0  0  0
 46 50  1  0  0  0  0
 47 52  1  0  0  0  0
 48 68  1  0  0  0  0
 49 52  1  0  0  0  0
 49 68  1  0  0  0  0
 50 73  1  0  0  0  0
 51 67  1  0  0  0  0
 52 66  1  0  0  0  0
 53 62  1  0  0  0  0
 54 63  1  0  0  0  0
 55 63  1  0  0  0  0
 56 63  1  0  0  0  0
 57 64  1  0  0  0  0
 58 76  1  0  0  0  0
 59 84  1  0  0  0  0
 60 64  1  0  0  0  0
 60 72  1  0  0  0  0
 61 63  1  0  0  0  0
 61 74  1  0  0  0  0
 62 76  1  0  0  0  0
 64 89  1  0  0  0  0
 64 90  1  0  0  0  0
 65 66  1  0  0  0  0
M  CHG  2  75   1  76   1
M  ISO  4  40 100  59 101  71 100  84 101
M  END
> <Batch ID>
0159

> <Smiles>
CNC(C)C(=O)NC(C(=O)N1Cc2cc([101O:1][101CH2:1]C(=O)C(NC(=N)c3cc(F)c([100NH:0][100C:0](=O)N4CCCC(n5nc(-c6ccc(Oc7ccc(F)cc7F)cc6)c(C(N)=O)c5N)C4)cc3F)C(C)(F)F)ccc2CC1C(=O)NC1CCCc2ccccc21)C(C)(C)C

> <Shape>
0.304

> <Color>
0.102

> <Negative vol penalty>
0.000

$$$$

  -OEChem-04052303473D

 83 91  0     1  0  0  0  0  0999 V2000
  -17.4191  -22.6710   26.4030 C   0  0  0  0  0  0  0  0  0  0  0  0
  -18.7620  -22.3665   26.6010 C   0  0  0  0  0  0  0  0  0  0  0  0
  -22.8567  -10.0377   20.0750 C   0  0  0  0  0  0  0  0  0  0  0  0
  -23.6239  -10.0689   22.3658 C   0  0  0  0  0  0  0  0  0  0  0  0
  -17.0392  -23.4790   25.3321 C   0  0  0  0  0  0  0  0  0  0  0  0
  -19.7259  -22.8690   25.7275 C   0  0  0  0  0  0  0  0  0  0  0  0
  -25.4322  -24.5889   27.1364 C   0  0  0  0  0  0  0  0  0  0  0  0
  -22.0291   -8.9536   20.3670 C   0  0  0  0  0  0  0  0  0  0  0  0
  -22.7962   -8.9848   22.6577 C   0  0  0  0  0  0  0  0  0  0  0  0
  -26.6618  -23.9415   27.0239 C   0  0  0  0  0  0  0  0  0  0  0  0
  -22.8340   -5.6326   22.2192 C   0  0  0  0  0  0  0  0  0  0  0  0
  -23.3733   -4.5900   22.9726 C   0  0  0  0  0  0  0  0  0  0  0  0
  -27.0440  -25.0466   24.9140 C   0  0  0  0  0  0  0  0  0  0  0  0
  -32.1382  -17.1016   21.5559 C   0  0  0  0  0  0  0  0  0  0  0  0
  -21.6964   -4.9520   24.6738 C   0  0  0  0  0  0  0  0  0  0  0  0
  -23.6542  -10.5954   21.0744 C   0  0  0  0  0  0  0  0  0  0  0  0
  -24.1848  -13.0817   20.8638 C   0  0  0  0  0  0  0  0  0  0  0  0
  -17.9998  -23.9995   24.4507 C   0  0  0  0  0  0  0  0  0  0  0  0
  -24.9937  -25.4633   26.1315 C   0  0  0  0  0  0  0  0  0  0  0  0
  -19.3584  -23.6836   24.6430 C   0  0  0  0  0  0  0  0  0  0  0  0
  -25.8096  -25.7059   25.0173 C   0  0  0  0  0  0  0  0  0  0  0  0
  -32.3232  -18.3731   22.1717 C   0  0  0  0  0  0  0  0  0  0  0  0
  -21.9988   -8.4271   21.6583 C   0  0  0  0  0  0  0  0  0  0  0  0
  -27.4666  -24.1680   25.9112 C   0  0  0  0  0  0  0  0  0  0  0  0
  -21.7259   -6.3350   22.6931 C   0  0  0  0  0  0  0  0  0  0  0  0
  -22.8045   -4.2496   24.1999 C   0  0  0  0  0  0  0  0  0  0  0  0
  -21.1572   -5.9947   23.9204 C   0  0  0  0  0  0  0  0  0  0  0  0
  -24.5098  -11.7150   20.7734 C   0  0  0  0  0  0  0  0  0  0  0  0
  -25.3288  -13.7333   20.4727 C   0  0  0  0  0  0  0  0  0  0  0  0
  -30.8848  -16.5854   21.8009 C   0  0  0  0  0  0  0  0  0  0  0  0
  -31.2038  -18.7803   22.8639 C   0  0  0  0  0  0  0  0  0  0  0  0
  -28.6992  -22.3228   25.1719 C   0  0  0  0  0  0  0  0  0  1  0  0
  -22.9584  -13.7064   21.2656 C   0  0  0  0  0  0  0  0  0  0  0  0
  -29.8117  -21.6018   24.9967 C   0  0  0  0  0  0  0  0  0  0  0  0
  -29.7754  -20.2790   24.2940 C   0  0  0  0  0  0  0  0  0  0  0  0
  -22.5203  -25.5269   24.1360 C   0  0  0  0  0  0  0  0  0  0  0  0
  -23.7088  -28.4475   23.3745 C   0  0  0  0  0  0  0  0  0  0  0  0
  -26.4017  -30.5411   23.2657 C   0  0  0  0  0  0  0  0  0  0  0  0
  -30.8589  -14.3692   20.6033 C   0  0  0  0  0  0  0  0  0  0  0  0
  -17.5365  -24.8297   23.2799 C   0  0  0  0  0  0  0  0  0  0  0  0
  -23.6767  -26.1744   26.2806 C   0  0  0  0  0  0  0  0  0  0  0  0
  -25.3938  -26.6509   23.9206 C   0  0  0  0  0  0  0  0  0  0  0  0
  -18.6565  -25.6289   22.6187 C   0  0  0  0  0  0  0  0  0  0  0  0
  -29.5566  -11.9638   18.3241 C   0  0  0  0  0  0  0  0  0  0  0  0
  -19.8825  -24.7485   22.3987 C   0  0  0  0  0  0  0  0  0  0  0  0
  -28.1008  -11.7970   18.7655 C   0  0  0  0  0  0  0  0  0  0  0  0
  -30.4910  -12.1654   19.5157 C   0  0  0  0  0  0  0  0  0  0  0  0
  -28.6495  -13.0802   20.8725 C   0  0  0  0  0  0  0  0  0  0  0  0
  -20.4358  -24.2300   23.7316 C   0  0  1  0  0  0  0  0  0  0  0  0
  -23.0999  -26.6488   24.9504 C   0  0  1  0  0  0  0  0  0  0  0  0
  -27.6618  -12.9391   19.7028 C   0  0  2  0  0  0  0  0  0  0  0  0
  -27.0722  -32.8529   22.5561 C   0  0  0  0  0  0  0  0  0  0  0  0
  -23.7006  -27.5520   20.4577 C   0  0  0  0  0  0  0  0  0  0  0  0
  -25.2240  -29.4694   19.9373 C   0  0  0  0  0  0  0  0  0  0  0  0
  -22.9351  -29.9037   20.8291 C   0  0  0  0  0  0  0  0  0  0  0  0
  -27.1752  -31.2886   26.0229 C   0  0  0  0  0  0  0  0  0  0  0  0
  -24.7079  -28.9661   22.3686 C   0  0  1  0  0  0  0  0  0  0  0  0
  -26.5731  -31.9853   23.7010 C   0  0  2  0  0  0  0  0  0  0  0  0
  -24.1492  -28.9534   20.9177 C   0  0  0  0  0  0  0  0  0  0  0  0
  -25.7622  -11.5092   20.3573 N   0  0  0  0  0  0  0  0  0  0  0  0
  -26.2342  -12.7553   20.1827 N   0  0  0  0  0  0  0  0  0  0  0  0
  -24.0947  -27.3174   24.1092 N   0  0  0  0  0  0  0  0  0  0  0  0
  -30.0147  -13.2659   20.3564 N   0  0  0  0  0  0  0  0  0  0  0  0
  -33.4675  -19.0915   22.0830 N   0  0  0  0  0  0  0  0  0  0  0  0
  -25.6386  -15.0417   20.3518 N   0  0  0  0  0  0  0  0  0  0  0  0
  -21.8822  -12.8887   21.6363 N   0  0  0  0  0  0  0  0  0  0  0  0
  -30.9427  -19.9554   23.6147 N   0  0  0  0  0  0  0  0  0  0  0  0
  -30.2863  -15.3689   21.3890 N   0  0  0  0  0  0  0  0  0  0  0  0
  -21.1898  -25.2667   24.4033 N   0  0  0  0  0  0  0  0  0  0  0  0
  -25.1153  -30.2851   22.8406 N   0  0  0  0  0  0  0  0  0  0  0  0
  -31.0481  -22.0963   25.4704 N   0  3  0  0  0  0  0  0  0  0  0  0
  -27.5522  -32.0760   24.8208 N   0  3  0  0  0  0  0  0  0  0  0  0
  -22.8157  -14.9526   21.2792 O   0  0  0  0  0  0  0  0  0  0  0  0
  -28.7603  -19.5894   24.3641 O   0  0  0  0  0  0  0  0  0  0  0  0
  -23.2275  -24.9418   23.3241 O   0  0  0  0  0  0  0  0  0  0  0  0
  -22.6288  -29.0282   23.5087 O   0  0  0  0  0  0  0  0  0  0  0  0
  -27.3184  -29.7230   23.2959 O   0  0  0  0  0  0  0  0  0  0  0  0
  -31.9957  -14.4355   20.1286 O   0  0  0  0  0  0  0  0  0  0  0  0
  -21.1912   -7.3694   21.9436 O   0  0  0  0  0  0  0  0  0  0  0  0
  -28.6670  -23.5368   25.7987 O   0  0  0  0  0  0  0  0  0  1  0  0
  -23.3216   -3.2474   24.9226 F   0  0  0  0  0  0  0  0  0  0  0  0
  -20.0919   -6.6650   24.3804 F   0  0  0  0  0  0  0  0  0  0  0  0
  -29.9371  -17.6319   22.7698 S   0  0  0  0  0  0  0  0  0  0  0  0
  1  2  1  0  0  0  0
  1  5  2  0  0  0  0
  2  6  2  0  0  0  0
  3  8  2  0  0  0  0
  3 16  1  0  0  0  0
  4  9  1  0  0  0  0
  4 16  2  0  0  0  0
  5 18  1  0  0  0  0
  6 20  1  0  0  0  0
  7 10  2  0  0  0  0
  7 19  1  0  0  0  0
  8 23  1  0  0  0  0
  9 23  2  0  0  0  0
 10 24  1  0  0  0  0
 11 12  2  0  0  0  0
 11 25  1  0  0  0  0
 12 26  1  0  0  0  0
 13 21  1  0  0  0  0
 13 24  2  0  0  0  0
 14 22  1  0  0  0  0
 14 30  2  0  0  0  0
 15 26  2  0  0  0  0
 15 27  1  0  0  0  0
 16 28  1  0  0  0  0
 17 28  1  0  0  0  0
 17 29  2  0  0  0  0
 17 33  1  0  0  0  0
 18 20  2  0  0  0  0
 18 40  1  0  0  0  0
 19 21  2  0  0  0  0
 19 41  1  0  0  0  0
 20 49  1  0  0  0  0
 21 42  1  0  0  0  0
 22 31  2  0  0  0  0
 22 64  1  0  0  0  0
 23 79  1  0  0  0  0
 24 80  1  0  0  0  0
 25 27  2  0  0  0  0
 25 79  1  0  0  0  0
 26 81  1  0  0  0  0
 27 82  1  0  0  0  0
 28 60  2  0  0  0  0
 29 61  1  0  0  0  0
 29 65  1  0  0  0  0
 30 68  1  0  0  0  0
 30 83  1  0  0  0  0
 31 67  1  0  0  0  0
 31 83  1  0  0  0  0
 32 34  2  0  0  0  0
 32 80  1  0  0  0  0
 33 66  1  0  0  0  0
 33 73  2  0  0  0  0
 34 35  1  0  0  0  0
 34 71  1  0  0  0  0
 35 67  1  0  0  0  0
 35 74  2  0  0  0  0
 36 50  1  0  0  0  0
 36 69  1  0  0  0  0
 36 75  2  0  0  0  0
 37 57  1  0  0  0  0
 37 62  1  0  0  0  0
 37 76  2  0  0  0  0
 38 58  1  0  0  0  0
 38 70  1  0  0  0  0
 38 77  2  0  0  0  0
 39 63  1  0  0  0  0
 39 68  1  0  0  0  0
 39 78  2  0  0  0  0
 40 43  1  0  0  0  0
 41 50  1  0  0  0  0
 42 62  1  0  0  0  0
 43 45  1  0  0  0  0
 44 46  1  0  0  0  0
 44 47  1  0  0  0  0
 45 49  1  0  0  0  0
 46 51  1  0  0  0  0
 47 63  1  0  0  0  0
 48 51  1  0  0  0  0
 48 63  1  0  0  0  0
 49 69  1  0  0  0  0
 50 62  1  0  0  0  0
 51 61  1  0  0  0  0
 52 58  1  0  0  0  0
 53 59  1  0  0  0  0
 54 59  1  0  0  0  0
 55 59  1  0  0  0  0
 56 72  1  0  0  0  0
 57 59  1  0  0  0  0
 57 70  1  0  0  0  0
 58 72  1  0  0  0  0
 60 61  1  0  0  0  0
M  CHG  2  71   1  72   1
M  ISO  4  32 101  39 100  68 100  80 101
M  END
> <Batch ID>
0159

> <Smiles>
CNC(C)C(=O)NC(C(=O)N1Cc2cc([101O:1][101CH2:1]C(=N)C(=O)Nc3sc([100NH:0][100C:0](=O)N4CCCC(n5nc(-c6ccc(Oc7ccc(F)cc7F)cc6)c(C(N)=O)c5N)C4)cc3N)ccc2CC1C(=O)NC1CCCc2ccccc21)C(C)(C)C

> <Shape>
0.272

> <Color>
0.184

> <Negative vol penalty>
0.000

$$$$

  -OEChem-04052303473D

 86 94  0     1  0  0  0  0  0999 V2000
  -28.3876  -37.1613   21.5584 C   0  0  0  0  0  0  0  0  0  0  0  0
  -28.8149  -35.8693   21.2696 C   0  0  0  0  0  0  0  0  0  0  0  0
  -24.3380   -9.7855   22.0968 C   0  0  0  0  0  0  0  0  0  0  0  0
  -23.5697  -10.5709   19.9450 C   0  0  0  0  0  0  0  0  0  0  0  0
  -27.3262  -37.3626   22.4398 C   0  0  0  0  0  0  0  0  0  0  0  0
  -28.1817  -34.7777   21.8628 C   0  0  0  0  0  0  0  0  0  0  0  0
  -27.2107  -29.2754   19.3553 C   0  0  0  0  0  0  0  0  0  0  0  0
  -23.0301   -9.4418   22.4383 C   0  0  0  0  0  0  0  0  0  0  0  0
  -22.2618  -10.2271   20.2866 C   0  0  0  0  0  0  0  0  0  0  0  0
  -27.8897  -28.0625   19.4630 C   0  0  0  0  0  0  0  0  0  0  0  0
  -19.9446   -8.0247   23.7372 C   0  0  0  0  0  0  0  0  0  0  0  0
  -19.7366   -6.7844   24.3404 C   0  0  0  0  0  0  0  0  0  0  0  0
  -26.5272  -19.4689   15.8821 C   0  0  0  0  0  0  0  0  0  0  0  0
  -26.8200  -17.1252   16.3901 C   0  0  0  0  0  0  0  0  0  0  0  0
  -26.3420  -27.3549   21.1727 C   0  0  0  0  0  0  0  0  0  0  0  0
  -27.7644  -18.8044   17.8480 C   0  0  0  0  0  0  0  0  0  0  0  0
  -20.6572   -5.6843   22.3964 C   0  0  0  0  0  0  0  0  0  0  0  0
  -24.6079  -10.3502   20.8501 C   0  0  0  0  0  0  0  0  0  0  0  0
  -26.3101  -18.1279   15.5654 C   0  0  0  0  0  0  0  0  0  0  0  0
  -26.9131   -9.8915   19.8586 C   0  0  0  0  0  0  0  0  0  0  0  0
  -26.6734  -36.2725   23.0366 C   0  0  0  0  0  0  0  0  0  0  0  0
  -26.0970  -29.5419   20.1646 C   0  0  0  0  0  0  0  0  0  0  0  0
  -27.1114  -34.9646   22.7540 C   0  0  0  0  0  0  0  0  0  0  0  0
  -25.6491  -28.5709   21.0715 C   0  0  0  0  0  0  0  0  0  0  0  0
  -27.2544  -19.8071   17.0233 C   0  0  0  0  0  0  0  0  0  0  0  0
  -27.5472  -17.4634   17.5314 C   0  0  0  0  0  0  0  0  0  0  0  0
  -21.9920   -9.6625   21.5333 C   0  0  0  0  0  0  0  0  0  0  0  0
  -27.4572  -27.1031   20.3739 C   0  0  0  0  0  0  0  0  0  0  0  0
  -20.5089   -8.0948   22.4634 C   0  0  0  0  0  0  0  0  0  0  0  0
  -20.0929   -5.6142   23.6701 C   0  0  0  0  0  0  0  0  0  0  0  0
  -20.8652   -6.9247   21.7930 C   0  0  0  0  0  0  0  0  0  0  0  0
  -25.9587  -10.7060   20.4969 C   0  0  0  0  0  0  0  0  0  0  0  0
  -28.0270  -10.6878   19.7506 C   0  0  0  0  0  0  0  0  0  0  0  0
  -25.5517  -17.7754   14.3757 C   0  0  0  0  0  0  0  0  0  0  0  0
  -28.1779  -23.1729   18.4153 C   0  0  0  0  0  0  0  0  0  0  0  0
  -26.8027   -8.5362   19.4039 C   0  0  0  0  0  0  0  0  0  0  0  0
  -28.7800  -23.9248   19.3510 C   0  0  0  0  0  0  0  0  0  0  0  0
  -28.1721  -21.6760   18.4353 C   0  0  0  0  0  0  0  0  0  0  0  0
  -25.4049  -31.7081   22.3855 C   0  0  0  0  0  0  0  0  0  0  0  0
  -22.4685  -30.3362   22.2528 C   0  0  0  0  0  0  0  0  0  0  0  0
  -20.5840  -27.5921   21.5008 C   0  0  0  0  0  0  0  0  0  0  0  0
  -28.8073  -16.6082   19.5382 C   0  0  0  0  0  0  0  0  0  0  0  0
  -25.5615  -36.5417   24.0195 C   0  0  0  0  0  0  0  0  0  0  0  0
  -25.3594  -30.8445   20.0173 C   0  0  0  0  0  0  0  0  0  0  0  0
  -24.4466  -28.7999   21.9489 C   0  0  0  0  0  0  0  0  0  0  0  0
  -24.7009  -35.3162   24.3162 C   0  0  0  0  0  0  0  0  0  0  0  0
  -30.2303  -14.3563   21.9006 C   0  0  0  0  0  0  0  0  0  0  0  0
  -25.5800  -34.0989   24.5845 C   0  0  0  0  0  0  0  0  0  0  0  0
  -29.3871  -13.0884   21.7463 C   0  0  0  0  0  0  0  0  0  0  0  0
  -29.3874  -15.6206   21.7435 C   0  0  0  0  0  0  0  0  0  0  0  0
  -27.7427  -14.4159   20.3603 C   0  0  0  0  0  0  0  0  0  0  0  0
  -26.4339  -33.7539   23.3584 C   0  0  1  0  0  0  0  0  0  0  0  0
  -24.5473  -31.2145   21.2547 C   0  0  1  0  0  0  0  0  0  0  0  0
  -28.5600  -13.1165   20.4461 C   0  0  2  0  0  0  0  0  0  0  0  0
  -18.2172  -26.7587   21.5333 C   0  0  0  0  0  0  0  0  0  0  0  0
  -22.6440  -29.9628   25.2760 C   0  0  0  0  0  0  0  0  0  0  0  0
  -20.7584  -28.3238   25.1130 C   0  0  0  0  0  0  0  0  0  0  0  0
  -20.4039  -30.7008   24.4444 C   0  0  0  0  0  0  0  0  0  0  0  0
  -20.5627  -27.1903   18.5687 C   0  0  0  0  0  0  0  0  0  0  0  0
  -28.7604  -25.4242   19.3069 C   0  0  0  0  0  0  0  0  0  1  0  0
  -21.7905  -29.1907   22.9649 C   0  0  1  0  0  0  0  0  0  0  0  0
  -19.2982  -27.4395   20.7083 C   0  0  2  0  0  0  0  0  0  0  0  0
  -21.4231  -29.5407   24.4345 C   0  0  0  0  0  0  0  0  0  0  0  0
  -26.4255  -11.9261   20.7751 N   0  0  0  0  0  0  0  0  0  0  0  0
  -25.3096  -16.5492   14.0177 N   0  0  0  0  0  0  0  0  0  0  0  0
  -27.6854  -11.8842   20.3094 N   0  0  0  0  0  0  0  0  0  0  0  0
  -23.7628  -30.0917   21.7724 N   0  0  0  0  0  0  0  0  0  0  0  0
  -28.6350  -15.5788   20.4876 N   0  0  0  0  0  0  0  0  0  0  0  0
  -29.2555  -10.4744   19.2333 N   0  0  0  0  0  0  0  0  0  0  0  0
  -25.5872   -7.8648   19.5936 N   0  0  0  0  0  0  0  0  0  0  0  0
  -27.4751  -21.1692   17.3450 N   0  0  0  0  0  0  0  0  0  0  0  0
  -28.0648  -16.4446   18.3692 N   0  0  0  0  0  0  0  0  0  0  0  0
  -25.6362  -33.0703   22.3631 N   0  0  0  0  0  0  0  0  0  0  0  0
  -20.6497  -28.8135   22.1373 N   0  0  0  0  0  0  0  0  0  0  0  0
  -19.5381  -26.6247   19.4838 N   0  3  0  0  0  0  0  0  0  0  0  0
  -27.7590   -7.9330   18.8606 O   0  0  0  0  0  0  0  0  0  0  0  0
  -28.7277  -21.0425   19.3242 O   0  0  0  0  0  0  0  0  0  0  0  0
  -25.8244  -30.9123   23.2176 O   0  0  0  0  0  0  0  0  0  0  0  0
  -21.8689  -31.4062   22.1212 O   0  0  0  0  0  0  0  0  0  0  0  0
  -21.4424  -26.7141   21.5532 O   0  0  0  0  0  0  0  0  0  0  0  0
  -29.5788  -17.5505   19.7354 O   0  0  0  0  0  0  0  0  0  0  0  0
  -29.4422  -23.3711   20.4287 O   0  0  0  0  0  0  0  0  0  0  0  0
  -20.7156   -9.3270   21.8661 O   0  0  0  0  0  0  0  0  0  0  0  0
  -28.1185  -25.9187   20.4815 O   0  0  0  0  0  0  0  0  0  1  0  0
  -19.8944   -4.4233   24.2502 F   0  0  0  0  0  0  0  0  0  0  0  0
  -21.4088   -6.9858   20.5697 F   0  0  0  0  0  0  0  0  0  0  0  0
  1  2  1  0  0  0  0
  1  5  2  0  0  0  0
  2  6  2  0  0  0  0
  3  8  2  0  0  0  0
  3 18  1  0  0  0  0
  4  9  1  0  0  0  0
  4 18  2  0  0  0  0
  5 21  1  0  0  0  0
  6 23  1  0  0  0  0
  7 10  2  0  0  0  0
  7 22  1  0  0  0  0
  8 27  1  0  0  0  0
  9 27  2  0  0  0  0
 10 28  1  0  0  0  0
 11 12  2  0  0  0  0
 11 29  1  0  0  0  0
 12 30  1  0  0  0  0
 13 19  2  0  0  0  0
 13 25  1  0  0  0  0
 14 19  1  0  0  0  0
 14 26  2  0  0  0  0
 15 24  1  0  0  0  0
 15 28  2  0  0  0  0
 16 25  2  0  0  0  0
 16 26  1  0  0  0  0
 17 30  2  0  0  0  0
 17 31  1  0  0  0  0
 18 32  1  0  0  0  0
 19 34  1  0  0  0  0
 20 32  1  0  0  0  0
 20 33  2  0  0  0  0
 20 36  1  0  0  0  0
 21 23  2  0  0  0  0
 21 43  1  0  0  0  0
 22 24  2  0  0  0  0
 22 44  1  0  0  0  0
 23 52  1  0  0  0  0
 24 45  1  0  0  0  0
 25 71  1  0  0  0  0
 26 72  1  0  0  0  0
 27 83  1  0  0  0  0
 28 84  1  0  0  0  0
 29 31  2  0  0  0  0
 29 83  1  0  0  0  0
 30 85  1  0  0  0  0
 31 86  1  0  0  0  0
 32 64  2  0  0  0  0
 33 66  1  0  0  0  0
 33 69  1  0  0  0  0
 34 65  2  0  0  0  0
 35 37  2  0  0  0  0
 35 38  1  0  0  0  0
 36 70  1  0  0  0  0
 36 76  2  0  0  0  0
 37 60  1  0  0  0  0
 37 82  1  0  0  0  0
 38 71  1  0  0  0  0
 38 77  2  0  0  0  0
 39 53  1  0  0  0  0
 39 73  1  0  0  0  0
 39 78  2  0  0  0  0
 40 61  1  0  0  0  0
 40 67  1  0  0  0  0
 40 79  2  0  0  0  0
 41 62  1  0  0  0  0
 41 74  1  0  0  0  0
 41 80  2  0  0  0  0
 42 68  1  0  0  0  0
 42 72  1  0  0  0  0
 42 81  2  0  0  0  0
 43 46  1  0  0  0  0
 44 53  1  0  0  0  0
 45 67  1  0  0  0  0
 46 48  1  0  0  0  0
 47 49  1  0  0  0  0
 47 50  1  0  0  0  0
 48 52  1  0  0  0  0
 49 54  1  0  0  0  0
 50 68  1  0  0  0  0
 51 54  1  0  0  0  0
 51 68  1  0  0  0  0
 52 73  1  0  0  0  0
 53 67  1  0  0  0  0
 54 66  1  0  0  0  0
 55 62  1  0  0  0  0
 56 63  1  0  0  0  0
 57 63  1  0  0  0  0
 58 63  1  0  0  0  0
 59 75  1  0  0  0  0
 60 84  1  0  0  0  0
 61 63  1  0  0  0  0
 61 74  1  0  0  0  0
 62 75  1  0  0  0  0
 64 66  1  0  0  0  0
M  CHG  1  75   1
M  ISO  4  42 100  60 101  72 100  84 101
M  END
> <Batch ID>
0159

> <Smiles>
CNC(C)C(=O)NC(C(=O)N1Cc2cc([101O:1][101CH2:1]C(=O)CC(=O)Nc3cc(C=N)cc([100NH:0][100C:0](=O)N4CCCC(n5nc(-c6ccc(Oc7ccc(F)cc7F)cc6)c(C(N)=O)c5N)C4)c3)ccc2CC1C(=O)NC1CCCc2ccccc21)C(C)(C)C

> <Shape>
0.304

> <Color>
0.080

> <Negative vol penalty>
0.000

$$$$

  -OEChem-04052303473D

 83 91  0     1  0  0  0  0  0999 V2000
  -17.2106  -23.5605   23.7925 C   0  0  0  0  0  0  0  0  0  0  0  0
  -18.4887  -23.1033   24.0969 C   0  0  0  0  0  0  0  0  0  0  0  0
  -22.9418   -9.9675   20.0159 C   0  0  0  0  0  0  0  0  0  0  0  0
  -23.6846  -10.0090   22.3145 C   0  0  0  0  0  0  0  0  0  0  0  0
  -17.0462  -24.7710   23.1204 C   0  0  0  0  0  0  0  0  0  0  0  0
  -19.6034  -23.8557   23.7284 C   0  0  0  0  0  0  0  0  0  0  0  0
  -24.8653  -24.3948   26.8151 C   0  0  0  0  0  0  0  0  0  0  0  0
  -22.1574   -8.8470   20.2896 C   0  0  0  0  0  0  0  0  0  0  0  0
  -22.9002   -8.8885   22.5882 C   0  0  0  0  0  0  0  0  0  0  0  0
  -26.1026  -23.7673   26.6765 C   0  0  0  0  0  0  0  0  0  0  0  0
  -23.0824   -5.5451   22.1197 C   0  0  0  0  0  0  0  0  0  0  0  0
  -23.6574   -4.5188   22.8691 C   0  0  0  0  0  0  0  0  0  0  0  0
  -26.8932  -25.6297   25.3629 C   0  0  0  0  0  0  0  0  0  0  0  0
  -21.9504   -4.7944   24.5565 C   0  0  0  0  0  0  0  0  0  0  0  0
  -23.7054  -10.5484   21.0284 C   0  0  0  0  0  0  0  0  0  0  0  0
  -24.1336  -13.0566   20.8457 C   0  0  0  0  0  0  0  0  0  0  0  0
  -18.1591  -25.5434   22.7521 C   0  0  0  0  0  0  0  0  0  0  0  0
  -24.6287  -25.6416   26.2184 C   0  0  0  0  0  0  0  0  0  0  0  0
  -19.4538  -25.0771   23.0496 C   0  0  0  0  0  0  0  0  0  0  0  0
  -25.6529  -26.2721   25.4975 C   0  0  0  0  0  0  0  0  0  0  0  0
  -22.1366   -8.3075   21.5757 C   0  0  0  0  0  0  0  0  0  0  0  0
  -27.1158  -24.3834   25.9479 C   0  0  0  0  0  0  0  0  0  0  0  0
  -21.9413   -6.1961   22.5887 C   0  0  0  0  0  0  0  0  0  0  0  0
  -23.0915   -4.1434   24.0874 C   0  0  0  0  0  0  0  0  0  0  0  0
  -21.3754   -5.8207   23.8071 C   0  0  0  0  0  0  0  0  0  0  0  0
  -24.5163  -11.7055   20.7462 C   0  0  0  0  0  0  0  0  0  0  0  0
  -31.9561  -18.5834   22.1668 C   0  0  0  0  0  0  0  0  0  0  0  0
  -25.2531  -13.7591   20.4721 C   0  0  0  0  0  0  0  0  0  0  0  0
  -30.8622  -19.0069   22.8921 C   0  0  0  0  0  0  0  0  0  0  0  0
  -30.6606  -16.8410   21.8575 C   0  0  0  0  0  0  0  0  0  0  0  0
  -28.3609  -22.5473   25.2069 C   0  0  0  0  0  0  0  0  0  1  0  0
  -22.8783  -13.6258   21.2406 C   0  0  0  0  0  0  0  0  0  0  0  0
  -29.4812  -21.8440   25.0115 C   0  0  0  0  0  0  0  0  0  0  0  0
  -29.4493  -20.5068   24.3362 C   0  0  0  0  0  0  0  0  0  0  0  0
  -22.6201  -26.7244   24.0055 C   0  0  0  0  0  0  0  0  0  0  0  0
  -23.8898  -29.5971   24.8164 C   0  0  0  0  0  0  0  0  0  0  0  0
  -26.5107  -31.3366   26.1401 C   0  0  0  0  0  0  0  0  0  0  0  0
  -30.7502  -14.6239   20.6646 C   0  0  0  0  0  0  0  0  0  0  0  0
  -17.9333  -26.8223   21.9852 C   0  0  0  0  0  0  0  0  0  0  0  0
  -23.2973  -26.3176   26.3997 C   0  0  0  0  0  0  0  0  0  0  0  0
  -25.4563  -27.6198   24.8544 C   0  0  0  0  0  0  0  0  0  0  0  0
  -19.1518  -27.7416   21.9616 C   0  0  0  0  0  0  0  0  0  0  0  0
  -29.5720  -12.1879   18.3505 C   0  0  0  0  0  0  0  0  0  0  0  0
  -20.4118  -26.9494   21.6275 C   0  0  0  0  0  0  0  0  0  0  0  0
  -28.1201  -11.9564   18.7757 C   0  0  0  0  0  0  0  0  0  0  0  0
  -30.4855  -12.4171   19.5533 C   0  0  0  0  0  0  0  0  0  0  0  0
  -28.5941  -13.2413   20.8997 C   0  0  0  0  0  0  0  0  0  0  0  0
  -20.6867  -25.8769   22.6886 C   0  0  1  0  0  0  0  0  0  0  0  0
  -22.9996  -27.3508   25.3175 C   0  0  1  0  0  0  0  0  0  0  0  0
  -27.6246  -13.0703   19.7188 C   0  0  2  0  0  0  0  0  0  0  0  0
  -33.2149  -19.3326   21.9751 C   0  0  0  0  0  0  0  0  0  0  0  0
  -27.2734  -33.6755   26.6352 C   0  0  0  0  0  0  0  0  0  0  0  0
  -24.4996  -30.0222   21.8571 C   0  0  0  0  0  0  0  0  0  0  0  0
  -26.0644  -31.8624   22.5154 C   0  0  0  0  0  0  0  0  0  0  0  0
  -23.6336  -32.0454   23.0448 C   0  0  0  0  0  0  0  0  0  0  0  0
  -26.6851  -30.7891   29.0433 C   0  0  0  0  0  0  0  0  0  0  0  0
  -25.0660  -30.4175   24.3449 C   0  0  1  0  0  0  0  0  0  0  0  0
  -26.5636  -32.4443   27.1767 C   0  0  2  0  0  0  0  0  0  0  0  0
  -24.8193  -31.0606   22.9509 C   0  0  0  0  0  0  0  0  0  0  0  0
  -25.7802  -11.5562   20.3409 N   0  0  0  0  0  0  0  0  0  0  0  0
  -31.8425  -17.3414   21.5731 N   0  0  0  0  0  0  0  0  0  0  0  0
  -26.2014  -12.8225   20.1824 N   0  0  0  0  0  0  0  0  0  0  0  0
  -24.1350  -28.2374   25.0548 N   0  0  0  0  0  0  0  0  0  0  0  0
  -29.9554  -13.4888   20.3991 N   0  0  0  0  0  0  0  0  0  0  0  0
  -25.5091  -15.0803   20.3663 N   0  0  0  0  0  0  0  0  0  0  0  0
  -21.8336  -12.7604   21.5930 N   0  0  0  0  0  0  0  0  0  0  0  0
  -30.6013  -20.1918   23.6275 N   0  0  0  0  0  0  0  0  0  0  0  0
  -30.1287  -15.5914   21.4534 N   0  0  0  0  0  0  0  0  0  0  0  0
  -21.2678  -26.4739   23.8719 N   0  0  0  0  0  0  0  0  0  0  0  0
  -25.3444  -31.3794   25.4058 N   0  0  0  0  0  0  0  0  0  0  0  0
  -30.7217  -22.3711   25.4369 N   0  3  0  0  0  0  0  0  0  0  0  0
  -27.2886  -31.9809   28.3934 N   0  3  0  0  0  0  0  0  0  0  0  0
  -22.6835  -14.8647   21.2641 O   0  0  0  0  0  0  0  0  0  0  0  0
  -28.4504  -19.7998   24.4512 O   0  0  0  0  0  0  0  0  0  0  0  0
  -23.4897  -26.4872   23.1753 O   0  0  0  0  0  0  0  0  0  0  0  0
  -22.7955  -30.1441   24.9745 O   0  0  0  0  0  0  0  0  0  0  0  0
  -27.4153  -30.5176   25.9936 O   0  0  0  0  0  0  0  0  0  0  0  0
  -31.8878  -14.7422   20.2020 O   0  0  0  0  0  0  0  0  0  0  0  0
  -21.3711   -7.2143   21.8432 O   0  0  0  0  0  0  0  0  0  0  0  0
  -28.3242  -23.7728   25.8106 O   0  0  0  0  0  0  0  0  0  1  0  0
  -23.6429   -3.1568   24.8062 F   0  0  0  0  0  0  0  0  0  0  0  0
  -20.2785   -6.4416   24.2623 F   0  0  0  0  0  0  0  0  0  0  0  0
  -29.6349  -17.8104   22.8338 S   0  0  0  0  0  0  0  0  0  0  0  0
  1  2  1  0  0  0  0
  1  5  2  0  0  0  0
  2  6  2  0  0  0  0
  3  8  2  0  0  0  0
  3 15  1  0  0  0  0
  4  9  1  0  0  0  0
  4 15  2  0  0  0  0
  5 17  1  0  0  0  0
  6 19  1  0  0  0  0
  7 10  2  0  0  0  0
  7 18  1  0  0  0  0
  8 21  1  0  0  0  0
  9 21  2  0  0  0  0
 10 22  1  0  0  0  0
 11 12  2  0  0  0  0
 11 23  1  0  0  0  0
 12 24  1  0  0  0  0
 13 20  1  0  0  0  0
 13 22  2  0  0  0  0
 14 24  2  0  0  0  0
 14 25  1  0  0  0  0
 15 26  1  0  0  0  0
 16 26  1  0  0  0  0
 16 28  2  0  0  0  0
 16 32  1  0  0  0  0
 17 19  2  0  0  0  0
 17 39  1  0  0  0  0
 18 20  2  0  0  0  0
 18 40  1  0  0  0  0
 19 48  1  0  0  0  0
 20 41  1  0  0  0  0
 21 79  1  0  0  0  0
 22 80  1  0  0  0  0
 23 25  2  0  0  0  0
 23 79  1  0  0  0  0
 24 81  1  0  0  0  0
 25 82  1  0  0  0  0
 26 60  2  0  0  0  0
 27 29  2  0  0  0  0
 27 51  1  0  0  0  0
 27 61  1  0  0  0  0
 28 62  1  0  0  0  0
 28 65  1  0  0  0  0
 29 67  1  0  0  0  0
 29 83  1  0  0  0  0
 30 61  2  0  0  0  0
 30 68  1  0  0  0  0
 30 83  1  0  0  0  0
 31 33  2  0  0  0  0
 31 80  1  0  0  0  0
 32 66  1  0  0  0  0
 32 73  2  0  0  0  0
 33 34  1  0  0  0  0
 33 71  1  0  0  0  0
 34 67  1  0  0  0  0
 34 74  2  0  0  0  0
 35 49  1  0  0  0  0
 35 69  1  0  0  0  0
 35 75  2  0  0  0  0
 36 57  1  0  0  0  0
 36 63  1  0  0  0  0
 36 76  2  0  0  0  0
 37 58  1  0  0  0  0
 37 70  1  0  0  0  0
 37 77  2  0  0  0  0
 38 64  1  0  0  0  0
 38 68  1  0  0  0  0
 38 78  2  0  0  0  0
 39 42  1  0  0  0  0
 40 49  1  0  0  0  0
 41 63  1  0  0  0  0
 42 44  1  0  0  0  0
 43 45  1  0  0  0  0
 43 46  1  0  0  0  0
 44 48  1  0  0  0  0
 45 50  1  0  0  0  0
 46 64  1  0  0  0  0
 47 50  1  0  0  0  0
 47 64  1  0  0  0  0
 48 69  1  0  0  0  0
 49 63  1  0  0  0  0
 50 62  1  0  0  0  0
 52 58  1  0  0  0  0
 53 59  1  0  0  0  0
 54 59  1  0  0  0  0
 55 59  1  0  0  0  0
 56 72  1  0  0  0  0
 57 59  1  0  0  0  0
 57 70  1  0  0  0  0
 58 72  1  0  0  0  0
 60 62  1  0  0  0  0
M  CHG  2  71   1  72   1
M  ISO  4  31 101  38 100  68 100  80 101
M  END
> <Batch ID>
0159

> <Smiles>
CNC(C)C(=O)NC(C(=O)N1Cc2cc([101O:1][101CH2:1]C(=N)C(=O)Nc3sc([100NH:0][100C:0](=O)N4CCCC(n5nc(-c6ccc(Oc7ccc(F)cc7F)cc6)c(C(N)=O)c5N)C4)nc3C)ccc2CC1C(=O)NC1CCCc2ccccc21)C(C)(C)C

> <Shape>
0.293

> <Color>
0.189

> <Negative vol penalty>
0.000

$$$$

  -OEChem-04052303473D

 84 92  0     1  0  0  0  0  0999 V2000
  -22.0538  -20.0232   36.7205 C   0  0  0  0  0  0  0  0  0  0  0  0
  -22.8892  -19.7544   35.6411 C   0  0  0  0  0  0  0  0  0  0  0  0
  -23.1908   -9.8190   19.9317 C   0  0  0  0  0  0  0  0  0  0  0  0
  -23.5689   -9.9993   22.3111 C   0  0  0  0  0  0  0  0  0  0  0  0
  -21.1004  -19.0848   37.1133 C   0  0  0  0  0  0  0  0  0  0  0  0
  -22.7725  -18.5464   34.9544 C   0  0  0  0  0  0  0  0  0  0  0  0
  -22.8826  -19.1506   29.9277 C   0  0  0  0  0  0  0  0  0  0  0  0
  -22.4247   -8.6722   20.1403 C   0  0  0  0  0  0  0  0  0  0  0  0
  -22.8028   -8.8525   22.5198 C   0  0  0  0  0  0  0  0  0  0  0  0
  -24.1291  -19.3568   29.3383 C   0  0  0  0  0  0  0  0  0  0  0  0
  -23.2044   -5.5059   22.2556 C   0  0  0  0  0  0  0  0  0  0  0  0
  -23.7029   -4.5447   23.1348 C   0  0  0  0  0  0  0  0  0  0  0  0
  -24.1999  -17.0345   28.6896 C   0  0  0  0  0  0  0  0  0  0  0  0
  -32.6330  -15.3735   24.0395 C   0  0  0  0  0  0  0  0  0  0  0  0
  -21.7462   -4.8043   24.5280 C   0  0  0  0  0  0  0  0  0  0  0  0
  -23.7630  -10.4825   21.0170 C   0  0  0  0  0  0  0  0  0  0  0  0
  -24.1013  -12.9992   20.7734 C   0  0  0  0  0  0  0  0  0  0  0  0
  -20.9654  -17.8688   36.4250 C   0  0  0  0  0  0  0  0  0  0  0  0
  -22.2892  -17.8801   29.9119 C   0  0  0  0  0  0  0  0  0  0  0  0
  -21.8173  -17.5903   35.3391 C   0  0  0  0  0  0  0  0  0  0  0  0
  -22.9446  -16.8154   29.2772 C   0  0  0  0  0  0  0  0  0  0  0  0
  -32.1586  -16.5911   24.5832 C   0  0  0  0  0  0  0  0  0  0  0  0
  -22.2306   -8.1890   21.4344 C   0  0  0  0  0  0  0  0  0  0  0  0
  -24.7893  -18.2981   28.7217 C   0  0  0  0  0  0  0  0  0  0  0  0
  -21.9768   -6.1165   22.5126 C   0  0  0  0  0  0  0  0  0  0  0  0
  -22.9738   -4.1938   24.2710 C   0  0  0  0  0  0  0  0  0  0  0  0
  -21.2477   -5.7656   23.6488 C   0  0  0  0  0  0  0  0  0  0  0  0
  -24.5549  -11.6669   20.8021 C   0  0  0  0  0  0  0  0  0  0  0  0
  -31.6569  -14.4373   24.2898 C   0  0  0  0  0  0  0  0  0  0  0  0
  -25.2324  -13.7421   20.5382 C   0  0  0  0  0  0  0  0  0  0  0  0
  -30.9261  -16.3122   25.1267 C   0  0  0  0  0  0  0  0  0  0  0  0
  -22.7760  -13.5189   20.9442 C   0  0  0  0  0  0  0  0  0  0  0  0
  -21.3937  -15.7949   32.1376 C   0  0  0  0  0  0  0  0  0  0  0  0
  -27.9796  -17.7411   26.9592 C   0  0  0  0  0  0  0  0  0  0  0  0
  -20.1796  -14.1916   29.5924 C   0  0  0  0  0  0  0  0  0  0  0  0
  -20.2690  -13.5943   26.2335 C   0  0  0  0  0  0  0  0  0  0  0  0
  -31.0473  -12.7530   21.5676 C   0  0  0  0  0  0  0  0  0  0  0  0
  -19.9520  -16.8654   36.9160 C   0  0  0  0  0  0  0  0  0  0  0  0
  -20.9320  -17.6803   30.5287 C   0  0  0  0  0  0  0  0  0  0  0  0
  -22.3413  -15.4367   29.2152 C   0  0  0  0  0  0  0  0  0  0  0  0
  -19.6406  -15.7680   35.9016 C   0  0  0  0  0  0  0  0  0  0  0  0
  -29.5199  -13.4703   18.4325 C   0  0  0  0  0  0  0  0  0  0  0  0
  -20.9293  -15.2120   35.3041 C   0  0  0  0  0  0  0  0  0  0  0  0
  -28.0333  -13.2096   18.6817 C   0  0  0  0  0  0  0  0  0  0  0  0
  -30.4013  -12.4810   19.1917 C   0  0  0  0  0  0  0  0  0  0  0  0
  -28.6478  -12.1379   20.8890 C   0  0  0  0  0  0  0  0  0  0  0  0
  -21.7045  -16.3017   34.5536 C   0  0  1  0  0  0  0  0  0  0  0  0
  -20.6540  -16.2278   30.9034 C   0  0  1  0  0  0  0  0  0  0  0  0
  -27.7202  -13.1455   20.1887 C   0  0  2  0  0  0  0  0  0  0  0  0
  -19.1805  -12.2041   24.4503 C   0  0  0  0  0  0  0  0  0  0  0  0
  -21.7505  -11.7528   30.5382 C   0  0  0  0  0  0  0  0  0  0  0  0
  -21.4024  -10.7382   28.2760 C   0  0  0  0  0  0  0  0  0  0  0  0
  -19.4386  -11.2537   29.7254 C   0  0  0  0  0  0  0  0  0  0  0  0
  -34.1085  -18.0247   23.9767 C   0  0  0  0  0  0  0  0  0  0  0  0
  -19.3135  -15.9918   24.7851 C   0  0  0  0  0  0  0  0  0  0  0  0
  -31.5373  -13.0042   23.9875 C   0  0  0  0  0  0  0  0  0  0  0  0
  -28.7406  -16.6153   26.2917 C   0  0  0  0  0  0  0  0  0  0  0  0
  -26.6262  -17.3674   27.5320 C   0  0  0  0  0  0  0  0  0  1  0  0
  -20.7060  -13.1501   28.6348 C   0  0  1  0  0  0  0  0  0  0  0  0
  -19.1665  -13.5318   25.1919 C   0  0  2  0  0  0  0  0  0  0  0  0
  -20.8369  -11.7491   29.2963 C   0  0  0  0  0  0  0  0  0  0  0  0
  -25.8715  -11.5660   20.6010 N   0  0  0  0  0  0  0  0  0  0  0  0
  -26.2548  -12.8444   20.4436 N   0  0  0  0  0  0  0  0  0  0  0  0
  -21.0154  -15.2902   29.8382 N   0  0  0  0  0  0  0  0  0  0  0  0
  -30.0547  -12.4698   20.6149 N   0  0  0  0  0  0  0  0  0  0  0  0
  -25.4421  -15.0690   20.4050 N   0  0  0  0  0  0  0  0  0  0  0  0
  -21.7294  -12.6165   21.1781 N   0  0  0  0  0  0  0  0  0  0  0  0
  -32.7912  -17.7820   24.5691 N   0  0  0  0  0  0  0  0  0  0  0  0
  -29.9987  -17.1042   25.7883 N   0  0  0  0  0  0  0  0  0  0  0  0
  -21.1052  -16.5481   33.2596 N   0  0  0  0  0  0  0  0  0  0  0  0
  -19.8252  -13.1821   27.4723 N   0  0  0  0  0  0  0  0  0  0  0  0
  -30.6330  -12.7275   22.8937 N   0  0  0  0  0  0  0  0  0  0  0  0
  -19.3320  -14.6281   24.1960 N   0  3  0  0  0  0  0  0  0  0  0  0
  -22.5246  -14.7459   20.8745 O   0  0  0  0  0  0  0  0  0  0  0  0
  -22.1677  -14.8468   32.0767 O   0  0  0  0  0  0  0  0  0  0  0  0
  -28.4201  -18.8872   27.0374 O   0  0  0  0  0  0  0  0  0  0  0  0
  -19.0647  -14.0398   30.0980 O   0  0  0  0  0  0  0  0  0  0  0  0
  -21.4107  -13.9677   25.9735 O   0  0  0  0  0  0  0  0  0  0  0  0
  -32.2148  -13.0148   21.2590 O   0  0  0  0  0  0  0  0  0  0  0  0
  -30.6130  -15.0014   24.9520 O   0  0  0  0  0  0  0  0  0  0  0  0
  -21.4829   -7.0701   21.6384 O   0  0  0  0  0  0  0  0  0  0  0  0
  -26.0064  -18.4965   28.1462 O   0  0  0  0  0  0  0  0  0  1  0  0
  -23.4519   -3.2695   25.1144 F   0  0  0  0  0  0  0  0  0  0  0  0
  -20.0673   -6.3479   23.9004 F   0  0  0  0  0  0  0  0  0  0  0  0
  1  2  1  0  0  0  0
  1  5  2  0  0  0  0
  2  6  2  0  0  0  0
  3  8  2  0  0  0  0
  3 16  1  0  0  0  0
  4  9  1  0  0  0  0
  4 16  2  0  0  0  0
  5 18  1  0  0  0  0
  6 20  1  0  0  0  0
  7 10  2  0  0  0  0
  7 19  1  0  0  0  0
  8 23  1  0  0  0  0
  9 23  2  0  0  0  0
 10 24  1  0  0  0  0
 11 12  2  0  0  0  0
 11 25  1  0  0  0  0
 12 26  1  0  0  0  0
 13 21  1  0  0  0  0
 13 24  2  0  0  0  0
 14 22  1  0  0  0  0
 14 29  2  0  0  0  0
 15 26  2  0  0  0  0
 15 27  1  0  0  0  0
 16 28  1  0  0  0  0
 17 28  1  0  0  0  0
 17 30  2  0  0  0  0
 17 32  1  0  0  0  0
 18 20  2  0  0  0  0
 18 38  1  0  0  0  0
 19 21  2  0  0  0  0
 19 39  1  0  0  0  0
 20 47  1  0  0  0  0
 21 40  1  0  0  0  0
 22 31  2  0  0  0  0
 22 68  1  0  0  0  0
 23 81  1  0  0  0  0
 24 82  1  0  0  0  0
 25 27  2  0  0  0  0
 25 81  1  0  0  0  0
 26 83  1  0  0  0  0
 27 84  1  0  0  0  0
 28 62  2  0  0  0  0
 29 56  1  0  0  0  0
 29 80  1  0  0  0  0
 30 63  1  0  0  0  0
 30 66  1  0  0  0  0
 31 69  1  0  0  0  0
 31 80  1  0  0  0  0
 32 67  1  0  0  0  0
 32 74  2  0  0  0  0
 33 48  1  0  0  0  0
 33 70  1  0  0  0  0
 33 75  2  0  0  0  0
 34 57  1  0  0  0  0
 34 58  1  0  0  0  0
 34 76  2  0  0  0  0
 35 59  1  0  0  0  0
 35 64  1  0  0  0  0
 35 77  2  0  0  0  0
 36 60  1  0  0  0  0
 36 71  1  0  0  0  0
 36 78  2  0  0  0  0
 37 65  1  0  0  0  0
 37 72  1  0  0  0  0
 37 79  2  0  0  0  0
 38 41  1  0  0  0  0
 39 48  1  0  0  0  0
 40 64  1  0  0  0  0
 41 43  1  0  0  0  0
 42 44  1  0  0  0  0
 42 45  1  0  0  0  0
 43 47  1  0  0  0  0
 44 49  1  0  0  0  0
 45 65  1  0  0  0  0
 46 49  1  0  0  0  0
 46 65  1  0  0  0  0
 47 70  1  0  0  0  0
 48 64  1  0  0  0  0
 49 63  1  0  0  0  0
 50 60  1  0  0  0  0
 51 61  1  0  0  0  0
 52 61  1  0  0  0  0
 53 61  1  0  0  0  0
 54 68  1  0  0  0  0
 55 73  1  0  0  0  0
 56 72  1  0  0  0  0
 57 69  1  0  0  0  0
 58 82  1  0  0  0  0
 59 61  1  0  0  0  0
 59 71  1  0  0  0  0
 60 73  1  0  0  0  0
 62 63  1  0  0  0  0
M  CHG  1  73   1
M  ISO  4  37 100  58 101  72 100  82 101
M  END
> <Batch ID>
0159

> <Smiles>
CNc1cc(C[100NH:0][100C:0](=O)N2CCCC(n3nc(-c4ccc(Oc5ccc(F)cc5F)cc4)c(C(N)=O)c3N)C2)oc1NCC(=O)[101CH2:1][101O:1]c1ccc2c(c1)CN(C(=O)C(NC(=O)C(C)NC)C(C)(C)C)C(C(=O)NC1CCCc3ccccc31)C2

> <Shape>
0.142

> <Color>
0.175

> <Negative vol penalty>
0.000

$$$$

  -OEChem-04052303473D

 82 90  0     1  0  0  0  0  0999 V2000
  -27.6791  -18.2754   13.9114 C   0  0  0  0  0  0  0  0  0  0  0  0
  -28.2749  -17.6417   14.9971 C   0  0  0  0  0  0  0  0  0  0  0  0
  -24.7346  -27.9488   20.2013 C   0  0  0  0  0  0  0  0  0  0  0  0
  -27.0958  -27.5696   19.8578 C   0  0  0  0  0  0  0  0  0  0  0  0
  -26.3796  -18.7689   14.0208 C   0  0  0  0  0  0  0  0  0  0  0  0
  -27.5720  -17.5020   16.1933 C   0  0  0  0  0  0  0  0  0  0  0  0
  -28.0138  -12.8631   18.1758 C   0  0  0  0  0  0  0  0  0  0  0  0
  -24.9744  -29.3157   20.3407 C   0  0  0  0  0  0  0  0  0  0  0  0
  -27.3356  -28.9366   19.9972 C   0  0  0  0  0  0  0  0  0  0  0  0
  -29.1998  -12.5677   18.8466 C   0  0  0  0  0  0  0  0  0  0  0  0
  -25.0109  -32.8620   21.1447 C   0  0  0  0  0  0  0  0  0  0  0  0
  -24.3768  -33.5297   22.1924 C   0  0  0  0  0  0  0  0  0  0  0  0
  -28.0979  -12.9620   20.9560 C   0  0  0  0  0  0  0  0  0  0  0  0
  -25.4806  -32.0833   23.7821 C   0  0  0  0  0  0  0  0  0  0  0  0
  -29.3244  -17.5474   21.9435 C   0  0  0  0  0  0  0  0  0  0  0  0
  -25.7954  -27.0757   19.9599 C   0  0  0  0  0  0  0  0  0  0  0  0
  -25.2637  -24.9668   18.6267 C   0  0  0  0  0  0  0  0  0  0  0  0
  -25.6569  -18.6266   15.2158 C   0  0  0  0  0  0  0  0  0  0  0  0
  -26.8619  -13.2214   18.8908 C   0  0  0  0  0  0  0  0  0  0  0  0
  -26.2622  -17.9952   16.3192 C   0  0  0  0  0  0  0  0  0  0  0  0
  -26.8979  -13.2590   20.2920 C   0  0  0  0  0  0  0  0  0  0  0  0
  -26.2748  -29.8097   20.2386 C   0  0  0  0  0  0  0  0  0  0  0  0
  -29.2427  -12.6199   20.2368 C   0  0  0  0  0  0  0  0  0  0  0  0
  -25.8798  -31.8049   21.4156 C   0  0  0  0  0  0  0  0  0  0  0  0
  -24.6117  -33.1404   23.5111 C   0  0  0  0  0  0  0  0  0  0  0  0
  -26.1146  -31.4156   22.7343 C   0  0  0  0  0  0  0  0  0  0  0  0
  -25.5484  -25.6634   19.8164 C   0  0  0  0  0  0  0  0  0  0  0  0
  -30.3412  -16.8779   21.2044 C   0  0  0  0  0  0  0  0  0  0  0  0
  -25.1122  -23.6601   19.0218 C   0  0  0  0  0  0  0  0  0  0  0  0
  -29.0686  -18.7813   21.3860 C   0  0  0  0  0  0  0  0  0  0  0  0
  -25.1467  -25.4570   17.2844 C   0  0  0  0  0  0  0  0  0  0  0  0
  -30.8459  -15.5326   21.5449 C   0  0  0  0  0  0  0  0  0  0  0  0
  -25.0199  -15.8084   19.0262 C   0  0  0  0  0  0  0  0  0  0  0  0
  -23.1856  -13.9258   20.9271 C   0  0  0  0  0  0  0  0  0  0  0  0
  -22.9908  -11.2383   23.0214 C   0  0  0  0  0  0  0  0  0  0  0  0
  -27.2643  -19.8445   22.7862 C   0  0  0  0  0  0  0  0  0  0  0  0
  -24.2722  -19.2181   15.3016 C   0  0  0  0  0  0  0  0  0  0  0  0
  -25.5833  -13.5112   18.1535 C   0  0  0  0  0  0  0  0  0  0  0  0
  -25.6833  -13.6184   21.1071 C   0  0  0  0  0  0  0  0  0  0  0  0
  -23.4595  -18.6971   16.4841 C   0  0  0  0  0  0  0  0  0  0  0  0
  -24.1107  -21.4108   23.3138 C   0  0  0  0  0  0  0  0  0  0  0  0
  -24.2984  -18.7158   17.7580 C   0  0  0  0  0  0  0  0  0  0  0  0
  -24.1304  -22.5994   22.3499 C   0  0  0  0  0  0  0  0  0  0  0  0
  -25.4865  -21.1542   23.9260 C   0  0  0  0  0  0  0  0  0  0  0  0
  -26.6002  -22.1994   21.9930 C   0  0  0  0  0  0  0  0  0  0  0  0
  -25.5230  -17.8024   17.6256 C   0  0  1  0  0  0  0  0  0  0  0  0
  -24.6090  -14.3646   18.9596 C   0  0  1  0  0  0  0  0  0  0  0  0
  -25.2512  -22.4563   21.3016 C   0  0  2  0  0  0  0  0  0  0  0  0
  -21.3658   -9.9696   24.4522 C   0  0  0  0  0  0  0  0  0  0  0  0
  -32.4114  -11.3409   20.0107 C   0  0  0  0  0  0  0  0  0  0  0  0
  -23.3079  -16.1388   23.0241 C   0  0  0  0  0  0  0  0  0  0  0  0
  -22.5157  -14.4781   24.7219 C   0  0  0  0  0  0  0  0  0  0  0  0
  -21.0659  -15.0587   22.7768 C   0  0  0  0  0  0  0  0  0  0  0  0
  -23.3838   -8.7516   21.4655 C   0  0  0  0  0  0  0  0  0  0  0  0
  -32.3841  -13.6755   21.0139 C   0  0  0  0  0  0  0  0  0  0  0  0
  -23.1246  -13.6383   22.4078 C   0  0  1  0  0  0  0  0  0  0  0  0
  -22.0155  -10.0766   23.0814 C   0  0  2  0  0  0  0  0  0  0  0  0
  -31.6209  -12.6255   20.2172 C   0  0  2  0  0  0  0  0  0  1  0  0
  -22.5271  -14.8235   23.2175 C   0  0  0  0  0  0  0  0  0  0  0  0
  -25.5765  -24.8653   20.8871 N   0  0  0  0  0  0  0  0  0  0  0  0
  -30.8508  -17.5161   20.1535 N   0  0  0  0  0  0  0  0  0  0  0  0
  -25.3074  -23.6538   20.3716 N   0  0  0  0  0  0  0  0  0  0  0  0
  -24.4586  -13.8995   20.3399 N   0  0  0  0  0  0  0  0  0  0  0  0
  -26.4968  -21.0252   22.8735 N   0  0  0  0  0  0  0  0  0  0  0  0
  -24.8323  -22.5274   18.3428 N   0  0  0  0  0  0  0  0  0  0  0  0
  -25.3325  -26.8271   17.0549 N   0  0  0  0  0  0  0  0  0  0  0  0
  -30.3198  -14.9133   22.6017 N   0  0  0  0  0  0  0  0  0  0  0  0
  -28.1701  -19.8228   21.7261 N   0  0  0  0  0  0  0  0  0  0  0  0
  -25.1401  -16.4166   17.7912 N   0  0  0  0  0  0  0  0  0  0  0  0
  -22.3894  -12.3863   22.5506 N   0  0  0  0  0  0  0  0  0  0  0  0
  -31.8066  -15.0019   20.7795 N   0  3  0  0  0  0  0  0  0  0  0  0
  -22.7186   -8.7946   22.7932 N   0  3  0  0  0  0  0  0  0  0  0  0
  -24.8689  -24.7050   16.3196 O   0  0  0  0  0  0  0  0  0  0  0  0
  -25.2122  -16.3322   20.1172 O   0  0  0  0  0  0  0  0  0  0  0  0
  -22.1415  -14.1578   20.3126 O   0  0  0  0  0  0  0  0  0  0  0  0
  -24.1675  -11.1384   23.3620 O   0  0  0  0  0  0  0  0  0  0  0  0
  -27.1091  -18.9097   23.5760 O   0  0  0  0  0  0  0  0  0  0  0  0
  -26.5091  -31.1436   20.3743 O   0  0  0  0  0  0  0  0  0  0  0  0
  -30.3992  -12.3326   20.8940 O   0  0  0  0  0  0  0  0  0  1  0  0
  -24.0039  -33.7826   24.5172 F   0  0  0  0  0  0  0  0  0  0  0  0
  -26.9492  -30.4016   23.0008 F   0  0  0  0  0  0  0  0  0  0  0  0
  -30.0910  -18.9887   20.0275 S   0  0  0  0  0  0  0  0  0  0  0  0
  1  2  1  0  0  0  0
  1  5  2  0  0  0  0
  2  6  2  0  0  0  0
  3  8  2  0  0  0  0
  3 16  1  0  0  0  0
  4  9  1  0  0  0  0
  4 16  2  0  0  0  0
  5 18  1  0  0  0  0
  6 20  1  0  0  0  0
  7 10  2  0  0  0  0
  7 19  1  0  0  0  0
  8 22  1  0  0  0  0
  9 22  2  0  0  0  0
 10 23  1  0  0  0  0
 11 12  2  0  0  0  0
 11 24  1  0  0  0  0
 12 25  1  0  0  0  0
 13 21  1  0  0  0  0
 13 23  2  0  0  0  0
 14 25  2  0  0  0  0
 14 26  1  0  0  0  0
 15 28  1  0  0  0  0
 15 30  2  0  0  0  0
 16 27  1  0  0  0  0
 17 27  1  0  0  0  0
 17 29  2  0  0  0  0
 17 31  1  0  0  0  0
 18 20  2  0  0  0  0
 18 37  1  0  0  0  0
 19 21  2  0  0  0  0
 19 38  1  0  0  0  0
 20 46  1  0  0  0  0
 21 39  1  0  0  0  0
 22 78  1  0  0  0  0
 23 79  1  0  0  0  0
 24 26  2  0  0  0  0
 24 78  1  0  0  0  0
 25 80  1  0  0  0  0
 26 81  1  0  0  0  0
 27 60  2  0  0  0  0
 28 32  1  0  0  0  0
 28 61  2  0  0  0  0
 29 62  1  0  0  0  0
 29 65  1  0  0  0  0
 30 68  1  0  0  0  0
 30 82  1  0  0  0  0
 31 66  1  0  0  0  0
 31 73  2  0  0  0  0
 32 67  1  0  0  0  0
 32 71  2  0  0  0  0
 33 47  1  0  0  0  0
 33 69  1  0  0  0  0
 33 74  2  0  0  0  0
 34 56  1  0  0  0  0
 34 63  1  0  0  0  0
 34 75  2  0  0  0  0
 35 57  1  0  0  0  0
 35 70  1  0  0  0  0
 35 76  2  0  0  0  0
 36 64  1  0  0  0  0
 36 68  1  0  0  0  0
 36 77  2  0  0  0  0
 37 40  1  0  0  0  0
 38 47  1  0  0  0  0
 39 63  1  0  0  0  0
 40 42  1  0  0  0  0
 41 43  1  0  0  0  0
 41 44  1  0  0  0  0
 42 46  1  0  0  0  0
 43 48  1  0  0  0  0
 44 64  1  0  0  0  0
 45 48  1  0  0  0  0
 45 64  1  0  0  0  0
 46 69  1  0  0  0  0
 47 63  1  0  0  0  0
 48 62  1  0  0  0  0
 49 57  1  0  0  0  0
 50 58  1  0  0  0  0
 51 59  1  0  0  0  0
 52 59  1  0  0  0  0
 53 59  1  0  0  0  0
 54 72  1  0  0  0  0
 55 58  1  0  0  0  0
 55 71  1  0  0  0  0
 56 59  1  0  0  0  0
 56 70  1  0  0  0  0
 57 72  1  0  0  0  0
 58 79  1  0  0  0  0
 60 62  1  0  0  0  0
 61 82  1  0  0  0  0
M  CHG  2  71   1  72   1
M  ISO  4  36 100  58 101  68 100  79 101
M  END
> <Batch ID>
0159

> <Smiles>
CNC(C)C(=O)NC(C(=O)N1Cc2cc([101O:1][101CH:1](C)CNC(=N)c3cc([100NH:0][100C:0](=O)N4CCCC(n5nc(-c6ccc(Oc7ccc(F)cc7F)cc6)c(C(N)=O)c5N)C4)sn3)ccc2CC1C(=O)NC1CCCc2ccccc21)C(C)(C)C

> <Shape>
0.224

> <Color>
0.067

> <Negative vol penalty>
0.000

$$$$

  -OEChem-04052303473D

 86 95  0     1  0  0  0  0  0999 V2000
  -21.5188  -32.0543   22.9411 C   0  0  0  0  0  0  0  0  0  0  0  0
  -22.5509  -31.4377   23.6412 C   0  0  0  0  0  0  0  0  0  0  0  0
  -29.0574  -17.7085   23.4837 C   0  0  0  0  0  0  0  0  0  0  0  0
  -22.9998   -9.9946   20.0197 C   0  0  0  0  0  0  0  0  0  0  0  0
  -24.0052   -9.8034   22.2083 C   0  0  0  0  0  0  0  0  0  0  0  0
  -20.8035  -31.3383   21.9821 C   0  0  0  0  0  0  0  0  0  0  0  0
  -22.8676  -30.1044   23.3834 C   0  0  0  0  0  0  0  0  0  0  0  0
  -28.4307  -27.5476   23.5271 C   0  0  0  0  0  0  0  0  0  0  0  0
  -28.8285  -18.7572   24.3819 C   0  0  0  0  0  0  0  0  0  0  0  0
  -22.2694   -8.8295   20.2534 C   0  0  0  0  0  0  0  0  0  0  0  0
  -23.2748   -8.6383   22.4420 C   0  0  0  0  0  0  0  0  0  0  0  0
  -29.0941  -26.7989   24.4983 C   0  0  0  0  0  0  0  0  0  0  0  0
  -20.1193   -7.8141   23.3276 C   0  0  0  0  0  0  0  0  0  0  0  0
  -19.4940   -7.6807   24.5673 C   0  0  0  0  0  0  0  0  0  0  0  0
  -28.3880  -24.7674   23.4059 C   0  0  0  0  0  0  0  0  0  0  0  0
  -30.9447  -19.7955   23.7918 C   0  0  0  0  0  0  0  0  0  0  0  0
  -20.7775   -5.6800   24.9995 C   0  0  0  0  0  0  0  0  0  0  0  0
  -32.0046  -17.3359   21.3539 C   0  0  0  0  0  0  0  0  0  0  0  0
  -30.2457  -17.6992   22.7265 C   0  0  0  0  0  0  0  0  0  0  0  0
  -23.8677  -10.4816   20.9971 C   0  0  0  0  0  0  0  0  0  0  0  0
  -24.2343  -13.0055   21.0501 C   0  0  0  0  0  0  0  0  0  0  0  0
  -21.1179  -29.9984   21.7057 C   0  0  0  0  0  0  0  0  0  0  0  0
  -27.7306  -26.9106   22.4925 C   0  0  0  0  0  0  0  0  0  0  0  0
  -22.1549  -29.3694   22.4208 C   0  0  0  0  0  0  0  0  0  0  0  0
  -27.7186  -25.5102   22.4214 C   0  0  0  0  0  0  0  0  0  0  0  0
  -31.1600  -18.7408   22.8977 C   0  0  0  0  0  0  0  0  0  0  0  0
  -29.7590  -19.7836   24.5320 C   0  0  0  0  0  0  0  0  0  0  0  0
  -30.7919  -16.8203   21.7497 C   0  0  0  0  0  0  0  0  0  0  0  0
  -22.4069   -8.1513   21.4646 C   0  0  0  0  0  0  0  0  0  0  0  0
  -29.0704  -25.4086   24.4394 C   0  0  0  0  0  0  0  0  0  0  0  0
  -21.0737   -6.8803   22.9238 C   0  0  0  0  0  0  0  0  0  0  0  0
  -19.8231   -6.6137   25.4032 C   0  0  0  0  0  0  0  0  0  0  0  0
  -21.4027   -5.8133   23.7598 C   0  0  0  0  0  0  0  0  0  0  0  0
  -24.6229  -11.6848   20.7560 C   0  0  0  0  0  0  0  0  0  0  0  0
  -25.2921  -13.7757   20.6323 C   0  0  0  0  0  0  0  0  0  0  0  0
  -23.0254  -13.4927   21.6475 C   0  0  0  0  0  0  0  0  0  0  0  0
  -24.6932  -26.8262   21.5594 C   0  0  0  0  0  0  0  0  0  0  0  0
  -25.9106  -25.1375   19.0717 C   0  0  0  0  0  0  0  0  0  0  0  0
  -30.3071  -21.9337   25.7266 C   0  0  0  0  0  0  0  0  0  0  0  0
  -28.4145  -23.1590   17.8623 C   0  0  0  0  0  0  0  0  0  0  0  0
  -30.7606  -14.7667   20.2910 C   0  0  0  0  0  0  0  0  0  0  0  0
  -20.2855  -29.2513   20.6938 C   0  0  0  0  0  0  0  0  0  0  0  0
  -27.0425  -27.7327   21.4375 C   0  0  0  0  0  0  0  0  0  0  0  0
  -26.9986  -24.7783   21.3195 C   0  0  0  0  0  0  0  0  0  0  0  0
  -20.9297  -27.9530   20.2146 C   0  0  0  0  0  0  0  0  0  0  0  0
  -29.3567  -12.5680   17.8677 C   0  0  0  0  0  0  0  0  0  0  0  0
  -21.4604  -27.1515   21.3990 C   0  0  0  0  0  0  0  0  0  0  0  0
  -27.9680  -12.2508   18.4273 C   0  0  0  0  0  0  0  0  0  0  0  0
  -30.4008  -12.6889   18.9763 C   0  0  0  0  0  0  0  0  0  0  0  0
  -28.6675  -13.3072   20.6141 C   0  0  0  0  0  0  0  0  0  0  0  0
  -22.5445  -27.9321   22.1520 C   0  0  1  0  0  0  0  0  0  0  0  0
  -25.9304  -26.9741   20.7198 C   0  0  1  0  0  0  0  0  0  0  0  0
  -27.5694  -13.2401   19.5401 C   0  0  2  0  0  0  0  0  0  0  0  0
  -29.1124  -21.9015   15.8059 C   0  0  0  0  0  0  0  0  0  0  0  0
  -23.8699  -22.9615   19.7127 C   0  0  0  0  0  0  0  0  0  0  0  0
  -25.2070  -21.3880   18.2969 C   0  0  0  0  0  0  0  0  0  0  0  0
  -24.1781  -23.4167   17.2730 C   0  0  0  0  0  0  0  0  0  0  0  0
  -28.1483  -24.6630   27.0997 C   0  0  0  0  0  0  0  0  0  0  0  0
  -30.8832  -24.7661   17.5764 C   0  0  0  0  0  0  0  0  0  0  0  0
  -29.6508  -22.8148   26.7753 C   0  0  0  0  0  0  0  0  0  0  0  0
  -26.1766  -23.6767   18.7995 C   0  0  1  0  0  0  0  0  0  0  0  0
  -29.2058  -23.2142   16.5680 C   0  0  2  0  0  0  0  0  0  0  0  0
  -24.8699  -22.8742   18.5425 C   0  0  0  0  0  0  0  0  0  0  0  0
  -25.8329  -11.6161   20.1947 N   0  0  0  0  0  0  0  0  0  0  0  0
  -32.2180  -18.4941   22.0521 N   0  0  0  0  0  0  0  0  0  0  0  0
  -26.2138  -12.9034   20.1326 N   0  0  0  0  0  0  0  0  0  0  0  0
  -26.3355  -25.6264   20.3152 N   0  0  0  0  0  0  0  0  0  0  0  0
  -29.9571  -13.6459   19.9922 N   0  0  0  0  0  0  0  0  0  0  0  0
  -25.5144  -15.1071   20.6473 N   0  0  0  0  0  0  0  0  0  0  0  0
  -22.0420  -12.5651   22.0174 N   0  0  0  0  0  0  0  0  0  0  0  0
  -29.5014  -20.8318   25.4475 N   0  0  0  0  0  0  0  0  0  0  0  0
  -30.2210  -15.6239   21.2494 N   0  0  0  0  0  0  0  0  0  0  0  0
  -23.8001  -27.8732   21.4346 N   0  0  0  0  0  0  0  0  0  0  0  0
  -27.1307  -23.6341   17.6966 N   0  0  0  0  0  0  0  0  0  0  0  0
  -28.7952  -23.7986   26.1150 N   0  0  2  0  0  0  0  0  0  1  0  0
  -30.6424  -23.4924   16.8507 N   0  3  0  0  0  0  0  0  0  0  0  0
  -22.8164  -14.7156   21.8323 O   0  0  0  0  0  0  0  0  0  0  0  0
  -24.5581  -25.8348   22.2669 O   0  0  0  0  0  0  0  0  0  0  0  0
  -25.3529  -25.8215   18.2098 O   0  0  0  0  0  0  0  0  0  0  0  0
  -31.3900  -22.2072   25.2188 O   0  0  0  0  0  0  0  0  0  0  0  0
  -28.8867  -22.7333   18.9141 O   0  0  0  0  0  0  0  0  0  0  0  0
  -31.8345  -14.9666   19.7176 O   0  0  0  0  0  0  0  0  0  0  0  0
  -21.6942   -7.0145   21.6931 O   0  0  0  0  0  0  0  0  0  0  0  0
  -29.7165  -24.6754   25.3864 O   0  0  0  0  0  0  0  0  0  1  0  0
  -19.2236   -6.4867   26.5943 F   0  0  0  0  0  0  0  0  0  0  0  0
  -22.3197   -4.9138   23.3778 F   0  0  0  0  0  0  0  0  0  0  0  0
  1  2  1  0  0  0  0
  1  6  2  0  0  0  0
  2  7  2  0  0  0  0
  3  9  2  0  0  0  0
  3 19  1  0  0  0  0
  4 10  2  0  0  0  0
  4 20  1  0  0  0  0
  5 11  1  0  0  0  0
  5 20  2  0  0  0  0
  6 22  1  0  0  0  0
  7 24  1  0  0  0  0
  8 12  2  0  0  0  0
  8 23  1  0  0  0  0
  9 27  1  0  0  0  0
 10 29  1  0  0  0  0
 11 29  2  0  0  0  0
 12 30  1  0  0  0  0
 13 14  2  0  0  0  0
 13 31  1  0  0  0  0
 14 32  1  0  0  0  0
 15 25  1  0  0  0  0
 15 30  2  0  0  0  0
 16 26  1  0  0  0  0
 16 27  2  0  0  0  0
 17 32  2  0  0  0  0
 17 33  1  0  0  0  0
 18 28  2  0  0  0  0
 18 65  1  0  0  0  0
 19 26  2  0  0  0  0
 19 28  1  0  0  0  0
 20 34  1  0  0  0  0
 21 34  1  0  0  0  0
 21 35  2  0  0  0  0
 21 36  1  0  0  0  0
 22 24  2  0  0  0  0
 22 42  1  0  0  0  0
 23 25  2  0  0  0  0
 23 43  1  0  0  0  0
 24 51  1  0  0  0  0
 25 44  1  0  0  0  0
 26 65  1  0  0  0  0
 27 71  1  0  0  0  0
 28 72  1  0  0  0  0
 29 83  1  0  0  0  0
 30 84  1  0  0  0  0
 31 33  2  0  0  0  0
 31 83  1  0  0  0  0
 32 85  1  0  0  0  0
 33 86  1  0  0  0  0
 34 64  2  0  0  0  0
 35 66  1  0  0  0  0
 35 69  1  0  0  0  0
 36 70  1  0  0  0  0
 36 77  2  0  0  0  0
 37 52  1  0  0  0  0
 37 73  1  0  0  0  0
 37 78  2  0  0  0  0
 38 61  1  0  0  0  0
 38 67  1  0  0  0  0
 38 79  2  0  0  0  0
 39 60  1  0  0  0  0
 39 71  1  0  0  0  0
 39 80  2  0  0  0  0
 40 62  1  0  0  0  0
 40 74  1  0  0  0  0
 40 81  2  0  0  0  0
 41 68  1  0  0  0  0
 41 72  1  0  0  0  0
 41 82  2  0  0  0  0
 42 45  1  0  0  0  0
 43 52  1  0  0  0  0
 44 67  1  0  0  0  0
 45 47  1  0  0  0  0
 46 48  1  0  0  0  0
 46 49  1  0  0  0  0
 47 51  1  0  0  0  0
 48 53  1  0  0  0  0
 49 68  1  0  0  0  0
 50 53  1  0  0  0  0
 50 68  1  0  0  0  0
 51 73  1  0  0  0  0
 52 67  1  0  0  0  0
 53 66  1  0  0  0  0
 54 62  1  0  0  0  0
 55 63  1  0  0  0  0
 56 63  1  0  0  0  0
 57 63  1  0  0  0  0
 58 75  1  0  0  0  0
 59 76  1  0  0  0  0
 60 75  1  0  0  0  0
 61 63  1  0  0  0  0
 61 74  1  0  0  0  0
 62 76  1  0  0  0  0
 64 66  1  0  0  0  0
 75 84  1  0  0  0  0
M  CHG  1  76   1
M  ISO  4  41 100  72 100  75 101  84 101
M  END
> <Batch ID>
0159

> <Smiles>
CNC(C)C(=O)NC(C(=O)N1Cc2cc([101O:1][101N:1](C)CC(=O)Nc3ccc4c(c3)NCC4=[100N:0][100C:0](=O)N3CCCC(n4nc(-c5ccc(Oc6ccc(F)cc6F)cc5)c(C(N)=O)c4N)C3)ccc2CC1C(=O)NC1CCCc2ccccc21)C(C)(C)C

> <Shape>
0.259

> <Color>
0.197

> <Negative vol penalty>
0.000

$$$$

  -OEChem-04052303473D

 84 92  0     1  0  0  0  0  0999 V2000
  -26.9033  -11.7040   17.3864 C   0  0  0  0  0  0  0  0  0  0  0  0
  -27.2240  -13.0435   17.1906 C   0  0  0  0  0  0  0  0  0  0  0  0
  -19.8712  -28.3611   23.6917 C   0  0  0  0  0  0  0  0  0  0  0  0
  -20.1260  -26.6710   21.9843 C   0  0  0  0  0  0  0  0  0  0  0  0
  -25.8775  -11.3550   18.2638 C   0  0  0  0  0  0  0  0  0  0  0  0
  -26.5181  -14.0349   17.8713 C   0  0  0  0  0  0  0  0  0  0  0  0
  -29.5526  -17.5912   19.8180 C   0  0  0  0  0  0  0  0  0  0  0  0
  -18.4861  -28.2059   23.6388 C   0  0  0  0  0  0  0  0  0  0  0  0
  -18.7408  -26.5157   21.9313 C   0  0  0  0  0  0  0  0  0  0  0  0
  -30.0474  -18.5556   18.9412 C   0  0  0  0  0  0  0  0  0  0  0  0
  -14.8629  -28.5101   23.6958 C   0  0  0  0  0  0  0  0  0  0  0  0
  -14.0798  -29.6641   23.6725 C   0  0  0  0  0  0  0  0  0  0  0  0
  -28.3605  -20.1035   19.7013 C   0  0  0  0  0  0  0  0  0  0  0  0
  -15.1572  -30.3537   21.6229 C   0  0  0  0  0  0  0  0  0  0  0  0
  -29.8501  -25.9152   21.8095 C   0  0  0  0  0  0  0  0  0  0  0  0
  -20.6912  -27.5937   22.8644 C   0  0  0  0  0  0  0  0  0  0  0  0
  -23.0252  -27.0568   23.7429 C   0  0  0  0  0  0  0  0  0  0  0  0
  -25.1651  -12.3421   18.9629 C   0  0  0  0  0  0  0  0  0  0  0  0
  -28.4493  -17.8726   20.6366 C   0  0  0  0  0  0  0  0  0  0  0  0
  -25.4809  -13.6988   18.7578 C   0  0  0  0  0  0  0  0  0  0  0  0
  -27.8553  -19.1418   20.5895 C   0  0  0  0  0  0  0  0  0  0  0  0
  -17.9208  -27.2832   22.7586 C   0  0  0  0  0  0  0  0  0  0  0  0
  -29.4496  -19.8110   18.8806 C   0  0  0  0  0  0  0  0  0  0  0  0
  -15.7931  -28.2778   22.6827 C   0  0  0  0  0  0  0  0  0  0  0  0
  -14.2269  -30.5860   22.6360 C   0  0  0  0  0  0  0  0  0  0  0  0
  -15.9403  -29.1996   21.6463 C   0  0  0  0  0  0  0  0  0  0  0  0
  -22.1221  -27.7540   22.9182 C   0  0  0  0  0  0  0  0  0  0  0  0
  -30.0042  -26.2266   20.4748 C   0  0  0  0  0  0  0  0  0  0  0  0
  -24.2561  -27.5713   23.4160 C   0  0  0  0  0  0  0  0  0  0  0  0
  -30.5848  -24.1134   20.3896 C   0  0  0  0  0  0  0  0  0  0  0  0
  -22.7740  -26.0353   24.7171 C   0  0  0  0  0  0  0  0  0  0  0  0
  -25.5161  -16.6846   20.9342 C   0  0  0  0  0  0  0  0  0  0  0  0
  -25.3762  -18.7041   23.4689 C   0  0  0  0  0  0  0  0  0  0  0  0
  -26.5368  -21.5307   24.9886 C   0  0  0  0  0  0  0  0  0  0  0  0
  -27.9724  -29.2536   19.6075 C   0  0  0  0  0  0  0  0  0  0  0  0
  -24.0329  -11.9187   19.8648 C   0  0  0  0  0  0  0  0  0  0  0  0
  -27.9444  -16.8303   21.5963 C   0  0  0  0  0  0  0  0  0  0  0  0
  -26.6812  -19.5007   21.4620 C   0  0  0  0  0  0  0  0  0  0  0  0
  -23.5831  -13.0111   20.8315 C   0  0  0  0  0  0  0  0  0  0  0  0
  -25.5042  -31.6061   20.6324 C   0  0  0  0  0  0  0  0  0  0  0  0
  -23.4224  -14.3393   20.0988 C   0  0  0  0  0  0  0  0  0  0  0  0
  -24.4764  -30.7554   21.3806 C   0  0  0  0  0  0  0  0  0  0  0  0
  -26.0933  -30.8588   19.4380 C   0  0  0  0  0  0  0  0  0  0  0  0
  -25.6334  -28.6843   20.5029 C   0  0  0  0  0  0  0  0  0  0  0  0
  -24.7547  -14.8019   19.4967 C   0  0  1  0  0  0  0  0  0  0  0  0
  -26.4941  -17.0546   22.0133 C   0  0  1  0  0  0  0  0  0  0  0  0
  -25.0524  -29.3748   21.7486 C   0  0  2  0  0  0  0  0  0  0  0  0
  -26.2033  -22.9465   27.0336 C   0  0  0  0  0  0  0  0  0  0  0  0
  -22.8189  -19.8463   22.2581 C   0  0  0  0  0  0  0  0  0  0  0  0
  -23.0629  -21.8197   23.7794 C   0  0  0  0  0  0  0  0  0  0  0  0
  -22.7515  -19.5383   24.7391 C   0  0  0  0  0  0  0  0  0  0  0  0
  -29.3200  -21.0867   25.8918 C   0  0  0  0  0  0  0  0  0  0  0  0
  -29.7563  -27.5473   19.8632 C   0  0  0  0  0  0  0  0  0  0  0  0
  -31.3133  -22.6567   18.4994 C   0  0  0  0  0  0  0  0  0  0  0  0
  -24.9611  -20.1417   23.6688 C   0  0  1  0  0  0  0  0  0  0  0  0
  -26.9831  -21.7967   26.4150 C   0  0  2  0  0  0  0  0  0  0  0  0
  -31.2870  -21.1594   18.2011 C   0  0  2  0  0  0  0  0  0  1  0  0
  -23.4195  -20.3294   23.5934 C   0  0  0  0  0  0  0  0  0  0  0  0
  -32.0568  -20.8277   16.9379 C   0  0  0  0  0  0  0  0  0  0  0  0
  -22.7276  -28.6438   22.1271 N   0  0  0  0  0  0  0  0  0  0  0  0
  -30.4258  -25.1947   19.6591 N   0  0  0  0  0  0  0  0  0  0  0  0
  -24.0244  -28.5091   22.4533 N   0  0  0  0  0  0  0  0  0  0  0  0
  -26.2199  -18.4456   22.3794 N   0  0  0  0  0  0  0  0  0  0  0  0
  -26.6237  -29.5585   19.8551 N   0  0  0  0  0  0  0  0  0  0  0  0
  -25.5031  -27.3085   23.8612 N   0  0  0  0  0  0  0  0  0  0  0  0
  -21.4509  -25.6240   24.9280 N   0  0  0  0  0  0  0  0  0  0  0  0
  -31.0015  -22.8905   19.8920 N   0  0  0  0  0  0  0  0  0  0  0  0
  -25.6035  -15.3683   20.5229 N   0  0  0  0  0  0  0  0  0  0  0  0
  -25.5536  -20.5657   24.9327 N   0  0  0  0  0  0  0  0  0  0  0  0
  -28.3955  -28.0029   20.0405 N   0  0  0  0  0  0  0  0  0  0  0  0
  -28.4329  -22.1403   26.4485 N   0  3  0  0  0  0  0  0  0  0  0  0
  -23.6938  -25.5147   25.3928 O   0  0  0  0  0  0  0  0  0  0  0  0
  -24.7387  -17.5303   20.5075 O   0  0  0  0  0  0  0  0  0  0  0  0
  -24.9725  -17.8433   24.2548 O   0  0  0  0  0  0  0  0  0  0  0  0
  -27.0102  -22.1227   24.0212 O   0  0  0  0  0  0  0  0  0  0  0  0
  -28.7436  -30.0398   19.0473 O   0  0  0  0  0  0  0  0  0  0  0  0
  -16.5693  -27.1312   22.7069 O   0  0  0  0  0  0  0  0  0  0  0  0
  -29.9301  -20.7540   18.0252 O   0  0  0  0  0  0  0  0  0  1  0  0
  -13.4738  -31.6934   22.6129 F   0  0  0  0  0  0  0  0  0  0  0  0
  -16.8315  -28.9814   20.6696 F   0  0  0  0  0  0  0  0  0  0  0  0
  -31.9844  -19.5127   16.6418 F   0  0  0  0  0  0  0  0  0  0  0  0
  -31.5760  -21.5175   15.8805 F   0  0  0  0  0  0  0  0  0  0  0  0
  -33.3622  -21.1505   17.0722 F   0  0  0  0  0  0  0  0  0  0  0  0
  -30.2445  -24.2658   22.0647 S   0  0  0  0  0  0  0  0  0  0  0  0
  1  2  1  0  0  0  0
  1  5  2  0  0  0  0
  2  6  2  0  0  0  0
  3  8  2  0  0  0  0
  3 16  1  0  0  0  0
  4  9  1  0  0  0  0
  4 16  2  0  0  0  0
  5 18  1  0  0  0  0
  6 20  1  0  0  0  0
  7 10  2  0  0  0  0
  7 19  1  0  0  0  0
  8 22  1  0  0  0  0
  9 22  2  0  0  0  0
 10 23  1  0  0  0  0
 11 12  2  0  0  0  0
 11 24  1  0  0  0  0
 12 25  1  0  0  0  0
 13 21  1  0  0  0  0
 13 23  2  0  0  0  0
 14 25  2  0  0  0  0
 14 26  1  0  0  0  0
 15 28  2  0  0  0  0
 15 84  1  0  0  0  0
 16 27  1  0  0  0  0
 17 27  1  0  0  0  0
 17 29  2  0  0  0  0
 17 31  1  0  0  0  0
 18 20  2  0  0  0  0
 18 36  1  0  0  0  0
 19 21  2  0  0  0  0
 19 37  1  0  0  0  0
 20 45  1  0  0  0  0
 21 38  1  0  0  0  0
 22 77  1  0  0  0  0
 23 78  1  0  0  0  0
 24 26  2  0  0  0  0
 24 77  1  0  0  0  0
 25 79  1  0  0  0  0
 26 80  1  0  0  0  0
 27 60  2  0  0  0  0
 28 53  1  0  0  0  0
 28 61  1  0  0  0  0
 29 62  1  0  0  0  0
 29 65  1  0  0  0  0
 30 61  2  0  0  0  0
 30 67  1  0  0  0  0
 30 84  1  0  0  0  0
 31 66  1  0  0  0  0
 31 72  2  0  0  0  0
 32 46  1  0  0  0  0
 32 68  1  0  0  0  0
 32 73  2  0  0  0  0
 33 55  1  0  0  0  0
 33 63  1  0  0  0  0
 33 74  2  0  0  0  0
 34 56  1  0  0  0  0
 34 69  1  0  0  0  0
 34 75  2  0  0  0  0
 35 64  1  0  0  0  0
 35 70  1  0  0  0  0
 35 76  2  0  0  0  0
 36 39  1  0  0  0  0
 37 46  1  0  0  0  0
 38 63  1  0  0  0  0
 39 41  1  0  0  0  0
 40 42  1  0  0  0  0
 40 43  1  0  0  0  0
 41 45  1  0  0  0  0
 42 47  1  0  0  0  0
 43 64  1  0  0  0  0
 44 47  1  0  0  0  0
 44 64  1  0  0  0  0
 45 68  1  0  0  0  0
 46 63  1  0  0  0  0
 47 62  1  0  0  0  0
 48 56  1  0  0  0  0
 49 58  1  0  0  0  0
 50 58  1  0  0  0  0
 51 58  1  0  0  0  0
 52 71  1  0  0  0  0
 53 70  1  0  0  0  0
 54 57  1  0  0  0  0
 54 67  1  0  0  0  0
 55 58  1  0  0  0  0
 55 69  1  0  0  0  0
 56 71  1  0  0  0  0
 57 59  1  0  0  0  0
 57 78  1  0  0  0  0
 59 81  1  0  0  0  0
 59 82  1  0  0  0  0
 59 83  1  0  0  0  0
 60 62  1  0  0  0  0
M  CHG  1  71   1
M  ISO  4  35 100  57 101  70 100  78 101
M  END
> <Batch ID>
0159

> <Smiles>
CNC(C)C(=O)NC(C(=O)N1Cc2cc([101O:1][101CH:1](CNc3nc(C[100NH:0][100C:0](=O)N4CCCC(n5nc(-c6ccc(Oc7ccc(F)cc7F)cc6)c(C(N)=O)c5N)C4)cs3)C(F)(F)F)ccc2CC1C(=O)NC1CCCc2ccccc21)C(C)(C)C

> <Shape>
0.212

> <Color>
0.064

> <Negative vol penalty>
0.000

$$$$

  -OEChem-04052303473D

 85 94  0     1  0  0  0  0  0999 V2000
  -19.0876  -32.9137   25.6339 C   0  0  0  0  0  0  0  0  0  0  0  0
  -20.4632  -32.8590   25.4339 C   0  0  0  0  0  0  0  0  0  0  0  0
  -26.0051  -12.2854   22.0389 C   0  0  0  0  0  0  0  0  0  0  0  0
  -26.9084  -12.2940   19.7982 C   0  0  0  0  0  0  0  0  0  0  0  0
  -18.2867  -31.8350   25.2611 C   0  0  0  0  0  0  0  0  0  0  0  0
  -21.0390  -31.7250   24.8620 C   0  0  0  0  0  0  0  0  0  0  0  0
  -31.5847  -19.0423   15.7835 C   0  0  0  0  0  0  0  0  0  0  0  0
  -26.4616  -29.7545   20.6161 C   0  0  0  0  0  0  0  0  0  0  0  0
  -31.4173  -18.4664   17.0421 C   0  0  0  0  0  0  0  0  0  0  0  0
  -24.8428  -11.6747   21.5680 C   0  0  0  0  0  0  0  0  0  0  0  0
  -25.7461  -11.6833   19.3273 C   0  0  0  0  0  0  0  0  0  0  0  0
  -27.5362  -28.8668   20.5832 C   0  0  0  0  0  0  0  0  0  0  0  0
  -23.8480   -8.5698   20.6719 C   0  0  0  0  0  0  0  0  0  0  0  0
  -23.3382   -7.4963   21.4023 C   0  0  0  0  0  0  0  0  0  0  0  0
  -26.0448  -27.0959   19.9057 C   0  0  0  0  0  0  0  0  0  0  0  0
  -31.0111  -20.6543   18.0311 C   0  0  0  0  0  0  0  0  0  0  0  0
  -21.2768   -8.7088   21.7455 C   0  0  0  0  0  0  0  0  0  0  0  0
  -27.0379  -12.5951   21.1540 C   0  0  0  0  0  0  0  0  0  0  0  0
  -29.4042  -12.5904   22.1069 C   0  0  0  0  0  0  0  0  0  0  0  0
  -18.8518  -30.6911   24.6755 C   0  0  0  0  0  0  0  0  0  0  0  0
  -25.1666  -29.3163   20.3040 C   0  0  0  0  0  0  0  0  0  0  0  0
  -20.2451  -30.6295   24.4823 C   0  0  0  0  0  0  0  0  0  0  0  0
  -31.4699  -20.4180   15.6764 C   0  0  0  0  0  0  0  0  0  0  0  0
  -24.9559  -27.9806   19.9328 C   0  0  0  0  0  0  0  0  0  0  0  0
  -31.1829  -21.2296   16.7815 C   0  0  0  0  0  0  0  0  0  0  0  0
  -31.1328  -19.2666   18.1583 C   0  0  0  0  0  0  0  0  0  0  0  0
  -24.7133  -11.3736   20.2122 C   0  0  0  0  0  0  0  0  0  0  0  0
  -27.3274  -27.5366   20.2308 C   0  0  0  0  0  0  0  0  0  0  0  0
  -23.0722   -9.7128   20.4784 C   0  0  0  0  0  0  0  0  0  0  0  0
  -22.0526   -7.5658   21.9390 C   0  0  0  0  0  0  0  0  0  0  0  0
  -21.7866   -9.7823   21.0152 C   0  0  0  0  0  0  0  0  0  0  0  0
  -28.2385  -13.2265   21.6397 C   0  0  0  0  0  0  0  0  0  0  0  0
  -30.2445  -13.6217   22.4488 C   0  0  0  0  0  0  0  0  0  0  0  0
  -29.7009  -11.1924   22.2216 C   0  0  0  0  0  0  0  0  0  0  0  0
  -22.4144  -29.1458   21.8850 C   0  0  0  0  0  0  0  0  0  0  0  0
  -29.6803  -25.1634   18.8192 C   0  0  0  0  0  0  0  0  0  0  0  0
  -21.2576  -28.2401   18.9930 C   0  0  0  0  0  0  0  0  0  0  0  0
  -21.8714  -26.8799   15.9238 C   0  0  0  0  0  0  0  0  0  0  0  0
  -30.6869  -19.2987   20.6375 C   0  0  0  0  0  0  0  0  0  0  0  0
  -17.9512  -29.5310   24.3323 C   0  0  0  0  0  0  0  0  0  0  0  0
  -24.0225  -30.2925   20.3182 C   0  0  0  0  0  0  0  0  0  0  0  0
  -31.5725  -21.2659   14.4498 C   0  0  0  0  0  0  0  0  0  0  0  0
  -23.5883  -27.4649   19.5692 C   0  0  0  0  0  0  0  0  0  0  0  0
  -18.5951  -28.5184   23.3888 C   0  0  0  0  0  0  0  0  0  0  0  0
  -30.1745  -18.1613   23.9723 C   0  0  0  0  0  0  0  0  0  0  0  0
  -20.0090  -28.1816   23.8514 C   0  0  0  0  0  0  0  0  0  0  0  0
  -29.7318  -16.7071   23.7954 C   0  0  0  0  0  0  0  0  0  0  0  0
  -31.6328  -22.6785   15.0654 C   0  0  0  0  0  0  0  0  0  0  0  0
  -29.6201  -19.0611   22.8692 C   0  0  0  0  0  0  0  0  0  0  0  0
  -29.4498  -17.1505   21.3234 C   0  0  0  0  0  0  0  0  0  0  0  0
  -20.9039  -29.4268   23.8421 C   0  0  1  0  0  0  0  0  0  0  0  0
  -22.6637  -29.6182   20.4806 C   0  0  1  0  0  0  0  0  0  0  0  0
  -30.0368  -16.1941   22.3743 C   0  0  2  0  0  0  0  0  0  0  0  0
  -20.7203  -26.2329   13.7899 C   0  0  0  0  0  0  0  0  0  0  0  0
  -20.0988  -25.7752   20.3683 C   0  0  0  0  0  0  0  0  0  0  0  0
  -19.8127  -24.7350   18.1090 C   0  0  0  0  0  0  0  0  0  0  0  0
  -18.5893  -26.8331   18.6781 C   0  0  0  0  0  0  0  0  0  0  0  0
  -23.5175  -28.7544   14.3315 C   0  0  0  0  0  0  0  0  0  0  0  0
  -29.7247  -24.0071   17.8304 C   0  0  0  0  0  0  0  0  0  0  0  0
  -28.2958  -25.5903   19.2665 C   0  0  0  0  0  0  0  0  0  1  0  0
  -31.1315  -23.6607   17.3586 C   0  0  0  0  0  0  0  0  0  0  0  0
  -21.0837  -26.9231   18.2758 C   0  0  1  0  0  0  0  0  0  0  0  0
  -21.4778  -27.3261   14.5273 C   0  0  2  0  0  0  0  0  0  0  0  0
  -19.9217  -26.0755   18.8665 C   0  0  0  0  0  0  0  0  0  0  0  0
  -28.3266  -14.5587   21.6798 N   0  0  0  0  0  0  0  0  0  0  0  0
  -29.5577  -14.7681   22.1765 N   0  0  0  0  0  0  0  0  0  0  0  0
  -31.0987  -22.5671   16.4211 N   0  0  2  0  0  0  0  0  0  0  0  0
  -22.5007  -28.4566   19.6041 N   0  0  0  0  0  0  0  0  0  0  0  0
  -29.9512  -18.5148   21.5513 N   0  0  0  0  0  0  0  0  0  0  0  0
  -31.4965  -13.6506   22.9529 N   0  0  0  0  0  0  0  0  0  0  0  0
  -28.7251  -10.2676   21.8255 N   0  0  0  0  0  0  0  0  0  0  0  0
  -30.9703  -18.6622   19.4295 N   0  0  0  0  0  0  0  0  0  0  0  0
  -21.3234  -29.7377   22.4924 N   0  0  0  0  0  0  0  0  0  0  0  0
  -20.9290  -27.2457   16.8615 N   0  0  0  0  0  0  0  0  0  0  0  0
  -22.6902  -27.6749   13.7339 N   0  3  0  0  0  0  0  0  0  0  0  0
  -30.7925  -10.7756   22.6777 O   0  0  0  0  0  0  0  0  0  0  0  0
  -23.1560  -28.3054   22.3804 O   0  0  0  0  0  0  0  0  0  0  0  0
  -30.6942  -25.7293   19.2247 O   0  0  0  0  0  0  0  0  0  0  0  0
  -20.3272  -29.0499   19.0042 O   0  0  0  0  0  0  0  0  0  0  0  0
  -22.9092  -26.2647   16.1588 O   0  0  0  0  0  0  0  0  0  0  0  0
  -31.0629  -20.4399   20.9171 O   0  0  0  0  0  0  0  0  0  0  0  0
  -23.5794  -10.7774   19.7524 O   0  0  0  0  0  0  0  0  0  0  0  0
  -28.3744  -26.6679   20.1986 O   0  0  0  0  0  0  0  0  0  1  0  0
  -21.5627   -6.5342   22.6390 F   0  0  0  0  0  0  0  0  0  0  0  0
  -21.0362  -10.8772   20.8316 F   0  0  0  0  0  0  0  0  0  0  0  0
  1  2  1  0  0  0  0
  1  5  2  0  0  0  0
  2  6  2  0  0  0  0
  3 10  2  0  0  0  0
  3 18  1  0  0  0  0
  4 11  1  0  0  0  0
  4 18  2  0  0  0  0
  5 20  1  0  0  0  0
  6 22  1  0  0  0  0
  7  9  2  0  0  0  0
  7 23  1  0  0  0  0
  8 12  2  0  0  0  0
  8 21  1  0  0  0  0
  9 26  1  0  0  0  0
 10 27  1  0  0  0  0
 11 27  2  0  0  0  0
 12 28  1  0  0  0  0
 13 14  2  0  0  0  0
 13 29  1  0  0  0  0
 14 30  1  0  0  0  0
 15 24  1  0  0  0  0
 15 28  2  0  0  0  0
 16 25  1  0  0  0  0
 16 26  2  0  0  0  0
 17 30  2  0  0  0  0
 17 31  1  0  0  0  0
 18 32  1  0  0  0  0
 19 32  1  0  0  0  0
 19 33  2  0  0  0  0
 19 34  1  0  0  0  0
 20 22  2  0  0  0  0
 20 40  1  0  0  0  0
 21 24  2  0  0  0  0
 21 41  1  0  0  0  0
 22 51  1  0  0  0  0
 23 25  2  0  0  0  0
 23 42  1  0  0  0  0
 24 43  1  0  0  0  0
 25 67  1  0  0  0  0
 26 72  1  0  0  0  0
 27 82  1  0  0  0  0
 28 83  1  0  0  0  0
 29 31  2  0  0  0  0
 29 82  1  0  0  0  0
 30 84  1  0  0  0  0
 31 85  1  0  0  0  0
 32 65  2  0  0  0  0
 33 66  1  0  0  0  0
 33 70  1  0  0  0  0
 34 71  1  0  0  0  0
 34 76  2  0  0  0  0
 35 52  1  0  0  0  0
 35 73  1  0  0  0  0
 35 77  2  0  0  0  0
 36 59  1  0  0  0  0
 36 60  1  0  0  0  0
 36 78  2  0  0  0  0
 37 62  1  0  0  0  0
 37 68  1  0  0  0  0
 37 79  2  0  0  0  0
 38 63  1  0  0  0  0
 38 74  1  0  0  0  0
 38 80  2  0  0  0  0
 39 69  1  0  0  0  0
 39 72  1  0  0  0  0
 39 81  2  0  0  0  0
 40 44  1  0  0  0  0
 41 52  1  0  0  0  0
 42 48  1  0  0  0  0
 43 68  1  0  0  0  0
 44 46  1  0  0  0  0
 45 47  1  0  0  0  0
 45 49  1  0  0  0  0
 46 51  1  0  0  0  0
 47 53  1  0  0  0  0
 48 67  1  0  0  0  0
 49 69  1  0  0  0  0
 50 53  1  0  0  0  0
 50 69  1  0  0  0  0
 51 73  1  0  0  0  0
 52 68  1  0  0  0  0
 53 66  1  0  0  0  0
 54 63  1  0  0  0  0
 55 64  1  0  0  0  0
 56 64  1  0  0  0  0
 57 64  1  0  0  0  0
 58 75  1  0  0  0  0
 59 61  1  0  0  0  0
 60 83  1  0  0  0  0
 61 67  1  0  0  0  0
 62 64  1  0  0  0  0
 62 74  1  0  0  0  0
 63 75  1  0  0  0  0
 65 66  1  0  0  0  0
M  CHG  1  75   1
M  ISO  4  39 100  60 101  72 100  83 101
M  END
> <Batch ID>
0159

> <Smiles>
CNC(C)C(=O)NC(C(=O)N1Cc2cc([101O:1][101CH2:1]C(=O)CCN3CCc4ccc([100NH:0][100C:0](=O)N5CCCC(n6nc(-c7ccc(Oc8ccc(F)cc8F)cc7)c(C(N)=O)c6N)C5)cc43)ccc2CC1C(=O)NC1CCCc2ccccc21)C(C)(C)C

> <Shape>
0.259

> <Color>
0.095

> <Negative vol penalty>
0.000

$$$$

  -OEChem-04052303473D

 84 92  0     1  0  0  0  0  0999 V2000
  -16.6524  -30.2831   23.2800 C   0  0  0  0  0  0  0  0  0  0  0  0
  -17.8751  -30.8977   23.0297 C   0  0  0  0  0  0  0  0  0  0  0  0
  -26.2009  -13.2128   19.5666 C   0  0  0  0  0  0  0  0  0  0  0  0
  -24.4501  -13.5659   21.1936 C   0  0  0  0  0  0  0  0  0  0  0  0
  -16.6012  -28.9130   23.5336 C   0  0  0  0  0  0  0  0  0  0  0  0
  -19.0475  -30.1427   23.0340 C   0  0  0  0  0  0  0  0  0  0  0  0
  -25.4660  -29.7806   19.8736 C   0  0  0  0  0  0  0  0  0  0  0  0
  -26.1986  -11.8492   19.8600 C   0  0  0  0  0  0  0  0  0  0  0  0
  -24.4478  -12.2022   21.4870 C   0  0  0  0  0  0  0  0  0  0  0  0
  -26.8213  -29.7092   20.1929 C   0  0  0  0  0  0  0  0  0  0  0  0
  -23.2218   -9.3644   20.1216 C   0  0  0  0  0  0  0  0  0  0  0  0
  -21.9852   -8.7276   20.2259 C   0  0  0  0  0  0  0  0  0  0  0  0
  -31.5241  -22.9852   17.7753 C   0  0  0  0  0  0  0  0  0  0  0  0
  -29.5699  -24.3405   18.1335 C   0  0  0  0  0  0  0  0  0  0  0  0
  -26.6025  -27.3359   20.5651 C   0  0  0  0  0  0  0  0  0  0  0  0
  -22.4896   -8.1219   22.5097 C   0  0  0  0  0  0  0  0  0  0  0  0
  -32.2798  -24.0443   18.2517 C   0  0  0  0  0  0  0  0  0  0  0  0
  -25.3267  -14.0712   20.2335 C   0  0  0  0  0  0  0  0  0  0  0  0
  -30.1440  -23.1442   17.7182 C   0  0  0  0  0  0  0  0  0  0  0  0
  -24.5572  -16.1418   18.9574 C   0  0  0  0  0  0  0  0  0  0  0  0
  -17.7724  -28.1392   23.5315 C   0  0  0  0  0  0  0  0  0  0  0  0
  -24.6651  -28.6300   19.9083 C   0  0  0  0  0  0  0  0  0  0  0  0
  -19.0120  -28.7613   23.2891 C   0  0  0  0  0  0  0  0  0  0  0  0
  -25.2379  -27.3948   20.2433 C   0  0  0  0  0  0  0  0  0  0  0  0
  -25.3221  -11.3439   20.8202 C   0  0  0  0  0  0  0  0  0  0  0  0
  -27.3891  -28.4873   20.5415 C   0  0  0  0  0  0  0  0  0  0  0  0
  -24.0924   -9.3799   21.2114 C   0  0  0  0  0  0  0  0  0  0  0  0
  -21.6191   -8.1063   21.4199 C   0  0  0  0  0  0  0  0  0  0  0  0
  -23.7263   -8.7587   22.4054 C   0  0  0  0  0  0  0  0  0  0  0  0
  -25.3289  -15.4800   19.9312 C   0  0  0  0  0  0  0  0  0  0  0  0
  -30.4130  -25.3389   18.5941 C   0  0  0  0  0  0  0  0  0  0  0  0
  -24.9238  -17.4609   19.0670 C   0  0  0  0  0  0  0  0  0  0  0  0
  -29.2940  -22.0492   17.2191 C   0  0  0  0  0  0  0  0  0  0  0  0
  -23.5949  -15.6115   18.0363 C   0  0  0  0  0  0  0  0  0  0  0  0
  -22.1157  -27.7211   21.5751 C   0  0  0  0  0  0  0  0  0  0  0  0
  -22.1995  -25.1709   19.5722 C   0  0  0  0  0  0  0  0  0  0  0  0
  -24.0340  -23.1718   17.5021 C   0  0  0  0  0  0  0  0  0  0  0  0
  -29.1508  -21.2228   19.5617 C   0  0  0  0  0  0  0  0  0  0  0  0
  -17.6724  -26.6701   23.8576 C   0  0  0  0  0  0  0  0  0  0  0  0
  -23.2107  -28.7191   19.5353 C   0  0  0  0  0  0  0  0  0  0  0  0
  -24.4258  -26.1268   20.2758 C   0  0  0  0  0  0  0  0  0  0  0  0
  -18.9176  -25.8748   23.4738 C   0  0  0  0  0  0  0  0  0  0  0  0
  -27.6259  -19.8674   22.5668 C   0  0  0  0  0  0  0  0  0  0  0  0
  -20.1776  -26.6003   23.9351 C   0  0  0  0  0  0  0  0  0  0  0  0
  -26.8939  -18.6216   22.0798 C   0  0  0  0  0  0  0  0  0  0  0  0
  -28.8823  -20.1232   21.7445 C   0  0  0  0  0  0  0  0  0  0  0  0
  -27.8577  -19.0291   19.7625 C   0  0  0  0  0  0  0  0  0  0  0  0
  -20.3027  -27.9718   23.2607 C   0  0  1  0  0  0  0  0  0  0  0  0
  -22.3771  -27.5743   20.1028 C   0  0  1  0  0  0  0  0  0  0  0  0
  -26.5856  -18.7337   20.5800 C   0  0  1  0  0  0  0  0  0  0  0  0
  -23.8355  -21.1449   16.0360 C   0  0  0  0  0  0  0  0  0  0  0  0
  -30.4153  -30.0128   20.3729 C   0  0  0  0  0  0  0  0  0  0  0  0
  -22.1851  -23.3856   22.0465 C   0  0  0  0  0  0  0  0  0  0  0  0
  -22.9361  -21.4880   20.5961 C   0  0  0  0  0  0  0  0  0  0  0  0
  -20.7354  -22.5837   20.1730 C   0  0  0  0  0  0  0  0  0  0  0  0
  -28.1775  -20.9388   15.2768 C   0  0  0  0  0  0  0  0  0  0  0  0
  -24.7994  -24.7009   15.0865 C   0  0  0  0  0  0  0  0  0  0  0  0
  -30.5714  -27.6554   19.5075 C   0  0  0  0  0  0  0  0  0  0  0  0
  -22.8654  -23.8162   19.5934 C   0  0  1  0  0  0  0  0  0  0  0  0
  -23.7677  -22.6629   16.0969 C   0  0  2  0  0  0  0  0  0  0  0  0
  -29.6383  -28.8167   19.8425 C   0  0  1  0  0  0  0  0  0  1  0  0
  -22.1957  -22.8424   20.6036 C   0  0  0  0  0  0  0  0  0  0  0  0
  -31.7580  -25.2212   18.6641 N   0  0  0  0  0  0  0  0  0  0  0  0
  -26.1258  -16.3102   20.6093 N   0  0  0  0  0  0  0  0  0  0  0  0
  -25.8568  -17.5072   20.0608 N   0  0  0  0  0  0  0  0  0  0  0  0
  -23.0068  -26.2666   19.9092 N   0  0  0  0  0  0  0  0  0  0  0  0
  -28.6041  -20.1739   20.3070 N   0  0  0  0  0  0  0  0  0  0  0  0
  -24.5360  -18.5741   18.4092 N   0  0  0  0  0  0  0  0  0  0  0  0
  -23.3380  -14.2339   18.0577 N   0  0  0  0  0  0  0  0  0  0  0  0
  -29.8135  -26.5523   19.0136 N   0  0  0  0  0  0  0  0  0  0  0  0
  -28.8605  -21.1785   18.1452 N   0  0  0  0  0  0  0  0  0  0  0  0
  -20.7770  -27.8251   21.9012 N   0  0  0  0  0  0  0  0  0  0  0  0
  -22.8654  -23.3397   18.2145 N   0  0  0  0  0  0  0  0  0  0  0  0
  -29.0067  -21.9688   15.9134 N   0  3  0  0  0  0  0  0  0  0  0  0
  -24.7729  -23.2168   15.1462 N   0  3  0  0  0  0  0  0  0  0  0  0
  -22.9930  -16.3355   17.2073 O   0  0  0  0  0  0  0  0  0  0  0  0
  -23.0588  -27.7372   22.3575 O   0  0  0  0  0  0  0  0  0  0  0  0
  -21.0088  -25.2547   19.2608 O   0  0  0  0  0  0  0  0  0  0  0  0
  -25.1657  -23.3943   17.9266 O   0  0  0  0  0  0  0  0  0  0  0  0
  -29.8555  -22.1223   20.0067 O   0  0  0  0  0  0  0  0  0  0  0  0
  -25.3194  -10.0132   21.1065 O   0  0  0  0  0  0  0  0  0  0  0  0
  -28.7190  -28.4146   20.8560 O   0  0  0  0  0  0  0  0  0  1  0  0
  -20.4309   -7.4962   21.5204 F   0  0  0  0  0  0  0  0  0  0  0  0
  -24.5579   -8.7714   23.4561 F   0  0  0  0  0  0  0  0  0  0  0  0
  1  2  1  0  0  0  0
  1  5  2  0  0  0  0
  2  6  2  0  0  0  0
  3  8  2  0  0  0  0
  3 18  1  0  0  0  0
  4  9  1  0  0  0  0
  4 18  2  0  0  0  0
  5 21  1  0  0  0  0
  6 23  1  0  0  0  0
  7 10  2  0  0  0  0
  7 22  1  0  0  0  0
  8 25  1  0  0  0  0
  9 25  2  0  0  0  0
 10 26  1  0  0  0  0
 11 12  2  0  0  0  0
 11 27  1  0  0  0  0
 12 28  1  0  0  0  0
 13 17  2  0  0  0  0
 13 19  1  0  0  0  0
 14 19  2  0  0  0  0
 14 31  1  0  0  0  0
 15 24  1  0  0  0  0
 15 26  2  0  0  0  0
 16 28  2  0  0  0  0
 16 29  1  0  0  0  0
 17 63  1  0  0  0  0
 18 30  1  0  0  0  0
 19 33  1  0  0  0  0
 20 30  1  0  0  0  0
 20 32  2  0  0  0  0
 20 34  1  0  0  0  0
 21 23  2  0  0  0  0
 21 39  1  0  0  0  0
 22 24  2  0  0  0  0
 22 40  1  0  0  0  0
 23 48  1  0  0  0  0
 24 41  1  0  0  0  0
 25 81  1  0  0  0  0
 26 82  1  0  0  0  0
 27 29  2  0  0  0  0
 27 81  1  0  0  0  0
 28 83  1  0  0  0  0
 29 84  1  0  0  0  0
 30 64  2  0  0  0  0
 31 63  2  0  0  0  0
 31 70  1  0  0  0  0
 32 65  1  0  0  0  0
 32 68  1  0  0  0  0
 33 71  1  0  0  0  0
 33 74  2  0  0  0  0
 34 69  1  0  0  0  0
 34 76  2  0  0  0  0
 35 49  1  0  0  0  0
 35 72  1  0  0  0  0
 35 77  2  0  0  0  0
 36 59  1  0  0  0  0
 36 66  1  0  0  0  0
 36 78  2  0  0  0  0
 37 60  1  0  0  0  0
 37 73  1  0  0  0  0
 37 79  2  0  0  0  0
 38 67  1  0  0  0  0
 38 71  1  0  0  0  0
 38 80  2  0  0  0  0
 39 42  1  0  0  0  0
 40 49  1  0  0  0  0
 41 66  1  0  0  0  0
 42 44  1  0  0  0  0
 43 45  1  0  0  0  0
 43 46  1  0  0  0  0
 44 48  1  0  0  0  0
 45 50  1  0  0  0  0
 46 67  1  0  0  0  0
 47 50  1  0  0  0  0
 47 67  1  0  0  0  0
 48 72  1  0  0  0  0
 49 66  1  0  0  0  0
 50 65  1  0  0  0  0
 51 60  1  0  0  0  0
 52 61  1  0  0  0  0
 53 62  1  0  0  0  0
 54 62  1  0  0  0  0
 55 62  1  0  0  0  0
 56 74  1  0  0  0  0
 57 75  1  0  0  0  0
 58 61  1  0  0  0  0
 58 70  1  0  0  0  0
 59 62  1  0  0  0  0
 59 73  1  0  0  0  0
 60 75  1  0  0  0  0
 61 82  1  0  0  0  0
 64 65  1  0  0  0  0
M  CHG  2  74   1  75   1
M  ISO  4  38 100  61 101  71 100  82 101
M  END
> <Batch ID>
0159

> <Smiles>
CN=C([100NH:0][100C:0](=O)N1CCCC(n2nc(-c3ccc(Oc4ccc(F)cc4F)cc3)c(C(N)=O)c2N)C1)c1ccnc(NC[101CH:1](C)[101O:1]c2ccc3c(c2)CN(C(=O)C(NC(=O)C(C)NC)C(C)(C)C)C(C(=O)NC2CCCc4ccccc42)C3)c1

> <Shape>
0.271

> <Color>
0.087

> <Negative vol penalty>
0.000

$$$$

  -OEChem-04052303473D

 83 91  0     1  0  0  0  0  0999 V2000
  -32.1828  -25.6087   17.2280 C   0  0  0  0  0  0  0  0  0  0  0  0
  -31.0270  -25.1826   17.8746 C   0  0  0  0  0  0  0  0  0  0  0  0
  -22.6329  -10.2848   20.5162 C   0  0  0  0  0  0  0  0  0  0  0  0
  -24.4811   -9.1203   21.5482 C   0  0  0  0  0  0  0  0  0  0  0  0
  -32.8618  -26.7364   17.6875 C   0  0  0  0  0  0  0  0  0  0  0  0
  -30.5501  -25.8834   18.9818 C   0  0  0  0  0  0  0  0  0  0  0  0
  -25.5437  -26.6239   18.8036 C   0  0  0  0  0  0  0  0  0  0  0  0
  -21.8341   -9.1514   20.6676 C   0  0  0  0  0  0  0  0  0  0  0  0
  -23.6823   -7.9868   21.6997 C   0  0  0  0  0  0  0  0  0  0  0  0
  -24.7280  -25.5456   19.1439 C   0  0  0  0  0  0  0  0  0  0  0  0
  -21.2552   -6.9136   23.7920 C   0  0  0  0  0  0  0  0  0  0  0  0
  -21.2952   -6.2539   25.0203 C   0  0  0  0  0  0  0  0  0  0  0  0
  -24.4158  -26.4839   21.3442 C   0  0  0  0  0  0  0  0  0  0  0  0
  -22.0632   -4.2464   23.9170 C   0  0  0  0  0  0  0  0  0  0  0  0
  -23.9564  -10.2692   20.9564 C   0  0  0  0  0  0  0  0  0  0  0  0
  -24.9387  -12.4982   21.7145 C   0  0  0  0  0  0  0  0  0  0  0  0
  -32.3876  -27.4571   18.7950 C   0  0  0  0  0  0  0  0  0  0  0  0
  -25.8107  -27.6364   19.7362 C   0  0  0  0  0  0  0  0  0  0  0  0
  -31.2242  -27.0211   19.4574 C   0  0  0  0  0  0  0  0  0  0  0  0
  -25.2331  -27.5753   21.0124 C   0  0  0  0  0  0  0  0  0  0  0  0
  -22.3588   -8.0024   21.2594 C   0  0  0  0  0  0  0  0  0  0  0  0
  -24.1663  -25.4740   20.4153 C   0  0  0  0  0  0  0  0  0  0  0  0
  -21.6191   -6.2397   22.6262 C   0  0  0  0  0  0  0  0  0  0  0  0
  -21.6992   -4.9203   25.0828 C   0  0  0  0  0  0  0  0  0  0  0  0
  -22.0232   -4.9061   22.6887 C   0  0  0  0  0  0  0  0  0  0  0  0
  -24.7822  -11.4396   20.7998 C   0  0  0  0  0  0  0  0  0  0  0  0
  -24.9521  -19.6581   19.9941 C   0  0  0  0  0  0  0  0  0  0  0  0
  -25.8212  -13.3538   21.1016 C   0  0  0  0  0  0  0  0  0  0  0  0
  -25.4063  -20.9378   19.7530 C   0  0  0  0  0  0  0  0  0  0  0  0
  -26.4327  -19.1959   18.4436 C   0  0  0  0  0  0  0  0  0  0  0  0
  -24.3401  -12.6908   23.0029 C   0  0  0  0  0  0  0  0  0  0  0  0
  -27.2534  -18.4008   17.4944 C   0  0  0  0  0  0  0  0  0  0  0  0
  -28.4312  -28.7506   21.1488 C   0  0  0  0  0  0  0  0  0  0  0  0
  -26.3850  -30.9839   22.3097 C   0  0  0  0  0  0  0  0  0  0  0  0
  -23.1802  -31.8371   23.1148 C   0  0  0  0  0  0  0  0  0  0  0  0
  -27.6498  -16.1070   16.6547 C   0  0  0  0  0  0  0  0  0  0  0  0
  -33.1818  -28.6423   19.2840 C   0  0  0  0  0  0  0  0  0  0  0  0
  -26.6710  -28.8065   19.3448 C   0  0  0  0  0  0  0  0  0  0  0  0
  -25.4723  -28.6469   22.0433 C   0  0  0  0  0  0  0  0  0  0  0  0
  -32.4026  -29.5473   20.2348 C   0  0  0  0  0  0  0  0  0  0  0  0
  -28.6759  -12.7382   16.9633 C   0  0  0  0  0  0  0  0  0  0  0  0
  -31.6809  -28.7165   21.2911 C   0  0  0  0  0  0  0  0  0  0  0  0
  -27.7736  -12.1858   18.0702 C   0  0  0  0  0  0  0  0  0  0  0  0
  -27.9293  -13.7170   16.0582 C   0  0  0  0  0  0  0  0  0  0  0  0
  -26.3388  -14.2547   17.8581 C   0  0  0  0  0  0  0  0  0  0  0  0
  -30.6618  -27.7692   20.6465 C   0  0  1  0  0  0  0  0  0  0  0  0
  -27.2913  -29.5192   20.5425 C   0  0  1  0  0  0  0  0  0  0  0  0
  -27.0631  -13.3182   18.8386 C   0  0  1  0  0  0  0  0  0  0  0  0
  -21.8250  -33.7162   24.0793 C   0  0  0  0  0  0  0  0  0  0  0  0
  -22.7231  -23.7119   22.9285 C   0  0  0  0  0  0  0  0  0  0  0  0
  -27.3897  -30.2723   25.1015 C   0  0  0  0  0  0  0  0  0  0  0  0
  -25.3882  -31.4439   26.0446 C   0  0  0  0  0  0  0  0  0  0  0  0
  -27.0607  -32.7193   24.7034 C   0  0  0  0  0  0  0  0  0  0  0  0
  -21.5868  -32.1146   20.6363 C   0  0  0  0  0  0  0  0  0  0  0  0
  -23.9739  -22.1714   21.3816 C   0  0  0  0  0  0  0  0  0  0  0  0
  -25.5110  -31.0989   23.5352 C   0  0  1  0  0  0  0  0  0  0  0  0
  -22.3605  -33.0773   22.8073 C   0  0  2  0  0  0  0  0  0  0  0  0
  -23.7905  -23.6136   21.8484 C   0  0  1  0  0  0  0  0  0  1  0  0
  -26.3343  -31.3623   24.8276 C   0  0  0  0  0  0  0  0  0  0  0  0
  -25.5069  -11.6054   19.6902 N   0  0  0  0  0  0  0  0  0  0  0  0
  -25.5393  -18.6580   19.2439 N   0  0  0  0  0  0  0  0  0  0  0  0
  -26.1273  -12.7783   19.9036 N   0  0  0  0  0  0  0  0  0  0  0  0
  -26.3256  -29.7675   21.6149 N   0  0  0  0  0  0  0  0  0  0  0  0
  -27.2931  -14.7629   16.8611 N   0  0  0  0  0  0  0  0  0  0  0  0
  -26.3573  -14.5349   21.4759 N   0  0  0  0  0  0  0  0  0  0  0  0
  -23.4563  -11.7141   23.4818 N   0  0  0  0  0  0  0  0  0  0  0  0
  -24.9928  -22.1129   20.3581 N   0  0  0  0  0  0  0  0  0  0  0  0
  -27.0181  -17.0256   17.5003 N   0  0  0  0  0  0  0  0  0  0  0  0
  -29.4664  -28.4931   20.2704 N   0  0  0  0  0  0  0  0  0  0  0  0
  -24.5223  -32.1292   23.2362 N   0  0  0  0  0  0  0  0  0  0  0  0
  -21.2045  -32.7305   21.9330 N   0  3  0  0  0  0  0  0  0  0  0  0
  -24.5690  -13.7071   23.7016 O   0  0  0  0  0  0  0  0  0  0  0  0
  -28.0401  -18.9818   16.7519 O   0  0  0  0  0  0  0  0  0  0  0  0
  -28.3763  -28.4172   22.3267 O   0  0  0  0  0  0  0  0  0  0  0  0
  -27.0888  -31.9407   21.9769 O   0  0  0  0  0  0  0  0  0  0  0  0
  -22.6795  -30.7216   23.2388 O   0  0  0  0  0  0  0  0  0  0  0  0
  -28.4869  -16.4558   15.8162 O   0  0  0  0  0  0  0  0  0  0  0  0
  -21.5796   -6.8963   21.4076 O   0  0  0  0  0  0  0  0  0  0  0  0
  -23.3703  -24.4223   20.7502 O   0  0  0  0  0  0  0  0  0  1  0  0
  -21.7391   -4.2873   26.2626 F   0  0  0  0  0  0  0  0  0  0  0  0
  -22.3751   -4.2538   21.5722 F   0  0  0  0  0  0  0  0  0  0  0  0
  -24.0008  -19.3919   20.8964 F   0  0  0  0  0  0  0  0  0  0  0  0
  -26.6191  -20.8990   18.5411 S   0  0  0  0  0  0  0  0  0  0  0  0
  1  2  1  0  0  0  0
  1  5  2  0  0  0  0
  2  6  2  0  0  0  0
  3  8  2  0  0  0  0
  3 15  1  0  0  0  0
  4  9  1  0  0  0  0
  4 15  2  0  0  0  0
  5 17  1  0  0  0  0
  6 19  1  0  0  0  0
  7 10  2  0  0  0  0
  7 18  1  0  0  0  0
  8 21  1  0  0  0  0
  9 21  2  0  0  0  0
 10 22  1  0  0  0  0
 11 12  2  0  0  0  0
 11 23  1  0  0  0  0
 12 24  1  0  0  0  0
 13 20  1  0  0  0  0
 13 22  2  0  0  0  0
 14 24  2  0  0  0  0
 14 25  1  0  0  0  0
 15 26  1  0  0  0  0
 16 26  1  0  0  0  0
 16 28  2  0  0  0  0
 16 31  1  0  0  0  0
 17 19  2  0  0  0  0
 17 37  1  0  0  0  0
 18 20  2  0  0  0  0
 18 38  1  0  0  0  0
 19 46  1  0  0  0  0
 20 39  1  0  0  0  0
 21 78  1  0  0  0  0
 22 79  1  0  0  0  0
 23 25  2  0  0  0  0
 23 78  1  0  0  0  0
 24 80  1  0  0  0  0
 25 81  1  0  0  0  0
 26 60  2  0  0  0  0
 27 29  2  0  0  0  0
 27 61  1  0  0  0  0
 27 82  1  0  0  0  0
 28 62  1  0  0  0  0
 28 65  1  0  0  0  0
 29 67  1  0  0  0  0
 29 83  1  0  0  0  0
 30 32  1  0  0  0  0
 30 61  2  0  0  0  0
 30 83  1  0  0  0  0
 31 66  1  0  0  0  0
 31 72  2  0  0  0  0
 32 68  1  0  0  0  0
 32 73  2  0  0  0  0
 33 47  1  0  0  0  0
 33 69  1  0  0  0  0
 33 74  2  0  0  0  0
 34 56  1  0  0  0  0
 34 63  1  0  0  0  0
 34 75  2  0  0  0  0
 35 57  1  0  0  0  0
 35 70  1  0  0  0  0
 35 76  2  0  0  0  0
 36 64  1  0  0  0  0
 36 68  1  0  0  0  0
 36 77  2  0  0  0  0
 37 40  1  0  0  0  0
 38 47  1  0  0  0  0
 39 63  1  0  0  0  0
 40 42  1  0  0  0  0
 41 43  1  0  0  0  0
 41 44  1  0  0  0  0
 42 46  1  0  0  0  0
 43 48  1  0  0  0  0
 44 64  1  0  0  0  0
 45 48  1  0  0  0  0
 45 64  1  0  0  0  0
 46 69  1  0  0  0  0
 47 63  1  0  0  0  0
 48 62  1  0  0  0  0
 49 57  1  0  0  0  0
 50 58  1  0  0  0  0
 51 59  1  0  0  0  0
 52 59  1  0  0  0  0
 53 59  1  0  0  0  0
 54 71  1  0  0  0  0
 55 58  1  0  0  0  0
 55 67  1  0  0  0  0
 56 59  1  0  0  0  0
 56 70  1  0  0  0  0
 57 71  1  0  0  0  0
 58 79  1  0  0  0  0
 60 62  1  0  0  0  0
M  CHG  1  71   1
M  ISO  4  36 100  58 101  68 100  79 101
M  END
> <Batch ID>
0159

> <Smiles>
CNC(C)C(=O)NC(C(=O)N1Cc2cc([101O:1][101CH:1](C)CNc3sc(C(=O)[100NH:0][100C:0](=O)N4CCCC(n5nc(-c6ccc(Oc7ccc(F)cc7F)cc6)c(C(N)=O)c5N)C4)nc3F)ccc2CC1C(=O)NC1CCCc2ccccc21)C(C)(C)C

> <Shape>
0.271

> <Color>
0.115

> <Negative vol penalty>
0.000

$$$$

  -OEChem-04052303473D

 87 96  0     1  0  0  0  0  0999 V2000
  -33.3819  -29.6778   25.7440 C   0  0  0  0  0  0  0  0  0  0  0  0
  -32.7678  -28.8805   26.7046 C   0  0  0  0  0  0  0  0  0  0  0  0
  -23.1169  -10.1884   22.0577 C   0  0  0  0  0  0  0  0  0  0  0  0
  -23.8041   -9.4604   19.8589 C   0  0  0  0  0  0  0  0  0  0  0  0
  -32.8738  -29.7200   24.4463 C   0  0  0  0  0  0  0  0  0  0  0  0
  -31.6446  -28.1257   26.3682 C   0  0  0  0  0  0  0  0  0  0  0  0
  -31.6272  -20.9622   27.1266 C   0  0  0  0  0  0  0  0  0  0  0  0
  -22.3775   -9.0162   22.2148 C   0  0  0  0  0  0  0  0  0  0  0  0
  -23.0647   -8.2881   20.0160 C   0  0  0  0  0  0  0  0  0  0  0  0
  -31.4717  -19.6120   27.4412 C   0  0  0  0  0  0  0  0  0  0  0  0
  -22.9754   -5.7778   22.9816 C   0  0  0  0  0  0  0  0  0  0  0  0
  -23.0826   -5.1017   24.1969 C   0  0  0  0  0  0  0  0  0  0  0  0
  -29.2539  -19.6319   26.4774 C   0  0  0  0  0  0  0  0  0  0  0  0
  -20.7090   -5.3729   24.5572 C   0  0  0  0  0  0  0  0  0  0  0  0
  -32.3507  -15.1313   25.3280 C   0  0  0  0  0  0  0  0  0  0  0  0
  -23.8302  -10.4106   20.8798 C   0  0  0  0  0  0  0  0  0  0  0  0
  -30.6594  -13.5371   25.3052 C   0  0  0  0  0  0  0  0  0  0  0  0
  -24.1084  -12.9427   20.7434 C   0  0  0  0  0  0  0  0  0  0  0  0
  -31.7496  -28.9580   24.0914 C   0  0  0  0  0  0  0  0  0  0  0  0
  -30.6014  -21.6493   26.4717 C   0  0  0  0  0  0  0  0  0  0  0  0
  -31.1202  -28.1589   25.0649 C   0  0  0  0  0  0  0  0  0  0  0  0
  -29.4088  -20.9812   26.1486 C   0  0  0  0  0  0  0  0  0  0  0  0
  -31.4132  -14.4621   26.0837 C   0  0  0  0  0  0  0  0  0  0  0  0
  -22.3514   -8.0661   21.1939 C   0  0  0  0  0  0  0  0  0  0  0  0
  -30.2879  -18.9486   27.1175 C   0  0  0  0  0  0  0  0  0  0  0  0
  -21.7350   -6.2516   22.5541 C   0  0  0  0  0  0  0  0  0  0  0  0
  -21.9494   -4.8992   24.9847 C   0  0  0  0  0  0  0  0  0  0  0  0
  -20.6019   -6.0491   23.3418 C   0  0  0  0  0  0  0  0  0  0  0  0
  -24.5938  -11.6216   20.7167 C   0  0  0  0  0  0  0  0  0  0  0  0
  -25.2216  -13.7217   20.5421 C   0  0  0  0  0  0  0  0  0  0  0  0
  -31.0493  -13.5346   23.9838 C   0  0  0  0  0  0  0  0  0  0  0  0
  -30.1151  -16.1446   29.0465 C   0  0  0  0  0  0  0  0  0  0  0  0
  -29.6050  -12.6864   25.7998 C   0  0  0  0  0  0  0  0  0  0  0  0
  -22.7708  -13.4229   20.9332 C   0  0  0  0  0  0  0  0  0  0  0  0
  -29.4129  -24.8829   24.9861 C   0  0  0  0  0  0  0  0  0  0  0  0
  -28.5004  -22.6455   23.0962 C   0  0  0  0  0  0  0  0  0  0  0  0
  -28.0480  -19.9370   21.0721 C   0  0  0  0  0  0  0  0  0  0  0  0
  -31.0464  -12.8576   21.5573 C   0  0  0  0  0  0  0  0  0  0  0  0
  -31.2084  -29.0727   22.6883 C   0  0  0  0  0  0  0  0  0  0  0  0
  -30.7010  -23.1197   26.1685 C   0  0  0  0  0  0  0  0  0  0  0  0
  -28.3187  -21.7694   25.4753 C   0  0  0  0  0  0  0  0  0  0  0  0
  -30.1927  -15.6321   30.4576 C   0  0  0  0  0  0  0  0  0  0  0  0
  -29.9360  -15.1420   27.9358 C   0  0  0  0  0  0  0  0  0  0  0  0
  -30.2389  -27.9538   22.3160 C   0  0  0  0  0  0  0  0  0  0  0  0
  -31.5658  -15.0411   30.7320 C   0  0  0  0  0  0  0  0  0  0  0  0
  -31.9633  -13.9305   29.7580 C   0  0  0  0  0  0  0  0  0  0  0  0
  -29.5214  -13.6355   18.4354 C   0  0  0  0  0  0  0  0  0  0  0  0
  -29.2227  -27.7345   23.4323 C   0  0  0  0  0  0  0  0  0  0  0  0
  -28.0396  -13.3334   18.6704 C   0  0  0  0  0  0  0  0  0  0  0  0
  -32.3628  -14.4322   28.3650 C   0  0  0  0  0  0  0  0  0  0  0  0
  -30.4252  -12.6404   19.1611 C   0  0  0  0  0  0  0  0  0  0  0  0
  -28.6722  -12.1854   20.8312 C   0  0  0  0  0  0  0  0  0  0  0  0
  -29.9147  -27.3067   24.7321 C   0  0  1  0  0  0  0  0  0  0  0  0
  -30.0088  -23.5125   24.8511 C   0  0  1  0  0  0  0  0  0  0  0  0
  -27.7231  -13.2000   20.1730 C   0  0  2  0  0  0  0  0  0  0  0  0
  -28.2317  -12.8438   25.2002 C   0  0  0  0  0  0  0  0  0  0  0  0
  -27.0639  -19.2727   18.8613 C   0  0  0  0  0  0  0  0  0  0  0  0
  -25.7018  -22.7995   24.2997 C   0  0  0  0  0  0  0  0  0  0  0  0
  -24.9104  -21.2792   22.4748 C   0  0  0  0  0  0  0  0  0  0  0  0
  -25.8509  -23.5193   21.9093 C   0  0  0  0  0  0  0  0  0  0  0  0
  -30.6713  -19.0288   20.0462 C   0  0  0  0  0  0  0  0  0  0  0  0
  -27.4023  -21.6888   22.7058 C   0  0  1  0  0  0  0  0  0  0  0  0
  -28.3169  -19.7288   19.5927 C   0  0  2  0  0  0  0  0  0  0  0  0
  -25.9875  -22.3138   22.8647 C   0  0  0  0  0  0  0  0  0  0  0  0
  -25.9127  -11.5608   20.5143 N   0  0  0  0  0  0  0  0  0  0  0  0
  -30.2580  -17.4078   28.8075 N   0  0  0  0  0  0  0  0  0  1  0  0
  -26.2654  -12.8535   20.4119 N   0  0  0  0  0  0  0  0  0  0  0  0
  -31.2352  -14.6784   27.4559 N   0  0  3  0  0  0  0  0  0  0  0  0
  -28.8953  -22.6408   24.4395 N   0  0  0  0  0  0  0  0  0  0  0  0
  -30.0700  -12.5702   20.5801 N   0  0  0  0  0  0  0  0  0  0  0  0
  -25.3996  -15.0577   20.4656 N   0  0  0  0  0  0  0  0  0  0  0  0
  -21.9588  -13.6019   19.8050 N   0  0  0  0  0  0  0  0  0  0  0  0
  -30.5843  -12.7904   22.8713 N   0  0  0  0  0  0  0  0  0  0  0  0
  -30.2838  -25.9086   24.6716 N   0  0  0  0  0  0  0  0  0  0  0  0
  -27.7106  -21.2446   21.3508 N   0  0  0  0  0  0  0  0  0  0  0  0
  -29.3757  -18.6982   19.3987 N   0  3  0  0  0  0  0  0  0  0  0  0
  -29.7294  -11.8306   26.6881 O   0  0  0  0  0  0  0  0  0  0  0  0
  -22.3148  -13.7011   22.0682 O   0  0  0  0  0  0  0  0  0  0  0  0
  -28.2480  -25.0023   25.3474 O   0  0  0  0  0  0  0  0  0  0  0  0
  -28.9924  -23.3820   22.2368 O   0  0  0  0  0  0  0  0  0  0  0  0
  -28.1256  -19.0297   21.8974 O   0  0  0  0  0  0  0  0  0  0  0  0
  -32.1999  -13.1688   21.2502 O   0  0  0  0  0  0  0  0  0  0  0  0
  -21.6301   -6.9220   21.3469 O   0  0  0  0  0  0  0  0  0  0  0  0
  -30.1445  -17.6293   27.4234 O   0  0  0  0  0  0  0  0  0  1  0  0
  -22.0522   -4.2486   26.1510 F   0  0  0  0  0  0  0  0  0  0  0  0
  -19.4073   -6.5009   22.9358 F   0  0  0  0  0  0  0  0  0  0  0  0
  -32.3195  -14.6440   23.6867 S   0  0  0  0  0  0  0  0  0  0  0  0
  1  2  1  0  0  0  0
  1  5  2  0  0  0  0
  2  6  2  0  0  0  0
  3  8  2  0  0  0  0
  3 16  1  0  0  0  0
  4  9  1  0  0  0  0
  4 16  2  0  0  0  0
  5 19  1  0  0  0  0
  6 21  1  0  0  0  0
  7 10  2  0  0  0  0
  7 20  1  0  0  0  0
  8 24  1  0  0  0  0
  9 24  2  0  0  0  0
 10 25  1  0  0  0  0
 11 12  2  0  0  0  0
 11 26  1  0  0  0  0
 12 27  1  0  0  0  0
 13 22  1  0  0  0  0
 13 25  2  0  0  0  0
 14 27  2  0  0  0  0
 14 28  1  0  0  0  0
 15 23  2  0  0  0  0
 15 87  1  0  0  0  0
 16 29  1  0  0  0  0
 17 23  1  0  0  0  0
 17 31  2  0  0  0  0
 17 33  1  0  0  0  0
 18 29  1  0  0  0  0
 18 30  2  0  0  0  0
 18 34  1  0  0  0  0
 19 21  2  0  0  0  0
 19 39  1  0  0  0  0
 20 22  2  0  0  0  0
 20 40  1  0  0  0  0
 21 53  1  0  0  0  0
 22 41  1  0  0  0  0
 23 68  1  0  0  0  0
 24 83  1  0  0  0  0
 25 84  1  0  0  0  0
 26 28  2  0  0  0  0
 26 83  1  0  0  0  0
 27 85  1  0  0  0  0
 28 86  1  0  0  0  0
 29 65  2  0  0  0  0
 30 67  1  0  0  0  0
 30 71  1  0  0  0  0
 31 73  1  0  0  0  0
 31 87  1  0  0  0  0
 32 42  1  0  0  0  0
 32 43  1  0  0  0  0
 32 66  2  0  0  0  0
 33 56  1  0  0  0  0
 33 77  2  0  0  0  0
 34 72  1  0  0  0  0
 34 78  2  0  0  0  0
 35 54  1  0  0  0  0
 35 74  1  0  0  0  0
 35 79  2  0  0  0  0
 36 62  1  0  0  0  0
 36 69  1  0  0  0  0
 36 80  2  0  0  0  0
 37 63  1  0  0  0  0
 37 75  1  0  0  0  0
 37 81  2  0  0  0  0
 38 70  1  0  0  0  0
 38 73  1  0  0  0  0
 38 82  2  0  0  0  0
 39 44  1  0  0  0  0
 40 54  1  0  0  0  0
 41 69  1  0  0  0  0
 42 45  1  0  0  0  0
 43 68  1  0  0  0  0
 44 48  1  0  0  0  0
 45 46  1  0  0  0  0
 46 50  1  0  0  0  0
 47 49  1  0  0  0  0
 47 51  1  0  0  0  0
 48 53  1  0  0  0  0
 49 55  1  0  0  0  0
 50 68  1  0  0  0  0
 51 70  1  0  0  0  0
 52 55  1  0  0  0  0
 52 70  1  0  0  0  0
 53 74  1  0  0  0  0
 54 69  1  0  0  0  0
 55 67  1  0  0  0  0
 57 63  1  0  0  0  0
 58 64  1  0  0  0  0
 59 64  1  0  0  0  0
 60 64  1  0  0  0  0
 61 76  1  0  0  0  0
 62 64  1  0  0  0  0
 62 75  1  0  0  0  0
 63 76  1  0  0  0  0
 65 67  1  0  0  0  0
 66 84  1  0  0  0  0
M  CHG  1  76   1
M  ISO  4  38 100  66 101  73 100  84 101
M  END
> <Batch ID>
0159

> <Smiles>
CNC(C)C(=O)NC(C(=O)N1Cc2cc([101O:1][101N:1]=C3CCCCN(c4csc([100NH:0][100C:0](=O)N5CCCC(n6nc(-c7ccc(Oc8ccc(F)cc8F)cc7)c(C(N)=O)c6N)C5)c4C(C)=O)C3)ccc2CC1C(=O)NC1CCCc2ccccc21)C(C)(C)C

> <Shape>
0.174

> <Color>
0.161

> <Negative vol penalty>
0.000

$$$$

  -OEChem-04052303473D

 85 94  0     1  0  0  0  0  0999 V2000
  -27.6090  -38.0317   23.5313 C   0  0  0  0  0  0  0  0  0  0  0  0
  -28.3122  -36.8758   23.8549 C   0  0  0  0  0  0  0  0  0  0  0  0
  -23.3597  -10.1351   19.7678 C   0  0  0  0  0  0  0  0  0  0  0  0
  -24.4832   -9.6693   21.8553 C   0  0  0  0  0  0  0  0  0  0  0  0
  -26.2166  -38.0419   23.6015 C   0  0  0  0  0  0  0  0  0  0  0  0
  -27.6234  -35.7296   24.2500 C   0  0  0  0  0  0  0  0  0  0  0  0
  -28.3129  -29.5501   20.6126 C   0  0  0  0  0  0  0  0  0  0  0  0
  -22.1919   -9.5592   20.2678 C   0  0  0  0  0  0  0  0  0  0  0  0
  -23.3154   -9.0933   22.3553 C   0  0  0  0  0  0  0  0  0  0  0  0
  -28.5550  -28.2773   20.0955 C   0  0  0  0  0  0  0  0  0  0  0  0
  -21.6664   -6.1556   22.0697 C   0  0  0  0  0  0  0  0  0  0  0  0
  -21.7809   -4.9414   22.7465 C   0  0  0  0  0  0  0  0  0  0  0  0
  -26.9163  -27.3399   21.6068 C   0  0  0  0  0  0  0  0  0  0  0  0
  -20.8507   -5.9592   24.7303 C   0  0  0  0  0  0  0  0  0  0  0  0
  -27.4567  -19.5597   19.3472 C   0  0  0  0  0  0  0  0  0  0  0  0
  -24.5055  -10.1902   20.5616 C   0  0  0  0  0  0  0  0  0  0  0  0
  -26.4430  -10.3782   18.9129 C   0  0  0  0  0  0  0  0  0  0  0  0
  -25.5098  -36.8923   23.9883 C   0  0  0  0  0  0  0  0  0  0  0  0
  -27.3594  -29.7251   21.6194 C   0  0  0  0  0  0  0  0  0  0  0  0
  -26.2203  -35.7247   24.3267 C   0  0  0  0  0  0  0  0  0  0  0  0
  -26.6607  -28.6143   22.1201 C   0  0  0  0  0  0  0  0  0  0  0  0
  -22.1697   -9.0383   21.5615 C   0  0  0  0  0  0  0  0  0  0  0  0
  -27.8586  -27.1749   20.5915 C   0  0  0  0  0  0  0  0  0  0  0  0
  -21.1440   -7.2718   22.7233 C   0  0  0  0  0  0  0  0  0  0  0  0
  -21.3731   -4.8431   24.0767 C   0  0  0  0  0  0  0  0  0  0  0  0
  -20.7362   -7.1735   24.0536 C   0  0  0  0  0  0  0  0  0  0  0  0
  -25.7123  -10.7845   20.0455 C   0  0  0  0  0  0  0  0  0  0  0  0
  -26.7380  -20.4461   18.4951 C   0  0  0  0  0  0  0  0  0  0  0  0
  -27.4956  -11.2582   18.8495 C   0  0  0  0  0  0  0  0  0  0  0  0
  -26.9067  -18.2975   19.2892 C   0  0  0  0  0  0  0  0  0  0  0  0
  -26.1926   -9.3016   17.9997 C   0  0  0  0  0  0  0  0  0  0  0  0
  -25.5754  -32.1117   23.8993 C   0  0  0  0  0  0  0  0  0  0  0  0
  -23.4841  -30.1020   22.9002 C   0  0  0  0  0  0  0  0  0  0  0  0
  -20.6358  -28.5202   21.8892 C   0  0  0  0  0  0  0  0  0  0  0  0
  -28.2722  -16.8430   20.8274 C   0  0  0  0  0  0  0  0  0  0  0  0
  -24.0072  -36.9655   24.0949 C   0  0  0  0  0  0  0  0  0  0  0  0
  -27.1102  -31.0688   22.2489 C   0  0  0  0  0  0  0  0  0  0  0  0
  -25.6690  -28.8451   23.2274 C   0  0  0  0  0  0  0  0  0  0  0  0
  -23.3339  -35.5971   24.1615 C   0  0  0  0  0  0  0  0  0  0  0  0
  -30.2570  -14.0009   21.6400 C   0  0  0  0  0  0  0  0  0  0  0  0
  -24.0538  -34.6959   25.1596 C   0  0  0  0  0  0  0  0  0  0  0  0
  -29.3858  -12.8167   21.2146 C   0  0  0  0  0  0  0  0  0  0  0  0
  -26.6256  -24.1853   18.6334 C   0  0  0  0  0  0  0  0  0  0  0  0
  -29.0022  -23.4061   18.4644 C   0  0  0  0  0  0  0  0  0  0  0  0
  -29.4215  -15.1388   22.2238 C   0  0  0  0  0  0  0  0  0  0  0  0
  -26.1458  -22.8207   18.1323 C   0  0  0  0  0  0  0  0  0  0  0  0
  -28.5159  -22.0466   17.9587 C   0  0  0  0  0  0  0  0  0  0  0  0
  -27.4432  -14.4112   20.9486 C   0  0  0  0  0  0  0  0  0  0  0  0
  -25.5076  -34.4540   24.7358 C   0  0  1  0  0  0  0  0  0  0  0  0
  -25.6396  -31.2842   22.6492 C   0  0  1  0  0  0  0  0  0  0  0  0
  -28.2339  -13.2663   20.2946 C   0  0  2  0  0  0  0  0  0  0  0  0
  -28.0259  -24.5375   18.1208 C   0  0  0  0  0  0  0  0  0  0  0  0
  -18.3008  -27.9946   22.6434 C   0  0  0  0  0  0  0  0  0  0  0  0
  -24.5751  -27.9490   24.7652 C   0  0  0  0  0  0  0  0  0  0  0  0
  -22.3128  -26.8770   24.7355 C   0  0  0  0  0  0  0  0  0  0  0  0
  -22.5864  -29.1831   25.6464 C   0  0  0  0  0  0  0  0  0  0  0  0
  -19.4454  -29.9978   19.6180 C   0  0  0  0  0  0  0  0  0  0  0  0
  -29.2253  -25.0156   16.1572 C   0  0  0  0  0  0  0  0  0  0  0  0
  -28.4989  -25.8659   18.7117 C   0  0  0  0  0  0  0  0  0  1  0  0
  -22.7519  -28.8082   23.1516 C   0  0  1  0  0  0  0  0  0  0  0  0
  -19.1850  -28.9668   21.8781 C   0  0  2  0  0  0  0  0  0  0  0  0
  -23.0707  -28.2089   24.5504 C   0  0  0  0  0  0  0  0  0  0  0  0
  -26.2549  -11.8404   20.6576 N   0  0  0  0  0  0  0  0  0  0  0  0
  -25.7097  -19.9405   17.8181 N   0  0  0  0  0  0  0  0  0  0  0  0
  -27.3378  -12.1049   19.9070 N   0  0  0  0  0  0  0  0  0  0  0  0
  -27.1440  -21.7841   18.4117 N   0  0  0  0  0  0  0  0  0  0  0  0
  -24.8826  -30.0579   22.9529 N   0  0  0  0  0  0  0  0  0  0  0  0
  -28.3527  -15.5144   21.2957 N   0  0  0  0  0  0  0  0  0  0  0  0
  -28.5317  -11.3825   17.9930 N   0  0  0  0  0  0  0  0  0  0  0  0
  -25.0664   -8.4945   18.2110 N   0  0  0  0  0  0  0  0  0  0  0  0
  -27.2350  -17.0743   19.9245 N   0  0  0  0  0  0  0  0  0  0  0  0
  -25.5675  -33.4746   23.6719 N   0  0  0  0  0  0  0  0  0  0  0  0
  -21.3377  -29.0899   22.9304 N   0  0  0  0  0  0  0  0  0  0  0  0
  -18.6818  -29.0577   20.4783 N   0  3  0  0  0  0  0  0  0  0  0  0
  -26.9542   -9.0523   17.0346 O   0  0  0  0  0  0  0  0  0  0  0  0
  -25.5345  -31.5556   24.9905 O   0  0  0  0  0  0  0  0  0  0  0  0
  -22.8362  -31.1266   22.6688 O   0  0  0  0  0  0  0  0  0  0  0  0
  -21.0992  -27.7407   21.0595 O   0  0  0  0  0  0  0  0  0  0  0  0
  -29.0817  -17.7051   21.1789 O   0  0  0  0  0  0  0  0  0  0  0  0
  -21.0302   -8.4764   22.0498 O   0  0  0  0  0  0  0  0  0  0  0  0
  -28.0965  -25.9358   20.0790 O   0  0  0  0  0  0  0  0  0  1  0  0
  -27.9572  -24.6874   16.7007 O   0  0  0  0  0  0  0  0  0  0  0  0
  -21.4817   -3.6766   24.7260 F   0  0  0  0  0  0  0  0  0  0  0  0
  -20.2325   -8.2420   24.6864 F   0  0  0  0  0  0  0  0  0  0  0  0
  -25.5799  -18.3298   18.2065 S   0  0  0  0  0  0  0  0  0  0  0  0
  1  2  1  0  0  0  0
  1  5  2  0  0  0  0
  2  6  2  0  0  0  0
  3  8  2  0  0  0  0
  3 16  1  0  0  0  0
  4  9  1  0  0  0  0
  4 16  2  0  0  0  0
  5 18  1  0  0  0  0
  6 20  1  0  0  0  0
  7 10  2  0  0  0  0
  7 19  1  0  0  0  0
  8 22  1  0  0  0  0
  9 22  2  0  0  0  0
 10 23  1  0  0  0  0
 11 12  2  0  0  0  0
 11 24  1  0  0  0  0
 12 25  1  0  0  0  0
 13 21  1  0  0  0  0
 13 23  2  0  0  0  0
 14 25  2  0  0  0  0
 14 26  1  0  0  0  0
 15 28  1  0  0  0  0
 15 30  2  0  0  0  0
 16 27  1  0  0  0  0
 17 27  1  0  0  0  0
 17 29  2  0  0  0  0
 17 31  1  0  0  0  0
 18 20  2  0  0  0  0
 18 36  1  0  0  0  0
 19 21  2  0  0  0  0
 19 37  1  0  0  0  0
 20 49  1  0  0  0  0
 21 38  1  0  0  0  0
 22 80  1  0  0  0  0
 23 81  1  0  0  0  0
 24 26  2  0  0  0  0
 24 80  1  0  0  0  0
 25 83  1  0  0  0  0
 26 84  1  0  0  0  0
 27 63  2  0  0  0  0
 28 64  2  0  0  0  0
 28 66  1  0  0  0  0
 29 65  1  0  0  0  0
 29 69  1  0  0  0  0
 30 71  1  0  0  0  0
 30 85  1  0  0  0  0
 31 70  1  0  0  0  0
 31 75  2  0  0  0  0
 32 50  1  0  0  0  0
 32 72  1  0  0  0  0
 32 76  2  0  0  0  0
 33 60  1  0  0  0  0
 33 67  1  0  0  0  0
 33 77  2  0  0  0  0
 34 61  1  0  0  0  0
 34 73  1  0  0  0  0
 34 78  2  0  0  0  0
 35 68  1  0  0  0  0
 35 71  1  0  0  0  0
 35 79  2  0  0  0  0
 36 39  1  0  0  0  0
 37 50  1  0  0  0  0
 38 67  1  0  0  0  0
 39 41  1  0  0  0  0
 40 42  1  0  0  0  0
 40 45  1  0  0  0  0
 41 49  1  0  0  0  0
 42 51  1  0  0  0  0
 43 46  1  0  0  0  0
 43 52  1  0  0  0  0
 44 47  1  0  0  0  0
 44 52  1  0  0  0  0
 45 68  1  0  0  0  0
 46 66  1  0  0  0  0
 47 66  1  0  0  0  0
 48 51  1  0  0  0  0
 48 68  1  0  0  0  0
 49 72  1  0  0  0  0
 50 67  1  0  0  0  0
 51 65  1  0  0  0  0
 52 59  1  0  0  0  0
 52 82  1  0  0  0  0
 53 61  1  0  0  0  0
 54 62  1  0  0  0  0
 55 62  1  0  0  0  0
 56 62  1  0  0  0  0
 57 74  1  0  0  0  0
 58 82  1  0  0  0  0
 59 81  1  0  0  0  0
 60 62  1  0  0  0  0
 60 73  1  0  0  0  0
 61 74  1  0  0  0  0
 63 65  1  0  0  0  0
 64 85  1  0  0  0  0
M  CHG  1  74   1
M  ISO  4  35 100  59 101  71 100  81 101
M  END
> <Batch ID>
0159

> <Smiles>
CNC(C)C(=O)NC(C(=O)N1Cc2cc([101O:1][101CH2:1]C3(OC)CCN(c4cc([100NH:0][100C:0](=O)N5CCCC(n6nc(-c7ccc(Oc8ccc(F)cc8F)cc7)c(C(N)=O)c6N)C5)sn4)CC3)ccc2CC1C(=O)NC1CCCc2ccccc21)C(C)(C)C

> <Shape>
0.338

> <Color>
0.077

> <Negative vol penalty>
0.000

$$$$

  -OEChem-04052303473D

 83 92  0     1  0  0  0  0  0999 V2000
  -20.3570  -34.7881   21.0450 C   0  0  0  0  0  0  0  0  0  0  0  0
  -21.5703  -34.1921   20.7161 C   0  0  0  0  0  0  0  0  0  0  0  0
  -28.9301  -17.7986   21.9554 C   0  0  0  0  0  0  0  0  0  0  0  0
  -27.5824  -17.2047   20.0402 C   0  0  0  0  0  0  0  0  0  0  0  0
  -19.5844  -34.2674   22.0823 C   0  0  0  0  0  0  0  0  0  0  0  0
  -22.0121  -33.0755   21.4249 C   0  0  0  0  0  0  0  0  0  0  0  0
  -25.1990  -28.3358   19.2148 C   0  0  0  0  0  0  0  0  0  0  0  0
  -29.1449  -16.4467   22.2235 C   0  0  0  0  0  0  0  0  0  0  0  0
  -27.7973  -15.8528   20.3082 C   0  0  0  0  0  0  0  0  0  0  0  0
  -26.5588  -28.0288   19.2349 C   0  0  0  0  0  0  0  0  0  0  0  0
  -28.2879  -12.2505   20.2770 C   0  0  0  0  0  0  0  0  0  0  0  0
  -28.6118  -11.4195   19.2046 C   0  0  0  0  0  0  0  0  0  0  0  0
  -26.2130  -26.6525   21.1857 C   0  0  0  0  0  0  0  0  0  0  0  0
  -30.5814  -12.7492   18.7691 C   0  0  0  0  0  0  0  0  0  0  0  0
  -34.6677  -25.8230   16.8992 C   0  0  0  0  0  0  0  0  0  0  0  0
  -34.0759  -23.9829   16.0080 C   0  0  0  0  0  0  0  0  0  0  0  0
  -28.1487  -18.1776   20.8638 C   0  0  0  0  0  0  0  0  0  0  0  0
  -27.3147  -20.5209   21.4302 C   0  0  0  0  0  0  0  0  0  0  0  0
  -20.0125  -33.1381   22.7979 C   0  0  0  0  0  0  0  0  0  0  0  0
  -24.3364  -27.8114   20.1881 C   0  0  0  0  0  0  0  0  0  0  0  0
  -21.2452  -32.5400   22.4736 C   0  0  0  0  0  0  0  0  0  0  0  0
  -24.8422  -26.9524   21.1742 C   0  0  0  0  0  0  0  0  0  0  0  0
  -28.5786  -15.4738   21.3998 C   0  0  0  0  0  0  0  0  0  0  0  0
  -27.0665  -27.1893   20.2222 C   0  0  0  0  0  0  0  0  0  0  0  0
  -29.1108  -13.3309   20.5954 C   0  0  0  0  0  0  0  0  0  0  0  0
  -29.7585  -11.6688   18.4506 C   0  0  0  0  0  0  0  0  0  0  0  0
  -30.2575  -13.5802   19.8415 C   0  0  0  0  0  0  0  0  0  0  0  0
  -27.9259  -19.5739   20.5868 C   0  0  0  0  0  0  0  0  0  0  0  0
  -33.5241  -25.4446   17.5622 C   0  0  0  0  0  0  0  0  0  0  0  0
  -27.3452  -21.6910   20.7115 C   0  0  0  0  0  0  0  0  0  0  0  0
  -31.3293  -26.3920   18.4906 C   0  0  0  0  0  0  0  0  0  0  0  0
  -33.3183  -26.2015   19.8577 C   0  0  0  0  0  0  0  0  0  0  0  0
  -32.7269  -26.0275   18.6604 C   0  0  0  0  0  0  0  0  0  0  0  0
  -30.6387  -27.0659   19.4258 C   0  0  0  0  0  0  0  0  0  0  0  0
  -26.7684  -20.3576   22.7457 C   0  0  0  0  0  0  0  0  0  0  0  0
  -22.4828  -29.0586   22.4491 C   0  0  0  0  0  0  0  0  0  0  0  0
  -30.9262  -23.5806   16.2710 C   0  0  0  0  0  0  0  0  0  0  0  0
  -21.5291  -25.9803   22.8195 C   0  0  0  0  0  0  0  0  0  0  0  0
  -22.2329  -22.6631   22.4354 C   0  0  0  0  0  0  0  0  0  0  0  0
  -19.1656  -32.6398   23.9420 C   0  0  0  0  0  0  0  0  0  0  0  0
  -22.8675  -28.1308   20.1367 C   0  0  0  0  0  0  0  0  0  0  0  0
  -23.9547  -26.3471   22.2298 C   0  0  0  0  0  0  0  0  0  0  0  0
  -32.6028  -26.7718   21.0480 C   0  0  0  0  0  0  0  0  0  0  0  0
  -31.2777  -27.4802   20.7272 C   0  0  0  0  0  0  0  0  0  0  0  0
  -19.5270  -31.2284   24.3977 C   0  0  0  0  0  0  0  0  0  0  0  0
  -27.3510  -23.3424   16.2292 C   0  0  0  0  0  0  0  0  0  0  0  0
  -21.0386  -31.0853   24.5441 C   0  0  0  0  0  0  0  0  0  0  0  0
  -27.0395  -22.4124   17.4010 C   0  0  0  0  0  0  0  0  0  0  0  0
  -28.6514  -22.9497   15.5350 C   0  0  0  0  0  0  0  0  0  0  0  0
  -29.5212  -21.9465   17.6228 C   0  0  0  0  0  0  0  0  0  0  0  0
  -21.7466  -31.3126   23.2030 C   0  0  1  0  0  0  0  0  0  0  0  0
  -22.1698  -27.9524   21.4816 C   0  0  1  0  0  0  0  0  0  0  0  0
  -28.2313  -22.3270   18.3710 C   0  0  2  0  0  0  0  0  0  0  0  0
  -21.2760  -20.3836   22.8662 C   0  0  0  0  0  0  0  0  0  0  0  0
  -22.2082  -26.2576   25.7812 C   0  0  0  0  0  0  0  0  0  0  0  0
  -22.1493  -23.7608   25.9570 C   0  0  0  0  0  0  0  0  0  0  0  0
  -20.0914  -25.0126   25.3084 C   0  0  0  0  0  0  0  0  0  0  0  0
  -22.2388  -21.9888   19.5537 C   0  0  0  0  0  0  0  0  0  0  0  0
  -29.2080  -27.4678   19.2260 C   0  0  0  0  0  0  0  0  0  1  0  0
  -32.0156  -23.4376   17.3039 C   0  0  0  0  0  0  0  0  0  0  0  0
  -21.9924  -24.8106   23.6539 C   0  0  1  0  0  0  0  0  0  0  0  0
  -21.4144  -21.5192   21.8643 C   0  0  2  0  0  0  0  0  0  0  0  0
  -21.6276  -24.9732   25.1565 C   0  0  0  0  0  0  0  0  0  0  0  0
  -35.0057  -24.9090   15.9328 N   0  0  0  0  0  0  0  0  0  0  0  0
  -28.3160  -20.0971   19.4214 N   0  0  0  0  0  0  0  0  0  0  0  0
  -33.1564  -24.2644   16.9799 N   0  0  0  0  0  0  0  0  0  0  0  0
  -27.9489  -21.3855   19.5273 N   0  0  0  0  0  0  0  0  0  0  0  0
  -22.5268  -26.6946   22.1410 N   0  0  0  0  0  0  0  0  0  0  0  0
  -29.7541  -22.8575   16.4935 N   0  0  0  0  0  0  0  0  0  0  0  0
  -26.9141  -22.9411   20.9833 N   0  0  0  0  0  0  0  0  0  0  0  0
  -25.4164  -20.0093   22.8691 N   0  0  0  0  0  0  0  0  0  0  0  0
  -21.6270  -30.1401   22.3631 N   0  0  0  0  0  0  0  0  0  0  0  0
  -21.4333  -23.6167   23.0291 N   0  0  0  0  0  0  0  0  0  0  0  0
  -22.0613  -20.9836   20.6331 N   0  3  0  0  0  0  0  0  0  0  0  0
  -27.4545  -20.5319   23.7812 O   0  0  0  0  0  0  0  0  0  0  0  0
  -23.4296  -28.9390   23.2178 O   0  0  0  0  0  0  0  0  0  0  0  0
  -31.1120  -24.3157   15.2977 O   0  0  0  0  0  0  0  0  0  0  0  0
  -20.3257  -26.2459   22.7657 O   0  0  0  0  0  0  0  0  0  0  0  0
  -23.4593  -22.7045   22.3654 O   0  0  0  0  0  0  0  0  0  0  0  0
  -28.7883  -14.1546   21.6609 O   0  0  0  0  0  0  0  0  0  0  0  0
  -28.3935  -26.8885   20.2445 O   0  0  0  0  0  0  0  0  0  1  0  0
  -30.0703  -10.8698   17.4218 F   0  0  0  0  0  0  0  0  0  0  0  0
  -31.0525  -14.6159   20.1433 F   0  0  0  0  0  0  0  0  0  0  0  0
  1  2  1  0  0  0  0
  1  5  2  0  0  0  0
  2  6  2  0  0  0  0
  3  8  2  0  0  0  0
  3 17  1  0  0  0  0
  4  9  1  0  0  0  0
  4 17  2  0  0  0  0
  5 19  1  0  0  0  0
  6 21  1  0  0  0  0
  7 10  2  0  0  0  0
  7 20  1  0  0  0  0
  8 23  1  0  0  0  0
  9 23  2  0  0  0  0
 10 24  1  0  0  0  0
 11 12  2  0  0  0  0
 11 25  1  0  0  0  0
 12 26  1  0  0  0  0
 13 22  1  0  0  0  0
 13 24  2  0  0  0  0
 14 26  2  0  0  0  0
 14 27  1  0  0  0  0
 15 29  2  0  0  0  0
 15 64  1  0  0  0  0
 16 64  2  0  0  0  0
 16 66  1  0  0  0  0
 17 28  1  0  0  0  0
 18 28  1  0  0  0  0
 18 30  2  0  0  0  0
 18 35  1  0  0  0  0
 19 21  2  0  0  0  0
 19 40  1  0  0  0  0
 20 22  2  0  0  0  0
 20 41  1  0  0  0  0
 21 51  1  0  0  0  0
 22 42  1  0  0  0  0
 23 80  1  0  0  0  0
 24 81  1  0  0  0  0
 25 27  2  0  0  0  0
 25 80  1  0  0  0  0
 26 82  1  0  0  0  0
 27 83  1  0  0  0  0
 28 65  2  0  0  0  0
 29 33  1  0  0  0  0
 29 66  1  0  0  0  0
 30 67  1  0  0  0  0
 30 70  1  0  0  0  0
 31 33  1  0  0  0  0
 31 34  2  0  0  0  0
 32 33  2  0  0  0  0
 32 43  1  0  0  0  0
 34 44  1  0  0  0  0
 34 59  1  0  0  0  0
 35 71  1  0  0  0  0
 35 75  2  0  0  0  0
 36 52  1  0  0  0  0
 36 72  1  0  0  0  0
 36 76  2  0  0  0  0
 37 60  1  0  0  0  0
 37 69  1  0  0  0  0
 37 77  2  0  0  0  0
 38 61  1  0  0  0  0
 38 68  1  0  0  0  0
 38 78  2  0  0  0  0
 39 62  1  0  0  0  0
 39 73  1  0  0  0  0
 39 79  2  0  0  0  0
 40 45  1  0  0  0  0
 41 52  1  0  0  0  0
 42 68  1  0  0  0  0
 43 44  1  0  0  0  0
 45 47  1  0  0  0  0
 46 48  1  0  0  0  0
 46 49  1  0  0  0  0
 47 51  1  0  0  0  0
 48 53  1  0  0  0  0
 49 69  1  0  0  0  0
 50 53  1  0  0  0  0
 50 69  1  0  0  0  0
 51 72  1  0  0  0  0
 52 68  1  0  0  0  0
 53 67  1  0  0  0  0
 54 62  1  0  0  0  0
 55 63  1  0  0  0  0
 56 63  1  0  0  0  0
 57 63  1  0  0  0  0
 58 74  1  0  0  0  0
 59 81  1  0  0  0  0
 60 66  1  0  0  0  0
 61 63  1  0  0  0  0
 61 73  1  0  0  0  0
 62 74  1  0  0  0  0
 65 67  1  0  0  0  0
M  CHG  1  74   1
M  ISO  4  37 100  59 101  60 100  81 101
M  END
> <Batch ID>
0159

> <Smiles>
CNC(C)C(=O)NC(C(=O)N1Cc2cc([101O:1][101CH2:1]C3=CC(c4cncn4[100CH2:0][100C:0](=O)N4CCCC(n5nc(-c6ccc(Oc7ccc(F)cc7F)cc6)c(C(N)=O)c5N)C4)=CCC3)ccc2CC1C(=O)NC1CCCc2ccccc21)C(C)(C)C

> <Shape>
0.199

> <Color>
0.076

> <Negative vol penalty>
0.000

$$$$

  -OEChem-04052303473D

 83 91  0     1  0  0  0  0  0999 V2000
  -25.2783   -2.8259   34.2931 C   0  0  0  0  0  0  0  0  0  0  0  0
  -25.7799   -3.8061   33.4428 C   0  0  0  0  0  0  0  0  0  0  0  0
  -23.1904   -9.8192   19.9321 C   0  0  0  0  0  0  0  0  0  0  0  0
  -23.5687   -9.9998   22.3114 C   0  0  0  0  0  0  0  0  0  0  0  0
  -24.2716   -3.1435   35.2039 C   0  0  0  0  0  0  0  0  0  0  0  0
  -25.2741   -5.1042   33.5020 C   0  0  0  0  0  0  0  0  0  0  0  0
  -28.9209   -8.6165   33.4033 C   0  0  0  0  0  0  0  0  0  0  0  0
  -22.4243   -8.6724   20.1409 C   0  0  0  0  0  0  0  0  0  0  0  0
  -22.8025   -8.8531   22.5203 C   0  0  0  0  0  0  0  0  0  0  0  0
  -29.4945   -8.9041   32.1655 C   0  0  0  0  0  0  0  0  0  0  0  0
  -23.2041   -5.5064   22.2565 C   0  0  0  0  0  0  0  0  0  0  0  0
  -23.7026   -4.5453   23.1358 C   0  0  0  0  0  0  0  0  0  0  0  0
  -30.9657  -13.0737   25.3979 C   0  0  0  0  0  0  0  0  0  0  0  0
  -28.1080  -10.8700   31.9866 C   0  0  0  0  0  0  0  0  0  0  0  0
  -21.7460   -4.8051   24.5291 C   0  0  0  0  0  0  0  0  0  0  0  0
  -23.7627  -10.4829   21.0173 C   0  0  0  0  0  0  0  0  0  0  0  0
  -32.1389  -13.4037   26.1176 C   0  0  0  0  0  0  0  0  0  0  0  0
  -24.1010  -12.9995   20.7734 C   0  0  0  0  0  0  0  0  0  0  0  0
  -23.7600   -4.4484   35.2810 C   0  0  0  0  0  0  0  0  0  0  0  0
  -27.9271   -9.4489   33.9379 C   0  0  0  0  0  0  0  0  0  0  0  0
  -24.2586   -5.4392   34.4137 C   0  0  0  0  0  0  0  0  0  0  0  0
  -27.5252  -10.5921   33.2325 C   0  0  0  0  0  0  0  0  0  0  0  0
  -22.2303   -8.1894   21.4350 C   0  0  0  0  0  0  0  0  0  0  0  0
  -29.0861  -10.0295   31.4557 C   0  0  0  0  0  0  0  0  0  0  0  0
  -21.9765   -6.1170   22.5135 C   0  0  0  0  0  0  0  0  0  0  0  0
  -22.9736   -4.1945   24.2721 C   0  0  0  0  0  0  0  0  0  0  0  0
  -21.2475   -5.7663   23.6498 C   0  0  0  0  0  0  0  0  0  0  0  0
  -24.5546  -11.6672   20.8022 C   0  0  0  0  0  0  0  0  0  0  0  0
  -25.2321  -13.7423   20.5380 C   0  0  0  0  0  0  0  0  0  0  0  0
  -31.3259  -13.0499   24.0706 C   0  0  0  0  0  0  0  0  0  0  0  0
  -33.1323  -13.5578   25.1788 C   0  0  0  0  0  0  0  0  0  0  0  0
  -32.3013  -13.5602   27.5865 C   0  0  0  0  0  0  0  0  0  0  0  0
  -22.7757  -13.5193   20.9441 C   0  0  0  0  0  0  0  0  0  0  0  0
  -24.8763   -9.0672   34.7444 C   0  0  0  0  0  0  0  0  0  0  0  0
  -30.9165  -11.9297   28.9701 C   0  0  0  0  0  0  0  0  0  0  0  0
  -25.2017  -12.0898   35.8757 C   0  0  0  0  0  0  0  0  0  0  0  0
  -26.8637  -15.0678   35.7482 C   0  0  0  0  0  0  0  0  0  0  0  0
  -31.0367  -12.7825   21.5824 C   0  0  0  0  0  0  0  0  0  0  0  0
  -22.6389   -4.7326   36.2490 C   0  0  0  0  0  0  0  0  0  0  0  0
  -27.3373   -9.1394   35.2865 C   0  0  0  0  0  0  0  0  0  0  0  0
  -26.4764  -11.5289   33.7720 C   0  0  0  0  0  0  0  0  0  0  0  0
  -22.4193   -6.2212   36.5067 C   0  0  0  0  0  0  0  0  0  0  0  0
  -29.5241  -13.4638   18.4320 C   0  0  0  0  0  0  0  0  0  0  0  0
  -22.4091   -6.9947   35.1920 C   0  0  0  0  0  0  0  0  0  0  0  0
  -28.0360  -13.2075   18.6813 C   0  0  0  0  0  0  0  0  0  0  0  0
  -30.4054  -12.4789   19.1982 C   0  0  0  0  0  0  0  0  0  0  0  0
  -28.6456  -12.1373   20.8881 C   0  0  0  0  0  0  0  0  0  0  0  0
  -23.7530   -6.8646   34.4650 C   0  0  1  0  0  0  0  0  0  0  0  0
  -25.9664   -9.7741   35.4991 C   0  0  1  0  0  0  0  0  0  0  0  0
  -27.7196  -13.1456   20.1885 C   0  0  2  0  0  0  0  0  0  0  0  0
  -26.8771  -17.3614   36.7663 C   0  0  0  0  0  0  0  0  0  0  0  0
  -22.7678  -12.8460   34.1981 C   0  0  0  0  0  0  0  0  0  0  0  0
  -23.3992  -15.2508   34.4921 C   0  0  0  0  0  0  0  0  0  0  0  0
  -22.8175  -13.8636   36.4821 C   0  0  0  0  0  0  0  0  0  0  0  0
  -29.6037  -14.7081   36.8075 C   0  0  0  0  0  0  0  0  0  0  0  0
  -31.1012  -13.3552   28.4895 C   0  0  0  0  0  0  0  0  0  0  0  0
  -29.7253  -11.6875   29.8751 C   0  0  0  0  0  0  0  0  0  1  0  0
  -25.0174  -13.4728   35.2991 C   0  0  1  0  0  0  0  0  0  0  0  0
  -27.4365  -15.9494   36.8433 C   0  0  2  0  0  0  0  0  0  0  0  0
  -23.5189  -13.8398   35.1065 C   0  0  0  0  0  0  0  0  0  0  0  0
  -25.8712  -11.5663   20.6011 N   0  0  0  0  0  0  0  0  0  0  0  0
  -33.4335  -13.8645   28.1370 N   0  0  0  0  0  0  0  0  0  0  0  0
  -26.2546  -12.8447   20.4435 N   0  0  0  0  0  0  0  0  0  0  0  0
  -25.9252  -11.1800   35.0918 N   0  0  0  0  0  0  0  0  0  0  0  0
  -30.0516  -12.4775   20.6194 N   0  0  0  0  0  0  0  0  0  0  0  0
  -25.4418  -15.0692   20.4046 N   0  0  0  0  0  0  0  0  0  0  0  0
  -34.4414  -13.8700   25.2866 N   0  0  0  0  0  0  0  0  0  0  0  0
  -21.7292  -12.6169   21.1783 N   0  0  0  0  0  0  0  0  0  0  0  0
  -30.5759  -12.7822   22.8985 N   0  0  0  0  0  0  0  0  0  0  0  0
  -24.7413   -7.7312   35.0707 N   0  0  0  0  0  0  0  0  0  0  0  0
  -25.7472  -14.3815   36.1767 N   0  0  0  0  0  0  0  0  0  0  0  0
  -28.9201  -16.0245   36.7248 N   0  3  0  0  0  0  0  0  0  0  0  0
  -22.5243  -14.7463   20.8744 O   0  0  0  0  0  0  0  0  0  0  0  0
  -24.2062   -9.6882   33.9277 O   0  0  0  0  0  0  0  0  0  0  0  0
  -31.6830  -11.0233   28.6469 O   0  0  0  0  0  0  0  0  0  0  0  0
  -24.7275  -11.8287   36.9841 O   0  0  0  0  0  0  0  0  0  0  0  0
  -27.3552  -14.9980   34.6239 O   0  0  0  0  0  0  0  0  0  0  0  0
  -32.1967  -13.0527   21.2610 O   0  0  0  0  0  0  0  0  0  0  0  0
  -32.6450  -13.3437   23.9285 O   0  0  0  0  0  0  0  0  0  0  0  0
  -21.4826   -7.0706   21.6392 O   0  0  0  0  0  0  0  0  0  0  0  0
  -29.6438  -10.3122   30.2470 O   0  0  0  0  0  0  0  0  0  1  0  0
  -23.4517   -3.2704   25.1156 F   0  0  0  0  0  0  0  0  0  0  0  0
  -20.0670   -6.3486   23.9014 F   0  0  0  0  0  0  0  0  0  0  0  0
  1  2  1  0  0  0  0
  1  5  2  0  0  0  0
  2  6  2  0  0  0  0
  3  8  2  0  0  0  0
  3 16  1  0  0  0  0
  4  9  1  0  0  0  0
  4 16  2  0  0  0  0
  5 19  1  0  0  0  0
  6 21  1  0  0  0  0
  7 10  2  0  0  0  0
  7 20  1  0  0  0  0
  8 23  1  0  0  0  0
  9 23  2  0  0  0  0
 10 24  1  0  0  0  0
 11 12  2  0  0  0  0
 11 25  1  0  0  0  0
 12 26  1  0  0  0  0
 13 17  1  0  0  0  0
 13 30  2  0  0  0  0
 14 22  1  0  0  0  0
 14 24  2  0  0  0  0
 15 26  2  0  0  0  0
 15 27  1  0  0  0  0
 16 28  1  0  0  0  0
 17 31  2  0  0  0  0
 17 32  1  0  0  0  0
 18 28  1  0  0  0  0
 18 29  2  0  0  0  0
 18 33  1  0  0  0  0
 19 21  2  0  0  0  0
 19 39  1  0  0  0  0
 20 22  2  0  0  0  0
 20 40  1  0  0  0  0
 21 48  1  0  0  0  0
 22 41  1  0  0  0  0
 23 80  1  0  0  0  0
 24 81  1  0  0  0  0
 25 27  2  0  0  0  0
 25 80  1  0  0  0  0
 26 82  1  0  0  0  0
 27 83  1  0  0  0  0
 28 61  2  0  0  0  0
 29 63  1  0  0  0  0
 29 66  1  0  0  0  0
 30 69  1  0  0  0  0
 30 79  1  0  0  0  0
 31 67  1  0  0  0  0
 31 79  1  0  0  0  0
 32 56  1  0  0  0  0
 32 62  2  0  0  0  0
 33 68  1  0  0  0  0
 33 73  2  0  0  0  0
 34 49  1  0  0  0  0
 34 70  1  0  0  0  0
 34 74  2  0  0  0  0
 35 56  1  0  0  0  0
 35 57  1  0  0  0  0
 35 75  2  0  0  0  0
 36 58  1  0  0  0  0
 36 64  1  0  0  0  0
 36 76  2  0  0  0  0
 37 59  1  0  0  0  0
 37 71  1  0  0  0  0
 37 77  2  0  0  0  0
 38 65  1  0  0  0  0
 38 69  1  0  0  0  0
 38 78  2  0  0  0  0
 39 42  1  0  0  0  0
 40 49  1  0  0  0  0
 41 64  1  0  0  0  0
 42 44  1  0  0  0  0
 43 45  1  0  0  0  0
 43 46  1  0  0  0  0
 44 48  1  0  0  0  0
 45 50  1  0  0  0  0
 46 65  1  0  0  0  0
 47 50  1  0  0  0  0
 47 65  1  0  0  0  0
 48 70  1  0  0  0  0
 49 64  1  0  0  0  0
 50 63  1  0  0  0  0
 51 59  1  0  0  0  0
 52 60  1  0  0  0  0
 53 60  1  0  0  0  0
 54 60  1  0  0  0  0
 55 72  1  0  0  0  0
 57 81  1  0  0  0  0
 58 60  1  0  0  0  0
 58 71  1  0  0  0  0
 59 72  1  0  0  0  0
 61 63  1  0  0  0  0
M  CHG  1  72   1
M  ISO  4  38 100  57 101  69 100  81 101
M  END
> <Batch ID>
0159

> <Smiles>
CNC(C)C(=O)NC(C(=O)N1Cc2cc([101O:1][101CH2:1]C(=O)CC(=N)c3cc([100NH:0][100C:0](=O)N4CCCC(n5nc(-c6ccc(Oc7ccc(F)cc7F)cc6)c(C(N)=O)c5N)C4)oc3N)ccc2CC1C(=O)NC1CCCc2ccccc21)C(C)(C)C

> <Shape>
0.140

> <Color>
0.168

> <Negative vol penalty>
0.000

$$$$

  -OEChem-04052303473D

 85 94  0     1  0  0  0  0  0999 V2000
  -18.2135  -22.1630   20.9886 C   0  0  0  0  0  0  0  0  0  0  0  0
  -19.5902  -22.2578   20.8124 C   0  0  0  0  0  0  0  0  0  0  0  0
  -26.2979  -13.7579   21.9388 C   0  0  0  0  0  0  0  0  0  0  0  0
  -25.6920  -14.8922   19.8935 C   0  0  0  0  0  0  0  0  0  0  0  0
  -17.3952  -23.2467   20.6725 C   0  0  0  0  0  0  0  0  0  0  0  0
  -20.1494  -23.4360   20.3188 C   0  0  0  0  0  0  0  0  0  0  0  0
  -25.5655  -25.8584   21.8366 C   0  0  0  0  0  0  0  0  0  0  0  0
  -25.1256  -13.0054   21.8688 C   0  0  0  0  0  0  0  0  0  0  0  0
  -24.5197  -14.1396   19.8234 C   0  0  0  0  0  0  0  0  0  0  0  0
  -26.8158  -25.8202   21.2208 C   0  0  0  0  0  0  0  0  0  0  0  0
  -23.9967  -10.3046   20.1763 C   0  0  0  0  0  0  0  0  0  0  0  0
  -24.0908   -8.9342   20.4182 C   0  0  0  0  0  0  0  0  0  0  0  0
  -26.3609  -27.9478   20.1790 C   0  0  0  0  0  0  0  0  0  0  0  0
  -22.5624   -9.1572   22.2760 C   0  0  0  0  0  0  0  0  0  0  0  0
  -30.5676  -22.4951   17.8344 C   0  0  0  0  0  0  0  0  0  0  0  0
  -26.5811  -14.7014   20.9512 C   0  0  0  0  0  0  0  0  0  0  0  0
  -29.0453  -15.1545   20.4714 C   0  0  0  0  0  0  0  0  0  0  0  0
  -17.9455  -24.4422   20.1840 C   0  0  0  0  0  0  0  0  0  0  0  0
  -24.6977  -26.9382   21.6192 C   0  0  0  0  0  0  0  0  0  0  0  0
  -19.3376  -24.5362   19.9946 C   0  0  0  0  0  0  0  0  0  0  0  0
  -25.1012  -27.9986   20.7952 C   0  0  0  0  0  0  0  0  0  0  0  0
  -24.2365  -13.1962   20.8111 C   0  0  0  0  0  0  0  0  0  0  0  0
  -27.2125  -26.8636   20.3896 C   0  0  0  0  0  0  0  0  0  0  0  0
  -23.1855  -11.1015   20.9843 C   0  0  0  0  0  0  0  0  0  0  0  0
  -23.3736   -8.3604   21.4680 C   0  0  0  0  0  0  0  0  0  0  0  0
  -22.4684  -10.5277   22.0341 C   0  0  0  0  0  0  0  0  0  0  0  0
  -27.7917  -15.4795   21.0233 C   0  0  0  0  0  0  0  0  0  0  0  0
  -30.4151  -22.6851   19.1855 C   0  0  0  0  0  0  0  0  0  0  0  0
  -29.8556  -16.2089   20.8151 C   0  0  0  0  0  0  0  0  0  0  0  0
  -31.3001  -24.4238   18.3999 C   0  0  0  0  0  0  0  0  0  0  0  0
  -29.4419  -14.0025   19.7156 C   0  0  0  0  0  0  0  0  0  0  0  0
  -21.7996  -27.2677   20.3558 C   0  0  0  0  0  0  0  0  0  0  0  0
  -22.1246  -30.3268   21.3848 C   0  0  0  0  0  0  0  0  0  0  0  0
  -24.2094  -32.8819   22.2635 C   0  0  0  0  0  0  0  0  0  0  0  0
  -29.6958  -21.9437   21.4831 C   0  0  0  0  0  0  0  0  0  0  0  0
  -17.0163  -25.5702   19.8115 C   0  0  0  0  0  0  0  0  0  0  0  0
  -23.3632  -26.9772   22.3120 C   0  0  0  0  0  0  0  0  0  0  0  0
  -24.2149  -29.1904   20.5453 C   0  0  0  0  0  0  0  0  0  0  0  0
  -17.7235  -26.9130   19.6474 C   0  0  0  0  0  0  0  0  0  0  0  0
  -29.6996  -19.7390   24.2789 C   0  0  0  0  0  0  0  0  0  0  0  0
  -32.8084  -28.4041   19.1381 C   0  0  0  0  0  0  0  0  0  0  0  0
  -18.9860  -26.7522   18.8065 C   0  0  0  0  0  0  0  0  0  0  0  0
  -33.8218  -27.3175   18.8191 C   0  0  0  0  0  0  0  0  0  0  0  0
  -29.3308  -18.3834   23.6721 C   0  0  0  0  0  0  0  0  0  0  0  0
  -28.9490  -20.8856   23.6039 C   0  0  0  0  0  0  0  0  0  0  0  0
  -28.6986  -19.5734   21.5340 C   0  0  0  0  0  0  0  0  0  0  0  0
  -31.5764  -28.2698   18.2657 C   0  0  0  0  0  0  0  0  0  0  0  0
  -19.9840  -25.8061   19.4851 C   0  0  1  0  0  0  0  0  0  0  0  0
  -31.9181  -25.7513   18.1389 C   0  0  2  0  0  0  0  0  0  0  0  0
  -22.3525  -27.8801   21.6116 C   0  0  1  0  0  0  0  0  0  0  0  0
  -33.2141  -25.9173   18.9833 C   0  0  1  0  0  0  0  0  0  0  0  0
  -29.4781  -18.3939   22.1379 C   0  0  2  0  0  0  0  0  0  0  0  0
  -34.2753  -24.8721   18.6107 C   0  0  0  0  0  0  0  0  0  0  0  0
  -24.1828  -35.2733   23.0235 C   0  0  0  0  0  0  0  0  0  0  0  0
  -21.4698  -31.2205   18.5418 C   0  0  0  0  0  0  0  0  0  0  0  0
  -22.3751  -33.4823   19.1189 C   0  0  0  0  0  0  0  0  0  0  0  0
  -20.3925  -32.5859   20.3389 C   0  0  0  0  0  0  0  0  0  0  0  0
  -25.5668  -32.2102   24.8062 C   0  0  0  0  0  0  0  0  0  0  0  0
  -29.6471  -26.8192   17.7117 C   0  0  0  0  0  0  0  0  0  0  0  0
  -28.5510  -27.4810   18.5233 C   0  0  0  0  0  0  0  0  0  1  0  0
  -22.6764  -31.6010   20.7925 C   0  0  1  0  0  0  0  0  0  0  0  0
  -24.2086  -33.8166   23.4596 C   0  0  2  0  0  0  0  0  0  0  0  0
  -21.7446  -32.1992   19.7010 C   0  0  0  0  0  0  0  0  0  0  0  0
  -27.7999  -16.6489   21.6687 N   0  0  0  0  0  0  0  0  0  0  0  0
  -30.8866  -23.9227   19.5419 N   0  0  0  0  0  0  0  0  0  0  0  0
  -29.0687  -17.0678   21.5246 N   0  0  0  0  0  0  0  0  0  0  0  0
  -22.9171  -29.1792   21.2404 N   0  0  0  0  0  0  0  0  0  0  0  0
  -29.1380  -20.8340   22.1526 N   0  0  0  0  0  0  0  0  0  0  0  0
  -31.1572  -16.4759   20.5767 N   0  0  0  0  0  0  0  0  0  0  0  0
  -28.4839  -13.0140   19.4521 N   0  0  0  0  0  0  0  0  0  0  0  0
  -29.8578  -21.7668   20.1095 N   0  0  0  0  0  0  0  0  0  0  0  0
  -20.6772  -26.4872   20.5574 N   0  0  0  0  0  0  0  0  0  0  0  0
  -22.9321  -32.4961   21.9159 N   0  0  0  0  0  0  0  0  0  0  0  0
  -30.9286  -26.9058   18.4564 N   0  3  2  0  0  0  0  0  0  0  0  0
  -25.4261  -33.5961   24.2901 N   0  3  0  0  0  0  0  0  0  0  0  0
  -30.6153  -13.8463   19.3006 O   0  0  0  0  0  0  0  0  0  0  0  0
  -22.3496  -27.4882   19.2832 O   0  0  0  0  0  0  0  0  0  0  0  0
  -21.0341  -30.3503   21.9609 O   0  0  0  0  0  0  0  0  0  0  0  0
  -25.2398  -32.5321   21.6921 O   0  0  0  0  0  0  0  0  0  0  0  0
  -30.0321  -22.9649   22.0883 O   0  0  0  0  0  0  0  0  0  0  0  0
  -31.1405  -23.6167   17.3155 O   0  0  0  0  0  0  0  0  0  0  0  0
  -23.0926  -12.4618   20.7423 O   0  0  0  0  0  0  0  0  0  0  0  0
  -28.4320  -26.8285   19.7868 O   0  0  0  0  0  0  0  0  0  1  0  0
  -23.4628   -7.0441   21.6992 F   0  0  0  0  0  0  0  0  0  0  0  0
  -21.6865  -11.2879   22.8129 F   0  0  0  0  0  0  0  0  0  0  0  0
  1  2  1  0  0  0  0
  1  5  2  0  0  0  0
  2  6  2  0  0  0  0
  3  8  2  0  0  0  0
  3 16  1  0  0  0  0
  4  9  1  0  0  0  0
  4 16  2  0  0  0  0
  5 18  1  0  0  0  0
  6 20  1  0  0  0  0
  7 10  2  0  0  0  0
  7 19  1  0  0  0  0
  8 22  1  0  0  0  0
  9 22  2  0  0  0  0
 10 23  1  0  0  0  0
 11 12  2  0  0  0  0
 11 24  1  0  0  0  0
 12 25  1  0  0  0  0
 13 21  1  0  0  0  0
 13 23  2  0  0  0  0
 14 25  2  0  0  0  0
 14 26  1  0  0  0  0
 15 28  2  0  0  0  0
 15 81  1  0  0  0  0
 16 27  1  0  0  0  0
 17 27  1  0  0  0  0
 17 29  2  0  0  0  0
 17 31  1  0  0  0  0
 18 20  2  0  0  0  0
 18 36  1  0  0  0  0
 19 21  2  0  0  0  0
 19 37  1  0  0  0  0
 20 48  1  0  0  0  0
 21 38  1  0  0  0  0
 22 82  1  0  0  0  0
 23 83  1  0  0  0  0
 24 26  2  0  0  0  0
 24 82  1  0  0  0  0
 25 84  1  0  0  0  0
 26 85  1  0  0  0  0
 27 64  2  0  0  0  0
 28 65  1  0  0  0  0
 28 71  1  0  0  0  0
 29 66  1  0  0  0  0
 29 69  1  0  0  0  0
 30 49  1  0  0  0  0
 30 65  2  0  0  0  0
 30 81  1  0  0  0  0
 31 70  1  0  0  0  0
 31 76  2  0  0  0  0
 32 50  1  0  0  0  0
 32 72  1  0  0  0  0
 32 77  2  0  0  0  0
 33 61  1  0  0  0  0
 33 67  1  0  0  0  0
 33 78  2  0  0  0  0
 34 62  1  0  0  0  0
 34 73  1  0  0  0  0
 34 79  2  0  0  0  0
 35 68  1  0  0  0  0
 35 71  1  0  0  0  0
 35 80  2  0  0  0  0
 36 39  1  0  0  0  0
 37 50  1  0  0  0  0
 38 67  1  0  0  0  0
 39 42  1  0  0  0  0
 40 44  1  0  0  0  0
 40 45  1  0  0  0  0
 41 43  1  0  0  0  0
 41 47  1  0  0  0  0
 42 48  1  0  0  0  0
 43 51  1  0  0  0  0
 44 52  1  0  0  0  0
 45 68  1  0  0  0  0
 46 52  1  0  0  0  0
 46 68  1  0  0  0  0
 47 74  1  0  0  0  0
 48 72  1  0  0  0  0
 49 51  1  0  0  0  0
 49 74  1  0  0  0  0
 50 67  1  0  0  0  0
 51 53  1  0  0  0  0
 52 66  1  0  0  0  0
 54 62  1  0  0  0  0
 55 63  1  0  0  0  0
 56 63  1  0  0  0  0
 57 63  1  0  0  0  0
 58 75  1  0  0  0  0
 59 60  1  0  0  0  0
 59 74  1  0  0  0  0
 60 83  1  0  0  0  0
 61 63  1  0  0  0  0
 61 73  1  0  0  0  0
 62 75  1  0  0  0  0
 64 66  1  0  0  0  0
M  CHG  2  74   1  75   1
M  ISO  4  35 100  60 101  71 100  83 101
M  END
> <Batch ID>
0159

> <Smiles>
CNC(C)C(=O)NC(C(=O)N1Cc2cc([101O:1][101CH2:1]CN3CCCC(C)C3c3nc([100NH:0][100C:0](=O)N4CCCC(n5nc(-c6ccc(Oc7ccc(F)cc7F)cc6)c(C(N)=O)c5N)C4)co3)ccc2CC1C(=O)NC1CCCc2ccccc21)C(C)(C)C

> <Shape>
0.265

> <Color>
0.058

> <Negative vol penalty>
0.000

$$$$

  -OEChem-04052303473D

 83 91  0     1  0  0  0  0  0999 V2000
  -16.8124  -30.4025   23.4969 C   0  0  0  0  0  0  0  0  0  0  0  0
  -18.0155  -31.0961   23.4133 C   0  0  0  0  0  0  0  0  0  0  0  0
  -26.0346  -13.0118   21.4626 C   0  0  0  0  0  0  0  0  0  0  0  0
  -27.9184  -11.9517   20.3835 C   0  0  0  0  0  0  0  0  0  0  0  0
  -16.8091  -29.0086   23.4662 C   0  0  0  0  0  0  0  0  0  0  0  0
  -19.2161  -30.3960   23.3002 C   0  0  0  0  0  0  0  0  0  0  0  0
  -25.7143  -30.9010   20.3278 C   0  0  0  0  0  0  0  0  0  0  0  0
  -25.1793  -12.0643   20.9002 C   0  0  0  0  0  0  0  0  0  0  0  0
  -27.0631  -11.0042   19.8211 C   0  0  0  0  0  0  0  0  0  0  0  0
  -27.0637  -30.8120   20.6669 C   0  0  0  0  0  0  0  0  0  0  0  0
  -24.2847   -8.8567   21.4865 C   0  0  0  0  0  0  0  0  0  0  0  0
  -23.3181   -8.2843   22.3132 C   0  0  0  0  0  0  0  0  0  0  0  0
  -26.9296  -28.4065   20.5441 C   0  0  0  0  0  0  0  0  0  0  0  0
  -21.5785   -9.1355   20.8687 C   0  0  0  0  0  0  0  0  0  0  0  0
  -30.3524  -24.4602   19.5276 C   0  0  0  0  0  0  0  0  0  0  0  0
  -27.4042  -12.9555   21.2042 C   0  0  0  0  0  0  0  0  0  0  0  0
  -28.9518  -13.8520   23.0232 C   0  0  0  0  0  0  0  0  0  0  0  0
  -18.0095  -28.2913   23.3429 C   0  0  0  0  0  0  0  0  0  0  0  0
  -24.9585  -29.7412   20.1046 C   0  0  0  0  0  0  0  0  0  0  0  0
  -19.2290  -28.9912   23.2691 C   0  0  0  0  0  0  0  0  0  0  0  0
  -25.5715  -28.4837   20.1998 C   0  0  0  0  0  0  0  0  0  0  0  0
  -25.6935  -11.0605   20.0794 C   0  0  0  0  0  0  0  0  0  0  0  0
  -27.6709  -29.5645   20.7780 C   0  0  0  0  0  0  0  0  0  0  0  0
  -23.8983   -9.5686   20.3509 C   0  0  0  0  0  0  0  0  0  0  0  0
  -21.9650   -8.4236   22.0043 C   0  0  0  0  0  0  0  0  0  0  0  0
  -22.5452   -9.7080   20.0420 C   0  0  0  0  0  0  0  0  0  0  0  0
  -28.2882  -13.9343   21.7844 C   0  0  0  0  0  0  0  0  0  0  0  0
  -30.0185  -23.8946   20.7403 C   0  0  0  0  0  0  0  0  0  0  0  0
  -29.6625  -15.0241   23.1106 C   0  0  0  0  0  0  0  0  0  0  0  0
  -30.8693  -26.1464   20.8313 C   0  0  0  0  0  0  0  0  0  0  0  0
  -29.5021  -22.6163   21.0289 C   0  0  0  0  0  0  0  0  0  0  0  0
  -29.2282  -21.6102   20.1292 C   0  0  0  0  0  0  0  0  0  0  0  0
  -28.9280  -12.8092   24.0070 C   0  0  0  0  0  0  0  0  0  0  0  0
  -28.6953  -20.3129   20.5916 C   0  0  0  0  0  0  0  0  0  0  0  0
  -22.4093  -28.4267   21.4749 C   0  0  0  0  0  0  0  0  0  0  0  0
  -22.6386  -26.3416   19.0005 C   0  0  0  0  0  0  0  0  0  0  0  0
  -31.7541  -28.3474   20.3537 C   0  0  0  0  0  0  0  0  0  0  0  0
  -24.5967  -24.8685   16.6251 C   0  0  0  0  0  0  0  0  0  0  0  0
  -17.9597  -26.7841   23.3616 C   0  0  0  0  0  0  0  0  0  0  0  0
  -23.5106  -29.8551   19.7134 C   0  0  0  0  0  0  0  0  0  0  0  0
  -24.8091  -27.2089   19.9503 C   0  0  0  0  0  0  0  0  0  0  0  0
  -19.2435  -26.1260   22.8626 C   0  0  0  0  0  0  0  0  0  0  0  0
  -31.7794  -18.3411   20.4141 C   0  0  0  0  0  0  0  0  0  0  0  0
  -20.4633  -26.7845   23.4992 C   0  0  0  0  0  0  0  0  0  0  0  0
  -31.2690  -16.9606   20.8184 C   0  0  0  0  0  0  0  0  0  0  0  0
  -30.7363  -19.1266   19.6207 C   0  0  0  0  0  0  0  0  0  0  0  0
  -28.9113  -17.8615   20.7203 C   0  0  0  0  0  0  0  0  0  0  0  0
  -20.5499  -28.2679   23.1205 C   0  0  1  0  0  0  0  0  0  0  0  0
  -22.7098  -28.5914   20.0119 C   0  0  1  0  0  0  0  0  0  0  0  0
  -29.9275  -17.0719   21.5601 C   0  0  1  0  0  0  0  0  0  0  0  0
  -32.4043  -27.8246   19.1200 C   0  0  0  0  0  0  0  0  0  0  0  0
  -24.5112  -23.1767   14.7737 C   0  0  0  0  0  0  0  0  0  0  0  0
  -22.6377  -24.0908   21.0606 C   0  0  0  0  0  0  0  0  0  0  0  0
  -23.4953  -22.5544   19.2795 C   0  0  0  0  0  0  0  0  0  0  0  0
  -21.2636  -23.6384   19.0206 C   0  0  0  0  0  0  0  0  0  0  0  0
  -25.3565  -26.8820   14.5935 C   0  0  0  0  0  0  0  0  0  0  0  0
  -31.1378  -30.3957   21.6439 C   0  0  0  0  0  0  0  0  0  0  0  0
  -29.6869  -30.6991   21.3296 C   0  0  0  0  0  0  0  0  0  1  0  0
  -23.3564  -25.0342   18.7672 C   0  0  1  0  0  0  0  0  0  0  0  0
  -24.3826  -24.6474   15.1386 C   0  0  2  0  0  0  0  0  0  0  0  0
  -22.7024  -23.8532   19.5386 C   0  0  0  0  0  0  0  0  0  0  0  0
  -30.8401  -25.7515   19.5777 N   0  0  0  0  0  0  0  0  0  0  0  0
  -28.5535  -15.0690   21.1317 N   0  0  0  0  0  0  0  0  0  0  0  0
  -29.3916  -15.7106   21.9636 N   0  0  0  0  0  0  0  0  0  0  0  0
  -29.4453  -19.1692   20.3237 N   0  0  0  0  0  0  0  0  0  0  0  0
  -23.3945  -27.3724   19.5767 N   0  0  0  0  0  0  0  0  0  0  0  0
  -30.4863  -15.5242   24.0559 N   0  0  0  0  0  0  0  0  0  0  0  0
  -28.1454  -11.6736   23.7581 N   0  0  0  0  0  0  0  0  0  0  0  0
  -31.3108  -27.3952   21.1855 N   0  0  0  0  0  0  0  0  0  0  0  0
  -21.0604  -28.4169   21.7746 N   0  0  0  0  0  0  0  0  0  0  0  0
  -23.4065  -24.8485   17.3210 N   0  0  0  0  0  0  0  0  0  0  0  0
  -31.7258  -29.6795   20.5092 N   0  3  0  0  0  0  0  0  0  0  0  0
  -25.3868  -25.4167   14.3506 N   0  3  0  0  0  0  0  0  0  0  0  0
  -29.5685  -12.8897   25.0826 O   0  0  0  0  0  0  0  0  0  0  0  0
  -27.6144  -20.3207   21.1836 O   0  0  0  0  0  0  0  0  0  0  0  0
  -23.3329  -28.3151   22.2725 O   0  0  0  0  0  0  0  0  0  0  0  0
  -21.4530  -26.4468   18.6767 O   0  0  0  0  0  0  0  0  0  0  0  0
  -25.7089  -25.0380   17.1200 O   0  0  0  0  0  0  0  0  0  0  0  0
  -24.8592  -10.1357   19.5306 O   0  0  0  0  0  0  0  0  0  0  0  0
  -28.9876  -29.4748   21.1095 O   0  0  0  0  0  0  0  0  0  1  0  0
  -21.0369   -7.8725   22.7975 F   0  0  0  0  0  0  0  0  0  0  0  0
  -22.1679  -10.3898   18.9518 F   0  0  0  0  0  0  0  0  0  0  0  0
  -30.3252  -25.0154   22.0017 S   0  0  0  0  0  0  0  0  0  0  0  0
  1  2  1  0  0  0  0
  1  5  2  0  0  0  0
  2  6  2  0  0  0  0
  3  8  2  0  0  0  0
  3 16  1  0  0  0  0
  4  9  1  0  0  0  0
  4 16  2  0  0  0  0
  5 18  1  0  0  0  0
  6 20  1  0  0  0  0
  7 10  2  0  0  0  0
  7 19  1  0  0  0  0
  8 22  1  0  0  0  0
  9 22  2  0  0  0  0
 10 23  1  0  0  0  0
 11 12  2  0  0  0  0
 11 24  1  0  0  0  0
 12 25  1  0  0  0  0
 13 21  1  0  0  0  0
 13 23  2  0  0  0  0
 14 25  2  0  0  0  0
 14 26  1  0  0  0  0
 15 28  2  0  0  0  0
 15 62  1  0  0  0  0
 16 27  1  0  0  0  0
 17 27  1  0  0  0  0
 17 29  2  0  0  0  0
 17 33  1  0  0  0  0
 18 20  2  0  0  0  0
 18 39  1  0  0  0  0
 19 21  2  0  0  0  0
 19 40  1  0  0  0  0
 20 48  1  0  0  0  0
 21 41  1  0  0  0  0
 22 79  1  0  0  0  0
 23 80  1  0  0  0  0
 24 26  2  0  0  0  0
 24 79  1  0  0  0  0
 25 81  1  0  0  0  0
 26 82  1  0  0  0  0
 27 63  2  0  0  0  0
 28 31  1  0  0  0  0
 28 83  1  0  0  0  0
 29 64  1  0  0  0  0
 29 67  1  0  0  0  0
 30 62  2  0  0  0  0
 30 69  1  0  0  0  0
 30 83  1  0  0  0  0
 31 32  2  0  0  0  0
 32 34  1  0  0  0  0
 33 68  1  0  0  0  0
 33 74  2  0  0  0  0
 34 65  1  0  0  0  0
 34 75  2  0  0  0  0
 35 49  1  0  0  0  0
 35 70  1  0  0  0  0
 35 76  2  0  0  0  0
 36 59  1  0  0  0  0
 36 66  1  0  0  0  0
 36 77  2  0  0  0  0
 37 51  1  0  0  0  0
 37 69  1  0  0  0  0
 37 72  2  0  0  0  0
 38 60  1  0  0  0  0
 38 71  1  0  0  0  0
 38 78  2  0  0  0  0
 39 42  1  0  0  0  0
 40 49  1  0  0  0  0
 41 66  1  0  0  0  0
 42 44  1  0  0  0  0
 43 45  1  0  0  0  0
 43 46  1  0  0  0  0
 44 48  1  0  0  0  0
 45 50  1  0  0  0  0
 46 65  1  0  0  0  0
 47 50  1  0  0  0  0
 47 65  1  0  0  0  0
 48 70  1  0  0  0  0
 49 66  1  0  0  0  0
 50 64  1  0  0  0  0
 52 60  1  0  0  0  0
 53 61  1  0  0  0  0
 54 61  1  0  0  0  0
 55 61  1  0  0  0  0
 56 73  1  0  0  0  0
 57 58  1  0  0  0  0
 57 72  1  0  0  0  0
 58 80  1  0  0  0  0
 59 61  1  0  0  0  0
 59 71  1  0  0  0  0
 60 73  1  0  0  0  0
 63 64  1  0  0  0  0
M  CHG  2  72   1  73   1
M  ISO  4  32 100  34 100  58 101  80 101
M  END
> <Batch ID>
0159

> <Smiles>
CNC(C)C(=O)NC(C(=O)N1Cc2cc([101O:1][101CH2:1]CN=C(C)Nc3ncc(C=[100CH:0][100C:0](=O)N4CCCC(n5nc(-c6ccc(Oc7ccc(F)cc7F)cc6)c(C(N)=O)c5N)C4)s3)ccc2CC1C(=O)NC1CCCc2ccccc21)C(C)(C)C

> <Shape>
0.298

> <Color>
0.078

> <Negative vol penalty>
0.000

$$$$

  -OEChem-04052303473D

 83 91  0     1  0  0  0  0  0999 V2000
  -18.3187  -25.6117   19.7176 C   0  0  0  0  0  0  0  0  0  0  0  0
  -19.2518  -24.7285   20.2512 C   0  0  0  0  0  0  0  0  0  0  0  0
  -23.1319   -9.8125   19.8860 C   0  0  0  0  0  0  0  0  0  0  0  0
  -23.9667   -9.7126   22.1510 C   0  0  0  0  0  0  0  0  0  0  0  0
  -18.2229  -26.9093   20.2185 C   0  0  0  0  0  0  0  0  0  0  0  0
  -20.0904  -25.1428   21.2854 C   0  0  0  0  0  0  0  0  0  0  0  0
  -22.1579  -21.7380   25.9370 C   0  0  0  0  0  0  0  0  0  0  0  0
  -22.4488   -8.6128   20.0848 C   0  0  0  0  0  0  0  0  0  0  0  0
  -23.2835   -8.5129   22.3499 C   0  0  0  0  0  0  0  0  0  0  0  0
  -23.3657  -21.0748   26.1497 C   0  0  0  0  0  0  0  0  0  0  0  0
  -20.1158   -7.5304   22.9986 C   0  0  0  0  0  0  0  0  0  0  0  0
  -19.4008   -7.3829   24.1871 C   0  0  0  0  0  0  0  0  0  0  0  0
  -24.1743  -22.9647   27.4121 C   0  0  0  0  0  0  0  0  0  0  0  0
  -29.6992  -17.4960   23.3487 C   0  0  0  0  0  0  0  0  0  0  0  0
  -31.8880  -16.7895   22.6453 C   0  0  0  0  0  0  0  0  0  0  0  0
  -20.7508   -5.4632   24.7611 C   0  0  0  0  0  0  0  0  0  0  0  0
  -23.8910  -10.3624   20.9190 C   0  0  0  0  0  0  0  0  0  0  0  0
  -24.1162  -12.9033   20.9490 C   0  0  0  0  0  0  0  0  0  0  0  0
  -19.0541  -27.3368   21.2658 C   0  0  0  0  0  0  0  0  0  0  0  0
  -21.9530  -23.0261   26.4520 C   0  0  0  0  0  0  0  0  0  0  0  0
  -20.0065  -26.4478   21.7998 C   0  0  0  0  0  0  0  0  0  0  0  0
  -22.9621  -23.6410   27.2068 C   0  0  0  0  0  0  0  0  0  0  0  0
  -30.5046  -16.7168   22.5255 C   0  0  0  0  0  0  0  0  0  0  0  0
  -22.5245   -7.9630   21.3168 C   0  0  0  0  0  0  0  0  0  0  0  0
  -24.3752  -21.6893   26.8848 C   0  0  0  0  0  0  0  0  0  0  0  0
  -21.1483   -6.6442   22.6912 C   0  0  0  0  0  0  0  0  0  0  0  0
  -19.7183   -6.3493   25.0683 C   0  0  0  0  0  0  0  0  0  0  0  0
  -21.4658   -5.6107   23.5725 C   0  0  0  0  0  0  0  0  0  0  0  0
  -24.5974  -11.6014   20.7140 C   0  0  0  0  0  0  0  0  0  0  0  0
  -30.3214  -18.3250   24.2682 C   0  0  0  0  0  0  0  0  0  0  0  0
  -32.4122  -17.6503   23.5961 C   0  0  0  0  0  0  0  0  0  0  0  0
  -25.1613  -13.7237   20.6009 C   0  0  0  0  0  0  0  0  0  0  0  0
  -22.8387  -13.3326   21.4383 C   0  0  0  0  0  0  0  0  0  0  0  0
  -21.3791  -25.8837   25.1837 C   0  0  0  0  0  0  0  0  0  0  0  0
  -27.4949  -20.0385   26.0449 C   0  0  0  0  0  0  0  0  0  0  0  0
  -21.0283  -26.7589   28.2874 C   0  0  0  0  0  0  0  0  0  0  0  0
  -21.7462  -26.1509   31.5680 C   0  0  0  0  0  0  0  0  0  0  0  0
  -30.5784  -15.0090   20.6751 C   0  0  0  0  0  0  0  0  0  0  0  0
  -18.9461  -28.7637   21.7422 C   0  0  0  0  0  0  0  0  0  0  0  0
  -20.6346  -23.7173   26.2364 C   0  0  0  0  0  0  0  0  0  0  0  0
  -22.7844  -25.0147   27.7983 C   0  0  0  0  0  0  0  0  0  0  0  0
  -19.6155  -29.0074   23.0922 C   0  0  0  0  0  0  0  0  0  0  0  0
  -29.4941  -12.6974   18.1935 C   0  0  0  0  0  0  0  0  0  0  0  0
  -21.0021  -28.3724   23.1230 C   0  0  0  0  0  0  0  0  0  0  0  0
  -28.0839  -12.3133   18.6474 C   0  0  0  0  0  0  0  0  0  0  0  0
  -30.4376  -12.8936   19.3789 C   0  0  0  0  0  0  0  0  0  0  0  0
  -28.5474  -13.4418   20.8607 C   0  0  0  0  0  0  0  0  0  0  0  0
  -20.9169  -26.8524   22.9389 C   0  0  1  0  0  0  0  0  0  0  0  0
  -20.7261  -25.2342   26.3709 C   0  0  1  0  0  0  0  0  0  0  0  0
  -27.5446  -13.2969   19.7044 C   0  0  2  0  0  0  0  0  0  0  0  0
  -21.3494  -27.0608   33.8727 C   0  0  0  0  0  0  0  0  0  0  0  0
  -23.0735  -28.9626   27.7669 C   0  0  0  0  0  0  0  0  0  0  0  0
  -23.3409  -29.2036   30.2445 C   0  0  0  0  0  0  0  0  0  0  0  0
  -21.1304  -29.6555   29.1806 C   0  0  0  0  0  0  0  0  0  0  0  0
  -20.3668  -23.6792   32.4322 C   0  0  0  0  0  0  0  0  0  0  0  0
  -28.0658  -19.0825   25.0192 C   0  0  0  0  0  0  0  0  0  0  0  0
  -25.9817  -20.1284   26.0856 C   0  0  0  0  0  0  0  0  0  1  0  0
  -21.9532  -27.2720   29.3646 C   0  0  1  0  0  0  0  0  0  0  0  0
  -20.8609  -26.0998   32.8001 C   0  0  2  0  0  0  0  0  0  0  0  0
  -22.3789  -28.7483   29.1265 C   0  0  0  0  0  0  0  0  0  0  0  0
  -25.8507  -11.5904   20.2522 N   0  0  0  0  0  0  0  0  0  0  0  0
  -31.6619  -18.4226   24.4136 N   0  0  0  0  0  0  0  0  0  0  0  0
  -26.1657  -12.8956   20.1941 N   0  0  0  0  0  0  0  0  0  0  0  0
  -21.4799  -25.6522   27.5546 N   0  0  0  0  0  0  0  0  0  0  0  0
  -29.8629  -13.8410   20.3365 N   0  0  0  0  0  0  0  0  0  0  0  0
  -25.3098  -15.0655   20.6061 N   0  0  0  0  0  0  0  0  0  0  0  0
  -21.8799  -12.3583   21.7479 N   0  0  0  0  0  0  0  0  0  0  0  0
  -29.9182  -15.8505   21.5698 N   0  0  0  0  0  0  0  0  0  0  0  0
  -29.5049  -19.0979   25.0813 N   0  0  0  0  0  0  0  0  0  0  0  0
  -20.5004  -26.2167   24.1705 N   0  0  0  0  0  0  0  0  0  0  0  0
  -21.2687  -27.0446   30.6327 N   0  0  0  0  0  0  0  0  0  0  0  0
  -20.8485  -24.7238   33.3723 N   0  3  0  0  0  0  0  0  0  0  0  0
  -22.5501  -14.5450   21.5807 O   0  0  0  0  0  0  0  0  0  0  0  0
  -22.5902  -26.0704   25.1873 O   0  0  0  0  0  0  0  0  0  0  0  0
  -28.2022  -20.7038   26.8005 O   0  0  0  0  0  0  0  0  0  0  0  0
  -19.9420  -27.3150   28.1078 O   0  0  0  0  0  0  0  0  0  0  0  0
  -22.7619  -25.4692   31.4487 O   0  0  0  0  0  0  0  0  0  0  0  0
  -31.6827  -15.2586   20.1849 O   0  0  0  0  0  0  0  0  0  0  0  0
  -21.8578   -6.7925   21.5113 O   0  0  0  0  0  0  0  0  0  0  0  0
  -25.5553  -21.0444   27.0933 O   0  0  0  0  0  0  0  0  0  1  0  0
  -19.0326   -6.2088   26.2104 F   0  0  0  0  0  0  0  0  0  0  0  0
  -22.4575   -4.7570   23.2833 F   0  0  0  0  0  0  0  0  0  0  0  0
  -33.7459  -17.7307   23.7217 F   0  0  0  0  0  0  0  0  0  0  0  0
  1  2  1  0  0  0  0
  1  5  2  0  0  0  0
  2  6  2  0  0  0  0
  3  8  2  0  0  0  0
  3 17  1  0  0  0  0
  4  9  1  0  0  0  0
  4 17  2  0  0  0  0
  5 19  1  0  0  0  0
  6 21  1  0  0  0  0
  7 10  2  0  0  0  0
  7 20  1  0  0  0  0
  8 24  1  0  0  0  0
  9 24  2  0  0  0  0
 10 25  1  0  0  0  0
 11 12  2  0  0  0  0
 11 26  1  0  0  0  0
 12 27  1  0  0  0  0
 13 22  1  0  0  0  0
 13 25  2  0  0  0  0
 14 23  2  0  0  0  0
 14 30  1  0  0  0  0
 15 23  1  0  0  0  0
 15 31  2  0  0  0  0
 16 27  2  0  0  0  0
 16 28  1  0  0  0  0
 17 29  1  0  0  0  0
 18 29  1  0  0  0  0
 18 32  2  0  0  0  0
 18 33  1  0  0  0  0
 19 21  2  0  0  0  0
 19 39  1  0  0  0  0
 20 22  2  0  0  0  0
 20 40  1  0  0  0  0
 21 48  1  0  0  0  0
 22 41  1  0  0  0  0
 23 68  1  0  0  0  0
 24 79  1  0  0  0  0
 25 80  1  0  0  0  0
 26 28  2  0  0  0  0
 26 79  1  0  0  0  0
 27 81  1  0  0  0  0
 28 82  1  0  0  0  0
 29 61  2  0  0  0  0
 30 62  2  0  0  0  0
 30 69  1  0  0  0  0
 31 62  1  0  0  0  0
 31 83  1  0  0  0  0
 32 63  1  0  0  0  0
 32 66  1  0  0  0  0
 33 67  1  0  0  0  0
 33 73  2  0  0  0  0
 34 49  1  0  0  0  0
 34 70  1  0  0  0  0
 34 74  2  0  0  0  0
 35 56  1  0  0  0  0
 35 57  1  0  0  0  0
 35 75  2  0  0  0  0
 36 58  1  0  0  0  0
 36 64  1  0  0  0  0
 36 76  2  0  0  0  0
 37 59  1  0  0  0  0
 37 71  1  0  0  0  0
 37 77  2  0  0  0  0
 38 65  1  0  0  0  0
 38 68  1  0  0  0  0
 38 78  2  0  0  0  0
 39 42  1  0  0  0  0
 40 49  1  0  0  0  0
 41 64  1  0  0  0  0
 42 44  1  0  0  0  0
 43 45  1  0  0  0  0
 43 46  1  0  0  0  0
 44 48  1  0  0  0  0
 45 50  1  0  0  0  0
 46 65  1  0  0  0  0
 47 50  1  0  0  0  0
 47 65  1  0  0  0  0
 48 70  1  0  0  0  0
 49 64  1  0  0  0  0
 50 63  1  0  0  0  0
 51 59  1  0  0  0  0
 52 60  1  0  0  0  0
 53 60  1  0  0  0  0
 54 60  1  0  0  0  0
 55 72  1  0  0  0  0
 56 69  1  0  0  0  0
 57 80  1  0  0  0  0
 58 60  1  0  0  0  0
 58 71  1  0  0  0  0
 59 72  1  0  0  0  0
 61 63  1  0  0  0  0
M  CHG  1  72   1
M  ISO  4  38 100  57 101  68 100  80 101
M  END
> <Batch ID>
0159

> <Smiles>
CNC(C)C(=O)NC(C(=O)N1Cc2cc([101O:1][101CH2:1]C(=O)CNc3cc([100NH:0][100C:0](=O)N4CCCC(n5nc(-c6ccc(Oc7ccc(F)cc7F)cc6)c(C(N)=O)c5N)C4)cc(F)n3)ccc2CC1C(=O)NC1CCCc2ccccc21)C(C)(C)C

> <Shape>
0.224

> <Color>
0.191

> <Negative vol penalty>
0.000

$$$$

  -OEChem-04052303473D

 83 91  0     1  0  0  0  0  0999 V2000
  -18.5779   -9.6066   22.1004 C   0  0  0  0  0  0  0  0  0  0  0  0
  -18.4515  -10.8795   21.5535 C   0  0  0  0  0  0  0  0  0  0  0  0
  -22.8392  -28.4241   21.9450 C   0  0  0  0  0  0  0  0  0  0  0  0
  -22.9050  -30.1610   20.2670 C   0  0  0  0  0  0  0  0  0  0  0  0
  -19.6544   -9.3119   22.9359 C   0  0  0  0  0  0  0  0  0  0  0  0
  -19.4010  -11.8588   21.8427 C   0  0  0  0  0  0  0  0  0  0  0  0
  -22.6441  -17.5309   18.9055 C   0  0  0  0  0  0  0  0  0  0  0  0
  -21.7722  -29.0688   22.5705 C   0  0  0  0  0  0  0  0  0  0  0  0
  -21.8379  -30.8057   20.8924 C   0  0  0  0  0  0  0  0  0  0  0  0
  -22.9104  -18.8742   19.1668 C   0  0  0  0  0  0  0  0  0  0  0  0
  -18.4360  -29.3783   22.1150 C   0  0  0  0  0  0  0  0  0  0  0  0
  -17.3535  -28.5970   22.5191 C   0  0  0  0  0  0  0  0  0  0  0  0
  -24.7712  -18.2280   20.5595 C   0  0  0  0  0  0  0  0  0  0  0  0
  -17.7108  -29.2853   24.8072 C   0  0  0  0  0  0  0  0  0  0  0  0
  -23.4057  -28.9702   20.7933 C   0  0  0  0  0  0  0  0  0  0  0  0
  -24.4373  -27.3296   19.1343 C   0  0  0  0  0  0  0  0  0  0  0  0
  -20.6229  -10.2852   23.2278 C   0  0  0  0  0  0  0  0  0  0  0  0
  -23.4339  -16.5240   19.4789 C   0  0  0  0  0  0  0  0  0  0  0  0
  -20.4908  -11.5772   22.6840 C   0  0  0  0  0  0  0  0  0  0  0  0
  -24.5143  -16.8728   20.3018 C   0  0  0  0  0  0  0  0  0  0  0  0
  -21.2715  -30.2596   22.0443 C   0  0  0  0  0  0  0  0  0  0  0  0
  -23.9723  -19.2229   19.9962 C   0  0  0  0  0  0  0  0  0  0  0  0
  -19.1561  -30.1130   23.0571 C   0  0  0  0  0  0  0  0  0  0  0  0
  -16.9909  -28.5505   23.8651 C   0  0  0  0  0  0  0  0  0  0  0  0
  -18.7934  -30.0666   24.4031 C   0  0  0  0  0  0  0  0  0  0  0  0
  -24.5084  -28.3050   20.1470 C   0  0  0  0  0  0  0  0  0  0  0  0
  -30.1926  -22.3640   19.2354 C   0  0  0  0  0  0  0  0  0  0  0  0
  -25.7477  -27.0196   18.8636 C   0  0  0  0  0  0  0  0  0  0  0  0
  -30.6961  -21.1628   18.7819 C   0  0  0  0  0  0  0  0  0  0  0  0
  -28.2971  -21.2975   18.9534 C   0  0  0  0  0  0  0  0  0  0  0  0
  -23.2894  -26.7552   18.4955 C   0  0  0  0  0  0  0  0  0  0  0  0
  -31.0247  -23.5364   19.6094 C   0  0  0  0  0  0  0  0  0  0  0  0
  -22.8920  -14.1145   21.4800 C   0  0  0  0  0  0  0  0  0  0  0  0
  -25.9790  -13.3765   20.8106 C   0  0  0  0  0  0  0  0  0  0  0  0
  -29.0499  -14.4360   19.7646 C   0  0  0  0  0  0  0  0  0  0  0  0
  -30.9146  -25.8482   20.4854 C   0  0  0  0  0  0  0  0  0  0  0  0
  -21.7434   -9.9336   24.1741 C   0  0  0  0  0  0  0  0  0  0  0  0
  -23.1499  -15.0805   19.1657 C   0  0  0  0  0  0  0  0  0  0  0  0
  -25.4048  -15.8306   20.9256 C   0  0  0  0  0  0  0  0  0  0  0  0
  -22.9091  -10.9182   24.1305 C   0  0  0  0  0  0  0  0  0  0  0  0
  -30.0401  -29.2701   20.3347 C   0  0  0  0  0  0  0  0  0  0  0  0
  -22.3967  -12.3544   24.1705 C   0  0  0  0  0  0  0  0  0  0  0  0
  -28.5169  -29.2471   20.1809 C   0  0  0  0  0  0  0  0  0  0  0  0
  -30.5325  -28.1680   21.2716 C   0  0  0  0  0  0  0  0  0  0  0  0
  -28.5467  -26.7954   20.7912 C   0  0  0  0  0  0  0  0  0  0  0  0
  -21.5138  -12.6592   22.9543 C   0  0  1  0  0  0  0  0  0  0  0  0
  -23.7030  -14.1213   20.2152 C   0  0  1  0  0  0  0  0  0  0  0  0
  -28.0077  -27.8418   19.8024 C   0  0  1  0  0  0  0  0  0  0  0  0
  -31.3845  -13.6113   19.3563 C   0  0  0  0  0  0  0  0  0  0  0  0
  -23.4656  -22.4420   19.0558 C   0  0  0  0  0  0  0  0  0  0  0  0
  -26.4956  -13.3574   23.8177 C   0  0  0  0  0  0  0  0  0  0  0  0
  -28.9475  -13.4804   23.3269 C   0  0  0  0  0  0  0  0  0  0  0  0
  -27.6198  -11.5149   22.5544 C   0  0  0  0  0  0  0  0  0  0  0  0
  -28.9196  -15.1375   16.8923 C   0  0  0  0  0  0  0  0  0  0  0  0
  -25.9251  -21.9805   19.3179 C   0  0  0  0  0  0  0  0  0  0  0  0
  -27.3186  -13.7447   21.4014 C   0  0  1  0  0  0  0  0  0  0  0  0
  -30.0171  -13.8675   18.7420 C   0  0  2  0  0  0  0  0  0  0  0  0
  -24.5390  -21.3663   19.1357 C   0  0  1  0  0  0  0  0  0  1  0  0
  -27.5776  -13.0442   22.7651 C   0  0  0  0  0  0  0  0  0  0  0  0
  -25.7646  -28.5952   20.4960 N   0  0  0  0  0  0  0  0  0  0  0  0
  -28.8172  -22.4433   19.3340 N   0  0  0  0  0  0  0  0  0  0  0  0
  -26.4949  -27.7975   19.6983 N   0  0  0  0  0  0  0  0  0  0  0  0
  -25.0827  -14.4327   20.5942 N   0  0  0  0  0  0  0  0  0  0  0  0
  -30.0148  -26.8686   20.8394 N   0  0  0  0  0  0  0  0  0  0  0  0
  -26.3221  -26.1600   17.9955 N   0  0  0  0  0  0  0  0  0  0  0  0
  -31.9918  -20.8137   18.5907 N   0  0  0  0  0  0  0  0  0  0  0  0
  -22.0170  -27.1873   18.8938 N   0  0  0  0  0  0  0  0  0  0  0  0
  -26.9391  -21.0275   18.9271 N   0  0  0  0  0  0  0  0  0  0  0  0
  -30.3214  -24.6596   20.0454 N   0  0  0  0  0  0  0  0  0  0  0  0
  -22.3305  -12.8885   21.7817 N   0  0  0  0  0  0  0  0  0  0  0  0
  -28.3129  -13.4444   20.3770 N   0  0  0  0  0  0  0  0  0  0  0  0
  -30.1833  -14.8148   17.6036 N   0  3  0  0  0  0  0  0  0  0  0  0
  -23.3886  -25.8728   17.6095 O   0  0  0  0  0  0  0  0  0  0  0  0
  -32.2480  -23.4435   19.5546 O   0  0  0  0  0  0  0  0  0  0  0  0
  -22.7849  -15.1449   22.1346 O   0  0  0  0  0  0  0  0  0  0  0  0
  -25.7395  -12.1961   20.5441 O   0  0  0  0  0  0  0  0  0  0  0  0
  -28.9599  -15.6390   19.9995 O   0  0  0  0  0  0  0  0  0  0  0  0
  -32.1403  -25.9950   20.5212 O   0  0  0  0  0  0  0  0  0  0  0  0
  -20.2301  -30.8888   22.6542 O   0  0  0  0  0  0  0  0  0  0  0  0
  -24.2341  -20.5333   20.2535 O   0  0  0  0  0  0  0  0  0  1  0  0
  -15.9503  -27.8014   24.2528 F   0  0  0  0  0  0  0  0  0  0  0  0
  -19.4806  -30.7712   25.3126 F   0  0  0  0  0  0  0  0  0  0  0  0
  -29.4040  -20.0805   18.4648 S   0  0  0  0  0  0  0  0  0  0  0  0
  1  2  1  0  0  0  0
  1  5  2  0  0  0  0
  2  6  2  0  0  0  0
  3  8  2  0  0  0  0
  3 15  1  0  0  0  0
  4  9  1  0  0  0  0
  4 15  2  0  0  0  0
  5 17  1  0  0  0  0
  6 19  1  0  0  0  0
  7 10  2  0  0  0  0
  7 18  1  0  0  0  0
  8 21  1  0  0  0  0
  9 21  2  0  0  0  0
 10 22  1  0  0  0  0
 11 12  2  0  0  0  0
 11 23  1  0  0  0  0
 12 24  1  0  0  0  0
 13 20  1  0  0  0  0
 13 22  2  0  0  0  0
 14 24  2  0  0  0  0
 14 25  1  0  0  0  0
 15 26  1  0  0  0  0
 16 26  1  0  0  0  0
 16 28  2  0  0  0  0
 16 31  1  0  0  0  0
 17 19  2  0  0  0  0
 17 37  1  0  0  0  0
 18 20  2  0  0  0  0
 18 38  1  0  0  0  0
 19 46  1  0  0  0  0
 20 39  1  0  0  0  0
 21 79  1  0  0  0  0
 22 80  1  0  0  0  0
 23 25  2  0  0  0  0
 23 79  1  0  0  0  0
 24 81  1  0  0  0  0
 25 82  1  0  0  0  0
 26 60  2  0  0  0  0
 27 29  2  0  0  0  0
 27 32  1  0  0  0  0
 27 61  1  0  0  0  0
 28 62  1  0  0  0  0
 28 65  1  0  0  0  0
 29 66  1  0  0  0  0
 29 83  1  0  0  0  0
 30 61  2  0  0  0  0
 30 68  1  0  0  0  0
 30 83  1  0  0  0  0
 31 67  1  0  0  0  0
 31 73  2  0  0  0  0
 32 69  1  0  0  0  0
 32 74  2  0  0  0  0
 33 47  1  0  0  0  0
 33 70  1  0  0  0  0
 33 75  2  0  0  0  0
 34 56  1  0  0  0  0
 34 63  1  0  0  0  0
 34 76  2  0  0  0  0
 35 57  1  0  0  0  0
 35 71  1  0  0  0  0
 35 77  2  0  0  0  0
 36 64  1  0  0  0  0
 36 69  1  0  0  0  0
 36 78  2  0  0  0  0
 37 40  1  0  0  0  0
 38 47  1  0  0  0  0
 39 63  1  0  0  0  0
 40 42  1  0  0  0  0
 41 43  1  0  0  0  0
 41 44  1  0  0  0  0
 42 46  1  0  0  0  0
 43 48  1  0  0  0  0
 44 64  1  0  0  0  0
 45 48  1  0  0  0  0
 45 64  1  0  0  0  0
 46 70  1  0  0  0  0
 47 63  1  0  0  0  0
 48 62  1  0  0  0  0
 49 57  1  0  0  0  0
 50 58  1  0  0  0  0
 51 59  1  0  0  0  0
 52 59  1  0  0  0  0
 53 59  1  0  0  0  0
 54 72  1  0  0  0  0
 55 58  1  0  0  0  0
 55 68  1  0  0  0  0
 56 59  1  0  0  0  0
 56 71  1  0  0  0  0
 57 72  1  0  0  0  0
 58 80  1  0  0  0  0
 60 62  1  0  0  0  0
M  CHG  1  72   1
M  ISO  4  36 100  58 101  69 100  80 101
M  END
> <Batch ID>
0159

> <Smiles>
CNC(C)C(=O)NC(C(=O)N1Cc2cc([101O:1][101CH:1](C)CNc3nc(C(=O)[100NH:0][100C:0](=O)N4CCCC(n5nc(-c6ccc(Oc7ccc(F)cc7F)cc6)c(C(N)=O)c5N)C4)c(N)s3)ccc2CC1C(=O)NC1CCCc2ccccc21)C(C)(C)C

> <Shape>
0.246

> <Color>
0.067

> <Negative vol penalty>
0.000

$$$$

  -OEChem-04052303473D

 86 94  0     1  0  0  0  0  0999 V2000
  -26.8399  -28.4708   12.3615 C   0  0  0  0  0  0  0  0  0  0  0  0
  -26.9701  -27.5437   13.3905 C   0  0  0  0  0  0  0  0  0  0  0  0
  -23.1139   -9.7585   20.1107 C   0  0  0  0  0  0  0  0  0  0  0  0
  -23.7785  -10.0184   22.4190 C   0  0  0  0  0  0  0  0  0  0  0  0
  -27.1179  -29.8165   12.5978 C   0  0  0  0  0  0  0  0  0  0  0  0
  -27.3795  -27.9616   14.6563 C   0  0  0  0  0  0  0  0  0  0  0  0
  -25.5690  -25.6895   20.0475 C   0  0  0  0  0  0  0  0  0  0  0  0
  -22.3661   -8.6319   20.4529 C   0  0  0  0  0  0  0  0  0  0  0  0
  -23.0306   -8.8918   22.7611 C   0  0  0  0  0  0  0  0  0  0  0  0
  -26.1491  -24.7699   20.9203 C   0  0  0  0  0  0  0  0  0  0  0  0
  -19.7843   -8.1330   23.3147 C   0  0  0  0  0  0  0  0  0  0  0  0
  -18.9799   -8.2117   24.4515 C   0  0  0  0  0  0  0  0  0  0  0  0
  -27.0815  -26.5865   22.2048 C   0  0  0  0  0  0  0  0  0  0  0  0
  -20.1994   -6.3761   25.4416 C   0  0  0  0  0  0  0  0  0  0  0  0
  -31.7495  -17.5607   21.3338 C   0  0  0  0  0  0  0  0  0  0  0  0
  -23.8202  -10.4517   21.0938 C   0  0  0  0  0  0  0  0  0  0  0  0
  -24.1542  -12.9525   20.7169 C   0  0  0  0  0  0  0  0  0  0  0  0
  -27.5216  -30.2526   13.8696 C   0  0  0  0  0  0  0  0  0  0  0  0
  -25.7502  -27.0665   20.2409 C   0  0  0  0  0  0  0  0  0  0  0  0
  -27.6644  -29.3141   14.9095 C   0  0  0  0  0  0  0  0  0  0  0  0
  -26.5005  -27.5215   21.3345 C   0  0  0  0  0  0  0  0  0  0  0  0
  -29.8257  -18.1016   22.3251 C   0  0  0  0  0  0  0  0  0  0  0  0
  -30.4996  -17.0690   21.6302 C   0  0  0  0  0  0  0  0  0  0  0  0
  -22.3244   -8.1985   21.7781 C   0  0  0  0  0  0  0  0  0  0  0  0
  -26.9079  -25.2183   21.9975 C   0  0  0  0  0  0  0  0  0  0  0  0
  -20.7962   -7.1757   23.2413 C   0  0  0  0  0  0  0  0  0  0  0  0
  -19.1875   -7.3333   25.5150 C   0  0  0  0  0  0  0  0  0  0  0  0
  -21.0038   -6.2973   24.3048 C   0  0  0  0  0  0  0  0  0  0  0  0
  -24.5933  -11.6152   20.7409 C   0  0  0  0  0  0  0  0  0  0  0  0
  -30.7119  -19.1505   22.4039 C   0  0  0  0  0  0  0  0  0  0  0  0
  -25.2567  -13.6689   20.3197 C   0  0  0  0  0  0  0  0  0  0  0  0
  -22.8649  -13.4984   21.0262 C   0  0  0  0  0  0  0  0  0  0  0  0
  -30.4417  -20.4530   23.0467 C   0  0  0  0  0  0  0  0  0  0  0  0
  -27.0771  -29.4127   18.5562 C   0  0  0  0  0  0  0  0  0  0  0  0
  -25.8673  -31.2710   20.9238 C   0  0  0  0  0  0  0  0  0  0  0  0
  -29.0193  -22.4895   23.0596 C   0  0  0  0  0  0  0  0  0  0  0  0
  -24.7846  -31.5113   24.1513 C   0  0  0  0  0  0  0  0  0  0  0  0
  -30.7057  -14.7784   20.6021 C   0  0  0  0  0  0  0  0  0  0  0  0
  -27.8565  -31.7101   14.0649 C   0  0  0  0  0  0  0  0  0  0  0  0
  -25.0956  -28.0461   19.3058 C   0  0  0  0  0  0  0  0  0  0  0  0
  -26.7083  -28.9898   21.5978 C   0  0  0  0  0  0  0  0  0  0  0  0
  -27.9235  -32.1286   15.5314 C   0  0  0  0  0  0  0  0  0  0  0  0
  -29.7020  -12.1141   18.4641 C   0  0  0  0  0  0  0  0  0  0  0  0
  -28.7348  -31.1196   16.3379 C   0  0  0  0  0  0  0  0  0  0  0  0
  -28.2473  -11.8568   18.8638 C   0  0  0  0  0  0  0  0  0  0  0  0
  -30.5656  -12.4791   19.6702 C   0  0  0  0  0  0  0  0  0  0  0  0
  -28.5997  -13.3296   20.8871 C   0  0  0  0  0  0  0  0  0  0  0  0
  -28.0821  -29.7324   16.3026 C   0  0  1  0  0  0  0  0  0  0  0  0
  -25.7730  -29.4130   19.3025 C   0  0  1  0  0  0  0  0  0  0  0  0
  -27.6771  -13.0219   19.6963 C   0  0  2  0  0  0  0  0  0  0  0  0
  -23.8913  -33.1678   25.8113 C   0  0  0  0  0  0  0  0  0  0  0  0
  -28.6730  -32.4127   21.2906 C   0  0  0  0  0  0  0  0  0  0  0  0
  -27.9424  -33.3091   23.5112 C   0  0  0  0  0  0  0  0  0  0  0  0
  -26.8338  -34.1022   21.4221 C   0  0  0  0  0  0  0  0  0  0  0  0
  -22.2454  -30.0201   24.4478 C   0  0  0  0  0  0  0  0  0  0  0  0
  -27.8412  -23.0535   22.3108 C   0  0  0  0  0  0  0  0  0  1  0  0
  -26.3700  -31.7623   22.2598 C   0  0  1  0  0  0  0  0  0  0  0  0
  -23.5379  -32.1357   24.7517 C   0  0  2  0  0  0  0  0  0  0  0  0
  -28.4482  -18.0579   22.8556 C   0  0  0  0  0  0  0  0  0  0  0  0
  -27.4527  -32.8688   22.1151 C   0  0  0  0  0  0  0  0  0  0  0  0
  -25.8748  -11.4869   20.3869 N   0  0  0  0  0  0  0  0  0  0  0  0
  -26.2503  -12.7528   20.1367 N   0  0  0  0  0  0  0  0  0  0  0  0
  -26.0533  -29.9082   20.6518 N   0  0  0  0  0  0  0  0  0  0  0  0
  -29.9657  -13.5928   20.4082 N   0  0  0  0  0  0  0  0  0  0  0  0
  -25.4633  -14.9868   20.1126 N   0  0  0  0  0  0  0  0  0  0  0  0
  -21.8445  -12.6212   21.4180 N   0  0  0  0  0  0  0  0  0  0  0  0
  -30.0205  -15.7798   21.2893 N   0  0  0  0  0  0  0  0  0  0  0  0
  -29.4289  -21.1927   22.5743 N   0  0  0  0  0  0  0  0  0  0  0  0
  -26.9530  -29.6820   17.2066 N   0  0  0  0  0  0  0  0  0  0  0  0
  -25.1907  -32.1750   23.0130 N   0  0  0  0  0  0  0  0  0  0  0  0
  -31.2221  -20.8162   24.0641 N   0  3  0  0  0  0  0  0  0  0  0  0
  -22.6859  -31.0879   25.3820 N   0  3  0  0  0  0  0  0  0  0  0  0
  -22.6204  -14.7258   20.9413 O   0  0  0  0  0  0  0  0  0  0  0  0
  -28.1189  -29.1865   19.1604 O   0  0  0  0  0  0  0  0  0  0  0  0
  -25.3230  -32.0655   20.1531 O   0  0  0  0  0  0  0  0  0  0  0  0
  -29.5937  -23.0421   23.9866 O   0  0  0  0  0  0  0  0  0  0  0  0
  -25.3444  -30.5349   24.6450 O   0  0  0  0  0  0  0  0  0  0  0  0
  -31.8523  -14.9066   20.1651 O   0  0  0  0  0  0  0  0  0  0  0  0
  -31.8870  -18.8289   21.8021 O   0  0  0  0  0  0  0  0  0  0  0  0
  -21.5945   -7.0993   22.1123 O   0  0  0  0  0  0  0  0  0  0  0  0
  -27.4757  -24.3229   22.8505 O   0  0  0  0  0  0  0  0  0  1  0  0
  -18.4159   -7.4101   26.6072 F   0  0  0  0  0  0  0  0  0  0  0  0
  -21.9752   -5.3764   24.2405 F   0  0  0  0  0  0  0  0  0  0  0  0
  -27.7949  -16.8735   22.6266 F   0  0  0  0  0  0  0  0  0  0  0  0
  -28.3633  -18.2391   24.2127 F   0  0  0  0  0  0  0  0  0  0  0  0
  -27.6325  -19.0201   22.3194 F   0  0  0  0  0  0  0  0  0  0  0  0
  1  2  1  0  0  0  0
  1  5  2  0  0  0  0
  2  6  2  0  0  0  0
  3  8  2  0  0  0  0
  3 16  1  0  0  0  0
  4  9  1  0  0  0  0
  4 16  2  0  0  0  0
  5 18  1  0  0  0  0
  6 20  1  0  0  0  0
  7 10  2  0  0  0  0
  7 19  1  0  0  0  0
  8 24  1  0  0  0  0
  9 24  2  0  0  0  0
 10 25  1  0  0  0  0
 11 12  2  0  0  0  0
 11 26  1  0  0  0  0
 12 27  1  0  0  0  0
 13 21  1  0  0  0  0
 13 25  2  0  0  0  0
 14 27  2  0  0  0  0
 14 28  1  0  0  0  0
 15 23  2  0  0  0  0
 15 79  1  0  0  0  0
 16 29  1  0  0  0  0
 17 29  1  0  0  0  0
 17 31  2  0  0  0  0
 17 32  1  0  0  0  0
 18 20  2  0  0  0  0
 18 39  1  0  0  0  0
 19 21  2  0  0  0  0
 19 40  1  0  0  0  0
 20 48  1  0  0  0  0
 21 41  1  0  0  0  0
 22 23  1  0  0  0  0
 22 30  2  0  0  0  0
 22 59  1  0  0  0  0
 23 67  1  0  0  0  0
 24 80  1  0  0  0  0
 25 81  1  0  0  0  0
 26 28  2  0  0  0  0
 26 80  1  0  0  0  0
 27 82  1  0  0  0  0
 28 83  1  0  0  0  0
 29 61  2  0  0  0  0
 30 33  1  0  0  0  0
 30 79  1  0  0  0  0
 31 62  1  0  0  0  0
 31 65  1  0  0  0  0
 32 66  1  0  0  0  0
 32 73  2  0  0  0  0
 33 68  1  0  0  0  0
 33 71  2  0  0  0  0
 34 49  1  0  0  0  0
 34 69  1  0  0  0  0
 34 74  2  0  0  0  0
 35 57  1  0  0  0  0
 35 63  1  0  0  0  0
 35 75  2  0  0  0  0
 36 56  1  0  0  0  0
 36 68  1  0  0  0  0
 36 76  2  0  0  0  0
 37 58  1  0  0  0  0
 37 70  1  0  0  0  0
 37 77  2  0  0  0  0
 38 64  1  0  0  0  0
 38 67  1  0  0  0  0
 38 78  2  0  0  0  0
 39 42  1  0  0  0  0
 40 49  1  0  0  0  0
 41 63  1  0  0  0  0
 42 44  1  0  0  0  0
 43 45  1  0  0  0  0
 43 46  1  0  0  0  0
 44 48  1  0  0  0  0
 45 50  1  0  0  0  0
 46 64  1  0  0  0  0
 47 50  1  0  0  0  0
 47 64  1  0  0  0  0
 48 69  1  0  0  0  0
 49 63  1  0  0  0  0
 50 62  1  0  0  0  0
 51 58  1  0  0  0  0
 52 60  1  0  0  0  0
 53 60  1  0  0  0  0
 54 60  1  0  0  0  0
 55 72  1  0  0  0  0
 56 81  1  0  0  0  0
 57 60  1  0  0  0  0
 57 70  1  0  0  0  0
 58 72  1  0  0  0  0
 59 84  1  0  0  0  0
 59 85  1  0  0  0  0
 59 86  1  0  0  0  0
 61 62  1  0  0  0  0
M  CHG  2  71   1  72   1
M  ISO  4  38 100  56 101  67 100  81 101
M  END
> <Batch ID>
0159

> <Smiles>
CNC(C)C(=O)NC(C(=O)N1Cc2cc([101O:1][101CH2:1]C(=O)NC(=N)c3occ([100NH:0][100C:0](=O)N4CCCC(n5nc(-c6ccc(Oc7ccc(F)cc7F)cc6)c(C(N)=O)c5N)C4)c3C(F)(F)F)ccc2CC1C(=O)NC1CCCc2ccccc21)C(C)(C)C

> <Shape>
0.268

> <Color>
0.195

> <Negative vol penalty>
0.000

$$$$

  -OEChem-04052303473D

 87 96  0     1  0  0  0  0  0999 V2000
  -26.7439  -25.7162   12.0516 C   0  0  0  0  0  0  0  0  0  0  0  0
  -27.4387  -24.5594   12.3899 C   0  0  0  0  0  0  0  0  0  0  0  0
  -23.0144  -10.0037   19.9001 C   0  0  0  0  0  0  0  0  0  0  0  0
  -23.8440   -9.8425   22.1635 C   0  0  0  0  0  0  0  0  0  0  0  0
  -27.0697  -26.9271   12.6612 C   0  0  0  0  0  0  0  0  0  0  0  0
  -28.4605  -24.6129   13.3373 C   0  0  0  0  0  0  0  0  0  0  0  0
  -31.5127  -20.6760   18.4851 C   0  0  0  0  0  0  0  0  0  0  0  0
  -22.2631   -8.8445   20.0929 C   0  0  0  0  0  0  0  0  0  0  0  0
  -23.0926   -8.6833   22.3563 C   0  0  0  0  0  0  0  0  0  0  0  0
  -32.7661  -20.2229   18.8943 C   0  0  0  0  0  0  0  0  0  0  0  0
  -21.6737   -5.4816   23.3290 C   0  0  0  0  0  0  0  0  0  0  0  0
  -22.2956   -4.4031   23.9579 C   0  0  0  0  0  0  0  0  0  0  0  0
  -33.1888  -22.3552   19.9401 C   0  0  0  0  0  0  0  0  0  0  0  0
  -29.8732  -17.5545   23.0058 C   0  0  0  0  0  0  0  0  0  0  0  0
  -23.9443   -4.3249   22.1935 C   0  0  0  0  0  0  0  0  0  0  0  0
  -23.8050  -10.5028   20.9354 C   0  0  0  0  0  0  0  0  0  0  0  0
  -24.1769  -13.0261   20.9798 C   0  0  0  0  0  0  0  0  0  0  0  0
  -28.0895  -26.9937   13.6236 C   0  0  0  0  0  0  0  0  0  0  0  0
  -31.0916  -21.9780   18.7916 C   0  0  0  0  0  0  0  0  0  0  0  0
  -28.8011  -25.8261   13.9594 C   0  0  0  0  0  0  0  0  0  0  0  0
  -31.9285  -22.8215   19.5359 C   0  0  0  0  0  0  0  0  0  0  0  0
  -30.4057  -18.7364   23.4762 C   0  0  0  0  0  0  0  0  0  0  0  0
  -31.6575  -19.1807   23.0643 C   0  0  0  0  0  0  0  0  0  0  0  0
  -22.3022   -8.1843   21.3210 C   0  0  0  0  0  0  0  0  0  0  0  0
  -33.6056  -21.0635   19.6194 C   0  0  0  0  0  0  0  0  0  0  0  0
  -22.1870   -5.9818   22.1323 C   0  0  0  0  0  0  0  0  0  0  0  0
  -23.4309   -3.8247   23.3902 C   0  0  0  0  0  0  0  0  0  0  0  0
  -23.3223   -5.4034   21.5646 C   0  0  0  0  0  0  0  0  0  0  0  0
  -24.5818  -11.6999   20.7367 C   0  0  0  0  0  0  0  0  0  0  0  0
  -32.3793  -18.3979   22.1965 C   0  0  0  0  0  0  0  0  0  0  0  0
  -30.6631  -16.8460   22.1133 C   0  0  0  0  0  0  0  0  0  0  0  0
  -25.2675  -13.7866   20.6351 C   0  0  0  0  0  0  0  0  0  0  0  0
  -22.9269  -13.5259   21.4730 C   0  0  0  0  0  0  0  0  0  0  0  0
  -33.7439  -18.7793   21.7422 C   0  0  0  0  0  0  0  0  0  0  0  0
  -30.2939  -24.5377   17.0842 C   0  0  0  0  0  0  0  0  0  0  0  0
  -29.5089  -25.7487   19.9893 C   0  0  0  0  0  0  0  0  0  0  0  0
  -29.9487  -25.6774   23.3728 C   0  0  0  0  0  0  0  0  0  0  0  0
  -30.7500  -14.7557   20.7101 C   0  0  0  0  0  0  0  0  0  0  0  0
  -28.4377  -28.3342   14.2208 C   0  0  0  0  0  0  0  0  0  0  0  0
  -29.7257  -22.4424   18.3660 C   0  0  0  0  0  0  0  0  0  0  0  0
  -29.8429  -19.6983   24.4712 C   0  0  0  0  0  0  0  0  0  0  0  0
  -31.5153  -24.2212   19.9081 C   0  0  0  0  0  0  0  0  0  0  0  0
  -29.2819  -28.2353   15.4888 C   0  0  0  0  0  0  0  0  0  0  0  0
  -29.5314  -12.5253   18.2166 C   0  0  0  0  0  0  0  0  0  0  0  0
  -30.4283  -27.2487   15.2913 C   0  0  0  0  0  0  0  0  0  0  0  0
  -28.1018  -12.2208   18.6699 C   0  0  0  0  0  0  0  0  0  0  0  0
  -30.8644  -20.8567   24.3964 C   0  0  0  0  0  0  0  0  0  0  0  0
  -30.4858  -12.6595   19.4019 C   0  0  0  0  0  0  0  0  0  0  0  0
  -28.6318  -13.3076   20.8891 C   0  0  0  0  0  0  0  0  0  0  0  0
  -29.8992  -25.8391   15.0006 C   0  0  1  0  0  0  0  0  0  0  0  0
  -29.6079  -23.9616   18.2905 C   0  0  1  0  0  0  0  0  0  0  0  0
  -27.6213  -13.2278   19.7333 C   0  0  2  0  0  0  0  0  0  0  0  0
  -35.6338  -17.8540   17.5489 C   0  0  0  0  0  0  0  0  0  0  0  0
  -29.5556  -26.2489   25.7845 C   0  0  0  0  0  0  0  0  0  0  0  0
  -31.2989  -28.1329   19.3400 C   0  0  0  0  0  0  0  0  0  0  0  0
  -31.2706  -28.7275   21.7718 C   0  0  0  0  0  0  0  0  0  0  0  0
  -29.1450  -28.7216   20.4663 C   0  0  0  0  0  0  0  0  0  0  0  0
  -36.5981  -19.0508   20.2266 C   0  0  0  0  0  0  0  0  0  0  0  0
  -27.8850  -23.5750   23.6549 C   0  0  0  0  0  0  0  0  0  0  0  0
  -34.2018  -18.3318   20.3575 C   0  0  0  0  0  0  0  0  0  0  0  0
  -35.1885  -19.1923   18.1202 C   0  0  0  0  0  0  0  0  0  0  0  0
  -30.2418  -26.5221   21.0587 C   0  0  1  0  0  0  0  0  0  0  0  0
  -28.9523  -25.6617   24.5180 C   0  0  2  0  0  0  0  0  0  0  0  0
  -30.4979  -28.0004   20.6507 C   0  0  0  0  0  0  0  0  0  0  0  0
  -35.1899  -19.2904   19.6616 C   0  0  2  0  0  0  0  0  0  1  0  0
  -25.8319  -11.6191   20.2733 N   0  0  0  0  0  0  0  0  0  0  0  0
  -31.8998  -17.2336   21.6988 N   0  0  0  0  0  0  0  0  0  0  0  0
  -26.2219  -12.9042   20.2223 N   0  0  0  0  0  0  0  0  0  0  0  0
  -32.0394  -20.3544   23.6949 N   0  0  0  0  0  0  0  0  0  0  0  0
  -30.1730  -24.6313   19.4636 N   0  0  0  0  0  0  0  0  0  0  0  0
  -29.9678  -13.6331   20.3656 N   0  0  0  0  0  0  0  0  0  0  0  0
  -25.4934  -15.1175   20.6478 N   0  0  0  0  0  0  0  0  0  0  0  0
  -21.9136  -12.6069   21.7782 N   0  0  0  0  0  0  0  0  0  0  0  0
  -30.1404  -15.6288   21.6105 N   0  0  0  0  0  0  0  0  0  0  0  0
  -29.4471  -25.2072   16.2215 N   0  0  0  0  0  0  0  0  0  0  0  0
  -29.4622  -26.3663   22.2819 N   0  0  0  0  0  0  0  0  0  0  0  0
  -28.5181  -24.2659   24.8076 N   0  3  0  0  0  0  0  0  0  0  0  0
  -22.7091  -14.7521   21.6228 O   0  0  0  0  0  0  0  0  0  0  0  0
  -34.4651  -19.4152   22.5064 O   0  0  0  0  0  0  0  0  0  0  0  0
  -31.5023  -24.3873   16.9470 O   0  0  0  0  0  0  0  0  0  0  0  0
  -28.3854  -26.1180   19.6385 O   0  0  0  0  0  0  0  0  0  0  0  0
  -31.0501  -25.1362   23.4407 O   0  0  0  0  0  0  0  0  0  0  0  0
  -31.8665  -14.9437   20.2200 O   0  0  0  0  0  0  0  0  0  0  0  0
  -21.5689   -7.0532   21.5096 O   0  0  0  0  0  0  0  0  0  0  0  0
  -34.8298  -20.6241   20.0194 O   0  0  0  0  0  0  0  0  0  1  0  0
  -24.0289   -2.7899   23.9950 F   0  0  0  0  0  0  0  0  0  0  0  0
  -23.8207   -5.8804   20.4157 F   0  0  0  0  0  0  0  0  0  0  0  0
  1  2  1  0  0  0  0
  1  5  2  0  0  0  0
  2  6  2  0  0  0  0
  3  8  2  0  0  0  0
  3 16  1  0  0  0  0
  4  9  1  0  0  0  0
  4 16  2  0  0  0  0
  5 18  1  0  0  0  0
  6 20  1  0  0  0  0
  7 10  2  0  0  0  0
  7 19  1  0  0  0  0
  8 24  1  0  0  0  0
  9 24  2  0  0  0  0
 10 25  1  0  0  0  0
 11 12  2  0  0  0  0
 11 26  1  0  0  0  0
 12 27  1  0  0  0  0
 13 21  1  0  0  0  0
 13 25  2  0  0  0  0
 14 22  2  0  0  0  0
 14 31  1  0  0  0  0
 15 27  2  0  0  0  0
 15 28  1  0  0  0  0
 16 29  1  0  0  0  0
 17 29  1  0  0  0  0
 17 32  2  0  0  0  0
 17 33  1  0  0  0  0
 18 20  2  0  0  0  0
 18 39  1  0  0  0  0
 19 21  2  0  0  0  0
 19 40  1  0  0  0  0
 20 50  1  0  0  0  0
 21 42  1  0  0  0  0
 22 23  1  0  0  0  0
 22 41  1  0  0  0  0
 23 30  2  0  0  0  0
 23 69  1  0  0  0  0
 24 84  1  0  0  0  0
 25 85  1  0  0  0  0
 26 28  2  0  0  0  0
 26 84  1  0  0  0  0
 27 86  1  0  0  0  0
 28 87  1  0  0  0  0
 29 66  2  0  0  0  0
 30 34  1  0  0  0  0
 30 67  1  0  0  0  0
 31 67  2  0  0  0  0
 31 74  1  0  0  0  0
 32 68  1  0  0  0  0
 32 72  1  0  0  0  0
 33 73  1  0  0  0  0
 33 78  2  0  0  0  0
 34 60  1  0  0  0  0
 34 79  2  0  0  0  0
 35 51  1  0  0  0  0
 35 75  1  0  0  0  0
 35 80  2  0  0  0  0
 36 62  1  0  0  0  0
 36 70  1  0  0  0  0
 36 81  2  0  0  0  0
 37 63  1  0  0  0  0
 37 76  1  0  0  0  0
 37 82  2  0  0  0  0
 38 71  1  0  0  0  0
 38 74  1  0  0  0  0
 38 83  2  0  0  0  0
 39 43  1  0  0  0  0
 40 51  1  0  0  0  0
 41 47  1  0  0  0  0
 42 70  1  0  0  0  0
 43 45  1  0  0  0  0
 44 46  1  0  0  0  0
 44 48  1  0  0  0  0
 45 50  1  0  0  0  0
 46 52  1  0  0  0  0
 47 69  1  0  0  0  0
 48 71  1  0  0  0  0
 49 52  1  0  0  0  0
 49 71  1  0  0  0  0
 50 75  1  0  0  0  0
 51 70  1  0  0  0  0
 52 68  1  0  0  0  0
 53 61  1  0  0  0  0
 54 63  1  0  0  0  0
 55 64  1  0  0  0  0
 56 64  1  0  0  0  0
 57 64  1  0  0  0  0
 58 65  1  0  0  0  0
 59 77  1  0  0  0  0
 60 65  1  0  0  0  0
 61 65  1  0  0  0  0
 62 64  1  0  0  0  0
 62 76  1  0  0  0  0
 63 77  1  0  0  0  0
 65 85  1  0  0  0  0
 66 68  1  0  0  0  0
M  CHG  1  77   1
M  ISO  4  38 100  65 101  74 100  85 101
M  END
> <Batch ID>
0159

> <Smiles>
CC[101C:1](C)(CC(=O)c1nc([100NH:0][100C:0](=O)N2CCCC(n3nc(-c4ccc(Oc5ccc(F)cc5F)cc4)c(C(N)=O)c3N)C2)cc2c1NCC2)[101O:1]c1ccc2c(c1)CN(C(=O)C(NC(=O)C(C)NC)C(C)(C)C)C(C(=O)NC1CCCc3ccccc31)C2

> <Shape>
0.242

> <Color>
0.192

> <Negative vol penalty>
0.000

$$$$

  -OEChem-04052303473D

 82 90  0     1  0  0  0  0  0999 V2000
  -33.1867  -26.1886   17.2792 C   0  0  0  0  0  0  0  0  0  0  0  0
  -31.8824  -25.7093   17.2128 C   0  0  0  0  0  0  0  0  0  0  0  0
  -27.1173  -17.5425   19.8944 C   0  0  0  0  0  0  0  0  0  0  0  0
  -29.0589  -16.8537   21.1564 C   0  0  0  0  0  0  0  0  0  0  0  0
  -33.6211  -26.8691   18.4159 C   0  0  0  0  0  0  0  0  0  0  0  0
  -31.0120  -25.9093   18.2837 C   0  0  0  0  0  0  0  0  0  0  0  0
  -24.9757  -26.8994   17.9864 C   0  0  0  0  0  0  0  0  0  0  0  0
  -27.7200  -18.7744   19.6396 C   0  0  0  0  0  0  0  0  0  0  0  0
  -29.6617  -18.0855   20.9015 C   0  0  0  0  0  0  0  0  0  0  0  0
  -23.8777  -26.0552   18.1462 C   0  0  0  0  0  0  0  0  0  0  0  0
  -28.2378  -21.6813   21.2846 C   0  0  0  0  0  0  0  0  0  0  0  0
  -27.4582  -22.8276   21.4387 C   0  0  0  0  0  0  0  0  0  0  0  0
  -23.6929  -26.7418   20.4513 C   0  0  0  0  0  0  0  0  0  0  0  0
  -27.8178  -23.3844   19.1153 C   0  0  0  0  0  0  0  0  0  0  0  0
  -21.7353  -17.5218   20.8001 C   0  0  0  0  0  0  0  0  0  0  0  0
  -27.7868  -16.5822   20.6529 C   0  0  0  0  0  0  0  0  0  0  0  0
  -27.2562  -14.1406   20.1381 C   0  0  0  0  0  0  0  0  0  0  0  0
  -32.7527  -27.0860   19.4973 C   0  0  0  0  0  0  0  0  0  0  0  0
  -25.4481  -27.6642   19.0626 C   0  0  0  0  0  0  0  0  0  0  0  0
  -31.4356  -26.5922   19.4365 C   0  0  0  0  0  0  0  0  0  0  0  0
  -24.7955  -27.5968   20.3019 C   0  0  0  0  0  0  0  0  0  0  0  0
  -28.9922  -19.0459   20.1431 C   0  0  0  0  0  0  0  0  0  0  0  0
  -23.2379  -25.9741   19.3796 C   0  0  0  0  0  0  0  0  0  0  0  0
  -28.8075  -21.3865   20.0459 C   0  0  0  0  0  0  0  0  0  0  0  0
  -27.2481  -23.6791   20.3540 C   0  0  0  0  0  0  0  0  0  0  0  0
  -28.5975  -22.2381   18.9613 C   0  0  0  0  0  0  0  0  0  0  0  0
  -27.1645  -15.3097   20.9170 C   0  0  0  0  0  0  0  0  0  0  0  0
  -22.0662  -18.7930   21.1928 C   0  0  0  0  0  0  0  0  0  0  0  0
  -26.4925  -13.2187   20.8114 C   0  0  0  0  0  0  0  0  0  0  0  0
  -22.4405  -20.9646   20.6126 C   0  0  0  0  0  0  0  0  0  0  0  0
  -27.9681  -13.9087   18.9154 C   0  0  0  0  0  0  0  0  0  0  0  0
  -22.0512  -22.2423   19.9473 C   0  0  0  0  0  0  0  0  0  0  0  0
  -28.1773  -27.8072   20.6857 C   0  0  0  0  0  0  0  0  0  0  0  0
  -26.7457  -30.3463   22.1090 C   0  0  0  0  0  0  0  0  0  0  0  0
  -23.8491  -31.9422   22.9514 C   0  0  0  0  0  0  0  0  0  0  0  0
  -22.4067  -15.3078   21.7007 C   0  0  0  0  0  0  0  0  0  0  0  0
  -33.2818  -27.7857   20.7241 C   0  0  0  0  0  0  0  0  0  0  0  0
  -26.6171  -28.5901   18.8666 C   0  0  0  0  0  0  0  0  0  0  0  0
  -25.2509  -28.4125   21.4833 C   0  0  0  0  0  0  0  0  0  0  0  0
  -32.1850  -28.2834   21.6620 C   0  0  0  0  0  0  0  0  0  0  0  0
  -24.5749  -15.2081   24.6573 C   0  0  0  0  0  0  0  0  0  0  0  0
  -31.1389  -27.1959   21.8846 C   0  0  0  0  0  0  0  0  0  0  0  0
  -25.2727  -13.8605   24.4250 C   0  0  0  0  0  0  0  0  0  0  0  0
  -23.1410  -15.1997   24.1460 C   0  0  0  0  0  0  0  0  0  0  0  0
  -23.6108  -13.3609   22.5905 C   0  0  0  0  0  0  0  0  0  0  0  0
  -30.4543  -26.8110   20.5676 C   0  0  1  0  0  0  0  0  0  0  0  0
  -27.3303  -28.9361   20.1701 C   0  0  1  0  0  0  0  0  0  0  0  0
  -25.1002  -13.2927   22.9952 C   0  0  1  0  0  0  0  0  0  0  0  0
  -22.9972  -33.9782   24.1458 C   0  0  0  0  0  0  0  0  0  0  0  0
  -27.3394  -29.0183   24.7911 C   0  0  0  0  0  0  0  0  0  0  0  0
  -25.6760  -30.5640   25.8457 C   0  0  0  0  0  0  0  0  0  0  0  0
  -27.7140  -31.4906   24.7455 C   0  0  0  0  0  0  0  0  0  0  0  0
  -22.5522  -32.9792   20.5016 C   0  0  0  0  0  0  0  0  0  0  0  0
  -21.9605  -24.5957   20.8370 C   0  0  0  0  0  0  0  0  0  1  0  0
  -21.2586  -23.2458   20.7471 C   0  0  1  0  0  0  0  0  0  0  0  0
  -25.8598  -30.5357   23.3165 C   0  0  1  0  0  0  0  0  0  0  0  0
  -23.4186  -33.3908   22.8078 C   0  0  2  0  0  0  0  0  0  0  0  0
  -26.6397  -30.3852   24.6532 C   0  0  0  0  0  0  0  0  0  0  0  0
  -26.4025  -15.1480   22.0020 N   0  0  0  0  0  0  0  0  0  0  0  0
  -22.8751  -18.7360   22.2868 N   0  0  0  0  0  0  0  0  0  0  0  0
  -23.0679  -17.4577   22.5864 N   0  0  0  0  0  0  0  0  0  0  0  0
  -22.4355  -22.4056   18.7259 N   0  0  0  0  0  0  0  0  0  0  0  0
  -21.6356  -19.9617   20.5432 N   0  0  0  0  0  0  0  0  0  0  0  0
  -22.3467  -16.7036   21.7239 N   0  0  0  0  0  0  0  0  0  0  0  0
  -26.0084  -13.8665   21.9097 N   0  0  0  0  0  0  0  0  0  0  0  0
  -26.4022  -29.2982   21.2433 N   0  0  0  0  0  0  0  0  0  0  0  0
  -23.0898  -14.7160   22.7609 N   0  0  0  0  0  0  0  0  0  0  0  0
  -26.1945  -11.9253   20.5652 N   0  0  0  0  0  0  0  0  0  0  0  0
  -28.7031  -14.9647   18.3596 N   0  0  0  0  0  0  0  0  0  0  0  0
  -29.4708  -27.8068   20.1994 N   0  0  0  0  0  0  0  0  0  0  0  0
  -25.2095  -31.8305   23.1467 N   0  0  0  0  0  0  0  0  0  0  0  0
  -19.9046  -23.4310   20.1541 N   0  3  0  0  0  0  0  0  0  0  0  0
  -22.2700  -33.4988   21.8644 N   0  3  0  0  0  0  0  0  0  0  0  0
  -27.9395  -12.8027   18.3243 O   0  0  0  0  0  0  0  0  0  0  0  0
  -27.6937  -26.9974   21.4679 O   0  0  0  0  0  0  0  0  0  0  0  0
  -27.7028  -31.1050   21.9362 O   0  0  0  0  0  0  0  0  0  0  0  0
  -23.0571  -31.0037   22.8995 O   0  0  0  0  0  0  0  0  0  0  0  0
  -21.9190  -14.7430   20.7292 O   0  0  0  0  0  0  0  0  0  0  0  0
  -29.5807  -20.2477   19.8944 O   0  0  0  0  0  0  0  0  0  0  0  0
  -22.1664  -25.1504   19.5384 O   0  0  0  0  0  0  0  0  0  1  0  0
  -26.4982  -24.7791   20.5017 F   0  0  0  0  0  0  0  0  0  0  0  0
  -29.1412  -21.9595   17.7686 F   0  0  0  0  0  0  0  0  0  0  0  0
  1  2  1  0  0  0  0
  1  5  2  0  0  0  0
  2  6  2  0  0  0  0
  3  8  2  0  0  0  0
  3 16  1  0  0  0  0
  4  9  1  0  0  0  0
  4 16  2  0  0  0  0
  5 18  1  0  0  0  0
  6 20  1  0  0  0  0
  7 10  2  0  0  0  0
  7 19  1  0  0  0  0
  8 22  1  0  0  0  0
  9 22  2  0  0  0  0
 10 23  1  0  0  0  0
 11 12  2  0  0  0  0
 11 24  1  0  0  0  0
 12 25  1  0  0  0  0
 13 21  1  0  0  0  0
 13 23  2  0  0  0  0
 14 25  2  0  0  0  0
 14 26  1  0  0  0  0
 15 28  2  0  0  0  0
 15 64  1  0  0  0  0
 16 27  1  0  0  0  0
 17 27  1  0  0  0  0
 17 29  2  0  0  0  0
 17 31  1  0  0  0  0
 18 20  2  0  0  0  0
 18 37  1  0  0  0  0
 19 21  2  0  0  0  0
 19 38  1  0  0  0  0
 20 46  1  0  0  0  0
 21 39  1  0  0  0  0
 22 79  1  0  0  0  0
 23 80  1  0  0  0  0
 24 26  2  0  0  0  0
 24 79  1  0  0  0  0
 25 81  1  0  0  0  0
 26 82  1  0  0  0  0
 27 59  2  0  0  0  0
 28 60  1  0  0  0  0
 28 63  1  0  0  0  0
 29 65  1  0  0  0  0
 29 68  1  0  0  0  0
 30 32  1  0  0  0  0
 30 63  2  0  0  0  0
 31 69  1  0  0  0  0
 31 74  2  0  0  0  0
 32 55  1  0  0  0  0
 32 62  2  0  0  0  0
 33 47  1  0  0  0  0
 33 70  1  0  0  0  0
 33 75  2  0  0  0  0
 34 56  1  0  0  0  0
 34 66  1  0  0  0  0
 34 76  2  0  0  0  0
 35 57  1  0  0  0  0
 35 71  1  0  0  0  0
 35 77  2  0  0  0  0
 36 64  1  0  0  0  0
 36 67  1  0  0  0  0
 36 78  2  0  0  0  0
 37 40  1  0  0  0  0
 38 47  1  0  0  0  0
 39 66  1  0  0  0  0
 40 42  1  0  0  0  0
 41 43  1  0  0  0  0
 41 44  1  0  0  0  0
 42 46  1  0  0  0  0
 43 48  1  0  0  0  0
 44 67  1  0  0  0  0
 45 48  1  0  0  0  0
 45 67  1  0  0  0  0
 46 70  1  0  0  0  0
 47 66  1  0  0  0  0
 48 65  1  0  0  0  0
 49 57  1  0  0  0  0
 50 58  1  0  0  0  0
 51 58  1  0  0  0  0
 52 58  1  0  0  0  0
 53 73  1  0  0  0  0
 54 55  1  0  0  0  0
 54 80  1  0  0  0  0
 55 72  1  0  0  0  0
 56 58  1  0  0  0  0
 56 71  1  0  0  0  0
 57 73  1  0  0  0  0
 59 65  1  0  0  0  0
 60 61  2  0  0  0  0
 61 64  1  0  0  0  0
M  CHG  2  72   1  73   1
M  ISO  4  36 100  54 101  64 100  80 101
M  END
> <Batch ID>
0159

> <Smiles>
CNC(C)C(=O)NC(C(=O)N1Cc2cc([101O:1][101CH2:1]C(=N)C(=N)CNc3c[100n:0]([100C:0](=O)N4CCCC(n5nc(-c6ccc(Oc7ccc(F)cc7F)cc6)c(C(N)=O)c5N)C4)nn3)ccc2CC1C(=O)NC1CCCc2ccccc21)C(C)(C)C

> <Shape>
0.239

> <Color>
0.071

> <Negative vol penalty>
0.000

$$$$

  -OEChem-04052303472D

  0  0  0     0  0  0  0  0  0999 V2000
M  END
$$$$

  -OEChem-04052303473D

 85 93  0     1  0  0  0  0  0999 V2000
  -17.3767  -25.9874   21.3040 C   0  0  0  0  0  0  0  0  0  0  0  0
  -18.3433  -25.4020   22.1155 C   0  0  0  0  0  0  0  0  0  0  0  0
  -23.0703   -9.8767   19.9380 C   0  0  0  0  0  0  0  0  0  0  0  0
  -23.8387   -9.8693   22.2285 C   0  0  0  0  0  0  0  0  0  0  0  0
  -17.7357  -26.5162   20.0648 C   0  0  0  0  0  0  0  0  0  0  0  0
  -19.6692  -25.3441   21.6878 C   0  0  0  0  0  0  0  0  0  0  0  0
  -24.6846  -25.7854   25.1744 C   0  0  0  0  0  0  0  0  0  0  0  0
  -22.3257   -8.7232   20.1840 C   0  0  0  0  0  0  0  0  0  0  0  0
  -23.0941   -8.7158   22.4746 C   0  0  0  0  0  0  0  0  0  0  0  0
  -25.5393  -24.8251   25.7142 C   0  0  0  0  0  0  0  0  0  0  0  0
  -19.8671   -7.9189   23.0844 C   0  0  0  0  0  0  0  0  0  0  0  0
  -19.1144   -7.8732   24.2579 C   0  0  0  0  0  0  0  0  0  0  0  0
  -29.9192  -17.4451   23.1629 C   0  0  0  0  0  0  0  0  0  0  0  0
  -27.0352  -25.1140   23.8439 C   0  0  0  0  0  0  0  0  0  0  0  0
  -20.3559   -5.9298   24.9785 C   0  0  0  0  0  0  0  0  0  0  0  0
  -32.0649  -16.6092   22.5679 C   0  0  0  0  0  0  0  0  0  0  0  0
  -23.8268  -10.4498   20.9602 C   0  0  0  0  0  0  0  0  0  0  0  0
  -30.5381  -18.3095   24.0590 C   0  0  0  0  0  0  0  0  0  0  0  0
  -24.1717  -12.9751   20.8536 C   0  0  0  0  0  0  0  0  0  0  0  0
  -19.0684  -26.4734   19.6259 C   0  0  0  0  0  0  0  0  0  0  0  0
  -24.9940  -26.4103   23.9578 C   0  0  0  0  0  0  0  0  0  0  0  0
  -20.0461  -25.8716   20.4411 C   0  0  0  0  0  0  0  0  0  0  0  0
  -26.1841  -26.0837   23.2921 C   0  0  0  0  0  0  0  0  0  0  0  0
  -30.6901  -16.5755   22.3994 C   0  0  0  0  0  0  0  0  0  0  0  0
  -22.3376   -8.1427   21.4523 C   0  0  0  0  0  0  0  0  0  0  0  0
  -26.7133  -24.4872   25.0475 C   0  0  0  0  0  0  0  0  0  0  0  0
  -20.8641   -6.9700   22.8579 C   0  0  0  0  0  0  0  0  0  0  0  0
  -19.3588   -6.8787   25.2049 C   0  0  0  0  0  0  0  0  0  0  0  0
  -21.1085   -5.9755   23.8050 C   0  0  0  0  0  0  0  0  0  0  0  0
  -24.5966  -11.6411   20.7065 C   0  0  0  0  0  0  0  0  0  0  0  0
  -31.9197  -18.2654   24.1535 C   0  0  0  0  0  0  0  0  0  0  0  0
  -25.2636  -13.7252   20.4906 C   0  0  0  0  0  0  0  0  0  0  0  0
  -29.7198  -19.2318   24.8689 C   0  0  0  0  0  0  0  0  0  0  0  0
  -22.9035  -13.4902   21.2802 C   0  0  0  0  0  0  0  0  0  0  0  0
  -23.6181  -26.5535   21.0960 C   0  0  0  0  0  0  0  0  0  0  0  0
  -25.9892  -28.6837   20.4938 C   0  0  0  0  0  0  0  0  0  0  0  0
  -28.5918  -21.4080   25.2276 C   0  0  0  0  0  0  0  0  0  0  0  0
  -29.1083  -29.8393   21.2569 C   0  0  0  0  0  0  0  0  0  0  0  0
  -30.7318  -14.7622   20.6510 C   0  0  0  0  0  0  0  0  0  0  0  0
  -19.4001  -27.0158   18.2583 C   0  0  0  0  0  0  0  0  0  0  0  0
  -24.0749  -27.4634   23.4024 C   0  0  0  0  0  0  0  0  0  0  0  0
  -26.5721  -26.7402   21.9933 C   0  0  0  0  0  0  0  0  0  0  0  0
  -20.8929  -27.2499   18.0415 C   0  0  0  0  0  0  0  0  0  0  0  0
  -29.6053  -12.3637   18.2730 C   0  0  0  0  0  0  0  0  0  0  0  0
  -21.6972  -26.0455   18.5203 C   0  0  0  0  0  0  0  0  0  0  0  0
  -28.1668  -12.0717   18.7062 C   0  0  0  0  0  0  0  0  0  0  0  0
  -30.5252  -12.5843   19.4725 C   0  0  0  0  0  0  0  0  0  0  0  0
  -28.6244  -13.3034   20.8650 C   0  0  0  0  0  0  0  0  0  0  0  0
  -21.4993  -25.8120   20.0229 C   0  0  1  0  0  0  0  0  0  0  0  0
  -24.2353  -27.6637   21.8985 C   0  0  1  0  0  0  0  0  0  0  0  0
  -27.6469  -13.1383   19.6898 C   0  0  2  0  0  0  0  0  0  0  0  0
  -30.7922  -31.5674   20.5670 C   0  0  0  0  0  0  0  0  0  0  0  0
  -26.7026  -27.0077   18.0459 C   0  0  0  0  0  0  0  0  0  0  0  0
  -28.9032  -28.1985   17.9585 C   0  0  0  0  0  0  0  0  0  0  0  0
  -26.7816  -29.4799   17.6767 C   0  0  0  0  0  0  0  0  0  0  0  0
  -29.9081  -20.9622   23.1082 C   0  0  0  0  0  0  0  0  0  0  0  0
  -29.0532  -31.1249   23.9221 C   0  0  0  0  0  0  0  0  0  0  0  0
  -28.3184  -22.7778   24.6508 C   0  0  0  0  0  0  0  0  0  1  0  0
  -27.3990  -28.5920   19.9619 C   0  0  1  0  0  0  0  0  0  0  0  0
  -29.6316  -31.2443   21.4952 C   0  0  2  0  0  0  0  0  0  0  0  0
  -27.4386  -28.3056   18.4342 C   0  0  0  0  0  0  0  0  0  0  0  0
  -32.7019  -17.4347   23.4284 N   0  0  0  0  0  0  0  0  0  0  0  0
  -25.8598  -11.5459   20.2830 N   0  0  0  0  0  0  0  0  0  0  0  0
  -26.2380  -12.8297   20.1607 N   0  0  0  0  0  0  0  0  0  0  0  0
  -25.6375  -27.7591   21.4875 N   0  0  0  0  0  0  0  0  0  0  0  0
  -29.9709  -13.6108   20.3579 N   0  0  0  0  0  0  0  0  0  0  0  0
  -32.5559  -19.1440   25.0662 N   0  0  0  0  0  0  0  0  0  0  0  0
  -25.4756  -15.0568   20.4245 N   0  0  0  0  0  0  0  0  0  0  0  0
  -21.8916  -12.5805   21.6159 N   0  0  0  0  0  0  0  0  0  0  0  0
  -30.0888  -15.6834   21.4772 N   0  0  0  0  0  0  0  0  0  0  0  0
  -22.2859  -26.7548   20.7888 N   0  0  0  0  0  0  0  0  0  0  0  0
  -28.0650  -29.8290   20.3554 N   0  0  0  0  0  0  0  0  0  0  0  0
  -29.4090  -20.4806   24.4241 N   0  0  0  0  0  0  0  0  0  0  0  0
  -29.3580  -18.7420   26.0577 N   0  3  0  0  0  0  0  0  0  0  0  0
  -30.1002  -31.3908   22.9022 N   0  3  0  0  0  0  0  0  0  0  0  0
  -22.6692  -14.7208   21.3455 O   0  0  0  0  0  0  0  0  0  0  0  0
  -24.3003  -25.5866   20.7777 O   0  0  0  0  0  0  0  0  0  0  0  0
  -25.2302  -29.5485   20.0492 O   0  0  0  0  0  0  0  0  0  0  0  0
  -28.1684  -21.0705   26.3287 O   0  0  0  0  0  0  0  0  0  0  0  0
  -29.5805  -28.8496   21.8119 O   0  0  0  0  0  0  0  0  0  0  0  0
  -31.8594  -14.9321   20.1802 O   0  0  0  0  0  0  0  0  0  0  0  0
  -21.6110   -7.0172   21.6928 O   0  0  0  0  0  0  0  0  0  0  0  0
  -27.5489  -23.5498   25.5717 O   0  0  0  0  0  0  0  0  0  1  0  0
  -18.6370   -6.8359   26.3324 F   0  0  0  0  0  0  0  0  0  0  0  0
  -22.0658   -5.0619   23.5935 F   0  0  0  0  0  0  0  0  0  0  0  0
  1  2  1  0  0  0  0
  1  5  2  0  0  0  0
  2  6  2  0  0  0  0
  3  8  2  0  0  0  0
  3 17  1  0  0  0  0
  4  9  1  0  0  0  0
  4 17  2  0  0  0  0
  5 20  1  0  0  0  0
  6 22  1  0  0  0  0
  7 10  2  0  0  0  0
  7 21  1  0  0  0  0
  8 25  1  0  0  0  0
  9 25  2  0  0  0  0
 10 26  1  0  0  0  0
 11 12  2  0  0  0  0
 11 27  1  0  0  0  0
 12 28  1  0  0  0  0
 13 18  1  0  0  0  0
 13 24  2  0  0  0  0
 14 23  1  0  0  0  0
 14 26  2  0  0  0  0
 15 28  2  0  0  0  0
 15 29  1  0  0  0  0
 16 24  1  0  0  0  0
 16 62  2  0  0  0  0
 17 30  1  0  0  0  0
 18 31  2  0  0  0  0
 18 33  1  0  0  0  0
 19 30  1  0  0  0  0
 19 32  2  0  0  0  0
 19 34  1  0  0  0  0
 20 22  2  0  0  0  0
 20 40  1  0  0  0  0
 21 23  2  0  0  0  0
 21 41  1  0  0  0  0
 22 49  1  0  0  0  0
 23 42  1  0  0  0  0
 24 70  1  0  0  0  0
 25 82  1  0  0  0  0
 26 83  1  0  0  0  0
 27 29  2  0  0  0  0
 27 82  1  0  0  0  0
 28 84  1  0  0  0  0
 29 85  1  0  0  0  0
 30 63  2  0  0  0  0
 31 62  1  0  0  0  0
 31 67  1  0  0  0  0
 32 64  1  0  0  0  0
 32 68  1  0  0  0  0
 33 73  1  0  0  0  0
 33 74  2  0  0  0  0
 34 69  1  0  0  0  0
 34 76  2  0  0  0  0
 35 50  1  0  0  0  0
 35 71  1  0  0  0  0
 35 77  2  0  0  0  0
 36 59  1  0  0  0  0
 36 65  1  0  0  0  0
 36 78  2  0  0  0  0
 37 58  1  0  0  0  0
 37 73  1  0  0  0  0
 37 79  2  0  0  0  0
 38 60  1  0  0  0  0
 38 72  1  0  0  0  0
 38 80  2  0  0  0  0
 39 66  1  0  0  0  0
 39 70  1  0  0  0  0
 39 81  2  0  0  0  0
 40 43  1  0  0  0  0
 41 50  1  0  0  0  0
 42 65  1  0  0  0  0
 43 45  1  0  0  0  0
 44 46  1  0  0  0  0
 44 47  1  0  0  0  0
 45 49  1  0  0  0  0
 46 51  1  0  0  0  0
 47 66  1  0  0  0  0
 48 51  1  0  0  0  0
 48 66  1  0  0  0  0
 49 71  1  0  0  0  0
 50 65  1  0  0  0  0
 51 64  1  0  0  0  0
 52 60  1  0  0  0  0
 53 61  1  0  0  0  0
 54 61  1  0  0  0  0
 55 61  1  0  0  0  0
 56 73  1  0  0  0  0
 57 75  1  0  0  0  0
 58 83  1  0  0  0  0
 59 61  1  0  0  0  0
 59 72  1  0  0  0  0
 60 75  1  0  0  0  0
 63 64  1  0  0  0  0
M  CHG  2  74   1  75   1
M  ISO  4  39 100  58 101  70 100  83 101
M  END
> <Batch ID>
0159

> <Smiles>
CNC(C)C(=O)NC(C(=O)N1Cc2cc([101O:1][101CH2:1]C(=O)N(C)C(=N)c3cc([100NH:0][100C:0](=O)N4CCCC(n5nc(-c6ccc(Oc7ccc(F)cc7F)cc6)c(C(N)=O)c5N)C4)cnc3N)ccc2CC1C(=O)NC1CCCc2ccccc21)C(C)(C)C

> <Shape>
0.237

> <Color>
0.180

> <Negative vol penalty>
0.000

$$$$

  -OEChem-04052303473D

 83 91  0     1  0  0  0  0  0999 V2000
  -26.7513  -31.2036   14.3215 C   0  0  0  0  0  0  0  0  0  0  0  0
  -27.2621  -30.1839   15.1182 C   0  0  0  0  0  0  0  0  0  0  0  0
  -23.0776   -9.8296   19.9872 C   0  0  0  0  0  0  0  0  0  0  0  0
  -23.7539   -9.9511   22.3034 C   0  0  0  0  0  0  0  0  0  0  0  0
  -25.5900  -31.8722   14.7066 C   0  0  0  0  0  0  0  0  0  0  0  0
  -26.6125  -29.8329   16.3010 C   0  0  0  0  0  0  0  0  0  0  0  0
  -26.1943  -24.8187   16.8736 C   0  0  0  0  0  0  0  0  0  0  0  0
  -22.3100   -8.7000   20.2705 C   0  0  0  0  0  0  0  0  0  0  0  0
  -22.9863   -8.8214   22.5868 C   0  0  0  0  0  0  0  0  0  0  0  0
  -27.3286  -24.1298   17.3007 C   0  0  0  0  0  0  0  0  0  0  0  0
  -19.7282   -8.0934   23.1114 C   0  0  0  0  0  0  0  0  0  0  0  0
  -18.9288   -8.1249   24.2540 C   0  0  0  0  0  0  0  0  0  0  0  0
  -26.4499  -24.0875   19.5469 C   0  0  0  0  0  0  0  0  0  0  0  0
  -31.5383  -18.5583   19.4393 C   0  0  0  0  0  0  0  0  0  0  0  0
  -20.1170   -6.2159   25.1378 C   0  0  0  0  0  0  0  0  0  0  0  0
  -31.8921  -18.3539   17.1513 C   0  0  0  0  0  0  0  0  0  0  0  0
  -23.7996  -10.4552   21.0036 C   0  0  0  0  0  0  0  0  0  0  0  0
  -24.1789  -12.9662   20.7621 C   0  0  0  0  0  0  0  0  0  0  0  0
  -24.9204  -31.5227   15.8899 C   0  0  0  0  0  0  0  0  0  0  0  0
  -25.1825  -25.1573   17.7836 C   0  0  0  0  0  0  0  0  0  0  0  0
  -25.4418  -30.4983   16.7030 C   0  0  0  0  0  0  0  0  0  0  0  0
  -25.3025  -24.7784   19.1283 C   0  0  0  0  0  0  0  0  0  0  0  0
  -31.2983  -19.1015   18.1442 C   0  0  0  0  0  0  0  0  0  0  0  0
  -22.2643   -8.1959   21.5703 C   0  0  0  0  0  0  0  0  0  0  0  0
  -27.4579  -23.7666   18.6380 C   0  0  0  0  0  0  0  0  0  0  0  0
  -20.7219   -7.1232   22.9818 C   0  0  0  0  0  0  0  0  0  0  0  0
  -19.1232   -7.1861   25.2672 C   0  0  0  0  0  0  0  0  0  0  0  0
  -20.9164   -6.1844   23.9951 C   0  0  0  0  0  0  0  0  0  0  0  0
  -24.5932  -11.6218   20.7114 C   0  0  0  0  0  0  0  0  0  0  0  0
  -25.2933  -13.6828   20.4000 C   0  0  0  0  0  0  0  0  0  0  0  0
  -32.3063  -17.4157   19.3869 C   0  0  0  0  0  0  0  0  0  0  0  0
  -22.9010  -13.5180   21.1059 C   0  0  0  0  0  0  0  0  0  0  0  0
  -23.9254  -27.8835   18.8281 C   0  0  0  0  0  0  0  0  0  0  0  0
  -21.8491  -25.8968   20.3329 C   0  0  0  0  0  0  0  0  0  0  0  0
  -29.9056  -21.0897   18.8088 C   0  0  0  0  0  0  0  0  0  0  0  0
  -21.2185  -22.7990   21.6185 C   0  0  0  0  0  0  0  0  0  0  0  0
  -30.6461  -14.7011   20.8185 C   0  0  0  0  0  0  0  0  0  0  0  0
  -23.6947  -32.3058   16.2888 C   0  0  0  0  0  0  0  0  0  0  0  0
  -23.9528  -25.8771   17.3019 C   0  0  0  0  0  0  0  0  0  0  0  0
  -24.2353  -25.1003   20.1412 C   0  0  0  0  0  0  0  0  0  0  0  0
  -22.8583  -31.6207   17.3665 C   0  0  0  0  0  0  0  0  0  0  0  0
  -29.6981  -12.1612   18.4387 C   0  0  0  0  0  0  0  0  0  0  0  0
  -23.7518  -31.1147   18.4945 C   0  0  0  0  0  0  0  0  0  0  0  0
  -28.2424  -11.9029   18.8304 C   0  0  0  0  0  0  0  0  0  0  0  0
  -30.5687  -12.4171   19.6664 C   0  0  0  0  0  0  0  0  0  0  0  0
  -28.6300  -13.2586   20.9361 C   0  0  0  0  0  0  0  0  0  0  0  0
  -24.7519  -30.0720   17.9806 C   0  0  1  0  0  0  0  0  0  0  0  0
  -23.2219  -26.6218   18.4148 C   0  0  1  0  0  0  0  0  0  0  0  0
  -27.6995  -13.0264   19.7325 C   0  0  2  0  0  0  0  0  0  0  0  0
  -19.4476  -21.4875   22.8191 C   0  0  0  0  0  0  0  0  0  0  0  0
  -22.5414  -27.3431   22.9289 C   0  0  0  0  0  0  0  0  0  0  0  0
  -21.5178  -25.4338   24.1840 C   0  0  0  0  0  0  0  0  0  0  0  0
  -20.1144  -26.8094   22.6474 C   0  0  0  0  0  0  0  0  0  0  0  0
  -21.0027  -20.8444   19.4067 C   0  0  0  0  0  0  0  0  0  0  0  0
  -29.2029  -22.2391   18.1107 C   0  0  0  0  0  0  0  0  0  1  0  0
  -21.8116  -25.2072   21.6753 C   0  0  1  0  0  0  0  0  0  0  0  0
  -20.0289  -21.8683   21.4663 C   0  0  2  0  0  0  0  0  0  0  0  0
  -21.5175  -26.1939   22.8404 C   0  0  0  0  0  0  0  0  0  0  0  0
  -25.8710  -11.4894   20.3458 N   0  0  0  0  0  0  0  0  0  0  0  0
  -26.2692  -12.7600   20.1634 N   0  0  0  0  0  0  0  0  0  0  0  0
  -23.0548  -25.8108   19.6225 N   0  0  0  0  0  0  0  0  0  0  0  0
  -30.0034  -13.4990   20.4808 N   0  0  0  0  0  0  0  0  0  0  0  0
  -25.5237  -15.0060   20.2641 N   0  0  0  0  0  0  0  0  0  0  0  0
  -21.8656  -12.6397   21.4534 N   0  0  0  0  0  0  0  0  0  0  0  0
  -30.5421  -20.2690   17.8839 N   0  0  0  0  0  0  0  0  0  0  0  0
  -24.1005  -28.7921   17.8018 N   0  0  0  0  0  0  0  0  0  0  0  0
  -20.8424  -24.1239   21.5507 N   0  0  0  0  0  0  0  0  0  0  0  0
  -31.9781  -14.9154   20.3214 N   0  0  0  0  0  0  0  0  0  0  0  0
  -20.4348  -20.6199   20.7610 N   0  3  0  0  0  0  0  0  0  0  0  0
  -22.6790  -14.7525   21.0889 O   0  0  0  0  0  0  0  0  0  0  0  0
  -24.2815  -28.0230   19.9923 O   0  0  0  0  0  0  0  0  0  0  0  0
  -20.8433  -26.4840   19.9264 O   0  0  0  0  0  0  0  0  0  0  0  0
  -29.8745  -20.9633   20.0285 O   0  0  0  0  0  0  0  0  0  0  0  0
  -22.3661  -22.3915   21.7848 O   0  0  0  0  0  0  0  0  0  0  0  0
  -30.1020  -15.5634   21.5093 O   0  0  0  0  0  0  0  0  0  0  0  0
  -34.3062  -16.0394   20.2851 O   0  0  0  0  0  0  0  0  0  0  0  0
  -32.5775  -16.8550   21.9251 O   0  0  0  0  0  0  0  0  0  0  0  0
  -21.5152   -7.0938   21.8472 O   0  0  0  0  0  0  0  0  0  0  0  0
  -28.5644  -23.0947   19.0577 O   0  0  0  0  0  0  0  0  0  1  0  0
  -18.3566   -7.2174   26.3651 F   0  0  0  0  0  0  0  0  0  0  0  0
  -21.8703   -5.2507   23.8769 F   0  0  0  0  0  0  0  0  0  0  0  0
  -32.7348  -17.0028   17.7813 S   0  0  0  0  0  0  0  0  0  0  0  0
  -32.9235  -16.3152   20.6244 S   0  0  0  0  0  0  0  0  0  0  0  0
  1  2  1  0  0  0  0
  1  5  2  0  0  0  0
  2  6  2  0  0  0  0
  3  8  2  0  0  0  0
  3 17  1  0  0  0  0
  4  9  1  0  0  0  0
  4 17  2  0  0  0  0
  5 19  1  0  0  0  0
  6 21  1  0  0  0  0
  7 10  2  0  0  0  0
  7 20  1  0  0  0  0
  8 24  1  0  0  0  0
  9 24  2  0  0  0  0
 10 25  1  0  0  0  0
 11 12  2  0  0  0  0
 11 26  1  0  0  0  0
 12 27  1  0  0  0  0
 13 22  1  0  0  0  0
 13 25  2  0  0  0  0
 14 23  1  0  0  0  0
 14 31  2  0  0  0  0
 15 27  2  0  0  0  0
 15 28  1  0  0  0  0
 16 23  2  0  0  0  0
 16 82  1  0  0  0  0
 17 29  1  0  0  0  0
 18 29  1  0  0  0  0
 18 30  2  0  0  0  0
 18 32  1  0  0  0  0
 19 21  2  0  0  0  0
 19 38  1  0  0  0  0
 20 22  2  0  0  0  0
 20 39  1  0  0  0  0
 21 47  1  0  0  0  0
 22 40  1  0  0  0  0
 23 65  1  0  0  0  0
 24 78  1  0  0  0  0
 25 79  1  0  0  0  0
 26 28  2  0  0  0  0
 26 78  1  0  0  0  0
 27 80  1  0  0  0  0
 28 81  1  0  0  0  0
 29 59  2  0  0  0  0
 30 60  1  0  0  0  0
 30 63  1  0  0  0  0
 31 82  1  0  0  0  0
 31 83  1  0  0  0  0
 32 64  1  0  0  0  0
 32 70  2  0  0  0  0
 33 48  1  0  0  0  0
 33 66  1  0  0  0  0
 33 71  2  0  0  0  0
 34 56  1  0  0  0  0
 34 61  1  0  0  0  0
 34 72  2  0  0  0  0
 35 55  1  0  0  0  0
 35 65  1  0  0  0  0
 35 73  2  0  0  0  0
 36 57  1  0  0  0  0
 36 67  1  0  0  0  0
 36 74  2  0  0  0  0
 37 62  1  0  0  0  0
 37 68  1  0  0  0  0
 37 75  2  0  0  0  0
 38 41  1  0  0  0  0
 39 48  1  0  0  0  0
 40 61  1  0  0  0  0
 41 43  1  0  0  0  0
 42 44  1  0  0  0  0
 42 45  1  0  0  0  0
 43 47  1  0  0  0  0
 44 49  1  0  0  0  0
 45 62  1  0  0  0  0
 46 49  1  0  0  0  0
 46 62  1  0  0  0  0
 47 66  1  0  0  0  0
 48 61  1  0  0  0  0
 49 60  1  0  0  0  0
 50 57  1  0  0  0  0
 51 58  1  0  0  0  0
 52 58  1  0  0  0  0
 53 58  1  0  0  0  0
 54 69  1  0  0  0  0
 55 79  1  0  0  0  0
 56 58  1  0  0  0  0
 56 67  1  0  0  0  0
 57 69  1  0  0  0  0
 59 60  1  0  0  0  0
 68 83  1  0  0  0  0
 76 83  2  0  0  0  0
 77 83  2  0  0  0  0
M  CHG  1  69   1
M  ISO  4  37 100  55 101  68 100  79 101
M  END
> <Batch ID>
0159

> <Smiles>
CNC(C)C(=O)NC(C(=O)N1Cc2cc([101O:1][101CH2:1]C(=O)Nc3csc(S(=O)(=O)[100NH:0][100C:0](=O)N4CCCC(n5nc(-c6ccc(Oc7ccc(F)cc7F)cc6)c(C(N)=O)c5N)C4)c3)ccc2CC1C(=O)NC1CCCc2ccccc21)C(C)(C)C

> <Shape>
0.222

> <Color>
0.190

> <Negative vol penalty>
0.000

$$$$

  -OEChem-04052303473D

 88 97  0     1  0  0  0  0  0999 V2000
  -28.6465  -30.8462   20.9953 C   0  0  0  0  0  0  0  0  0  0  0  0
  -28.4831  -29.8739   21.9768 C   0  0  0  0  0  0  0  0  0  0  0  0
  -30.9730  -21.1471   20.1594 C   0  0  0  0  0  0  0  0  0  0  0  0
  -28.7556  -20.2487   19.8230 C   0  0  0  0  0  0  0  0  0  0  0  0
  -27.5308  -31.3782   20.3502 C   0  0  0  0  0  0  0  0  0  0  0  0
  -27.2037  -29.4339   22.3147 C   0  0  0  0  0  0  0  0  0  0  0  0
  -25.3893  -22.4893   21.7057 C   0  0  0  0  0  0  0  0  0  0  0  0
  -30.6096  -22.3030   19.4684 C   0  0  0  0  0  0  0  0  0  0  0  0
  -28.3922  -21.4046   19.1320 C   0  0  0  0  0  0  0  0  0  0  0  0
  -25.0303  -21.1458   21.8171 C   0  0  0  0  0  0  0  0  0  0  0  0
  -28.8775  -25.1386   20.0945 C   0  0  0  0  0  0  0  0  0  0  0  0
  -29.2466  -26.3660   20.6448 C   0  0  0  0  0  0  0  0  0  0  0  0
  -25.2952  -13.1901   21.0200 C   0  0  0  0  0  0  0  0  0  0  0  0
  -22.8039  -21.7870   22.5098 C   0  0  0  0  0  0  0  0  0  0  0  0
  -30.5247  -26.8725   18.6581 C   0  0  0  0  0  0  0  0  0  0  0  0
  -23.8741  -11.5870   19.9870 C   0  0  0  0  0  0  0  0  0  0  0  0
  -26.1347  -11.4850   19.5902 C   0  0  0  0  0  0  0  0  0  0  0  0
  -30.0460  -20.1200   20.3367 C   0  0  0  0  0  0  0  0  0  0  0  0
  -24.0145  -12.6890   20.8151 C   0  0  0  0  0  0  0  0  0  0  0  0
  -30.8664  -18.8355   22.3823 C   0  0  0  0  0  0  0  0  0  0  0  0
  -26.2378  -30.9376   20.6735 C   0  0  0  0  0  0  0  0  0  0  0  0
  -24.4511  -23.4879   21.9815 C   0  0  0  0  0  0  0  0  0  0  0  0
  -26.0696  -29.9616   21.6743 C   0  0  0  0  0  0  0  0  0  0  0  0
  -23.1540  -23.1344   22.3879 C   0  0  0  0  0  0  0  0  0  0  0  0
  -26.3810  -12.5824   20.3995 C   0  0  0  0  0  0  0  0  0  0  0  0
  -29.3192  -22.4318   18.9547 C   0  0  0  0  0  0  0  0  0  0  0  0
  -23.7409  -20.7956   22.2183 C   0  0  0  0  0  0  0  0  0  0  0  0
  -29.3321  -24.7781   18.8259 C   0  0  0  0  0  0  0  0  0  0  0  0
  -30.0702  -27.2329   19.9267 C   0  0  0  0  0  0  0  0  0  0  0  0
  -30.1556  -25.6451   18.1078 C   0  0  0  0  0  0  0  0  0  0  0  0
  -30.4210  -18.9255   21.0499 C   0  0  0  0  0  0  0  0  0  0  0  0
  -31.0904  -17.4948   22.5797 C   0  0  0  0  0  0  0  0  0  0  0  0
  -22.8429  -13.3113   21.4571 C   0  0  0  0  0  0  0  0  0  0  0  0
  -31.0603  -19.8711   23.3547 C   0  0  0  0  0  0  0  0  0  0  0  0
  -23.7085  -27.1612   22.1593 C   0  0  0  0  0  0  0  0  0  0  0  0
  -21.2353  -25.8097   20.9479 C   0  0  0  0  0  0  0  0  0  0  0  0
  -18.3997  -25.0486   19.2108 C   0  0  0  0  0  0  0  0  0  0  0  0
  -28.8728  -12.5669   20.0295 C   0  0  0  0  0  0  0  0  0  0  0  0
  -25.0592  -31.5763   19.9823 C   0  0  0  0  0  0  0  0  0  0  0  0
  -24.8118  -24.9479   21.9342 C   0  0  0  0  0  0  0  0  0  0  0  0
  -22.1881  -24.2425   22.7076 C   0  0  0  0  0  0  0  0  0  0  0  0
  -23.7621  -30.7860   20.1346 C   0  0  0  0  0  0  0  0  0  0  0  0
  -32.3007  -13.5120   20.2117 C   0  0  0  0  0  0  0  0  0  0  0  0
  -23.5638  -30.3599   21.5858 C   0  0  0  0  0  0  0  0  0  0  0  0
  -32.2483  -14.9979   20.5746 C   0  0  0  0  0  0  0  0  0  0  0  0
  -22.7599  -16.6601   22.4603 C   0  0  0  0  0  0  0  0  0  0  0  0
  -23.7634  -16.4200   20.1511 C   0  0  0  0  0  0  0  0  0  0  0  0
  -31.1705  -13.1201   19.2616 C   0  0  0  0  0  0  0  0  0  0  0  0
  -21.8911  -15.4310   22.2064 C   0  0  0  0  0  0  0  0  0  0  0  0
  -22.8897  -15.1936   19.9031 C   0  0  0  0  0  0  0  0  0  0  0  0
  -29.7709  -14.9767   20.0760 C   0  0  0  0  0  0  0  0  0  0  0  0
  -24.6996  -29.4408   22.0511 C   0  0  1  0  0  0  0  0  0  0  0  0
  -23.6547  -25.8400   21.4501 C   0  0  1  0  0  0  0  0  0  0  0  0
  -30.8512  -15.4050   21.0824 C   0  0  2  0  0  0  0  0  0  0  0  0
  -23.1203  -17.3928   21.1561 C   0  0  0  0  0  0  0  0  0  0  0  0
  -16.0567  -25.8548   18.8140 C   0  0  0  0  0  0  0  0  0  0  0  0
  -20.4079  -24.7389   23.6816 C   0  0  0  0  0  0  0  0  0  0  0  0
  -18.0418  -24.6838   22.8649 C   0  0  0  0  0  0  0  0  0  0  0  0
  -19.2627  -26.8550   22.9994 C   0  0  0  0  0  0  0  0  0  0  0  0
  -18.8929  -25.4170   16.3160 C   0  0  0  0  0  0  0  0  0  0  0  0
  -22.1731  -18.6115   19.3840 C   0  0  0  0  0  0  0  0  0  0  0  0
  -24.0551  -18.5683   21.4450 C   0  0  0  0  0  0  0  0  0  1  0  0
  -19.8810  -25.1949   21.1955 C   0  0  1  0  0  0  0  0  0  0  0  0
  -17.4984  -25.8968   18.3319 C   0  0  2  0  0  0  0  0  0  0  0  0
  -19.4188  -25.3540   22.6715 C   0  0  0  0  0  0  0  0  0  0  0  0
  -24.9048  -10.9699   19.3671 N   0  0  0  0  0  0  0  0  0  0  0  0
  -30.3649  -17.7367   20.4436 N   0  0  0  0  0  0  0  0  0  0  0  0
  -30.7780  -16.8870   21.3993 N   0  0  0  0  0  0  0  0  0  0  0  0
  -22.5590  -14.5813   21.2032 N   0  0  0  0  0  0  0  0  0  0  0  0
  -22.3032  -25.3137   21.7057 N   0  0  0  0  0  0  0  0  0  0  0  0
  -29.8771  -13.5334   19.8102 N   0  0  0  0  0  0  0  0  0  0  0  0
  -31.5221  -16.7883   23.6459 N   0  0  0  0  0  0  0  0  0  0  0  0
  -30.7823  -21.1944   22.9859 N   0  0  0  0  0  0  0  0  0  0  0  0
  -27.6976  -13.0722   20.5846 N   0  0  0  0  0  0  0  0  0  0  0  0
  -24.5082  -28.1012   21.5379 N   0  0  0  0  0  0  0  0  0  0  0  0
  -18.9769  -25.7920   20.2185 N   0  0  0  0  0  0  0  0  0  0  0  0
  -22.0880  -12.5889   22.2796 N   0  3  0  0  0  0  0  0  0  0  0  0
  -17.5378  -25.4076   16.9248 N   0  3  0  0  0  0  0  0  0  0  0  0
  -31.4835  -19.6321   24.5111 O   0  0  0  0  0  0  0  0  0  0  0  0
  -23.0704  -27.3180   23.1937 O   0  0  0  0  0  0  0  0  0  0  0  0
  -21.3453  -26.7093   20.1101 O   0  0  0  0  0  0  0  0  0  0  0  0
  -18.5715  -23.8459   19.0245 O   0  0  0  0  0  0  0  0  0  0  0  0
  -29.0527  -11.3741   19.7710 O   0  0  0  0  0  0  0  0  0  0  0  0
  -28.9641  -23.5596   18.2806 O   0  0  0  0  0  0  0  0  0  0  0  0
  -23.3958  -19.4821   22.3206 O   0  0  0  0  0  0  0  0  0  1  0  0
  -21.9153  -17.9196   20.5945 O   0  0  0  0  0  0  0  0  0  0  0  0
  -30.4233  -28.4122   20.4547 F   0  0  0  0  0  0  0  0  0  0  0  0
  -30.5945  -25.3048   16.8882 F   0  0  0  0  0  0  0  0  0  0  0  0
  1  2  1  0  0  0  0
  1  5  2  0  0  0  0
  2  6  2  0  0  0  0
  3  8  2  0  0  0  0
  3 18  1  0  0  0  0
  4  9  1  0  0  0  0
  4 18  2  0  0  0  0
  5 21  1  0  0  0  0
  6 23  1  0  0  0  0
  7 10  2  0  0  0  0
  7 22  1  0  0  0  0
  8 26  1  0  0  0  0
  9 26  2  0  0  0  0
 10 27  1  0  0  0  0
 11 12  2  0  0  0  0
 11 28  1  0  0  0  0
 12 29  1  0  0  0  0
 13 19  2  0  0  0  0
 13 25  1  0  0  0  0
 14 24  1  0  0  0  0
 14 27  2  0  0  0  0
 15 29  2  0  0  0  0
 15 30  1  0  0  0  0
 16 19  1  0  0  0  0
 16 66  2  0  0  0  0
 17 25  2  0  0  0  0
 17 66  1  0  0  0  0
 18 31  1  0  0  0  0
 19 33  1  0  0  0  0
 20 31  1  0  0  0  0
 20 32  2  0  0  0  0
 20 34  1  0  0  0  0
 21 23  2  0  0  0  0
 21 39  1  0  0  0  0
 22 24  2  0  0  0  0
 22 40  1  0  0  0  0
 23 52  1  0  0  0  0
 24 41  1  0  0  0  0
 25 74  1  0  0  0  0
 26 84  1  0  0  0  0
 27 85  1  0  0  0  0
 28 30  2  0  0  0  0
 28 84  1  0  0  0  0
 29 87  1  0  0  0  0
 30 88  1  0  0  0  0
 31 67  2  0  0  0  0
 32 68  1  0  0  0  0
 32 72  1  0  0  0  0
 33 69  1  0  0  0  0
 33 77  2  0  0  0  0
 34 73  1  0  0  0  0
 34 79  2  0  0  0  0
 35 53  1  0  0  0  0
 35 75  1  0  0  0  0
 35 80  2  0  0  0  0
 36 63  1  0  0  0  0
 36 70  1  0  0  0  0
 36 81  2  0  0  0  0
 37 64  1  0  0  0  0
 37 76  1  0  0  0  0
 37 82  2  0  0  0  0
 38 71  1  0  0  0  0
 38 74  1  0  0  0  0
 38 83  2  0  0  0  0
 39 42  1  0  0  0  0
 40 53  1  0  0  0  0
 41 70  1  0  0  0  0
 42 44  1  0  0  0  0
 43 45  1  0  0  0  0
 43 48  1  0  0  0  0
 44 52  1  0  0  0  0
 45 54  1  0  0  0  0
 46 49  1  0  0  0  0
 46 55  1  0  0  0  0
 47 50  1  0  0  0  0
 47 55  1  0  0  0  0
 48 71  1  0  0  0  0
 49 69  1  0  0  0  0
 50 69  1  0  0  0  0
 51 54  1  0  0  0  0
 51 71  1  0  0  0  0
 52 75  1  0  0  0  0
 53 70  1  0  0  0  0
 54 68  1  0  0  0  0
 55 62  1  0  0  0  0
 55 86  1  0  0  0  0
 56 64  1  0  0  0  0
 57 65  1  0  0  0  0
 58 65  1  0  0  0  0
 59 65  1  0  0  0  0
 60 78  1  0  0  0  0
 61 86  1  0  0  0  0
 62 85  1  0  0  0  0
 63 65  1  0  0  0  0
 63 76  1  0  0  0  0
 64 78  1  0  0  0  0
 67 68  1  0  0  0  0
M  CHG  2  77   1  78   1
M  ISO  4  38 100  62 101  74 100  85 101
M  END
> <Batch ID>
0159

> <Smiles>
CNC(C)C(=O)NC(C(=O)N1Cc2cc([101O:1][101CH2:1]C3(OC)CCN(C(=N)c4cncc([100NH:0][100C:0](=O)N5CCCC(n6nc(-c7ccc(Oc8ccc(F)cc8F)cc7)c(C(N)=O)c6N)C5)c4)CC3)ccc2CC1C(=O)NC1CCCc2ccccc21)C(C)(C)C

> <Shape>
0.264

> <Color>
0.068

> <Negative vol penalty>
0.000

$$$$

  -OEChem-04052303473D

 88 97  0     1  0  0  0  0  0999 V2000
  -18.0280  -27.7289   24.6783 C   0  0  0  0  0  0  0  0  0  0  0  0
  -19.2669  -27.1921   24.3430 C   0  0  0  0  0  0  0  0  0  0  0  0
  -23.1485   -9.6645   21.5074 C   0  0  0  0  0  0  0  0  0  0  0  0
  -23.6848  -10.8062   23.5679 C   0  0  0  0  0  0  0  0  0  0  0  0
  -17.5817  -28.8928   24.0537 C   0  0  0  0  0  0  0  0  0  0  0  0
  -20.0598  -27.8184   23.3820 C   0  0  0  0  0  0  0  0  0  0  0  0
  -24.9865  -28.1950   24.8235 C   0  0  0  0  0  0  0  0  0  0  0  0
  -22.4448   -8.6981   22.2260 C   0  0  0  0  0  0  0  0  0  0  0  0
  -22.9811   -9.8398   24.2866 C   0  0  0  0  0  0  0  0  0  0  0  0
  -25.7947  -27.0634   24.7223 C   0  0  0  0  0  0  0  0  0  0  0  0
  -23.1576   -5.9630   24.0795 C   0  0  0  0  0  0  0  0  0  0  0  0
  -23.3668   -4.6258   23.7425 C   0  0  0  0  0  0  0  0  0  0  0  0
  -26.6629  -27.8784   22.6247 C   0  0  0  0  0  0  0  0  0  0  0  0
  -21.0214   -4.3925   23.2120 C   0  0  0  0  0  0  0  0  0  0  0  0
  -23.7686  -10.7186   22.1784 C   0  0  0  0  0  0  0  0  0  0  0  0
  -23.9893  -12.9172   20.9037 C   0  0  0  0  0  0  0  0  0  0  0  0
  -18.3738  -29.5390   23.0916 C   0  0  0  0  0  0  0  0  0  0  0  0
  -25.0025  -29.1738   23.8192 C   0  0  0  0  0  0  0  0  0  0  0  0
  -19.6232  -28.9913   22.7430 C   0  0  0  0  0  0  0  0  0  0  0  0
  -25.8575  -29.0236   22.7179 C   0  0  0  0  0  0  0  0  0  0  0  0
  -22.3611   -8.7857   23.6156 C   0  0  0  0  0  0  0  0  0  0  0  0
  -26.6313  -26.9039   23.6217 C   0  0  0  0  0  0  0  0  0  0  0  0
  -21.8802   -6.5150   23.9829 C   0  0  0  0  0  0  0  0  0  0  0  0
  -22.2987   -3.8405   23.3087 C   0  0  0  0  0  0  0  0  0  0  0  0
  -20.8121   -5.7298   23.5491 C   0  0  0  0  0  0  0  0  0  0  0  0
  -24.4961  -11.7169   21.4366 C   0  0  0  0  0  0  0  0  0  0  0  0
  -31.1548  -19.3291   19.8910 C   0  0  0  0  0  0  0  0  0  0  0  0
  -25.0709  -13.5070   20.2964 C   0  0  0  0  0  0  0  0  0  0  0  0
  -29.9698  -19.8991   20.3070 C   0  0  0  0  0  0  0  0  0  0  0  0
  -30.0484  -17.4919   20.3499 C   0  0  0  0  0  0  0  0  0  0  0  0
  -22.6597  -13.4514   20.9532 C   0  0  0  0  0  0  0  0  0  0  0  0
  -22.8836  -30.4393   21.7810 C   0  0  0  0  0  0  0  0  0  0  0  0
  -27.9122  -23.8358   22.1926 C   0  0  0  0  0  0  0  0  0  0  0  0
  -25.4770  -32.4133   21.1245 C   0  0  0  0  0  0  0  0  0  0  0  0
  -28.3133  -21.7066   20.8657 C   0  0  0  0  0  0  0  0  0  0  0  0
  -23.3871  -34.5109   19.4298 C   0  0  0  0  0  0  0  0  0  0  0  0
  -30.4341  -15.0033   20.2854 C   0  0  0  0  0  0  0  0  0  0  0  0
  -17.8285  -30.7686   22.4093 C   0  0  0  0  0  0  0  0  0  0  0  0
  -24.1450  -30.4020   23.9624 C   0  0  0  0  0  0  0  0  0  0  0  0
  -25.9142  -30.0470   21.6160 C   0  0  0  0  0  0  0  0  0  0  0  0
  -18.8922  -31.5788   21.6728 C   0  0  0  0  0  0  0  0  0  0  0  0
  -34.2641  -20.2457   17.9254 C   0  0  0  0  0  0  0  0  0  0  0  0
  -34.7612  -20.3569   19.3675 C   0  0  0  0  0  0  0  0  0  0  0  0
  -29.6769  -11.6753   19.2712 C   0  0  0  0  0  0  0  0  0  0  0  0
  -19.7785  -30.6610   20.8368 C   0  0  0  0  0  0  0  0  0  0  0  0
  -32.8300  -19.7271   18.0023 C   0  0  0  0  0  0  0  0  0  0  0  0
  -33.6392  -19.8126   20.2446 C   0  0  0  0  0  0  0  0  0  0  0  0
  -28.2199  -11.4882   19.7004 C   0  0  0  0  0  0  0  0  0  0  0  0
  -30.4602  -12.5185   20.2759 C   0  0  0  0  0  0  0  0  0  0  0  0
  -28.3953  -13.6265   21.0360 C   0  0  0  0  0  0  0  0  0  0  0  0
  -20.5229  -29.6553   21.7234 C   0  0  1  0  0  0  0  0  0  0  0  0
  -32.3758  -20.0700   19.4222 C   0  0  0  0  0  0  0  0  0  0  0  0
  -23.9000  -31.1323   22.6436 C   0  0  1  0  0  0  0  0  0  0  0  0
  -27.5495  -12.8381   20.0227 C   0  0  2  0  0  0  0  0  0  0  0  0
  -23.3226  -36.7710   18.3411 C   0  0  0  0  0  0  0  0  0  0  0  0
  -25.3277  -33.7290   23.8726 C   0  0  0  0  0  0  0  0  0  0  0  0
  -24.3356  -35.7481   22.7739 C   0  0  0  0  0  0  0  0  0  0  0  0
  -26.6411  -35.0094   22.1726 C   0  0  0  0  0  0  0  0  0  0  0  0
  -22.7626  -33.3459   16.7818 C   0  0  0  0  0  0  0  0  0  0  0  0
  -28.2305  -23.2208   20.8455 C   0  0  0  0  0  0  0  0  0  0  0  0
  -27.7291  -25.3400   22.2057 C   0  0  0  0  0  0  0  0  0  1  0  0
  -24.6592  -33.6546   21.3799 C   0  0  1  0  0  0  0  0  0  0  0  0
  -23.5676  -35.2842   18.1360 C   0  0  2  0  0  0  0  0  0  0  0  0
  -25.2287  -34.5097   22.5468 C   0  0  0  0  0  0  0  0  0  0  0  0
  -25.7984  -11.5523   21.1895 N   0  0  0  0  0  0  0  0  0  0  0  0
  -31.2019  -17.9489   19.9153 N   0  0  0  0  0  0  0  0  0  0  0  0
  -26.1189  -12.6570   20.4945 N   0  0  0  0  0  0  0  0  0  0  0  0
  -25.1240  -31.2640   21.8432 N   0  0  0  0  0  0  0  0  0  0  0  0
  -29.7676  -13.7838   20.5290 N   0  0  0  0  0  0  0  0  0  0  0  0
  -25.2182  -14.6645   19.6175 N   0  0  0  0  0  0  0  0  0  0  0  0
  -21.6686  -12.7162   21.6177 N   0  0  0  0  0  0  0  0  0  0  0  0
  -29.5448  -21.2446   20.4205 N   0  0  0  0  0  0  0  0  0  0  0  0
  -29.6647  -16.1400   20.5311 N   0  0  0  0  0  0  0  0  0  0  0  0
  -21.6458  -30.2924   22.3774 N   0  0  0  0  0  0  0  0  0  0  0  0
  -24.5795  -34.3603   20.1055 N   0  0  0  0  0  0  0  0  0  0  0  0
  -22.6172  -34.7897   17.1000 N   0  3  0  0  0  0  0  0  0  0  0  0
  -22.3557  -14.5404   20.4098 O   0  0  0  0  0  0  0  0  0  0  0  0
  -23.1986  -30.0667   20.6568 O   0  0  0  0  0  0  0  0  0  0  0  0
  -27.8151  -23.1594   23.2156 O   0  0  0  0  0  0  0  0  0  0  0  0
  -26.4085  -32.4607   20.3162 O   0  0  0  0  0  0  0  0  0  0  0  0
  -27.3646  -21.0408   21.2720 O   0  0  0  0  0  0  0  0  0  0  0  0
  -22.2965  -34.0863   19.8054 O   0  0  0  0  0  0  0  0  0  0  0  0
  -31.5924  -15.0364   19.8620 O   0  0  0  0  0  0  0  0  0  0  0  0
  -21.6743   -7.8430   24.3171 O   0  0  0  0  0  0  0  0  0  0  0  0
  -27.4216  -25.8006   23.5208 O   0  0  0  0  0  0  0  0  0  1  0  0
  -22.5001   -2.5568   22.9836 F   0  0  0  0  0  0  0  0  0  0  0  0
  -19.5829   -6.2548   23.4530 F   0  0  0  0  0  0  0  0  0  0  0  0
  -28.8617  -18.6662   20.7469 S   0  0  0  0  0  0  0  0  0  0  0  0
  1  2  1  0  0  0  0
  1  5  2  0  0  0  0
  2  6  2  0  0  0  0
  3  8  2  0  0  0  0
  3 15  1  0  0  0  0
  4  9  1  0  0  0  0
  4 15  2  0  0  0  0
  5 17  1  0  0  0  0
  6 19  1  0  0  0  0
  7 10  2  0  0  0  0
  7 18  1  0  0  0  0
  8 21  1  0  0  0  0
  9 21  2  0  0  0  0
 10 22  1  0  0  0  0
 11 12  2  0  0  0  0
 11 23  1  0  0  0  0
 12 24  1  0  0  0  0
 13 20  1  0  0  0  0
 13 22  2  0  0  0  0
 14 24  2  0  0  0  0
 14 25  1  0  0  0  0
 15 26  1  0  0  0  0
 16 26  1  0  0  0  0
 16 28  2  0  0  0  0
 16 31  1  0  0  0  0
 17 19  2  0  0  0  0
 17 38  1  0  0  0  0
 18 20  2  0  0  0  0
 18 39  1  0  0  0  0
 19 51  1  0  0  0  0
 20 40  1  0  0  0  0
 21 84  1  0  0  0  0
 22 85  1  0  0  0  0
 23 25  2  0  0  0  0
 23 84  1  0  0  0  0
 24 86  1  0  0  0  0
 25 87  1  0  0  0  0
 26 65  2  0  0  0  0
 27 29  2  0  0  0  0
 27 52  1  0  0  0  0
 27 66  1  0  0  0  0
 28 67  1  0  0  0  0
 28 70  1  0  0  0  0
 29 72  1  0  0  0  0
 29 88  1  0  0  0  0
 30 66  2  0  0  0  0
 30 73  1  0  0  0  0
 30 88  1  0  0  0  0
 31 71  1  0  0  0  0
 31 77  2  0  0  0  0
 32 53  1  0  0  0  0
 32 74  1  0  0  0  0
 32 78  2  0  0  0  0
 33 60  1  0  0  0  0
 33 61  1  0  0  0  0
 33 79  2  0  0  0  0
 34 62  1  0  0  0  0
 34 68  1  0  0  0  0
 34 80  2  0  0  0  0
 35 60  1  0  0  0  0
 35 72  1  0  0  0  0
 35 81  2  0  0  0  0
 36 63  1  0  0  0  0
 36 75  1  0  0  0  0
 36 82  2  0  0  0  0
 37 69  1  0  0  0  0
 37 73  1  0  0  0  0
 37 83  2  0  0  0  0
 38 41  1  0  0  0  0
 39 53  1  0  0  0  0
 40 68  1  0  0  0  0
 41 45  1  0  0  0  0
 42 43  1  0  0  0  0
 42 46  1  0  0  0  0
 43 47  1  0  0  0  0
 44 48  1  0  0  0  0
 44 49  1  0  0  0  0
 45 51  1  0  0  0  0
 46 52  1  0  0  0  0
 47 52  1  0  0  0  0
 48 54  1  0  0  0  0
 49 69  1  0  0  0  0
 50 54  1  0  0  0  0
 50 69  1  0  0  0  0
 51 74  1  0  0  0  0
 53 68  1  0  0  0  0
 54 67  1  0  0  0  0
 55 63  1  0  0  0  0
 56 64  1  0  0  0  0
 57 64  1  0  0  0  0
 58 64  1  0  0  0  0
 59 76  1  0  0  0  0
 61 85  1  0  0  0  0
 62 64  1  0  0  0  0
 62 75  1  0  0  0  0
 63 76  1  0  0  0  0
 65 67  1  0  0  0  0
M  CHG  1  76   1
M  ISO  4  37 100  61 101  73 100  85 101
M  END
> <Batch ID>
0159

> <Smiles>
CNC(C)C(=O)NC(C(=O)N1Cc2cc([101O:1][101CH2:1]C(=O)CC(=O)Nc3sc([100NH:0][100C:0](=O)N4CCCC(n5nc(-c6ccc(Oc7ccc(F)cc7F)cc6)c(C(N)=O)c5N)C4)nc3C3CCCC3)ccc2CC1C(=O)NC1CCCc2ccccc21)C(C)(C)C

> <Shape>
0.303

> <Color>
0.144

> <Negative vol penalty>
0.000

$$$$

  -OEChem-04052303473D

 86 94  0     1  0  0  0  0  0999 V2000
  -16.3683  -26.3238   24.8002 C   0  0  0  0  0  0  0  0  0  0  0  0
  -17.3900  -26.0108   23.9094 C   0  0  0  0  0  0  0  0  0  0  0  0
  -22.9359  -11.1583   18.8729 C   0  0  0  0  0  0  0  0  0  0  0  0
  -22.9685  -10.0486   21.0188 C   0  0  0  0  0  0  0  0  0  0  0  0
  -16.0726  -27.6574   25.0794 C   0  0  0  0  0  0  0  0  0  0  0  0
  -18.1160  -27.0314   23.2963 C   0  0  0  0  0  0  0  0  0  0  0  0
  -23.1026  -26.1493   23.3136 C   0  0  0  0  0  0  0  0  0  0  0  0
  -21.8914  -10.3307   18.4609 C   0  0  0  0  0  0  0  0  0  0  0  0
  -21.9240   -9.2211   20.6067 C   0  0  0  0  0  0  0  0  0  0  0  0
  -23.5925  -25.2452   22.3722 C   0  0  0  0  0  0  0  0  0  0  0  0
  -19.0248   -7.0568   20.2484 C   0  0  0  0  0  0  0  0  0  0  0  0
  -17.9725   -6.8468   21.1396 C   0  0  0  0  0  0  0  0  0  0  0  0
  -24.2970  -27.0853   20.9805 C   0  0  0  0  0  0  0  0  0  0  0  0
  -28.4150  -19.2789   20.5712 C   0  0  0  0  0  0  0  0  0  0  0  0
  -17.5138   -9.2188   21.1569 C   0  0  0  0  0  0  0  0  0  0  0  0
  -23.4745  -11.0172   20.1519 C   0  0  0  0  0  0  0  0  0  0  0  0
  -30.1654  -17.8834   19.6814 C   0  0  0  0  0  0  0  0  0  0  0  0
  -24.4474  -13.1175   21.2241 C   0  0  0  0  0  0  0  0  0  0  0  0
  -16.8017  -28.6947   24.4769 C   0  0  0  0  0  0  0  0  0  0  0  0
  -23.1966  -27.5305   23.0902 C   0  0  0  0  0  0  0  0  0  0  0  0
  -17.8289  -28.3802   23.5667 C   0  0  0  0  0  0  0  0  0  0  0  0
  -23.8098  -28.0049   21.9219 C   0  0  0  0  0  0  0  0  0  0  0  0
  -29.1890  -18.1248   20.6432 C   0  0  0  0  0  0  0  0  0  0  0  0
  -21.3855   -9.3621   19.3278 C   0  0  0  0  0  0  0  0  0  0  0  0
  -24.1873  -25.7131   21.2041 C   0  0  0  0  0  0  0  0  0  0  0  0
  -19.3216   -8.3478   19.8115 C   0  0  0  0  0  0  0  0  0  0  0  0
  -17.2170   -7.9278   21.5938 C   0  0  0  0  0  0  0  0  0  0  0  0
  -18.5661   -9.4288   20.2657 C   0  0  0  0  0  0  0  0  0  0  0  0
  -24.5538  -11.8714   20.5779 C   0  0  0  0  0  0  0  0  0  0  0  0
  -25.7473  -13.5187   21.4127 C   0  0  0  0  0  0  0  0  0  0  0  0
  -28.6384  -20.1697   19.5309 C   0  0  0  0  0  0  0  0  0  0  0  0
  -30.3444  -18.8094   18.6635 C   0  0  0  0  0  0  0  0  0  0  0  0
  -31.0164  -16.6664   19.7207 C   0  0  0  0  0  0  0  0  0  0  0  0
  -23.2779  -13.8472   21.6188 C   0  0  0  0  0  0  0  0  0  0  0  0
  -21.1005  -29.8974   22.7621 C   0  0  0  0  0  0  0  0  0  0  0  0
  -26.2602  -23.0496   19.8946 C   0  0  0  0  0  0  0  0  0  0  0  0
  -23.7709  -31.7389   22.7487 C   0  0  0  0  0  0  0  0  0  0  0  0
  -27.1289  -31.9687   22.1853 C   0  0  0  0  0  0  0  0  0  0  0  0
  -30.9480  -14.1946   19.6256 C   0  0  0  0  0  0  0  0  0  0  0  0
  -16.4143  -30.1218   24.7737 C   0  0  0  0  0  0  0  0  0  0  0  0
  -22.6873  -28.4929   24.1279 C   0  0  0  0  0  0  0  0  0  0  0  0
  -23.9536  -29.4781   21.6438 C   0  0  0  0  0  0  0  0  0  0  0  0
  -17.4783  -31.1386   24.3685 C   0  0  0  0  0  0  0  0  0  0  0  0
  -30.0957  -10.9855   20.8391 C   0  0  0  0  0  0  0  0  0  0  0  0
  -17.9939  -30.8410   22.9641 C   0  0  0  0  0  0  0  0  0  0  0  0
  -28.5687  -11.0320   20.9413 C   0  0  0  0  0  0  0  0  0  0  0  0
  -30.6054  -11.7393   19.6116 C   0  0  0  0  0  0  0  0  0  0  0  0
  -28.5968  -13.1615   19.5817 C   0  0  0  0  0  0  0  0  0  0  0  0
  -18.6552  -29.4589   22.9006 C   0  0  1  0  0  0  0  0  0  0  0  0
  -22.3737  -29.8735   23.5596 C   0  0  1  0  0  0  0  0  0  0  0  0
  -28.0386  -12.4763   20.8396 C   0  0  1  0  0  0  0  0  0  0  0  0
  -29.0247  -33.6125   22.2227 C   0  0  0  0  0  0  0  0  0  0  0  0
  -22.7782  -32.9398   20.1252 C   0  0  0  0  0  0  0  0  0  0  0  0
  -25.0866  -33.8290   19.7395 C   0  0  0  0  0  0  0  0  0  0  0  0
  -23.7727  -34.5914   21.7182 C   0  0  0  0  0  0  0  0  0  0  0  0
  -28.5784  -30.4265   24.2539 C   0  0  0  0  0  0  0  0  0  0  0  0
  -26.8549  -21.7247   20.3225 C   0  0  0  0  0  0  0  0  0  0  0  0
  -25.1401  -23.5778   20.7695 C   0  0  0  0  0  0  0  0  0  1  0  0
  -24.7149  -32.2455   21.6851 C   0  0  1  0  0  0  0  0  0  0  0  0
  -28.2504  -32.5694   23.0134 C   0  0  2  0  0  0  0  0  0  0  0  0
  -24.0838  -33.3736   20.8210 C   0  0  0  0  0  0  0  0  0  0  0  0
  -25.8213  -11.5051   20.3698 N   0  0  0  0  0  0  0  0  0  0  0  0
  -26.5232  -12.5272   20.8881 N   0  0  0  0  0  0  0  0  0  0  0  0
  -29.5851  -19.9125   18.6181 N   0  3  0  0  0  0  0  0  0  0  0  0
  -23.4344  -30.3793   22.6859 N   0  0  0  0  0  0  0  0  0  0  0  0
  -30.0661  -13.1002   19.5943 N   0  0  0  0  0  0  0  0  0  0  0  0
  -28.9694  -17.2138   21.6999 N   0  0  0  0  0  0  0  0  0  0  0  0
  -26.2910  -14.6193   21.9744 N   0  0  0  0  0  0  0  0  0  0  0  0
  -22.0203  -13.2903   21.3491 N   0  0  0  0  0  0  0  0  0  0  0  0
  -27.8978  -21.3366   19.4077 N   0  0  0  0  0  0  0  0  0  0  0  0
  -30.3339  -15.4517   19.6492 N   0  0  0  0  0  0  0  0  0  0  0  0
  -19.9828  -29.5070   23.4747 N   0  0  0  0  0  0  0  0  0  0  0  0
  -25.9380  -32.6365   22.3775 N   0  0  0  0  0  0  0  0  0  0  0  0
  -29.2013  -31.5066   23.4462 N   0  3  0  0  0  0  0  0  0  0  0  0
  -32.2369  -16.7915   19.7721 O   0  0  0  0  0  0  0  0  0  0  0  0
  -23.3459  -14.9676   22.1787 O   0  0  0  0  0  0  0  0  0  0  0  0
  -21.1297  -30.2457   21.5876 O   0  0  0  0  0  0  0  0  0  0  0  0
  -26.6517  -23.6657   18.9042 O   0  0  0  0  0  0  0  0  0  0  0  0
  -23.3532  -32.5192   23.6080 O   0  0  0  0  0  0  0  0  0  0  0  0
  -27.2938  -31.0059   21.4394 O   0  0  0  0  0  0  0  0  0  0  0  0
  -32.1754  -14.0637   19.6676 O   0  0  0  0  0  0  0  0  0  0  0  0
  -20.3661   -8.5546   18.9261 O   0  0  0  0  0  0  0  0  0  0  0  0
  -24.6657  -24.8327   20.2832 O   0  0  0  0  0  0  0  0  0  1  0  0
  -16.2056   -7.7258   22.4485 F   0  0  0  0  0  0  0  0  0  0  0  0
  -18.8458  -10.6712   19.8486 F   0  0  0  0  0  0  0  0  0  0  0  0
  -31.2780  -18.6078   17.7219 F   0  0  0  0  0  0  0  0  0  0  0  0
  1  2  1  0  0  0  0
  1  5  2  0  0  0  0
  2  6  2  0  0  0  0
  3  8  2  0  0  0  0
  3 16  1  0  0  0  0
  4  9  1  0  0  0  0
  4 16  2  0  0  0  0
  5 19  1  0  0  0  0
  6 21  1  0  0  0  0
  7 10  2  0  0  0  0
  7 20  1  0  0  0  0
  8 24  1  0  0  0  0
  9 24  2  0  0  0  0
 10 25  1  0  0  0  0
 11 12  2  0  0  0  0
 11 26  1  0  0  0  0
 12 27  1  0  0  0  0
 13 22  1  0  0  0  0
 13 25  2  0  0  0  0
 14 23  2  0  0  0  0
 14 31  1  0  0  0  0
 15 27  2  0  0  0  0
 15 28  1  0  0  0  0
 16 29  1  0  0  0  0
 17 23  1  0  0  0  0
 17 32  2  0  0  0  0
 17 33  1  0  0  0  0
 18 29  1  0  0  0  0
 18 30  2  0  0  0  0
 18 34  1  0  0  0  0
 19 21  2  0  0  0  0
 19 40  1  0  0  0  0
 20 22  2  0  0  0  0
 20 41  1  0  0  0  0
 21 49  1  0  0  0  0
 22 42  1  0  0  0  0
 23 67  1  0  0  0  0
 24 82  1  0  0  0  0
 25 83  1  0  0  0  0
 26 28  2  0  0  0  0
 26 82  1  0  0  0  0
 27 84  1  0  0  0  0
 28 85  1  0  0  0  0
 29 62  2  0  0  0  0
 30 63  1  0  0  0  0
 30 68  1  0  0  0  0
 31 64  2  0  0  0  0
 31 70  1  0  0  0  0
 32 64  1  0  0  0  0
 32 86  1  0  0  0  0
 33 71  1  0  0  0  0
 33 75  2  0  0  0  0
 34 69  1  0  0  0  0
 34 76  2  0  0  0  0
 35 50  1  0  0  0  0
 35 72  1  0  0  0  0
 35 77  2  0  0  0  0
 36 57  1  0  0  0  0
 36 58  1  0  0  0  0
 36 78  2  0  0  0  0
 37 59  1  0  0  0  0
 37 65  1  0  0  0  0
 37 79  2  0  0  0  0
 38 60  1  0  0  0  0
 38 73  1  0  0  0  0
 38 80  2  0  0  0  0
 39 66  1  0  0  0  0
 39 71  1  0  0  0  0
 39 81  2  0  0  0  0
 40 43  1  0  0  0  0
 41 50  1  0  0  0  0
 42 65  1  0  0  0  0
 43 45  1  0  0  0  0
 44 46  1  0  0  0  0
 44 47  1  0  0  0  0
 45 49  1  0  0  0  0
 46 51  1  0  0  0  0
 47 66  1  0  0  0  0
 48 51  1  0  0  0  0
 48 66  1  0  0  0  0
 49 72  1  0  0  0  0
 50 65  1  0  0  0  0
 51 63  1  0  0  0  0
 52 60  1  0  0  0  0
 53 61  1  0  0  0  0
 54 61  1  0  0  0  0
 55 61  1  0  0  0  0
 56 74  1  0  0  0  0
 57 70  1  0  0  0  0
 58 83  1  0  0  0  0
 59 61  1  0  0  0  0
 59 73  1  0  0  0  0
 60 74  1  0  0  0  0
 62 63  1  0  0  0  0
M  CHG  2  64   1  74   1
M  ISO  4  39 100  58 101  71 100  83 101
M  END
> <Batch ID>
0159

> <Smiles>
CNC(C)C(=O)NC(C(=O)N1Cc2cc([101O:1][101CH2:1]C(=O)CNc3cc(N)c(C(=O)[100NH:0][100C:0](=O)N4CCCC(n5nc(-c6ccc(Oc7ccc(F)cc7F)cc6)c(C(N)=O)c5N)C4)c(F)n3)ccc2CC1C(=O)NC1CCCc2ccccc21)C(C)(C)C

> <Shape>
0.271

> <Color>
0.089

> <Negative vol penalty>
0.000

$$$$

  -OEChem-04052303473D

 85 93  0     1  0  0  0  0  0999 V2000
  -32.2018  -34.2279   20.1019 C   0  0  0  0  0  0  0  0  0  0  0  0
  -31.6130  -32.9685   20.0501 C   0  0  0  0  0  0  0  0  0  0  0  0
  -24.3815   -9.0987   22.1873 C   0  0  0  0  0  0  0  0  0  0  0  0
  -24.1089   -8.7913   19.8065 C   0  0  0  0  0  0  0  0  0  0  0  0
  -31.8177  -35.1357   21.0879 C   0  0  0  0  0  0  0  0  0  0  0  0
  -30.6404  -32.6158   20.9850 C   0  0  0  0  0  0  0  0  0  0  0  0
  -26.6571  -30.3127   18.8699 C   0  0  0  0  0  0  0  0  0  0  0  0
  -23.2793   -8.2761   22.4197 C   0  0  0  0  0  0  0  0  0  0  0  0
  -23.0067   -7.9686   20.0389 C   0  0  0  0  0  0  0  0  0  0  0  0
  -26.8057  -28.9692   18.5285 C   0  0  0  0  0  0  0  0  0  0  0  0
  -22.6110   -4.9619   22.4695 C   0  0  0  0  0  0  0  0  0  0  0  0
  -22.7241   -3.9928   23.4663 C   0  0  0  0  0  0  0  0  0  0  0  0
  -31.8842  -20.0901   21.4480 C   0  0  0  0  0  0  0  0  0  0  0  0
  -29.6303  -20.4759   20.6682 C   0  0  0  0  0  0  0  0  0  0  0  0
  -25.6358  -28.3347   20.5404 C   0  0  0  0  0  0  0  0  0  0  0  0
  -31.2012  -22.3082   20.7769 C   0  0  0  0  0  0  0  0  0  0  0  0
  -20.8711   -4.9942   24.6499 C   0  0  0  0  0  0  0  0  0  0  0  0
  -24.7963   -9.3563   20.8807 C   0  0  0  0  0  0  0  0  0  0  0  0
  -30.6092  -19.6079   21.1519 C   0  0  0  0  0  0  0  0  0  0  0  0
  -27.2823   -9.8135   20.5362 C   0  0  0  0  0  0  0  0  0  0  0  0
  -30.8329  -34.7975   22.0294 C   0  0  0  0  0  0  0  0  0  0  0  0
  -26.0052  -30.6776   20.0566 C   0  0  0  0  0  0  0  0  0  0  0  0
  -30.2437  -33.5195   21.9853 C   0  0  0  0  0  0  0  0  0  0  0  0
  -25.4780  -29.6836   20.8934 C   0  0  0  0  0  0  0  0  0  0  0  0
  -32.1802  -21.4402   21.2606 C   0  0  0  0  0  0  0  0  0  0  0  0
  -29.9263  -21.8261   20.4807 C   0  0  0  0  0  0  0  0  0  0  0  0
  -22.5919   -7.7110   21.3455 C   0  0  0  0  0  0  0  0  0  0  0  0
  -26.2976  -27.9798   19.3652 C   0  0  0  0  0  0  0  0  0  0  0  0
  -21.6280   -5.9471   22.5628 C   0  0  0  0  0  0  0  0  0  0  0  0
  -21.8541   -4.0089   24.5565 C   0  0  0  0  0  0  0  0  0  0  0  0
  -20.7580   -5.9632   23.6530 C   0  0  0  0  0  0  0  0  0  0  0  0
  -25.9345  -10.2065   20.6399 C   0  0  0  0  0  0  0  0  0  0  0  0
  -27.9643  -10.9833   20.3062 C   0  0  0  0  0  0  0  0  0  0  0  0
  -30.3006  -18.2000   21.3474 C   0  0  0  0  0  0  0  0  0  0  0  0
  -29.0610  -17.6799   21.4716 C   0  0  0  0  0  0  0  0  0  0  0  0
  -27.5581  -26.0125   19.4737 C   0  0  0  0  0  0  0  0  0  1  0  0
  -27.8656   -8.5077   20.6384 C   0  0  0  0  0  0  0  0  0  0  0  0
  -27.8182  -24.7260   19.2183 C   0  0  0  0  0  0  0  0  0  0  0  0
  -28.9104  -16.2224   21.6558 C   0  0  0  0  0  0  0  0  0  0  0  0
  -29.0607  -24.0686   19.7367 C   0  0  0  0  0  0  0  0  0  0  0  0
  -26.8560  -32.2278   22.6980 C   0  0  0  0  0  0  0  0  0  0  0  0
  -23.7023  -31.9549   23.4067 C   0  0  0  0  0  0  0  0  0  0  0  0
  -20.7635  -30.2821   22.9461 C   0  0  0  0  0  0  0  0  0  0  0  0
  -30.4845  -35.7950   23.1056 C   0  0  0  0  0  0  0  0  0  0  0  0
  -25.8295  -32.1321   20.3973 C   0  0  0  0  0  0  0  0  0  0  0  0
  -24.7520  -30.0234   22.1685 C   0  0  0  0  0  0  0  0  0  0  0  0
  -29.1780  -35.4790   23.8291 C   0  0  0  0  0  0  0  0  0  0  0  0
  -26.3069  -15.6039   19.1515 C   0  0  0  0  0  0  0  0  0  0  0  0
  -29.1229  -34.0034   24.2114 C   0  0  0  0  0  0  0  0  0  0  0  0
  -26.0594  -14.1106   19.3479 C   0  0  0  0  0  0  0  0  0  0  0  0
  -26.6540  -16.3035   20.4648 C   0  0  0  0  0  0  0  0  0  0  0  0
  -27.5511  -14.1848   21.3850 C   0  0  0  0  0  0  0  0  0  0  0  0
  -29.1673  -33.1089   22.9666 C   0  0  1  0  0  0  0  0  0  0  0  0
  -25.6001  -32.3736   21.8860 C   0  0  1  0  0  0  0  0  0  0  0  0
  -27.2464  -13.4523   20.0689 C   0  0  1  0  0  0  0  0  0  0  0  0
  -18.3668  -30.2690   23.6898 C   0  0  0  0  0  0  0  0  0  0  0  0
  -24.5356  -30.7040   26.0621 C   0  0  0  0  0  0  0  0  0  0  0  0
  -22.1912  -29.8648   26.3227 C   0  0  0  0  0  0  0  0  0  0  0  0
  -22.6318  -32.3180   26.2211 C   0  0  0  0  0  0  0  0  0  0  0  0
  -19.7858  -30.7566   20.1934 C   0  0  0  0  0  0  0  0  0  0  0  0
  -22.8512  -30.9312   24.1186 C   0  0  1  0  0  0  0  0  0  0  0  0
  -19.3582  -30.7764   22.6542 C   0  0  2  0  0  0  0  0  0  0  0  0
  -23.0678  -30.9477   25.6581 C   0  0  0  0  0  0  0  0  0  0  0  0
  -25.7682  -11.5231   20.4885 N   0  0  0  0  0  0  0  0  0  0  0  0
  -27.0204  -11.9675   20.2873 N   0  0  0  0  0  0  0  0  0  0  0  0
  -27.7532  -15.6211   21.1641 N   0  0  0  0  0  0  0  0  0  0  0  0
  -24.6113  -31.4594   22.4611 N   0  0  0  0  0  0  0  0  0  0  0  0
  -33.4692  -21.9279   21.5601 N   0  0  0  0  0  0  0  0  0  0  0  0
  -29.2734  -11.2557   20.1204 N   0  0  0  0  0  0  0  0  0  0  0  0
  -27.0206   -7.4153   20.8770 N   0  0  0  0  0  0  0  0  0  0  0  0
  -28.9307  -22.7091   19.9889 N   0  0  0  0  0  0  0  0  0  0  0  0
  -27.8740  -33.0813   22.3177 N   0  0  0  0  0  0  0  0  0  0  0  0
  -21.4754  -31.1861   23.7059 N   0  0  0  0  0  0  0  0  0  0  0  0
  -26.9032  -23.9649   18.4559 N   0  3  0  0  0  0  0  0  0  0  0  0
  -18.9139  -30.3101   21.3103 N   0  3  0  0  0  0  0  0  0  0  0  0
  -29.1014   -8.3175   20.5381 O   0  0  0  0  0  0  0  0  0  0  0  0
  -29.8176  -15.6263   22.2391 O   0  0  0  0  0  0  0  0  0  0  0  0
  -30.0759  -24.7433   19.8947 O   0  0  0  0  0  0  0  0  0  0  0  0
  -26.8977  -31.4031   23.6034 O   0  0  0  0  0  0  0  0  0  0  0  0
  -23.5607  -33.1506   23.6745 O   0  0  0  0  0  0  0  0  0  0  0  0
  -21.1862  -29.2004   22.5438 O   0  0  0  0  0  0  0  0  0  0  0  0
  -21.5165   -6.9081   21.5719 O   0  0  0  0  0  0  0  0  0  0  0  0
  -26.4419  -26.6676   19.0347 O   0  0  0  0  0  0  0  0  0  1  0  0
  -21.9619   -3.0774   25.5130 F   0  0  0  0  0  0  0  0  0  0  0  0
  -19.8109   -6.9065   23.7476 F   0  0  0  0  0  0  0  0  0  0  0  0
  1  2  1  0  0  0  0
  1  5  2  0  0  0  0
  2  6  2  0  0  0  0
  3  8  2  0  0  0  0
  3 18  1  0  0  0  0
  4  9  1  0  0  0  0
  4 18  2  0  0  0  0
  5 21  1  0  0  0  0
  6 23  1  0  0  0  0
  7 10  2  0  0  0  0
  7 22  1  0  0  0  0
  8 27  1  0  0  0  0
  9 27  2  0  0  0  0
 10 28  1  0  0  0  0
 11 12  2  0  0  0  0
 11 29  1  0  0  0  0
 12 30  1  0  0  0  0
 13 19  2  0  0  0  0
 13 25  1  0  0  0  0
 14 19  1  0  0  0  0
 14 26  2  0  0  0  0
 15 24  1  0  0  0  0
 15 28  2  0  0  0  0
 16 25  2  0  0  0  0
 16 26  1  0  0  0  0
 17 30  2  0  0  0  0
 17 31  1  0  0  0  0
 18 32  1  0  0  0  0
 19 34  1  0  0  0  0
 20 32  1  0  0  0  0
 20 33  2  0  0  0  0
 20 37  1  0  0  0  0
 21 23  2  0  0  0  0
 21 44  1  0  0  0  0
 22 24  2  0  0  0  0
 22 45  1  0  0  0  0
 23 53  1  0  0  0  0
 24 46  1  0  0  0  0
 25 68  1  0  0  0  0
 26 71  1  0  0  0  0
 27 82  1  0  0  0  0
 28 83  1  0  0  0  0
 29 31  2  0  0  0  0
 29 82  1  0  0  0  0
 30 84  1  0  0  0  0
 31 85  1  0  0  0  0
 32 64  2  0  0  0  0
 33 65  1  0  0  0  0
 33 69  1  0  0  0  0
 34 35  2  0  0  0  0
 35 39  1  0  0  0  0
 36 38  2  0  0  0  0
 36 83  1  0  0  0  0
 37 70  1  0  0  0  0
 37 76  2  0  0  0  0
 38 40  1  0  0  0  0
 38 74  1  0  0  0  0
 39 66  1  0  0  0  0
 39 77  2  0  0  0  0
 40 71  1  0  0  0  0
 40 78  2  0  0  0  0
 41 54  1  0  0  0  0
 41 72  1  0  0  0  0
 41 79  2  0  0  0  0
 42 61  1  0  0  0  0
 42 67  1  0  0  0  0
 42 80  2  0  0  0  0
 43 62  1  0  0  0  0
 43 73  1  0  0  0  0
 43 81  2  0  0  0  0
 44 47  1  0  0  0  0
 45 54  1  0  0  0  0
 46 67  1  0  0  0  0
 47 49  1  0  0  0  0
 48 50  1  0  0  0  0
 48 51  1  0  0  0  0
 49 53  1  0  0  0  0
 50 55  1  0  0  0  0
 51 66  1  0  0  0  0
 52 55  1  0  0  0  0
 52 66  1  0  0  0  0
 53 72  1  0  0  0  0
 54 67  1  0  0  0  0
 55 65  1  0  0  0  0
 56 62  1  0  0  0  0
 57 63  1  0  0  0  0
 58 63  1  0  0  0  0
 59 63  1  0  0  0  0
 60 75  1  0  0  0  0
 61 63  1  0  0  0  0
 61 73  1  0  0  0  0
 62 75  1  0  0  0  0
 64 65  1  0  0  0  0
M  CHG  2  74   1  75   1
M  ISO  4  35 100  36 101  39 100  83 101
M  END
> <Batch ID>
0159

> <Smiles>
CNC(C)C(=O)NC(C(=O)N1Cc2cc([101O:1][101CH2:1]C(=N)C(=O)Nc3cc(N)cc(C=[100CH:0][100C:0](=O)N4CCCC(n5nc(-c6ccc(Oc7ccc(F)cc7F)cc6)c(C(N)=O)c5N)C4)c3)ccc2CC1C(=O)NC1CCCc2ccccc21)C(C)(C)C

> <Shape>
0.271

> <Color>
0.084

> <Negative vol penalty>
0.000

$$$$

  -OEChem-04052303473D

 90 98  0     1  0  0  0  0  0999 V2000
  -26.0359  -22.3036   18.3088 C   0  0  0  0  0  0  0  0  0  0  0  0
  -24.9799  -22.8581   19.0248 C   0  0  0  0  0  0  0  0  0  0  0  0
  -27.8178  -13.6569   18.6827 C   0  0  0  0  0  0  0  0  0  0  0  0
  -28.0317  -13.1619   21.0377 C   0  0  0  0  0  0  0  0  0  0  0  0
  -27.3467  -22.6804   18.5980 C   0  0  0  0  0  0  0  0  0  0  0  0
  -25.2342  -23.7891   20.0313 C   0  0  0  0  0  0  0  0  0  0  0  0
  -22.1155  -27.7736   19.8253 C   0  0  0  0  0  0  0  0  0  0  0  0
  -29.1032  -13.1622   18.4620 C   0  0  0  0  0  0  0  0  0  0  0  0
  -29.3170  -12.6671   20.8170 C   0  0  0  0  0  0  0  0  0  0  0  0
  -20.8251  -27.5985   20.3233 C   0  0  0  0  0  0  0  0  0  0  0  0
  -32.4208  -13.9199   20.3398 C   0  0  0  0  0  0  0  0  0  0  0  0
  -33.4260  -14.3092   21.2251 C   0  0  0  0  0  0  0  0  0  0  0  0
  -20.6379  -22.0505   26.5944 C   0  0  0  0  0  0  0  0  0  0  0  0
  -20.0802  -22.3987   24.2696 C   0  0  0  0  0  0  0  0  0  0  0  0
  -21.4770  -28.6833   22.3770 C   0  0  0  0  0  0  0  0  0  0  0  0
  -20.0041  -24.2497   25.8205 C   0  0  0  0  0  0  0  0  0  0  0  0
  -33.7987  -11.9970   21.8186 C   0  0  0  0  0  0  0  0  0  0  0  0
  -27.2821  -13.6568   19.9706 C   0  0  0  0  0  0  0  0  0  0  0  0
  -20.4774  -21.5496   25.3025 C   0  0  0  0  0  0  0  0  0  0  0  0
  -24.7466  -13.4465   20.1575 C   0  0  0  0  0  0  0  0  0  0  0  0
  -27.6166  -23.6237   19.6019 C   0  0  0  0  0  0  0  0  0  0  0  0
  -23.1009  -28.3961   20.6049 C   0  0  0  0  0  0  0  0  0  0  0  0
  -26.5500  -24.1780   20.3351 C   0  0  0  0  0  0  0  0  0  0  0  0
  -22.7784  -28.8673   21.8856 C   0  0  0  0  0  0  0  0  0  0  0  0
  -20.4013  -23.4005   26.8534 C   0  0  0  0  0  0  0  0  0  0  0  0
  -19.8435  -23.7488   24.5286 C   0  0  0  0  0  0  0  0  0  0  0  0
  -29.8528  -12.6673   19.5291 C   0  0  0  0  0  0  0  0  0  0  0  0
  -20.5064  -28.0508   21.6004 C   0  0  0  0  0  0  0  0  0  0  0  0
  -32.1046  -12.5692   20.1939 C   0  0  0  0  0  0  0  0  0  0  0  0
  -34.1149  -13.3478   21.9644 C   0  0  0  0  0  0  0  0  0  0  0  0
  -32.7935  -11.6078   20.9333 C   0  0  0  0  0  0  0  0  0  0  0  0
  -25.9546  -14.1682   20.1993 C   0  0  0  0  0  0  0  0  0  0  0  0
  -23.7794  -14.3792   20.4423 C   0  0  0  0  0  0  0  0  0  0  0  0
  -20.7287  -20.1192   25.0285 C   0  0  0  0  0  0  0  0  0  0  0  0
  -24.5192  -12.0572   19.8857 C   0  0  0  0  0  0  0  0  0  0  0  0
  -25.9026  -27.5027   21.8115 C   0  0  0  0  0  0  0  0  0  0  0  0
  -26.0820  -30.6224   22.6820 C   0  0  0  0  0  0  0  0  0  0  0  0
  -21.8096  -26.0982   28.1914 C   0  0  0  0  0  0  0  0  0  0  0  0
  -24.4433  -33.5266   23.4079 C   0  0  0  0  0  0  0  0  0  0  0  0
  -19.1742  -25.9732   23.5575 C   0  0  0  0  0  0  0  0  0  0  0  0
  -22.0694  -18.4703   23.7400 C   0  0  0  0  0  0  0  0  0  0  0  0
  -29.0530  -23.9645   19.9106 C   0  0  0  0  0  0  0  0  0  0  0  0
  -24.4810  -28.6012   20.0429 C   0  0  0  0  0  0  0  0  0  0  0  0
  -23.7947  -29.5602   22.7548 C   0  0  0  0  0  0  0  0  0  0  0  0
  -29.2128  -25.2371   20.7384 C   0  0  0  0  0  0  0  0  0  0  0  0
  -23.9991  -19.4012   20.7123 C   0  0  0  0  0  0  0  0  0  0  0  0
  -28.2358  -25.2380   21.9099 C   0  0  0  0  0  0  0  0  0  0  0  0
  -24.6402  -18.0634   20.3602 C   0  0  0  0  0  0  0  0  0  0  0  0
  -23.7999  -19.5678   22.2182 C   0  0  0  0  0  0  0  0  0  0  0  0
  -23.6820  -17.0998   22.4847 C   0  0  0  0  0  0  0  0  0  0  0  0
  -26.7839  -25.2095   21.4174 C   0  0  1  0  0  0  0  0  0  0  0  0
  -25.5436  -28.7882   21.1214 C   0  0  1  0  0  0  0  0  0  0  0  0
  -23.8351  -16.9066   20.9691 C   0  0  2  0  0  0  0  0  0  0  0  0
  -23.1498  -26.7656   28.3737 C   0  0  0  0  0  0  0  0  0  0  0  0
  -24.8570  -35.8962   24.1229 C   0  0  0  0  0  0  0  0  0  0  0  0
  -17.2595  -26.5286   22.0131 C   0  0  0  0  0  0  0  0  0  0  0  0
  -26.6151  -29.6673   25.5305 C   0  0  0  0  0  0  0  0  0  0  0  0
  -26.0761  -31.9773   26.3315 C   0  0  0  0  0  0  0  0  0  0  0  0
  -28.0126  -31.6094   24.8026 C   0  0  0  0  0  0  0  0  0  0  0  0
  -22.9899  -23.9457   28.7265 C   0  0  0  0  0  0  0  0  0  0  0  0
  -23.2219  -34.6074   20.9383 C   0  0  0  0  0  0  0  0  0  0  0  0
  -20.5739  -23.9363   28.2347 C   0  0  0  0  0  0  0  0  0  0  0  0
  -25.6614  -31.4204   23.8925 C   0  0  1  0  0  0  0  0  0  0  0  0
  -24.6698  -34.9541   22.9439 C   0  0  2  0  0  0  0  0  0  0  0  0
  -18.7696  -26.5407   22.1994 C   0  0  1  0  0  0  0  0  0  1  0  0
  -26.5725  -31.1539   25.1239 C   0  0  0  0  0  0  0  0  0  0  0  0
  -25.7739  -15.4598   20.4878 N   0  0  0  0  0  0  0  0  0  0  0  0
  -24.4410  -15.5570   20.6297 N   0  0  0  0  0  0  0  0  0  0  0  0
  -25.1319  -29.7315   22.1631 N   0  0  0  0  0  0  0  0  0  0  0  0
  -23.1172  -18.4123   22.8163 N   0  0  0  0  0  0  0  0  0  0  0  0
  -22.4360  -14.2985   20.5480 N   0  0  0  0  0  0  0  0  0  0  0  0
  -25.6247  -11.2401   19.6128 N   0  0  0  0  0  0  0  0  0  0  0  0
  -19.4426  -24.6105   23.4800 N   0  0  0  0  0  0  0  0  0  0  0  0
  -21.6821  -19.8068   24.1371 N   0  0  0  0  0  0  0  0  0  0  0  0
  -26.3787  -26.5221   20.9622 N   0  0  0  0  0  0  0  0  0  0  0  0
  -25.6233  -32.8158   23.4683 N   0  0  0  0  0  0  0  0  0  0  0  0
  -21.7849  -24.7039   28.3769 N   0  0  0  0  0  0  0  0  0  0  0  0
  -19.9859  -19.2263   25.6823 N   0  3  0  0  0  0  0  0  0  0  0  0
  -23.5063  -35.4291   22.1428 N   0  3  0  0  0  0  0  0  0  0  0  0
  -23.3682  -11.5587   19.8687 O   0  0  0  0  0  0  0  0  0  0  0  0
  -25.7598  -27.4080   23.0249 O   0  0  0  0  0  0  0  0  0  0  0  0
  -27.2095  -30.7887   22.2099 O   0  0  0  0  0  0  0  0  0  0  0  0
  -20.8292  -26.7872   27.8972 O   0  0  0  0  0  0  0  0  0  0  0  0
  -23.3313  -33.0871   23.6923 O   0  0  0  0  0  0  0  0  0  0  0  0
  -19.2492  -26.6912   24.5505 O   0  0  0  0  0  0  0  0  0  0  0  0
  -21.5021  -17.5032   24.2370 O   0  0  0  0  0  0  0  0  0  0  0  0
  -31.1069  -12.1842   19.3140 O   0  0  0  0  0  0  0  0  0  0  0  0
  -19.2479  -27.8806   22.0892 O   0  0  0  0  0  0  0  0  0  1  0  0
  -35.0812  -13.7216   22.8134 F   0  0  0  0  0  0  0  0  0  0  0  0
  -32.4950  -10.3085   20.7966 F   0  0  0  0  0  0  0  0  0  0  0  0
  1  2  1  0  0  0  0
  1  5  2  0  0  0  0
  2  6  2  0  0  0  0
  3  8  2  0  0  0  0
  3 18  1  0  0  0  0
  4  9  1  0  0  0  0
  4 18  2  0  0  0  0
  5 21  1  0  0  0  0
  6 23  1  0  0  0  0
  7 10  2  0  0  0  0
  7 22  1  0  0  0  0
  8 27  1  0  0  0  0
  9 27  2  0  0  0  0
 10 28  1  0  0  0  0
 11 12  2  0  0  0  0
 11 29  1  0  0  0  0
 12 30  1  0  0  0  0
 13 19  2  0  0  0  0
 13 25  1  0  0  0  0
 14 19  1  0  0  0  0
 14 26  2  0  0  0  0
 15 24  1  0  0  0  0
 15 28  2  0  0  0  0
 16 25  2  0  0  0  0
 16 26  1  0  0  0  0
 17 30  2  0  0  0  0
 17 31  1  0  0  0  0
 18 32  1  0  0  0  0
 19 34  1  0  0  0  0
 20 32  1  0  0  0  0
 20 33  2  0  0  0  0
 20 35  1  0  0  0  0
 21 23  2  0  0  0  0
 21 42  1  0  0  0  0
 22 24  2  0  0  0  0
 22 43  1  0  0  0  0
 23 51  1  0  0  0  0
 24 44  1  0  0  0  0
 25 62  1  0  0  0  0
 26 73  1  0  0  0  0
 27 87  1  0  0  0  0
 28 88  1  0  0  0  0
 29 31  2  0  0  0  0
 29 87  1  0  0  0  0
 30 89  1  0  0  0  0
 31 90  1  0  0  0  0
 32 67  2  0  0  0  0
 33 68  1  0  0  0  0
 33 71  1  0  0  0  0
 34 74  1  0  0  0  0
 34 78  2  0  0  0  0
 35 72  1  0  0  0  0
 35 80  2  0  0  0  0
 36 52  1  0  0  0  0
 36 75  1  0  0  0  0
 36 81  2  0  0  0  0
 37 63  1  0  0  0  0
 37 69  1  0  0  0  0
 37 82  2  0  0  0  0
 38 54  1  0  0  0  0
 38 77  1  0  0  0  0
 38 83  2  0  0  0  0
 39 64  1  0  0  0  0
 39 76  1  0  0  0  0
 39 84  2  0  0  0  0
 40 65  1  0  0  0  0
 40 73  1  0  0  0  0
 40 85  2  0  0  0  0
 41 70  1  0  0  0  0
 41 74  1  0  0  0  0
 41 86  2  0  0  0  0
 42 45  1  0  0  0  0
 43 52  1  0  0  0  0
 44 69  1  0  0  0  0
 45 47  1  0  0  0  0
 46 48  1  0  0  0  0
 46 49  1  0  0  0  0
 47 51  1  0  0  0  0
 48 53  1  0  0  0  0
 49 70  1  0  0  0  0
 50 53  1  0  0  0  0
 50 70  1  0  0  0  0
 51 75  1  0  0  0  0
 52 69  1  0  0  0  0
 53 68  1  0  0  0  0
 55 64  1  0  0  0  0
 56 65  1  0  0  0  0
 57 66  1  0  0  0  0
 58 66  1  0  0  0  0
 59 66  1  0  0  0  0
 60 77  1  0  0  0  0
 61 79  1  0  0  0  0
 62 77  1  0  0  0  0
 63 66  1  0  0  0  0
 63 76  1  0  0  0  0
 64 79  1  0  0  0  0
 65 88  1  0  0  0  0
 67 68  1  0  0  0  0
M  CHG  2  78   1  79   1
M  ISO  4  41 100  65 101  74 100  88 101
M  END
> <Batch ID>
0159

> <Smiles>
CNC(C)C(=O)NC(C(=O)N1Cc2cc([101O:1][101CH:1](C)C(=O)Nc3cc(CN(C)C(C)=O)cc(C(=N)[100NH:0][100C:0](=O)N4CCCC(n5nc(-c6ccc(Oc7ccc(F)cc7F)cc6)c(C(N)=O)c5N)C4)c3)ccc2CC1C(=O)NC1CCCc2ccccc21)C(C)(C)C

> <Shape>
0.243

> <Color>
0.074

> <Negative vol penalty>
0.000

$$$$

  -OEChem-04052303473D

 88 97  0     1  0  0  0  0  0999 V2000
  -19.4314  -23.9156   22.3082 C   0  0  0  0  0  0  0  0  0  0  0  0
  -20.6286  -24.2405   21.6785 C   0  0  0  0  0  0  0  0  0  0  0  0
  -26.7376  -13.3060   20.4033 C   0  0  0  0  0  0  0  0  0  0  0  0
  -24.9310  -13.9934   21.8528 C   0  0  0  0  0  0  0  0  0  0  0  0
  -18.5770  -24.9278   22.7435 C   0  0  0  0  0  0  0  0  0  0  0  0
  -20.9716  -25.5778   21.4827 C   0  0  0  0  0  0  0  0  0  0  0  0
  -25.8032  -26.5363   22.6584 C   0  0  0  0  0  0  0  0  0  0  0  0
  -25.8439  -12.5438   19.6510 C   0  0  0  0  0  0  0  0  0  0  0  0
  -24.0374  -13.2312   21.1004 C   0  0  0  0  0  0  0  0  0  0  0  0
  -26.7715  -26.1594   21.7289 C   0  0  0  0  0  0  0  0  0  0  0  0
  -23.1664   -9.9770   20.8129 C   0  0  0  0  0  0  0  0  0  0  0  0
  -22.2515   -9.1821   21.5033 C   0  0  0  0  0  0  0  0  0  0  0  0
  -26.8967  -28.4372   20.9446 C   0  0  0  0  0  0  0  0  0  0  0  0
  -20.4278  -10.3832   20.4697 C   0  0  0  0  0  0  0  0  0  0  0  0
  -26.2811  -14.0307   21.5043 C   0  0  0  0  0  0  0  0  0  0  0  0
  -28.3371  -14.3570   22.9788 C   0  0  0  0  0  0  0  0  0  0  0  0
  -18.9142  -26.2783   22.5616 C   0  0  0  0  0  0  0  0  0  0  0  0
  -25.3657  -27.8667   22.7307 C   0  0  0  0  0  0  0  0  0  0  0  0
  -20.1203  -26.6090   21.9148 C   0  0  0  0  0  0  0  0  0  0  0  0
  -25.9245  -28.8289   21.8776 C   0  0  0  0  0  0  0  0  0  0  0  0
  -24.4938  -12.5064   19.9995 C   0  0  0  0  0  0  0  0  0  0  0  0
  -27.3163  -27.1092   20.8698 C   0  0  0  0  0  0  0  0  0  0  0  0
  -22.7119  -10.9751   19.9508 C   0  0  0  0  0  0  0  0  0  0  0  0
  -20.8822   -9.3852   21.3317 C   0  0  0  0  0  0  0  0  0  0  0  0
  -21.3427  -11.1782   19.7792 C   0  0  0  0  0  0  0  0  0  0  0  0
  -27.2039  -14.8178   22.2822 C   0  0  0  0  0  0  0  0  0  0  0  0
  -31.6037  -22.0908   18.3161 C   0  0  0  0  0  0  0  0  0  0  0  0
  -31.3161  -23.1227   19.1847 C   0  0  0  0  0  0  0  0  0  0  0  0
  -28.8710  -15.4858   23.5508 C   0  0  0  0  0  0  0  0  0  0  0  0
  -30.1268  -21.5468   20.1396 C   0  0  0  0  0  0  0  0  0  0  0  0
  -28.8603  -13.0275   23.0982 C   0  0  0  0  0  0  0  0  0  0  0  0
  -22.5802  -29.3381   22.3069 C   0  0  0  0  0  0  0  0  0  0  0  0
  -24.2328  -31.9278   23.3485 C   0  0  0  0  0  0  0  0  0  0  0  0
  -27.2510  -33.4690   23.7507 C   0  0  0  0  0  0  0  0  0  0  0  0
  -28.6184  -21.2869   22.1405 C   0  0  0  0  0  0  0  0  0  0  0  0
  -17.9365  -27.3369   23.0066 C   0  0  0  0  0  0  0  0  0  0  0  0
  -24.3398  -28.2624   23.7570 C   0  0  0  0  0  0  0  0  0  0  0  0
  -25.5037  -30.2742   21.9287 C   0  0  0  0  0  0  0  0  0  0  0  0
  -18.5489  -28.7324   23.0965 C   0  0  0  0  0  0  0  0  0  0  0  0
  -27.6103  -19.7965   25.2129 C   0  0  0  0  0  0  0  0  0  0  0  0
  -19.3738  -29.0347   21.8496 C   0  0  0  0  0  0  0  0  0  0  0  0
  -27.5007  -18.3079   24.8750 C   0  0  0  0  0  0  0  0  0  0  0  0
  -30.3061  -26.0519   18.0637 C   0  0  0  0  0  0  0  0  0  0  0  0
  -31.0627  -26.2627   20.4872 C   0  0  0  0  0  0  0  0  0  0  0  0
  -27.1519  -20.6769   24.0516 C   0  0  0  0  0  0  0  0  0  0  0  0
  -31.4856  -25.1074   17.8036 C   0  0  0  0  0  0  0  0  0  0  0  0
  -27.6902  -18.9053   22.4266 C   0  0  0  0  0  0  0  0  0  0  0  0
  -20.5390  -28.0482   21.7064 C   0  0  1  0  0  0  0  0  0  0  0  0
  -23.5959  -29.5442   23.3949 C   0  0  1  0  0  0  0  0  0  0  0  0
  -28.2019  -17.9794   23.5423 C   0  0  2  0  0  0  0  0  0  0  0  0
  -32.2114  -25.2940   20.1624 C   0  0  1  0  0  0  0  0  0  0  0  0
  -30.5497  -27.0308   19.2399 C   0  0  1  0  0  0  0  0  0  0  0  0
  -32.7459  -24.5715   21.3965 C   0  0  0  0  0  0  0  0  0  0  0  0
  -31.5607  -28.1194   18.8264 C   0  0  0  0  0  0  0  0  0  0  0  0
  -33.6068  -21.0428   17.1839 C   0  0  0  0  0  0  0  0  0  0  0  0
  -28.2797  -35.5955   24.5975 C   0  0  0  0  0  0  0  0  0  0  0  0
  -23.3053  -33.3770   20.8286 C   0  0  0  0  0  0  0  0  0  0  0  0
  -25.0832  -35.0902   21.2436 C   0  0  0  0  0  0  0  0  0  0  0  0
  -23.2544  -34.7646   22.9086 C   0  0  0  0  0  0  0  0  0  0  0  0
  -28.8224  -32.0279   25.8032 C   0  0  0  0  0  0  0  0  0  0  0  0
  -29.2239  -27.7306   19.5928 C   0  0  0  0  0  0  0  0  0  1  0  0
  -32.4576  -22.0652   17.1106 C   0  0  1  0  0  0  0  0  0  0  0  0
  -25.0575  -33.0061   22.6882 C   0  0  1  0  0  0  0  0  0  0  0  0
  -27.8719  -34.1721   24.9443 C   0  0  2  0  0  0  0  0  0  0  0  0
  -24.1818  -34.0319   21.9147 C   0  0  0  0  0  0  0  0  0  0  0  0
  -27.0274  -16.1365   22.3997 N   0  0  0  0  0  0  0  0  0  0  0  0
  -30.4690  -22.8127   20.2308 N   0  0  0  0  0  0  0  0  0  0  0  0
  -28.0567  -16.5140   23.1768 N   0  0  0  0  0  0  0  0  0  0  0  0
  -31.8249  -24.4099   19.0497 N   0  0  1  0  0  0  0  0  0  0  0  0
  -24.4930  -30.6105   22.9450 N   0  0  0  0  0  0  0  0  0  0  0  0
  -27.8618  -20.3115   22.8239 N   0  0  0  0  0  0  0  0  0  0  0  0
  -29.9529  -15.6892   24.3322 N   0  0  0  0  0  0  0  0  0  0  0  0
  -28.4132  -12.2260   24.1575 N   0  0  0  0  0  0  0  0  0  0  0  0
  -29.2756  -20.8153   21.0046 N   0  0  0  0  0  0  0  0  0  0  0  0
  -21.6127  -28.3994   22.6109 N   0  0  0  0  0  0  0  0  0  0  0  0
  -25.8779  -33.5948   23.7412 N   0  0  0  0  0  0  0  0  0  0  0  0
  -31.7045  -21.7813   15.8344 N   0  3  0  0  0  0  0  0  0  0  0  0
  -29.0822  -33.4360   25.4071 N   0  3  0  0  0  0  0  0  0  0  0  0
  -29.7118  -12.5696   22.2989 O   0  0  0  0  0  0  0  0  0  0  0  0
  -22.6669  -29.9840   21.2692 O   0  0  0  0  0  0  0  0  0  0  0  0
  -23.3937  -32.2420   24.1963 O   0  0  0  0  0  0  0  0  0  0  0  0
  -27.9177  -32.8713   22.9088 O   0  0  0  0  0  0  0  0  0  0  0  0
  -28.7009  -22.4480   22.5491 O   0  0  0  0  0  0  0  0  0  0  0  0
  -23.6215  -11.7629   19.2654 O   0  0  0  0  0  0  0  0  0  0  0  0
  -28.2612  -26.7439   19.9612 O   0  0  0  0  0  0  0  0  0  1  0  0
  -20.0038   -8.6207   21.9937 F   0  0  0  0  0  0  0  0  0  0  0  0
  -20.9001  -12.1347   18.9515 F   0  0  0  0  0  0  0  0  0  0  0  0
  -30.7874  -20.6695   18.8208 S   0  0  0  0  0  0  0  0  0  0  0  0
  1  2  1  0  0  0  0
  1  5  2  0  0  0  0
  2  6  2  0  0  0  0
  3  8  2  0  0  0  0
  3 15  1  0  0  0  0
  4  9  1  0  0  0  0
  4 15  2  0  0  0  0
  5 17  1  0  0  0  0
  6 19  1  0  0  0  0
  7 10  2  0  0  0  0
  7 18  1  0  0  0  0
  8 21  1  0  0  0  0
  9 21  2  0  0  0  0
 10 22  1  0  0  0  0
 11 12  2  0  0  0  0
 11 23  1  0  0  0  0
 12 24  1  0  0  0  0
 13 20  1  0  0  0  0
 13 22  2  0  0  0  0
 14 24  2  0  0  0  0
 14 25  1  0  0  0  0
 15 26  1  0  0  0  0
 16 26  1  0  0  0  0
 16 29  2  0  0  0  0
 16 31  1  0  0  0  0
 17 19  2  0  0  0  0
 17 36  1  0  0  0  0
 18 20  2  0  0  0  0
 18 37  1  0  0  0  0
 19 48  1  0  0  0  0
 20 38  1  0  0  0  0
 21 84  1  0  0  0  0
 22 85  1  0  0  0  0
 23 25  2  0  0  0  0
 23 84  1  0  0  0  0
 24 86  1  0  0  0  0
 25 87  1  0  0  0  0
 26 66  2  0  0  0  0
 27 28  2  0  0  0  0
 27 62  1  0  0  0  0
 27 88  1  0  0  0  0
 28 67  1  0  0  0  0
 28 69  1  0  0  0  0
 29 68  1  0  0  0  0
 29 72  1  0  0  0  0
 30 67  2  0  0  0  0
 30 74  1  0  0  0  0
 30 88  1  0  0  0  0
 31 73  1  0  0  0  0
 31 79  2  0  0  0  0
 32 49  1  0  0  0  0
 32 75  1  0  0  0  0
 32 80  2  0  0  0  0
 33 63  1  0  0  0  0
 33 70  1  0  0  0  0
 33 81  2  0  0  0  0
 34 64  1  0  0  0  0
 34 76  1  0  0  0  0
 34 82  2  0  0  0  0
 35 71  1  0  0  0  0
 35 74  1  0  0  0  0
 35 83  2  0  0  0  0
 36 39  1  0  0  0  0
 37 49  1  0  0  0  0
 38 70  1  0  0  0  0
 39 41  1  0  0  0  0
 40 42  1  0  0  0  0
 40 45  1  0  0  0  0
 41 48  1  0  0  0  0
 42 50  1  0  0  0  0
 43 46  1  0  0  0  0
 43 52  1  0  0  0  0
 44 51  1  0  0  0  0
 44 52  1  0  0  0  0
 45 71  1  0  0  0  0
 46 69  1  0  0  0  0
 47 50  1  0  0  0  0
 47 71  1  0  0  0  0
 48 75  1  0  0  0  0
 49 70  1  0  0  0  0
 50 68  1  0  0  0  0
 51 53  1  0  0  0  0
 51 69  1  0  0  0  0
 52 54  1  0  0  0  0
 52 61  1  0  0  0  0
 55 62  1  0  0  0  0
 56 64  1  0  0  0  0
 57 65  1  0  0  0  0
 58 65  1  0  0  0  0
 59 65  1  0  0  0  0
 60 78  1  0  0  0  0
 61 85  1  0  0  0  0
 62 77  1  0  0  0  0
 63 65  1  0  0  0  0
 63 76  1  0  0  0  0
 64 78  1  0  0  0  0
 66 68  1  0  0  0  0
M  CHG  2  77   1  78   1
M  ISO  4  35 100  61 101  74 100  85 101
M  END
> <Batch ID>
0159

> <Smiles>
CNC(C)C(=O)NC(C(=O)N1Cc2cc([101O:1][101CH2:1]C3(C)CCN(c4nc([100NH:0][100C:0](=O)N5CCCC(n6nc(-c7ccc(Oc8ccc(F)cc8F)cc7)c(C(N)=O)c6N)C5)sc4C(C)N)C(C)C3)ccc2CC1C(=O)NC1CCCc2ccccc21)C(C)(C)C

> <Shape>
0.271

> <Color>
0.085

> <Negative vol penalty>
0.000

$$$$

  -OEChem-04052303473D

 77 85  0     1  0  0  0  0  0999 V2000
  -25.2083  -20.1917   31.7237 C   0  0  0  0  0  0  0  0  0  0  0  0
  -25.7542  -19.8145   30.5010 C   0  0  0  0  0  0  0  0  0  0  0  0
  -23.1378   -9.8649   21.3923 C   0  0  0  0  0  0  0  0  0  0  0  0
  -23.9047  -10.7011   23.5253 C   0  0  0  0  0  0  0  0  0  0  0  0
  -23.8480  -20.0053   31.9657 C   0  0  0  0  0  0  0  0  0  0  0  0
  -24.9402  -19.2495   29.5199 C   0  0  0  0  0  0  0  0  0  0  0  0
  -25.8012  -21.1946   24.9242 C   0  0  0  0  0  0  0  0  0  0  0  0
  -22.4243   -8.8586   22.0433 C   0  0  0  0  0  0  0  0  0  0  0  0
  -23.1911   -9.6949   24.1763 C   0  0  0  0  0  0  0  0  0  0  0  0
  -26.9281  -20.7394   24.2411 C   0  0  0  0  0  0  0  0  0  0  0  0
  -20.6905   -5.8511   23.1263 C   0  0  0  0  0  0  0  0  0  0  0  0
  -20.7769   -4.5569   22.6134 C   0  0  0  0  0  0  0  0  0  0  0  0
  -25.5359  -19.2549   22.9460 C   0  0  0  0  0  0  0  0  0  0  0  0
  -23.1664   -4.5750   22.9702 C   0  0  0  0  0  0  0  0  0  0  0  0
  -23.8781  -10.7861   22.1332 C   0  0  0  0  0  0  0  0  0  0  0  0
  -24.1553  -13.1120   21.1227 C   0  0  0  0  0  0  0  0  0  0  0  0
  -23.0150  -19.4467   30.9836 C   0  0  0  0  0  0  0  0  0  0  0  0
  -24.5325  -20.6746   24.6304 C   0  0  0  0  0  0  0  0  0  0  0  0
  -23.5676  -19.0542   29.7495 C   0  0  0  0  0  0  0  0  0  0  0  0
  -24.3942  -19.7070   23.6250 C   0  0  0  0  0  0  0  0  0  0  0  0
  -22.4509   -8.7736   23.4353 C   0  0  0  0  0  0  0  0  0  0  0  0
  -26.7960  -19.7673   23.2538 C   0  0  0  0  0  0  0  0  0  0  0  0
  -21.8421   -6.5074   23.5612 C   0  0  0  0  0  0  0  0  0  0  0  0
  -22.0149   -3.9189   22.5353 C   0  0  0  0  0  0  0  0  0  0  0  0
  -23.0800   -5.8693   23.4831 C   0  0  0  0  0  0  0  0  0  0  0  0
  -24.6158  -11.8255   21.4613 C   0  0  0  0  0  0  0  0  0  0  0  0
  -25.2269  -13.7086   20.5045 C   0  0  0  0  0  0  0  0  0  0  0  0
  -22.8735  -13.7139   21.3470 C   0  0  0  0  0  0  0  0  0  0  0  0
  -22.3359  -19.0609   26.2659 C   0  0  0  0  0  0  0  0  0  0  0  0
  -20.5756  -19.4958   23.5761 C   0  0  0  0  0  0  0  0  0  0  0  0
  -20.5181  -20.0765   20.2136 C   0  0  0  0  0  0  0  0  0  0  0  0
  -30.5603  -14.8660   20.0735 C   0  0  0  0  0  0  0  0  0  0  0  0
  -21.5596  -19.2212   31.3086 C   0  0  0  0  0  0  0  0  0  0  0  0
  -23.3234  -21.1955   25.3578 C   0  0  0  0  0  0  0  0  0  0  0  0
  -23.0518  -19.1313   23.2577 C   0  0  0  0  0  0  0  0  0  0  0  0
  -20.6940  -18.9609   30.0785 C   0  0  0  0  0  0  0  0  0  0  0  0
  -29.5960  -11.7729   18.8665 C   0  0  0  0  0  0  0  0  0  0  0  0
  -21.3625  -17.9419   29.1611 C   0  0  0  0  0  0  0  0  0  0  0  0
  -28.1731  -11.6033   19.3988 C   0  0  0  0  0  0  0  0  0  0  0  0
  -30.2702  -18.3678   21.2480 C   0  0  0  0  0  0  0  0  0  0  0  0
  -29.3605  -16.8313   23.0257 C   0  0  0  0  0  0  0  0  0  0  0  0
  -30.5032  -12.3947   19.9221 C   0  0  0  0  0  0  0  0  0  0  0  0
  -31.0741  -17.2024   20.6783 C   0  0  0  0  0  0  0  0  0  0  0  0
  -30.1853  -15.6970   22.4264 C   0  0  0  0  0  0  0  0  0  0  0  0
  -28.5902  -13.5525   20.9784 C   0  0  0  0  0  0  0  0  0  0  0  0
  -22.7123  -18.4609   28.6510 C   0  0  1  0  0  0  0  0  0  0  0  0
  -22.1472  -20.2242   25.3337 C   0  0  1  0  0  0  0  0  0  0  0  0
  -30.0070  -18.1955   22.7495 C   0  0  0  0  0  0  0  0  0  0  0  0
  -27.6259  -12.9333   19.9467 C   0  0  2  0  0  0  0  0  0  0  0  0
  -18.9319  -20.3424   18.2873 C   0  0  0  0  0  0  0  0  0  0  0  0
  -20.1268  -16.4781   23.5323 C   0  0  0  0  0  0  0  0  0  0  0  0
  -19.3829  -16.6934   21.1514 C   0  0  0  0  0  0  0  0  0  0  0  0
  -18.1089  -17.8412   22.9631 C   0  0  0  0  0  0  0  0  0  0  0  0
  -21.4474  -22.8350   19.6786 C   0  0  0  0  0  0  0  0  0  0  0  0
  -29.1332  -19.3285   23.2823 C   0  0  0  0  0  0  0  0  0  1  0  0
  -20.3792  -18.7280   22.2912 C   0  0  1  0  0  0  0  0  0  0  0  0
  -19.7194  -21.0574   19.3743 C   0  0  2  0  0  0  0  0  0  0  0  0
  -19.5251  -17.4444   22.4925 C   0  0  0  0  0  0  0  0  0  0  0  0
  -25.8814  -11.6163   21.0889 N   0  0  0  0  0  0  0  0  0  0  0  0
  -26.2252  -12.7793   20.5098 N   0  0  0  0  0  0  0  0  0  0  0  0
  -21.9004  -19.6683   24.0017 N   0  0  0  0  0  0  0  0  0  0  0  0
  -29.9469  -13.6527   20.4201 N   0  0  0  0  0  0  0  0  0  0  0  0
  -30.4547  -15.9173   20.9992 N   0  0  0  0  0  0  0  0  0  0  0  0
  -25.4032  -14.9322   19.9622 N   0  0  0  0  0  0  0  0  0  0  0  0
  -21.8861  -12.9606   21.9965 N   0  0  0  0  0  0  0  0  0  0  0  0
  -22.5150  -19.4224   27.5875 N   0  0  0  0  0  0  0  0  0  0  0  0
  -19.8193  -19.6739   21.3320 N   0  0  0  0  0  0  0  0  0  0  0  0
  -20.6284  -22.0435   18.7247 N   0  3  0  0  0  0  0  0  0  0  0  0
  -22.6062  -14.8793   20.9677 O   0  0  0  0  0  0  0  0  0  0  0  0
  -22.3187  -17.9199   25.8193 O   0  0  0  0  0  0  0  0  0  0  0  0
  -19.5904  -19.9327   24.1762 O   0  0  0  0  0  0  0  0  0  0  0  0
  -21.6475  -19.7020   19.9058 O   0  0  0  0  0  0  0  0  0  0  0  0
  -31.1622  -15.0058   19.0015 O   0  0  0  0  0  0  0  0  0  0  0  0
  -21.7545   -7.7919   24.0709 O   0  0  0  0  0  0  0  0  0  0  0  0
  -27.9044  -19.3167   22.5798 O   0  0  0  0  0  0  0  0  0  1  0  0
  -22.0975   -2.6755   22.0441 F   0  0  0  0  0  0  0  0  0  0  0  0
  -24.1896   -6.4942   23.9004 F   0  0  0  0  0  0  0  0  0  0  0  0
  1  2  1  0  0  0  0
  1  5  2  0  0  0  0
  2  6  2  0  0  0  0
  3  8  2  0  0  0  0
  3 15  1  0  0  0  0
  4  9  1  0  0  0  0
  4 15  2  0  0  0  0
  5 17  1  0  0  0  0
  6 19  1  0  0  0  0
  7 10  2  0  0  0  0
  7 18  1  0  0  0  0
  8 21  1  0  0  0  0
  9 21  2  0  0  0  0
 10 22  1  0  0  0  0
 11 12  2  0  0  0  0
 11 23  1  0  0  0  0
 12 24  1  0  0  0  0
 13 20  1  0  0  0  0
 13 22  2  0  0  0  0
 14 24  2  0  0  0  0
 14 25  1  0  0  0  0
 15 26  1  0  0  0  0
 16 26  1  0  0  0  0
 16 27  2  0  0  0  0
 16 28  1  0  0  0  0
 17 19  2  0  0  0  0
 17 33  1  0  0  0  0
 18 20  2  0  0  0  0
 18 34  1  0  0  0  0
 19 46  1  0  0  0  0
 20 35  1  0  0  0  0
 21 74  1  0  0  0  0
 22 75  1  0  0  0  0
 23 25  2  0  0  0  0
 23 74  1  0  0  0  0
 24 76  1  0  0  0  0
 25 77  1  0  0  0  0
 26 59  2  0  0  0  0
 27 60  1  0  0  0  0
 27 64  1  0  0  0  0
 28 65  1  0  0  0  0
 28 69  2  0  0  0  0
 29 47  1  0  0  0  0
 29 66  1  0  0  0  0
 29 70  2  0  0  0  0
 30 56  1  0  0  0  0
 30 61  1  0  0  0  0
 30 71  2  0  0  0  0
 31 57  1  0  0  0  0
 31 67  1  0  0  0  0
 31 72  2  0  0  0  0
 32 62  1  0  0  0  0
 32 63  1  0  0  0  0
 32 73  2  0  0  0  0
 33 36  1  0  0  0  0
 34 47  1  0  0  0  0
 35 61  1  0  0  0  0
 36 38  1  0  0  0  0
 37 39  1  0  0  0  0
 37 42  1  0  0  0  0
 38 46  1  0  0  0  0
 39 49  1  0  0  0  0
 40 43  1  0  0  0  0
 40 48  1  0  0  0  0
 41 44  1  0  0  0  0
 41 48  1  0  0  0  0
 42 62  1  0  0  0  0
 43 63  1  0  0  0  0
 44 63  1  0  0  0  0
 45 49  1  0  0  0  0
 45 62  1  0  0  0  0
 46 66  1  0  0  0  0
 47 61  1  0  0  0  0
 48 55  1  0  0  0  0
 49 60  1  0  0  0  0
 50 57  1  0  0  0  0
 51 58  1  0  0  0  0
 52 58  1  0  0  0  0
 53 58  1  0  0  0  0
 54 68  1  0  0  0  0
 55 75  1  0  0  0  0
 56 58  1  0  0  0  0
 56 67  1  0  0  0  0
 57 68  1  0  0  0  0
 59 60  1  0  0  0  0
M  CHG  1  68   1
M  ISO  4  32 100  55 101  63 100  75 101
M  END
> <Batch ID>
0159

> <Smiles>
CNC(C)C(=O)NC(C(=O)N1Cc2cc([101O:1][101CH2:1]C3CC[100N:0]([100C:0](=O)N4CCCC(n5nc(-c6ccc(Oc7ccc(F)cc7F)cc6)c(C(N)=O)c5N)C4)CC3)ccc2CC1C(=O)NC1CCCc2ccccc21)C(C)(C)C

> <Shape>
0.164

> <Color>
0.146

> <Negative vol penalty>
0.000

$$$$

  -OEChem-04052303473D

 84 92  0     1  0  0  0  0  0999 V2000
  -29.6745  -34.6688   15.3379 C   0  0  0  0  0  0  0  0  0  0  0  0
  -30.1893  -33.4151   15.6522 C   0  0  0  0  0  0  0  0  0  0  0  0
  -24.4039   -9.6313   20.9190 C   0  0  0  0  0  0  0  0  0  0  0  0
  -24.9045  -10.4248   23.1454 C   0  0  0  0  0  0  0  0  0  0  0  0
  -29.1236  -35.4662   16.3401 C   0  0  0  0  0  0  0  0  0  0  0  0
  -30.1543  -32.9586   16.9693 C   0  0  0  0  0  0  0  0  0  0  0  0
  -29.3560  -27.1832   18.8438 C   0  0  0  0  0  0  0  0  0  0  0  0
  -24.1043   -8.3708   21.4357 C   0  0  0  0  0  0  0  0  0  0  0  0
  -24.6049   -9.1643   23.6621 C   0  0  0  0  0  0  0  0  0  0  0  0
  -30.2529  -26.1975   19.2532 C   0  0  0  0  0  0  0  0  0  0  0  0
  -22.8599   -5.0442   22.2107 C   0  0  0  0  0  0  0  0  0  0  0  0
  -21.7071   -4.4106   21.7470 C   0  0  0  0  0  0  0  0  0  0  0  0
  -29.8622  -26.8063   21.5545 C   0  0  0  0  0  0  0  0  0  0  0  0
  -20.3680   -6.2469   22.5667 C   0  0  0  0  0  0  0  0  0  0  0  0
  -29.5696  -20.1971   20.8263 C   0  0  0  0  0  0  0  0  0  0  0  0
  -24.8041  -10.6583   21.7739 C   0  0  0  0  0  0  0  0  0  0  0  0
  -24.2263  -13.0373   21.0568 C   0  0  0  0  0  0  0  0  0  0  0  0
  -29.0731  -35.0152   17.6686 C   0  0  0  0  0  0  0  0  0  0  0  0
  -28.7126  -27.9966   19.7877 C   0  0  0  0  0  0  0  0  0  0  0  0
  -29.6034  -33.7512   17.9905 C   0  0  0  0  0  0  0  0  0  0  0  0
  -28.9556  -27.8000   21.1546 C   0  0  0  0  0  0  0  0  0  0  0  0
  -24.2048   -8.1372   22.8072 C   0  0  0  0  0  0  0  0  0  0  0  0
  -30.5083  -26.0108   20.6086 C   0  0  0  0  0  0  0  0  0  0  0  0
  -22.7668   -6.2792   22.8525 C   0  0  0  0  0  0  0  0  0  0  0  0
  -20.4611   -5.0119   21.9249 C   0  0  0  0  0  0  0  0  0  0  0  0
  -21.5208   -6.8805   23.0305 C   0  0  0  0  0  0  0  0  0  0  0  0
  -25.1143  -11.9605   21.2408 C   0  0  0  0  0  0  0  0  0  0  0  0
  -28.9547  -21.3884   21.2488 C   0  0  0  0  0  0  0  0  0  0  0  0
  -25.0044  -14.0372   20.5264 C   0  0  0  0  0  0  0  0  0  0  0  0
  -28.6698  -19.2249   21.1743 C   0  0  0  0  0  0  0  0  0  0  0  0
  -22.8236  -13.1259   21.3402 C   0  0  0  0  0  0  0  0  0  0  0  0
  -28.6708  -31.1144   20.4051 C   0  0  0  0  0  0  0  0  0  0  0  0
  -26.3800  -30.2653   22.5389 C   0  0  0  0  0  0  0  0  0  0  0  0
  -25.0065  -27.8344   24.5014 C   0  0  0  0  0  0  0  0  0  0  0  0
  -30.9493  -23.5109   19.1550 C   0  0  0  0  0  0  0  0  0  0  0  0
  -29.6931  -17.0395   20.4510 C   0  0  0  0  0  0  0  0  0  0  0  0
  -28.5107  -35.9322   18.7257 C   0  0  0  0  0  0  0  0  0  0  0  0
  -27.7276  -29.0376   19.3312 C   0  0  0  0  0  0  0  0  0  0  0  0
  -28.2754  -28.6332   22.2089 C   0  0  0  0  0  0  0  0  0  0  0  0
  -28.1725  -35.2198   20.0327 C   0  0  0  0  0  0  0  0  0  0  0  0
  -29.7332  -13.9261   18.7241 C   0  0  0  0  0  0  0  0  0  0  0  0
  -29.3166  -34.3023   20.4522 C   0  0  0  0  0  0  0  0  0  0  0  0
  -28.4620  -13.2257   19.2098 C   0  0  0  0  0  0  0  0  0  0  0  0
  -30.3951  -14.7360   19.8375 C   0  0  0  0  0  0  0  0  0  0  0  0
  -28.2410  -14.9902   21.0055 C   0  0  0  0  0  0  0  0  0  0  0  0
  -29.5612  -33.2107   19.4034 C   0  0  1  0  0  0  0  0  0  0  0  0
  -27.5187  -30.1512   20.3527 C   0  0  1  0  0  0  0  0  0  0  0  0
  -27.5034  -14.2143   19.9021 C   0  0  2  0  0  0  0  0  0  0  0  0
  -23.1653  -27.4502   26.1626 C   0  0  0  0  0  0  0  0  0  0  0  0
  -32.8654  -25.1686   19.0997 C   0  0  0  0  0  0  0  0  0  0  0  0
  -32.9333  -23.2742   20.7077 C   0  0  0  0  0  0  0  0  0  0  0  0
  -28.0051  -31.7196   24.6729 C   0  0  0  0  0  0  0  0  0  0  0  0
  -26.6625  -30.5207   26.4131 C   0  0  0  0  0  0  0  0  0  0  0  0
  -25.5340  -32.0747   24.8212 C   0  0  0  0  0  0  0  0  0  0  0  0
  -28.5349  -23.1147   18.8912 C   0  0  0  0  0  0  0  0  0  0  0  0
  -23.7241  -25.7945   22.7829 C   0  0  0  0  0  0  0  0  0  0  0  0
  -29.4821  -22.7889   21.1275 C   0  0  0  0  0  0  0  0  0  0  0  0
  -26.3729  -29.8401   23.9875 C   0  0  1  0  0  0  0  0  0  0  0  0
  -23.5679  -27.3912   24.6973 C   0  0  2  0  0  0  0  0  0  0  0  0
  -32.0051  -24.2690   19.9907 C   0  0  0  0  0  0  0  0  0  1  0  0
  -26.6581  -31.0242   24.9540 C   0  0  0  0  0  0  0  0  0  0  0  0
  -26.3610  -12.2491   20.8581 N   0  0  0  0  0  0  0  0  0  0  0  0
  -27.7646  -21.1715   21.8156 N   0  0  0  0  0  0  0  0  0  0  0  0
  -26.2620  -13.5185   20.4284 N   0  0  0  0  0  0  0  0  0  0  0  0
  -27.3255  -29.6423   21.7121 N   0  0  0  0  0  0  0  0  0  0  0  0
  -29.4282  -15.6536   20.4441 N   0  0  0  0  0  0  0  0  0  0  0  0
  -24.7287  -15.3006   20.1389 N   0  0  0  0  0  0  0  0  0  0  0  0
  -22.1797  -12.0058   21.8834 N   0  0  0  0  0  0  0  0  0  0  0  0
  -28.6872  -17.8159   21.0255 N   0  0  0  0  0  0  0  0  0  0  0  0
  -28.5643  -32.1679   19.5172 N   0  0  0  0  0  0  0  0  0  0  0  0
  -25.0916  -29.1800   24.2129 N   0  0  0  0  0  0  0  0  0  0  0  0
  -29.7255  -23.1630   19.7357 N   0  0  0  0  0  0  0  0  0  0  0  0
  -23.3867  -25.9924   24.2160 N   0  3  0  0  0  0  0  0  0  0  0  0
  -22.1575  -14.1620   21.1029 O   0  0  0  0  0  0  0  0  0  0  0  0
  -29.5878  -30.9172   21.1938 O   0  0  0  0  0  0  0  0  0  0  0  0
  -25.5714  -31.1135   22.1537 O   0  0  0  0  0  0  0  0  0  0  0  0
  -25.9597  -27.0646   24.5985 O   0  0  0  0  0  0  0  0  0  0  0  0
  -31.2037  -23.2557   17.9701 O   0  0  0  0  0  0  0  0  0  0  0  0
  -30.7231  -17.5058   19.9575 O   0  0  0  0  0  0  0  0  0  0  0  0
  -27.5883  -19.7939   21.7656 O   0  0  0  0  0  0  0  0  0  0  0  0
  -23.9123   -6.9074   23.3117 O   0  0  0  0  0  0  0  0  0  0  0  0
  -31.3838  -25.0498   21.0109 O   0  0  0  0  0  0  0  0  0  1  0  0
  -19.3543   -4.4040   21.4782 F   0  0  0  0  0  0  0  0  0  0  0  0
  -21.4252   -8.0674   23.6453 F   0  0  0  0  0  0  0  0  0  0  0  0
  1  2  1  0  0  0  0
  1  5  2  0  0  0  0
  2  6  2  0  0  0  0
  3  8  2  0  0  0  0
  3 16  1  0  0  0  0
  4  9  1  0  0  0  0
  4 16  2  0  0  0  0
  5 18  1  0  0  0  0
  6 20  1  0  0  0  0
  7 10  2  0  0  0  0
  7 19  1  0  0  0  0
  8 22  1  0  0  0  0
  9 22  2  0  0  0  0
 10 23  1  0  0  0  0
 11 12  2  0  0  0  0
 11 24  1  0  0  0  0
 12 25  1  0  0  0  0
 13 21  1  0  0  0  0
 13 23  2  0  0  0  0
 14 25  2  0  0  0  0
 14 26  1  0  0  0  0
 15 28  1  0  0  0  0
 15 30  2  0  0  0  0
 16 27  1  0  0  0  0
 17 27  1  0  0  0  0
 17 29  2  0  0  0  0
 17 31  1  0  0  0  0
 18 20  2  0  0  0  0
 18 37  1  0  0  0  0
 19 21  2  0  0  0  0
 19 38  1  0  0  0  0
 20 46  1  0  0  0  0
 21 39  1  0  0  0  0
 22 81  1  0  0  0  0
 23 82  1  0  0  0  0
 24 26  2  0  0  0  0
 24 81  1  0  0  0  0
 25 83  1  0  0  0  0
 26 84  1  0  0  0  0
 27 62  2  0  0  0  0
 28 57  1  0  0  0  0
 28 63  2  0  0  0  0
 29 64  1  0  0  0  0
 29 67  1  0  0  0  0
 30 69  1  0  0  0  0
 30 80  1  0  0  0  0
 31 68  1  0  0  0  0
 31 74  2  0  0  0  0
 32 47  1  0  0  0  0
 32 70  1  0  0  0  0
 32 75  2  0  0  0  0
 33 58  1  0  0  0  0
 33 65  1  0  0  0  0
 33 76  2  0  0  0  0
 34 59  1  0  0  0  0
 34 71  1  0  0  0  0
 34 77  2  0  0  0  0
 35 60  1  0  0  0  0
 35 72  1  0  0  0  0
 35 78  2  0  0  0  0
 36 66  1  0  0  0  0
 36 69  1  0  0  0  0
 36 79  2  0  0  0  0
 37 40  1  0  0  0  0
 38 47  1  0  0  0  0
 39 65  1  0  0  0  0
 40 42  1  0  0  0  0
 41 43  1  0  0  0  0
 41 44  1  0  0  0  0
 42 46  1  0  0  0  0
 43 48  1  0  0  0  0
 44 66  1  0  0  0  0
 45 48  1  0  0  0  0
 45 66  1  0  0  0  0
 46 70  1  0  0  0  0
 47 65  1  0  0  0  0
 48 64  1  0  0  0  0
 49 59  1  0  0  0  0
 50 60  1  0  0  0  0
 51 60  1  0  0  0  0
 52 61  1  0  0  0  0
 53 61  1  0  0  0  0
 54 61  1  0  0  0  0
 55 72  1  0  0  0  0
 56 73  1  0  0  0  0
 57 72  1  0  0  0  0
 58 61  1  0  0  0  0
 58 71  1  0  0  0  0
 59 73  1  0  0  0  0
 60 82  1  0  0  0  0
 62 64  1  0  0  0  0
 63 80  1  0  0  0  0
M  CHG  1  73   1
M  ISO  4  36 100  60 101  69 100  82 101
M  END
> <Batch ID>
0159

> <Smiles>
CNC(C)C(=O)NC(C(=O)N1Cc2cc([101O:1][101C:1](C)(C)C(=O)N(C)Cc3cc([100NH:0][100C:0](=O)N4CCCC(n5nc(-c6ccc(Oc7ccc(F)cc7F)cc6)c(C(N)=O)c5N)C4)on3)ccc2CC1C(=O)NC1CCCc2ccccc21)C(C)(C)C

> <Shape>
0.298

> <Color>
0.115

> <Negative vol penalty>
0.000

$$$$

  -OEChem-04052303473D

 88 96  0     1  0  0  0  0  0999 V2000
  -33.3651  -27.3600   31.1761 C   0  0  0  0  0  0  0  0  0  0  0  0
  -33.5776  -26.3721   30.2199 C   0  0  0  0  0  0  0  0  0  0  0  0
  -23.0454  -10.0293   19.8441 C   0  0  0  0  0  0  0  0  0  0  0  0
  -23.9324   -9.7478   22.0737 C   0  0  0  0  0  0  0  0  0  0  0  0
  -32.0658  -27.7561   31.4905 C   0  0  0  0  0  0  0  0  0  0  0  0
  -32.4909  -25.7789   29.5784 C   0  0  0  0  0  0  0  0  0  0  0  0
  -31.8199  -26.0419   22.4110 C   0  0  0  0  0  0  0  0  0  0  0  0
  -22.3163   -8.8486   19.9850 C   0  0  0  0  0  0  0  0  0  0  0  0
  -23.2032   -8.5671   22.2147 C   0  0  0  0  0  0  0  0  0  0  0  0
  -31.7296  -25.8670   21.0299 C   0  0  0  0  0  0  0  0  0  0  0  0
  -20.0135   -7.6767   22.8882 C   0  0  0  0  0  0  0  0  0  0  0  0
  -19.3231   -7.4821   24.0845 C   0  0  0  0  0  0  0  0  0  0  0  0
  -29.6467  -19.8894   20.4956 C   0  0  0  0  0  0  0  0  0  0  0  0
  -29.6163  -24.7233   21.3023 C   0  0  0  0  0  0  0  0  0  0  0  0
  -20.6031   -5.4748   24.4964 C   0  0  0  0  0  0  0  0  0  0  0  0
  -23.8535  -10.4789   20.8884 C   0  0  0  0  0  0  0  0  0  0  0  0
  -29.5011  -18.8037   21.4067 C   0  0  0  0  0  0  0  0  0  0  0  0
  -24.1890  -13.0009   21.0743 C   0  0  0  0  0  0  0  0  0  0  0  0
  -30.9630  -27.1743   30.8456 C   0  0  0  0  0  0  0  0  0  0  0  0
  -30.8001  -25.5712   23.2427 C   0  0  0  0  0  0  0  0  0  0  0  0
  -31.1756  -26.1667   29.8855 C   0  0  0  0  0  0  0  0  0  0  0  0
  -29.6953  -24.9066   22.6854 C   0  0  0  0  0  0  0  0  0  0  0  0
  -22.3951   -8.1175   21.1703 C   0  0  0  0  0  0  0  0  0  0  0  0
  -30.6306  -25.2091   20.4770 C   0  0  0  0  0  0  0  0  0  0  0  0
  -20.9986   -6.7704   22.4959 C   0  0  0  0  0  0  0  0  0  0  0  0
  -19.6180   -6.3811   24.8886 C   0  0  0  0  0  0  0  0  0  0  0  0
  -21.2934   -5.6694   23.3001 C   0  0  0  0  0  0  0  0  0  0  0  0
  -24.6074  -11.6981   20.7432 C   0  0  0  0  0  0  0  0  0  0  0  0
  -30.6268  -18.0110   21.4512 C   0  0  0  0  0  0  0  0  0  0  0  0
  -25.2594  -13.7981   20.7500 C   0  0  0  0  0  0  0  0  0  0  0  0
  -30.8784  -19.8852   19.8784 C   0  0  0  0  0  0  0  0  0  0  0  0
  -28.3274  -18.5435   22.1998 C   0  0  0  0  0  0  0  0  0  0  0  0
  -22.9441  -13.4501   21.6257 C   0  0  0  0  0  0  0  0  0  0  0  0
  -29.4855  -25.2199   26.7391 C   0  0  0  0  0  0  0  0  0  0  0  0
  -31.5637  -24.0408   17.2140 C   0  0  0  0  0  0  0  0  0  0  0  0
  -27.0883  -25.9002   24.9500 C   0  0  0  0  0  0  0  0  0  0  0  0
  -30.8429  -21.8863   18.3524 C   0  0  0  0  0  0  0  0  0  0  0  0
  -24.7937  -27.0716   22.7139 C   0  0  0  0  0  0  0  0  0  0  0  0
  -30.7455  -14.8220   20.7629 C   0  0  0  0  0  0  0  0  0  0  0  0
  -29.5752  -27.6018   31.2530 C   0  0  0  0  0  0  0  0  0  0  0  0
  -30.8851  -25.6830   24.7407 C   0  0  0  0  0  0  0  0  0  0  0  0
  -28.6389  -24.3865   23.6215 C   0  0  0  0  0  0  0  0  0  0  0  0
  -28.4938  -27.1887   30.2579 C   0  0  0  0  0  0  0  0  0  0  0  0
  -29.4754  -12.7550   18.1570 C   0  0  0  0  0  0  0  0  0  0  0  0
  -28.6747  -25.7307   29.8477 C   0  0  0  0  0  0  0  0  0  0  0  0
  -28.0643  -12.3984   18.6278 C   0  0  0  0  0  0  0  0  0  0  0  0
  -30.4583  -12.8265   19.3235 C   0  0  0  0  0  0  0  0  0  0  0  0
  -28.6373  -13.3611   20.8958 C   0  0  0  0  0  0  0  0  0  0  0  0
  -30.0235  -25.5170   29.1501 C   0  0  1  0  0  0  0  0  0  0  0  0
  -29.5167  -25.9109   25.4076 C   0  0  1  0  0  0  0  0  0  0  0  0
  -27.5987  -13.3320   19.7613 C   0  0  2  0  0  0  0  0  0  0  0  0
  -25.9366  -19.0948   22.9520 C   0  0  0  0  0  0  0  0  0  0  0  0
  -22.3791  -27.7301   22.5316 C   0  0  0  0  0  0  0  0  0  0  0  0
  -26.2902  -22.9562   24.9365 C   0  0  0  0  0  0  0  0  0  0  0  0
  -24.1419  -23.6168   23.8335 C   0  0  0  0  0  0  0  0  0  0  0  0
  -24.6836  -24.4676   26.1151 C   0  0  0  0  0  0  0  0  0  0  0  0
  -25.4878  -29.8475   21.9580 C   0  0  0  0  0  0  0  0  0  0  0  0
  -30.8811  -16.7970   22.2597 C   0  0  0  0  0  0  0  0  0  0  0  0
  -27.1170  -19.4914   22.0791 C   0  0  0  0  0  0  0  0  0  0  0  0
  -31.7801  -22.5550   17.3644 C   0  0  0  0  0  0  0  0  0  0  0  0
  -31.7750  -24.9366   18.4097 C   0  0  0  0  0  0  0  0  0  1  0  0
  -25.9410  -25.3808   24.1208 C   0  0  1  0  0  0  0  0  0  0  0  0
  -23.7964  -28.2129   22.7982 C   0  0  2  0  0  0  0  0  0  0  0  0
  -25.2892  -24.1121   24.7397 C   0  0  0  0  0  0  0  0  0  0  0  0
  -25.8469  -11.6653   20.2465 N   0  0  0  0  0  0  0  0  0  0  0  0
  -31.1500  -24.5153   16.0839 N   0  0  0  0  0  0  0  0  0  0  0  0
  -26.2165  -12.9573   20.2631 N   0  0  0  0  0  0  0  0  0  0  0  0
  -28.3584  -25.3836   24.6663 N   0  0  0  0  0  0  0  0  0  0  0  0
  -29.9585  -13.7294   20.3632 N   0  0  0  0  0  0  0  0  0  0  0  0
  -25.4659  -15.1294   20.8368 N   0  0  0  0  0  0  0  0  0  0  0  0
  -21.9523  -12.4984   21.8993 N   0  0  0  0  0  0  0  0  0  0  0  0
  -31.4366  -20.7637   18.9195 N   0  0  0  0  0  0  0  0  0  0  0  0
  -29.9655  -25.9878   27.7828 N   0  0  0  0  0  0  0  0  0  0  0  0
  -25.0223  -26.5009   23.9481 N   0  0  0  0  0  0  0  0  0  0  0  0
  -30.1946  -15.6313   21.7490 N   0  0  0  0  0  0  0  0  0  0  0  0
  -24.1296  -29.2669   21.7987 N   0  3  0  0  0  0  0  0  0  0  0  0
  -28.2298  -17.5814   22.9925 O   0  0  0  0  0  0  0  0  0  0  0  0
  -22.7119  -14.6617   21.8534 O   0  0  0  0  0  0  0  0  0  0  0  0
  -29.0563  -24.0746   26.8155 O   0  0  0  0  0  0  0  0  0  0  0  0
  -26.8664  -26.7368   25.8298 O   0  0  0  0  0  0  0  0  0  0  0  0
  -29.7138  -22.3191   18.5602 O   0  0  0  0  0  0  0  0  0  0  0  0
  -25.3149  -26.7190   21.6582 O   0  0  0  0  0  0  0  0  0  0  0  0
  -31.8543  -15.0619   20.2732 O   0  0  0  0  0  0  0  0  0  0  0  0
  -21.6836   -6.9654   21.3083 O   0  0  0  0  0  0  0  0  0  0  0  0
  -30.5465  -25.0457   19.1276 O   0  0  0  0  0  0  0  0  0  1  0  0
  -18.9560   -6.1952   26.0382 F   0  0  0  0  0  0  0  0  0  0  0  0
  -22.2396   -4.7960   22.9291 F   0  0  0  0  0  0  0  0  0  0  0  0
  -31.8526  -18.5761   20.3974 S   0  0  0  0  0  0  0  0  0  0  0  0
  1  2  1  0  0  0  0
  1  5  2  0  0  0  0
  2  6  2  0  0  0  0
  3  8  2  0  0  0  0
  3 16  1  0  0  0  0
  4  9  1  0  0  0  0
  4 16  2  0  0  0  0
  5 19  1  0  0  0  0
  6 21  1  0  0  0  0
  7 10  2  0  0  0  0
  7 20  1  0  0  0  0
  8 23  1  0  0  0  0
  9 23  2  0  0  0  0
 10 24  1  0  0  0  0
 11 12  2  0  0  0  0
 11 25  1  0  0  0  0
 12 26  1  0  0  0  0
 13 17  1  0  0  0  0
 13 31  2  0  0  0  0
 14 22  1  0  0  0  0
 14 24  2  0  0  0  0
 15 26  2  0  0  0  0
 15 27  1  0  0  0  0
 16 28  1  0  0  0  0
 17 29  2  0  0  0  0
 17 32  1  0  0  0  0
 18 28  1  0  0  0  0
 18 30  2  0  0  0  0
 18 33  1  0  0  0  0
 19 21  2  0  0  0  0
 19 40  1  0  0  0  0
 20 22  2  0  0  0  0
 20 41  1  0  0  0  0
 21 49  1  0  0  0  0
 22 42  1  0  0  0  0
 23 84  1  0  0  0  0
 24 85  1  0  0  0  0
 25 27  2  0  0  0  0
 25 84  1  0  0  0  0
 26 86  1  0  0  0  0
 27 87  1  0  0  0  0
 28 65  2  0  0  0  0
 29 58  1  0  0  0  0
 29 88  1  0  0  0  0
 30 67  1  0  0  0  0
 30 70  1  0  0  0  0
 31 72  1  0  0  0  0
 31 88  1  0  0  0  0
 32 59  1  0  0  0  0
 32 77  2  0  0  0  0
 33 71  1  0  0  0  0
 33 78  2  0  0  0  0
 34 50  1  0  0  0  0
 34 73  1  0  0  0  0
 34 79  2  0  0  0  0
 35 60  1  0  0  0  0
 35 61  1  0  0  0  0
 35 66  2  0  0  0  0
 36 62  1  0  0  0  0
 36 68  1  0  0  0  0
 36 80  2  0  0  0  0
 37 60  1  0  0  0  0
 37 72  1  0  0  0  0
 37 81  2  0  0  0  0
 38 63  1  0  0  0  0
 38 74  1  0  0  0  0
 38 82  2  0  0  0  0
 39 69  1  0  0  0  0
 39 75  1  0  0  0  0
 39 83  2  0  0  0  0
 40 43  1  0  0  0  0
 41 50  1  0  0  0  0
 42 68  1  0  0  0  0
 43 45  1  0  0  0  0
 44 46  1  0  0  0  0
 44 47  1  0  0  0  0
 45 49  1  0  0  0  0
 46 51  1  0  0  0  0
 47 69  1  0  0  0  0
 48 51  1  0  0  0  0
 48 69  1  0  0  0  0
 49 73  1  0  0  0  0
 50 68  1  0  0  0  0
 51 67  1  0  0  0  0
 52 59  1  0  0  0  0
 53 63  1  0  0  0  0
 54 64  1  0  0  0  0
 55 64  1  0  0  0  0
 56 64  1  0  0  0  0
 57 76  1  0  0  0  0
 58 75  1  0  0  0  0
 61 85  1  0  0  0  0
 62 64  1  0  0  0  0
 62 74  1  0  0  0  0
 63 76  1  0  0  0  0
 65 67  1  0  0  0  0
M  CHG  1  76   1
M  ISO  4  39 100  61 101  75 100  85 101
M  END
> <Batch ID>
0159

> <Smiles>
CCC(=O)c1cc(NC(=O)CC(=N)[101CH2:1][101O:1]c2ccc3c(c2)CN(C(=O)C(NC(=O)C(C)NC)C(C)(C)C)C(C(=O)NC2CCCc4ccccc42)C3)sc1C[100NH:0][100C:0](=O)N1CCCC(n2nc(-c3ccc(Oc4ccc(F)cc4F)cc3)c(C(N)=O)c2N)C1

> <Shape>
0.243

> <Color>
0.188

> <Negative vol penalty>
0.000

$$$$

  -OEChem-04052303473D

 84 93  0     1  0  0  0  0  0999 V2000
  -17.3737  -26.4098   22.8535 C   0  0  0  0  0  0  0  0  0  0  0  0
  -18.6256  -25.9655   22.4404 C   0  0  0  0  0  0  0  0  0  0  0  0
  -33.1897  -20.1529   17.2257 C   0  0  0  0  0  0  0  0  0  0  0  0
  -28.4182  -10.0939   17.7841 C   0  0  0  0  0  0  0  0  0  0  0  0
  -29.5100  -11.6888   16.3346 C   0  0  0  0  0  0  0  0  0  0  0  0
  -17.0602  -27.7668   22.7878 C   0  0  0  0  0  0  0  0  0  0  0  0
  -19.5645  -26.8779   21.9602 C   0  0  0  0  0  0  0  0  0  0  0  0
  -25.6410  -26.6314   22.6823 C   0  0  0  0  0  0  0  0  0  0  0  0
  -28.2289   -9.2376   16.6994 C   0  0  0  0  0  0  0  0  0  0  0  0
  -29.3208  -10.8325   15.2499 C   0  0  0  0  0  0  0  0  0  0  0  0
  -26.6673  -26.1871   21.8497 C   0  0  0  0  0  0  0  0  0  0  0  0
  -26.1169   -8.9736   14.0738 C   0  0  0  0  0  0  0  0  0  0  0  0
  -24.8637   -8.3783   13.9298 C   0  0  0  0  0  0  0  0  0  0  0  0
  -32.9530  -21.4866   17.5394 C   0  0  0  0  0  0  0  0  0  0  0  0
  -32.2458  -19.1879   17.5594 C   0  0  0  0  0  0  0  0  0  0  0  0
  -27.0307  -28.4509   21.0999 C   0  0  0  0  0  0  0  0  0  0  0  0
  -25.8819   -6.1938   14.0988 C   0  0  0  0  0  0  0  0  0  0  0  0
  -29.0586  -11.3195   17.6017 C   0  0  0  0  0  0  0  0  0  0  0  0
  -29.9722  -11.9364   19.9022 C   0  0  0  0  0  0  0  0  0  0  0  0
  -17.9992  -28.6975   22.3157 C   0  0  0  0  0  0  0  0  0  0  0  0
  -25.2941  -27.9895   22.7218 C   0  0  0  0  0  0  0  0  0  0  0  0
  -19.2628  -28.2484   21.8869 C   0  0  0  0  0  0  0  0  0  0  0  0
  -26.0014  -28.9102   21.9357 C   0  0  0  0  0  0  0  0  0  0  0  0
  -28.6803   -9.6068   15.4323 C   0  0  0  0  0  0  0  0  0  0  0  0
  -27.3604  -27.0965   21.0562 C   0  0  0  0  0  0  0  0  0  0  0  0
  -27.2527   -8.1789   14.2301 C   0  0  0  0  0  0  0  0  0  0  0  0
  -24.7462   -6.9885   13.9424 C   0  0  0  0  0  0  0  0  0  0  0  0
  -27.1351   -6.7891   14.2427 C   0  0  0  0  0  0  0  0  0  0  0  0
  -29.2539  -12.2048   18.7217 C   0  0  0  0  0  0  0  0  0  0  0  0
  -31.7664  -21.8011   18.1818 C   0  0  0  0  0  0  0  0  0  0  0  0
  -31.0909  -19.6053   18.2012 C   0  0  0  0  0  0  0  0  0  0  0  0
  -29.8595  -13.0881   20.6421 C   0  0  0  0  0  0  0  0  0  0  0  0
  -31.4575  -23.2213   18.5435 C   0  0  0  0  0  0  0  0  0  0  0  0
  -30.6783  -10.7520   20.2949 C   0  0  0  0  0  0  0  0  0  0  0  0
  -22.6756  -29.6566   22.0375 C   0  0  0  0  0  0  0  0  0  0  0  0
  -24.3969  -32.1205   23.2576 C   0  0  0  0  0  0  0  0  0  0  0  0
  -27.4623  -33.4417   23.9677 C   0  0  0  0  0  0  0  0  0  0  0  0
  -28.9120  -18.8036   19.1789 C   0  0  0  0  0  0  0  0  0  0  0  0
  -17.5979  -30.1481   22.2188 C   0  0  0  0  0  0  0  0  0  0  0  0
  -24.2024  -28.4565   23.6452 C   0  0  0  0  0  0  0  0  0  0  0  0
  -25.6813  -30.3818   21.9567 C   0  0  0  0  0  0  0  0  0  0  0  0
  -30.1387  -23.5052   19.2479 C   0  0  0  0  0  0  0  0  0  0  0  0
  -18.7813  -31.0973   22.0491 C   0  0  0  0  0  0  0  0  0  0  0  0
  -26.9280  -16.8065   21.3590 C   0  0  0  0  0  0  0  0  0  0  0  0
  -19.7379  -30.5728   20.9830 C   0  0  0  0  0  0  0  0  0  0  0  0
  -27.3690  -15.3758   21.0418 C   0  0  0  0  0  0  0  0  0  0  0  0
  -31.0370  -25.7735   19.6293 C   0  0  0  0  0  0  0  0  0  0  0  0
  -32.0932  -25.5384   18.5647 C   0  0  0  0  0  0  0  0  0  0  0  0
  -26.8984  -17.6816   20.1071 C   0  0  0  0  0  0  0  0  0  0  0  0
  -28.5826  -16.2584   19.0083 C   0  0  0  0  0  0  0  0  0  0  0  0
  -20.3168  -29.2105   21.3834 C   0  0  1  0  0  0  0  0  0  0  0  0
  -23.5909  -29.7885   23.2218 C   0  0  1  0  0  0  0  0  0  0  0  0
  -29.7837  -24.9879   19.2686 C   0  0  2  0  0  0  0  0  0  0  0  0
  -28.6903  -15.3561   20.2484 C   0  0  2  0  0  0  0  0  0  0  0  0
  -28.5506  -35.4885   24.9288 C   0  0  0  0  0  0  0  0  0  0  0  0
  -23.8283  -33.6348   20.6704 C   0  0  0  0  0  0  0  0  0  0  0  0
  -25.6736  -35.2162   21.2723 C   0  0  0  0  0  0  0  0  0  0  0  0
  -23.6707  -35.0205   22.7464 C   0  0  0  0  0  0  0  0  0  0  0  0
  -28.7168  -31.8900   26.1534 C   0  0  0  0  0  0  0  0  0  0  0  0
  -28.6501  -25.2678   20.2509 C   0  0  0  0  0  0  0  0  0  1  0  0
  -25.3573  -33.1379   22.6906 C   0  0  1  0  0  0  0  0  0  0  0  0
  -28.0105  -34.0975   25.2223 C   0  0  2  0  0  0  0  0  0  0  0  0
  -24.6374  -34.2244   21.8429 C   0  0  0  0  0  0  0  0  0  0  0  0
  -28.7238  -13.4307   18.7080 N   0  0  0  0  0  0  0  0  0  0  0  0
  -30.8259  -20.8915   18.5220 N   0  0  0  0  0  0  0  0  0  0  0  0
  -32.3300  -24.1289   18.2697 N   0  0  0  0  0  0  0  0  0  0  0  0
  -29.1094  -13.9429   19.8891 N   0  0  0  0  0  0  0  0  0  0  0  0
  -24.6015  -30.7884   22.8712 N   0  0  0  0  0  0  0  0  0  0  0  0
  -28.1845  -17.6168   19.4095 N   0  0  0  0  0  0  0  0  0  0  0  0
  -30.3297  -13.4429   21.8567 N   0  0  0  0  0  0  0  0  0  0  0  0
  -32.0328  -10.6374   19.9534 N   0  0  0  0  0  0  0  0  0  0  0  0
  -30.1351  -18.6144   18.5363 N   0  0  0  0  0  0  0  0  0  0  0  0
  -21.3637  -29.3761   22.3688 N   0  0  0  0  0  0  0  0  0  0  0  0
  -26.1093  -33.6654   23.8240 N   0  0  0  0  0  0  0  0  0  0  0  0
  -29.1138  -33.2763   25.7962 N   0  3  0  0  0  0  0  0  0  0  0  0
  -30.1204   -9.8155   20.9156 O   0  0  0  0  0  0  0  0  0  0  0  0
  -23.1260  -29.8002   20.9069 O   0  0  0  0  0  0  0  0  0  0  0  0
  -23.5025  -32.4931   24.0211 O   0  0  0  0  0  0  0  0  0  0  0  0
  -28.1649  -32.7988   23.1908 O   0  0  0  0  0  0  0  0  0  0  0  0
  -28.4942  -19.9034   19.5502 O   0  0  0  0  0  0  0  0  0  0  0  0
  -28.4961   -8.7714   14.3737 O   0  0  0  0  0  0  0  0  0  0  0  0
  -28.3621  -26.6654   20.2421 O   0  0  0  0  0  0  0  0  0  1  0  0
  -23.5425   -6.4170   13.8057 F   0  0  0  0  0  0  0  0  0  0  0  0
  -28.2225   -6.0205   14.3937 F   0  0  0  0  0  0  0  0  0  0  0  0
  1  2  1  0  0  0  0
  1  6  2  0  0  0  0
  2  7  2  0  0  0  0
  3 14  2  0  0  0  0
  3 15  1  0  0  0  0
  4  9  2  0  0  0  0
  4 18  1  0  0  0  0
  5 10  1  0  0  0  0
  5 18  2  0  0  0  0
  6 20  1  0  0  0  0
  7 22  1  0  0  0  0
  8 11  2  0  0  0  0
  8 21  1  0  0  0  0
  9 24  1  0  0  0  0
 10 24  2  0  0  0  0
 11 25  1  0  0  0  0
 12 13  2  0  0  0  0
 12 26  1  0  0  0  0
 13 27  1  0  0  0  0
 14 30  1  0  0  0  0
 15 31  2  0  0  0  0
 16 23  1  0  0  0  0
 16 25  2  0  0  0  0
 17 27  2  0  0  0  0
 17 28  1  0  0  0  0
 18 29  1  0  0  0  0
 19 29  1  0  0  0  0
 19 32  2  0  0  0  0
 19 34  1  0  0  0  0
 20 22  2  0  0  0  0
 20 39  1  0  0  0  0
 21 23  2  0  0  0  0
 21 40  1  0  0  0  0
 22 51  1  0  0  0  0
 23 41  1  0  0  0  0
 24 81  1  0  0  0  0
 25 82  1  0  0  0  0
 26 28  2  0  0  0  0
 26 81  1  0  0  0  0
 27 83  1  0  0  0  0
 28 84  1  0  0  0  0
 29 64  2  0  0  0  0
 30 33  1  0  0  0  0
 30 65  2  0  0  0  0
 31 65  1  0  0  0  0
 31 72  1  0  0  0  0
 32 67  1  0  0  0  0
 32 70  1  0  0  0  0
 33 42  1  0  0  0  0
 33 66  2  0  0  0  0
 34 71  1  0  0  0  0
 34 76  2  0  0  0  0
 35 52  1  0  0  0  0
 35 73  1  0  0  0  0
 35 77  2  0  0  0  0
 36 61  1  0  0  0  0
 36 68  1  0  0  0  0
 36 78  2  0  0  0  0
 37 62  1  0  0  0  0
 37 74  1  0  0  0  0
 37 79  2  0  0  0  0
 38 69  1  0  0  0  0
 38 72  1  0  0  0  0
 38 80  2  0  0  0  0
 39 43  1  0  0  0  0
 40 52  1  0  0  0  0
 41 68  1  0  0  0  0
 42 53  1  0  0  0  0
 43 45  1  0  0  0  0
 44 46  1  0  0  0  0
 44 49  1  0  0  0  0
 45 51  1  0  0  0  0
 46 54  1  0  0  0  0
 47 48  1  0  0  0  0
 47 53  1  0  0  0  0
 48 66  1  0  0  0  0
 49 69  1  0  0  0  0
 50 54  1  0  0  0  0
 50 69  1  0  0  0  0
 51 73  1  0  0  0  0
 52 68  1  0  0  0  0
 53 60  1  0  0  0  0
 54 67  1  0  0  0  0
 55 62  1  0  0  0  0
 56 63  1  0  0  0  0
 57 63  1  0  0  0  0
 58 63  1  0  0  0  0
 59 75  1  0  0  0  0
 60 82  1  0  0  0  0
 61 63  1  0  0  0  0
 61 74  1  0  0  0  0
 62 75  1  0  0  0  0
 64 67  1  0  0  0  0
M  CHG  1  75   1
M  ISO  4  38 100  60 101  72 100  82 101
M  END
> <Batch ID>
0159

> <Smiles>
CNC(C)C(=O)NC(C(=O)N1Cc2cc([101O:1][101CH2:1]C3=CC(c4cccc([100NH:0][100C:0](=O)N5CCCC(n6nc(-c7ccc(Oc8ccc(F)cc8F)cc7)c(C(N)=O)c6N)C5)n4)NCC3)ccc2CC1C(=O)NC1CCCc2ccccc21)C(C)(C)C

> <Shape>
0.259

> <Color>
0.095

> <Negative vol penalty>
0.000

$$$$

  -OEChem-04052303473D

 88 96  0     1  0  0  0  0  0999 V2000
  -20.2080  -17.4240   19.6809 C   0  0  0  0  0  0  0  0  0  0  0  0
  -21.4046  -18.0483   20.0181 C   0  0  0  0  0  0  0  0  0  0  0  0
  -25.0453  -29.6169   22.2204 C   0  0  0  0  0  0  0  0  0  0  0  0
  -23.6902  -30.2144   20.3116 C   0  0  0  0  0  0  0  0  0  0  0  0
  -20.0589  -16.0520   19.8792 C   0  0  0  0  0  0  0  0  0  0  0  0
  -22.4526  -17.3012   20.5547 C   0  0  0  0  0  0  0  0  0  0  0  0
  -26.9216  -18.4422   18.4642 C   0  0  0  0  0  0  0  0  0  0  0  0
  -26.1979  -29.9322   21.5008 C   0  0  0  0  0  0  0  0  0  0  0  0
  -24.8428  -30.5298   19.5920 C   0  0  0  0  0  0  0  0  0  0  0  0
  -27.5455  -19.6126   18.8942 C   0  0  0  0  0  0  0  0  0  0  0  0
  -29.5160  -30.2381   20.0448 C   0  0  0  0  0  0  0  0  0  0  0  0
  -30.5875  -29.3475   20.1108 C   0  0  0  0  0  0  0  0  0  0  0  0
  -23.9914  -22.5456   22.3985 C   0  0  0  0  0  0  0  0  0  0  0  0
  -28.9719  -18.3131   20.3419 C   0  0  0  0  0  0  0  0  0  0  0  0
  -29.1945  -27.6030   19.1869 C   0  0  0  0  0  0  0  0  0  0  0  0
  -23.7915  -29.7579   21.6257 C   0  0  0  0  0  0  0  0  0  0  0  0
  -22.6943  -22.6209   22.9833 C   0  0  0  0  0  0  0  0  0  0  0  0
  -21.8404  -30.2965   23.1784 C   0  0  0  0  0  0  0  0  0  0  0  0
  -21.1089  -15.2859   20.4095 C   0  0  0  0  0  0  0  0  0  0  0  0
  -27.3116  -17.1974   18.9788 C   0  0  0  0  0  0  0  0  0  0  0  0
  -22.3169  -15.9178   20.7614 C   0  0  0  0  0  0  0  0  0  0  0  0
  -28.3532  -17.1283   19.9149 C   0  0  0  0  0  0  0  0  0  0  0  0
  -26.0966  -30.3887   20.1867 C   0  0  0  0  0  0  0  0  0  0  0  0
  -28.5688  -19.5484   19.8354 C   0  0  0  0  0  0  0  0  0  0  0  0
  -28.2837  -29.8111   19.5499 C   0  0  0  0  0  0  0  0  0  0  0  0
  -30.4268  -28.0300   19.6818 C   0  0  0  0  0  0  0  0  0  0  0  0
  -28.1230  -28.4936   19.1210 C   0  0  0  0  0  0  0  0  0  0  0  0
  -22.6005  -29.4318   22.3683 C   0  0  0  0  0  0  0  0  0  0  0  0
  -24.9473  -23.1577   23.1789 C   0  0  0  0  0  0  0  0  0  0  0  0
  -20.8199  -29.5110   23.6559 C   0  0  0  0  0  0  0  0  0  0  0  0
  -22.7083  -23.2876   24.1888 C   0  0  0  0  0  0  0  0  0  0  0  0
  -26.6468  -23.9195   21.8545 C   0  0  0  0  0  0  0  0  0  0  0  0
  -21.5170  -22.0629   22.3775 C   0  0  0  0  0  0  0  0  0  0  0  0
  -22.0389  -31.6856   23.4729 C   0  0  0  0  0  0  0  0  0  0  0  0
  -25.8700  -14.9098   20.6497 C   0  0  0  0  0  0  0  0  0  0  0  0
  -28.8574  -22.8217   21.3612 C   0  0  0  0  0  0  0  0  0  0  0  0
  -28.6515  -13.3217   20.1366 C   0  0  0  0  0  0  0  0  0  0  0  0
  -31.9912  -13.4748   19.4512 C   0  0  0  0  0  0  0  0  0  0  0  0
  -20.3217  -23.7983   24.6730 C   0  0  0  0  0  0  0  0  0  0  0  0
  -20.8843  -13.8140   20.6497 C   0  0  0  0  0  0  0  0  0  0  0  0
  -26.6468  -15.9419   18.4847 C   0  0  0  0  0  0  0  0  0  0  0  0
  -28.8228  -15.8148   20.4831 C   0  0  0  0  0  0  0  0  0  0  0  0
  -22.1745  -13.0296   20.8741 C   0  0  0  0  0  0  0  0  0  0  0  0
  -18.1932  -25.6816   22.5363 C   0  0  0  0  0  0  0  0  0  0  0  0
  -23.0786  -13.7603   21.8618 C   0  0  0  0  0  0  0  0  0  0  0  0
  -19.0224  -26.9472   22.3208 C   0  0  0  0  0  0  0  0  0  0  0  0
  -19.0619  -24.4234   22.5496 C   0  0  0  0  0  0  0  0  0  0  0  0
  -21.0159  -25.7455   23.2969 C   0  0  0  0  0  0  0  0  0  0  0  0
  -23.4854  -15.1371   21.3228 C   0  0  1  0  0  0  0  0  0  0  0  0
  -26.7757  -14.7746   19.4585 C   0  0  1  0  0  0  0  0  0  0  0  0
  -20.1755  -27.0314   23.3363 C   0  0  1  0  0  0  0  0  0  0  0  0
  -34.0054  -12.0127   19.1303 C   0  0  0  0  0  0  0  0  0  0  0  0
  -28.8173  -12.8921   23.1529 C   0  0  0  0  0  0  0  0  0  0  0  0
  -31.2328  -12.2998   22.8656 C   0  0  0  0  0  0  0  0  0  0  0  0
  -29.4712  -10.9074   21.7791 C   0  0  0  0  0  0  0  0  0  0  0  0
  -21.9105  -23.4598   26.5535 C   0  0  0  0  0  0  0  0  0  0  0  0
  -19.5958  -20.4648   22.5195 C   0  0  0  0  0  0  0  0  0  0  0  0
  -32.3803  -14.4219   16.6744 C   0  0  0  0  0  0  0  0  0  0  0  0
  -28.3943  -21.8812   20.2640 C   0  0  0  0  0  0  0  0  0  1  0  0
  -28.0911  -24.1251   21.4928 C   0  0  2  0  0  0  0  0  0  0  0  0
  -29.9695  -13.2111   20.8645 C   0  0  1  0  0  0  0  0  0  0  0  0
  -32.8488  -12.7258   18.4472 C   0  0  2  0  0  0  0  0  0  0  0  0
  -29.8628  -12.3527   22.1565 C   0  0  0  0  0  0  0  0  0  0  0  0
  -22.1053  -28.1919   22.3310 N   0  0  0  0  0  0  0  0  0  0  0  0
  -26.3248  -23.2854   22.9345 N   0  0  0  0  0  0  0  0  0  0  0  0
  -21.0231  -28.2718   23.1238 N   0  0  0  0  0  0  0  0  0  0  0  0
  -28.1374  -14.6158   19.9733 N   0  0  0  0  0  0  0  0  0  0  0  0
  -20.1713  -24.5664   23.5029 N   0  0  0  0  0  0  0  0  0  0  0  0
  -19.7776  -29.7663   24.4750 N   0  0  0  0  0  0  0  0  0  0  0  0
  -21.1250  -22.4946   21.1574 N   0  0  0  0  0  0  0  0  0  0  0  0
  -23.1374  -32.3399   22.8988 N   0  0  0  0  0  0  0  0  0  0  0  0
  -24.5290  -15.0027   20.3292 N   0  0  0  0  0  0  0  0  0  0  0  0
  -30.9326  -12.7084   19.8909 N   0  0  0  0  0  0  0  0  0  0  0  0
  -21.6462  -23.5967   25.1171 N   0  0  0  0  0  0  0  0  0  0  0  0
  -20.8066  -21.1099   23.0336 N   0  3  0  0  0  0  0  0  0  0  0  0
  -28.7176  -24.9957   22.5294 N   0  3  0  0  0  0  0  0  0  0  0  0
  -33.4084  -13.6692   17.4383 N   0  3  0  0  0  0  0  0  0  0  0  0
  -21.2745  -32.3235   24.2360 O   0  0  0  0  0  0  0  0  0  0  0  0
  -26.3519  -14.9269   21.7763 O   0  0  0  0  0  0  0  0  0  0  0  0
  -29.8081  -22.5422   22.0912 O   0  0  0  0  0  0  0  0  0  0  0  0
  -28.1021  -12.2981   19.7218 O   0  0  0  0  0  0  0  0  0  0  0  0
  -32.2380  -14.6233   19.8124 O   0  0  0  0  0  0  0  0  0  0  0  0
  -19.3470  -23.3495   25.2882 O   0  0  0  0  0  0  0  0  0  0  0  0
  -27.2211  -30.6967   19.4843 O   0  0  0  0  0  0  0  0  0  0  0  0
  -29.1789  -20.6893   20.2573 O   0  0  0  0  0  0  0  0  0  1  0  0
  -31.4563  -27.1754   19.7438 F   0  0  0  0  0  0  0  0  0  0  0  0
  -26.9419  -28.0779   18.6436 F   0  0  0  0  0  0  0  0  0  0  0  0
  -24.2804  -23.8195   24.6106 S   0  0  0  0  0  0  0  0  0  0  0  0
  1  2  1  0  0  0  0
  1  5  2  0  0  0  0
  2  6  2  0  0  0  0
  3  8  2  0  0  0  0
  3 16  1  0  0  0  0
  4  9  1  0  0  0  0
  4 16  2  0  0  0  0
  5 19  1  0  0  0  0
  6 21  1  0  0  0  0
  7 10  2  0  0  0  0
  7 20  1  0  0  0  0
  8 23  1  0  0  0  0
  9 23  2  0  0  0  0
 10 24  1  0  0  0  0
 11 12  2  0  0  0  0
 11 25  1  0  0  0  0
 12 26  1  0  0  0  0
 13 17  1  0  0  0  0
 13 29  2  0  0  0  0
 14 22  1  0  0  0  0
 14 24  2  0  0  0  0
 15 26  2  0  0  0  0
 15 27  1  0  0  0  0
 16 28  1  0  0  0  0
 17 31  2  0  0  0  0
 17 33  1  0  0  0  0
 18 28  1  0  0  0  0
 18 30  2  0  0  0  0
 18 34  1  0  0  0  0
 19 21  2  0  0  0  0
 19 40  1  0  0  0  0
 20 22  2  0  0  0  0
 20 41  1  0  0  0  0
 21 49  1  0  0  0  0
 22 42  1  0  0  0  0
 23 84  1  0  0  0  0
 24 85  1  0  0  0  0
 25 27  2  0  0  0  0
 25 84  1  0  0  0  0
 26 86  1  0  0  0  0
 27 87  1  0  0  0  0
 28 64  2  0  0  0  0
 29 65  1  0  0  0  0
 29 88  1  0  0  0  0
 30 66  1  0  0  0  0
 30 69  1  0  0  0  0
 31 74  1  0  0  0  0
 31 88  1  0  0  0  0
 32 60  1  0  0  0  0
 32 65  2  0  0  0  0
 33 70  1  0  0  0  0
 33 75  2  0  0  0  0
 34 71  1  0  0  0  0
 34 78  2  0  0  0  0
 35 50  1  0  0  0  0
 35 72  1  0  0  0  0
 35 79  2  0  0  0  0
 36 59  1  0  0  0  0
 36 60  1  0  0  0  0
 36 80  2  0  0  0  0
 37 61  1  0  0  0  0
 37 67  1  0  0  0  0
 37 81  2  0  0  0  0
 38 62  1  0  0  0  0
 38 73  1  0  0  0  0
 38 82  2  0  0  0  0
 39 68  1  0  0  0  0
 39 74  1  0  0  0  0
 39 83  2  0  0  0  0
 40 43  1  0  0  0  0
 41 50  1  0  0  0  0
 42 67  1  0  0  0  0
 43 45  1  0  0  0  0
 44 46  1  0  0  0  0
 44 47  1  0  0  0  0
 45 49  1  0  0  0  0
 46 51  1  0  0  0  0
 47 68  1  0  0  0  0
 48 51  1  0  0  0  0
 48 68  1  0  0  0  0
 49 72  1  0  0  0  0
 50 67  1  0  0  0  0
 51 66  1  0  0  0  0
 52 62  1  0  0  0  0
 53 63  1  0  0  0  0
 54 63  1  0  0  0  0
 55 63  1  0  0  0  0
 56 74  1  0  0  0  0
 57 75  1  0  0  0  0
 58 77  1  0  0  0  0
 59 85  1  0  0  0  0
 60 76  1  0  0  0  0
 61 63  1  0  0  0  0
 61 73  1  0  0  0  0
 62 77  1  0  0  0  0
 64 66  1  0  0  0  0
M  CHG  3  75   1  76   1  77   1
M  ISO  4  39 100  59 101  74 100  85 101
M  END
> <Batch ID>
0159

> <Smiles>
CN=C(N)c1cc(NCC(=N)C(=O)[101CH2:1][101O:1]c2ccc3c(c2)CN(C(=O)C(NC(=O)C(C)NC)C(C)(C)C)C(C(=O)NC2CCCc4ccccc42)C3)sc1[100N:0](C)[100C:0](=O)N1CCCC(n2nc(-c3ccc(Oc4ccc(F)cc4F)cc3)c(C(N)=O)c2N)C1

> <Shape>
0.242

> <Color>
0.055

> <Negative vol penalty>
0.000

$$$$

  -OEChem-04052303473D

 84 92  0     1  0  0  0  0  0999 V2000
  -28.5517  -38.1504   20.4574 C   0  0  0  0  0  0  0  0  0  0  0  0
  -28.9754  -36.8496   20.2051 C   0  0  0  0  0  0  0  0  0  0  0  0
  -24.2213   -8.5874   21.2177 C   0  0  0  0  0  0  0  0  0  0  0  0
  -25.2217   -9.4475   23.2417 C   0  0  0  0  0  0  0  0  0  0  0  0
  -27.5877  -38.3910   21.4355 C   0  0  0  0  0  0  0  0  0  0  0  0
  -28.4361  -35.7886   20.9315 C   0  0  0  0  0  0  0  0  0  0  0  0
  -27.3283  -30.1198   18.8957 C   0  0  0  0  0  0  0  0  0  0  0  0
  -24.1762   -7.3125   21.7817 C   0  0  0  0  0  0  0  0  0  0  0  0
  -25.1766   -8.1726   23.8057 C   0  0  0  0  0  0  0  0  0  0  0  0
  -28.0433  -28.9278   19.0042 C   0  0  0  0  0  0  0  0  0  0  0  0
  -22.2416   -5.6313   23.9871 C   0  0  0  0  0  0  0  0  0  0  0  0
  -21.0639   -4.8987   23.8399 C   0  0  0  0  0  0  0  0  0  0  0  0
  -26.7071  -28.3073   20.9143 C   0  0  0  0  0  0  0  0  0  0  0  0
  -28.3476  -19.5092   19.8021 C   0  0  0  0  0  0  0  0  0  0  0  0
  -22.2853   -3.1691   22.6764 C   0  0  0  0  0  0  0  0  0  0  0  0
  -24.7441   -9.6550   21.9476 C   0  0  0  0  0  0  0  0  0  0  0  0
  -23.7985  -11.9678   21.4332 C   0  0  0  0  0  0  0  0  0  0  0  0
  -27.0292  -37.3313   22.1676 C   0  0  0  0  0  0  0  0  0  0  0  0
  -26.3029  -30.4200   19.8039 C   0  0  0  0  0  0  0  0  0  0  0  0
  -27.4646  -36.0152   21.9212 C   0  0  0  0  0  0  0  0  0  0  0  0
  -25.9789  -29.5026   20.8137 C   0  0  0  0  0  0  0  0  0  0  0  0
  -27.5751  -18.5096   20.4403 C   0  0  0  0  0  0  0  0  0  0  0  0
  -24.6538   -7.1051   23.0757 C   0  0  0  0  0  0  0  0  0  0  0  0
  -27.7346  -28.0226   20.0154 C   0  0  0  0  0  0  0  0  0  0  0  0
  -23.4412   -5.1329   23.4789 C   0  0  0  0  0  0  0  0  0  0  0  0
  -21.0857   -3.6675   23.1846 C   0  0  0  0  0  0  0  0  0  0  0  0
  -23.4631   -3.9018   22.8235 C   0  0  0  0  0  0  0  0  0  0  0  0
  -24.7914  -10.9721   21.3653 C   0  0  0  0  0  0  0  0  0  0  0  0
  -26.6952  -19.1738   21.2627 C   0  0  0  0  0  0  0  0  0  0  0  0
  -24.3219  -13.0232   20.7271 C   0  0  0  0  0  0  0  0  0  0  0  0
  -27.8844  -20.7130   20.2798 C   0  0  0  0  0  0  0  0  0  0  0  0
  -22.5178  -11.9410   22.0771 C   0  0  0  0  0  0  0  0  0  0  0  0
  -25.6809  -18.7052   22.1461 C   0  0  0  0  0  0  0  0  0  0  0  0
  -25.8050  -32.7140   21.9471 C   0  0  0  0  0  0  0  0  0  0  0  0
  -28.2944  -24.4392   20.1072 C   0  0  0  0  0  0  0  0  0  0  0  0
  -22.9045  -31.2882   22.2236 C   0  0  0  0  0  0  0  0  0  0  0  0
  -21.0145  -28.4704   21.8564 C   0  0  0  0  0  0  0  0  0  0  0  0
  -28.5532  -16.4097   19.4503 C   0  0  0  0  0  0  0  0  0  0  0  0
  -26.0243  -37.6454   23.2476 C   0  0  0  0  0  0  0  0  0  0  0  0
  -25.5234  -31.6979   19.6571 C   0  0  0  0  0  0  0  0  0  0  0  0
  -24.8735  -29.7683   21.8016 C   0  0  0  0  0  0  0  0  0  0  0  0
  -25.2300  -36.4278   23.7132 C   0  0  0  0  0  0  0  0  0  0  0  0
  -28.4007  -13.2898   17.7415 C   0  0  0  0  0  0  0  0  0  0  0  0
  -26.1613  -35.2450   23.9593 C   0  0  0  0  0  0  0  0  0  0  0  0
  -27.3665  -12.4906   18.5375 C   0  0  0  0  0  0  0  0  0  0  0  0
  -29.2614  -14.1664   18.6495 C   0  0  0  0  0  0  0  0  0  0  0  0
  -27.4774  -14.2521   20.3464 C   0  0  0  0  0  0  0  0  0  0  0  0
  -26.8851  -34.8354   22.6710 C   0  0  1  0  0  0  0  0  0  0  0  0
  -24.8418  -32.1340   20.9503 C   0  0  1  0  0  0  0  0  0  0  0  0
  -26.5438  -13.4031   19.4682 C   0  0  2  0  0  0  0  0  0  0  0  0
  -24.8717  -19.7233   22.9237 C   0  0  0  0  0  0  0  0  0  0  0  0
  -18.6854  -27.6020   22.2005 C   0  0  0  0  0  0  0  0  0  0  0  0
  -23.4155  -31.1148   25.2267 C   0  0  0  0  0  0  0  0  0  0  0  0
  -21.5623  -29.4378   25.3746 C   0  0  0  0  0  0  0  0  0  0  0  0
  -21.0817  -31.7602   24.6011 C   0  0  0  0  0  0  0  0  0  0  0  0
  -20.6849  -27.8788   18.9754 C   0  0  0  0  0  0  0  0  0  0  0  0
  -27.6436  -23.1728   20.6218 C   0  0  0  0  0  0  0  0  0  0  0  0
  -27.7381  -25.7348   20.6649 C   0  0  0  0  0  0  0  0  0  1  0  0
  -22.3348  -30.1803   23.0761 C   0  0  1  0  0  0  0  0  0  0  0  0
  -19.6544  -28.2455   21.2209 C   0  0  2  0  0  0  0  0  0  0  0  0
  -22.1207  -30.6189   24.5524 C   0  0  0  0  0  0  0  0  0  0  0  0
  -25.8642  -11.3602   20.6708 N   0  0  0  0  0  0  0  0  0  0  0  0
  -25.5485  -12.6115   20.2957 N   0  0  0  0  0  0  0  0  0  0  0  0
  -24.1445  -31.0344   21.6204 N   0  0  0  0  0  0  0  0  0  0  0  0
  -28.4142  -15.0064   19.4990 N   0  0  0  0  0  0  0  0  0  0  0  0
  -23.8478  -14.2540   20.4392 N   0  0  0  0  0  0  0  0  0  0  0  0
  -22.1369  -10.7773   22.7590 N   0  0  0  0  0  0  0  0  0  0  0  0
  -27.6721  -17.1054   20.2775 N   0  0  0  0  0  0  0  0  0  0  0  0
  -28.2580  -22.0220   20.0109 N   0  0  0  0  0  0  0  0  0  0  0  0
  -26.0005  -34.0755   21.8140 N   0  0  0  0  0  0  0  0  0  0  0  0
  -21.1202  -29.7315   22.4040 N   0  0  0  0  0  0  0  0  0  0  0  0
  -19.7792  -27.3570   20.0310 N   0  3  0  0  0  0  0  0  0  0  0  0
  -21.7274  -12.9142   22.0347 O   0  0  0  0  0  0  0  0  0  0  0  0
  -25.3828  -17.5095   22.3569 O   0  0  0  0  0  0  0  0  0  0  0  0
  -26.3308  -31.9809   22.7764 O   0  0  0  0  0  0  0  0  0  0  0  0
  -29.2143  -24.4298   19.2902 O   0  0  0  0  0  0  0  0  0  0  0  0
  -22.2693  -32.3374   22.0917 O   0  0  0  0  0  0  0  0  0  0  0  0
  -21.8939  -27.6119   21.8693 O   0  0  0  0  0  0  0  0  0  0  0  0
  -29.3735  -16.9552   18.7077 O   0  0  0  0  0  0  0  0  0  0  0  0
  -26.8770  -20.5173   21.1706 O   0  0  0  0  0  0  0  0  0  0  0  0
  -24.6098   -5.8612   23.6265 O   0  0  0  0  0  0  0  0  0  0  0  0
  -28.4313  -26.8587   20.1239 O   0  0  0  0  0  0  0  0  0  1  0  0
  -19.9549   -2.9633   23.0447 F   0  0  0  0  0  0  0  0  0  0  0  0
  -24.6127   -3.4173   22.3342 F   0  0  0  0  0  0  0  0  0  0  0  0
  1  2  1  0  0  0  0
  1  5  2  0  0  0  0
  2  6  2  0  0  0  0
  3  8  2  0  0  0  0
  3 16  1  0  0  0  0
  4  9  1  0  0  0  0
  4 16  2  0  0  0  0
  5 18  1  0  0  0  0
  6 20  1  0  0  0  0
  7 10  2  0  0  0  0
  7 19  1  0  0  0  0
  8 23  1  0  0  0  0
  9 23  2  0  0  0  0
 10 24  1  0  0  0  0
 11 12  2  0  0  0  0
 11 25  1  0  0  0  0
 12 26  1  0  0  0  0
 13 21  1  0  0  0  0
 13 24  2  0  0  0  0
 14 22  1  0  0  0  0
 14 31  2  0  0  0  0
 15 26  2  0  0  0  0
 15 27  1  0  0  0  0
 16 28  1  0  0  0  0
 17 28  1  0  0  0  0
 17 30  2  0  0  0  0
 17 32  1  0  0  0  0
 18 20  2  0  0  0  0
 18 39  1  0  0  0  0
 19 21  2  0  0  0  0
 19 40  1  0  0  0  0
 20 48  1  0  0  0  0
 21 41  1  0  0  0  0
 22 29  2  0  0  0  0
 22 68  1  0  0  0  0
 23 81  1  0  0  0  0
 24 82  1  0  0  0  0
 25 27  2  0  0  0  0
 25 81  1  0  0  0  0
 26 83  1  0  0  0  0
 27 84  1  0  0  0  0
 28 62  2  0  0  0  0
 29 33  1  0  0  0  0
 29 80  1  0  0  0  0
 30 63  1  0  0  0  0
 30 66  1  0  0  0  0
 31 69  1  0  0  0  0
 31 80  1  0  0  0  0
 32 67  1  0  0  0  0
 32 73  2  0  0  0  0
 33 51  1  0  0  0  0
 33 74  2  0  0  0  0
 34 49  1  0  0  0  0
 34 70  1  0  0  0  0
 34 75  2  0  0  0  0
 35 57  1  0  0  0  0
 35 58  1  0  0  0  0
 35 76  2  0  0  0  0
 36 59  1  0  0  0  0
 36 64  1  0  0  0  0
 36 77  2  0  0  0  0
 37 60  1  0  0  0  0
 37 71  1  0  0  0  0
 37 78  2  0  0  0  0
 38 65  1  0  0  0  0
 38 68  1  0  0  0  0
 38 79  2  0  0  0  0
 39 42  1  0  0  0  0
 40 49  1  0  0  0  0
 41 64  1  0  0  0  0
 42 44  1  0  0  0  0
 43 45  1  0  0  0  0
 43 46  1  0  0  0  0
 44 48  1  0  0  0  0
 45 50  1  0  0  0  0
 46 65  1  0  0  0  0
 47 50  1  0  0  0  0
 47 65  1  0  0  0  0
 48 70  1  0  0  0  0
 49 64  1  0  0  0  0
 50 63  1  0  0  0  0
 52 60  1  0  0  0  0
 53 61  1  0  0  0  0
 54 61  1  0  0  0  0
 55 61  1  0  0  0  0
 56 72  1  0  0  0  0
 57 69  1  0  0  0  0
 58 82  1  0  0  0  0
 59 61  1  0  0  0  0
 59 71  1  0  0  0  0
 60 72  1  0  0  0  0
 62 63  1  0  0  0  0
M  CHG  1  72   1
M  ISO  4  38 100  58 101  68 100  82 101
M  END
> <Batch ID>
0159

> <Smiles>
CNC(C)C(=O)NC(C(=O)N1Cc2cc([101O:1][101CH2:1]C(=O)CNc3cc([100NH:0][100C:0](=O)N4CCCC(n5nc(-c6ccc(Oc7ccc(F)cc7F)cc6)c(C(N)=O)c5N)C4)c(C(C)=O)o3)ccc2CC1C(=O)NC1CCCc2ccccc21)C(C)(C)C

> <Shape>
0.312

> <Color>
0.086

> <Negative vol penalty>
0.000

$$$$

  -OEChem-04052303473D

 88 96  0     1  0  0  0  0  0999 V2000
  -28.8628  -33.1053   25.0274 C   0  0  0  0  0  0  0  0  0  0  0  0
  -28.7883  -31.8393   24.4556 C   0  0  0  0  0  0  0  0  0  0  0  0
  -24.6725   -8.8438   20.9919 C   0  0  0  0  0  0  0  0  0  0  0  0
  -22.9089  -10.4304   20.5346 C   0  0  0  0  0  0  0  0  0  0  0  0
  -27.7146  -33.7042   25.5441 C   0  0  0  0  0  0  0  0  0  0  0  0
  -27.5658  -31.1709   24.4011 C   0  0  0  0  0  0  0  0  0  0  0  0
  -26.7228  -29.0272   19.8912 C   0  0  0  0  0  0  0  0  0  0  0  0
  -23.7194   -7.8579   21.2472 C   0  0  0  0  0  0  0  0  0  0  0  0
  -21.9557   -9.4445   20.7899 C   0  0  0  0  0  0  0  0  0  0  0  0
  -27.3819  -27.8284   19.6229 C   0  0  0  0  0  0  0  0  0  0  0  0
  -21.6613   -6.9802   23.7806 C   0  0  0  0  0  0  0  0  0  0  0  0
  -21.8443   -6.1793   24.9078 C   0  0  0  0  0  0  0  0  0  0  0  0
  -25.3721  -26.6091   20.1644 C   0  0  0  0  0  0  0  0  0  0  0  0
  -28.7280  -19.8584   20.2806 C   0  0  0  0  0  0  0  0  0  0  0  0
  -21.9284   -4.2175   23.5003 C   0  0  0  0  0  0  0  0  0  0  0  0
  -27.7864  -18.9249   18.4607 C   0  0  0  0  0  0  0  0  0  0  0  0
  -24.2673  -10.1301   20.6357 C   0  0  0  0  0  0  0  0  0  0  0  0
  -25.8476  -11.4554   19.1345 C   0  0  0  0  0  0  0  0  0  0  0  0
  -26.4756  -33.0469   25.4873 C   0  0  0  0  0  0  0  0  0  0  0  0
  -25.3843  -29.0254   20.3094 C   0  0  0  0  0  0  0  0  0  0  0  0
  -26.4002  -31.7610   24.9188 C   0  0  0  0  0  0  0  0  0  0  0  0
  -24.6975  -27.8094   20.4350 C   0  0  0  0  0  0  0  0  0  0  0  0
  -28.0224  -18.7264   19.8032 C   0  0  0  0  0  0  0  0  0  0  0  0
  -22.3610   -8.1582   21.1462 C   0  0  0  0  0  0  0  0  0  0  0  0
  -26.7075  -26.6189   19.7623 C   0  0  0  0  0  0  0  0  0  0  0  0
  -21.6117   -6.3998   22.5132 C   0  0  0  0  0  0  0  0  0  0  0  0
  -21.9779   -4.7980   24.7677 C   0  0  0  0  0  0  0  0  0  0  0  0
  -21.7453   -5.0184   22.3730 C   0  0  0  0  0  0  0  0  0  0  0  0
  -25.2513  -11.1491   20.3724 C   0  0  0  0  0  0  0  0  0  0  0  0
  -28.9015  -20.7142   19.2153 C   0  0  0  0  0  0  0  0  0  0  0  0
  -26.7057  -12.4910   19.4136 C   0  0  0  0  0  0  0  0  0  0  0  0
  -25.6440  -10.8575   17.8474 C   0  0  0  0  0  0  0  0  0  0  0  0
  -29.5853  -22.0226   19.2491 C   0  0  0  0  0  0  0  0  0  0  0  0
  -23.8498  -29.9804   22.9242 C   0  0  0  0  0  0  0  0  0  0  0  0
  -21.2191  -29.2091   21.1902 C   0  0  0  0  0  0  0  0  0  0  0  0
  -19.8589  -27.3898   18.6433 C   0  0  0  0  0  0  0  0  0  0  0  0
  -27.8390  -17.3423   21.9001 C   0  0  0  0  0  0  0  0  0  0  0  0
  -25.2707  -33.7145   26.1015 C   0  0  0  0  0  0  0  0  0  0  0  0
  -24.6795  -30.3286   20.5691 C   0  0  0  0  0  0  0  0  0  0  0  0
  -23.2540  -27.7542   20.8613 C   0  0  0  0  0  0  0  0  0  0  0  0
  -23.9443  -33.0963   25.6673 C   0  0  0  0  0  0  0  0  0  0  0  0
  -28.2462  -14.3887   23.8461 C   0  0  0  0  0  0  0  0  0  0  0  0
  -24.0103  -31.5748   25.7552 C   0  0  0  0  0  0  0  0  0  0  0  0
  -27.5524  -13.3077   23.0140 C   0  0  0  0  0  0  0  0  0  0  0  0
  -27.5148  -15.7271   23.7604 C   0  0  0  0  0  0  0  0  0  0  0  0
  -26.5700  -15.1303   21.5649 C   0  0  0  0  0  0  0  0  0  0  0  0
  -25.0877  -31.0144   24.8188 C   0  0  1  0  0  0  0  0  0  0  0  0
  -23.4683  -30.1807   21.4848 C   0  0  1  0  0  0  0  0  0  0  0  0
  -27.3066  -13.7809   21.5679 C   0  0  2  0  0  0  0  0  0  0  0  0
  -17.6759  -26.9421   17.4894 C   0  0  0  0  0  0  0  0  0  0  0  0
  -27.7918  -25.2272   17.1419 C   0  0  0  0  0  0  0  0  0  0  0  0
  -28.7174  -20.3668   13.6984 C   0  0  0  0  0  0  0  0  0  0  0  0
  -31.1144  -21.0131   14.0478 C   0  0  0  0  0  0  0  0  0  0  0  0
  -29.2858  -22.5995   14.6652 C   0  0  0  0  0  0  0  0  0  0  0  0
  -20.3450  -27.4559   23.5295 C   0  0  0  0  0  0  0  0  0  0  0  0
  -18.7215  -26.3322   21.9901 C   0  0  0  0  0  0  0  0  0  0  0  0
  -18.5028  -28.7711   22.4660 C   0  0  0  0  0  0  0  0  0  0  0  0
  -20.8850  -28.4016   16.0582 C   0  0  0  0  0  0  0  0  0  0  0  0
  -29.6325  -20.5557   16.0711 C   0  0  0  0  0  0  0  0  0  0  0  0
  -28.2838  -20.7084   16.7871 C   0  0  0  0  0  0  0  0  0  0  0  0
  -29.4549  -24.4642   18.9054 C   0  0  0  0  0  0  0  0  0  0  0  0
  -20.3942  -27.9595   20.9977 C   0  0  1  0  0  0  0  0  0  0  0  0
  -18.9411  -27.7859   17.5008 C   0  0  2  0  0  0  0  0  0  0  0  0
  -28.3853  -25.4783   18.5213 C   0  0  2  0  0  0  0  0  0  1  0  0
  -29.6924  -21.1132   14.6238 C   0  0  0  0  0  0  0  0  0  0  0  0
  -19.5186  -27.6303   22.2396 C   0  0  0  0  0  0  0  0  0  0  0  0
  -25.6933  -11.9270   21.3642 N   0  0  0  0  0  0  0  0  0  0  0  0
  -28.3249  -20.1366   18.1144 N   0  0  0  0  0  0  0  0  0  0  0  0
  -26.5765  -12.7323   20.7497 N   0  0  0  0  0  0  0  0  0  0  0  0
  -22.6104  -29.0548   21.1098 N   0  0  0  0  0  0  0  0  0  0  0  0
  -27.3212  -16.1134   22.3611 N   0  0  0  0  0  0  0  0  0  0  0  0
  -27.5506  -13.2095   18.6440 N   0  0  0  0  0  0  0  0  0  0  0  0
  -24.7259   -9.8042   17.7377 N   0  0  0  0  0  0  0  0  0  0  0  0
  -30.8668  -22.0523   19.6147 N   0  0  0  0  0  0  0  0  0  0  0  0
  -27.6220  -17.5872   20.5445 N   0  0  0  0  0  0  0  0  0  0  0  0
  -24.6135  -31.0043   23.4515 N   0  0  0  0  0  0  0  0  0  0  0  0
  -19.6356  -28.1568   19.7672 N   0  0  0  0  0  0  0  0  0  0  0  0
  -28.8865  -23.1135   18.9141 N   0  3  0  0  0  0  0  0  0  0  0  0
  -19.6353  -27.6099   16.1939 N   0  3  0  0  0  0  0  0  0  0  0  0
  -26.2701  -11.2348   16.8280 O   0  0  0  0  0  0  0  0  0  0  0  0
  -23.4777  -28.9724   23.5133 O   0  0  0  0  0  0  0  0  0  0  0  0
  -20.6499  -30.2837   21.3970 O   0  0  0  0  0  0  0  0  0  0  0  0
  -20.6883  -26.4876   18.5493 O   0  0  0  0  0  0  0  0  0  0  0  0
  -28.4551  -18.1077   22.6461 O   0  0  0  0  0  0  0  0  0  0  0  0
  -21.4307   -7.1963   21.3950 O   0  0  0  0  0  0  0  0  0  0  0  0
  -27.3488  -25.4473   19.5016 O   0  0  0  0  0  0  0  0  0  1  0  0
  -22.1552   -4.0292   25.8501 F   0  0  0  0  0  0  0  0  0  0  0  0
  -21.6998   -4.4552   21.1579 F   0  0  0  0  0  0  0  0  0  0  0  0
  1  2  1  0  0  0  0
  1  5  2  0  0  0  0
  2  6  2  0  0  0  0
  3  8  2  0  0  0  0
  3 17  1  0  0  0  0
  4  9  1  0  0  0  0
  4 17  2  0  0  0  0
  5 19  1  0  0  0  0
  6 21  1  0  0  0  0
  7 10  2  0  0  0  0
  7 20  1  0  0  0  0
  8 24  1  0  0  0  0
  9 24  2  0  0  0  0
 10 25  1  0  0  0  0
 11 12  2  0  0  0  0
 11 26  1  0  0  0  0
 12 27  1  0  0  0  0
 13 22  1  0  0  0  0
 13 25  2  0  0  0  0
 14 23  1  0  0  0  0
 14 30  2  0  0  0  0
 15 27  2  0  0  0  0
 15 28  1  0  0  0  0
 16 23  2  0  0  0  0
 16 68  1  0  0  0  0
 17 29  1  0  0  0  0
 18 29  1  0  0  0  0
 18 31  2  0  0  0  0
 18 32  1  0  0  0  0
 19 21  2  0  0  0  0
 19 38  1  0  0  0  0
 20 22  2  0  0  0  0
 20 39  1  0  0  0  0
 21 47  1  0  0  0  0
 22 40  1  0  0  0  0
 23 75  1  0  0  0  0
 24 85  1  0  0  0  0
 25 86  1  0  0  0  0
 26 28  2  0  0  0  0
 26 85  1  0  0  0  0
 27 87  1  0  0  0  0
 28 88  1  0  0  0  0
 29 67  2  0  0  0  0
 30 33  1  0  0  0  0
 30 68  1  0  0  0  0
 31 69  1  0  0  0  0
 31 72  1  0  0  0  0
 32 73  1  0  0  0  0
 32 80  2  0  0  0  0
 33 74  1  0  0  0  0
 33 78  2  0  0  0  0
 34 48  1  0  0  0  0
 34 76  1  0  0  0  0
 34 81  2  0  0  0  0
 35 62  1  0  0  0  0
 35 70  1  0  0  0  0
 35 82  2  0  0  0  0
 36 63  1  0  0  0  0
 36 77  1  0  0  0  0
 36 83  2  0  0  0  0
 37 71  1  0  0  0  0
 37 75  1  0  0  0  0
 37 84  2  0  0  0  0
 38 41  1  0  0  0  0
 39 48  1  0  0  0  0
 40 70  1  0  0  0  0
 41 43  1  0  0  0  0
 42 44  1  0  0  0  0
 42 45  1  0  0  0  0
 43 47  1  0  0  0  0
 44 49  1  0  0  0  0
 45 71  1  0  0  0  0
 46 49  1  0  0  0  0
 46 71  1  0  0  0  0
 47 76  1  0  0  0  0
 48 70  1  0  0  0  0
 49 69  1  0  0  0  0
 50 63  1  0  0  0  0
 51 64  1  0  0  0  0
 52 65  1  0  0  0  0
 53 65  1  0  0  0  0
 54 65  1  0  0  0  0
 55 66  1  0  0  0  0
 56 66  1  0  0  0  0
 57 66  1  0  0  0  0
 58 79  1  0  0  0  0
 59 60  1  0  0  0  0
 59 65  1  0  0  0  0
 60 68  1  0  0  0  0
 61 64  1  0  0  0  0
 61 78  1  0  0  0  0
 62 66  1  0  0  0  0
 62 77  1  0  0  0  0
 63 79  1  0  0  0  0
 64 86  1  0  0  0  0
 67 69  1  0  0  0  0
M  CHG  2  78   1  79   1
M  ISO  4  37 100  64 101  75 100  86 101
M  END
> <Batch ID>
0159

> <Smiles>
CNC(C)C(=O)NC(C(=O)N1Cc2cc([101O:1][101CH:1](C)CNC(=N)c3cc([100NH:0][100C:0](=O)N4CCCC(n5nc(-c6ccc(Oc7ccc(F)cc7F)cc6)c(C(N)=O)c5N)C4)cn3CCC(C)(C)C)ccc2CC1C(=O)NC1CCCc2ccccc21)C(C)(C)C

> <Shape>
0.340

> <Color>
0.101

> <Negative vol penalty>
0.000

$$$$

  -OEChem-04052303473D

 85 93  0     1  0  0  0  0  0999 V2000
  -16.7201  -28.1099   20.9565 C   0  0  0  0  0  0  0  0  0  0  0  0
  -17.8494  -27.2976   20.9366 C   0  0  0  0  0  0  0  0  0  0  0  0
  -32.4041  -18.4853   22.1244 C   0  0  0  0  0  0  0  0  0  0  0  0
  -23.0655   -9.8750   19.9093 C   0  0  0  0  0  0  0  0  0  0  0  0
  -23.8911   -9.7736   22.1776 C   0  0  0  0  0  0  0  0  0  0  0  0
  -16.8607  -29.4969   20.9763 C   0  0  0  0  0  0  0  0  0  0  0  0
  -19.1200  -27.8720   20.9353 C   0  0  0  0  0  0  0  0  0  0  0  0
  -22.2835  -25.5974   24.1699 C   0  0  0  0  0  0  0  0  0  0  0  0
  -31.6437  -19.2565   23.0033 C   0  0  0  0  0  0  0  0  0  0  0  0
  -31.8952  -17.2838   21.6315 C   0  0  0  0  0  0  0  0  0  0  0  0
  -22.3297   -8.7099   20.1250 C   0  0  0  0  0  0  0  0  0  0  0  0
  -23.1552   -8.6085   22.3933 C   0  0  0  0  0  0  0  0  0  0  0  0
  -22.8398  -24.3834   23.7691 C   0  0  0  0  0  0  0  0  0  0  0  0
  -19.9461   -7.7769   23.0494 C   0  0  0  0  0  0  0  0  0  0  0  0
  -19.2232   -7.6796   24.2383 C   0  0  0  0  0  0  0  0  0  0  0  0
  -24.8752  -25.5248   23.1579 C   0  0  0  0  0  0  0  0  0  0  0  0
  -29.8653  -17.6247   22.8965 C   0  0  0  0  0  0  0  0  0  0  0  0
  -20.4861   -5.7114   24.8452 C   0  0  0  0  0  0  0  0  0  0  0  0
  -23.8463  -10.4069   20.9355 C   0  0  0  0  0  0  0  0  0  0  0  0
  -24.1834  -12.9355   20.9268 C   0  0  0  0  0  0  0  0  0  0  0  0
  -18.1337  -30.0884   20.9850 C   0  0  0  0  0  0  0  0  0  0  0  0
  -23.0162  -26.7877   24.0574 C   0  0  0  0  0  0  0  0  0  0  0  0
  -19.2778  -29.2683   20.9538 C   0  0  0  0  0  0  0  0  0  0  0  0
  -24.3269  -26.7522   23.5604 C   0  0  0  0  0  0  0  0  0  0  0  0
  -30.3742  -18.8262   23.3893 C   0  0  0  0  0  0  0  0  0  0  0  0
  -30.6258  -16.8534   22.0175 C   0  0  0  0  0  0  0  0  0  0  0  0
  -22.3745   -8.0766   21.3670 C   0  0  0  0  0  0  0  0  0  0  0  0
  -24.1348  -24.3474   23.2603 C   0  0  0  0  0  0  0  0  0  0  0  0
  -20.9390   -6.8414   22.7584 C   0  0  0  0  0  0  0  0  0  0  0  0
  -19.4932   -6.6469   25.1362 C   0  0  0  0  0  0  0  0  0  0  0  0
  -21.2090   -5.8087   23.6563 C   0  0  0  0  0  0  0  0  0  0  0  0
  -24.6071  -11.6101   20.7131 C   0  0  0  0  0  0  0  0  0  0  0  0
  -25.2643  -13.7035   20.5686 C   0  0  0  0  0  0  0  0  0  0  0  0
  -25.8204  -22.7425   23.4916 C   0  0  0  0  0  0  0  0  0  1  0  0
  -22.9253  -13.4283   21.4063 C   0  0  0  0  0  0  0  0  0  0  0  0
  -26.4995  -21.6116   23.2441 C   0  0  0  0  0  0  0  0  0  0  0  0
  -27.7320  -21.3417   24.0517 C   0  0  0  0  0  0  0  0  0  0  0  0
  -22.6484  -29.5046   22.4491 C   0  0  0  0  0  0  0  0  0  0  0  0
  -25.2498  -30.4152   24.1597 C   0  0  0  0  0  0  0  0  0  0  0  0
  -28.0405  -29.4992   25.8974 C   0  0  0  0  0  0  0  0  0  0  0  0
  -30.7328  -14.7495   20.6361 C   0  0  0  0  0  0  0  0  0  0  0  0
  -18.2353  -31.5929   20.9588 C   0  0  0  0  0  0  0  0  0  0  0  0
  -22.4116  -28.0852   24.5192 C   0  0  0  0  0  0  0  0  0  0  0  0
  -25.1627  -27.9992   23.4382 C   0  0  0  0  0  0  0  0  0  0  0  0
  -19.6191  -32.1167   21.3346 C   0  0  0  0  0  0  0  0  0  0  0  0
  -29.5518  -12.4497   18.1879 C   0  0  0  0  0  0  0  0  0  0  0  0
  -20.7031  -31.3385   20.5957 C   0  0  0  0  0  0  0  0  0  0  0  0
  -28.1252  -12.1353   18.6442 C   0  0  0  0  0  0  0  0  0  0  0  0
  -30.5010  -12.6225   19.3724 C   0  0  0  0  0  0  0  0  0  0  0  0
  -28.6342  -13.2765   20.8409 C   0  0  0  0  0  0  0  0  0  0  0  0
  -20.6732  -29.8534   20.9768 C   0  0  1  0  0  0  0  0  0  0  0  0
  -23.0620  -29.3084   23.8802 C   0  0  1  0  0  0  0  0  0  0  0  0
  -27.6280  -13.1580   19.6846 C   0  0  2  0  0  0  0  0  0  0  0  0
  -29.2133  -18.9188   25.6334 C   0  0  0  0  0  0  0  0  0  0  0  0
  -29.9893  -30.4677   27.1470 C   0  0  0  0  0  0  0  0  0  0  0  0
  -26.5750  -31.1568   21.5133 C   0  0  0  0  0  0  0  0  0  0  0  0
  -28.7750  -31.2020   22.7076 C   0  0  0  0  0  0  0  0  0  0  0  0
  -26.9660  -32.7873   23.3687 C   0  0  0  0  0  0  0  0  0  0  0  0
  -27.2355  -28.1693   28.4158 C   0  0  0  0  0  0  0  0  0  0  0  0
  -29.5495  -19.6635   24.3430 C   0  0  2  0  0  0  0  0  0  0  0  0
  -26.7436  -30.3384   23.9562 C   0  0  1  0  0  0  0  0  0  0  0  0
  -28.5702  -29.9313   27.2528 C   0  0  2  0  0  0  0  0  0  0  0  0
  -27.2487  -31.3477   22.8868 C   0  0  0  0  0  0  0  0  0  0  0  0
  -25.8594  -11.5367   20.2546 N   0  0  0  0  0  0  0  0  0  0  0  0
  -26.2319  -12.8256   20.1771 N   0  0  0  0  0  0  0  0  0  0  0  0
  -24.5248  -29.2442   23.8970 N   0  0  0  0  0  0  0  0  0  0  0  0
  -29.9670  -13.6091   20.3138 N   0  0  0  0  0  0  0  0  0  0  0  0
  -25.4719  -15.0373   20.5534 N   0  0  0  0  0  0  0  0  0  0  0  0
  -21.9239  -12.5022   21.7285 N   0  0  0  0  0  0  0  0  0  0  0  0
  -30.1088  -15.6332   21.5161 N   0  0  0  0  0  0  0  0  0  0  0  0
  -28.3452  -20.1494   23.7076 N   0  0  0  0  0  0  0  0  0  0  0  0
  -21.2858  -29.6516   22.2723 N   0  0  0  0  0  0  0  0  0  0  0  0
  -27.3447  -30.5133   25.2740 N   0  0  0  0  0  0  0  0  0  0  0  0
  -28.5722  -28.7801   28.1992 N   0  3  0  0  0  0  0  0  0  0  0  0
  -22.6902  -14.6544   21.5292 O   0  0  0  0  0  0  0  0  0  0  0  0
  -28.1278  -22.1148   24.9198 O   0  0  0  0  0  0  0  0  0  0  0  0
  -23.5024  -29.5229   21.5705 O   0  0  0  0  0  0  0  0  0  0  0  0
  -24.7455  -31.4731   24.5447 O   0  0  0  0  0  0  0  0  0  0  0  0
  -28.2286  -28.3756   25.4361 O   0  0  0  0  0  0  0  0  0  0  0  0
  -31.8479  -14.9425   20.1448 O   0  0  0  0  0  0  0  0  0  0  0  0
  -26.1372  -20.6802   22.2959 O   0  0  0  0  0  0  0  0  0  0  0  0
  -21.6564   -6.9398   21.5780 O   0  0  0  0  0  0  0  0  0  0  0  0
  -24.6799  -23.1639   22.8677 O   0  0  0  0  0  0  0  0  0  1  0  0
  -18.7999   -6.5544   26.2786 F   0  0  0  0  0  0  0  0  0  0  0  0
  -22.1625   -4.9077   23.3827 F   0  0  0  0  0  0  0  0  0  0  0  0
  1  2  1  0  0  0  0
  1  6  2  0  0  0  0
  2  7  2  0  0  0  0
  3  9  2  0  0  0  0
  3 10  1  0  0  0  0
  4 11  2  0  0  0  0
  4 19  1  0  0  0  0
  5 12  1  0  0  0  0
  5 19  2  0  0  0  0
  6 21  1  0  0  0  0
  7 23  1  0  0  0  0
  8 13  2  0  0  0  0
  8 22  1  0  0  0  0
  9 25  1  0  0  0  0
 10 26  2  0  0  0  0
 11 27  1  0  0  0  0
 12 27  2  0  0  0  0
 13 28  1  0  0  0  0
 14 15  2  0  0  0  0
 14 29  1  0  0  0  0
 15 30  1  0  0  0  0
 16 24  1  0  0  0  0
 16 28  2  0  0  0  0
 17 25  2  0  0  0  0
 17 26  1  0  0  0  0
 18 30  2  0  0  0  0
 18 31  1  0  0  0  0
 19 32  1  0  0  0  0
 20 32  1  0  0  0  0
 20 33  2  0  0  0  0
 20 35  1  0  0  0  0
 21 23  2  0  0  0  0
 21 42  1  0  0  0  0
 22 24  2  0  0  0  0
 22 43  1  0  0  0  0
 23 51  1  0  0  0  0
 24 44  1  0  0  0  0
 25 60  1  0  0  0  0
 26 70  1  0  0  0  0
 27 82  1  0  0  0  0
 28 83  1  0  0  0  0
 29 31  2  0  0  0  0
 29 82  1  0  0  0  0
 30 84  1  0  0  0  0
 31 85  1  0  0  0  0
 32 64  2  0  0  0  0
 33 65  1  0  0  0  0
 33 68  1  0  0  0  0
 34 36  2  0  0  0  0
 34 83  1  0  0  0  0
 35 69  1  0  0  0  0
 35 75  2  0  0  0  0
 36 37  1  0  0  0  0
 36 81  1  0  0  0  0
 37 71  1  0  0  0  0
 37 76  2  0  0  0  0
 38 52  1  0  0  0  0
 38 72  1  0  0  0  0
 38 77  2  0  0  0  0
 39 61  1  0  0  0  0
 39 66  1  0  0  0  0
 39 78  2  0  0  0  0
 40 62  1  0  0  0  0
 40 73  1  0  0  0  0
 40 79  2  0  0  0  0
 41 67  1  0  0  0  0
 41 70  1  0  0  0  0
 41 80  2  0  0  0  0
 42 45  1  0  0  0  0
 43 52  1  0  0  0  0
 44 66  1  0  0  0  0
 45 47  1  0  0  0  0
 46 48  1  0  0  0  0
 46 49  1  0  0  0  0
 47 51  1  0  0  0  0
 48 53  1  0  0  0  0
 49 67  1  0  0  0  0
 50 53  1  0  0  0  0
 50 67  1  0  0  0  0
 51 72  1  0  0  0  0
 52 66  1  0  0  0  0
 53 65  1  0  0  0  0
 54 60  1  0  0  0  0
 55 62  1  0  0  0  0
 56 63  1  0  0  0  0
 57 63  1  0  0  0  0
 58 63  1  0  0  0  0
 59 74  1  0  0  0  0
 60 71  1  0  0  0  0
 61 63  1  0  0  0  0
 61 73  1  0  0  0  0
 62 74  1  0  0  0  0
 64 65  1  0  0  0  0
M  CHG  1  74   1
M  ISO  4  34 101  41 100  70 100  83 101
M  END
> <Batch ID>
0159

> <Smiles>
CNC(C)C(=O)NC(C(=O)N1Cc2cc([101O:1][101CH2:1]C(=O)C(=O)NC(C)c3cccc([100NH:0][100C:0](=O)N4CCCC(n5nc(-c6ccc(Oc7ccc(F)cc7F)cc6)c(C(N)=O)c5N)C4)c3)ccc2CC1C(=O)NC1CCCc2ccccc21)C(C)(C)C

> <Shape>
0.280

> <Color>
0.210

> <Negative vol penalty>
0.000

$$$$

  -OEChem-04052303473D

 84 92  0     1  0  0  0  0  0999 V2000
  -25.1746  -33.2886   27.3191 C   0  0  0  0  0  0  0  0  0  0  0  0
  -24.9180  -32.0738   26.6916 C   0  0  0  0  0  0  0  0  0  0  0  0
  -24.4226   -9.5105   21.4791 C   0  0  0  0  0  0  0  0  0  0  0  0
  -24.8340  -10.6294   23.5805 C   0  0  0  0  0  0  0  0  0  0  0  0
  -25.9531  -34.2519   26.6788 C   0  0  0  0  0  0  0  0  0  0  0  0
  -25.4389  -31.8220   25.4228 C   0  0  0  0  0  0  0  0  0  0  0  0
  -27.4493  -27.1905   25.0322 C   0  0  0  0  0  0  0  0  0  0  0  0
  -24.1143   -8.3357   22.1649 C   0  0  0  0  0  0  0  0  0  0  0  0
  -24.5256   -9.4546   24.2664 C   0  0  0  0  0  0  0  0  0  0  0  0
  -26.5655  -26.1240   24.8731 C   0  0  0  0  0  0  0  0  0  0  0  0
  -21.4869   -7.0641   23.8715 C   0  0  0  0  0  0  0  0  0  0  0  0
  -20.3550   -6.3558   23.4679 C   0  0  0  0  0  0  0  0  0  0  0  0
  -27.0124  -26.1151   22.5026 C   0  0  0  0  0  0  0  0  0  0  0  0
  -27.6058  -19.7077   21.4018 C   0  0  0  0  0  0  0  0  0  0  0  0
  -30.0045  -19.5969   21.1352 C   0  0  0  0  0  0  0  0  0  0  0  0
  -21.7336   -4.4342   22.9741 C   0  0  0  0  0  0  0  0  0  0  0  0
  -24.7825  -10.6574   22.1869 C   0  0  0  0  0  0  0  0  0  0  0  0
  -24.2124  -12.8971   21.1070 C   0  0  0  0  0  0  0  0  0  0  0  0
  -26.4918  -34.0079   25.4056 C   0  0  0  0  0  0  0  0  0  0  0  0
  -28.1142  -27.7353   23.9242 C   0  0  0  0  0  0  0  0  0  0  0  0
  -26.2242  -32.7834   24.7643 C   0  0  0  0  0  0  0  0  0  0  0  0
  -27.9062  -27.1868   22.6507 C   0  0  0  0  0  0  0  0  0  0  0  0
  -27.7201  -21.0093   21.8898 C   0  0  0  0  0  0  0  0  0  0  0  0
  -28.7480  -19.0014   21.0246 C   0  0  0  0  0  0  0  0  0  0  0  0
  -28.9766  -21.6049   22.0005 C   0  0  0  0  0  0  0  0  0  0  0  0
  -24.1658   -8.3078   23.5586 C   0  0  0  0  0  0  0  0  0  0  0  0
  -26.3447  -25.5881   23.6077 C   0  0  0  0  0  0  0  0  0  0  0  0
  -22.7421   -6.4574   23.8264 C   0  0  0  0  0  0  0  0  0  0  0  0
  -20.4784   -5.0409   23.0192 C   0  0  0  0  0  0  0  0  0  0  0  0
  -30.1188  -20.8987   21.6232 C   0  0  0  0  0  0  0  0  0  0  0  0
  -22.8655   -5.1425   23.3776 C   0  0  0  0  0  0  0  0  0  0  0  0
  -25.1016  -11.8711   21.4790 C   0  0  0  0  0  0  0  0  0  0  0  0
  -25.0015  -13.8185   20.4629 C   0  0  0  0  0  0  0  0  0  0  0  0
  -26.1934  -21.5647   23.4977 C   0  0  0  0  0  0  0  0  0  0  0  0
  -22.7996  -13.0075   21.3243 C   0  0  0  0  0  0  0  0  0  0  0  0
  -28.1637  -30.5844   22.5158 C   0  0  0  0  0  0  0  0  0  0  0  0
  -30.5097  -29.2288   20.7323 C   0  0  0  0  0  0  0  0  0  0  0  0
  -31.9382  -26.3827   19.5052 C   0  0  0  0  0  0  0  0  0  0  0  0
  -29.6653  -16.8400   20.1118 C   0  0  0  0  0  0  0  0  0  0  0  0
  -27.2881  -35.0981   24.7333 C   0  0  0  0  0  0  0  0  0  0  0  0
  -29.0848  -28.8681   24.1165 C   0  0  0  0  0  0  0  0  0  0  0  0
  -28.6107  -27.7223   21.4319 C   0  0  0  0  0  0  0  0  0  0  0  0
  -28.1140  -34.6062   23.5474 C   0  0  0  0  0  0  0  0  0  0  0  0
  -29.7945  -13.5073   18.8653 C   0  0  0  0  0  0  0  0  0  0  0  0
  -27.2715  -33.7100   22.6453 C   0  0  0  0  0  0  0  0  0  0  0  0
  -28.5120  -12.8689   19.4036 C   0  0  0  0  0  0  0  0  0  0  0  0
  -30.4081  -14.4810   19.8698 C   0  0  0  0  0  0  0  0  0  0  0  0
  -28.2103  -14.8751   20.9106 C   0  0  0  0  0  0  0  0  0  0  0  0
  -26.7922  -32.4633   23.3986 C   0  0  1  0  0  0  0  0  0  0  0  0
  -29.3165  -29.6787   22.8450 C   0  0  1  0  0  0  0  0  0  0  0  0
  -27.5204  -13.9355   19.9081 C   0  0  2  0  0  0  0  0  0  0  0  0
  -24.3413  -21.4079   25.1141 C   0  0  0  0  0  0  0  0  0  0  0  0
  -33.8216  -25.5952   18.0458 C   0  0  0  0  0  0  0  0  0  0  0  0
  -28.9351  -30.0616   18.2549 C   0  0  0  0  0  0  0  0  0  0  0  0
  -30.3240  -28.4625   16.9201 C   0  0  0  0  0  0  0  0  0  0  0  0
  -31.4082  -30.3879   18.0776 C   0  0  0  0  0  0  0  0  0  0  0  0
  -33.1820  -24.8732   21.7262 C   0  0  0  0  0  0  0  0  0  0  0  0
  -25.3458  -23.6444   24.5459 C   0  0  0  0  0  0  0  0  0  1  0  0
  -24.9581  -22.2661   24.0166 C   0  0  1  0  0  0  0  0  0  0  0  0
  -30.5542  -28.4407   19.4454 C   0  0  1  0  0  0  0  0  0  0  0  0
  -33.3824  -25.9167   19.4658 C   0  0  2  0  0  0  0  0  0  0  0  0
  -30.2905  -29.3291   18.1970 C   0  0  0  0  0  0  0  0  0  0  0  0
  -26.3593  -12.1170   21.1024 N   0  0  0  0  0  0  0  0  0  0  0  0
  -26.5571  -21.7027   22.2642 N   0  0  0  0  0  0  0  0  0  0  0  0
  -26.2660  -13.3081   20.4869 N   0  0  0  0  0  0  0  0  0  0  0  0
  -29.5452  -28.8346   21.6704 N   0  0  0  0  0  0  0  0  0  0  0  0
  -29.4121  -15.4647   20.2999 N   0  0  0  0  0  0  0  0  0  0  0  0
  -29.1100  -22.9222   22.4929 N   0  0  0  0  0  0  0  0  0  0  0  0
  -24.7301  -15.0074   19.8838 N   0  0  0  0  0  0  0  0  0  0  0  0
  -22.1450  -11.9709   22.0035 N   0  0  0  0  0  0  0  0  0  0  0  0
  -28.6326  -17.6788   20.5295 N   0  0  0  0  0  0  0  0  0  0  0  0
  -27.8635  -31.4966   23.5094 N   0  0  0  0  0  0  0  0  0  0  0  0
  -31.8425  -27.7562   19.4304 N   0  0  0  0  0  0  0  0  0  0  0  0
  -33.5550  -24.6936   20.2995 N   0  3  0  0  0  0  0  0  0  0  0  0
  -22.1343  -13.9884   20.9135 O   0  0  0  0  0  0  0  0  0  0  0  0
  -27.5900  -30.4654   21.4395 O   0  0  0  0  0  0  0  0  0  0  0  0
  -31.3062  -30.1554   20.9018 O   0  0  0  0  0  0  0  0  0  0  0  0
  -30.9897  -25.6057   19.5898 O   0  0  0  0  0  0  0  0  0  0  0  0
  -30.7090  -17.2424   19.5917 O   0  0  0  0  0  0  0  0  0  0  0  0
  -23.8647   -7.1616   24.2281 O   0  0  0  0  0  0  0  0  0  0  0  0
  -25.4820  -24.5476   23.4496 O   0  0  0  0  0  0  0  0  0  1  0  0
  -19.3912   -4.3603   22.6331 F   0  0  0  0  0  0  0  0  0  0  0  0
  -31.3318  -21.4605   21.7261 F   0  0  0  0  0  0  0  0  0  0  0  0
  -24.0686   -4.5539   23.3331 F   0  0  0  0  0  0  0  0  0  0  0  0
  1  2  1  0  0  0  0
  1  5  2  0  0  0  0
  2  6  2  0  0  0  0
  3  8  2  0  0  0  0
  3 17  1  0  0  0  0
  4  9  1  0  0  0  0
  4 17  2  0  0  0  0
  5 19  1  0  0  0  0
  6 21  1  0  0  0  0
  7 10  2  0  0  0  0
  7 20  1  0  0  0  0
  8 26  1  0  0  0  0
  9 26  2  0  0  0  0
 10 27  1  0  0  0  0
 11 12  2  0  0  0  0
 11 28  1  0  0  0  0
 12 29  1  0  0  0  0
 13 22  1  0  0  0  0
 13 27  2  0  0  0  0
 14 23  1  0  0  0  0
 14 24  2  0  0  0  0
 15 24  1  0  0  0  0
 15 30  2  0  0  0  0
 16 29  2  0  0  0  0
 16 31  1  0  0  0  0
 17 32  1  0  0  0  0
 18 32  1  0  0  0  0
 18 33  2  0  0  0  0
 18 35  1  0  0  0  0
 19 21  2  0  0  0  0
 19 40  1  0  0  0  0
 20 22  2  0  0  0  0
 20 41  1  0  0  0  0
 21 49  1  0  0  0  0
 22 42  1  0  0  0  0
 23 25  2  0  0  0  0
 23 64  1  0  0  0  0
 24 71  1  0  0  0  0
 25 30  1  0  0  0  0
 25 68  1  0  0  0  0
 26 80  1  0  0  0  0
 27 81  1  0  0  0  0
 28 31  2  0  0  0  0
 28 80  1  0  0  0  0
 29 82  1  0  0  0  0
 30 83  1  0  0  0  0
 31 84  1  0  0  0  0
 32 63  2  0  0  0  0
 33 65  1  0  0  0  0
 33 69  1  0  0  0  0
 34 59  1  0  0  0  0
 34 64  2  0  0  0  0
 35 70  1  0  0  0  0
 35 75  2  0  0  0  0
 36 50  1  0  0  0  0
 36 72  1  0  0  0  0
 36 76  2  0  0  0  0
 37 60  1  0  0  0  0
 37 66  1  0  0  0  0
 37 77  2  0  0  0  0
 38 61  1  0  0  0  0
 38 73  1  0  0  0  0
 38 78  2  0  0  0  0
 39 67  1  0  0  0  0
 39 71  1  0  0  0  0
 39 79  2  0  0  0  0
 40 43  1  0  0  0  0
 41 50  1  0  0  0  0
 42 66  1  0  0  0  0
 43 45  1  0  0  0  0
 44 46  1  0  0  0  0
 44 47  1  0  0  0  0
 45 49  1  0  0  0  0
 46 51  1  0  0  0  0
 47 67  1  0  0  0  0
 48 51  1  0  0  0  0
 48 67  1  0  0  0  0
 49 72  1  0  0  0  0
 50 66  1  0  0  0  0
 51 65  1  0  0  0  0
 52 59  1  0  0  0  0
 53 61  1  0  0  0  0
 54 62  1  0  0  0  0
 55 62  1  0  0  0  0
 56 62  1  0  0  0  0
 57 74  1  0  0  0  0
 58 59  1  0  0  0  0
 58 81  1  0  0  0  0
 60 62  1  0  0  0  0
 60 73  1  0  0  0  0
 61 74  1  0  0  0  0
 63 65  1  0  0  0  0
M  CHG  1  74   1
M  ISO  4  39 100  58 101  71 100  81 101
M  END
> <Batch ID>
0159

> <Smiles>
CNC(C)C(=O)NC(C(=O)N1Cc2cc([101O:1][101CH2:1]C(C)=CNc3cc([100NH:0][100C:0](=O)N4CCCC(n5nc(-c6ccc(Oc7ccc(F)cc7F)cc6)c(C(N)=O)c5N)C4)cc(F)c3N)ccc2CC1C(=O)NC1CCCc2ccccc21)C(C)(C)C

> <Shape>
0.245

> <Color>
0.111

> <Negative vol penalty>
0.000

$$$$

  -OEChem-04052303473D

 88 96  0     1  0  0  0  0  0999 V2000
  -18.7644  -27.5467   21.8878 C   0  0  0  0  0  0  0  0  0  0  0  0
  -19.9867  -28.1658   22.1287 C   0  0  0  0  0  0  0  0  0  0  0  0
  -25.3165  -16.2987   23.9903 C   0  0  0  0  0  0  0  0  0  0  0  0
  -25.8496  -18.0364   22.3987 C   0  0  0  0  0  0  0  0  0  0  0  0
  -18.6885  -26.1558   21.8284 C   0  0  0  0  0  0  0  0  0  0  0  0
  -21.1338  -27.3942   22.3114 C   0  0  0  0  0  0  0  0  0  0  0  0
  -25.1121  -29.1894   19.7433 C   0  0  0  0  0  0  0  0  0  0  0  0
  -24.9100  -15.4674   22.9466 C   0  0  0  0  0  0  0  0  0  0  0  0
  -25.4433  -17.2051   21.3549 C   0  0  0  0  0  0  0  0  0  0  0  0
  -25.7751  -30.2902   20.2842 C   0  0  0  0  0  0  0  0  0  0  0  0
  -26.3702  -13.5045   20.6126 C   0  0  0  0  0  0  0  0  0  0  0  0
  -26.8033  -12.1788   20.6336 C   0  0  0  0  0  0  0  0  0  0  0  0
  -27.4754  -28.8245   21.1672 C   0  0  0  0  0  0  0  0  0  0  0  0
  -27.4665  -27.8313   25.4656 C   0  0  0  0  0  0  0  0  0  0  0  0
  -25.0840  -28.2160   25.3527 C   0  0  0  0  0  0  0  0  0  0  0  0
  -24.5071  -11.4297   20.6931 C   0  0  0  0  0  0  0  0  0  0  0  0
  -25.7862  -17.5833   23.7163 C   0  0  0  0  0  0  0  0  0  0  0  0
  -27.4976  -18.5492   25.3429 C   0  0  0  0  0  0  0  0  0  0  0  0
  -19.8369  -25.3671   22.0009 C   0  0  0  0  0  0  0  0  0  0  0  0
  -25.6209  -27.8947   19.9199 C   0  0  0  0  0  0  0  0  0  0  0  0
  -21.0729  -25.9914   22.2556 C   0  0  0  0  0  0  0  0  0  0  0  0
  -26.8184  -27.7092   20.6253 C   0  0  0  0  0  0  0  0  0  0  0  0
  -27.2362  -26.5570   25.9841 C   0  0  0  0  0  0  0  0  0  0  0  0
  -26.3904  -28.6608   25.1500 C   0  0  0  0  0  0  0  0  0  0  0  0
  -25.9298  -26.1122   26.1868 C   0  0  0  0  0  0  0  0  0  0  0  0
  -24.9735  -15.9206   21.6289 C   0  0  0  0  0  0  0  0  0  0  0  0
  -26.9554  -30.1075   20.9988 C   0  0  0  0  0  0  0  0  0  0  0  0
  -25.0056  -13.7929   20.6319 C   0  0  0  0  0  0  0  0  0  0  0  0
  -25.8717  -11.1413   20.6738 C   0  0  0  0  0  0  0  0  0  0  0  0
  -24.8536  -26.9417   25.8712 C   0  0  0  0  0  0  0  0  0  0  0  0
  -24.0740  -12.7554   20.6721 C   0  0  0  0  0  0  0  0  0  0  0  0
  -26.2056  -18.4427   24.7941 C   0  0  0  0  0  0  0  0  0  0  0  0
  -27.3738  -19.4942   26.3319 C   0  0  0  0  0  0  0  0  0  0  0  0
  -28.7021  -17.8560   24.9902 C   0  0  0  0  0  0  0  0  0  0  0  0
  -24.5687  -25.2430   21.3217 C   0  0  0  0  0  0  0  0  0  0  0  0
  -27.2470  -23.9572   20.0194 C   0  0  0  0  0  0  0  0  0  0  0  0
  -27.8538  -30.5530   24.3610 C   0  0  0  0  0  0  0  0  0  0  0  0
  -30.3987  -24.4439   18.8041 C   0  0  0  0  0  0  0  0  0  0  0  0
  -24.5922  -24.4218   27.4905 C   0  0  0  0  0  0  0  0  0  0  0  0
  -19.6970  -23.8656   21.9750 C   0  0  0  0  0  0  0  0  0  0  0  0
  -24.9080  -26.7204   19.3072 C   0  0  0  0  0  0  0  0  0  0  0  0
  -27.4171  -26.3418   20.8258 C   0  0  0  0  0  0  0  0  0  0  0  0
  -21.0256  -23.1329   21.8069 C   0  0  0  0  0  0  0  0  0  0  0  0
  -23.5938  -21.3291   28.9450 C   0  0  0  0  0  0  0  0  0  0  0  0
  -22.0775  -23.7122   22.7475 C   0  0  0  0  0  0  0  0  0  0  0  0
  -24.2912  -20.2786   28.0776 C   0  0  0  0  0  0  0  0  0  0  0  0
  -23.1181  -22.5223   28.1182 C   0  0  0  0  0  0  0  0  0  0  0  0
  -24.8474  -22.0992   26.4153 C   0  0  0  0  0  0  0  0  0  0  0  0
  -22.3438  -25.1896   22.4343 C   0  0  1  0  0  0  0  0  0  0  0  0
  -25.2429  -25.3967   19.9877 C   0  0  1  0  0  0  0  0  0  0  0  0
  -25.4017  -20.9081   27.2139 C   0  0  2  0  0  0  0  0  0  0  0  0
  -32.3551  -23.1975   17.8469 C   0  0  0  0  0  0  0  0  0  0  0  0
  -26.7575  -33.3851   21.9299 C   0  0  0  0  0  0  0  0  0  0  0  0
  -27.9756  -22.9625   22.8103 C   0  0  0  0  0  0  0  0  0  0  0  0
  -30.3110  -22.5856   21.9905 C   0  0  0  0  0  0  0  0  0  0  0  0
  -28.4147  -21.3251   20.9716 C   0  0  0  0  0  0  0  0  0  0  0  0
  -30.2465  -25.9329   16.2510 C   0  0  0  0  0  0  0  0  0  0  0  0
  -27.6532  -31.9573   23.7996 C   0  0  0  0  0  0  0  0  0  0  0  0
  -28.6787  -23.7885   20.4674 C   0  0  1  0  0  0  0  0  0  0  0  0
  -31.0753  -23.9574   17.5352 C   0  0  2  0  0  0  0  0  0  0  0  0
  -26.8873  -31.9696   22.4766 C   0  0  2  0  0  0  0  0  0  1  0  0
  -28.4082  -25.6905   26.3143 C   0  0  0  0  0  0  0  0  0  0  0  0
  -28.8330  -22.6911   21.5580 C   0  0  0  0  0  0  0  0  0  0  0  0
  -25.3256  -19.2551   25.3855 N   0  0  0  0  0  0  0  0  0  0  0  0
  -26.0660  -19.8810   26.3162 N   0  0  0  0  0  0  0  0  0  0  0  0
  -26.6795  -25.2246   20.2130 N   0  0  0  0  0  0  0  0  0  0  0  0
  -24.2242  -23.0692   27.3294 N   0  0  0  0  0  0  0  0  0  0  0  0
  -28.2570  -20.0237   27.2047 N   0  0  0  0  0  0  0  0  0  0  0  0
  -28.6528  -16.9176   23.9503 N   0  0  0  0  0  0  0  0  0  0  0  0
  -26.6249  -29.9540   24.6251 N   0  0  0  0  0  0  0  0  0  0  0  0
  -25.6783  -24.8205   26.7121 N   0  0  0  0  0  0  0  0  0  0  0  0
  -23.1898  -25.3142   21.2667 N   0  0  0  0  0  0  0  0  0  0  0  0
  -29.4584  -23.5437   19.2589 N   0  0  0  0  0  0  0  0  0  0  0  0
  -31.4160  -25.1108   16.6551 N   0  3  0  0  0  0  0  0  0  0  0  0
  -29.7861  -18.0506   25.5906 O   0  0  0  0  0  0  0  0  0  0  0  0
  -25.2491  -25.0709   22.3263 O   0  0  0  0  0  0  0  0  0  0  0  0
  -26.6563  -23.0018   19.5096 O   0  0  0  0  0  0  0  0  0  0  0  0
  -28.9684  -30.0712   24.5336 O   0  0  0  0  0  0  0  0  0  0  0  0
  -30.6791  -25.5136   19.3404 O   0  0  0  0  0  0  0  0  0  0  0  0
  -24.0056  -25.1640   28.2824 O   0  0  0  0  0  0  0  0  0  0  0  0
  -24.5772  -15.1096   20.6102 O   0  0  0  0  0  0  0  0  0  0  0  0
  -27.6042  -31.1801   21.5284 O   0  0  0  0  0  0  0  0  0  1  0  0
  -26.2877   -9.8682   20.6925 F   0  0  0  0  0  0  0  0  0  0  0  0
  -23.5936  -26.5254   26.0618 F   0  0  0  0  0  0  0  0  0  0  0  0
  -22.7617  -13.0262   20.6896 F   0  0  0  0  0  0  0  0  0  0  0  0
  -29.6114  -26.2804   26.0558 F   0  0  0  0  0  0  0  0  0  0  0  0
  -28.4621  -25.3265   27.6284 F   0  0  0  0  0  0  0  0  0  0  0  0
  -28.4102  -24.5239   25.6080 F   0  0  0  0  0  0  0  0  0  0  0  0
  1  2  1  0  0  0  0
  1  5  2  0  0  0  0
  2  6  2  0  0  0  0
  3  8  2  0  0  0  0
  3 17  1  0  0  0  0
  4  9  1  0  0  0  0
  4 17  2  0  0  0  0
  5 19  1  0  0  0  0
  6 21  1  0  0  0  0
  7 10  2  0  0  0  0
  7 20  1  0  0  0  0
  8 26  1  0  0  0  0
  9 26  2  0  0  0  0
 10 27  1  0  0  0  0
 11 12  2  0  0  0  0
 11 28  1  0  0  0  0
 12 29  1  0  0  0  0
 13 22  1  0  0  0  0
 13 27  2  0  0  0  0
 14 23  1  0  0  0  0
 14 24  2  0  0  0  0
 15 24  1  0  0  0  0
 15 30  2  0  0  0  0
 16 29  2  0  0  0  0
 16 31  1  0  0  0  0
 17 32  1  0  0  0  0
 18 32  1  0  0  0  0
 18 33  2  0  0  0  0
 18 34  1  0  0  0  0
 19 21  2  0  0  0  0
 19 40  1  0  0  0  0
 20 22  2  0  0  0  0
 20 41  1  0  0  0  0
 21 49  1  0  0  0  0
 22 42  1  0  0  0  0
 23 25  2  0  0  0  0
 23 62  1  0  0  0  0
 24 70  1  0  0  0  0
 25 30  1  0  0  0  0
 25 71  1  0  0  0  0
 26 81  1  0  0  0  0
 27 82  1  0  0  0  0
 28 31  2  0  0  0  0
 28 81  1  0  0  0  0
 29 83  1  0  0  0  0
 30 84  1  0  0  0  0
 31 85  1  0  0  0  0
 32 64  2  0  0  0  0
 33 65  1  0  0  0  0
 33 68  1  0  0  0  0
 34 69  1  0  0  0  0
 34 75  2  0  0  0  0
 35 50  1  0  0  0  0
 35 72  1  0  0  0  0
 35 76  2  0  0  0  0
 36 59  1  0  0  0  0
 36 66  1  0  0  0  0
 36 77  2  0  0  0  0
 37 58  1  0  0  0  0
 37 70  1  0  0  0  0
 37 78  2  0  0  0  0
 38 60  1  0  0  0  0
 38 73  1  0  0  0  0
 38 79  2  0  0  0  0
 39 67  1  0  0  0  0
 39 71  1  0  0  0  0
 39 80  2  0  0  0  0
 40 43  1  0  0  0  0
 41 50  1  0  0  0  0
 42 66  1  0  0  0  0
 43 45  1  0  0  0  0
 44 46  1  0  0  0  0
 44 47  1  0  0  0  0
 45 49  1  0  0  0  0
 46 51  1  0  0  0  0
 47 67  1  0  0  0  0
 48 51  1  0  0  0  0
 48 67  1  0  0  0  0
 49 72  1  0  0  0  0
 50 66  1  0  0  0  0
 51 65  1  0  0  0  0
 52 60  1  0  0  0  0
 53 61  1  0  0  0  0
 54 63  1  0  0  0  0
 55 63  1  0  0  0  0
 56 63  1  0  0  0  0
 57 74  1  0  0  0  0
 58 61  1  0  0  0  0
 59 63  1  0  0  0  0
 59 73  1  0  0  0  0
 60 74  1  0  0  0  0
 61 82  1  0  0  0  0
 62 86  1  0  0  0  0
 62 87  1  0  0  0  0
 62 88  1  0  0  0  0
 64 65  1  0  0  0  0
M  CHG  1  74   1
M  ISO  4  39 100  61 101  71 100  82 101
M  END
> <Batch ID>
0159

> <Smiles>
CNC(C)C(=O)NC(C(=O)N1Cc2cc([101O:1][101CH:1](C)CC(=O)Nc3cc(F)c([100NH:0][100C:0](=O)N4CCCC(n5nc(-c6ccc(Oc7ccc(F)cc7F)cc6)c(C(N)=O)c5N)C4)c(C(F)(F)F)c3)ccc2CC1C(=O)NC1CCCc2ccccc21)C(C)(C)C

> <Shape>
0.203

> <Color>
0.060

> <Negative vol penalty>
0.000

$$$$

  -OEChem-04052303473D

 89 98  0     1  0  0  0  0  0999 V2000
  -16.4614  -28.9833   23.0546 C   0  0  0  0  0  0  0  0  0  0  0  0
  -17.3905  -29.3508   22.0865 C   0  0  0  0  0  0  0  0  0  0  0  0
  -23.8899  -14.0818   22.1306 C   0  0  0  0  0  0  0  0  0  0  0  0
  -26.0068  -14.3605   21.0001 C   0  0  0  0  0  0  0  0  0  0  0  0
  -16.7491  -29.1784   24.4048 C   0  0  0  0  0  0  0  0  0  0  0  0
  -18.6074  -29.9146   22.4681 C   0  0  0  0  0  0  0  0  0  0  0  0
  -24.8573  -26.8375   20.6346 C   0  0  0  0  0  0  0  0  0  0  0  0
  -23.6353  -12.9392   21.3723 C   0  0  0  0  0  0  0  0  0  0  0  0
  -25.7522  -13.2178   20.2417 C   0  0  0  0  0  0  0  0  0  0  0  0
  -26.0963  -26.4246   20.1443 C   0  0  0  0  0  0  0  0  0  0  0  0
  -24.5733   -9.6907   21.3704 C   0  0  0  0  0  0  0  0  0  0  0  0
  -24.0813   -8.5676   22.0355 C   0  0  0  0  0  0  0  0  0  0  0  0
  -33.0098  -21.2272   19.2683 C   0  0  0  0  0  0  0  0  0  0  0  0
  -30.7849  -22.0618   19.7042 C   0  0  0  0  0  0  0  0  0  0  0  0
  -27.1924  -28.1613   21.4212 C   0  0  0  0  0  0  0  0  0  0  0  0
  -31.5448  -20.0327   20.7730 C   0  0  0  0  0  0  0  0  0  0  0  0
  -22.0993   -8.6183   20.6548 C   0  0  0  0  0  0  0  0  0  0  0  0
  -25.0757  -14.7926   21.9445 C   0  0  0  0  0  0  0  0  0  0  0  0
  -32.0148  -22.1817   19.0573 C   0  0  0  0  0  0  0  0  0  0  0  0
  -25.4362  -16.0598   24.1290 C   0  0  0  0  0  0  0  0  0  0  0  0
  -17.9741  -29.7360   24.8036 C   0  0  0  0  0  0  0  0  0  0  0  0
  -24.7825  -27.9054   21.5332 C   0  0  0  0  0  0  0  0  0  0  0  0
  -18.9112  -30.1186   23.8249 C   0  0  0  0  0  0  0  0  0  0  0  0
  -25.9553  -28.5713   21.9254 C   0  0  0  0  0  0  0  0  0  0  0  0
  -32.7747  -20.1526   20.1261 C   0  0  0  0  0  0  0  0  0  0  0  0
  -30.5498  -20.9872   20.5620 C   0  0  0  0  0  0  0  0  0  0  0  0
  -24.5665  -12.5072   20.4278 C   0  0  0  0  0  0  0  0  0  0  0  0
  -27.2609  -27.0850   20.5364 C   0  0  0  0  0  0  0  0  0  0  0  0
  -23.8283  -10.2776   20.3476 C   0  0  0  0  0  0  0  0  0  0  0  0
  -22.8443   -8.0314   21.6776 C   0  0  0  0  0  0  0  0  0  0  0  0
  -22.5913   -9.7414   19.9898 C   0  0  0  0  0  0  0  0  0  0  0  0
  -25.3390  -15.9733   22.7272 C   0  0  0  0  0  0  0  0  0  0  0  0
  -25.6954  -17.3862   24.3739 C   0  0  0  0  0  0  0  0  0  0  0  0
  -32.2629  -23.3171   18.1509 C   0  0  0  0  0  0  0  0  0  0  0  0
  -25.3040  -15.0330   25.1209 C   0  0  0  0  0  0  0  0  0  0  0  0
  -22.6023  -30.0991   23.6569 C   0  0  0  0  0  0  0  0  0  0  0  0
  -25.1219  -29.4909   25.2977 C   0  0  0  0  0  0  0  0  0  0  0  0
  -27.3944  -28.8988   27.7720 C   0  0  0  0  0  0  0  0  0  0  0  0
  -28.2062  -21.7236   21.1201 C   0  0  0  0  0  0  0  0  0  0  0  0
  -18.2207  -29.9712   26.2728 C   0  0  0  0  0  0  0  0  0  0  0  0
  -23.4637  -28.4235   22.0392 C   0  0  0  0  0  0  0  0  0  0  0  0
  -25.8234  -29.7371   22.8671 C   0  0  0  0  0  0  0  0  0  0  0  0
  -19.6868  -30.2292   26.6107 C   0  0  0  0  0  0  0  0  0  0  0  0
  -24.9439  -21.7484   22.5463 C   0  0  0  0  0  0  0  0  0  0  0  0
  -20.2888  -31.2395   25.6392 C   0  0  0  0  0  0  0  0  0  0  0  0
  -24.6863  -20.2790   22.8877 C   0  0  0  0  0  0  0  0  0  0  0  0
  -30.5861  -26.3750   18.4052 C   0  0  0  0  0  0  0  0  0  0  0  0
  -31.3367  -25.5502   20.6753 C   0  0  0  0  0  0  0  0  0  0  0  0
  -25.7306  -21.8990   21.2454 C   0  0  0  0  0  0  0  0  0  0  0  0
  -31.7819  -25.6786   17.7610 C   0  0  0  0  0  0  0  0  0  0  0  0
  -32.5316  -24.8588   20.0247 C   0  0  0  0  0  0  0  0  0  0  0  0
  -26.7231  -19.6616   21.5249 C   0  0  0  0  0  0  0  0  0  0  0  0
  -20.2524  -30.7104   24.2003 C   0  0  1  0  0  0  0  0  0  0  0  0
  -23.5321  -28.9333   23.4899 C   0  0  1  0  0  0  0  0  0  0  0  0
  -25.9900  -19.4573   22.8607 C   0  0  2  0  0  0  0  0  0  0  0  0
  -30.8658  -26.7717   19.8653 C   0  0  0  0  0  0  0  0  0  0  0  0
  -28.3302  -29.9088   29.8700 C   0  0  0  0  0  0  0  0  0  0  0  0
  -26.7570  -31.4465   23.6225 C   0  0  0  0  0  0  0  0  0  0  0  0
  -28.2955  -31.7250   25.5779 C   0  0  0  0  0  0  0  0  0  0  0  0
  -25.8973  -32.3826   25.7764 C   0  0  0  0  0  0  0  0  0  0  0  0
  -26.4817  -26.6142   29.4172 C   0  0  0  0  0  0  0  0  0  0  0  0
  -32.2079  -28.1768   21.1872 C   0  0  0  0  0  0  0  0  0  0  0  0
  -29.6192  -27.3923   20.4980 C   0  0  0  0  0  0  0  0  0  1  0  0
  -26.5077  -29.9304   25.6974 C   0  0  1  0  0  0  0  0  0  0  0  0
  -27.2811  -28.9768   29.2838 C   0  0  2  0  0  0  0  0  0  0  0  0
  -26.8596  -31.3454   25.1575 C   0  0  0  0  0  0  0  0  0  0  0  0
  -25.5215  -17.1509   22.1240 N   0  0  0  0  0  0  0  0  0  0  0  0
  -25.7359  -17.9900   23.1517 N   0  0  0  0  0  0  0  0  0  0  0  0
  -32.1923  -24.5543   18.6223 N   0  0  0  0  0  0  0  0  0  0  0  0
  -24.8519  -29.4204   23.9256 N   0  0  0  0  0  0  0  0  0  0  0  0
  -26.9545  -21.0961   21.2941 N   0  0  0  0  0  0  0  0  0  0  0  0
  -33.7806  -19.1871   20.3389 N   0  0  0  0  0  0  0  0  0  0  0  0
  -25.8904  -18.0832   25.5135 N   0  0  0  0  0  0  0  0  0  0  0  0
  -25.0377  -13.7242   24.6963 N   0  0  0  0  0  0  0  0  0  0  0  0
  -29.3004  -20.8649   21.2191 N   0  0  0  0  0  0  0  0  0  0  0  0
  -21.3091  -29.7441   23.9903 N   0  0  0  0  0  0  0  0  0  0  0  0
  -26.5701  -29.8127   27.1502 N   0  0  0  0  0  0  0  0  0  0  0  0
  -32.5555  -23.0828   16.8751 N   0  3  0  0  0  0  0  0  0  0  0  0
  -27.4624  -27.6263   29.8873 N   0  3  0  0  0  0  0  0  0  0  0  0
  -25.4023  -15.2722   26.3483 O   0  0  0  0  0  0  0  0  0  0  0  0
  -23.0261  -31.2377   23.4969 O   0  0  0  0  0  0  0  0  0  0  0  0
  -24.2975  -29.2224   26.1760 O   0  0  0  0  0  0  0  0  0  0  0  0
  -28.1423  -28.1089   27.2000 O   0  0  0  0  0  0  0  0  0  0  0  0
  -28.3019  -22.9383   20.9265 O   0  0  0  0  0  0  0  0  0  0  0  0
  -24.3184  -11.3921   19.6878 O   0  0  0  0  0  0  0  0  0  0  0  0
  -28.4677  -26.6739   20.0574 O   0  0  0  0  0  0  0  0  0  1  0  0
  -31.8970  -27.7624   19.8672 O   0  0  0  0  0  0  0  0  0  0  0  0
  -22.3727   -6.9520   22.3153 F   0  0  0  0  0  0  0  0  0  0  0  0
  -21.8716  -10.3002   19.0072 F   0  0  0  0  0  0  0  0  0  0  0  0
  1  2  1  0  0  0  0
  1  5  2  0  0  0  0
  2  6  2  0  0  0  0
  3  8  2  0  0  0  0
  3 18  1  0  0  0  0
  4  9  1  0  0  0  0
  4 18  2  0  0  0  0
  5 21  1  0  0  0  0
  6 23  1  0  0  0  0
  7 10  2  0  0  0  0
  7 22  1  0  0  0  0
  8 27  1  0  0  0  0
  9 27  2  0  0  0  0
 10 28  1  0  0  0  0
 11 12  2  0  0  0  0
 11 29  1  0  0  0  0
 12 30  1  0  0  0  0
 13 19  1  0  0  0  0
 13 25  2  0  0  0  0
 14 19  2  0  0  0  0
 14 26  1  0  0  0  0
 15 24  1  0  0  0  0
 15 28  2  0  0  0  0
 16 25  1  0  0  0  0
 16 26  2  0  0  0  0
 17 30  2  0  0  0  0
 17 31  1  0  0  0  0
 18 32  1  0  0  0  0
 19 34  1  0  0  0  0
 20 32  1  0  0  0  0
 20 33  2  0  0  0  0
 20 35  1  0  0  0  0
 21 23  2  0  0  0  0
 21 40  1  0  0  0  0
 22 24  2  0  0  0  0
 22 41  1  0  0  0  0
 23 53  1  0  0  0  0
 24 42  1  0  0  0  0
 25 72  1  0  0  0  0
 26 75  1  0  0  0  0
 27 85  1  0  0  0  0
 28 86  1  0  0  0  0
 29 31  2  0  0  0  0
 29 85  1  0  0  0  0
 30 88  1  0  0  0  0
 31 89  1  0  0  0  0
 32 67  2  0  0  0  0
 33 68  1  0  0  0  0
 33 73  1  0  0  0  0
 34 69  1  0  0  0  0
 34 78  2  0  0  0  0
 35 74  1  0  0  0  0
 35 80  2  0  0  0  0
 36 54  1  0  0  0  0
 36 76  1  0  0  0  0
 36 81  2  0  0  0  0
 37 64  1  0  0  0  0
 37 70  1  0  0  0  0
 37 82  2  0  0  0  0
 38 65  1  0  0  0  0
 38 77  1  0  0  0  0
 38 83  2  0  0  0  0
 39 71  1  0  0  0  0
 39 75  1  0  0  0  0
 39 84  2  0  0  0  0
 40 43  1  0  0  0  0
 41 54  1  0  0  0  0
 42 70  1  0  0  0  0
 43 45  1  0  0  0  0
 44 46  1  0  0  0  0
 44 49  1  0  0  0  0
 45 53  1  0  0  0  0
 46 55  1  0  0  0  0
 47 50  1  0  0  0  0
 47 56  1  0  0  0  0
 48 51  1  0  0  0  0
 48 56  1  0  0  0  0
 49 71  1  0  0  0  0
 50 69  1  0  0  0  0
 51 69  1  0  0  0  0
 52 55  1  0  0  0  0
 52 71  1  0  0  0  0
 53 76  1  0  0  0  0
 54 70  1  0  0  0  0
 55 68  1  0  0  0  0
 56 63  1  0  0  0  0
 56 87  1  0  0  0  0
 57 65  1  0  0  0  0
 58 66  1  0  0  0  0
 59 66  1  0  0  0  0
 60 66  1  0  0  0  0
 61 79  1  0  0  0  0
 62 87  1  0  0  0  0
 63 86  1  0  0  0  0
 64 66  1  0  0  0  0
 64 77  1  0  0  0  0
 65 79  1  0  0  0  0
 67 68  1  0  0  0  0
M  CHG  2  78   1  79   1
M  ISO  4  39 100  63 101  75 100  86 101
M  END
> <Batch ID>
0159

> <Smiles>
CNC(C)C(=O)NC(C(=O)N1Cc2cc([101O:1][101CH2:1]C3(OC)CCN(C(=N)c4cc(N)cc([100NH:0][100C:0](=O)N5CCCC(n6nc(-c7ccc(Oc8ccc(F)cc8F)cc7)c(C(N)=O)c6N)C5)c4)CC3)ccc2CC1C(=O)NC1CCCc2ccccc21)C(C)(C)C

> <Shape>
0.253

> <Color>
0.082

> <Negative vol penalty>
0.000

$$$$

  -OEChem-04052303473D

 86 95  0     1  0  0  0  0  0999 V2000
  -18.0794  -24.7855   24.0960 C   0  0  0  0  0  0  0  0  0  0  0  0
  -19.4266  -24.5979   23.8040 C   0  0  0  0  0  0  0  0  0  0  0  0
  -23.2162   -9.7167   21.1792 C   0  0  0  0  0  0  0  0  0  0  0  0
  -23.8905  -10.5227   23.3547 C   0  0  0  0  0  0  0  0  0  0  0  0
  -17.4713  -26.0093   23.8197 C   0  0  0  0  0  0  0  0  0  0  0  0
  -20.1663  -25.6337   23.2344 C   0  0  0  0  0  0  0  0  0  0  0  0
  -24.6967  -26.2163   25.4209 C   0  0  0  0  0  0  0  0  0  0  0  0
  -22.5148   -8.6732   21.7831 C   0  0  0  0  0  0  0  0  0  0  0  0
  -23.1891   -9.4792   23.9587 C   0  0  0  0  0  0  0  0  0  0  0  0
  -25.6975  -25.3143   25.0623 C   0  0  0  0  0  0  0  0  0  0  0  0
  -23.2207   -5.6735   23.1716 C   0  0  0  0  0  0  0  0  0  0  0  0
  -23.3669   -4.3965   22.6299 C   0  0  0  0  0  0  0  0  0  0  0  0
  -26.6260  -26.9529   23.5550 C   0  0  0  0  0  0  0  0  0  0  0  0
  -20.9919   -4.3089   22.1954 C   0  0  0  0  0  0  0  0  0  0  0  0
  -31.4978  -18.0550   20.4833 C   0  0  0  0  0  0  0  0  0  0  0  0
  -23.9041  -10.6414   21.9650 C   0  0  0  0  0  0  0  0  0  0  0  0
  -24.1393  -12.9991   21.0196 C   0  0  0  0  0  0  0  0  0  0  0  0
  -18.2062  -27.0639   23.2553 C   0  0  0  0  0  0  0  0  0  0  0  0
  -24.6466  -27.4917   24.8401 C   0  0  0  0  0  0  0  0  0  0  0  0
  -19.5671  -26.8724   22.9490 C   0  0  0  0  0  0  0  0  0  0  0  0
  -25.6251  -27.8702   23.9098 C   0  0  0  0  0  0  0  0  0  0  0  0
  -22.5012   -8.5544   23.1729 C   0  0  0  0  0  0  0  0  0  0  0  0
  -26.6606  -25.6815   24.1272 C   0  0  0  0  0  0  0  0  0  0  0  0
  -21.9601   -6.2682   23.2252 C   0  0  0  0  0  0  0  0  0  0  0  0
  -22.2525   -3.7142   22.1418 C   0  0  0  0  0  0  0  0  0  0  0  0
  -20.8457   -5.5860   22.7371 C   0  0  0  0  0  0  0  0  0  0  0  0
  -24.6292  -11.7192   21.3417 C   0  0  0  0  0  0  0  0  0  0  0  0
  -25.2102  -13.6434   20.4499 C   0  0  0  0  0  0  0  0  0  0  0  0
  -30.3313  -17.4350   20.8567 C   0  0  0  0  0  0  0  0  0  0  0  0
  -30.2026  -19.5392   21.2199 C   0  0  0  0  0  0  0  0  0  0  0  0
  -28.2228  -22.8732   20.9099 C   0  0  0  0  0  0  0  0  0  0  0  0
  -28.6523  -23.5633   21.9863 C   0  0  0  0  0  0  0  0  0  0  0  0
  -22.8330  -13.5558   21.2178 C   0  0  0  0  0  0  0  0  0  0  0  0
  -27.2019  -23.4042   19.9922 C   0  0  0  0  0  0  0  0  0  0  0  0
  -22.5494  -29.0522   23.0317 C   0  0  0  0  0  0  0  0  0  0  0  0
  -24.5969  -31.5285   23.4765 C   0  0  0  0  0  0  0  0  0  0  0  0
  -27.7645  -32.5754   24.1956 C   0  0  0  0  0  0  0  0  0  0  0  0
  -30.6154  -14.9783   20.3769 C   0  0  0  0  0  0  0  0  0  0  0  0
  -17.4938  -28.3530   22.9309 C   0  0  0  0  0  0  0  0  0  0  0  0
  -23.5763  -28.4626   25.2575 C   0  0  0  0  0  0  0  0  0  0  0  0
  -25.6276  -29.2347   23.2723 C   0  0  0  0  0  0  0  0  0  0  0  0
  -28.7454  -21.5028   20.5447 C   0  0  0  0  0  0  0  0  0  0  0  0
  -29.7367  -22.9904   22.8680 C   0  0  0  0  0  0  0  0  0  0  0  0
  -18.4395  -29.5232   22.6728 C   0  0  0  0  0  0  0  0  0  0  0  0
  -29.6951  -11.8611   18.9232 C   0  0  0  0  0  0  0  0  0  0  0  0
  -19.5664  -29.1021   21.7350 C   0  0  0  0  0  0  0  0  0  0  0  0
  -28.2548  -11.6516   19.3963 C   0  0  0  0  0  0  0  0  0  0  0  0
  -30.5547  -12.5230   19.9987 C   0  0  0  0  0  0  0  0  0  0  0  0
  -28.5686  -13.5607   21.0223 C   0  0  0  0  0  0  0  0  0  0  0  0
  -20.4089  -27.9801   22.3538 C   0  0  1  0  0  0  0  0  0  0  0  0
  -29.5094  -20.8023   21.6817 C   0  0  2  0  0  0  0  0  0  0  0  0
  -23.3205  -29.5520   24.2205 C   0  0  1  0  0  0  0  0  0  0  0  0
  -27.6480  -12.9559   19.9497 C   0  0  2  0  0  0  0  0  0  0  0  0
  -27.5824  -23.5874   18.5480 C   0  0  0  0  0  0  0  0  0  0  0  0
  -29.1408  -34.6584   24.4496 C   0  0  0  0  0  0  0  0  0  0  0  0
  -24.6852  -31.8372   20.4422 C   0  0  0  0  0  0  0  0  0  0  0  0
  -26.7391  -33.2426   20.7147 C   0  0  0  0  0  0  0  0  0  0  0  0
  -24.5767  -33.9918   21.7072 C   0  0  0  0  0  0  0  0  0  0  0  0
  -28.3819  -31.9619   27.0243 C   0  0  0  0  0  0  0  0  0  0  0  0
  -28.1587  -24.9069   22.4503 C   0  0  0  0  0  0  0  0  0  1  0  0
  -25.8147  -32.0518   22.7539 C   0  0  1  0  0  0  0  0  0  0  0  0
  -28.2836  -33.6242   25.1626 C   0  0  2  0  0  0  0  0  0  0  0  0
  -25.4530  -32.7544   21.4149 C   0  0  0  0  0  0  0  0  0  0  0  0
  -31.4092  -19.4033   20.7182 N   0  0  0  0  0  0  0  0  0  0  0  0
  -25.9116  -11.5581   21.0044 N   0  0  0  0  0  0  0  0  0  0  0  0
  -26.2364  -12.7452   20.4645 N   0  0  0  0  0  0  0  0  0  0  0  0
  -24.5569  -30.1463   23.7083 N   0  0  0  0  0  0  0  0  0  0  0  0
  -29.9194  -13.7546   20.4724 N   0  0  0  0  0  0  0  0  0  0  0  0
  -25.3647  -14.8849   19.9429 N   0  0  0  0  0  0  0  0  0  0  0  0
  -21.8501  -12.7567   21.8176 N   0  0  0  0  0  0  0  0  0  0  0  0
  -29.8986  -16.0860   20.8284 N   0  0  0  0  0  0  0  0  0  0  0  0
  -21.3149  -28.5171   23.3464 N   0  0  0  0  0  0  0  0  0  0  0  0
  -26.5186  -32.9049   23.7052 N   0  0  0  0  0  0  0  0  0  0  0  0
  -30.4505  -21.8077   22.2869 N   0  3  0  0  0  0  0  0  0  0  0  0
  -29.1071  -32.9846   26.2274 N   0  3  0  0  0  0  0  0  0  0  0  0
  -22.5412  -14.7216   20.8582 O   0  0  0  0  0  0  0  0  0  0  0  0
  -26.0810  -23.6911   20.4087 O   0  0  0  0  0  0  0  0  0  0  0  0
  -23.0376  -29.1465   21.9117 O   0  0  0  0  0  0  0  0  0  0  0  0
  -23.7170  -32.3181   23.8287 O   0  0  0  0  0  0  0  0  0  0  0  0
  -28.4022  -31.5667   23.9017 O   0  0  0  0  0  0  0  0  0  0  0  0
  -31.7524  -15.0428   19.9025 O   0  0  0  0  0  0  0  0  0  0  0  0
  -29.4846  -18.3885   21.3358 O   0  0  0  0  0  0  0  0  0  0  0  0
  -21.8167   -7.5365   23.7626 O   0  0  0  0  0  0  0  0  0  0  0  0
  -27.6382  -24.8027   23.7749 O   0  0  0  0  0  0  0  0  0  1  0  0
  -22.3933   -2.4885   21.6203 F   0  0  0  0  0  0  0  0  0  0  0  0
  -19.6323   -6.1527   22.7848 F   0  0  0  0  0  0  0  0  0  0  0  0
  1  2  1  0  0  0  0
  1  5  2  0  0  0  0
  2  6  2  0  0  0  0
  3  8  2  0  0  0  0
  3 16  1  0  0  0  0
  4  9  1  0  0  0  0
  4 16  2  0  0  0  0
  5 18  1  0  0  0  0
  6 20  1  0  0  0  0
  7 10  2  0  0  0  0
  7 19  1  0  0  0  0
  8 22  1  0  0  0  0
  9 22  2  0  0  0  0
 10 23  1  0  0  0  0
 11 12  2  0  0  0  0
 11 24  1  0  0  0  0
 12 25  1  0  0  0  0
 13 21  1  0  0  0  0
 13 23  2  0  0  0  0
 14 25  2  0  0  0  0
 14 26  1  0  0  0  0
 15 29  2  0  0  0  0
 15 64  1  0  0  0  0
 16 27  1  0  0  0  0
 17 27  1  0  0  0  0
 17 28  2  0  0  0  0
 17 33  1  0  0  0  0
 18 20  2  0  0  0  0
 18 39  1  0  0  0  0
 19 21  2  0  0  0  0
 19 40  1  0  0  0  0
 20 50  1  0  0  0  0
 21 41  1  0  0  0  0
 22 83  1  0  0  0  0
 23 84  1  0  0  0  0
 24 26  2  0  0  0  0
 24 83  1  0  0  0  0
 25 85  1  0  0  0  0
 26 86  1  0  0  0  0
 27 65  2  0  0  0  0
 28 66  1  0  0  0  0
 28 69  1  0  0  0  0
 29 71  1  0  0  0  0
 29 82  1  0  0  0  0
 30 51  1  0  0  0  0
 30 64  2  0  0  0  0
 30 82  1  0  0  0  0
 31 32  2  0  0  0  0
 31 34  1  0  0  0  0
 31 42  1  0  0  0  0
 32 43  1  0  0  0  0
 32 60  1  0  0  0  0
 33 70  1  0  0  0  0
 33 76  2  0  0  0  0
 34 54  1  0  0  0  0
 34 77  2  0  0  0  0
 35 52  1  0  0  0  0
 35 72  1  0  0  0  0
 35 78  2  0  0  0  0
 36 61  1  0  0  0  0
 36 67  1  0  0  0  0
 36 79  2  0  0  0  0
 37 62  1  0  0  0  0
 37 73  1  0  0  0  0
 37 80  2  0  0  0  0
 38 68  1  0  0  0  0
 38 71  1  0  0  0  0
 38 81  2  0  0  0  0
 39 44  1  0  0  0  0
 40 52  1  0  0  0  0
 41 67  1  0  0  0  0
 42 51  1  0  0  0  0
 43 74  1  0  0  0  0
 44 46  1  0  0  0  0
 45 47  1  0  0  0  0
 45 48  1  0  0  0  0
 46 50  1  0  0  0  0
 47 53  1  0  0  0  0
 48 68  1  0  0  0  0
 49 53  1  0  0  0  0
 49 68  1  0  0  0  0
 50 72  1  0  0  0  0
 51 74  1  0  0  0  0
 52 67  1  0  0  0  0
 53 66  1  0  0  0  0
 55 62  1  0  0  0  0
 56 63  1  0  0  0  0
 57 63  1  0  0  0  0
 58 63  1  0  0  0  0
 59 75  1  0  0  0  0
 60 84  1  0  0  0  0
 61 63  1  0  0  0  0
 61 73  1  0  0  0  0
 62 75  1  0  0  0  0
 65 66  1  0  0  0  0
M  CHG  2  74   1  75   1
M  ISO  4  38 100  60 101  71 100  84 101
M  END
> <Batch ID>
0159

> <Smiles>
CNC(C)C(=O)NC(C(=O)N1Cc2cc([101O:1][101CH2:1]C3=C(C(C)=O)CC(c4ncc([100NH:0][100C:0](=O)N5CCCC(n6nc(-c7ccc(Oc8ccc(F)cc8F)cc7)c(C(N)=O)c6N)C5)o4)NC3)ccc2CC1C(=O)NC1CCCc2ccccc21)C(C)(C)C

> <Shape>
0.329

> <Color>
0.188

> <Negative vol penalty>
0.000

$$$$

  -OEChem-04052303473D

 87 96  0     1  0  0  0  0  0999 V2000
  -19.1607  -24.4495   37.0131 C   0  0  0  0  0  0  0  0  0  0  0  0
  -19.4418  -23.1925   36.4874 C   0  0  0  0  0  0  0  0  0  0  0  0
  -23.3069  -10.2169   22.2384 C   0  0  0  0  0  0  0  0  0  0  0  0
  -23.5995   -9.5305   19.9405 C   0  0  0  0  0  0  0  0  0  0  0  0
  -18.8031  -25.4953   36.1632 C   0  0  0  0  0  0  0  0  0  0  0  0
  -19.3643  -22.9803   35.1114 C   0  0  0  0  0  0  0  0  0  0  0  0
  -25.0867  -20.6865   31.3851 C   0  0  0  0  0  0  0  0  0  0  0  0
  -22.5612   -9.0648   22.4876 C   0  0  0  0  0  0  0  0  0  0  0  0
  -22.8538   -8.3783   20.1897 C   0  0  0  0  0  0  0  0  0  0  0  0
  -26.0761  -20.0478   30.6374 C   0  0  0  0  0  0  0  0  0  0  0  0
  -19.4094   -7.9721   21.9432 C   0  0  0  0  0  0  0  0  0  0  0  0
  -18.2263   -8.1111   22.6688 C   0  0  0  0  0  0  0  0  0  0  0  0
  -24.7127  -20.2400   28.6493 C   0  0  0  0  0  0  0  0  0  0  0  0
  -19.0903   -6.6210   24.3630 C   0  0  0  0  0  0  0  0  0  0  0  0
  -31.7901  -17.5766   21.7277 C   0  0  0  0  0  0  0  0  0  0  0  0
  -23.8260  -10.4498   20.9648 C   0  0  0  0  0  0  0  0  0  0  0  0
  -24.1694  -12.9747   20.8429 C   0  0  0  0  0  0  0  0  0  0  0  0
  -18.7306  -25.2982   34.7752 C   0  0  0  0  0  0  0  0  0  0  0  0
  -23.9116  -21.1187   30.7640 C   0  0  0  0  0  0  0  0  0  0  0  0
  -19.0041  -24.0241   34.2422 C   0  0  0  0  0  0  0  0  0  0  0  0
  -23.7235  -20.8915   29.3907 C   0  0  0  0  0  0  0  0  0  0  0  0
  -22.3346   -8.1455   21.4633 C   0  0  0  0  0  0  0  0  0  0  0  0
  -25.8895  -19.8249   29.2729 C   0  0  0  0  0  0  0  0  0  0  0  0
  -20.4330   -7.1574   22.4274 C   0  0  0  0  0  0  0  0  0  0  0  0
  -18.0668   -7.4356   23.8787 C   0  0  0  0  0  0  0  0  0  0  0  0
  -20.2734   -6.4819   23.6373 C   0  0  0  0  0  0  0  0  0  0  0  0
  -24.5960  -11.6400   20.7066 C   0  0  0  0  0  0  0  0  0  0  0  0
  -25.2622  -13.7232   20.4797 C   0  0  0  0  0  0  0  0  0  0  0  0
  -30.5866  -16.9345   21.9311 C   0  0  0  0  0  0  0  0  0  0  0  0
  -30.8299  -19.0742   23.0104 C   0  0  0  0  0  0  0  0  0  0  0  0
  -27.4138  -19.8853   27.4993 C   0  0  0  0  0  0  0  0  0  1  0  0
  -22.8989  -13.4915   21.2605 C   0  0  0  0  0  0  0  0  0  0  0  0
  -28.3721  -19.3785   26.7200 C   0  0  0  0  0  0  0  0  0  0  0  0
  -28.8857  -20.2173   25.6190 C   0  0  0  0  0  0  0  0  0  0  0  0
  -20.5929  -22.8305   31.1271 C   0  0  0  0  0  0  0  0  0  0  0  0
  -21.8046  -23.7890   28.4769 C   0  0  0  0  0  0  0  0  0  0  0  0
  -23.6674  -24.9124   25.8491 C   0  0  0  0  0  0  0  0  0  0  0  0
  -30.7289  -14.7657   20.6573 C   0  0  0  0  0  0  0  0  0  0  0  0
  -18.2937  -26.4468   33.9007 C   0  0  0  0  0  0  0  0  0  0  0  0
  -22.7928  -21.7560   31.5424 C   0  0  0  0  0  0  0  0  0  0  0  0
  -22.4287  -21.3428   28.7718 C   0  0  0  0  0  0  0  0  0  0  0  0
  -18.5991  -26.2356   32.4201 C   0  0  0  0  0  0  0  0  0  0  0  0
  -32.8964  -21.0329   24.7513 C   0  0  0  0  0  0  0  0  0  0  0  0
  -32.4120  -20.6731   26.1503 C   0  0  0  0  0  0  0  0  0  0  0  0
  -29.6147  -12.3507   18.2901 C   0  0  0  0  0  0  0  0  0  0  0  0
  -18.1788  -24.8360   31.9827 C   0  0  0  0  0  0  0  0  0  0  0  0
  -31.7281  -21.4022   23.8363 C   0  0  0  0  0  0  0  0  0  0  0  0
  -28.1746  -12.0603   18.7190 C   0  0  0  0  0  0  0  0  0  0  0  0
  -31.3146  -19.6142   26.1095 C   0  0  0  0  0  0  0  0  0  0  0  0
  -30.5291  -12.5799   19.4922 C   0  0  0  0  0  0  0  0  0  0  0  0
  -28.6217  -13.3066   20.8717 C   0  0  0  0  0  0  0  0  0  0  0  0
  -18.9551  -23.7609   32.7527 C   0  0  1  0  0  0  0  0  0  0  0  0
  -30.6015  -20.3471   23.8257 C   0  0  2  0  0  0  0  0  0  0  0  0
  -22.0441  -22.8394   30.7458 C   0  0  1  0  0  0  0  0  0  0  0  0
  -27.6495  -13.1330   19.6933 C   0  0  2  0  0  0  0  0  0  0  0  0
  -23.5751  -26.4932   23.9024 C   0  0  0  0  0  0  0  0  0  0  0  0
  -20.0153  -21.8282   26.9743 C   0  0  0  0  0  0  0  0  0  0  0  0
  -20.7280  -22.9241   24.8391 C   0  0  0  0  0  0  0  0  0  0  0  0
  -19.4963  -24.2399   26.5637 C   0  0  0  0  0  0  0  0  0  0  0  0
  -25.9562  -26.4866   26.8699 C   0  0  0  0  0  0  0  0  0  0  0  0
  -21.9029  -23.5898   26.9856 C   0  0  1  0  0  0  0  0  0  0  0  0
  -23.9747  -26.3159   25.3590 C   0  0  2  0  0  0  0  0  0  0  0  0
  -20.5550  -23.1345   26.3584 C   0  0  0  0  0  0  0  0  0  0  0  0
  -31.9313  -18.8039   22.3455 N   0  0  0  0  0  0  0  0  0  0  0  0
  -25.8611  -11.5431   20.2892 N   0  0  0  0  0  0  0  0  0  0  0  0
  -26.2388  -12.8264   20.1601 N   0  0  0  0  0  0  0  0  0  0  0  0
  -30.2144  -20.0378   25.2266 N   0  0  0  0  0  0  0  0  0  0  0  0
  -22.0648  -22.6737   29.2825 N   0  0  0  0  0  0  0  0  0  0  0  0
  -29.9702  -13.6118   20.3684 N   0  0  0  0  0  0  0  0  0  0  0  0
  -25.4734  -15.0545   20.4058 N   0  0  0  0  0  0  0  0  0  0  0  0
  -21.8863  -12.5832   21.5979 N   0  0  0  0  0  0  0  0  0  0  0  0
  -30.0816  -15.6918   21.4746 N   0  0  0  0  0  0  0  0  0  0  0  0
  -20.2930  -23.6233   32.2183 N   0  0  0  0  0  0  0  0  0  0  0  0
  -22.4240  -24.8386   26.4404 N   0  0  0  0  0  0  0  0  0  0  0  0
  -25.4320  -26.6010   25.4846 N   0  3  0  0  0  0  0  0  0  0  0  0
  -22.6633  -14.7223   21.3167 O   0  0  0  0  0  0  0  0  0  0  0  0
  -28.1050  -21.0213   25.1066 O   0  0  0  0  0  0  0  0  0  0  0  0
  -19.8020  -22.1554   30.4786 O   0  0  0  0  0  0  0  0  0  0  0  0
  -21.5001  -24.9007   28.9182 O   0  0  0  0  0  0  0  0  0  0  0  0
  -24.4505  -23.9744   25.7171 O   0  0  0  0  0  0  0  0  0  0  0  0
  -31.8584  -14.9334   20.1903 O   0  0  0  0  0  0  0  0  0  0  0  0
  -28.8895  -18.1188   26.9073 O   0  0  0  0  0  0  0  0  0  0  0  0
  -21.6072   -7.0210   21.7062 O   0  0  0  0  0  0  0  0  0  0  0  0
  -26.8614  -19.2048   28.5479 O   0  0  0  0  0  0  0  0  0  1  0  0
  -16.9312   -7.5704   24.5762 F   0  0  0  0  0  0  0  0  0  0  0  0
  -21.2537   -5.6988   24.1081 F   0  0  0  0  0  0  0  0  0  0  0  0
  -29.5841  -17.8963   22.9367 S   0  0  0  0  0  0  0  0  0  0  0  0
  1  2  1  0  0  0  0
  1  5  2  0  0  0  0
  2  6  2  0  0  0  0
  3  8  2  0  0  0  0
  3 16  1  0  0  0  0
  4  9  1  0  0  0  0
  4 16  2  0  0  0  0
  5 18  1  0  0  0  0
  6 20  1  0  0  0  0
  7 10  2  0  0  0  0
  7 19  1  0  0  0  0
  8 22  1  0  0  0  0
  9 22  2  0  0  0  0
 10 23  1  0  0  0  0
 11 12  2  0  0  0  0
 11 24  1  0  0  0  0
 12 25  1  0  0  0  0
 13 21  1  0  0  0  0
 13 23  2  0  0  0  0
 14 25  2  0  0  0  0
 14 26  1  0  0  0  0
 15 29  2  0  0  0  0
 15 64  1  0  0  0  0
 16 27  1  0  0  0  0
 17 27  1  0  0  0  0
 17 28  2  0  0  0  0
 17 32  1  0  0  0  0
 18 20  2  0  0  0  0
 18 39  1  0  0  0  0
 19 21  2  0  0  0  0
 19 40  1  0  0  0  0
 20 52  1  0  0  0  0
 21 41  1  0  0  0  0
 22 83  1  0  0  0  0
 23 84  1  0  0  0  0
 24 26  2  0  0  0  0
 24 83  1  0  0  0  0
 25 85  1  0  0  0  0
 26 86  1  0  0  0  0
 27 65  2  0  0  0  0
 28 66  1  0  0  0  0
 28 70  1  0  0  0  0
 29 72  1  0  0  0  0
 29 87  1  0  0  0  0
 30 53  1  0  0  0  0
 30 64  2  0  0  0  0
 30 87  1  0  0  0  0
 31 33  2  0  0  0  0
 31 84  1  0  0  0  0
 32 71  1  0  0  0  0
 32 76  2  0  0  0  0
 33 34  1  0  0  0  0
 33 82  1  0  0  0  0
 34 67  1  0  0  0  0
 34 77  2  0  0  0  0
 35 54  1  0  0  0  0
 35 73  1  0  0  0  0
 35 78  2  0  0  0  0
 36 61  1  0  0  0  0
 36 68  1  0  0  0  0
 36 79  2  0  0  0  0
 37 62  1  0  0  0  0
 37 74  1  0  0  0  0
 37 80  2  0  0  0  0
 38 69  1  0  0  0  0
 38 72  1  0  0  0  0
 38 81  2  0  0  0  0
 39 42  1  0  0  0  0
 40 54  1  0  0  0  0
 41 68  1  0  0  0  0
 42 46  1  0  0  0  0
 43 44  1  0  0  0  0
 43 47  1  0  0  0  0
 44 49  1  0  0  0  0
 45 48  1  0  0  0  0
 45 50  1  0  0  0  0
 46 52  1  0  0  0  0
 47 53  1  0  0  0  0
 48 55  1  0  0  0  0
 49 67  1  0  0  0  0
 50 69  1  0  0  0  0
 51 55  1  0  0  0  0
 51 69  1  0  0  0  0
 52 73  1  0  0  0  0
 53 67  1  0  0  0  0
 54 68  1  0  0  0  0
 55 66  1  0  0  0  0
 56 62  1  0  0  0  0
 57 63  1  0  0  0  0
 58 63  1  0  0  0  0
 59 63  1  0  0  0  0
 60 75  1  0  0  0  0
 61 63  1  0  0  0  0
 61 74  1  0  0  0  0
 62 75  1  0  0  0  0
 65 66  1  0  0  0  0
M  CHG  1  75   1
M  ISO  4  31 101  38 100  72 100  84 101
M  END
> <Batch ID>
0159

> <Smiles>
CNC(C)C(=O)NC(C(=O)N1Cc2cc([101O:1][101CH2:1]C(=O)C(=O)N3CCCCC3c3ncc([100NH:0][100C:0](=O)N4CCCC(n5nc(-c6ccc(Oc7ccc(F)cc7F)cc6)c(C(N)=O)c5N)C4)s3)ccc2CC1C(=O)NC1CCCc2ccccc21)C(C)(C)C

> <Shape>
0.152

> <Color>
0.184

> <Negative vol penalty>
0.000

$$$$

  -OEChem-04052303473D

 82 90  0     1  0  0  0  0  0999 V2000
  -21.7117  -31.7243   14.5421 C   0  0  0  0  0  0  0  0  0  0  0  0
  -22.9197  -31.2401   15.0337 C   0  0  0  0  0  0  0  0  0  0  0  0
  -22.4977  -13.0309   20.7815 C   0  0  0  0  0  0  0  0  0  0  0  0
  -22.1943  -14.9512   19.3471 C   0  0  0  0  0  0  0  0  0  0  0  0
  -21.0044  -32.6879   15.2599 C   0  0  0  0  0  0  0  0  0  0  0  0
  -23.4217  -31.7200   16.2429 C   0  0  0  0  0  0  0  0  0  0  0  0
  -25.1545  -28.0184   19.2329 C   0  0  0  0  0  0  0  0  0  0  0  0
  -21.1180  -12.9548   20.9715 C   0  0  0  0  0  0  0  0  0  0  0  0
  -20.8146  -14.8751   19.5371 C   0  0  0  0  0  0  0  0  0  0  0  0
  -26.4087  -27.4899   18.9303 C   0  0  0  0  0  0  0  0  0  0  0  0
  -18.7687  -14.5285   22.8231 C   0  0  0  0  0  0  0  0  0  0  0  0
  -18.3043  -14.3278   24.1230 C   0  0  0  0  0  0  0  0  0  0  0  0
  -27.3925  -28.8475   20.6647 C   0  0  0  0  0  0  0  0  0  0  0  0
  -29.6014  -21.4238   20.5534 C   0  0  0  0  0  0  0  0  0  0  0  0
  -17.2381  -12.2752   23.4252 C   0  0  0  0  0  0  0  0  0  0  0  0
  -27.9133  -21.1478   19.0891 C   0  0  0  0  0  0  0  0  0  0  0  0
  -23.0359  -14.0291   19.9693 C   0  0  0  0  0  0  0  0  0  0  0  0
  -25.2173  -13.4772   18.7674 C   0  0  0  0  0  0  0  0  0  0  0  0
  -21.4932  -33.1728   16.4832 C   0  0  0  0  0  0  0  0  0  0  0  0
  -25.0114  -28.9750   20.2481 C   0  0  0  0  0  0  0  0  0  0  0  0
  -22.7210  -32.6919   16.9770 C   0  0  0  0  0  0  0  0  0  0  0  0
  -26.1351  -29.3846   20.9800 C   0  0  0  0  0  0  0  0  0  0  0  0
  -28.5713  -20.5443   20.1379 C   0  0  0  0  0  0  0  0  0  0  0  0
  -20.2764  -13.8769   20.3493 C   0  0  0  0  0  0  0  0  0  0  0  0
  -27.5284  -27.9066   19.6442 C   0  0  0  0  0  0  0  0  0  0  0  0
  -18.4676  -13.6026   21.8242 C   0  0  0  0  0  0  0  0  0  0  0  0
  -17.5391  -13.2012   24.4241 C   0  0  0  0  0  0  0  0  0  0  0  0
  -17.7024  -12.4759   22.1253 C   0  0  0  0  0  0  0  0  0  0  0  0
  -24.4612  -14.1086   19.7731 C   0  0  0  0  0  0  0  0  0  0  0  0
  -29.5413  -22.5381   19.7459 C   0  0  0  0  0  0  0  0  0  0  0  0
  -26.5109  -13.8672   19.0145 C   0  0  0  0  0  0  0  0  0  0  0  0
  -24.7887  -12.6152   17.7049 C   0  0  0  0  0  0  0  0  0  0  0  0
  -30.4263  -23.7180   19.8192 C   0  0  0  0  0  0  0  0  0  0  0  0
  -24.0331  -31.9973   20.3606 C   0  0  0  0  0  0  0  0  0  0  0  0
  -24.3523  -31.5732   23.5607 C   0  0  0  0  0  0  0  0  0  0  0  0
  -25.8203  -29.8651   26.1247 C   0  0  0  0  0  0  0  0  0  0  0  0
  -28.8910  -18.6241   21.7369 C   0  0  0  0  0  0  0  0  0  0  0  0
  -20.7167  -34.2489   17.2000 C   0  0  0  0  0  0  0  0  0  0  0  0
  -23.6476  -29.5155   20.5803 C   0  0  0  0  0  0  0  0  0  0  0  0
  -26.0318  -30.3941   22.0930 C   0  0  0  0  0  0  0  0  0  0  0  0
  -21.1321  -34.4315   18.6575 C   0  0  0  0  0  0  0  0  0  0  0  0
  -29.4001  -15.2054   22.5917 C   0  0  0  0  0  0  0  0  0  0  0  0
  -22.6520  -34.4808   18.7773 C   0  0  0  0  0  0  0  0  0  0  0  0
  -28.2638  -14.4780   21.8694 C   0  0  0  0  0  0  0  0  0  0  0  0
  -28.9537  -16.5650   23.1265 C   0  0  0  0  0  0  0  0  0  0  0  0
  -27.1922  -16.7206   21.4113 C   0  0  0  0  0  0  0  0  0  0  0  0
  -23.2860  -33.1697   18.2971 C   0  0  1  0  0  0  0  0  0  0  0  0
  -23.6963  -30.8653   21.2895 C   0  0  1  0  0  0  0  0  0  0  0  0
  -27.6117  -15.3744   20.7985 C   0  0  2  0  0  0  0  0  0  0  0  0
  -25.9126  -29.7702   28.6307 C   0  0  0  0  0  0  0  0  0  0  0  0
  -26.1218  -34.0587   23.5873 C   0  0  0  0  0  0  0  0  0  0  0  0
  -26.9306  -33.3734   25.8554 C   0  0  0  0  0  0  0  0  0  0  0  0
  -24.5182  -33.8993   25.4997 C   0  0  0  0  0  0  0  0  0  0  0  0
  -28.1076  -23.2981   17.8367 C   0  0  0  0  0  0  0  0  0  0  0  0
  -24.7887  -27.0916   26.1734 C   0  0  0  0  0  0  0  0  0  0  0  0
  -30.6461  -26.1546   20.1522 C   0  0  0  0  0  0  0  0  0  0  0  0
  -29.6935  -27.3020   20.4205 C   0  0  0  0  0  0  0  0  0  1  0  0
  -25.4717  -31.7559   24.5570 C   0  0  1  0  0  0  0  0  0  0  0  0
  -25.2397  -29.2333   27.3770 C   0  0  2  0  0  0  0  0  0  0  0  0
  -25.7632  -33.2542   24.8526 C   0  0  0  0  0  0  0  0  0  0  0  0
  -25.2118  -14.8438   20.5977 N   0  0  0  0  0  0  0  0  0  0  0  0
  -28.5113  -22.3595   18.8597 N   0  0  0  0  0  0  0  0  0  0  0  0
  -26.4532  -14.6767   20.1107 N   0  0  0  0  0  0  0  0  0  0  0  0
  -24.6777  -30.8980   22.3758 N   0  0  0  0  0  0  0  0  0  0  0  0
  -28.3497  -17.3607   22.0556 N   0  0  0  0  0  0  0  0  0  0  0  0
  -27.6807  -13.5931   18.3990 N   0  0  0  0  0  0  0  0  0  0  0  0
  -23.4236  -12.3171   17.5958 N   0  0  0  0  0  0  0  0  0  0  0  0
  -31.7347  -23.5336   19.6430 N   0  0  0  0  0  0  0  0  0  0  0  0
  -28.2545  -19.2741   20.6801 N   0  0  0  0  0  0  0  0  0  0  0  0
  -23.1501  -32.1427   19.3077 N   0  0  0  0  0  0  0  0  0  0  0  0
  -25.1028  -30.9755   25.7331 N   0  0  0  0  0  0  0  0  0  0  0  0
  -29.8741  -24.9129   20.0607 N   0  3  0  0  0  0  0  0  0  0  0  0
  -25.4211  -27.7545   27.3429 N   0  3  0  0  0  0  0  0  0  0  0  0
  -25.5946  -12.1108   16.8865 O   0  0  0  0  0  0  0  0  0  0  0  0
  -25.0201  -32.6885   20.5835 O   0  0  0  0  0  0  0  0  0  0  0  0
  -23.2287  -32.0070   23.8272 O   0  0  0  0  0  0  0  0  0  0  0  0
  -26.8135  -29.4204   25.5533 O   0  0  0  0  0  0  0  0  0  0  0  0
  -29.8659  -19.0828   22.3380 O   0  0  0  0  0  0  0  0  0  0  0  0
  -18.9300  -13.8028   20.5344 O   0  0  0  0  0  0  0  0  0  0  0  0
  -28.7538  -27.3929   19.3504 O   0  0  0  0  0  0  0  0  0  1  0  0
  -17.0946  -13.0078   25.6728 F   0  0  0  0  0  0  0  0  0  0  0  0
  -17.4110  -11.5822   21.1702 F   0  0  0  0  0  0  0  0  0  0  0  0
  1  2  1  0  0  0  0
  1  5  2  0  0  0  0
  2  6  2  0  0  0  0
  3  8  2  0  0  0  0
  3 17  1  0  0  0  0
  4  9  1  0  0  0  0
  4 17  2  0  0  0  0
  5 19  1  0  0  0  0
  6 21  1  0  0  0  0
  7 10  2  0  0  0  0
  7 20  1  0  0  0  0
  8 24  1  0  0  0  0
  9 24  2  0  0  0  0
 10 25  1  0  0  0  0
 11 12  2  0  0  0  0
 11 26  1  0  0  0  0
 12 27  1  0  0  0  0
 13 22  1  0  0  0  0
 13 25  2  0  0  0  0
 14 23  1  0  0  0  0
 14 30  2  0  0  0  0
 15 27  2  0  0  0  0
 15 28  1  0  0  0  0
 16 23  2  0  0  0  0
 16 62  1  0  0  0  0
 17 29  1  0  0  0  0
 18 29  1  0  0  0  0
 18 31  2  0  0  0  0
 18 32  1  0  0  0  0
 19 21  2  0  0  0  0
 19 38  1  0  0  0  0
 20 22  2  0  0  0  0
 20 39  1  0  0  0  0
 21 47  1  0  0  0  0
 22 40  1  0  0  0  0
 23 69  1  0  0  0  0
 24 79  1  0  0  0  0
 25 80  1  0  0  0  0
 26 28  2  0  0  0  0
 26 79  1  0  0  0  0
 27 81  1  0  0  0  0
 28 82  1  0  0  0  0
 29 61  2  0  0  0  0
 30 33  1  0  0  0  0
 30 62  1  0  0  0  0
 31 63  1  0  0  0  0
 31 66  1  0  0  0  0
 32 67  1  0  0  0  0
 32 74  2  0  0  0  0
 33 68  1  0  0  0  0
 33 72  2  0  0  0  0
 34 48  1  0  0  0  0
 34 70  1  0  0  0  0
 34 75  2  0  0  0  0
 35 58  1  0  0  0  0
 35 64  1  0  0  0  0
 35 76  2  0  0  0  0
 36 59  1  0  0  0  0
 36 71  1  0  0  0  0
 36 77  2  0  0  0  0
 37 65  1  0  0  0  0
 37 69  1  0  0  0  0
 37 78  2  0  0  0  0
 38 41  1  0  0  0  0
 39 48  1  0  0  0  0
 40 64  1  0  0  0  0
 41 43  1  0  0  0  0
 42 44  1  0  0  0  0
 42 45  1  0  0  0  0
 43 47  1  0  0  0  0
 44 49  1  0  0  0  0
 45 65  1  0  0  0  0
 46 49  1  0  0  0  0
 46 65  1  0  0  0  0
 47 70  1  0  0  0  0
 48 64  1  0  0  0  0
 49 63  1  0  0  0  0
 50 59  1  0  0  0  0
 51 60  1  0  0  0  0
 52 60  1  0  0  0  0
 53 60  1  0  0  0  0
 54 62  1  0  0  0  0
 55 73  1  0  0  0  0
 56 57  1  0  0  0  0
 56 72  1  0  0  0  0
 57 80  1  0  0  0  0
 58 60  1  0  0  0  0
 58 71  1  0  0  0  0
 59 73  1  0  0  0  0
 61 63  1  0  0  0  0
M  CHG  2  72   1  73   1
M  ISO  4  37 100  57 101  69 100  80 101
M  END
> <Batch ID>
0159

> <Smiles>
CNC(C)C(=O)NC(C(=O)N1Cc2cc([101O:1][101CH2:1]CNC(=N)c3cc([100NH:0][100C:0](=O)N4CCCC(n5nc(-c6ccc(Oc7ccc(F)cc7F)cc6)c(C(N)=O)c5N)C4)cn3C)ccc2CC1C(=O)NC1CCCc2ccccc21)C(C)(C)C

> <Shape>
0.244

> <Color>
0.074

> <Negative vol penalty>
0.000

$$$$

  -OEChem-04052303473D

 84 92  0     1  0  0  0  0  0999 V2000
  -27.7508  -24.1497   17.4830 C   0  0  0  0  0  0  0  0  0  0  0  0
  -26.5673  -24.4771   18.1367 C   0  0  0  0  0  0  0  0  0  0  0  0
  -24.5722  -14.6654   19.1388 C   0  0  0  0  0  0  0  0  0  0  0  0
  -23.7640  -14.2588   21.3790 C   0  0  0  0  0  0  0  0  0  0  0  0
  -28.9685  -24.6243   17.9688 C   0  0  0  0  0  0  0  0  0  0  0  0
  -26.6007  -25.2784   19.2774 C   0  0  0  0  0  0  0  0  0  0  0  0
  -23.0437  -28.8825   19.2249 C   0  0  0  0  0  0  0  0  0  0  0  0
  -25.3842  -13.5347   19.2265 C   0  0  0  0  0  0  0  0  0  0  0  0
  -24.5760  -13.1281   21.4668 C   0  0  0  0  0  0  0  0  0  0  0  0
  -21.7420  -28.4971   19.5426 C   0  0  0  0  0  0  0  0  0  0  0  0
  -28.3456  -12.6979   20.6247 C   0  0  0  0  0  0  0  0  0  0  0  0
  -29.6624  -12.8104   20.1787 C   0  0  0  0  0  0  0  0  0  0  0  0
  -16.5741  -23.0807   23.4682 C   0  0  0  0  0  0  0  0  0  0  0  0
  -22.0437  -29.3452   21.7807 C   0  0  0  0  0  0  0  0  0  0  0  0
  -29.2593  -11.0725   18.5495 C   0  0  0  0  0  0  0  0  0  0  0  0
  -23.7621  -15.0275   20.2151 C   0  0  0  0  0  0  0  0  0  0  0  0
  -17.3680  -21.9663   23.1064 C   0  0  0  0  0  0  0  0  0  0  0  0
  -21.5969  -16.2559   19.6578 C   0  0  0  0  0  0  0  0  0  0  0  0
  -29.0160  -25.4398   19.1104 C   0  0  0  0  0  0  0  0  0  0  0  0
  -23.8602  -29.4933   20.1875 C   0  0  0  0  0  0  0  0  0  0  0  0
  -27.8203  -25.7633   19.7797 C   0  0  0  0  0  0  0  0  0  0  0  0
  -23.3545  -29.7397   21.4719 C   0  0  0  0  0  0  0  0  0  0  0  0
  -25.3862  -12.7660   20.3905 C   0  0  0  0  0  0  0  0  0  0  0  0
  -21.2428  -28.7258   20.8215 C   0  0  0  0  0  0  0  0  0  0  0  0
  -27.4855  -11.7725   20.0331 C   0  0  0  0  0  0  0  0  0  0  0  0
  -30.1192  -11.9978   19.1412 C   0  0  0  0  0  0  0  0  0  0  0  0
  -27.9424  -10.9599   18.9955 C   0  0  0  0  0  0  0  0  0  0  0  0
  -22.9234  -16.1957   20.1252 C   0  0  0  0  0  0  0  0  0  0  0  0
  -21.2515  -17.5802   19.7744 C   0  0  0  0  0  0  0  0  0  0  0  0
  -17.4378  -24.1456   23.5777 C   0  0  0  0  0  0  0  0  0  0  0  0
  -18.6603  -22.4296   23.0203 C   0  0  0  0  0  0  0  0  0  0  0  0
  -16.9437  -20.6176   22.8701 C   0  0  0  0  0  0  0  0  0  0  0  0
  -20.7523  -15.2085   19.1625 C   0  0  0  0  0  0  0  0  0  0  0  0
  -26.6166  -28.7531   21.5867 C   0  0  0  0  0  0  0  0  0  0  0  0
  -18.6264  -26.9380   22.5719 C   0  0  0  0  0  0  0  0  0  0  0  0
  -26.3155  -31.7184   22.8667 C   0  0  0  0  0  0  0  0  0  0  0  0
  -24.2612  -34.2913   23.7650 C   0  0  0  0  0  0  0  0  0  0  0  0
  -21.1494  -22.3531   22.6401 C   0  0  0  0  0  0  0  0  0  0  0  0
  -30.3602  -25.8900   19.6255 C   0  0  0  0  0  0  0  0  0  0  0  0
  -25.2530  -29.9273   19.8210 C   0  0  0  0  0  0  0  0  0  0  0  0
  -24.1836  -30.4104   22.5354 C   0  0  0  0  0  0  0  0  0  0  0  0
  -30.2754  -27.0423   20.6232 C   0  0  0  0  0  0  0  0  0  0  0  0
  -24.0931  -21.6505   20.7644 C   0  0  0  0  0  0  0  0  0  0  0  0
  -29.1936  -26.7692   21.6633 C   0  0  0  0  0  0  0  0  0  0  0  0
  -23.9421  -20.1736   20.3925 C   0  0  0  0  0  0  0  0  0  0  0  0
  -23.5532  -21.9410   22.1637 C   0  0  0  0  0  0  0  0  0  0  0  0
  -22.0257  -20.0126   22.0322 C   0  0  0  0  0  0  0  0  0  0  0  0
  -27.8134  -26.6504   21.0057 C   0  0  1  0  0  0  0  0  0  0  0  0
  -26.1703  -30.0758   21.0309 C   0  0  1  0  0  0  0  0  0  0  0  0
  -22.4964  -19.6837   20.6060 C   0  0  2  0  0  0  0  0  0  0  0  0
  -15.4744  -20.2957   23.0129 C   0  0  0  0  0  0  0  0  0  0  0  0
  -24.3009  -36.5667   24.8225 C   0  0  0  0  0  0  0  0  0  0  0  0
  -26.6759  -30.4341   25.6109 C   0  0  0  0  0  0  0  0  0  0  0  0
  -25.7740  -32.5334   26.6346 C   0  0  0  0  0  0  0  0  0  0  0  0
  -27.8848  -32.6022   25.3069 C   0  0  0  0  0  0  0  0  0  0  0  0
  -23.1677  -35.5695   21.3300 C   0  0  0  0  0  0  0  0  0  0  0  0
  -18.2786  -26.4624   23.9665 C   0  0  0  0  0  0  0  0  0  0  0  0
  -19.7188  -27.9865   22.4908 C   0  0  0  0  0  0  0  0  0  1  0  0
  -25.6790  -32.2855   24.1126 C   0  0  1  0  0  0  0  0  0  0  0  0
  -24.3524  -35.7864   23.5182 C   0  0  2  0  0  0  0  0  0  0  0  0
  -26.4882  -31.9494   25.3970 C   0  0  0  0  0  0  0  0  0  0  0  0
  -23.3892  -17.3869   20.5100 N   0  0  0  0  0  0  0  0  0  0  0  0
  -22.3496  -18.2082   20.2844 N   0  0  0  0  0  0  0  0  0  0  0  0
  -25.5413  -30.8106   22.1303 N   0  0  0  0  0  0  0  0  0  0  0  0
  -22.1783  -21.4529   22.2909 N   0  0  0  0  0  0  0  0  0  0  0  0
  -20.1188  -18.2570   19.4894 N   0  0  0  0  0  0  0  0  0  0  0  0
  -21.2651  -13.9052   19.1102 N   0  0  0  0  0  0  0  0  0  0  0  0
  -19.8788  -21.7817   22.6992 N   0  0  0  0  0  0  0  0  0  0  0  0
  -17.2285  -25.4784   23.9019 N   0  0  0  0  0  0  0  0  0  0  0  0
  -27.2945  -27.9615   20.6794 N   0  0  0  0  0  0  0  0  0  0  0  0
  -25.5089  -33.7140   23.8702 N   0  0  0  0  0  0  0  0  0  0  0  0
  -23.2247  -36.2386   22.6552 N   0  3  0  0  0  0  0  0  0  0  0  0
  -17.6835  -19.6666   22.5572 O   0  0  0  0  0  0  0  0  0  0  0  0
  -19.5833  -15.4248   18.7624 O   0  0  0  0  0  0  0  0  0  0  0  0
  -26.3659  -28.4722   22.7529 O   0  0  0  0  0  0  0  0  0  0  0  0
  -18.0661  -26.5094   21.5638 O   0  0  0  0  0  0  0  0  0  0  0  0
  -27.4548  -32.0736   22.5544 O   0  0  0  0  0  0  0  0  0  0  0  0
  -23.1902  -33.6958   23.8591 O   0  0  0  0  0  0  0  0  0  0  0  0
  -21.3747  -23.5489   22.8432 O   0  0  0  0  0  0  0  0  0  0  0  0
  -18.7114  -23.7571   23.3060 O   0  0  0  0  0  0  0  0  0  0  0  0
  -26.1783  -11.6625   20.4764 O   0  0  0  0  0  0  0  0  0  0  0  0
  -19.9729  -28.3500   21.1345 O   0  0  0  0  0  0  0  0  0  1  0  0
  -31.3834  -12.1071   18.7120 F   0  0  0  0  0  0  0  0  0  0  0  0
  -27.1205  -10.0700   18.4225 F   0  0  0  0  0  0  0  0  0  0  0  0
  1  2  1  0  0  0  0
  1  5  2  0  0  0  0
  2  6  2  0  0  0  0
  3  8  2  0  0  0  0
  3 16  1  0  0  0  0
  4  9  1  0  0  0  0
  4 16  2  0  0  0  0
  5 19  1  0  0  0  0
  6 21  1  0  0  0  0
  7 10  2  0  0  0  0
  7 20  1  0  0  0  0
  8 23  1  0  0  0  0
  9 23  2  0  0  0  0
 10 24  1  0  0  0  0
 11 12  2  0  0  0  0
 11 25  1  0  0  0  0
 12 26  1  0  0  0  0
 13 17  1  0  0  0  0
 13 30  2  0  0  0  0
 14 22  1  0  0  0  0
 14 24  2  0  0  0  0
 15 26  2  0  0  0  0
 15 27  1  0  0  0  0
 16 28  1  0  0  0  0
 17 31  2  0  0  0  0
 17 32  1  0  0  0  0
 18 28  1  0  0  0  0
 18 29  2  0  0  0  0
 18 33  1  0  0  0  0
 19 21  2  0  0  0  0
 19 39  1  0  0  0  0
 20 22  2  0  0  0  0
 20 40  1  0  0  0  0
 21 48  1  0  0  0  0
 22 41  1  0  0  0  0
 23 81  1  0  0  0  0
 24 82  1  0  0  0  0
 25 27  2  0  0  0  0
 25 81  1  0  0  0  0
 26 83  1  0  0  0  0
 27 84  1  0  0  0  0
 28 62  2  0  0  0  0
 29 63  1  0  0  0  0
 29 66  1  0  0  0  0
 30 69  1  0  0  0  0
 30 80  1  0  0  0  0
 31 68  1  0  0  0  0
 31 80  1  0  0  0  0
 32 51  1  0  0  0  0
 32 73  2  0  0  0  0
 33 67  1  0  0  0  0
 33 74  2  0  0  0  0
 34 49  1  0  0  0  0
 34 70  1  0  0  0  0
 34 75  2  0  0  0  0
 35 57  1  0  0  0  0
 35 58  1  0  0  0  0
 35 76  2  0  0  0  0
 36 59  1  0  0  0  0
 36 64  1  0  0  0  0
 36 77  2  0  0  0  0
 37 60  1  0  0  0  0
 37 71  1  0  0  0  0
 37 78  2  0  0  0  0
 38 65  1  0  0  0  0
 38 68  1  0  0  0  0
 38 79  2  0  0  0  0
 39 42  1  0  0  0  0
 40 49  1  0  0  0  0
 41 64  1  0  0  0  0
 42 44  1  0  0  0  0
 43 45  1  0  0  0  0
 43 46  1  0  0  0  0
 44 48  1  0  0  0  0
 45 50  1  0  0  0  0
 46 65  1  0  0  0  0
 47 50  1  0  0  0  0
 47 65  1  0  0  0  0
 48 70  1  0  0  0  0
 49 64  1  0  0  0  0
 50 63  1  0  0  0  0
 52 60  1  0  0  0  0
 53 61  1  0  0  0  0
 54 61  1  0  0  0  0
 55 61  1  0  0  0  0
 56 72  1  0  0  0  0
 57 69  1  0  0  0  0
 58 82  1  0  0  0  0
 59 61  1  0  0  0  0
 59 71  1  0  0  0  0
 60 72  1  0  0  0  0
 62 63  1  0  0  0  0
M  CHG  1  72   1
M  ISO  4  38 100  58 101  68 100  82 101
M  END
> <Batch ID>
0159

> <Smiles>
CNC(C)C(=O)NC(C(=O)N1Cc2cc([101O:1][101CH2:1]C(=O)CNc3cc(C(C)=O)c([100NH:0][100C:0](=O)N4CCCC(n5nc(-c6ccc(Oc7ccc(F)cc7F)cc6)c(C(N)=O)c5N)C4)o3)ccc2CC1C(=O)NC1CCCc2ccccc21)C(C)(C)C

> <Shape>
0.278

> <Color>
0.076

> <Negative vol penalty>
0.000

$$$$

  -OEChem-04052303473D

 82 90  0     1  0  0  0  0  0999 V2000
  -28.5414  -11.0745   20.4719 C   0  0  0  0  0  0  0  0  0  0  0  0
  -28.7913  -12.3962   20.1170 C   0  0  0  0  0  0  0  0  0  0  0  0
  -19.2866  -28.3991   23.4856 C   0  0  0  0  0  0  0  0  0  0  0  0
  -20.1646  -26.4786   22.3117 C   0  0  0  0  0  0  0  0  0  0  0  0
  -27.2289  -10.6353   20.6405 C   0  0  0  0  0  0  0  0  0  0  0  0
  -27.7286  -13.2794   19.9294 C   0  0  0  0  0  0  0  0  0  0  0  0
  -28.5244  -17.7712   22.1282 C   0  0  0  0  0  0  0  0  0  0  0  0
  -17.9908  -27.9136   23.3108 C   0  0  0  0  0  0  0  0  0  0  0  0
  -18.8687  -25.9931   22.1370 C   0  0  0  0  0  0  0  0  0  0  0  0
  -29.3712  -18.6616   21.4694 C   0  0  0  0  0  0  0  0  0  0  0  0
  -15.8171  -24.0665   21.6966 C   0  0  0  0  0  0  0  0  0  0  0  0
  -15.5920  -22.7125   21.9451 C   0  0  0  0  0  0  0  0  0  0  0  0
  -30.6743  -27.6794   18.6839 C   0  0  0  0  0  0  0  0  0  0  0  0
  -29.7333  -28.7363   18.7142 C   0  0  0  0  0  0  0  0  0  0  0  0
  -27.4512  -19.8396   20.6063 C   0  0  0  0  0  0  0  0  0  0  0  0
  -16.3231  -23.0101   24.2285 C   0  0  0  0  0  0  0  0  0  0  0  0
  -20.3736  -27.6817   22.9860 C   0  0  0  0  0  0  0  0  0  0  0  0
  -22.5807  -27.9215   24.2426 C   0  0  0  0  0  0  0  0  0  0  0  0
  -26.1501  -11.5160   20.4643 C   0  0  0  0  0  0  0  0  0  0  0  0
  -27.1323  -17.9021   22.0220 C   0  0  0  0  0  0  0  0  0  0  0  0
  -26.4004  -12.8513   20.0945 C   0  0  0  0  0  0  0  0  0  0  0  0
  -26.5889  -18.9512   21.2668 C   0  0  0  0  0  0  0  0  0  0  0  0
  -17.7818  -26.7106   22.6365 C   0  0  0  0  0  0  0  0  0  0  0  0
  -28.8346  -19.6942   20.7060 C   0  0  0  0  0  0  0  0  0  0  0  0
  -16.2952  -24.8922   22.7141 C   0  0  0  0  0  0  0  0  0  0  0  0
  -15.8450  -22.1843   23.2110 C   0  0  0  0  0  0  0  0  0  0  0  0
  -16.5482  -24.3640   23.9800 C   0  0  0  0  0  0  0  0  0  0  0  0
  -21.7124  -28.1830   23.1657 C   0  0  0  0  0  0  0  0  0  0  0  0
  -30.0849  -26.6243   19.3407 C   0  0  0  0  0  0  0  0  0  0  0  0
  -23.7214  -28.6252   23.9426 C   0  0  0  0  0  0  0  0  0  0  0  0
  -28.6360  -28.2516   19.3871 C   0  0  0  0  0  0  0  0  0  0  0  0
  -22.3745  -27.1145   25.4096 C   0  0  0  0  0  0  0  0  0  0  0  0
  -30.7094  -25.3021   19.5513 C   0  0  0  0  0  0  0  0  0  0  0  0
  -24.7883  -16.0805   20.8857 C   0  0  0  0  0  0  0  0  0  0  0  0
  -22.9026  -18.4083   22.1300 C   0  0  0  0  0  0  0  0  0  0  0  0
  -30.3276  -22.8643   19.8377 C   0  0  0  0  0  0  0  0  0  0  0  0
  -22.5868  -21.6568   23.1271 C   0  0  0  0  0  0  0  0  0  0  0  0
  -26.9810  -30.1505   19.4250 C   0  0  0  0  0  0  0  0  0  0  0  0
  -24.7467  -10.9834   20.6114 C   0  0  0  0  0  0  0  0  0  0  0  0
  -26.2325  -16.9495   22.7605 C   0  0  0  0  0  0  0  0  0  0  0  0
  -25.1012  -19.1473   21.1373 C   0  0  0  0  0  0  0  0  0  0  0  0
  -23.6925  -12.0774   20.7600 C   0  0  0  0  0  0  0  0  0  0  0  0
  -24.7774  -32.4610   21.0007 C   0  0  0  0  0  0  0  0  0  0  0  0
  -23.9098  -13.1729   19.7211 C   0  0  0  0  0  0  0  0  0  0  0  0
  -23.8464  -31.5693   21.8255 C   0  0  0  0  0  0  0  0  0  0  0  0
  -25.1501  -31.8129   19.6685 C   0  0  0  0  0  0  0  0  0  0  0  0
  -24.7675  -29.5628   20.5956 C   0  0  0  0  0  0  0  0  0  0  0  0
  -25.2753  -13.8457   19.9063 C   0  0  1  0  0  0  0  0  0  0  0  0
  -24.8305  -16.8683   22.1645 C   0  0  1  0  0  0  0  0  0  0  0  0
  -24.4163  -30.1450   21.9745 C   0  0  2  0  0  0  0  0  0  0  0  0
  -20.9145  -23.2757   24.0651 C   0  0  0  0  0  0  0  0  0  0  0  0
  -21.5880  -18.6365   19.3859 C   0  0  0  0  0  0  0  0  0  0  0  0
  -20.6408  -20.8411   20.1003 C   0  0  0  0  0  0  0  0  0  0  0  0
  -20.0021  -18.7585   21.3158 C   0  0  0  0  0  0  0  0  0  0  0  0
  -24.2064  -22.0965   25.5648 C   0  0  0  0  0  0  0  0  0  0  0  0
  -29.1773  -21.8936   19.8686 C   0  0  0  0  0  0  0  0  0  1  0  0
  -22.3268  -19.7059   21.6167 C   0  0  1  0  0  0  0  0  0  0  0  0
  -22.0094  -22.2714   24.3894 C   0  0  2  0  0  0  0  0  0  0  0  0
  -21.1675  -19.4809   20.6054 C   0  0  0  0  0  0  0  0  0  0  0  0
  -22.2550  -28.9900   22.2501 N   0  0  0  0  0  0  0  0  0  0  0  0
  -23.4764  -29.2418   22.7509 N   0  0  0  0  0  0  0  0  0  0  0  0
  -24.2630  -18.1863   21.8730 N   0  0  0  0  0  0  0  0  0  0  0  0
  -25.6867  -30.4681   19.8884 N   0  0  0  0  0  0  0  0  0  0  0  0
  -24.9000  -28.7707   24.5846 N   0  0  0  0  0  0  0  0  0  0  0  0
  -21.1441  -26.4605   25.5609 N   0  0  0  0  0  0  0  0  0  0  0  0
  -27.3969  -28.8527   19.7203 N   0  0  0  0  0  0  0  0  0  0  0  0
  -29.9089  -24.2298   19.6253 N   0  0  0  0  0  0  0  0  0  0  0  0
  -25.2334  -14.7784   21.0120 N   0  0  0  0  0  0  0  0  0  0  0  0
  -21.9502  -20.4796   22.7949 N   0  0  0  0  0  0  0  0  0  0  0  0
  -32.0373  -25.2527   19.6533 N   0  3  0  0  0  0  0  0  0  0  0  0
  -23.0762  -22.9714   25.1594 N   0  3  0  0  0  0  0  0  0  0  0  0
  -23.2492  -26.9906   26.3001 O   0  0  0  0  0  0  0  0  0  0  0  0
  -24.3806  -16.6140   19.8606 O   0  0  0  0  0  0  0  0  0  0  0  0
  -22.1741  -17.6238   22.7427 O   0  0  0  0  0  0  0  0  0  0  0  0
  -31.5050  -22.5645   19.9734 O   0  0  0  0  0  0  0  0  0  0  0  0
  -23.5077  -22.1715   22.4966 O   0  0  0  0  0  0  0  0  0  0  0  0
  -27.6804  -30.9782   18.8353 O   0  0  0  0  0  0  0  0  0  0  0  0
  -28.8422  -26.9649   19.7723 O   0  0  0  0  0  0  0  0  0  0  0  0
  -16.5174  -26.2364   22.4660 O   0  0  0  0  0  0  0  0  0  0  0  0
  -29.6589  -20.5642   20.0613 O   0  0  0  0  0  0  0  0  0  1  0  0
  -15.6274  -20.8844   23.4499 F   0  0  0  0  0  0  0  0  0  0  0  0
  -17.0065  -25.1526   24.9618 F   0  0  0  0  0  0  0  0  0  0  0  0
  1  2  1  0  0  0  0
  1  5  2  0  0  0  0
  2  6  2  0  0  0  0
  3  8  2  0  0  0  0
  3 17  1  0  0  0  0
  4  9  1  0  0  0  0
  4 17  2  0  0  0  0
  5 19  1  0  0  0  0
  6 21  1  0  0  0  0
  7 10  2  0  0  0  0
  7 20  1  0  0  0  0
  8 23  1  0  0  0  0
  9 23  2  0  0  0  0
 10 24  1  0  0  0  0
 11 12  2  0  0  0  0
 11 25  1  0  0  0  0
 12 26  1  0  0  0  0
 13 14  1  0  0  0  0
 13 29  2  0  0  0  0
 14 31  2  0  0  0  0
 15 22  1  0  0  0  0
 15 24  2  0  0  0  0
 16 26  2  0  0  0  0
 16 27  1  0  0  0  0
 17 28  1  0  0  0  0
 18 28  1  0  0  0  0
 18 30  2  0  0  0  0
 18 32  1  0  0  0  0
 19 21  2  0  0  0  0
 19 39  1  0  0  0  0
 20 22  2  0  0  0  0
 20 40  1  0  0  0  0
 21 48  1  0  0  0  0
 22 41  1  0  0  0  0
 23 79  1  0  0  0  0
 24 80  1  0  0  0  0
 25 27  2  0  0  0  0
 25 79  1  0  0  0  0
 26 81  1  0  0  0  0
 27 82  1  0  0  0  0
 28 60  2  0  0  0  0
 29 33  1  0  0  0  0
 29 78  1  0  0  0  0
 30 61  1  0  0  0  0
 30 64  1  0  0  0  0
 31 66  1  0  0  0  0
 31 78  1  0  0  0  0
 32 65  1  0  0  0  0
 32 72  2  0  0  0  0
 33 67  1  0  0  0  0
 33 70  2  0  0  0  0
 34 49  1  0  0  0  0
 34 68  1  0  0  0  0
 34 73  2  0  0  0  0
 35 57  1  0  0  0  0
 35 62  1  0  0  0  0
 35 74  2  0  0  0  0
 36 56  1  0  0  0  0
 36 67  1  0  0  0  0
 36 75  2  0  0  0  0
 37 58  1  0  0  0  0
 37 69  1  0  0  0  0
 37 76  2  0  0  0  0
 38 63  1  0  0  0  0
 38 66  1  0  0  0  0
 38 77  2  0  0  0  0
 39 42  1  0  0  0  0
 40 49  1  0  0  0  0
 41 62  1  0  0  0  0
 42 44  1  0  0  0  0
 43 45  1  0  0  0  0
 43 46  1  0  0  0  0
 44 48  1  0  0  0  0
 45 50  1  0  0  0  0
 46 63  1  0  0  0  0
 47 50  1  0  0  0  0
 47 63  1  0  0  0  0
 48 68  1  0  0  0  0
 49 62  1  0  0  0  0
 50 61  1  0  0  0  0
 51 58  1  0  0  0  0
 52 59  1  0  0  0  0
 53 59  1  0  0  0  0
 54 59  1  0  0  0  0
 55 71  1  0  0  0  0
 56 80  1  0  0  0  0
 57 59  1  0  0  0  0
 57 69  1  0  0  0  0
 58 71  1  0  0  0  0
 60 61  1  0  0  0  0
M  CHG  2  70   1  71   1
M  ISO  4  38 100  56 101  66 100  80 101
M  END
> <Batch ID>
0159

> <Smiles>
CNC(C)C(=O)NC(C(=O)N1Cc2cc([101O:1][101CH2:1]C(=O)NC(=N)c3ccc([100NH:0][100C:0](=O)N4CCCC(n5nc(-c6ccc(Oc7ccc(F)cc7F)cc6)c(C(N)=O)c5N)C4)o3)ccc2CC1C(=O)NC1CCCc2ccccc21)C(C)(C)C

> <Shape>
0.231

> <Color>
0.080

> <Negative vol penalty>
0.000

$$$$

  -OEChem-04052303473D

 83 91  0     1  0  0  0  0  0999 V2000
  -29.5367  -35.8135   23.4267 C   0  0  0  0  0  0  0  0  0  0  0  0
  -29.3026  -34.4442   23.5031 C   0  0  0  0  0  0  0  0  0  0  0  0
  -24.6171   -8.5111   21.3319 C   0  0  0  0  0  0  0  0  0  0  0  0
  -23.3940  -10.5232   21.8727 C   0  0  0  0  0  0  0  0  0  0  0  0
  -28.4731  -36.7084   23.5346 C   0  0  0  0  0  0  0  0  0  0  0  0
  -28.0048  -33.9692   23.6885 C   0  0  0  0  0  0  0  0  0  0  0  0
  -26.9074  -30.0755   20.6422 C   0  0  0  0  0  0  0  0  0  0  0  0
  -23.9502   -7.8316   22.3513 C   0  0  0  0  0  0  0  0  0  0  0  0
  -22.7271   -9.8437   22.8922 C   0  0  0  0  0  0  0  0  0  0  0  0
  -27.4087  -28.8251   21.0013 C   0  0  0  0  0  0  0  0  0  0  0  0
  -20.9232   -6.4019   22.8264 C   0  0  0  0  0  0  0  0  0  0  0  0
  -20.4268   -5.1301   22.5409 C   0  0  0  0  0  0  0  0  0  0  0  0
  -25.2580  -28.2335   21.9198 C   0  0  0  0  0  0  0  0  0  0  0  0
  -26.9230  -18.2139   21.0145 C   0  0  0  0  0  0  0  0  0  0  0  0
  -21.8092   -4.1979   24.2894 C   0  0  0  0  0  0  0  0  0  0  0  0
  -29.1101  -18.4703   20.6582 C   0  0  0  0  0  0  0  0  0  0  0  0
  -24.3391   -9.8569   21.0926 C   0  0  0  0  0  0  0  0  0  0  0  0
  -24.6295  -10.6789   18.6952 C   0  0  0  0  0  0  0  0  0  0  0  0
  -27.1603  -36.2438   23.7118 C   0  0  0  0  0  0  0  0  0  0  0  0
  -25.5785  -30.4189   20.9294 C   0  0  0  0  0  0  0  0  0  0  0  0
  -26.9228  -34.8588   23.8002 C   0  0  0  0  0  0  0  0  0  0  0  0
  -24.7416  -29.4879   21.5609 C   0  0  0  0  0  0  0  0  0  0  0  0
  -28.1205  -17.5173   20.7252 C   0  0  0  0  0  0  0  0  0  0  0  0
  -23.0052   -8.4980   23.1314 C   0  0  0  0  0  0  0  0  0  0  0  0
  -26.5848  -27.9049   21.6428 C   0  0  0  0  0  0  0  0  0  0  0  0
  -21.8628   -6.5718   23.8434 C   0  0  0  0  0  0  0  0  0  0  0  0
  -20.8697   -4.0281   23.2724 C   0  0  0  0  0  0  0  0  0  0  0  0
  -22.3057   -5.4698   24.5749 C   0  0  0  0  0  0  0  0  0  0  0  0
  -25.0280  -10.5594   20.0401 C   0  0  0  0  0  0  0  0  0  0  0  0
  -27.2662  -19.5429   21.1040 C   0  0  0  0  0  0  0  0  0  0  0  0
  -25.6152  -11.4362   18.1109 C   0  0  0  0  0  0  0  0  0  0  0  0
  -23.4717  -10.1525   18.0333 C   0  0  0  0  0  0  0  0  0  0  0  0
  -26.3244  -20.6425   21.3947 C   0  0  0  0  0  0  0  0  0  0  0  0
  -24.1714  -32.6500   22.7031 C   0  0  0  0  0  0  0  0  0  0  0  0
  -26.8447  -24.2876   21.7196 C   0  0  0  0  0  0  0  0  0  0  0  0
  -21.4686  -31.4569   21.3637 C   0  0  0  0  0  0  0  0  0  0  0  0
  -19.8942  -28.8230   19.8702 C   0  0  0  0  0  0  0  0  0  0  0  0
  -29.4857  -15.4537   20.2516 C   0  0  0  0  0  0  0  0  0  0  0  0
  -26.0490  -37.2510   23.8706 C   0  0  0  0  0  0  0  0  0  0  0  0
  -25.0454  -31.7619   20.5114 C   0  0  0  0  0  0  0  0  0  0  0  0
  -23.3017  -29.8001   21.8736 C   0  0  0  0  0  0  0  0  0  0  0  0
  -24.6556  -36.6540   23.6905 C   0  0  0  0  0  0  0  0  0  0  0  0
  -30.2779  -12.4577   18.4985 C   0  0  0  0  0  0  0  0  0  0  0  0
  -24.5263  -35.3535   24.4771 C   0  0  0  0  0  0  0  0  0  0  0  0
  -28.9833  -11.6444   18.5672 C   0  0  0  0  0  0  0  0  0  0  0  0
  -30.5226  -13.2441   19.7851 C   0  0  0  0  0  0  0  0  0  0  0  0
  -28.1103  -13.2805   20.2842 C   0  0  0  0  0  0  0  0  0  0  0  0
  -25.5259  -34.3040   23.9760 C   0  0  1  0  0  0  0  0  0  0  0  0
  -23.8226  -32.1955   21.3140 C   0  0  1  0  0  0  0  0  0  0  0  0
  -27.7878  -12.5223   18.9862 C   0  0  2  0  0  0  0  0  0  0  0  0
  -17.6751  -28.1349   18.9217 C   0  0  0  0  0  0  0  0  0  0  0  0
  -20.3708  -31.1105   24.1895 C   0  0  0  0  0  0  0  0  0  0  0  0
  -18.6214  -29.5869   23.2481 C   0  0  0  0  0  0  0  0  0  0  0  0
  -18.7149  -31.9726   22.5254 C   0  0  0  0  0  0  0  0  0  0  0  0
  -21.0484  -28.3874   17.1801 C   0  0  0  0  0  0  0  0  0  0  0  0
  -25.9689  -23.0624   21.7325 C   0  0  0  0  0  0  0  0  0  0  0  0
  -26.1460  -25.5984   22.0210 C   0  0  0  0  0  0  0  0  0  1  0  0
  -20.4912  -30.3633   21.7210 C   0  0  1  0  0  0  0  0  0  0  0  0
  -19.0378  -28.7389   18.6197 C   0  0  2  0  0  0  0  0  0  0  0  0
  -19.5772  -30.7528   22.9170 C   0  0  0  0  0  0  0  0  0  0  0  0
  -26.1774  -11.1901   20.2952 N   0  0  0  0  0  0  0  0  0  0  0  0
  -26.5096  -11.7131   19.1026 N   0  0  0  0  0  0  0  0  0  0  0  0
  -22.8289  -31.1287   21.4507 N   0  0  0  0  0  0  0  0  0  0  0  0
  -29.3497  -14.0558   20.1173 N   0  0  0  0  0  0  0  0  0  0  0  0
  -25.7955  -11.8854   16.8507 N   0  0  0  0  0  0  0  0  0  0  0  0
  -22.5600   -9.3961   18.7823 N   0  0  0  0  0  0  0  0  0  0  0  0
  -25.0413  -20.3362   21.5870 N   0  0  0  0  0  0  0  0  0  0  0  0
  -28.2966  -16.1241   20.5365 N   0  0  0  0  0  0  0  0  0  0  0  0
  -25.0581  -33.7090   22.7425 N   0  0  0  0  0  0  0  0  0  0  0  0
  -19.7676  -30.0458   20.4946 N   0  0  0  0  0  0  0  0  0  0  0  0
  -26.7978  -21.8978   21.4505 N   0  3  0  0  0  0  0  0  0  0  0  0
  -19.7074  -27.8961   17.5890 N   0  3  0  0  0  0  0  0  0  0  0  0
  -23.2605  -10.3334   16.8101 O   0  0  0  0  0  0  0  0  0  0  0  0
  -23.6717  -32.0829   23.6676 O   0  0  0  0  0  0  0  0  0  0  0  0
  -28.0504  -24.2362   21.4803 O   0  0  0  0  0  0  0  0  0  0  0  0
  -21.0408  -32.5596   21.0133 O   0  0  0  0  0  0  0  0  0  0  0  0
  -20.6016  -27.8953   20.2567 O   0  0  0  0  0  0  0  0  0  0  0  0
  -30.5718  -16.0179   20.0966 O   0  0  0  0  0  0  0  0  0  0  0  0
  -28.5977  -19.7076   20.8881 O   0  0  0  0  0  0  0  0  0  0  0  0
  -22.3541   -7.8352   24.1261 O   0  0  0  0  0  0  0  0  0  0  0  0
  -27.0717  -26.6840   21.9951 O   0  0  0  0  0  0  0  0  0  1  0  0
  -20.3917   -2.8070   22.9992 F   0  0  0  0  0  0  0  0  0  0  0  0
  -23.2073   -5.6269   25.5538 F   0  0  0  0  0  0  0  0  0  0  0  0
  1  2  1  0  0  0  0
  1  5  2  0  0  0  0
  2  6  2  0  0  0  0
  3  8  2  0  0  0  0
  3 17  1  0  0  0  0
  4  9  1  0  0  0  0
  4 17  2  0  0  0  0
  5 19  1  0  0  0  0
  6 21  1  0  0  0  0
  7 10  2  0  0  0  0
  7 20  1  0  0  0  0
  8 24  1  0  0  0  0
  9 24  2  0  0  0  0
 10 25  1  0  0  0  0
 11 12  2  0  0  0  0
 11 26  1  0  0  0  0
 12 27  1  0  0  0  0
 13 22  1  0  0  0  0
 13 25  2  0  0  0  0
 14 23  1  0  0  0  0
 14 30  2  0  0  0  0
 15 27  2  0  0  0  0
 15 28  1  0  0  0  0
 16 23  2  0  0  0  0
 16 79  1  0  0  0  0
 17 29  1  0  0  0  0
 18 29  1  0  0  0  0
 18 31  2  0  0  0  0
 18 32  1  0  0  0  0
 19 21  2  0  0  0  0
 19 39  1  0  0  0  0
 20 22  2  0  0  0  0
 20 40  1  0  0  0  0
 21 48  1  0  0  0  0
 22 41  1  0  0  0  0
 23 68  1  0  0  0  0
 24 80  1  0  0  0  0
 25 81  1  0  0  0  0
 26 28  2  0  0  0  0
 26 80  1  0  0  0  0
 27 82  1  0  0  0  0
 28 83  1  0  0  0  0
 29 61  2  0  0  0  0
 30 33  1  0  0  0  0
 30 79  1  0  0  0  0
 31 62  1  0  0  0  0
 31 65  1  0  0  0  0
 32 66  1  0  0  0  0
 32 73  2  0  0  0  0
 33 67  1  0  0  0  0
 33 71  2  0  0  0  0
 34 49  1  0  0  0  0
 34 69  1  0  0  0  0
 34 74  2  0  0  0  0
 35 56  1  0  0  0  0
 35 57  1  0  0  0  0
 35 75  2  0  0  0  0
 36 58  1  0  0  0  0
 36 63  1  0  0  0  0
 36 76  2  0  0  0  0
 37 59  1  0  0  0  0
 37 70  1  0  0  0  0
 37 77  2  0  0  0  0
 38 64  1  0  0  0  0
 38 68  1  0  0  0  0
 38 78  2  0  0  0  0
 39 42  1  0  0  0  0
 40 49  1  0  0  0  0
 41 63  1  0  0  0  0
 42 44  1  0  0  0  0
 43 45  1  0  0  0  0
 43 46  1  0  0  0  0
 44 48  1  0  0  0  0
 45 50  1  0  0  0  0
 46 64  1  0  0  0  0
 47 50  1  0  0  0  0
 47 64  1  0  0  0  0
 48 69  1  0  0  0  0
 49 63  1  0  0  0  0
 50 62  1  0  0  0  0
 51 59  1  0  0  0  0
 52 60  1  0  0  0  0
 53 60  1  0  0  0  0
 54 60  1  0  0  0  0
 55 72  1  0  0  0  0
 56 71  1  0  0  0  0
 57 81  1  0  0  0  0
 58 60  1  0  0  0  0
 58 70  1  0  0  0  0
 59 72  1  0  0  0  0
 61 62  1  0  0  0  0
M  CHG  2  71   1  72   1
M  ISO  4  38 100  57 101  68 100  81 101
M  END
> <Batch ID>
0159

> <Smiles>
CNC(C)C(=O)NC(C(=O)N1Cc2cc([101O:1][101CH2:1]C(=O)CNC(=N)c3cc([100NH:0][100C:0](=O)N4CCCC(n5nc(-c6ccc(Oc7ccc(F)cc7F)cc6)c(C(N)=O)c5N)C4)co3)ccc2CC1C(=O)NC1CCCc2ccccc21)C(C)(C)C

> <Shape>
0.278

> <Color>
0.088

> <Negative vol penalty>
0.000

$$$$

  -OEChem-04052303473D

 88 96  0     1  0  0  0  0  0999 V2000
  -34.5758  -13.5334   21.9923 C   0  0  0  0  0  0  0  0  0  0  0  0
  -33.9425  -14.5425   22.7108 C   0  0  0  0  0  0  0  0  0  0  0  0
  -26.3962  -25.5585   21.4158 C   0  0  0  0  0  0  0  0  0  0  0  0
  -26.0643  -25.3380   19.0329 C   0  0  0  0  0  0  0  0  0  0  0  0
  -34.0559  -13.1206   20.7663 C   0  0  0  0  0  0  0  0  0  0  0  0
  -32.7895  -15.1402   22.2029 C   0  0  0  0  0  0  0  0  0  0  0  0
  -26.6202  -18.0841   24.3450 C   0  0  0  0  0  0  0  0  0  0  0  0
  -26.3137  -24.1731   21.5556 C   0  0  0  0  0  0  0  0  0  0  0  0
  -25.9818  -23.9526   19.1726 C   0  0  0  0  0  0  0  0  0  0  0  0
  -25.8683  -19.2470   24.1832 C   0  0  0  0  0  0  0  0  0  0  0  0
  -26.0439  -20.3314   18.8537 C   0  0  0  0  0  0  0  0  0  0  0  0
  -26.7478  -19.5440   17.9426 C   0  0  0  0  0  0  0  0  0  0  0  0
  -22.1834  -25.5802   23.7222 C   0  0  0  0  0  0  0  0  0  0  0  0
  -25.0160  -18.3978   22.0923 C   0  0  0  0  0  0  0  0  0  0  0  0
  -28.8164  -20.5688   18.6549 C   0  0  0  0  0  0  0  0  0  0  0  0
  -22.3596  -27.2070   25.3728 C   0  0  0  0  0  0  0  0  0  0  0  0
  -26.2714  -26.1409   20.1545 C   0  0  0  0  0  0  0  0  0  0  0  0
  -21.7833  -26.8733   24.1670 C   0  0  0  0  0  0  0  0  0  0  0  0
  -27.5155  -28.3359   19.7773 C   0  0  0  0  0  0  0  0  0  0  0  0
  -32.8905  -13.7068   20.2477 C   0  0  0  0  0  0  0  0  0  0  0  0
  -26.5840  -17.0724   23.3747 C   0  0  0  0  0  0  0  0  0  0  0  0
  -32.2544  -14.7358   20.9681 C   0  0  0  0  0  0  0  0  0  0  0  0
  -25.7664  -17.2220   22.2454 C   0  0  0  0  0  0  0  0  0  0  0  0
  -26.1065  -23.3701   20.4340 C   0  0  0  0  0  0  0  0  0  0  0  0
  -25.0683  -19.4053   23.0553 C   0  0  0  0  0  0  0  0  0  0  0  0
  -26.7263  -21.2377   19.6653 C   0  0  0  0  0  0  0  0  0  0  0  0
  -28.1340  -19.6626   17.8433 C   0  0  0  0  0  0  0  0  0  0  0  0
  -28.1126  -21.3564   19.5660 C   0  0  0  0  0  0  0  0  0  0  0  0
  -26.3560  -27.5720   20.0096 C   0  0  0  0  0  0  0  0  0  0  0  0
  -27.0664  -29.6326   19.7189 C   0  0  0  0  0  0  0  0  0  0  0  0
  -23.0506  -24.9748   24.6051 C   0  0  0  0  0  0  0  0  0  0  0  0
  -20.8590  -27.7514   23.4215 C   0  0  0  0  0  0  0  0  0  0  0  0
  -28.8767  -27.9113   19.6274 C   0  0  0  0  0  0  0  0  0  0  0  0
  -28.7293  -15.7338   21.4487 C   0  0  0  0  0  0  0  0  0  0  0  0
  -26.2684  -13.7466   20.7294 C   0  0  0  0  0  0  0  0  0  0  0  0
  -23.5743  -22.7423   23.5680 C   0  0  0  0  0  0  0  0  0  0  0  0
  -22.8959  -13.2403   20.6010 C   0  0  0  0  0  0  0  0  0  0  0  0
  -18.3863  -28.1813   23.1117 C   0  0  0  0  0  0  0  0  0  0  0  0
  -22.6390  -29.2688   22.5057 C   0  0  0  0  0  0  0  0  0  0  0  0
  -32.3929  -13.2601   18.8959 C   0  0  0  0  0  0  0  0  0  0  0  0
  -27.3803  -15.8125   23.5771 C   0  0  0  0  0  0  0  0  0  0  0  0
  -25.6768  -16.1567   21.1845 C   0  0  0  0  0  0  0  0  0  0  0  0
  -30.9558  -13.6850   18.6050 C   0  0  0  0  0  0  0  0  0  0  0  0
  -22.3485  -31.1781   19.2030 C   0  0  0  0  0  0  0  0  0  0  0  0
  -30.7496  -15.1526   18.9662 C   0  0  0  0  0  0  0  0  0  0  0  0
  -23.7171  -30.6499   18.7853 C   0  0  0  0  0  0  0  0  0  0  0  0
  -21.8118  -30.3845   20.3919 C   0  0  0  0  0  0  0  0  0  0  0  0
  -24.0689  -30.8926   21.3213 C   0  0  0  0  0  0  0  0  0  0  0  0
  -30.9877  -15.3912   20.4622 C   0  0  1  0  0  0  0  0  0  0  0  0
  -27.6646  -15.0697   22.2752 C   0  0  1  0  0  0  0  0  0  0  0  0
  -24.7372  -30.7302   19.9411 C   0  0  1  0  0  0  0  0  0  0  0  0
  -21.1846  -11.5311   19.9321 C   0  0  0  0  0  0  0  0  0  0  0  0
  -16.9688  -27.8365   25.1373 C   0  0  0  0  0  0  0  0  0  0  0  0
  -16.9159  -26.1558   23.2668 C   0  0  0  0  0  0  0  0  0  0  0  0
  -15.7931  -28.3522   22.9953 C   0  0  0  0  0  0  0  0  0  0  0  0
  -26.7476  -14.4199   17.7922 C   0  0  0  0  0  0  0  0  0  0  0  0
  -24.4848  -13.4789   17.2795 C   0  0  0  0  0  0  0  0  0  0  0  0
  -26.2555  -12.0097   18.2432 C   0  0  0  0  0  0  0  0  0  0  0  0
  -21.8246  -13.0657   23.3543 C   0  0  0  0  0  0  0  0  0  0  0  0
  -24.4205  -21.5292   23.9070 C   0  0  0  0  0  0  0  0  0  1  0  0
  -25.1546  -13.7497   19.7104 C   0  0  1  0  0  0  0  0  0  0  0  0
  -22.0327  -12.0822   21.0678 C   0  0  2  0  0  0  0  0  0  0  0  0
  -17.0240  -27.6552   23.6106 C   0  0  0  0  0  0  0  0  0  0  0  0
  -25.6636  -13.4356   18.2752 C   0  0  0  0  0  0  0  0  0  0  0  0
  -25.2533  -28.3210   20.0934 N   0  0  0  0  0  0  0  0  0  0  0  0
  -25.7178  -29.5691   19.9127 N   0  0  0  0  0  0  0  0  0  0  0  0
  -26.4791  -14.9458   21.4247 N   0  0  0  0  0  0  0  0  0  0  0  0
  -22.8182  -30.1429   21.4318 N   0  0  0  0  0  0  0  0  0  0  0  0
  -27.6975  -30.8095   19.5214 N   0  0  0  0  0  0  0  0  0  0  0  0
  -29.1630  -26.5421   19.7150 N   0  0  0  0  0  0  0  0  0  0  0  0
  -23.6633  -23.7532   24.5617 N   0  0  0  0  0  0  0  0  0  0  0  0
  -21.3399  -28.6230   22.5207 N   0  0  0  0  0  0  0  0  0  0  0  0
  -29.8455  -14.9483   21.2327 N   0  0  0  0  0  0  0  0  0  0  0  0
  -24.1469  -12.8175   20.2043 N   0  0  0  0  0  0  0  0  0  0  0  0
  -18.3991  -29.1927   22.3198 N   0  3  0  0  0  0  0  0  0  0  0  0
  -19.5552  -27.5230   23.6575 N   0  3  0  0  0  0  0  0  0  0  0  0
  -21.1228  -12.5227   22.1628 N   0  3  0  0  0  0  0  0  0  0  0  0
  -29.8137  -28.7235   19.4383 O   0  0  0  0  0  0  0  0  0  0  0  0
  -28.5507  -16.8738   21.0362 O   0  0  0  0  0  0  0  0  0  0  0  0
  -26.9226  -12.7161   20.9072 O   0  0  0  0  0  0  0  0  0  0  0  0
  -22.9073  -22.7934   22.5399 O   0  0  0  0  0  0  0  0  0  0  0  0
  -22.4987  -14.4033   20.5859 O   0  0  0  0  0  0  0  0  0  0  0  0
  -23.4570  -29.0438   23.3901 O   0  0  0  0  0  0  0  0  0  0  0  0
  -26.0262  -22.0182   20.5699 O   0  0  0  0  0  0  0  0  0  0  0  0
  -24.3263  -20.5514   22.8930 O   0  0  0  0  0  0  0  0  0  1  0  0
  -28.8100  -18.9052   16.9694 F   0  0  0  0  0  0  0  0  0  0  0  0
  -28.7737  -22.2244   20.3439 F   0  0  0  0  0  0  0  0  0  0  0  0
  -23.3786  -25.9642   25.9637 S   0  0  0  0  0  0  0  0  0  0  0  0
  1  2  1  0  0  0  0
  1  5  2  0  0  0  0
  2  6  2  0  0  0  0
  3  8  2  0  0  0  0
  3 17  1  0  0  0  0
  4  9  1  0  0  0  0
  4 17  2  0  0  0  0
  5 20  1  0  0  0  0
  6 22  1  0  0  0  0
  7 10  2  0  0  0  0
  7 21  1  0  0  0  0
  8 24  1  0  0  0  0
  9 24  2  0  0  0  0
 10 25  1  0  0  0  0
 11 12  2  0  0  0  0
 11 26  1  0  0  0  0
 12 27  1  0  0  0  0
 13 18  1  0  0  0  0
 13 31  2  0  0  0  0
 14 23  1  0  0  0  0
 14 25  2  0  0  0  0
 15 27  2  0  0  0  0
 15 28  1  0  0  0  0
 16 18  2  0  0  0  0
 16 88  1  0  0  0  0
 17 29  1  0  0  0  0
 18 32  1  0  0  0  0
 19 29  1  0  0  0  0
 19 30  2  0  0  0  0
 19 33  1  0  0  0  0
 20 22  2  0  0  0  0
 20 40  1  0  0  0  0
 21 23  2  0  0  0  0
 21 41  1  0  0  0  0
 22 49  1  0  0  0  0
 23 42  1  0  0  0  0
 24 84  1  0  0  0  0
 25 85  1  0  0  0  0
 26 28  2  0  0  0  0
 26 84  1  0  0  0  0
 27 86  1  0  0  0  0
 28 87  1  0  0  0  0
 29 65  2  0  0  0  0
 30 66  1  0  0  0  0
 30 69  1  0  0  0  0
 31 71  1  0  0  0  0
 31 88  1  0  0  0  0
 32 72  1  0  0  0  0
 32 76  2  0  0  0  0
 33 70  1  0  0  0  0
 33 78  2  0  0  0  0
 34 50  1  0  0  0  0
 34 73  1  0  0  0  0
 34 79  2  0  0  0  0
 35 61  1  0  0  0  0
 35 67  1  0  0  0  0
 35 80  2  0  0  0  0
 36 60  1  0  0  0  0
 36 71  1  0  0  0  0
 36 81  2  0  0  0  0
 37 62  1  0  0  0  0
 37 74  1  0  0  0  0
 37 82  2  0  0  0  0
 38 63  1  0  0  0  0
 38 75  2  0  0  0  0
 38 76  1  0  0  0  0
 39 68  1  0  0  0  0
 39 72  1  0  0  0  0
 39 83  2  0  0  0  0
 40 43  1  0  0  0  0
 41 50  1  0  0  0  0
 42 67  1  0  0  0  0
 43 45  1  0  0  0  0
 44 46  1  0  0  0  0
 44 47  1  0  0  0  0
 45 49  1  0  0  0  0
 46 51  1  0  0  0  0
 47 68  1  0  0  0  0
 48 51  1  0  0  0  0
 48 68  1  0  0  0  0
 49 73  1  0  0  0  0
 50 67  1  0  0  0  0
 51 66  1  0  0  0  0
 52 62  1  0  0  0  0
 53 63  1  0  0  0  0
 54 63  1  0  0  0  0
 55 63  1  0  0  0  0
 56 64  1  0  0  0  0
 57 64  1  0  0  0  0
 58 64  1  0  0  0  0
 59 77  1  0  0  0  0
 60 85  1  0  0  0  0
 61 64  1  0  0  0  0
 61 74  1  0  0  0  0
 62 77  1  0  0  0  0
 65 66  1  0  0  0  0
M  CHG  3  75   1  76   1  77   1
M  ISO  4  39 100  60 101  72 100  85 101
M  END
> <Batch ID>
0159

> <Smiles>
CNC(C)C(=O)NC(C(=O)N1Cc2cc([101O:1][101CH2:1]C(=O)Nc3cc(C(=NC(=N)C(C)(C)C)[100NH:0][100C:0](=O)N4CCCC(n5nc(-c6ccc(Oc7ccc(F)cc7F)cc6)c(C(N)=O)c5N)C4)cs3)ccc2CC1C(=O)NC1CCCc2ccccc21)C(C)(C)C

> <Shape>
0.233

> <Color>
0.066

> <Negative vol penalty>
0.000

$$$$

  -OEChem-04052303473D

 88 96  0     1  0  0  0  0  0999 V2000
  -28.9824  -36.3523   19.1666 C   0  0  0  0  0  0  0  0  0  0  0  0
  -28.6175  -35.2113   18.4593 C   0  0  0  0  0  0  0  0  0  0  0  0
  -24.7241   -8.7824   21.3282 C   0  0  0  0  0  0  0  0  0  0  0  0
  -23.3164  -10.7442   21.4079 C   0  0  0  0  0  0  0  0  0  0  0  0
  -29.1111  -36.2998   20.5539 C   0  0  0  0  0  0  0  0  0  0  0  0
  -28.3822  -34.0166   19.1389 C   0  0  0  0  0  0  0  0  0  0  0  0
  -24.3113  -28.1300   18.8363 C   0  0  0  0  0  0  0  0  0  0  0  0
  -23.9392   -8.1792   22.3108 C   0  0  0  0  0  0  0  0  0  0  0  0
  -22.5313  -10.1410   22.3905 C   0  0  0  0  0  0  0  0  0  0  0  0
  -24.4241  -26.7404   18.8520 C   0  0  0  0  0  0  0  0  0  0  0  0
  -20.9616   -6.5871   22.4907 C   0  0  0  0  0  0  0  0  0  0  0  0
  -20.5919   -5.2560   22.2983 C   0  0  0  0  0  0  0  0  0  0  0  0
  -24.5996  -26.7878   21.2574 C   0  0  0  0  0  0  0  0  0  0  0  0
  -26.2301  -19.7509   20.0938 C   0  0  0  0  0  0  0  0  0  0  0  0
  -21.7202   -4.6467   24.3459 C   0  0  0  0  0  0  0  0  0  0  0  0
  -28.7944  -18.8182   20.0809 C   0  0  0  0  0  0  0  0  0  0  0  0
  -24.4128  -10.0650   20.8768 C   0  0  0  0  0  0  0  0  0  0  0  0
  -25.0445  -10.6172   18.4677 C   0  0  0  0  0  0  0  0  0  0  0  0
  -28.8678  -35.1063   21.2518 C   0  0  0  0  0  0  0  0  0  0  0  0
  -24.3528  -28.8609   20.0323 C   0  0  0  0  0  0  0  0  0  0  0  0
  -28.5091  -33.9477   20.5367 C   0  0  0  0  0  0  0  0  0  0  0  0
  -24.4845  -28.1863   21.2544 C   0  0  0  0  0  0  0  0  0  0  0  0
  -26.4572  -18.3794   20.1211 C   0  0  0  0  0  0  0  0  0  0  0  0
  -27.7608  -17.8960   20.1147 C   0  0  0  0  0  0  0  0  0  0  0  0
  -22.8427   -8.8585   22.8419 C   0  0  0  0  0  0  0  0  0  0  0  0
  -24.5712  -26.0693   20.0624 C   0  0  0  0  0  0  0  0  0  0  0  0
  -21.7107   -6.9480   23.6106 C   0  0  0  0  0  0  0  0  0  0  0  0
  -20.9711   -4.2857   23.2259 C   0  0  0  0  0  0  0  0  0  0  0  0
  -22.0900   -5.9778   24.5383 C   0  0  0  0  0  0  0  0  0  0  0  0
  -25.2237  -10.6888   19.8622 C   0  0  0  0  0  0  0  0  0  0  0  0
  -27.3321  -20.5901   20.0611 C   0  0  0  0  0  0  0  0  0  0  0  0
  -26.0679  -11.3735   17.9507 C   0  0  0  0  0  0  0  0  0  0  0  0
  -24.0426   -9.9286   17.7076 C   0  0  0  0  0  0  0  0  0  0  0  0
  -26.2764  -31.0875   21.2348 C   0  0  0  0  0  0  0  0  0  0  0  0
  -24.0519  -31.1810   23.5938 C   0  0  0  0  0  0  0  0  0  0  0  0
  -21.5611  -29.5817   25.2923 C   0  0  0  0  0  0  0  0  0  0  0  0
  -25.8623  -22.6356   20.0322 C   0  0  0  0  0  0  0  0  0  0  0  0
  -29.3005  -15.9021   20.1295 C   0  0  0  0  0  0  0  0  0  0  0  0
  -29.0657  -35.0864   22.7468 C   0  0  0  0  0  0  0  0  0  0  0  0
  -24.2029  -30.3572   20.0005 C   0  0  0  0  0  0  0  0  0  0  0  0
  -24.5145  -28.9230   22.5678 C   0  0  0  0  0  0  0  0  0  0  0  0
  -28.4338  -33.8757   23.4288 C   0  0  0  0  0  0  0  0  0  0  0  0
  -30.5383  -12.7895   18.9226 C   0  0  0  0  0  0  0  0  0  0  0  0
  -28.7750  -32.5971   22.6700 C   0  0  0  0  0  0  0  0  0  0  0  0
  -29.2984  -11.8928   18.8939 C   0  0  0  0  0  0  0  0  0  0  0  0
  -30.5239  -13.7392   20.1191 C   0  0  0  0  0  0  0  0  0  0  0  0
  -28.0644  -13.6487   20.2285 C   0  0  0  0  0  0  0  0  0  0  0  0
  -28.2213  -32.6394   21.2407 C   0  0  1  0  0  0  0  0  0  0  0  0
  -24.7745  -31.0414   21.2385 C   0  0  1  0  0  0  0  0  0  0  0  0
  -28.0024  -12.7196   19.0051 C   0  0  2  0  0  0  0  0  0  0  0  0
  -19.9552  -29.8991   27.1943 C   0  0  0  0  0  0  0  0  0  0  0  0
  -26.7734  -24.6864   21.2016 C   0  0  0  0  0  0  0  0  0  0  0  0
  -26.6237  -24.6479   18.6832 C   0  0  0  0  0  0  0  0  0  0  0  0
  -23.9344  -18.5549   18.3415 C   0  0  0  0  0  0  0  0  0  0  0  0
  -25.5143  -16.7321   17.7052 C   0  0  0  0  0  0  0  0  0  0  0  0
  -23.4056  -16.1941   18.9505 C   0  0  0  0  0  0  0  0  0  0  0  0
  -26.3241  -30.7418   25.5824 C   0  0  0  0  0  0  0  0  0  0  0  0
  -24.6092  -30.1252   27.2991 C   0  0  0  0  0  0  0  0  0  0  0  0
  -24.6118  -32.4142   26.3075 C   0  0  0  0  0  0  0  0  0  0  0  0
  -19.2148  -29.2582   23.5178 C   0  0  0  0  0  0  0  0  0  0  0  0
  -25.2876  -17.4512   20.1562 C   0  0  0  0  0  0  0  0  0  0  0  0
  -23.8499  -30.4555   24.9022 C   0  0  1  0  0  0  0  0  0  0  0  0
  -20.1674  -30.0295   25.6941 C   0  0  2  0  0  0  0  0  0  0  0  0
  -25.9981  -24.1680   19.9921 C   0  0  0  0  0  0  0  0  0  1  0  0
  -24.5471  -17.2146   18.8002 C   0  0  0  0  0  0  0  0  0  0  0  0
  -24.8502  -30.9201   25.9981 C   0  0  0  0  0  0  0  0  0  0  0  0
  -28.6130  -20.1576   20.0538 N   0  0  0  0  0  0  0  0  0  0  0  0
  -26.2780  -11.4319   20.2091 N   0  0  0  0  0  0  0  0  0  0  0  0
  -26.7706  -11.8340   19.0251 N   0  0  0  0  0  0  0  0  0  0  0  0
  -24.3705  -30.3858   22.4839 N   0  0  0  0  0  0  0  0  0  0  0  0
  -29.2681  -14.4918   20.1573 N   0  0  0  0  0  0  0  0  0  0  0  0
  -26.4262  -11.6828   16.6865 N   0  0  0  0  0  0  0  0  0  0  0  0
  -23.0652   -9.1983   18.3973 N   0  0  0  0  0  0  0  0  0  0  0  0
  -28.0445  -16.5079   20.1372 N   0  0  0  0  0  0  0  0  0  0  0  0
  -27.0914  -21.9850   20.0308 N   0  0  0  0  0  0  0  0  0  0  0  0
  -26.8000  -32.3663   21.2410 N   0  0  0  0  0  0  0  0  0  0  0  0
  -22.4468  -30.6379   25.2577 N   0  0  0  0  0  0  0  0  0  0  0  0
  -19.1382  -29.2046   25.0004 N   0  3  0  0  0  0  0  0  0  0  0  0
  -24.0247   -9.9465   16.4535 O   0  0  0  0  0  0  0  0  0  0  0  0
  -26.9130  -30.0404   21.2283 O   0  0  0  0  0  0  0  0  0  0  0  0
  -23.9244  -32.4074   23.5565 O   0  0  0  0  0  0  0  0  0  0  0  0
  -21.8374  -28.4113   25.0384 O   0  0  0  0  0  0  0  0  0  0  0  0
  -24.7541  -22.1043   20.0603 O   0  0  0  0  0  0  0  0  0  0  0  0
  -30.3634  -16.5258   20.0735 O   0  0  0  0  0  0  0  0  0  0  0  0
  -22.0764   -8.2701   23.8006 O   0  0  0  0  0  0  0  0  0  0  0  0
  -24.6823  -24.7132   20.0804 O   0  0  0  0  0  0  0  0  0  1  0  0
  -20.6146   -3.0078   23.0419 F   0  0  0  0  0  0  0  0  0  0  0  0
  -22.8087   -6.3187   25.6167 F   0  0  0  0  0  0  0  0  0  0  0  0
  1  2  1  0  0  0  0
  1  5  2  0  0  0  0
  2  6  2  0  0  0  0
  3  8  2  0  0  0  0
  3 17  1  0  0  0  0
  4  9  1  0  0  0  0
  4 17  2  0  0  0  0
  5 19  1  0  0  0  0
  6 21  1  0  0  0  0
  7 10  2  0  0  0  0
  7 20  1  0  0  0  0
  8 25  1  0  0  0  0
  9 25  2  0  0  0  0
 10 26  1  0  0  0  0
 11 12  2  0  0  0  0
 11 27  1  0  0  0  0
 12 28  1  0  0  0  0
 13 22  1  0  0  0  0
 13 26  2  0  0  0  0
 14 23  2  0  0  0  0
 14 31  1  0  0  0  0
 15 28  2  0  0  0  0
 15 29  1  0  0  0  0
 16 24  2  0  0  0  0
 16 67  1  0  0  0  0
 17 30  1  0  0  0  0
 18 30  1  0  0  0  0
 18 32  2  0  0  0  0
 18 33  1  0  0  0  0
 19 21  2  0  0  0  0
 19 39  1  0  0  0  0
 20 22  2  0  0  0  0
 20 40  1  0  0  0  0
 21 48  1  0  0  0  0
 22 41  1  0  0  0  0
 23 24  1  0  0  0  0
 23 61  1  0  0  0  0
 24 74  1  0  0  0  0
 25 85  1  0  0  0  0
 26 86  1  0  0  0  0
 27 29  2  0  0  0  0
 27 85  1  0  0  0  0
 28 87  1  0  0  0  0
 29 88  1  0  0  0  0
 30 68  2  0  0  0  0
 31 67  2  0  0  0  0
 31 75  1  0  0  0  0
 32 69  1  0  0  0  0
 32 72  1  0  0  0  0
 33 73  1  0  0  0  0
 33 79  2  0  0  0  0
 34 49  1  0  0  0  0
 34 76  1  0  0  0  0
 34 80  2  0  0  0  0
 35 62  1  0  0  0  0
 35 70  1  0  0  0  0
 35 81  2  0  0  0  0
 36 63  1  0  0  0  0
 36 77  1  0  0  0  0
 36 82  2  0  0  0  0
 37 64  1  0  0  0  0
 37 75  1  0  0  0  0
 37 83  2  0  0  0  0
 38 71  1  0  0  0  0
 38 74  1  0  0  0  0
 38 84  2  0  0  0  0
 39 42  1  0  0  0  0
 40 49  1  0  0  0  0
 41 70  1  0  0  0  0
 42 44  1  0  0  0  0
 43 45  1  0  0  0  0
 43 46  1  0  0  0  0
 44 48  1  0  0  0  0
 45 50  1  0  0  0  0
 46 71  1  0  0  0  0
 47 50  1  0  0  0  0
 47 71  1  0  0  0  0
 48 76  1  0  0  0  0
 49 70  1  0  0  0  0
 50 69  1  0  0  0  0
 51 63  1  0  0  0  0
 52 64  1  0  0  0  0
 53 64  1  0  0  0  0
 54 65  1  0  0  0  0
 55 65  1  0  0  0  0
 56 65  1  0  0  0  0
 57 66  1  0  0  0  0
 58 66  1  0  0  0  0
 59 66  1  0  0  0  0
 60 78  1  0  0  0  0
 61 65  1  0  0  0  0
 62 66  1  0  0  0  0
 62 77  1  0  0  0  0
 63 78  1  0  0  0  0
 64 86  1  0  0  0  0
 68 69  1  0  0  0  0
M  CHG  1  78   1
M  ISO  4  38 100  64 101  74 100  86 101
M  END
> <Batch ID>
0159

> <Smiles>
CNC(C)C(=O)NC(C(=O)N1Cc2cc([101O:1][101C:1](C)(C)C(=O)Nc3cc(CC(C)(C)C)c([100NH:0][100C:0](=O)N4CCCC(n5nc(-c6ccc(Oc7ccc(F)cc7F)cc6)c(C(N)=O)c5N)C4)cn3)ccc2CC1C(=O)NC1CCCc2ccccc21)C(C)(C)C

> <Shape>
0.260

> <Color>
0.093

> <Negative vol penalty>
0.000

$$$$
