
  -OEChem-04052303503D

 83 92  0     1  0  0  0  0  0999 V2000
  -18.7544  -31.2560   23.9395 C   0  0  0  0  0  0  0  0  0  0  0  0
  -20.1312  -31.1441   23.7738 C   0  0  0  0  0  0  0  0  0  0  0  0
  -25.4279  -13.0004   19.5547 C   0  0  0  0  0  0  0  0  0  0  0  0
  -25.9231  -13.7459   21.7988 C   0  0  0  0  0  0  0  0  0  0  0  0
  -17.9305  -30.1627   23.6754 C   0  0  0  0  0  0  0  0  0  0  0  0
  -20.6849  -29.9383   23.3449 C   0  0  0  0  0  0  0  0  0  0  0  0
  -28.4637  -24.3513   21.8356 C   0  0  0  0  0  0  0  0  0  0  0  0
  -30.8468  -24.3693   21.4387 C   0  0  0  0  0  0  0  0  0  0  0  0
  -25.5802  -29.2123   19.7372 C   0  0  0  0  0  0  0  0  0  0  0  0
  -28.3554  -23.1522   21.1313 C   0  0  0  0  0  0  0  0  0  0  0  0
  -30.7385  -23.1702   20.7344 C   0  0  0  0  0  0  0  0  0  0  0  0
  -25.1849  -11.7139   20.0356 C   0  0  0  0  0  0  0  0  0  0  0  0
  -25.6801  -12.4594   22.2798 C   0  0  0  0  0  0  0  0  0  0  0  0
  -26.9174  -28.9329   20.0156 C   0  0  0  0  0  0  0  0  0  0  0  0
  -22.6832  -10.0760   21.6142 C   0  0  0  0  0  0  0  0  0  0  0  0
  -21.5490   -9.4125   21.1463 C   0  0  0  0  0  0  0  0  0  0  0  0
  -26.5041  -26.5896   19.6189 C   0  0  0  0  0  0  0  0  0  0  0  0
  -22.9455   -7.6542   20.2545 C   0  0  0  0  0  0  0  0  0  0  0  0
  -25.7971  -14.0164   20.4362 C   0  0  0  0  0  0  0  0  0  0  0  0
  -25.1166  -16.3909   19.7985 C   0  0  0  0  0  0  0  0  0  0  0  0
  -29.7094  -24.9599   21.9893 C   0  0  0  0  0  0  0  0  0  0  0  0
  -18.4736  -28.9459   23.2337 C   0  0  0  0  0  0  0  0  0  0  0  0
  -24.6909  -28.1794   19.4076 C   0  0  0  0  0  0  0  0  0  0  0  0
  -19.8676  -28.8273   23.0759 C   0  0  0  0  0  0  0  0  0  0  0  0
  -25.1567  -26.8589   19.3342 C   0  0  0  0  0  0  0  0  0  0  0  0
  -29.4928  -22.5617   20.5807 C   0  0  0  0  0  0  0  0  0  0  0  0
  -25.3109  -11.4434   21.3982 C   0  0  0  0  0  0  0  0  0  0  0  0
  -27.3789  -27.6211   19.9593 C   0  0  0  0  0  0  0  0  0  0  0  0
  -23.9486   -9.5286   21.4021 C   0  0  0  0  0  0  0  0  0  0  0  0
  -21.6801   -8.2016   20.4665 C   0  0  0  0  0  0  0  0  0  0  0  0
  -24.0797   -8.3177   20.7223 C   0  0  0  0  0  0  0  0  0  0  0  0
  -26.0488  -15.3455   19.9399 C   0  0  0  0  0  0  0  0  0  0  0  0
  -25.8480  -17.4367   19.2906 C   0  0  0  0  0  0  0  0  0  0  0  0
  -23.7150  -16.4145   20.0995 C   0  0  0  0  0  0  0  0  0  0  0  0
  -22.0378  -27.0042   20.7053 C   0  0  0  0  0  0  0  0  0  0  0  0
  -21.9707  -25.2174   17.9989 C   0  0  0  0  0  0  0  0  0  0  0  0
  -23.6931  -23.8288   15.4004 C   0  0  0  0  0  0  0  0  0  0  0  0
  -30.4122  -20.6256   19.2568 C   0  0  0  0  0  0  0  0  0  0  0  0
  -17.5473  -27.7776   23.0063 C   0  0  0  0  0  0  0  0  0  0  0  0
  -23.2575  -28.5006   19.0839 C   0  0  0  0  0  0  0  0  0  0  0  0
  -24.2471  -25.7165   18.9654 C   0  0  0  0  0  0  0  0  0  0  0  0
  -18.1786  -26.6485   22.1957 C   0  0  0  0  0  0  0  0  0  0  0  0
  -31.8316  -27.2123   23.7974 C   0  0  0  0  0  0  0  0  0  0  0  0
  -30.5556  -17.5697   17.4352 C   0  0  0  0  0  0  0  0  0  0  0  0
  -30.7320  -26.1756   24.0025 C   0  0  0  0  0  0  0  0  0  0  0  0
  -19.5749  -26.3305   22.7209 C   0  0  0  0  0  0  0  0  0  0  0  0
  -31.1879  -28.2577   22.9025 C   0  0  0  0  0  0  0  0  0  0  0  0
  -29.3192  -16.8046   17.9128 C   0  0  0  0  0  0  0  0  0  0  0  0
  -31.1979  -18.3718   18.5656 C   0  0  0  0  0  0  0  0  0  0  0  0
  -29.0495  -18.5040   19.7639 C   0  0  0  0  0  0  0  0  0  0  0  0
  -29.8267  -26.2614   22.7537 C   0  0  1  0  0  0  0  0  0  0  0  0
  -20.5036  -27.5436   22.5885 C   0  0  1  0  0  0  0  0  0  0  0  0
  -22.3231  -27.3080   19.2617 C   0  0  1  0  0  0  0  0  0  0  0  0
  -30.4129  -27.4083   21.8970 C   0  0  1  0  0  0  0  0  0  0  0  0
  -28.3303  -17.7327   18.6452 C   0  0  2  0  0  0  0  0  0  0  0  0
  -23.3724  -22.3907   13.3691 C   0  0  0  0  0  0  0  0  0  0  0  0
  -21.7554  -22.7508   19.7821 C   0  0  0  0  0  0  0  0  0  0  0  0
  -22.3908  -21.3521   17.8052 C   0  0  0  0  0  0  0  0  0  0  0  0
  -20.2938  -22.7022   17.7533 C   0  0  0  0  0  0  0  0  0  0  0  0
  -24.6353  -25.9729   13.5909 C   0  0  0  0  0  0  0  0  0  0  0  0
  -29.3505  -28.2062   21.1536 C   0  0  0  0  0  0  0  0  0  1  0  0
  -22.5275  -23.8751   17.5899 C   0  0  1  0  0  0  0  0  0  0  0  0
  -23.4224  -23.8124   13.9068 C   0  0  2  0  0  0  0  0  0  0  0  0
  -21.7588  -22.6911   18.2415 C   0  0  0  0  0  0  0  0  0  0  0  0
  -27.2784  -15.6952   19.5529 N   0  0  0  0  0  0  0  0  0  0  0  0
  -27.1239  -16.9721   19.1633 N   0  0  0  0  0  0  0  0  0  0  0  0
  -22.8529  -26.0808   18.6638 N   0  0  0  0  0  0  0  0  0  0  0  0
  -30.2026  -19.2311   19.2104 N   0  0  0  0  0  0  0  0  0  0  0  0
  -25.5176  -18.6991   18.9449 N   0  0  0  0  0  0  0  0  0  0  0  0
  -23.1227  -15.2536   20.6150 N   0  0  0  0  0  0  0  0  0  0  0  0
  -29.3832  -21.3434   19.8654 N   0  0  0  0  0  0  0  0  0  0  0  0
  -20.9536  -27.6887   21.2207 N   0  0  0  0  0  0  0  0  0  0  0  0
  -22.5242  -23.8591   16.1311 N   0  0  0  0  0  0  0  0  0  0  0  0
  -24.4910  -24.5530   13.1785 N   0  3  0  0  0  0  0  0  0  0  0  0
  -23.0054  -17.4297   19.9012 O   0  0  0  0  0  0  0  0  0  0  0  0
  -22.7479  -26.2068   21.3067 O   0  0  0  0  0  0  0  0  0  0  0  0
  -20.7982  -25.4925   17.7317 O   0  0  0  0  0  0  0  0  0  0  0  0
  -24.8280  -23.8124   15.8719 O   0  0  0  0  0  0  0  0  0  0  0  0
  -31.4169  -21.1475   18.7667 O   0  0  0  0  0  0  0  0  0  0  0  0
  -25.0736  -10.1881   21.8680 O   0  0  0  0  0  0  0  0  0  0  0  0
  -28.6835  -27.3455   20.2313 O   0  0  0  0  0  0  0  0  0  1  0  0
  -20.5907   -7.5638   20.0186 F   0  0  0  0  0  0  0  0  0  0  0  0
  -25.2926   -7.7863   20.5167 F   0  0  0  0  0  0  0  0  0  0  0  0
  1  2  1  0  0  0  0
  1  5  2  0  0  0  0
  2  6  2  0  0  0  0
  3 12  2  0  0  0  0
  3 19  1  0  0  0  0
  4 13  1  0  0  0  0
  4 19  2  0  0  0  0
  5 22  1  0  0  0  0
  6 24  1  0  0  0  0
  7 10  2  0  0  0  0
  7 21  1  0  0  0  0
  8 11  1  0  0  0  0
  8 21  2  0  0  0  0
  9 14  2  0  0  0  0
  9 23  1  0  0  0  0
 10 26  1  0  0  0  0
 11 26  2  0  0  0  0
 12 27  1  0  0  0  0
 13 27  2  0  0  0  0
 14 28  1  0  0  0  0
 15 16  2  0  0  0  0
 15 29  1  0  0  0  0
 16 30  1  0  0  0  0
 17 25  1  0  0  0  0
 17 28  2  0  0  0  0
 18 30  2  0  0  0  0
 18 31  1  0  0  0  0
 19 32  1  0  0  0  0
 20 32  1  0  0  0  0
 20 33  2  0  0  0  0
 20 34  1  0  0  0  0
 21 51  1  0  0  0  0
 22 24  2  0  0  0  0
 22 39  1  0  0  0  0
 23 25  2  0  0  0  0
 23 40  1  0  0  0  0
 24 52  1  0  0  0  0
 25 41  1  0  0  0  0
 26 71  1  0  0  0  0
 27 80  1  0  0  0  0
 28 81  1  0  0  0  0
 29 31  2  0  0  0  0
 29 80  1  0  0  0  0
 30 82  1  0  0  0  0
 31 83  1  0  0  0  0
 32 65  2  0  0  0  0
 33 66  1  0  0  0  0
 33 69  1  0  0  0  0
 34 70  1  0  0  0  0
 34 75  2  0  0  0  0
 35 53  1  0  0  0  0
 35 72  1  0  0  0  0
 35 76  2  0  0  0  0
 36 62  1  0  0  0  0
 36 67  1  0  0  0  0
 36 77  2  0  0  0  0
 37 63  1  0  0  0  0
 37 73  1  0  0  0  0
 37 78  2  0  0  0  0
 38 68  1  0  0  0  0
 38 71  1  0  0  0  0
 38 79  2  0  0  0  0
 39 42  1  0  0  0  0
 40 53  1  0  0  0  0
 41 67  1  0  0  0  0
 42 46  1  0  0  0  0
 43 45  1  0  0  0  0
 43 47  1  0  0  0  0
 44 48  1  0  0  0  0
 44 49  1  0  0  0  0
 45 51  1  0  0  0  0
 46 52  1  0  0  0  0
 47 54  1  0  0  0  0
 48 55  1  0  0  0  0
 49 68  1  0  0  0  0
 50 55  1  0  0  0  0
 50 68  1  0  0  0  0
 51 54  1  0  0  0  0
 52 72  1  0  0  0  0
 53 67  1  0  0  0  0
 54 61  1  0  0  0  0
 55 66  1  0  0  0  0
 56 63  1  0  0  0  0
 57 64  1  0  0  0  0
 58 64  1  0  0  0  0
 59 64  1  0  0  0  0
 60 74  1  0  0  0  0
 61 81  1  0  0  0  0
 62 64  1  0  0  0  0
 62 73  1  0  0  0  0
 63 74  1  0  0  0  0
 65 66  1  0  0  0  0
M  CHG  1  74   1
M  ISO  4  38 100  61 101  71 100  81 101
M  END
> <Batch ID>
0160

> <Smiles>
CNC(C)C(=O)NC(C(=O)N1Cc2cc([101O:1][101CH2:1]C3CCCC3c3ccc([100NH:0][100C:0](=O)N4CCCC(n5nc(-c6ccc(Oc7ccc(F)cc7F)cc6)c(C(N)=O)c5N)C4)cc3)ccc2CC1C(=O)NC1CCCc2ccccc21)C(C)(C)C

> <Shape>
0.244

> <Color>
0.076

> <Negative vol penalty>
0.000

$$$$

  -OEChem-04052303503D

 82 90  0     1  0  0  0  0  0999 V2000
  -18.9564  -33.1908   20.2580 C   0  0  0  0  0  0  0  0  0  0  0  0
  -20.2454  -32.8017   19.9081 C   0  0  0  0  0  0  0  0  0  0  0  0
  -24.2792  -11.1956   20.0219 C   0  0  0  0  0  0  0  0  0  0  0  0
  -25.3859  -11.9367   22.0376 C   0  0  0  0  0  0  0  0  0  0  0  0
  -18.4113  -32.7800   21.4738 C   0  0  0  0  0  0  0  0  0  0  0  0
  -20.9905  -32.0024   20.7743 C   0  0  0  0  0  0  0  0  0  0  0  0
  -25.0118  -27.6506   19.2260 C   0  0  0  0  0  0  0  0  0  0  0  0
  -24.4346   -9.8691   20.4242 C   0  0  0  0  0  0  0  0  0  0  0  0
  -25.5412  -10.6102   22.4400 C   0  0  0  0  0  0  0  0  0  0  0  0
  -26.4029  -27.6489   19.1336 C   0  0  0  0  0  0  0  0  0  0  0  0
  -22.9398   -7.7256   22.5699 C   0  0  0  0  0  0  0  0  0  0  0  0
  -21.8412   -6.8761   22.4405 C   0  0  0  0  0  0  0  0  0  0  0  0
  -26.5435  -26.7317   21.3603 C   0  0  0  0  0  0  0  0  0  0  0  0
  -23.1168   -5.4514   20.9639 C   0  0  0  0  0  0  0  0  0  0  0  0
  -28.7895  -20.7267   21.8644 C   0  0  0  0  0  0  0  0  0  0  0  0
  -24.7549  -12.2294   20.8285 C   0  0  0  0  0  0  0  0  0  0  0  0
  -23.5113  -14.4527   20.6950 C   0  0  0  0  0  0  0  0  0  0  0  0
  -19.1465  -31.9672   22.3510 C   0  0  0  0  0  0  0  0  0  0  0  0
  -24.3753  -27.2023   20.3923 C   0  0  0  0  0  0  0  0  0  0  0  0
  -20.4553  -31.5814   22.0035 C   0  0  0  0  0  0  0  0  0  0  0  0
  -25.1441  -26.7263   21.4640 C   0  0  0  0  0  0  0  0  0  0  0  0
  -25.0656   -9.5764   21.6333 C   0  0  0  0  0  0  0  0  0  0  0  0
  -27.1691  -27.1921   20.2020 C   0  0  0  0  0  0  0  0  0  0  0  0
  -24.1270   -7.4381   21.8962 C   0  0  0  0  0  0  0  0  0  0  0  0
  -21.9296   -5.7389   21.6375 C   0  0  0  0  0  0  0  0  0  0  0  0
  -24.2154   -6.3010   21.0933 C   0  0  0  0  0  0  0  0  0  0  0  0
  -24.5953  -13.5998   20.4132 C   0  0  0  0  0  0  0  0  0  0  0  0
  -29.6405  -20.2813   20.8835 C   0  0  0  0  0  0  0  0  0  0  0  0
  -23.8379  -15.6373   20.0812 C   0  0  0  0  0  0  0  0  0  0  0  0
  -29.2919  -22.3807   20.6665 C   0  0  0  0  0  0  0  0  0  0  0  0
  -22.3161  -14.1971   21.4445 C   0  0  0  0  0  0  0  0  0  0  0  0
  -22.4662  -28.5316   22.5584 C   0  0  0  0  0  0  0  0  0  0  0  0
  -22.2906  -25.4986   23.6953 C   0  0  0  0  0  0  0  0  0  0  0  0
  -23.7174  -22.4079   23.9365 C   0  0  0  0  0  0  0  0  0  0  0  0
  -29.0597  -18.1167   18.5204 C   0  0  0  0  0  0  0  0  0  0  0  0
  -18.5327  -31.5874   23.6752 C   0  0  0  0  0  0  0  0  0  0  0  0
  -22.8731  -27.1855   20.4659 C   0  0  0  0  0  0  0  0  0  0  0  0
  -24.5089  -26.2155   22.7305 C   0  0  0  0  0  0  0  0  0  0  0  0
  -19.2487  -30.4316   24.3693 C   0  0  0  0  0  0  0  0  0  0  0  0
  -26.3156  -17.3761   16.3760 C   0  0  0  0  0  0  0  0  0  0  0  0
  -20.7586  -30.6471   24.3447 C   0  0  0  0  0  0  0  0  0  0  0  0
  -25.4658  -16.4012   17.1929 C   0  0  0  0  0  0  0  0  0  0  0  0
  -27.8086  -17.1563   16.6102 C   0  0  0  0  0  0  0  0  0  0  0  0
  -27.3738  -16.2060   18.8422 C   0  0  0  0  0  0  0  0  0  0  0  0
  -21.2857  -30.6942   22.9054 C   0  0  1  0  0  0  0  0  0  0  0  0
  -22.3449  -27.1878   21.8972 C   0  0  1  0  0  0  0  0  0  0  0  0
  -25.8598  -16.4258   18.6820 C   0  0  2  0  0  0  0  0  0  0  0  0
  -23.3568  -20.1464   24.9626 C   0  0  0  0  0  0  0  0  0  0  0  0
  -23.1179  -26.6040   26.4162 C   0  0  0  0  0  0  0  0  0  0  0  0
  -23.6582  -24.2642   27.1246 C   0  0  0  0  0  0  0  0  0  0  0  0
  -21.3201  -24.8675   26.4985 C   0  0  0  0  0  0  0  0  0  0  0  0
  -30.6529  -26.2637   19.6003 C   0  0  0  0  0  0  0  0  0  0  0  0
  -28.6599  -25.8024   18.1561 C   0  0  0  0  0  0  0  0  0  0  0  0
  -23.6529  -21.0883   21.2882 C   0  0  0  0  0  0  0  0  0  0  0  0
  -30.2250  -18.9832   20.5329 C   0  0  0  0  0  0  0  0  0  0  0  0
  -28.8137  -24.8246   20.5107 C   0  0  0  0  0  0  0  0  0  0  0  0
  -23.0788  -24.6831   24.6916 C   0  0  1  0  0  0  0  0  0  0  0  0
  -23.1464  -21.0161   23.7330 C   0  0  2  0  0  0  0  0  0  0  0  0
  -22.8061  -25.1161   26.1597 C   0  0  0  0  0  0  0  0  0  0  0  0
  -29.1426  -26.0128   19.5936 C   0  0  0  0  0  0  0  0  0  1  0  0
  -28.5701  -22.0728   21.7203 N   0  0  0  0  0  0  0  0  0  0  0  0
  -25.5397  -14.1921   19.6775 N   0  0  0  0  0  0  0  0  0  0  0  0
  -25.0502  -15.4298   19.4918 N   0  0  0  0  0  0  0  0  0  0  0  0
  -23.0369  -26.2251   22.7566 N   0  0  0  0  0  0  0  0  0  0  0  0
  -28.1159  -17.1929   18.0420 N   0  0  0  0  0  0  0  0  0  0  0  0
  -23.2034  -16.8256   19.9935 N   0  0  0  0  0  0  0  0  0  0  0  0
  -22.1398  -12.9260   22.0078 N   0  0  0  0  0  0  0  0  0  0  0  0
  -29.4547  -23.6118   20.0541 N   0  0  0  0  0  0  0  0  0  0  0  0
  -21.3773  -29.3582   22.3568 N   0  0  0  0  0  0  0  0  0  0  0  0
  -22.7666  -23.2855   24.4130 N   0  0  0  0  0  0  0  0  0  0  0  0
  -29.2873  -18.0892   19.8908 N   0  0  0  0  0  0  0  0  0  0  0  0
  -23.8011  -20.3525   22.5703 N   0  3  0  0  0  0  0  0  0  0  0  0
  -21.4232  -15.0651   21.5961 O   0  0  0  0  0  0  0  0  0  0  0  0
  -23.4725  -28.7983   23.2049 O   0  0  0  0  0  0  0  0  0  0  0  0
  -21.0581  -25.4858   23.7435 O   0  0  0  0  0  0  0  0  0  0  0  0
  -24.8907  -22.6876   23.7002 O   0  0  0  0  0  0  0  0  0  0  0  0
  -29.6514  -18.9112   17.7816 O   0  0  0  0  0  0  0  0  0  0  0  0
  -29.9722  -21.3460   20.1013 O   0  0  0  0  0  0  0  0  0  0  0  0
  -25.2171   -8.2821   22.0264 O   0  0  0  0  0  0  0  0  0  0  0  0
  -28.5271  -27.1900   20.1148 O   0  0  0  0  0  0  0  0  0  1  0  0
  -20.8750   -4.9224   21.5146 F   0  0  0  0  0  0  0  0  0  0  0  0
  -25.3536   -6.0190   20.4446 F   0  0  0  0  0  0  0  0  0  0  0  0
  1  2  1  0  0  0  0
  1  5  2  0  0  0  0
  2  6  2  0  0  0  0
  3  8  2  0  0  0  0
  3 16  1  0  0  0  0
  4  9  1  0  0  0  0
  4 16  2  0  0  0  0
  5 18  1  0  0  0  0
  6 20  1  0  0  0  0
  7 10  2  0  0  0  0
  7 19  1  0  0  0  0
  8 22  1  0  0  0  0
  9 22  2  0  0  0  0
 10 23  1  0  0  0  0
 11 12  2  0  0  0  0
 11 24  1  0  0  0  0
 12 25  1  0  0  0  0
 13 21  1  0  0  0  0
 13 23  2  0  0  0  0
 14 25  2  0  0  0  0
 14 26  1  0  0  0  0
 15 28  2  0  0  0  0
 15 61  1  0  0  0  0
 16 27  1  0  0  0  0
 17 27  1  0  0  0  0
 17 29  2  0  0  0  0
 17 31  1  0  0  0  0
 18 20  2  0  0  0  0
 18 36  1  0  0  0  0
 19 21  2  0  0  0  0
 19 37  1  0  0  0  0
 20 45  1  0  0  0  0
 21 38  1  0  0  0  0
 22 79  1  0  0  0  0
 23 80  1  0  0  0  0
 24 26  2  0  0  0  0
 24 79  1  0  0  0  0
 25 81  1  0  0  0  0
 26 82  1  0  0  0  0
 27 62  2  0  0  0  0
 28 55  1  0  0  0  0
 28 78  1  0  0  0  0
 29 63  1  0  0  0  0
 29 66  1  0  0  0  0
 30 61  2  0  0  0  0
 30 68  1  0  0  0  0
 30 78  1  0  0  0  0
 31 67  1  0  0  0  0
 31 73  2  0  0  0  0
 32 46  1  0  0  0  0
 32 69  1  0  0  0  0
 32 74  2  0  0  0  0
 33 57  1  0  0  0  0
 33 64  1  0  0  0  0
 33 75  2  0  0  0  0
 34 58  1  0  0  0  0
 34 70  1  0  0  0  0
 34 76  2  0  0  0  0
 35 65  1  0  0  0  0
 35 71  1  0  0  0  0
 35 77  2  0  0  0  0
 36 39  1  0  0  0  0
 37 46  1  0  0  0  0
 38 64  1  0  0  0  0
 39 41  1  0  0  0  0
 40 42  1  0  0  0  0
 40 43  1  0  0  0  0
 41 45  1  0  0  0  0
 42 47  1  0  0  0  0
 43 65  1  0  0  0  0
 44 47  1  0  0  0  0
 44 65  1  0  0  0  0
 45 69  1  0  0  0  0
 46 64  1  0  0  0  0
 47 63  1  0  0  0  0
 48 58  1  0  0  0  0
 49 59  1  0  0  0  0
 50 59  1  0  0  0  0
 51 59  1  0  0  0  0
 52 60  1  0  0  0  0
 53 60  1  0  0  0  0
 54 72  1  0  0  0  0
 55 71  1  0  0  0  0
 56 60  1  0  0  0  0
 56 68  1  0  0  0  0
 57 59  1  0  0  0  0
 57 70  1  0  0  0  0
 58 72  1  0  0  0  0
 60 80  1  0  0  0  0
 62 63  1  0  0  0  0
M  CHG  1  72   1
M  ISO  4  35 100  60 101  71 100  80 101
M  END
> <Batch ID>
0160

> <Smiles>
CNC(C)C(=O)NC(C(=O)N1Cc2cc([101O:1][101C:1](C)(C)CNc3ncc(C[100NH:0][100C:0](=O)N4CCCC(n5nc(-c6ccc(Oc7ccc(F)cc7F)cc6)c(C(N)=O)c5N)C4)o3)ccc2CC1C(=O)NC1CCCc2ccccc21)C(C)(C)C

> <Shape>
0.229

> <Color>
0.085

> <Negative vol penalty>
0.000

$$$$

  -OEChem-04052303503D

 81 89  0     1  0  0  0  0  0999 V2000
  -33.0684  -23.2394   36.5817 C   0  0  0  0  0  0  0  0  0  0  0  0
  -32.1827  -22.7064   35.6507 C   0  0  0  0  0  0  0  0  0  0  0  0
  -22.9994   -9.8944   19.9813 C   0  0  0  0  0  0  0  0  0  0  0  0
  -23.7244   -9.9449   22.2854 C   0  0  0  0  0  0  0  0  0  0  0  0
  -34.1679  -23.9808   36.1511 C   0  0  0  0  0  0  0  0  0  0  0  0
  -32.3955  -22.9153   34.2885 C   0  0  0  0  0  0  0  0  0  0  0  0
  -31.1578  -19.0186   29.7289 C   0  0  0  0  0  0  0  0  0  0  0  0
  -22.2323   -8.7603   20.2474 C   0  0  0  0  0  0  0  0  0  0  0  0
  -22.9572   -8.8108   22.5516 C   0  0  0  0  0  0  0  0  0  0  0  0
  -30.0855  -18.9213   28.8432 C   0  0  0  0  0  0  0  0  0  0  0  0
  -21.4740   -5.7184   23.7546 C   0  0  0  0  0  0  0  0  0  0  0  0
  -22.0594   -4.7023   24.5098 C   0  0  0  0  0  0  0  0  0  0  0  0
  -31.3392  -20.1631   27.1984 C   0  0  0  0  0  0  0  0  0  0  0  0
  -23.7859   -4.4543   22.8380 C   0  0  0  0  0  0  0  0  0  0  0  0
  -32.0383  -18.7759   22.2910 C   0  0  0  0  0  0  0  0  0  0  0  0
  -23.7455  -10.4867   21.0002 C   0  0  0  0  0  0  0  0  0  0  0  0
  -24.1321  -13.0021   20.8244 C   0  0  0  0  0  0  0  0  0  0  0  0
  -34.3996  -24.1907   34.7826 C   0  0  0  0  0  0  0  0  0  0  0  0
  -32.3268  -19.6994   29.3593 C   0  0  0  0  0  0  0  0  0  0  0  0
  -33.4984  -23.6613   33.8393 C   0  0  0  0  0  0  0  0  0  0  0  0
  -32.4260  -20.2653   28.0803 C   0  0  0  0  0  0  0  0  0  0  0  0
  -22.2112   -8.2185   21.5326 C   0  0  0  0  0  0  0  0  0  0  0  0
  -30.1750  -19.4961   27.5788 C   0  0  0  0  0  0  0  0  0  0  0  0
  -22.0445   -6.1024   22.5410 C   0  0  0  0  0  0  0  0  0  0  0  0
  -23.2154   -4.0702   24.0516 C   0  0  0  0  0  0  0  0  0  0  0  0
  -23.2004   -5.4704   22.0827 C   0  0  0  0  0  0  0  0  0  0  0  0
  -24.5386  -11.6579   20.7258 C   0  0  0  0  0  0  0  0  0  0  0  0
  -30.0671  -17.8982   22.6834 C   0  0  0  0  0  0  0  0  0  0  0  0
  -25.2423  -13.7241   20.4602 C   0  0  0  0  0  0  0  0  0  0  0  0
  -30.5971  -16.8827   21.9153 C   0  0  0  0  0  0  0  0  0  0  0  0
  -29.3398  -18.7795   25.5149 C   0  0  0  0  0  0  0  0  0  1  0  0
  -22.8644  -13.5491   21.2108 C   0  0  0  0  0  0  0  0  0  0  0  0
  -28.7091  -17.8783   23.2625 C   0  0  0  0  0  0  0  0  0  0  0  0
  -28.4402  -18.5925   24.5410 C   0  0  0  0  0  0  0  0  0  0  0  0
  -33.8673  -22.2612   30.4398 C   0  0  0  0  0  0  0  0  0  0  0  0
  -36.0830  -21.3735   28.2431 C   0  0  0  0  0  0  0  0  0  0  0  0
  -36.7885  -19.7063   25.3501 C   0  0  0  0  0  0  0  0  0  0  0  0
  -30.7222  -14.6824   20.6949 C   0  0  0  0  0  0  0  0  0  0  0  0
  -35.5756  -25.0388   34.3672 C   0  0  0  0  0  0  0  0  0  0  0  0
  -33.4847  -19.7723   30.3165 C   0  0  0  0  0  0  0  0  0  0  0  0
  -33.6666  -20.9894   27.6275 C   0  0  0  0  0  0  0  0  0  0  0  0
  -35.9369  -24.8978   32.8907 C   0  0  0  0  0  0  0  0  0  0  0  0
  -29.6030  -12.2303   18.3686 C   0  0  0  0  0  0  0  0  0  0  0  0
  -34.6843  -24.9822   32.0242 C   0  0  0  0  0  0  0  0  0  0  0  0
  -28.1522  -11.9734   18.7826 C   0  0  0  0  0  0  0  0  0  0  0  0
  -30.5035  -12.4731   19.5785 C   0  0  0  0  0  0  0  0  0  0  0  0
  -28.5884  -13.2628   20.9119 C   0  0  0  0  0  0  0  0  0  0  0  0
  -33.7090  -23.8452   32.3520 C   0  0  1  0  0  0  0  0  0  0  0  0
  -34.4309  -20.9324   30.0223 C   0  0  1  0  0  0  0  0  0  0  0  0
  -27.6307  -13.0771   19.7236 C   0  0  2  0  0  0  0  0  0  0  0  0
  -38.6809  -19.1915   23.7846 C   0  0  0  0  0  0  0  0  0  0  0  0
  -35.9187  -24.2047   27.1175 C   0  0  0  0  0  0  0  0  0  0  0  0
  -37.0588  -23.3737   25.0492 C   0  0  0  0  0  0  0  0  0  0  0  0
  -38.2333  -23.2664   27.2473 C   0  0  0  0  0  0  0  0  0  0  0  0
  -36.5281  -16.7940   25.8079 C   0  0  0  0  0  0  0  0  0  0  0  0
  -36.3228  -21.6766   26.7838 C   0  0  1  0  0  0  0  0  0  0  0  0
  -37.8905  -18.7239   24.9968 C   0  0  2  0  0  0  0  0  0  0  0  0
  -36.8591  -23.1185   26.5584 C   0  0  0  0  0  0  0  0  0  0  0  0
  -30.8923  -18.9844   22.9002 N   0  0  0  0  0  0  0  0  0  0  0  0
  -25.8079  -11.5308   20.3297 N   0  0  0  0  0  0  0  0  0  0  0  0
  -26.2085  -12.8044   20.1762 N   0  0  0  0  0  0  0  0  0  0  0  0
  -34.7693  -21.0394   28.6017 N   0  0  0  0  0  0  0  0  0  0  0  0
  -29.9489  -13.5343   20.4219 N   0  0  0  0  0  0  0  0  0  0  0  0
  -25.4764  -15.0497   20.3582 N   0  0  0  0  0  0  0  0  0  0  0  0
  -21.8321  -12.6655   21.5541 N   0  0  0  0  0  0  0  0  0  0  0  0
  -30.0784  -15.6378   21.4805 N   0  0  0  0  0  0  0  0  0  0  0  0
  -34.1532  -22.6081   31.7465 N   0  0  0  0  0  0  0  0  0  0  0  0
  -37.2059  -20.6263   26.2886 N   0  0  0  0  0  0  0  0  0  0  0  0
  -27.1017  -19.0189   24.7115 N   0  3  0  0  0  0  0  0  0  0  0  0
  -37.3125  -17.3844   24.6929 N   0  3  0  0  0  0  0  0  0  0  0  0
  -22.6483  -14.7845   21.2346 O   0  0  0  0  0  0  0  0  0  0  0  0
  -27.8228  -17.2684   22.6710 O   0  0  0  0  0  0  0  0  0  0  0  0
  -33.2222  -22.9235   29.6355 O   0  0  0  0  0  0  0  0  0  0  0  0
  -37.0279  -21.4242   29.0345 O   0  0  0  0  0  0  0  0  0  0  0  0
  -35.6704  -19.6642   24.8416 O   0  0  0  0  0  0  0  0  0  0  0  0
  -31.8610  -14.8208   20.2411 O   0  0  0  0  0  0  0  0  0  0  0  0
  -21.4625   -7.1119   21.7928 O   0  0  0  0  0  0  0  0  0  0  0  0
  -29.1295  -19.4032   26.7126 O   0  0  0  0  0  0  0  0  0  1  0  0
  -23.7783   -3.0955   24.7777 F   0  0  0  0  0  0  0  0  0  0  0  0
  -23.7537   -5.8359   20.9182 F   0  0  0  0  0  0  0  0  0  0  0  0
  -32.1921  -17.2946   21.4382 S   0  0  0  0  0  0  0  0  0  0  0  0
  1  2  1  0  0  0  0
  1  5  2  0  0  0  0
  2  6  2  0  0  0  0
  3  8  2  0  0  0  0
  3 16  1  0  0  0  0
  4  9  1  0  0  0  0
  4 16  2  0  0  0  0
  5 18  1  0  0  0  0
  6 20  1  0  0  0  0
  7 10  2  0  0  0  0
  7 19  1  0  0  0  0
  8 22  1  0  0  0  0
  9 22  2  0  0  0  0
 10 23  1  0  0  0  0
 11 12  2  0  0  0  0
 11 24  1  0  0  0  0
 12 25  1  0  0  0  0
 13 21  1  0  0  0  0
 13 23  2  0  0  0  0
 14 25  2  0  0  0  0
 14 26  1  0  0  0  0
 15 59  2  0  0  0  0
 15 81  1  0  0  0  0
 16 27  1  0  0  0  0
 17 27  1  0  0  0  0
 17 29  2  0  0  0  0
 17 32  1  0  0  0  0
 18 20  2  0  0  0  0
 18 39  1  0  0  0  0
 19 21  2  0  0  0  0
 19 40  1  0  0  0  0
 20 48  1  0  0  0  0
 21 41  1  0  0  0  0
 22 77  1  0  0  0  0
 23 78  1  0  0  0  0
 24 26  2  0  0  0  0
 24 77  1  0  0  0  0
 25 79  1  0  0  0  0
 26 80  1  0  0  0  0
 27 60  2  0  0  0  0
 28 30  2  0  0  0  0
 28 33  1  0  0  0  0
 28 59  1  0  0  0  0
 29 61  1  0  0  0  0
 29 64  1  0  0  0  0
 30 66  1  0  0  0  0
 30 81  1  0  0  0  0
 31 34  2  0  0  0  0
 31 78  1  0  0  0  0
 32 65  1  0  0  0  0
 32 71  2  0  0  0  0
 33 34  1  0  0  0  0
 33 72  2  0  0  0  0
 34 69  1  0  0  0  0
 35 49  1  0  0  0  0
 35 67  1  0  0  0  0
 35 73  2  0  0  0  0
 36 56  1  0  0  0  0
 36 62  1  0  0  0  0
 36 74  2  0  0  0  0
 37 57  1  0  0  0  0
 37 68  1  0  0  0  0
 37 75  2  0  0  0  0
 38 63  1  0  0  0  0
 38 66  1  0  0  0  0
 38 76  2  0  0  0  0
 39 42  1  0  0  0  0
 40 49  1  0  0  0  0
 41 62  1  0  0  0  0
 42 44  1  0  0  0  0
 43 45  1  0  0  0  0
 43 46  1  0  0  0  0
 44 48  1  0  0  0  0
 45 50  1  0  0  0  0
 46 63  1  0  0  0  0
 47 50  1  0  0  0  0
 47 63  1  0  0  0  0
 48 67  1  0  0  0  0
 49 62  1  0  0  0  0
 50 61  1  0  0  0  0
 51 57  1  0  0  0  0
 52 58  1  0  0  0  0
 53 58  1  0  0  0  0
 54 58  1  0  0  0  0
 55 70  1  0  0  0  0
 56 58  1  0  0  0  0
 56 68  1  0  0  0  0
 57 70  1  0  0  0  0
 60 61  1  0  0  0  0
M  CHG  2  69   1  70   1
M  ISO  4  31 101  38 100  66 100  78 101
M  END
> <Batch ID>
0160

> <Smiles>
CNC(C)C(=O)NC(C(=O)N1Cc2cc([101O:1][101CH2:1]C(=N)C(=O)c3ncsc3[100NH:0][100C:0](=O)N3CCCC(n4nc(-c5ccc(Oc6ccc(F)cc6F)cc5)c(C(N)=O)c4N)C3)ccc2CC1C(=O)NC1CCCc2ccccc21)C(C)(C)C

> <Shape>
0.174

> <Color>
0.190

> <Negative vol penalty>
0.000

$$$$

  -OEChem-04052303503D

 87 96  0     1  0  0  0  0  0999 V2000
  -27.9016  -34.9685   24.5810 C   0  0  0  0  0  0  0  0  0  0  0  0
  -28.1287  -33.6673   24.1442 C   0  0  0  0  0  0  0  0  0  0  0  0
  -31.7048  -19.9240   16.9401 C   0  0  0  0  0  0  0  0  0  0  0  0
  -24.8357  -13.2837   21.9252 C   0  0  0  0  0  0  0  0  0  0  0  0
  -26.7451  -13.0825   20.4587 C   0  0  0  0  0  0  0  0  0  0  0  0
  -31.4592  -21.1448   16.3116 C   0  0  0  0  0  0  0  0  0  0  0  0
  -26.6383  -35.3375   25.0413 C   0  0  0  0  0  0  0  0  0  0  0  0
  -27.0929  -32.7341   24.1684 C   0  0  0  0  0  0  0  0  0  0  0  0
  -26.8389  -30.0028   19.9116 C   0  0  0  0  0  0  0  0  0  0  0  0
  -31.0195  -19.5906   18.1084 C   0  0  0  0  0  0  0  0  0  0  0  0
  -24.1878  -12.2689   21.2209 C   0  0  0  0  0  0  0  0  0  0  0  0
  -26.0972  -12.0676   19.7544 C   0  0  0  0  0  0  0  0  0  0  0  0
  -27.7596  -28.9663   19.7643 C   0  0  0  0  0  0  0  0  0  0  0  0
  -24.2807   -8.8924   21.0672 C   0  0  0  0  0  0  0  0  0  0  0  0
  -23.6402   -7.8977   21.8059 C   0  0  0  0  0  0  0  0  0  0  0  0
  -29.8430  -21.6989   18.0198 C   0  0  0  0  0  0  0  0  0  0  0  0
  -26.0739  -27.3803   20.4442 C   0  0  0  0  0  0  0  0  0  0  0  0
  -21.5365   -8.4854   20.7732 C   0  0  0  0  0  0  0  0  0  0  0  0
  -26.1143  -13.6905   21.5441 C   0  0  0  0  0  0  0  0  0  0  0  0
  -30.5283  -22.0323   16.8515 C   0  0  0  0  0  0  0  0  0  0  0  0
  -27.6273  -14.5940   23.3886 C   0  0  0  0  0  0  0  0  0  0  0  0
  -25.5839  -34.4110   25.0621 C   0  0  0  0  0  0  0  0  0  0  0  0
  -25.5297  -29.7366   20.3376 C   0  0  0  0  0  0  0  0  0  0  0  0
  -25.8147  -33.0907   24.6306 C   0  0  0  0  0  0  0  0  0  0  0  0
  -25.1378  -28.4149   20.5937 C   0  0  0  0  0  0  0  0  0  0  0  0
  -30.0886  -20.4781   18.6482 C   0  0  0  0  0  0  0  0  0  0  0  0
  -24.8186  -11.6609   20.1356 C   0  0  0  0  0  0  0  0  0  0  0  0
  -27.3780  -27.6551   20.0333 C   0  0  0  0  0  0  0  0  0  0  0  0
  -23.5492   -9.6838   20.1815 C   0  0  0  0  0  0  0  0  0  0  0  0
  -22.2681   -7.6942   21.6589 C   0  0  0  0  0  0  0  0  0  0  0  0
  -22.1771   -9.4803   20.0345 C   0  0  0  0  0  0  0  0  0  0  0  0
  -26.7839  -14.7391   22.2709 C   0  0  0  0  0  0  0  0  0  0  0  0
  -28.0048  -15.8767   23.7028 C   0  0  0  0  0  0  0  0  0  0  0  0
  -30.2561  -25.9245   18.7201 C   0  0  0  0  0  0  0  0  0  0  0  0
  -30.7062  -24.8998   17.9516 C   0  0  0  0  0  0  0  0  0  0  0  0
  -30.2677  -23.3222   16.1879 C   0  0  0  0  0  0  0  0  0  0  0  0
  -28.0333  -13.4059   24.0810 C   0  0  0  0  0  0  0  0  0  0  0  0
  -23.7738  -30.5771   22.8504 C   0  0  0  0  0  0  0  0  0  0  0  0
  -21.4191  -29.0485   21.2251 C   0  0  0  0  0  0  0  0  0  0  0  0
  -20.5547  -26.7139   18.8908 C   0  0  0  0  0  0  0  0  0  0  0  0
  -28.4375  -20.9043   20.5026 C   0  0  0  0  0  0  0  0  0  0  0  0
  -24.2481  -34.8436   25.6126 C   0  0  0  0  0  0  0  0  0  0  0  0
  -24.5409  -30.8628   20.4658 C   0  0  0  0  0  0  0  0  0  0  0  0
  -23.7384  -28.0739   21.0340 C   0  0  0  0  0  0  0  0  0  0  0  0
  -23.1060  -33.8961   25.2546 C   0  0  0  0  0  0  0  0  0  0  0  0
  -26.4711  -20.4051   23.4286 C   0  0  0  0  0  0  0  0  0  0  0  0
  -23.5174  -32.4477   25.4993 C   0  0  0  0  0  0  0  0  0  0  0  0
  -26.4100  -18.8824   23.5689 C   0  0  0  0  0  0  0  0  0  0  0  0
  -27.9290  -25.4993   17.8249 C   0  0  0  0  0  0  0  0  0  0  0  0
  -26.4296  -20.8419   21.9653 C   0  0  0  0  0  0  0  0  0  0  0  0
  -28.6180  -25.0290   16.5644 C   0  0  0  0  0  0  0  0  0  0  0  0
  -27.3694  -18.6835   21.2393 C   0  0  0  0  0  0  0  0  0  0  0  0
  -24.7100  -32.0565   24.6183 C   0  0  1  0  0  0  0  0  0  0  0  0
  -28.8382  -26.4501   18.5935 C   0  0  1  0  0  0  0  0  0  1  0  0
  -23.3806  -30.5356   21.4008 C   0  0  1  0  0  0  0  0  0  0  0  0
  -27.4738  -18.1926   22.6925 C   0  0  2  0  0  0  0  0  0  0  0  0
  -31.0946  -26.6549   19.7407 C   0  0  0  0  0  0  0  0  0  0  0  0
  -32.0717  -24.2835   18.1438 C   0  0  0  0  0  0  0  0  0  0  0  0
  -18.5519  -25.6609   17.8056 C   0  0  0  0  0  0  0  0  0  0  0  0
  -20.9309  -27.3912   23.7401 C   0  0  0  0  0  0  0  0  0  0  0  0
  -19.6340  -25.7727   22.3375 C   0  0  0  0  0  0  0  0  0  0  0  0
  -18.8544  -28.1319   22.5594 C   0  0  0  0  0  0  0  0  0  0  0  0
  -21.3646  -27.6634   16.2072 C   0  0  0  0  0  0  0  0  0  0  0  0
  -20.9057  -27.6300   21.1694 C   0  0  1  0  0  0  0  0  0  0  0  0
  -19.5897  -26.7692   17.7202 C   0  0  2  0  0  0  0  0  0  0  0  0
  -20.1083  -27.2378   22.4452 C   0  0  0  0  0  0  0  0  0  0  0  0
  -26.6340  -16.0135   21.9000 N   0  0  0  0  0  0  0  0  0  0  0  0
  -27.3883  -16.6809   22.7899 N   0  0  0  0  0  0  0  0  0  0  0  0
  -29.8993  -24.3715   16.9198 N   0  0  0  0  0  0  0  0  0  0  0  0
  -22.8099  -29.2104   21.1510 N   0  0  0  0  0  0  0  0  0  0  0  0
  -27.4677  -20.1509   21.1974 N   0  0  0  0  0  0  0  0  0  0  0  0
  -28.8006  -16.3839   24.6681 N   0  0  0  0  0  0  0  0  0  0  0  0
  -27.5528  -12.1704   23.6261 N   0  0  0  0  0  0  0  0  0  0  0  0
  -29.3929  -20.1386   19.8350 N   0  0  0  0  0  0  0  0  0  0  0  0
  -24.2736  -31.7975   23.2630 N   0  0  0  0  0  0  0  0  0  0  0  0
  -20.1429  -27.5203   19.9307 N   0  0  0  0  0  0  0  0  0  0  0  0
  -30.4064  -23.4181   14.8689 N   0  3  0  0  0  0  0  0  0  0  0  0
  -20.3275  -26.6241   16.4335 N   0  3  0  0  0  0  0  0  0  0  0  0
  -28.7863  -13.4404   25.0836 O   0  0  0  0  0  0  0  0  0  0  0  0
  -23.6327  -29.5765   23.5436 O   0  0  0  0  0  0  0  0  0  0  0  0
  -20.6154  -29.9791   21.3235 O   0  0  0  0  0  0  0  0  0  0  0  0
  -21.5701  -26.0215   18.8848 O   0  0  0  0  0  0  0  0  0  0  0  0
  -28.4375  -22.1378   20.5223 O   0  0  0  0  0  0  0  0  0  0  0  0
  -24.1867  -10.6704   19.4482 O   0  0  0  0  0  0  0  0  0  0  0  0
  -28.2749  -26.6416   19.8910 O   0  0  0  0  0  0  0  0  0  1  0  0
  -21.6534   -6.7378   22.3672 F   0  0  0  0  0  0  0  0  0  0  0  0
  -21.4692  -10.2365   19.1844 F   0  0  0  0  0  0  0  0  0  0  0  0
  1  2  1  0  0  0  0
  1  7  2  0  0  0  0
  2  8  2  0  0  0  0
  3  6  2  0  0  0  0
  3 10  1  0  0  0  0
  4 11  2  0  0  0  0
  4 19  1  0  0  0  0
  5 12  1  0  0  0  0
  5 19  2  0  0  0  0
  6 20  1  0  0  0  0
  7 22  1  0  0  0  0
  8 24  1  0  0  0  0
  9 13  2  0  0  0  0
  9 23  1  0  0  0  0
 10 26  2  0  0  0  0
 11 27  1  0  0  0  0
 12 27  2  0  0  0  0
 13 28  1  0  0  0  0
 14 15  2  0  0  0  0
 14 29  1  0  0  0  0
 15 30  1  0  0  0  0
 16 20  2  0  0  0  0
 16 26  1  0  0  0  0
 17 25  1  0  0  0  0
 17 28  2  0  0  0  0
 18 30  2  0  0  0  0
 18 31  1  0  0  0  0
 19 32  1  0  0  0  0
 20 36  1  0  0  0  0
 21 32  1  0  0  0  0
 21 33  2  0  0  0  0
 21 37  1  0  0  0  0
 22 24  2  0  0  0  0
 22 42  1  0  0  0  0
 23 25  2  0  0  0  0
 23 43  1  0  0  0  0
 24 53  1  0  0  0  0
 25 44  1  0  0  0  0
 26 74  1  0  0  0  0
 27 84  1  0  0  0  0
 28 85  1  0  0  0  0
 29 31  2  0  0  0  0
 29 84  1  0  0  0  0
 30 86  1  0  0  0  0
 31 87  1  0  0  0  0
 32 67  2  0  0  0  0
 33 68  1  0  0  0  0
 33 72  1  0  0  0  0
 34 35  2  0  0  0  0
 34 54  1  0  0  0  0
 34 57  1  0  0  0  0
 35 58  1  0  0  0  0
 35 69  1  0  0  0  0
 36 69  1  0  0  0  0
 36 77  2  0  0  0  0
 37 73  1  0  0  0  0
 37 79  2  0  0  0  0
 38 55  1  0  0  0  0
 38 75  1  0  0  0  0
 38 80  2  0  0  0  0
 39 64  1  0  0  0  0
 39 70  1  0  0  0  0
 39 81  2  0  0  0  0
 40 65  1  0  0  0  0
 40 76  1  0  0  0  0
 40 82  2  0  0  0  0
 41 71  1  0  0  0  0
 41 74  1  0  0  0  0
 41 83  2  0  0  0  0
 42 45  1  0  0  0  0
 43 55  1  0  0  0  0
 44 70  1  0  0  0  0
 45 47  1  0  0  0  0
 46 48  1  0  0  0  0
 46 50  1  0  0  0  0
 47 53  1  0  0  0  0
 48 56  1  0  0  0  0
 49 51  1  0  0  0  0
 49 54  1  0  0  0  0
 50 71  1  0  0  0  0
 51 69  1  0  0  0  0
 52 56  1  0  0  0  0
 52 71  1  0  0  0  0
 53 75  1  0  0  0  0
 54 85  1  0  0  0  0
 55 70  1  0  0  0  0
 56 68  1  0  0  0  0
 59 65  1  0  0  0  0
 60 66  1  0  0  0  0
 61 66  1  0  0  0  0
 62 66  1  0  0  0  0
 63 78  1  0  0  0  0
 64 66  1  0  0  0  0
 64 76  1  0  0  0  0
 65 78  1  0  0  0  0
 67 68  1  0  0  0  0
M  CHG  2  77   1  78   1
M  ISO  4  41 100  54 101  74 100  85 101
M  END
> <Batch ID>
0160

> <Smiles>
CNC(C)C(=O)NC(C(=O)N1Cc2cc([101O:1][101CH:1]3CCN(C(=N)c4cccc([100NH:0][100C:0](=O)N5CCCC(n6nc(-c7ccc(Oc8ccc(F)cc8F)cc7)c(C(N)=O)c6N)C5)c4)C(C)=C3C)ccc2CC1C(=O)NC1CCCc2ccccc21)C(C)(C)C

> <Shape>
0.304

> <Color>
0.081

> <Negative vol penalty>
0.000

$$$$

  -OEChem-04052303503D

 85 94  0     1  0  0  0  0  0999 V2000
  -24.4176  -38.3933   19.6042 C   0  0  0  0  0  0  0  0  0  0  0  0
  -24.7432  -37.2950   18.8147 C   0  0  0  0  0  0  0  0  0  0  0  0
  -25.8725  -10.4170   21.9745 C   0  0  0  0  0  0  0  0  0  0  0  0
  -25.3053  -11.5505   19.9177 C   0  0  0  0  0  0  0  0  0  0  0  0
  -24.6956  -38.3752   20.9703 C   0  0  0  0  0  0  0  0  0  0  0  0
  -25.3479  -36.1784   19.3908 C   0  0  0  0  0  0  0  0  0  0  0  0
  -25.6445  -29.0478   18.7717 C   0  0  0  0  0  0  0  0  0  0  0  0
  -24.6086   -9.8275   21.9982 C   0  0  0  0  0  0  0  0  0  0  0  0
  -24.0414  -10.9609   19.9413 C   0  0  0  0  0  0  0  0  0  0  0  0
  -26.5730  -28.0151   18.6491 C   0  0  0  0  0  0  0  0  0  0  0  0
  -23.0352   -7.2463   20.4834 C   0  0  0  0  0  0  0  0  0  0  0  0
  -22.9603   -5.8850   20.7779 C   0  0  0  0  0  0  0  0  0  0  0  0
  -28.3282  -20.0893   17.2932 C   0  0  0  0  0  0  0  0  0  0  0  0
  -28.9061  -21.3056   17.6394 C   0  0  0  0  0  0  0  0  0  0  0  0
  -26.9338  -28.0644   21.0338 C   0  0  0  0  0  0  0  0  0  0  0  0
  -21.5850   -6.3769   22.7023 C   0  0  0  0  0  0  0  0  0  0  0  0
  -26.2209  -11.2786   20.9343 C   0  0  0  0  0  0  0  0  0  0  0  0
  -28.6915  -11.3780   20.3068 C   0  0  0  0  0  0  0  0  0  0  0  0
  -25.2953  -37.2540   21.5652 C   0  0  0  0  0  0  0  0  0  0  0  0
  -25.3613  -29.6050   20.0271 C   0  0  0  0  0  0  0  0  0  0  0  0
  -25.6354  -36.1459   20.7660 C   0  0  0  0  0  0  0  0  0  0  0  0
  -25.9995  -29.1024   21.1700 C   0  0  0  0  0  0  0  0  0  0  0  0
  -23.6931  -10.0994   20.9816 C   0  0  0  0  0  0  0  0  0  0  0  0
  -27.2200  -27.5251   19.7798 C   0  0  0  0  0  0  0  0  0  0  0  0
  -22.3851   -8.1730   21.2984 C   0  0  0  0  0  0  0  0  0  0  0  0
  -22.2352   -5.4503   21.8873 C   0  0  0  0  0  0  0  0  0  0  0  0
  -28.3212  -19.0435   18.2094 C   0  0  0  0  0  0  0  0  0  0  0  0
  -21.6599   -7.7383   22.4078 C   0  0  0  0  0  0  0  0  0  0  0  0
  -27.5261  -11.8883   20.9096 C   0  0  0  0  0  0  0  0  0  0  0  0
  -29.4592  -21.4242   18.9042 C   0  0  0  0  0  0  0  0  0  0  0  0
  -28.9006  -19.2632   19.4487 C   0  0  0  0  0  0  0  0  0  0  0  0
  -29.6531  -12.3249   20.5625 C   0  0  0  0  0  0  0  0  0  0  0  0
  -30.9995  -24.9972   20.8336 C   0  0  0  0  0  0  0  0  0  0  0  0
  -29.6859  -24.9305   20.5556 C   0  0  0  0  0  0  0  0  0  0  0  0
  -28.8873  -10.1573   19.5807 C   0  0  0  0  0  0  0  0  0  0  0  0
  -25.6660  -32.4928   21.3199 C   0  0  0  0  0  0  0  0  0  0  0  0
  -24.0957  -31.1191   23.8037 C   0  0  0  0  0  0  0  0  0  0  0  0
  -23.2663  -28.2683   25.4864 C   0  0  0  0  0  0  0  0  0  0  0  0
  -29.4125  -18.1917   21.6704 C   0  0  0  0  0  0  0  0  0  0  0  0
  -25.6195  -37.2996   23.0374 C   0  0  0  0  0  0  0  0  0  0  0  0
  -24.3374  -30.7004   20.1459 C   0  0  0  0  0  0  0  0  0  0  0  0
  -25.7158  -29.6524   22.5431 C   0  0  0  0  0  0  0  0  0  0  0  0
  -31.9641  -23.8771   20.5791 C   0  0  0  0  0  0  0  0  0  0  0  0
  -29.0627  -23.7105   19.9201 C   0  0  0  0  0  0  0  0  0  0  0  0
  -25.9205  -35.9287   23.6376 C   0  0  0  0  0  0  0  0  0  0  0  0
  -31.2776  -22.5421   20.2815 C   0  0  0  0  0  0  0  0  0  0  0  0
  -30.8415  -15.6871   23.7590 C   0  0  0  0  0  0  0  0  0  0  0  0
  -26.8821  -35.1535   22.7425 C   0  0  0  0  0  0  0  0  0  0  0  0
  -30.2643  -14.3818   23.2066 C   0  0  0  0  0  0  0  0  0  0  0  0
  -29.8238  -16.8250   23.7047 C   0  0  0  0  0  0  0  0  0  0  0  0
  -28.6368  -15.7450   21.8355 C   0  0  0  0  0  0  0  0  0  0  0  0
  -26.2697  -34.9063   21.3585 C   0  0  1  0  0  0  0  0  0  0  0  0
  -30.0977  -22.7377   19.3167 C   0  0  1  0  0  0  0  0  0  0  0  0
  -24.5061  -31.5416   21.4074 C   0  0  1  0  0  0  0  0  0  0  0  0
  -29.6462  -14.5856   21.8095 C   0  0  2  0  0  0  0  0  0  0  0  0
  -22.0026  -27.4668   27.5009 C   0  0  0  0  0  0  0  0  0  0  0  0
  -26.3650  -32.0761   25.6049 C   0  0  0  0  0  0  0  0  0  0  0  0
  -25.5589  -30.4756   27.3533 C   0  0  0  0  0  0  0  0  0  0  0  0
  -24.0779  -32.3298   26.5844 C   0  0  0  0  0  0  0  0  0  0  0  0
  -21.4203  -26.6534   23.8300 C   0  0  0  0  0  0  0  0  0  0  0  0
  -28.7526  -26.0641   20.8627 C   0  0  0  0  0  0  0  0  0  1  0  0
  -24.5095  -30.3696   25.0471 C   0  0  1  0  0  0  0  0  0  0  0  0
  -21.9356  -27.7586   26.0099 C   0  0  2  0  0  0  0  0  0  0  0  0
  -25.1348  -31.3035   26.1215 C   0  0  0  0  0  0  0  0  0  0  0  0
  -27.7269  -13.0677   21.5036 N   0  0  0  0  0  0  0  0  0  0  0  0
  -29.4714  -20.4308   19.8211 N   0  0  0  0  0  0  0  0  0  0  0  0
  -29.0296  -13.3063   21.2754 N   0  0  0  0  0  0  0  0  0  0  0  0
  -24.7115  -30.7270   22.6067 N   0  0  0  0  0  0  0  0  0  0  0  0
  -29.2840  -16.9619   22.3501 N   0  0  0  0  0  0  0  0  0  0  0  0
  -30.9627  -12.4053   20.2449 N   0  0  0  0  0  0  0  0  0  0  0  0
  -27.7929   -9.2985   19.4101 N   0  0  0  0  0  0  0  0  0  0  0  0
  -28.8908  -18.1930   20.3772 N   0  0  0  0  0  0  0  0  0  0  0  0
  -25.3101  -33.8245   21.4164 N   0  0  0  0  0  0  0  0  0  0  0  0
  -23.3266  -29.6457   25.5000 N   0  0  0  0  0  0  0  0  0  0  0  0
  -21.5464  -26.5057   25.3029 N   0  3  0  0  0  0  0  0  0  0  0  0
  -30.0036   -9.8299   19.1116 O   0  0  0  0  0  0  0  0  0  0  0  0
  -26.8001  -32.0511   21.1770 O   0  0  0  0  0  0  0  0  0  0  0  0
  -23.2516  -32.0146   23.8902 O   0  0  0  0  0  0  0  0  0  0  0  0
  -24.1638  -27.5193   25.1071 O   0  0  0  0  0  0  0  0  0  0  0  0
  -29.9704  -19.1634   22.1868 O   0  0  0  0  0  0  0  0  0  0  0  0
  -22.4597   -9.5241   21.0042 O   0  0  0  0  0  0  0  0  0  0  0  0
  -28.1272  -26.5176   19.6628 O   0  0  0  0  0  0  0  0  0  1  0  0
  -22.1621   -4.1428   22.1691 F   0  0  0  0  0  0  0  0  0  0  0  0
  -27.7677  -17.8667   17.8898 F   0  0  0  0  0  0  0  0  0  0  0  0
  -21.0322   -8.6238   23.1938 F   0  0  0  0  0  0  0  0  0  0  0  0
  1  2  1  0  0  0  0
  1  5  2  0  0  0  0
  2  6  2  0  0  0  0
  3  8  2  0  0  0  0
  3 17  1  0  0  0  0
  4  9  1  0  0  0  0
  4 17  2  0  0  0  0
  5 19  1  0  0  0  0
  6 21  1  0  0  0  0
  7 10  2  0  0  0  0
  7 20  1  0  0  0  0
  8 23  1  0  0  0  0
  9 23  2  0  0  0  0
 10 24  1  0  0  0  0
 11 12  2  0  0  0  0
 11 25  1  0  0  0  0
 12 26  1  0  0  0  0
 13 14  2  0  0  0  0
 13 27  1  0  0  0  0
 14 30  1  0  0  0  0
 15 22  1  0  0  0  0
 15 24  2  0  0  0  0
 16 26  2  0  0  0  0
 16 28  1  0  0  0  0
 17 29  1  0  0  0  0
 18 29  1  0  0  0  0
 18 32  2  0  0  0  0
 18 35  1  0  0  0  0
 19 21  2  0  0  0  0
 19 40  1  0  0  0  0
 20 22  2  0  0  0  0
 20 41  1  0  0  0  0
 21 52  1  0  0  0  0
 22 42  1  0  0  0  0
 23 81  1  0  0  0  0
 24 82  1  0  0  0  0
 25 28  2  0  0  0  0
 25 81  1  0  0  0  0
 26 83  1  0  0  0  0
 27 31  2  0  0  0  0
 27 84  1  0  0  0  0
 28 85  1  0  0  0  0
 29 65  2  0  0  0  0
 30 53  1  0  0  0  0
 30 66  2  0  0  0  0
 31 66  1  0  0  0  0
 31 72  1  0  0  0  0
 32 67  1  0  0  0  0
 32 70  1  0  0  0  0
 33 34  2  0  0  0  0
 33 43  1  0  0  0  0
 34 44  1  0  0  0  0
 34 61  1  0  0  0  0
 35 71  1  0  0  0  0
 35 76  2  0  0  0  0
 36 54  1  0  0  0  0
 36 73  1  0  0  0  0
 36 77  2  0  0  0  0
 37 62  1  0  0  0  0
 37 68  1  0  0  0  0
 37 78  2  0  0  0  0
 38 63  1  0  0  0  0
 38 74  1  0  0  0  0
 38 79  2  0  0  0  0
 39 69  1  0  0  0  0
 39 72  1  0  0  0  0
 39 80  2  0  0  0  0
 40 45  1  0  0  0  0
 41 54  1  0  0  0  0
 42 68  1  0  0  0  0
 43 46  1  0  0  0  0
 44 53  1  0  0  0  0
 45 48  1  0  0  0  0
 46 53  1  0  0  0  0
 47 49  1  0  0  0  0
 47 50  1  0  0  0  0
 48 52  1  0  0  0  0
 49 55  1  0  0  0  0
 50 69  1  0  0  0  0
 51 55  1  0  0  0  0
 51 69  1  0  0  0  0
 52 73  1  0  0  0  0
 54 68  1  0  0  0  0
 55 67  1  0  0  0  0
 56 63  1  0  0  0  0
 57 64  1  0  0  0  0
 58 64  1  0  0  0  0
 59 64  1  0  0  0  0
 60 75  1  0  0  0  0
 61 82  1  0  0  0  0
 62 64  1  0  0  0  0
 62 74  1  0  0  0  0
 63 75  1  0  0  0  0
 65 67  1  0  0  0  0
M  CHG  1  75   1
M  ISO  4  39 100  61 101  72 100  82 101
M  END
> <Batch ID>
0160

> <Smiles>
CNC(C)C(=O)NC(C(=O)N1Cc2cc([101O:1][101CH2:1]C3=CCCC(c4ccc(F)c([100NH:0][100C:0](=O)N5CCCC(n6nc(-c7ccc(Oc8ccc(F)cc8F)cc7)c(C(N)=O)c6N)C5)n4)C3)ccc2CC1C(=O)NC1CCCc2ccccc21)C(C)(C)C

> <Shape>
0.318

> <Color>
0.087

> <Negative vol penalty>
0.000

$$$$

  -OEChem-04052303503D

 86 95  0     1  0  0  0  0  0999 V2000
  -38.8548  -29.9795   15.2230 C   0  0  0  0  0  0  0  0  0  0  0  0
  -38.2124  -29.2632   16.2278 C   0  0  0  0  0  0  0  0  0  0  0  0
  -22.6718  -10.1839   20.1902 C   0  0  0  0  0  0  0  0  0  0  0  0
  -24.3068   -9.4517   21.8112 C   0  0  0  0  0  0  0  0  0  0  0  0
  -38.1217  -30.8318   14.3983 C   0  0  0  0  0  0  0  0  0  0  0  0
  -36.8365  -29.3997   16.4092 C   0  0  0  0  0  0  0  0  0  0  0  0
  -34.5151  -24.9497   17.0828 C   0  0  0  0  0  0  0  0  0  0  0  0
  -31.8608  -17.3342   21.6665 C   0  0  0  0  0  0  0  0  0  0  0  0
  -21.9376   -9.0173   20.4037 C   0  0  0  0  0  0  0  0  0  0  0  0
  -23.5726   -8.2851   22.0248 C   0  0  0  0  0  0  0  0  0  0  0  0
  -34.6159  -24.3634   18.3437 C   0  0  0  0  0  0  0  0  0  0  0  0
  -20.8069   -7.3623   23.7334 C   0  0  0  0  0  0  0  0  0  0  0  0
  -20.6073   -6.9564   25.0529 C   0  0  0  0  0  0  0  0  0  0  0  0
  -32.3298  -18.5414   22.1725 C   0  0  0  0  0  0  0  0  0  0  0  0
  -32.4119  -25.1768   18.8915 C   0  0  0  0  0  0  0  0  0  0  0  0
  -21.7418   -4.8754   24.5842 C   0  0  0  0  0  0  0  0  0  0  0  0
  -29.8436  -17.6686   22.8812 C   0  0  0  0  0  0  0  0  0  0  0  0
  -23.8564  -10.4011   20.8939 C   0  0  0  0  0  0  0  0  0  0  0  0
  -24.1837  -12.9309   20.8715 C   0  0  0  0  0  0  0  0  0  0  0  0
  -36.7346  -30.9714   14.5635 C   0  0  0  0  0  0  0  0  0  0  0  0
  -33.3644  -25.6645   16.7201 C   0  0  0  0  0  0  0  0  0  0  0  0
  -36.0844  -30.2556   15.5868 C   0  0  0  0  0  0  0  0  0  0  0  0
  -32.2979  -25.7691   17.6245 C   0  0  0  0  0  0  0  0  0  0  0  0
  -30.5950  -16.8824   22.0227 C   0  0  0  0  0  0  0  0  0  0  0  0
  -22.3880   -8.0679   21.3211 C   0  0  0  0  0  0  0  0  0  0  0  0
  -33.5654  -24.4793   19.2493 C   0  0  0  0  0  0  0  0  0  0  0  0
  -21.4738   -6.5247   22.8393 C   0  0  0  0  0  0  0  0  0  0  0  0
  -21.0748   -5.7129   25.4783 C   0  0  0  0  0  0  0  0  0  0  0  0
  -21.9413   -5.2813   23.2647 C   0  0  0  0  0  0  0  0  0  0  0  0
  -24.6155  -11.6058   20.6733 C   0  0  0  0  0  0  0  0  0  0  0  0
  -31.5006  -19.2535   23.0241 C   0  0  0  0  0  0  0  0  0  0  0  0
  -25.2665  -13.7007   20.5227 C   0  0  0  0  0  0  0  0  0  0  0  0
  -22.9171  -13.4222   21.3299 C   0  0  0  0  0  0  0  0  0  0  0  0
  -32.7591  -28.6758   15.9022 C   0  0  0  0  0  0  0  0  0  0  0  0
  -32.7809  -22.2948   21.9703 C   0  0  0  0  0  0  0  0  0  0  0  0
  -29.7866  -27.5119   15.3257 C   0  0  0  0  0  0  0  0  0  0  0  0
  -27.5030  -25.2166   16.9175 C   0  0  0  0  0  0  0  0  0  0  0  0
  -30.7294  -14.7690   20.6582 C   0  0  0  0  0  0  0  0  0  0  0  0
  -35.9921  -31.9407   13.6782 C   0  0  0  0  0  0  0  0  0  0  0  0
  -33.2603  -26.2683   15.3465 C   0  0  0  0  0  0  0  0  0  0  0  0
  -31.0328  -26.5085   17.2766 C   0  0  0  0  0  0  0  0  0  0  0  0
  -34.4784  -31.7436   13.6943 C   0  0  0  0  0  0  0  0  0  0  0  0
  -30.0492  -21.5060   25.0214 C   0  0  0  0  0  0  0  0  0  0  0  0
  -29.8480  -22.6106   23.9890 C   0  0  0  0  0  0  0  0  0  0  0  0
  -29.5914  -12.4470   18.2107 C   0  0  0  0  0  0  0  0  0  0  0  0
  -33.9751  -31.5915   15.1263 C   0  0  0  0  0  0  0  0  0  0  0  0
  -31.4864  -20.9791   25.0078 C   0  0  0  0  0  0  0  0  0  0  0  0
  -28.1598  -12.1302   18.6495 C   0  0  0  0  0  0  0  0  0  0  0  0
  -30.3253  -22.1724   22.6093 C   0  0  0  0  0  0  0  0  0  0  0  0
  -30.5234  -12.6320   19.4068 C   0  0  0  0  0  0  0  0  0  0  0  0
  -28.6340  -13.2892   20.8447 C   0  0  0  0  0  0  0  0  0  0  0  0
  -34.5895  -30.3580   15.7989 C   0  0  1  0  0  0  0  0  0  0  0  0
  -31.9831  -20.5842   23.5995 C   0  0  2  0  0  0  0  0  0  0  0  0
  -32.2516  -27.4104   15.2707 C   0  0  1  0  0  0  0  0  0  0  0  0
  -27.6443  -13.1583   19.6755 C   0  0  2  0  0  0  0  0  0  0  0  0
  -25.6791  -23.7930   15.9459 C   0  0  0  0  0  0  0  0  0  0  0  0
  -27.9712  -29.8570   16.0432 C   0  0  0  0  0  0  0  0  0  0  0  0
  -26.2127  -28.2027   16.7058 C   0  0  0  0  0  0  0  0  0  0  0  0
  -27.0215  -28.2833   14.3474 C   0  0  0  0  0  0  0  0  0  0  0  0
  -28.6490  -22.7492   18.0827 C   0  0  0  0  0  0  0  0  0  0  0  0
  -32.4473  -23.4739   21.0918 C   0  0  0  0  0  0  0  0  0  1  0  0
  -28.5294  -27.3382   16.1432 C   0  0  1  0  0  0  0  0  0  0  0  0
  -27.1202  -23.8308   16.4299 C   0  0  2  0  0  0  0  0  0  0  0  0
  -27.4595  -28.4196   15.8220 C   0  0  0  0  0  0  0  0  0  0  0  0
  -30.2652  -18.8467   23.3929 N   0  0  0  0  0  0  0  0  0  0  0  0
  -25.8744  -11.5341   20.2327 N   0  0  0  0  0  0  0  0  0  0  0  0
  -26.2428  -12.8239   20.1510 N   0  0  0  0  0  0  0  0  0  0  0  0
  -30.9815  -27.0869   15.9236 N   0  0  0  0  0  0  0  0  0  0  0  0
  -31.7203  -21.7126   22.6720 N   0  0  0  0  0  0  0  0  0  0  0  0
  -29.9726  -13.6233   20.3336 N   0  0  0  0  0  0  0  0  0  0  0  0
  -25.4691  -15.0351   20.5007 N   0  0  0  0  0  0  0  0  0  0  0  0
  -21.9150  -12.4944   21.6450 N   0  0  0  0  0  0  0  0  0  0  0  0
  -30.0898  -15.6565   21.5231 N   0  0  0  0  0  0  0  0  0  0  0  0
  -33.9296  -29.1530   15.3440 N   0  0  0  0  0  0  0  0  0  0  0  0
  -28.0813  -25.9684   15.9167 N   0  0  0  0  0  0  0  0  0  0  0  0
  -27.2736  -22.8348   17.5278 N   0  3  0  0  0  0  0  0  0  0  0  0
  -22.6756  -14.6481   21.4408 O   0  0  0  0  0  0  0  0  0  0  0  0
  -32.1341  -29.1827   16.8264 O   0  0  0  0  0  0  0  0  0  0  0  0
  -33.9490  -21.9017   22.0293 O   0  0  0  0  0  0  0  0  0  0  0  0
  -29.7104  -28.0000   14.1954 O   0  0  0  0  0  0  0  0  0  0  0  0
  -27.3051  -25.5955   18.0698 O   0  0  0  0  0  0  0  0  0  0  0  0
  -31.8504  -14.9629   20.1810 O   0  0  0  0  0  0  0  0  0  0  0  0
  -21.6718   -6.9295   21.5299 O   0  0  0  0  0  0  0  0  0  0  0  0
  -33.6615  -23.9085   20.4809 O   0  0  0  0  0  0  0  0  0  1  0  0
  -20.8845   -5.3239   26.7458 F   0  0  0  0  0  0  0  0  0  0  0  0
  -22.5837   -4.4728   22.4107 F   0  0  0  0  0  0  0  0  0  0  0  0
  1  2  1  0  0  0  0
  1  5  2  0  0  0  0
  2  6  2  0  0  0  0
  3  9  2  0  0  0  0
  3 18  1  0  0  0  0
  4 10  1  0  0  0  0
  4 18  2  0  0  0  0
  5 20  1  0  0  0  0
  6 22  1  0  0  0  0
  7 11  2  0  0  0  0
  7 21  1  0  0  0  0
  8 14  2  0  0  0  0
  8 24  1  0  0  0  0
  9 25  1  0  0  0  0
 10 25  2  0  0  0  0
 11 26  1  0  0  0  0
 12 13  2  0  0  0  0
 12 27  1  0  0  0  0
 13 28  1  0  0  0  0
 14 31  1  0  0  0  0
 15 23  1  0  0  0  0
 15 26  2  0  0  0  0
 16 28  2  0  0  0  0
 16 29  1  0  0  0  0
 17 24  2  0  0  0  0
 17 65  1  0  0  0  0
 18 30  1  0  0  0  0
 19 30  1  0  0  0  0
 19 32  2  0  0  0  0
 19 33  1  0  0  0  0
 20 22  2  0  0  0  0
 20 39  1  0  0  0  0
 21 23  2  0  0  0  0
 21 40  1  0  0  0  0
 22 52  1  0  0  0  0
 23 41  1  0  0  0  0
 24 73  1  0  0  0  0
 25 83  1  0  0  0  0
 26 84  1  0  0  0  0
 27 29  2  0  0  0  0
 27 83  1  0  0  0  0
 28 85  1  0  0  0  0
 29 86  1  0  0  0  0
 30 66  2  0  0  0  0
 31 53  1  0  0  0  0
 31 65  2  0  0  0  0
 32 67  1  0  0  0  0
 32 71  1  0  0  0  0
 33 72  1  0  0  0  0
 33 77  2  0  0  0  0
 34 54  1  0  0  0  0
 34 74  1  0  0  0  0
 34 78  2  0  0  0  0
 35 61  1  0  0  0  0
 35 69  1  0  0  0  0
 35 79  2  0  0  0  0
 36 62  1  0  0  0  0
 36 68  1  0  0  0  0
 36 80  2  0  0  0  0
 37 63  1  0  0  0  0
 37 75  1  0  0  0  0
 37 81  2  0  0  0  0
 38 70  1  0  0  0  0
 38 73  1  0  0  0  0
 38 82  2  0  0  0  0
 39 42  1  0  0  0  0
 40 54  1  0  0  0  0
 41 68  1  0  0  0  0
 42 46  1  0  0  0  0
 43 44  1  0  0  0  0
 43 47  1  0  0  0  0
 44 49  1  0  0  0  0
 45 48  1  0  0  0  0
 45 50  1  0  0  0  0
 46 52  1  0  0  0  0
 47 53  1  0  0  0  0
 48 55  1  0  0  0  0
 49 69  1  0  0  0  0
 50 70  1  0  0  0  0
 51 55  1  0  0  0  0
 51 70  1  0  0  0  0
 52 74  1  0  0  0  0
 53 69  1  0  0  0  0
 54 68  1  0  0  0  0
 55 67  1  0  0  0  0
 56 63  1  0  0  0  0
 57 64  1  0  0  0  0
 58 64  1  0  0  0  0
 59 64  1  0  0  0  0
 60 76  1  0  0  0  0
 61 84  1  0  0  0  0
 62 64  1  0  0  0  0
 62 75  1  0  0  0  0
 63 76  1  0  0  0  0
 66 67  1  0  0  0  0
M  CHG  1  76   1
M  ISO  4  38 100  61 101  73 100  84 101
M  END
> <Batch ID>
0160

> <Smiles>
CNC(C)C(=O)NC(C(=O)N1Cc2cc([101O:1][101CH2:1]C(=O)N3CCCCC3c3ccc([100NH:0][100C:0](=O)N4CCCC(n5nc(-c6ccc(Oc7ccc(F)cc7F)cc6)c(C(N)=O)c5N)C4)cn3)ccc2CC1C(=O)NC1CCCc2ccccc21)C(C)(C)C

> <Shape>
0.203

> <Color>
0.192

> <Negative vol penalty>
0.000

$$$$

  -OEChem-04052303503D

 88 97  0     1  0  0  0  0  0999 V2000
  -21.6161  -29.9980   16.9825 C   0  0  0  0  0  0  0  0  0  0  0  0
  -22.1357  -28.9778   17.7728 C   0  0  0  0  0  0  0  0  0  0  0  0
  -23.0745   -9.8700   19.9399 C   0  0  0  0  0  0  0  0  0  0  0  0
  -23.8351   -9.8744   22.2331 C   0  0  0  0  0  0  0  0  0  0  0  0
  -21.4301  -29.7937   15.6160 C   0  0  0  0  0  0  0  0  0  0  0  0
  -22.4687  -27.7522   17.1971 C   0  0  0  0  0  0  0  0  0  0  0  0
  -26.9536  -26.0154   18.7828 C   0  0  0  0  0  0  0  0  0  0  0  0
  -22.3300   -8.7172   20.1891 C   0  0  0  0  0  0  0  0  0  0  0  0
  -23.0905   -8.7216   22.4823 C   0  0  0  0  0  0  0  0  0  0  0  0
  -26.9979  -25.4260   20.0455 C   0  0  0  0  0  0  0  0  0  0  0  0
  -19.8620   -7.9254   23.0850 C   0  0  0  0  0  0  0  0  0  0  0  0
  -19.1054   -7.8850   24.2561 C   0  0  0  0  0  0  0  0  0  0  0  0
  -26.9301  -23.2426   19.0221 C   0  0  0  0  0  0  0  0  0  0  0  0
  -31.8566  -18.3521   24.2063 C   0  0  0  0  0  0  0  0  0  0  0  0
  -29.8832  -17.4521   23.1420 C   0  0  0  0  0  0  0  0  0  0  0  0
  -32.0670  -16.6032   22.5527 C   0  0  0  0  0  0  0  0  0  0  0  0
  -20.3457   -5.9460   24.9905 C   0  0  0  0  0  0  0  0  0  0  0  0
  -23.8272  -10.4486   20.9619 C   0  0  0  0  0  0  0  0  0  0  0  0
  -24.1707  -12.9737   20.8440 C   0  0  0  0  0  0  0  0  0  0  0  0
  -21.7700  -28.5682   15.0214 C   0  0  0  0  0  0  0  0  0  0  0  0
  -26.8861  -25.2215   17.6287 C   0  0  0  0  0  0  0  0  0  0  0  0
  -22.2859  -27.5308   15.8215 C   0  0  0  0  0  0  0  0  0  0  0  0
  -26.8877  -23.8243   17.7458 C   0  0  0  0  0  0  0  0  0  0  0  0
  -30.4708  -18.3351   24.0479 C   0  0  0  0  0  0  0  0  0  0  0  0
  -32.6547  -17.4862   23.4586 C   0  0  0  0  0  0  0  0  0  0  0  0
  -30.6813  -16.5862   22.3944 C   0  0  0  0  0  0  0  0  0  0  0  0
  -22.3379   -8.1429   21.4602 C   0  0  0  0  0  0  0  0  0  0  0  0
  -26.9832  -24.0395   20.1655 C   0  0  0  0  0  0  0  0  0  0  0  0
  -20.8604   -6.9761   22.8666 C   0  0  0  0  0  0  0  0  0  0  0  0
  -19.3472   -6.8953   25.2088 C   0  0  0  0  0  0  0  0  0  0  0  0
  -21.1023   -5.9865   23.8193 C   0  0  0  0  0  0  0  0  0  0  0  0
  -24.5970  -11.6392   20.7050 C   0  0  0  0  0  0  0  0  0  0  0  0
  -25.2633  -13.7227   20.4811 C   0  0  0  0  0  0  0  0  0  0  0  0
  -22.9007  -13.4900   21.2638 C   0  0  0  0  0  0  0  0  0  0  0  0
  -24.7834  -24.8637   15.2721 C   0  0  0  0  0  0  0  0  0  0  0  0
  -27.0906  -22.9535   14.0271 C   0  0  0  0  0  0  0  0  0  0  0  0
  -29.8210  -20.9789   14.5682 C   0  0  0  0  0  0  0  0  0  0  0  0
  -30.7302  -14.7644   20.6551 C   0  0  0  0  0  0  0  0  0  0  0  0
  -21.5068  -28.3782   13.5486 C   0  0  0  0  0  0  0  0  0  0  0  0
  -26.8660  -25.8723   16.2728 C   0  0  0  0  0  0  0  0  0  0  0  0
  -26.8366  -22.9271   16.5371 C   0  0  0  0  0  0  0  0  0  0  0  0
  -22.2352  -27.1778   12.9496 C   0  0  0  0  0  0  0  0  0  0  0  0
  -29.6135  -12.3535   18.2850 C   0  0  0  0  0  0  0  0  0  0  0  0
  -22.0712  -25.9531   13.8440 C   0  0  0  0  0  0  0  0  0  0  0  0
  -28.1737  -12.0625   18.7148 C   0  0  0  0  0  0  0  0  0  0  0  0
  -29.5894  -22.5501   22.8894 C   0  0  0  0  0  0  0  0  0  0  0  0
  -27.2631  -22.0756   23.7438 C   0  0  0  0  0  0  0  0  0  0  0  0
  -30.5291  -12.5806   19.4866 C   0  0  0  0  0  0  0  0  0  0  0  0
  -28.6231  -13.3051   20.8691 C   0  0  0  0  0  0  0  0  0  0  0  0
  -30.1406  -21.4698   23.8137 C   0  0  0  0  0  0  0  0  0  0  0  0
  -27.8285  -20.9963   24.6610 C   0  0  0  0  0  0  0  0  0  0  0  0
  -22.6823  -26.1958   15.2293 C   0  0  1  0  0  0  0  0  0  0  0  0
  -26.2795  -24.9744   15.1878 C   0  0  1  0  0  0  0  0  0  0  0  0
  -27.6498  -13.1336   19.6914 C   0  0  2  0  0  0  0  0  0  0  0  0
  -28.2906  -23.1698   23.4245 C   0  0  0  0  0  0  0  0  0  0  0  0
  -31.4679  -19.5206   13.3606 C   0  0  0  0  0  0  0  0  0  0  0  0
  -24.9768  -20.7658   13.7912 C   0  0  0  0  0  0  0  0  0  0  0  0
  -26.8278  -19.1057   13.4980 C   0  0  0  0  0  0  0  0  0  0  0  0
  -26.5229  -20.9380   11.8330 C   0  0  0  0  0  0  0  0  0  0  0  0
  -32.1038  -22.6683   15.4010 C   0  0  0  0  0  0  0  0  0  0  0  0
  -29.5199  -24.9089   24.4182 C   0  0  0  0  0  0  0  0  0  0  0  0
  -29.6126  -19.2665   24.8522 C   0  0  0  0  0  0  0  0  0  0  0  0
  -27.7139  -24.1731   22.4247 C   0  0  0  0  0  0  0  0  0  1  0  0
  -27.4331  -21.4866   14.1271 C   0  0  1  0  0  0  0  0  0  0  0  0
  -31.1730  -20.9190   13.8805 C   0  0  2  0  0  0  0  0  0  0  0  0
  -26.4392  -20.5907   13.3354 C   0  0  0  0  0  0  0  0  0  0  0  0
  -25.8617  -11.5429   20.2863 N   0  0  0  0  0  0  0  0  0  0  0  0
  -26.2394  -12.8263   20.1590 N   0  0  0  0  0  0  0  0  0  0  0  0
  -26.8118  -23.6110   15.2336 N   0  0  0  0  0  0  0  0  0  0  0  0
  -29.9711  -13.6110   20.3651 N   0  0  0  0  0  0  0  0  0  0  0  0
  -34.0561  -17.5037   23.6189 N   0  0  0  0  0  0  0  0  0  0  0  0
  -25.4746  -15.0541   20.4092 N   0  0  0  0  0  0  0  0  0  0  0  0
  -21.8883  -12.5812   21.6006 N   0  0  0  0  0  0  0  0  0  0  0  0
  -30.0838  -15.6891   21.4745 N   0  0  0  0  0  0  0  0  0  0  0  0
  -24.1233  -26.0738   15.1745 N   0  0  0  0  0  0  0  0  0  0  0  0
  -28.8220  -21.3616   13.6983 N   0  0  0  0  0  0  0  0  0  0  0  0
  -29.0813  -20.4210   24.0476 N   0  3  0  0  0  0  0  0  0  0  0  0
  -32.2548  -21.3052   14.8300 N   0  3  0  0  0  0  0  0  0  0  0  0
  -22.6653  -14.7207   21.3223 O   0  0  0  0  0  0  0  0  0  0  0  0
  -24.2661  -23.7618   15.4135 O   0  0  0  0  0  0  0  0  0  0  0  0
  -27.0782  -23.4975   12.9201 O   0  0  0  0  0  0  0  0  0  0  0  0
  -29.6660  -20.7093   15.7573 O   0  0  0  0  0  0  0  0  0  0  0  0
  -31.8593  -14.9328   20.1873 O   0  0  0  0  0  0  0  0  0  0  0  0
  -21.6112   -7.0181   21.7038 O   0  0  0  0  0  0  0  0  0  0  0  0
  -27.0257  -23.4617   21.3968 O   0  0  0  0  0  0  0  0  0  1  0  0
  -28.5751  -23.8747   24.6366 O   0  0  0  0  0  0  0  0  0  0  0  0
  -18.6216   -6.8575   26.3341 F   0  0  0  0  0  0  0  0  0  0  0  0
  -22.0609   -5.0725   23.6156 F   0  0  0  0  0  0  0  0  0  0  0  0
  1  2  1  0  0  0  0
  1  5  2  0  0  0  0
  2  6  2  0  0  0  0
  3  8  2  0  0  0  0
  3 18  1  0  0  0  0
  4  9  1  0  0  0  0
  4 18  2  0  0  0  0
  5 20  1  0  0  0  0
  6 22  1  0  0  0  0
  7 10  2  0  0  0  0
  7 21  1  0  0  0  0
  8 27  1  0  0  0  0
  9 27  2  0  0  0  0
 10 28  1  0  0  0  0
 11 12  2  0  0  0  0
 11 29  1  0  0  0  0
 12 30  1  0  0  0  0
 13 23  1  0  0  0  0
 13 28  2  0  0  0  0
 14 24  1  0  0  0  0
 14 25  2  0  0  0  0
 15 24  2  0  0  0  0
 15 26  1  0  0  0  0
 16 25  1  0  0  0  0
 16 26  2  0  0  0  0
 17 30  2  0  0  0  0
 17 31  1  0  0  0  0
 18 32  1  0  0  0  0
 19 32  1  0  0  0  0
 19 33  2  0  0  0  0
 19 34  1  0  0  0  0
 20 22  2  0  0  0  0
 20 39  1  0  0  0  0
 21 23  2  0  0  0  0
 21 40  1  0  0  0  0
 22 52  1  0  0  0  0
 23 41  1  0  0  0  0
 24 62  1  0  0  0  0
 25 71  1  0  0  0  0
 26 74  1  0  0  0  0
 27 84  1  0  0  0  0
 28 85  1  0  0  0  0
 29 31  2  0  0  0  0
 29 84  1  0  0  0  0
 30 87  1  0  0  0  0
 31 88  1  0  0  0  0
 32 67  2  0  0  0  0
 33 68  1  0  0  0  0
 33 72  1  0  0  0  0
 34 73  1  0  0  0  0
 34 79  2  0  0  0  0
 35 53  1  0  0  0  0
 35 75  1  0  0  0  0
 35 80  2  0  0  0  0
 36 64  1  0  0  0  0
 36 69  1  0  0  0  0
 36 81  2  0  0  0  0
 37 65  1  0  0  0  0
 37 76  1  0  0  0  0
 37 82  2  0  0  0  0
 38 70  1  0  0  0  0
 38 74  1  0  0  0  0
 38 83  2  0  0  0  0
 39 42  1  0  0  0  0
 40 53  1  0  0  0  0
 41 69  1  0  0  0  0
 42 44  1  0  0  0  0
 43 45  1  0  0  0  0
 43 48  1  0  0  0  0
 44 52  1  0  0  0  0
 45 54  1  0  0  0  0
 46 50  1  0  0  0  0
 46 55  1  0  0  0  0
 47 51  1  0  0  0  0
 47 55  1  0  0  0  0
 48 70  1  0  0  0  0
 49 54  1  0  0  0  0
 49 70  1  0  0  0  0
 50 77  1  0  0  0  0
 51 77  1  0  0  0  0
 52 75  1  0  0  0  0
 53 69  1  0  0  0  0
 54 68  1  0  0  0  0
 55 63  1  0  0  0  0
 55 86  1  0  0  0  0
 56 65  1  0  0  0  0
 57 66  1  0  0  0  0
 58 66  1  0  0  0  0
 59 66  1  0  0  0  0
 60 78  1  0  0  0  0
 61 86  1  0  0  0  0
 62 77  1  0  0  0  0
 63 85  1  0  0  0  0
 64 66  1  0  0  0  0
 64 76  1  0  0  0  0
 65 78  1  0  0  0  0
 67 68  1  0  0  0  0
M  CHG  2  77   1  78   1
M  ISO  4  38 100  63 101  74 100  85 101
M  END
> <Batch ID>
0160

> <Smiles>
CNC(C)C(=O)NC(C(=O)N1Cc2cc([101O:1][101CH2:1]C3(OC)CCN(Cc4cc(N)cc([100NH:0][100C:0](=O)N5CCCC(n6nc(-c7ccc(Oc8ccc(F)cc8F)cc7)c(C(N)=O)c6N)C5)c4)CC3)ccc2CC1C(=O)NC1CCCc2ccccc21)C(C)(C)C

> <Shape>
0.178

> <Color>
0.176

> <Negative vol penalty>
0.000

$$$$

  -OEChem-04052303503D

 85 94  0     1  0  0  0  0  0999 V2000
  -27.2987  -31.9456   27.8488 C   0  0  0  0  0  0  0  0  0  0  0  0
  -27.5511  -30.9778   26.8817 C   0  0  0  0  0  0  0  0  0  0  0  0
  -23.0926  -11.1558   21.6098 C   0  0  0  0  0  0  0  0  0  0  0  0
  -23.9580   -8.9197   21.3136 C   0  0  0  0  0  0  0  0  0  0  0  0
  -25.9901  -32.3596   28.0940 C   0  0  0  0  0  0  0  0  0  0  0  0
  -26.4949  -30.4227   26.1602 C   0  0  0  0  0  0  0  0  0  0  0  0
  -27.4859  -30.0989   21.2045 C   0  0  0  0  0  0  0  0  0  0  0  0
  -21.8019  -10.6894   21.3603 C   0  0  0  0  0  0  0  0  0  0  0  0
  -22.6673   -8.4532   21.0642 C   0  0  0  0  0  0  0  0  0  0  0  0
  -28.3103  -29.0551   20.7869 C   0  0  0  0  0  0  0  0  0  0  0  0
  -19.9252   -7.6354   22.8621 C   0  0  0  0  0  0  0  0  0  0  0  0
  -19.5309   -6.4557   23.4932 C   0  0  0  0  0  0  0  0  0  0  0  0
  -30.8168  -20.0886   20.9078 C   0  0  0  0  0  0  0  0  0  0  0  0
  -26.3662  -27.8010   20.1036 C   0  0  0  0  0  0  0  0  0  0  0  0
  -19.1610   -5.4268   21.3388 C   0  0  0  0  0  0  0  0  0  0  0  0
  -28.4676  -20.2375   20.5971 C   0  0  0  0  0  0  0  0  0  0  0  0
  -24.1706  -10.2710   21.5864 C   0  0  0  0  0  0  0  0  0  0  0  0
  -26.1515  -10.8374   23.0907 C   0  0  0  0  0  0  0  0  0  0  0  0
  -24.9183  -31.8162   27.3683 C   0  0  0  0  0  0  0  0  0  0  0  0
  -26.0924  -29.9970   21.0846 C   0  0  0  0  0  0  0  0  0  0  0  0
  -25.1707  -30.8288   26.3969 C   0  0  0  0  0  0  0  0  0  0  0  0
  -30.6858  -18.7066   21.0643 C   0  0  0  0  0  0  0  0  0  0  0  0
  -25.5264  -28.8460   20.5181 C   0  0  0  0  0  0  0  0  0  0  0  0
  -29.6938  -20.8722   20.6743 C   0  0  0  0  0  0  0  0  0  0  0  0
  -21.5893   -9.3381   21.0875 C   0  0  0  0  0  0  0  0  0  0  0  0
  -27.7504  -27.9047   20.2390 C   0  0  0  0  0  0  0  0  0  0  0  0
  -19.9374   -7.7109   21.4693 C   0  0  0  0  0  0  0  0  0  0  0  0
  -19.1488   -5.3514   22.7316 C   0  0  0  0  0  0  0  0  0  0  0  0
  -19.5553   -6.6066   20.7077 C   0  0  0  0  0  0  0  0  0  0  0  0
  -25.5042  -10.7523   21.8435 C   0  0  0  0  0  0  0  0  0  0  0  0
  -29.4049  -18.1547   20.9532 C   0  0  0  0  0  0  0  0  0  0  0  0
  -27.3903  -11.3544   22.8000 C   0  0  0  0  0  0  0  0  0  0  0  0
  -25.6756  -10.4809   24.3954 C   0  0  0  0  0  0  0  0  0  0  0  0
  -23.6592  -29.9949   23.1299 C   0  0  0  0  0  0  0  0  0  0  0  0
  -29.1264  -24.5539   20.1645 C   0  0  0  0  0  0  0  0  0  0  0  0
  -21.8842  -30.0088   20.4149 C   0  0  0  0  0  0  0  0  0  0  0  0
  -21.6785  -29.2937   17.0843 C   0  0  0  0  0  0  0  0  0  0  0  0
  -30.6918  -14.8685   20.1548 C   0  0  0  0  0  0  0  0  0  0  0  0
  -23.5163  -32.2610   27.7018 C   0  0  0  0  0  0  0  0  0  0  0  0
  -25.2184  -31.1429   21.5152 C   0  0  0  0  0  0  0  0  0  0  0  0
  -31.8994  -17.8455   21.2850 C   0  0  0  0  0  0  0  0  0  0  0  0
  -24.0374  -28.6955   20.3488 C   0  0  0  0  0  0  0  0  0  0  0  0
  -29.1795  -16.6700   21.1160 C   0  0  0  0  0  0  0  0  0  0  0  0
  -22.4905  -31.8946   26.6323 C   0  0  0  0  0  0  0  0  0  0  0  0
  -29.7259  -12.0475   18.3776 C   0  0  0  0  0  0  0  0  0  0  0  0
  -22.6692  -30.4440   26.1959 C   0  0  0  0  0  0  0  0  0  0  0  0
  -28.5896  -11.4584   19.2122 C   0  0  0  0  0  0  0  0  0  0  0  0
  -31.5285  -16.4744   21.8412 C   0  0  0  0  0  0  0  0  0  0  0  0
  -29.6361  -13.5682   18.3325 C   0  0  0  0  0  0  0  0  0  0  0  0
  -28.5074  -13.6317   20.5336 C   0  0  0  0  0  0  0  0  0  0  0  0
  -24.0540  -30.2210   25.5761 C   0  0  1  0  0  0  0  0  0  0  0  0
  -23.7847  -30.7193   21.8195 C   0  0  1  0  0  0  0  0  0  0  0  0
  -28.5498  -12.0920   20.6137 C   0  0  1  0  0  0  0  0  0  0  0  0
  -20.0878  -29.3807   15.1454 C   0  0  0  0  0  0  0  0  0  0  0  0
  -20.4255  -27.5606   21.5049 C   0  0  0  0  0  0  0  0  0  0  0  0
  -19.5563  -27.1368   19.1956 C   0  0  0  0  0  0  0  0  0  0  0  0
  -18.9499  -29.2425   20.3877 C   0  0  0  0  0  0  0  0  0  0  0  0
  -23.4363  -31.1353   15.5751 C   0  0  0  0  0  0  0  0  0  0  0  0
  -28.6726  -23.1140   20.2777 C   0  0  0  0  0  0  0  0  0  0  0  0
  -28.0299  -25.5674   19.9003 C   0  0  0  0  0  0  0  0  0  1  0  0
  -21.3032  -28.9476   19.5120 C   0  0  1  0  0  0  0  0  0  0  0  0
  -21.1816  -30.1130   15.9069 C   0  0  2  0  0  0  0  0  0  0  0  0
  -20.0867  -28.2236   20.1549 C   0  0  0  0  0  0  0  0  0  0  0  0
  -28.2959  -18.9039   20.7314 N   0  0  0  0  0  0  0  0  0  0  0  0
  -26.2685  -11.1810   20.8355 N   0  0  0  0  0  0  0  0  0  0  0  0
  -27.4089  -11.5406   21.4490 N   0  0  0  0  0  0  0  0  0  0  0  0
  -23.2245  -29.8407   20.7906 N   0  0  0  0  0  0  0  0  0  0  0  0
  -30.4285  -15.8964   21.0724 N   0  0  0  0  0  0  0  0  0  0  0  0
  -29.5937  -14.1366   19.6800 N   0  0  0  0  0  0  0  0  0  0  0  0
  -28.4547  -11.6635   23.5707 N   0  0  0  0  0  0  0  0  0  0  0  0
  -24.3785   -9.9638   24.5152 N   0  0  0  0  0  0  0  0  0  0  0  0
  -29.8011  -22.2638   20.5199 N   0  0  0  0  0  0  0  0  0  0  0  0
  -24.0884  -30.7268   24.2206 N   0  0  0  0  0  0  0  0  0  0  0  0
  -21.0048  -29.6077   18.2456 N   0  0  0  0  0  0  0  0  0  0  0  0
  -22.3006  -30.3973   14.9646 N   0  3  0  0  0  0  0  0  0  0  0  0
  -26.3739  -10.6322   25.4264 O   0  0  0  0  0  0  0  0  0  0  0  0
  -23.2051  -28.8569   23.1502 O   0  0  0  0  0  0  0  0  0  0  0  0
  -30.3043  -24.8911   20.2774 O   0  0  0  0  0  0  0  0  0  0  0  0
  -21.1771  -30.9560   20.7678 O   0  0  0  0  0  0  0  0  0  0  0  0
  -22.5721  -28.4560   16.9830 O   0  0  0  0  0  0  0  0  0  0  0  0
  -31.8437  -14.6235   19.7744 O   0  0  0  0  0  0  0  0  0  0  0  0
  -20.3300   -8.8826   20.8443 O   0  0  0  0  0  0  0  0  0  0  0  0
  -28.5611  -26.8735   19.8270 O   0  0  0  0  0  0  0  0  0  1  0  0
  -18.7716   -4.2180   23.3378 F   0  0  0  0  0  0  0  0  0  0  0  0
  -19.5662   -6.6727   19.3693 F   0  0  0  0  0  0  0  0  0  0  0  0
  1  2  1  0  0  0  0
  1  5  2  0  0  0  0
  2  6  2  0  0  0  0
  3  8  2  0  0  0  0
  3 17  1  0  0  0  0
  4  9  1  0  0  0  0
  4 17  2  0  0  0  0
  5 19  1  0  0  0  0
  6 21  1  0  0  0  0
  7 10  2  0  0  0  0
  7 20  1  0  0  0  0
  8 25  1  0  0  0  0
  9 25  2  0  0  0  0
 10 26  1  0  0  0  0
 11 12  2  0  0  0  0
 11 27  1  0  0  0  0
 12 28  1  0  0  0  0
 13 22  1  0  0  0  0
 13 24  2  0  0  0  0
 14 23  1  0  0  0  0
 14 26  2  0  0  0  0
 15 28  2  0  0  0  0
 15 29  1  0  0  0  0
 16 24  1  0  0  0  0
 16 64  2  0  0  0  0
 17 30  1  0  0  0  0
 18 30  1  0  0  0  0
 18 32  2  0  0  0  0
 18 33  1  0  0  0  0
 19 21  2  0  0  0  0
 19 39  1  0  0  0  0
 20 23  2  0  0  0  0
 20 40  1  0  0  0  0
 21 51  1  0  0  0  0
 22 31  2  0  0  0  0
 22 41  1  0  0  0  0
 23 42  1  0  0  0  0
 24 72  1  0  0  0  0
 25 82  1  0  0  0  0
 26 83  1  0  0  0  0
 27 29  2  0  0  0  0
 27 82  1  0  0  0  0
 28 84  1  0  0  0  0
 29 85  1  0  0  0  0
 30 65  2  0  0  0  0
 31 43  1  0  0  0  0
 31 64  1  0  0  0  0
 32 66  1  0  0  0  0
 32 70  1  0  0  0  0
 33 71  1  0  0  0  0
 33 76  2  0  0  0  0
 34 52  1  0  0  0  0
 34 73  1  0  0  0  0
 34 77  2  0  0  0  0
 35 59  1  0  0  0  0
 35 60  1  0  0  0  0
 35 78  2  0  0  0  0
 36 61  1  0  0  0  0
 36 67  1  0  0  0  0
 36 79  2  0  0  0  0
 37 62  1  0  0  0  0
 37 74  1  0  0  0  0
 37 80  2  0  0  0  0
 38 68  1  0  0  0  0
 38 69  1  0  0  0  0
 38 81  2  0  0  0  0
 39 44  1  0  0  0  0
 40 52  1  0  0  0  0
 41 48  1  0  0  0  0
 42 67  1  0  0  0  0
 43 68  1  0  0  0  0
 44 46  1  0  0  0  0
 45 47  1  0  0  0  0
 45 49  1  0  0  0  0
 46 51  1  0  0  0  0
 47 53  1  0  0  0  0
 48 68  1  0  0  0  0
 49 69  1  0  0  0  0
 50 53  1  0  0  0  0
 50 69  1  0  0  0  0
 51 73  1  0  0  0  0
 52 67  1  0  0  0  0
 53 66  1  0  0  0  0
 54 62  1  0  0  0  0
 55 63  1  0  0  0  0
 56 63  1  0  0  0  0
 57 63  1  0  0  0  0
 58 75  1  0  0  0  0
 59 72  1  0  0  0  0
 60 83  1  0  0  0  0
 61 63  1  0  0  0  0
 61 74  1  0  0  0  0
 62 75  1  0  0  0  0
 65 66  1  0  0  0  0
M  CHG  1  75   1
M  ISO  4  38 100  60 101  68 100  83 101
M  END
> <Batch ID>
0160

> <Smiles>
CNC(C)C(=O)NC(C(=O)N1Cc2cc([101O:1][101CH2:1]C(=O)CNc3cnc4c(c3)CC[100N:0]([100C:0](=O)N3CCCC(n5nc(-c6ccc(Oc7ccc(F)cc7F)cc6)c(C(N)=O)c5N)C3)C4)ccc2CC1C(=O)NC1CCCc2ccccc21)C(C)(C)C

> <Shape>
0.294

> <Color>
0.130

> <Negative vol penalty>
0.000

$$$$

  -OEChem-04052303503D

 81 89  0     1  0  0  0  0  0999 V2000
  -31.0919  -30.2243   25.2334 C   0  0  0  0  0  0  0  0  0  0  0  0
  -30.4078  -29.2346   24.5349 C   0  0  0  0  0  0  0  0  0  0  0  0
  -23.3734  -10.0124   21.6041 C   0  0  0  0  0  0  0  0  0  0  0  0
  -22.6941  -12.3264   21.4596 C   0  0  0  0  0  0  0  0  0  0  0  0
  -30.3823  -31.2137   25.9127 C   0  0  0  0  0  0  0  0  0  0  0  0
  -29.0135  -29.2331   24.5162 C   0  0  0  0  0  0  0  0  0  0  0  0
  -27.1335  -28.3856   19.8911 C   0  0  0  0  0  0  0  0  0  0  0  0
  -22.3946   -9.7855   22.5717 C   0  0  0  0  0  0  0  0  0  0  0  0
  -21.7153  -12.0995   22.4271 C   0  0  0  0  0  0  0  0  0  0  0  0
  -27.1338  -27.0680   19.4353 C   0  0  0  0  0  0  0  0  0  0  0  0
  -19.0529   -9.2780   22.6632 C   0  0  0  0  0  0  0  0  0  0  0  0
  -18.2704   -8.1302   22.5370 C   0  0  0  0  0  0  0  0  0  0  0  0
  -24.8006  -26.8729   20.0160 C   0  0  0  0  0  0  0  0  0  0  0  0
  -19.0510   -7.3614   24.6903 C   0  0  0  0  0  0  0  0  0  0  0  0
  -30.0408  -19.4443   19.7218 C   0  0  0  0  0  0  0  0  0  0  0  0
  -23.5232  -11.2829   21.0481 C   0  0  0  0  0  0  0  0  0  0  0  0
  -24.3969  -11.3907   18.6539 C   0  0  0  0  0  0  0  0  0  0  0  0
  -28.9787  -31.2299   25.8943 C   0  0  0  0  0  0  0  0  0  0  0  0
  -25.9676  -28.9542   20.4238 C   0  0  0  0  0  0  0  0  0  0  0  0
  -28.2844  -30.2229   25.1970 C   0  0  0  0  0  0  0  0  0  0  0  0
  -24.7875  -28.1987   20.4755 C   0  0  0  0  0  0  0  0  0  0  0  0
  -21.5656  -10.8290   22.9831 C   0  0  0  0  0  0  0  0  0  0  0  0
  -25.9680  -26.3105   19.5003 C   0  0  0  0  0  0  0  0  0  0  0  0
  -19.8345   -9.4675   23.8029 C   0  0  0  0  0  0  0  0  0  0  0  0
  -18.2695   -7.1719   23.5505 C   0  0  0  0  0  0  0  0  0  0  0  0
  -19.8335   -8.5092   24.8164 C   0  0  0  0  0  0  0  0  0  0  0  0
  -24.5345  -11.5180   20.0491 C   0  0  0  0  0  0  0  0  0  0  0  0
  -25.6327  -11.7232   18.1552 C   0  0  0  0  0  0  0  0  0  0  0  0
  -28.6698  -19.5151   19.7149 C   0  0  0  0  0  0  0  0  0  0  0  0
  -29.3069  -17.4869   19.9522 C   0  0  0  0  0  0  0  0  0  0  0  0
  -23.2542  -11.0063   17.8779 C   0  0  0  0  0  0  0  0  0  0  0  0
  -25.1429  -30.1442   23.2535 C   0  0  0  0  0  0  0  0  0  0  0  0
  -26.9274  -22.8159   19.3262 C   0  0  0  0  0  0  0  0  0  0  0  0
  -22.4189  -30.9470   21.6858 C   0  0  0  0  0  0  0  0  0  0  0  0
  -20.2901  -30.3526   19.0855 C   0  0  0  0  0  0  0  0  0  0  0  0
  -30.0958  -15.1107   20.2315 C   0  0  0  0  0  0  0  0  0  0  0  0
  -28.2547  -32.2924   26.6827 C   0  0  0  0  0  0  0  0  0  0  0  0
  -25.9768  -30.3853   20.8866 C   0  0  0  0  0  0  0  0  0  0  0  0
  -23.5041  -28.7689   21.0198 C   0  0  0  0  0  0  0  0  0  0  0  0
  -26.7832  -32.4361   26.3028 C   0  0  0  0  0  0  0  0  0  0  0  0
  -30.2777  -11.6738   19.3196 C   0  0  0  0  0  0  0  0  0  0  0  0
  -26.1177  -31.0662   26.2169 C   0  0  0  0  0  0  0  0  0  0  0  0
  -28.8128  -11.2338   19.2703 C   0  0  0  0  0  0  0  0  0  0  0  0
  -30.5319  -12.6738   20.4462 C   0  0  0  0  0  0  0  0  0  0  0  0
  -28.1794  -13.4036   20.4006 C   0  0  0  0  0  0  0  0  0  0  0  0
  -26.7726  -30.2018   25.1327 C   0  0  1  0  0  0  0  0  0  0  0  0
  -24.8659  -30.6977   21.8844 C   0  0  1  0  0  0  0  0  0  0  0  0
  -27.8610  -12.4457   19.2409 C   0  0  2  0  0  0  0  0  0  0  0  0
  -18.1288  -31.1470   18.0879 C   0  0  0  0  0  0  0  0  0  0  0  0
  -20.8753  -29.5038   23.8868 C   0  0  0  0  0  0  0  0  0  0  0  0
  -18.8731  -29.4996   22.3837 C   0  0  0  0  0  0  0  0  0  0  0  0
  -19.8566  -31.6629   23.1421 C   0  0  0  0  0  0  0  0  0  0  0  0
  -21.6071  -31.1122   16.5463 C   0  0  0  0  0  0  0  0  0  0  0  0
  -28.1583  -21.9408   19.4315 C   0  0  0  0  0  0  0  0  0  0  0  0
  -27.1911  -24.2997   19.1586 C   0  0  0  0  0  0  0  0  0  1  0  0
  -21.0931  -30.2713   21.4313 C   0  0  1  0  0  0  0  0  0  0  0  0
  -19.6431  -31.2874   18.0795 C   0  0  2  0  0  0  0  0  0  0  0  0
  -20.1990  -30.2227   22.7025 C   0  0  0  0  0  0  0  0  0  0  0  0
  -30.4431  -18.1421   19.8744 N   0  0  0  0  0  0  0  0  0  0  0  0
  -25.7610  -11.9013   20.4134 N   0  0  0  0  0  0  0  0  0  0  0  0
  -26.4054  -12.0176   19.2399 N   0  0  0  0  0  0  0  0  0  0  0  0
  -23.5654  -30.1707   21.4657 N   0  0  0  0  0  0  0  0  0  0  0  0
  -29.5964  -13.7966   20.3517 N   0  0  0  0  0  0  0  0  0  0  0  0
  -26.1230  -11.7894   16.8992 N   0  0  0  0  0  0  0  0  0  0  0  0
  -22.0634  -10.6980   18.5497 N   0  0  0  0  0  0  0  0  0  0  0  0
  -27.7688  -20.5633   19.5931 N   0  0  0  0  0  0  0  0  0  0  0  0
  -29.1126  -16.0929   20.1164 N   0  0  0  0  0  0  0  0  0  0  0  0
  -26.3158  -30.6054   23.8201 N   0  0  0  0  0  0  0  0  0  0  0  0
  -20.4889  -30.9701   20.3022 N   0  0  0  0  0  0  0  0  0  0  0  0
  -20.1351  -30.9895   16.7047 N   0  3  0  0  0  0  0  0  0  0  0  0
  -23.2927  -10.9224   16.6269 O   0  0  0  0  0  0  0  0  0  0  0  0
  -24.3503  -29.3580   23.7590 O   0  0  0  0  0  0  0  0  0  0  0  0
  -25.7839  -22.3641   19.3727 O   0  0  0  0  0  0  0  0  0  0  0  0
  -22.4367  -32.1226   22.0591 O   0  0  0  0  0  0  0  0  0  0  0  0
  -20.5859  -29.1896   18.8198 O   0  0  0  0  0  0  0  0  0  0  0  0
  -31.3068  -15.3447   20.2032 O   0  0  0  0  0  0  0  0  0  0  0  0
  -28.1841  -18.2512   19.8637 O   0  0  0  0  0  0  0  0  0  0  0  0
  -20.6102  -10.6079   23.9270 O   0  0  0  0  0  0  0  0  0  0  0  0
  -25.9658  -25.0240   19.0567 O   0  0  0  0  0  0  0  0  0  1  0  0
  -17.5168   -6.0705   23.4299 F   0  0  0  0  0  0  0  0  0  0  0  0
  -20.5814   -8.6862   25.9142 F   0  0  0  0  0  0  0  0  0  0  0  0
  1  2  1  0  0  0  0
  1  5  2  0  0  0  0
  2  6  2  0  0  0  0
  3  8  2  0  0  0  0
  3 16  1  0  0  0  0
  4  9  1  0  0  0  0
  4 16  2  0  0  0  0
  5 18  1  0  0  0  0
  6 20  1  0  0  0  0
  7 10  2  0  0  0  0
  7 19  1  0  0  0  0
  8 22  1  0  0  0  0
  9 22  2  0  0  0  0
 10 23  1  0  0  0  0
 11 12  2  0  0  0  0
 11 24  1  0  0  0  0
 12 25  1  0  0  0  0
 13 21  1  0  0  0  0
 13 23  2  0  0  0  0
 14 25  2  0  0  0  0
 14 26  1  0  0  0  0
 15 29  2  0  0  0  0
 15 59  1  0  0  0  0
 16 27  1  0  0  0  0
 17 27  1  0  0  0  0
 17 28  2  0  0  0  0
 17 31  1  0  0  0  0
 18 20  2  0  0  0  0
 18 37  1  0  0  0  0
 19 21  2  0  0  0  0
 19 38  1  0  0  0  0
 20 46  1  0  0  0  0
 21 39  1  0  0  0  0
 22 78  1  0  0  0  0
 23 79  1  0  0  0  0
 24 26  2  0  0  0  0
 24 78  1  0  0  0  0
 25 80  1  0  0  0  0
 26 81  1  0  0  0  0
 27 60  2  0  0  0  0
 28 61  1  0  0  0  0
 28 64  1  0  0  0  0
 29 66  1  0  0  0  0
 29 77  1  0  0  0  0
 30 59  2  0  0  0  0
 30 67  1  0  0  0  0
 30 77  1  0  0  0  0
 31 65  1  0  0  0  0
 31 71  2  0  0  0  0
 32 47  1  0  0  0  0
 32 68  1  0  0  0  0
 32 72  2  0  0  0  0
 33 54  1  0  0  0  0
 33 55  1  0  0  0  0
 33 73  2  0  0  0  0
 34 56  1  0  0  0  0
 34 62  1  0  0  0  0
 34 74  2  0  0  0  0
 35 57  1  0  0  0  0
 35 69  1  0  0  0  0
 35 75  2  0  0  0  0
 36 63  1  0  0  0  0
 36 67  1  0  0  0  0
 36 76  2  0  0  0  0
 37 40  1  0  0  0  0
 38 47  1  0  0  0  0
 39 62  1  0  0  0  0
 40 42  1  0  0  0  0
 41 43  1  0  0  0  0
 41 44  1  0  0  0  0
 42 46  1  0  0  0  0
 43 48  1  0  0  0  0
 44 63  1  0  0  0  0
 45 48  1  0  0  0  0
 45 63  1  0  0  0  0
 46 68  1  0  0  0  0
 47 62  1  0  0  0  0
 48 61  1  0  0  0  0
 49 57  1  0  0  0  0
 50 58  1  0  0  0  0
 51 58  1  0  0  0  0
 52 58  1  0  0  0  0
 53 70  1  0  0  0  0
 54 66  1  0  0  0  0
 55 79  1  0  0  0  0
 56 58  1  0  0  0  0
 56 69  1  0  0  0  0
 57 70  1  0  0  0  0
 60 61  1  0  0  0  0
M  CHG  1  70   1
M  ISO  4  36 100  55 101  67 100  79 101
M  END
> <Batch ID>
0160

> <Smiles>
CNC(C)C(=O)NC(C(=O)N1Cc2cc([101O:1][101CH2:1]C(=O)CNc3cnc([100NH:0][100C:0](=O)N4CCCC(n5nc(-c6ccc(Oc7ccc(F)cc7F)cc6)c(C(N)=O)c5N)C4)o3)ccc2CC1C(=O)NC1CCCc2ccccc21)C(C)(C)C

> <Shape>
0.274

> <Color>
0.092

> <Negative vol penalty>
0.000

$$$$

  -OEChem-04052303503D

 85 94  0     1  0  0  0  0  0999 V2000
  -27.4552  -37.4624   24.3167 C   0  0  0  0  0  0  0  0  0  0  0  0
  -27.6196  -36.1313   24.6860 C   0  0  0  0  0  0  0  0  0  0  0  0
  -22.5401   -9.7971   20.3307 C   0  0  0  0  0  0  0  0  0  0  0  0
  -24.4179   -8.9097   21.5650 C   0  0  0  0  0  0  0  0  0  0  0  0
  -26.2486  -37.8868   23.7618 C   0  0  0  0  0  0  0  0  0  0  0  0
  -26.5771  -35.2239   24.5017 C   0  0  0  0  0  0  0  0  0  0  0  0
  -27.4490  -29.3530   20.4194 C   0  0  0  0  0  0  0  0  0  0  0  0
  -21.6640   -9.0986   21.1614 C   0  0  0  0  0  0  0  0  0  0  0  0
  -23.5418   -8.2112   22.3957 C   0  0  0  0  0  0  0  0  0  0  0  0
  -27.6014  -28.0998   19.8259 C   0  0  0  0  0  0  0  0  0  0  0  0
  -21.7125   -5.3710   22.2614 C   0  0  0  0  0  0  0  0  0  0  0  0
  -22.0158   -4.0406   22.5507 C   0  0  0  0  0  0  0  0  0  0  0  0
  -25.2691  -27.6099   20.2367 C   0  0  0  0  0  0  0  0  0  0  0  0
  -22.1179   -4.5757   24.9045 C   0  0  0  0  0  0  0  0  0  0  0  0
  -23.9171   -9.7026   20.5325 C   0  0  0  0  0  0  0  0  0  0  0  0
  -24.9570  -10.2931   18.2791 C   0  0  0  0  0  0  0  0  0  0  0  0
  -25.1940  -36.9820   23.5616 C   0  0  0  0  0  0  0  0  0  0  0  0
  -26.2010  -29.7461   20.9106 C   0  0  0  0  0  0  0  0  0  0  0  0
  -25.3547  -35.6367   23.9448 C   0  0  0  0  0  0  0  0  0  0  0  0
  -25.1076  -28.8690   20.8211 C   0  0  0  0  0  0  0  0  0  0  0  0
  -22.1648   -8.3056   22.1939 C   0  0  0  0  0  0  0  0  0  0  0  0
  -26.5141  -27.2303   19.7350 C   0  0  0  0  0  0  0  0  0  0  0  0
  -21.6120   -6.3038   23.2936 C   0  0  0  0  0  0  0  0  0  0  0  0
  -22.2184   -3.6430   23.8722 C   0  0  0  0  0  0  0  0  0  0  0  0
  -21.8147   -5.9062   24.6151 C   0  0  0  0  0  0  0  0  0  0  0  0
  -24.8227  -10.4235   19.6743 C   0  0  0  0  0  0  0  0  0  0  0  0
  -25.9421  -11.1894   17.9437 C   0  0  0  0  0  0  0  0  0  0  0  0
  -25.8369  -19.9771   19.8082 C   0  0  0  0  0  0  0  0  0  0  0  0
  -26.1482  -17.9427   20.0172 C   0  0  0  0  0  0  0  0  0  0  0  0
  -24.2540   -9.4381   17.3677 C   0  0  0  0  0  0  0  0  0  0  0  0
  -24.1620  -32.4175   22.5786 C   0  0  0  0  0  0  0  0  0  0  0  0
  -22.4027  -31.1937   20.3836 C   0  0  0  0  0  0  0  0  0  0  0  0
  -20.1114  -30.6056   17.9257 C   0  0  0  0  0  0  0  0  0  0  0  0
  -27.9237  -16.2191   20.4895 C   0  0  0  0  0  0  0  0  0  0  0  0
  -23.8918  -37.4974   23.0020 C   0  0  0  0  0  0  0  0  0  0  0  0
  -26.0052  -31.0622   21.6130 C   0  0  0  0  0  0  0  0  0  0  0  0
  -23.7921  -29.3205   21.3942 C   0  0  0  0  0  0  0  0  0  0  0  0
  -22.9679  -36.3935   22.4938 C   0  0  0  0  0  0  0  0  0  0  0  0
  -29.8407  -13.3143   19.7381 C   0  0  0  0  0  0  0  0  0  0  0  0
  -22.8820  -35.2593   23.5102 C   0  0  0  0  0  0  0  0  0  0  0  0
  -26.4301  -21.9430   18.3294 C   0  0  0  0  0  0  0  0  0  0  0  0
  -27.2230  -21.8804   20.7358 C   0  0  0  0  0  0  0  0  0  0  0  0
  -28.7835  -12.2329   19.5035 C   0  0  0  0  0  0  0  0  0  0  0  0
  -26.6914  -23.4511   18.2846 C   0  0  0  0  0  0  0  0  0  0  0  0
  -27.4801  -23.3888   20.6885 C   0  0  0  0  0  0  0  0  0  0  0  0
  -29.4305  -14.2765   20.8515 C   0  0  0  0  0  0  0  0  0  0  0  0
  -27.0457  -13.8017   20.4553 C   0  0  0  0  0  0  0  0  0  0  0  0
  -24.2558  -34.6171   23.7377 C   0  0  1  0  0  0  0  0  0  0  0  0
  -26.1107  -21.4693   19.7569 C   0  0  0  0  0  0  0  0  0  0  0  0
  -24.6223  -31.6856   21.3523 C   0  0  1  0  0  0  0  0  0  0  0  0
  -27.3848  -12.8472   19.2988 C   0  0  2  0  0  0  0  0  0  0  0  0
  -27.7907  -23.8826   19.2666 C   0  0  0  0  0  0  0  0  0  0  0  0
  -17.6533  -30.7627   17.4458 C   0  0  0  0  0  0  0  0  0  0  0  0
  -21.9167  -28.7045   22.0781 C   0  0  0  0  0  0  0  0  0  0  0  0
  -19.7681  -28.3665   20.8381 C   0  0  0  0  0  0  0  0  0  0  0  0
  -20.1057  -30.4245   22.2068 C   0  0  0  0  0  0  0  0  0  0  0  0
  -20.5494  -32.5064   15.6999 C   0  0  0  0  0  0  0  0  0  0  0  0
  -30.0909  -23.6600   19.6938 C   0  0  0  0  0  0  0  0  0  0  0  0
  -27.9567  -25.4032   19.2468 C   0  0  0  0  0  0  0  0  0  1  0  0
  -21.3578  -30.1675   20.0255 C   0  0  1  0  0  0  0  0  0  0  0  0
  -18.9979  -31.4679   17.3591 C   0  0  2  0  0  0  0  0  0  0  0  0
  -20.8118  -29.4173   21.2731 C   0  0  0  0  0  0  0  0  0  0  0  0
  -25.6560  -11.3312   20.1899 N   0  0  0  0  0  0  0  0  0  0  0  0
  -26.8185  -19.0659   20.0691 N   0  0  0  0  0  0  0  0  0  0  0  0
  -24.6163  -19.4734   19.6026 N   0  0  0  0  0  0  0  0  0  0  0  0
  -26.3234  -11.7791   19.1129 N   0  0  0  0  0  0  0  0  0  0  0  0
  -23.5473  -30.7279   21.0420 N   0  0  0  0  0  0  0  0  0  0  0  0
  -28.0973  -14.8223   20.5879 N   0  0  0  0  0  0  0  0  0  0  0  0
  -26.5108  -11.5228   16.7656 N   0  0  0  0  0  0  0  0  0  0  0  0
  -24.7782   -8.1647   17.1068 N   0  0  0  0  0  0  0  0  0  0  0  0
  -26.6187  -16.6193   20.2041 N   0  0  0  0  0  0  0  0  0  0  0  0
  -24.5870  -33.7308   22.6427 N   0  0  0  0  0  0  0  0  0  0  0  0
  -20.3372  -30.8743   19.2592 N   0  0  0  0  0  0  0  0  0  0  0  0
  -19.2685  -31.7898   15.9294 N   0  3  0  0  0  0  0  0  0  0  0  0
  -23.2013   -9.7991   16.7889 O   0  0  0  0  0  0  0  0  0  0  0  0
  -23.4707  -31.8351   23.4060 O   0  0  0  0  0  0  0  0  0  0  0  0
  -22.2095  -32.3778   20.0938 O   0  0  0  0  0  0  0  0  0  0  0  0
  -20.7176  -29.7741   17.2536 O   0  0  0  0  0  0  0  0  0  0  0  0
  -28.8689  -17.0012   20.6198 O   0  0  0  0  0  0  0  0  0  0  0  0
  -24.8260  -18.0958   19.7438 O   0  0  0  0  0  0  0  0  0  0  0  0
  -21.3101   -7.6241   23.0048 O   0  0  0  0  0  0  0  0  0  0  0  0
  -26.6687  -26.0101   19.1503 O   0  0  0  0  0  0  0  0  0  1  0  0
  -29.0242  -23.3034   18.8307 O   0  0  0  0  0  0  0  0  0  0  0  0
  -22.5081   -2.3650   24.1500 F   0  0  0  0  0  0  0  0  0  0  0  0
  -21.7183   -6.7975   25.6111 F   0  0  0  0  0  0  0  0  0  0  0  0
  1  2  1  0  0  0  0
  1  5  2  0  0  0  0
  2  6  2  0  0  0  0
  3  8  2  0  0  0  0
  3 15  1  0  0  0  0
  4  9  1  0  0  0  0
  4 15  2  0  0  0  0
  5 17  1  0  0  0  0
  6 19  1  0  0  0  0
  7 10  2  0  0  0  0
  7 18  1  0  0  0  0
  8 21  1  0  0  0  0
  9 21  2  0  0  0  0
 10 22  1  0  0  0  0
 11 12  2  0  0  0  0
 11 23  1  0  0  0  0
 12 24  1  0  0  0  0
 13 20  1  0  0  0  0
 13 22  2  0  0  0  0
 14 24  2  0  0  0  0
 14 25  1  0  0  0  0
 15 26  1  0  0  0  0
 16 26  1  0  0  0  0
 16 27  2  0  0  0  0
 16 30  1  0  0  0  0
 17 19  2  0  0  0  0
 17 35  1  0  0  0  0
 18 20  2  0  0  0  0
 18 36  1  0  0  0  0
 19 48  1  0  0  0  0
 20 37  1  0  0  0  0
 21 81  1  0  0  0  0
 22 82  1  0  0  0  0
 23 25  2  0  0  0  0
 23 81  1  0  0  0  0
 24 84  1  0  0  0  0
 25 85  1  0  0  0  0
 26 63  2  0  0  0  0
 27 66  1  0  0  0  0
 27 69  1  0  0  0  0
 28 49  1  0  0  0  0
 28 64  1  0  0  0  0
 28 65  2  0  0  0  0
 29 64  2  0  0  0  0
 29 71  1  0  0  0  0
 29 80  1  0  0  0  0
 30 70  1  0  0  0  0
 30 75  2  0  0  0  0
 31 50  1  0  0  0  0
 31 72  1  0  0  0  0
 31 76  2  0  0  0  0
 32 60  1  0  0  0  0
 32 67  1  0  0  0  0
 32 77  2  0  0  0  0
 33 61  1  0  0  0  0
 33 73  1  0  0  0  0
 33 78  2  0  0  0  0
 34 68  1  0  0  0  0
 34 71  1  0  0  0  0
 34 79  2  0  0  0  0
 35 38  1  0  0  0  0
 36 50  1  0  0  0  0
 37 67  1  0  0  0  0
 38 40  1  0  0  0  0
 39 43  1  0  0  0  0
 39 46  1  0  0  0  0
 40 48  1  0  0  0  0
 41 44  1  0  0  0  0
 41 49  1  0  0  0  0
 42 45  1  0  0  0  0
 42 49  1  0  0  0  0
 43 51  1  0  0  0  0
 44 52  1  0  0  0  0
 45 52  1  0  0  0  0
 46 68  1  0  0  0  0
 47 51  1  0  0  0  0
 47 68  1  0  0  0  0
 48 72  1  0  0  0  0
 50 67  1  0  0  0  0
 51 66  1  0  0  0  0
 52 59  1  0  0  0  0
 52 83  1  0  0  0  0
 53 61  1  0  0  0  0
 54 62  1  0  0  0  0
 55 62  1  0  0  0  0
 56 62  1  0  0  0  0
 57 74  1  0  0  0  0
 58 83  1  0  0  0  0
 59 82  1  0  0  0  0
 60 62  1  0  0  0  0
 60 73  1  0  0  0  0
 61 74  1  0  0  0  0
 63 66  1  0  0  0  0
 65 80  1  0  0  0  0
M  CHG  1  74   1
M  ISO  4  34 100  59 101  71 100  82 101
M  END
> <Batch ID>
0160

> <Smiles>
CNC(C)C(=O)NC(C(=O)N1Cc2cc([101O:1][101CH2:1]C3(OC)CCC(c4noc([100NH:0][100C:0](=O)N5CCCC(n6nc(-c7ccc(Oc8ccc(F)cc8F)cc7)c(C(N)=O)c6N)C5)n4)CC3)ccc2CC1C(=O)NC1CCCc2ccccc21)C(C)(C)C

> <Shape>
0.317

> <Color>
0.124

> <Negative vol penalty>
0.000

$$$$

  -OEChem-04052303503D

 82 90  0     1  0  0  0  0  0999 V2000
  -31.0048  -23.2102   14.9038 C   0  0  0  0  0  0  0  0  0  0  0  0
  -30.4116  -22.8565   16.1114 C   0  0  0  0  0  0  0  0  0  0  0  0
  -27.9330  -16.8490   19.0081 C   0  0  0  0  0  0  0  0  0  0  0  0
  -27.3063  -17.5864   21.2219 C   0  0  0  0  0  0  0  0  0  0  0  0
  -31.3932  -24.5303   14.6795 C   0  0  0  0  0  0  0  0  0  0  0  0
  -30.2075  -23.8226   17.0960 C   0  0  0  0  0  0  0  0  0  0  0  0
  -25.6026  -23.5274   19.1823 C   0  0  0  0  0  0  0  0  0  0  0  0
  -28.5881  -18.0609   18.7899 C   0  0  0  0  0  0  0  0  0  0  0  0
  -27.9615  -18.7983   21.0037 C   0  0  0  0  0  0  0  0  0  0  0  0
  -25.3964  -22.5270   20.1313 C   0  0  0  0  0  0  0  0  0  0  0  0
  -31.1381  -19.9510   21.0326 C   0  0  0  0  0  0  0  0  0  0  0  0
  -31.9533  -20.4384   22.0541 C   0  0  0  0  0  0  0  0  0  0  0  0
  -18.9674  -16.9025   22.1372 C   0  0  0  0  0  0  0  0  0  0  0  0
  -19.3209  -18.2679   22.2554 C   0  0  0  0  0  0  0  0  0  0  0  0
  -25.6860  -24.1481   21.8941 C   0  0  0  0  0  0  0  0  0  0  0  0
  -30.5937  -22.4310   22.1885 C   0  0  0  0  0  0  0  0  0  0  0  0
  -27.2920  -16.6118   20.2241 C   0  0  0  0  0  0  0  0  0  0  0  0
  -27.1615  -14.1841   20.9967 C   0  0  0  0  0  0  0  0  0  0  0  0
  -31.1849  -25.5151   15.6581 C   0  0  0  0  0  0  0  0  0  0  0  0
  -25.8632  -24.8457   19.5829 C   0  0  0  0  0  0  0  0  0  0  0  0
  -30.5947  -25.1569   16.8851 C   0  0  0  0  0  0  0  0  0  0  0  0
  -25.8925  -25.1638   20.9482 C   0  0  0  0  0  0  0  0  0  0  0  0
  -28.6024  -19.0356   19.7877 C   0  0  0  0  0  0  0  0  0  0  0  0
  -25.4410  -22.8368   21.4875 C   0  0  0  0  0  0  0  0  0  0  0  0
  -30.0507  -20.7037   20.5889 C   0  0  0  0  0  0  0  0  0  0  0  0
  -31.6811  -21.6783   22.6321 C   0  0  0  0  0  0  0  0  0  0  0  0
  -29.7786  -21.9437   21.1669 C   0  0  0  0  0  0  0  0  0  0  0  0
  -26.6145  -15.3603   20.4499 C   0  0  0  0  0  0  0  0  0  0  0  0
  -20.1206  -16.1883   22.3651 C   0  0  0  0  0  0  0  0  0  0  0  0
  -20.6648  -18.2906   22.5474 C   0  0  0  0  0  0  0  0  0  0  0  0
  -26.1190  -13.2899   21.0003 C   0  0  0  0  0  0  0  0  0  0  0  0
  -22.7350  -19.1164   23.0212 C   0  0  0  0  0  0  0  0  0  0  0  0
  -28.4930  -13.9231   21.4601 C   0  0  0  0  0  0  0  0  0  0  0  0
  -23.6852  -20.2435   23.2647 C   0  0  0  0  0  0  0  0  0  0  0  0
  -28.2955  -26.8602   19.2229 C   0  0  0  0  0  0  0  0  0  0  0  0
  -20.1613  -14.0732   21.0660 C   0  0  0  0  0  0  0  0  0  0  0  0
  -26.2590  -28.9575   20.6288 C   0  0  0  0  0  0  0  0  0  0  0  0
  -23.5482  -29.4577   22.6408 C   0  0  0  0  0  0  0  0  0  0  0  0
  -31.6645  -26.9193   15.3884 C   0  0  0  0  0  0  0  0  0  0  0  0
  -26.0568  -25.9184   18.5464 C   0  0  0  0  0  0  0  0  0  0  0  0
  -26.1484  -26.5677   21.4300 C   0  0  0  0  0  0  0  0  0  0  0  0
  -31.0718  -27.9581   16.3371 C   0  0  0  0  0  0  0  0  0  0  0  0
  -22.0847  -12.2208   18.6767 C   0  0  0  0  0  0  0  0  0  0  0  0
  -31.1467  -27.4679   17.7796 C   0  0  0  0  0  0  0  0  0  0  0  0
  -23.5096  -12.7297   18.8907 C   0  0  0  0  0  0  0  0  0  0  0  0
  -21.0584  -13.3300   18.8849 C   0  0  0  0  0  0  0  0  0  0  0  0
  -22.5832  -14.5194   20.4283 C   0  0  0  0  0  0  0  0  0  0  0  0
  -30.3339  -26.1813   17.9680 C   0  0  1  0  0  0  0  0  0  0  0  0
  -26.8243  -27.1269   19.0735 C   0  0  1  0  0  0  0  0  0  0  0  0
  -23.6494  -13.4228   20.2577 C   0  0  2  0  0  0  0  0  0  0  0  0
  -22.1440  -31.2838   23.6362 C   0  0  0  0  0  0  0  0  0  0  0  0
  -28.4583  -29.5366   22.6629 C   0  0  0  0  0  0  0  0  0  0  0  0
  -26.7270  -30.5949   24.1295 C   0  0  0  0  0  0  0  0  0  0  0  0
  -27.2065  -31.5541   21.8772 C   0  0  0  0  0  0  0  0  0  0  0  0
  -21.1126  -28.4949   21.2625 C   0  0  0  0  0  0  0  0  0  0  0  0
  -24.3874  -20.7795   22.0473 C   0  0  0  0  0  0  0  0  0  1  0  0
  -20.4253  -14.7507   22.3871 C   0  0  2  0  0  0  0  0  0  0  0  0
  -25.9560  -29.3636   22.0509 C   0  0  1  0  0  0  0  0  0  0  0  0
  -22.3127  -30.3229   22.4696 C   0  0  2  0  0  0  0  0  0  0  0  0
  -27.0840  -30.2354   22.6714 C   0  0  0  0  0  0  0  0  0  0  0  0
  -25.3246  -15.2285   20.1292 N   0  0  0  0  0  0  0  0  0  0  0  0
  -21.5048  -19.3961   22.7631 N   0  0  0  0  0  0  0  0  0  0  0  0
  -25.0525  -13.9588   20.4755 N   0  0  0  0  0  0  0  0  0  0  0  0
  -26.3379  -27.5803   20.3782 N   0  0  0  0  0  0  0  0  0  0  0  0
  -21.2387  -13.9783   20.1851 N   0  0  0  0  0  0  0  0  0  0  0  0
  -26.0196  -12.0047   21.4011 N   0  0  0  0  0  0  0  0  0  0  0  0
  -29.4406  -14.9530   21.3846 N   0  0  0  0  0  0  0  0  0  0  0  0
  -28.9209  -26.4836   18.0497 N   0  0  0  0  0  0  0  0  0  0  0  0
  -24.6488  -30.0106   22.0209 N   0  0  0  0  0  0  0  0  0  0  0  0
  -19.6998  -13.9703   23.4550 N   0  3  0  0  0  0  0  0  0  0  0  0
  -21.0925  -29.4718   22.3816 N   0  3  0  0  0  0  0  0  0  0  0  0
  -28.8367  -12.8046   21.9122 O   0  0  0  0  0  0  0  0  0  0  0  0
  -23.8147  -20.6535   24.4073 O   0  0  0  0  0  0  0  0  0  0  0  0
  -28.8242  -26.9881   20.3210 O   0  0  0  0  0  0  0  0  0  0  0  0
  -19.0313  -13.6392   20.8272 O   0  0  0  0  0  0  0  0  0  0  0  0
  -26.4127  -29.8300   19.7705 O   0  0  0  0  0  0  0  0  0  0  0  0
  -23.5389  -28.3992   23.2654 O   0  0  0  0  0  0  0  0  0  0  0  0
  -21.1598  -17.0270   22.6161 O   0  0  0  0  0  0  0  0  0  0  0  0
  -29.2419  -20.2182   19.5752 O   0  0  0  0  0  0  0  0  0  0  0  0
  -25.2408  -21.8621   22.4159 O   0  0  0  0  0  0  0  0  0  1  0  0
  -32.4632  -22.1455   23.6141 F   0  0  0  0  0  0  0  0  0  0  0  0
  -28.7347  -22.6708   20.7457 F   0  0  0  0  0  0  0  0  0  0  0  0
  1  2  1  0  0  0  0
  1  5  2  0  0  0  0
  2  6  2  0  0  0  0
  3  8  2  0  0  0  0
  3 17  1  0  0  0  0
  4  9  1  0  0  0  0
  4 17  2  0  0  0  0
  5 19  1  0  0  0  0
  6 21  1  0  0  0  0
  7 10  2  0  0  0  0
  7 20  1  0  0  0  0
  8 23  1  0  0  0  0
  9 23  2  0  0  0  0
 10 24  1  0  0  0  0
 11 12  2  0  0  0  0
 11 25  1  0  0  0  0
 12 26  1  0  0  0  0
 13 14  1  0  0  0  0
 13 29  2  0  0  0  0
 14 30  2  0  0  0  0
 15 22  1  0  0  0  0
 15 24  2  0  0  0  0
 16 26  2  0  0  0  0
 16 27  1  0  0  0  0
 17 28  1  0  0  0  0
 18 28  1  0  0  0  0
 18 31  2  0  0  0  0
 18 33  1  0  0  0  0
 19 21  2  0  0  0  0
 19 39  1  0  0  0  0
 20 22  2  0  0  0  0
 20 40  1  0  0  0  0
 21 48  1  0  0  0  0
 22 41  1  0  0  0  0
 23 79  1  0  0  0  0
 24 80  1  0  0  0  0
 25 27  2  0  0  0  0
 25 79  1  0  0  0  0
 26 81  1  0  0  0  0
 27 82  1  0  0  0  0
 28 61  2  0  0  0  0
 29 57  1  0  0  0  0
 29 78  1  0  0  0  0
 30 62  1  0  0  0  0
 30 78  1  0  0  0  0
 31 63  1  0  0  0  0
 31 66  1  0  0  0  0
 32 34  1  0  0  0  0
 32 62  2  0  0  0  0
 33 67  1  0  0  0  0
 33 72  2  0  0  0  0
 34 56  1  0  0  0  0
 34 73  2  0  0  0  0
 35 49  1  0  0  0  0
 35 68  1  0  0  0  0
 35 74  2  0  0  0  0
 36 57  1  0  0  0  0
 36 65  1  0  0  0  0
 36 75  2  0  0  0  0
 37 58  1  0  0  0  0
 37 64  1  0  0  0  0
 37 76  2  0  0  0  0
 38 59  1  0  0  0  0
 38 69  1  0  0  0  0
 38 77  2  0  0  0  0
 39 42  1  0  0  0  0
 40 49  1  0  0  0  0
 41 64  1  0  0  0  0
 42 44  1  0  0  0  0
 43 45  1  0  0  0  0
 43 46  1  0  0  0  0
 44 48  1  0  0  0  0
 45 50  1  0  0  0  0
 46 65  1  0  0  0  0
 47 50  1  0  0  0  0
 47 65  1  0  0  0  0
 48 68  1  0  0  0  0
 49 64  1  0  0  0  0
 50 63  1  0  0  0  0
 51 59  1  0  0  0  0
 52 60  1  0  0  0  0
 53 60  1  0  0  0  0
 54 60  1  0  0  0  0
 55 71  1  0  0  0  0
 56 80  1  0  0  0  0
 57 70  1  0  0  0  0
 58 60  1  0  0  0  0
 58 69  1  0  0  0  0
 59 71  1  0  0  0  0
 61 63  1  0  0  0  0
M  CHG  2  70   1  71   1
M  ISO  4  36 100  56 101  57 100  80 101
M  END
> <Batch ID>
0160

> <Smiles>
CNC(C)C(=O)NC(C(=O)N1Cc2cc([101O:1][101CH2:1]C(=O)CNc3ccc([100C:0](=N)[100C:0](=O)N4CCCC(n5nc(-c6ccc(Oc7ccc(F)cc7F)cc6)c(C(N)=O)c5N)C4)o3)ccc2CC1C(=O)NC1CCCc2ccccc21)C(C)(C)C

> <Shape>
0.216

> <Color>
0.087

> <Negative vol penalty>
0.000

$$$$

  -OEChem-04052303503D

 86 94  0     1  0  0  0  0  0999 V2000
  -32.6049  -12.2713   21.6588 C   0  0  0  0  0  0  0  0  0  0  0  0
  -32.3037  -13.6284   21.7141 C   0  0  0  0  0  0  0  0  0  0  0  0
  -29.9519  -23.8447   20.4118 C   0  0  0  0  0  0  0  0  0  0  0  0
  -28.2805  -23.8617   18.6673 C   0  0  0  0  0  0  0  0  0  0  0  0
  -31.7489  -11.3951   20.9929 C   0  0  0  0  0  0  0  0  0  0  0  0
  -31.1468  -14.1102   21.1027 C   0  0  0  0  0  0  0  0  0  0  0  0
  -26.1291  -19.1679   21.8501 C   0  0  0  0  0  0  0  0  0  0  0  0
  -30.0036  -22.4523   20.3487 C   0  0  0  0  0  0  0  0  0  0  0  0
  -28.3323  -22.4692   18.6041 C   0  0  0  0  0  0  0  0  0  0  0  0
  -25.5153  -20.1910   21.1288 C   0  0  0  0  0  0  0  0  0  0  0  0
  -31.4030  -20.0990   18.3645 C   0  0  0  0  0  0  0  0  0  0  0  0
  -32.6610  -19.4966   18.3608 C   0  0  0  0  0  0  0  0  0  0  0  0
  -24.0699  -18.5726   20.0749 C   0  0  0  0  0  0  0  0  0  0  0  0
  -21.1546  -26.8070   21.0575 C   0  0  0  0  0  0  0  0  0  0  0  0
  -32.0994  -18.3110   20.3895 C   0  0  0  0  0  0  0  0  0  0  0  0
  -29.0903  -24.5495   19.5711 C   0  0  0  0  0  0  0  0  0  0  0  0
  -29.8132  -26.9021   18.9002 C   0  0  0  0  0  0  0  0  0  0  0  0
  -30.5760  -11.8649   20.3814 C   0  0  0  0  0  0  0  0  0  0  0  0
  -25.7247  -17.8359   21.6808 C   0  0  0  0  0  0  0  0  0  0  0  0
  -30.2750  -13.2395   20.4270 C   0  0  0  0  0  0  0  0  0  0  0  0
  -24.6785  -17.5347   20.7972 C   0  0  0  0  0  0  0  0  0  0  0  0
  -21.5375  -28.1475   21.3018 C   0  0  0  0  0  0  0  0  0  0  0  0
  -29.1938  -21.7645   19.4448 C   0  0  0  0  0  0  0  0  0  0  0  0
  -24.4874  -19.8931   20.2389 C   0  0  0  0  0  0  0  0  0  0  0  0
  -30.4931  -19.8075   19.3809 C   0  0  0  0  0  0  0  0  0  0  0  0
  -33.0092  -18.6026   19.3732 C   0  0  0  0  0  0  0  0  0  0  0  0
  -30.8413  -18.9134   20.3933 C   0  0  0  0  0  0  0  0  0  0  0  0
  -29.0359  -25.9878   19.6363 C   0  0  0  0  0  0  0  0  0  0  0  0
  -22.7093  -28.3425   20.6084 C   0  0  0  0  0  0  0  0  0  0  0  0
  -22.1196  -26.2785   20.2320 C   0  0  0  0  0  0  0  0  0  0  0  0
  -29.3835  -28.1363   19.3228 C   0  0  0  0  0  0  0  0  0  0  0  0
  -23.4071  -24.5549   19.4813 C   0  0  0  0  0  0  0  0  0  0  0  0
  -30.8325  -26.6576   17.9220 C   0  0  0  0  0  0  0  0  0  0  0  0
  -23.5807  -23.1864   18.9072 C   0  0  0  0  0  0  0  0  0  0  0  0
  -27.1363  -15.1746   20.6669 C   0  0  0  0  0  0  0  0  0  0  0  0
  -24.2002  -29.9654   21.7519 C   0  0  0  0  0  0  0  0  0  0  0  0
  -24.3412  -13.8068   21.5827 C   0  0  0  0  0  0  0  0  0  0  0  0
  -21.0061  -14.1703   22.2085 C   0  0  0  0  0  0  0  0  0  0  0  0
  -29.7057  -10.8867   19.6327 C   0  0  0  0  0  0  0  0  0  0  0  0
  -26.3789  -16.7470   22.4862 C   0  0  0  0  0  0  0  0  0  0  0  0
  -24.1934  -16.1233   20.5942 C   0  0  0  0  0  0  0  0  0  0  0  0
  -28.3078  -11.4212   19.3322 C   0  0  0  0  0  0  0  0  0  0  0  0
  -27.4946  -30.3592   23.1055 C   0  0  0  0  0  0  0  0  0  0  0  0
  -28.3865  -12.8400   18.7778 C   0  0  0  0  0  0  0  0  0  0  0  0
  -28.3281  -29.3459   22.3222 C   0  0  0  0  0  0  0  0  0  0  0  0
  -26.0799  -29.8455   23.3540 C   0  0  0  0  0  0  0  0  0  0  0  0
  -26.1840  -28.4305   21.3270 C   0  0  0  0  0  0  0  0  0  0  0  0
  -29.0167  -13.7966   19.7973 C   0  0  1  0  0  0  0  0  0  0  0  0
  -26.2342  -15.3665   21.8531 C   0  0  1  0  0  0  0  0  0  0  0  0
  -27.6110  -28.9231   21.0278 C   0  0  2  0  0  0  0  0  0  0  0  0
  -18.9788  -12.8654   22.9047 C   0  0  0  0  0  0  0  0  0  0  0  0
  -24.1586  -12.6025   18.7851 C   0  0  0  0  0  0  0  0  0  0  0  0
  -21.7385  -12.1323   19.2212 C   0  0  0  0  0  0  0  0  0  0  0  0
  -23.4906  -11.0550   20.6327 C   0  0  0  0  0  0  0  0  0  0  0  0
  -20.6380  -15.8170   24.6399 C   0  0  0  0  0  0  0  0  0  0  0  0
  -24.3602  -22.2178   19.7537 C   0  0  0  0  0  0  0  0  0  1  0  0
  -23.6074  -29.4956   20.4473 C   0  0  2  0  0  0  0  0  0  0  0  0
  -23.0192  -13.5233   20.9112 C   0  0  1  0  0  0  0  0  0  0  0  0
  -20.1452  -13.7203   23.3751 C   0  0  2  0  0  0  0  0  0  0  0  0
  -20.8215  -29.1325   22.1327 C   0  0  0  0  0  0  0  0  0  0  0  0
  -23.1119  -12.3547   19.8897 C   0  0  0  0  0  0  0  0  0  0  0  0
  -28.1776  -26.5898   20.4638 N   0  0  0  0  0  0  0  0  0  0  0  0
  -22.2118  -24.9837   19.6942 N   0  0  0  0  0  0  0  0  0  0  0  0
  -28.4130  -27.8956   20.2504 N   0  0  0  0  0  0  0  0  0  0  0  0
  -24.8690  -15.0928   21.3999 N   0  0  0  0  0  0  0  0  0  0  0  0
  -25.4409  -29.4331   22.1031 N   0  0  0  0  0  0  0  0  0  0  0  0
  -29.7450  -29.3931   18.9878 N   0  0  0  0  0  0  0  0  0  0  0  0
  -31.1502  -25.3297   17.6057 N   0  0  0  0  0  0  0  0  0  0  0  0
  -28.0544  -14.1529   20.8178 N   0  0  0  0  0  0  0  0  0  0  0  0
  -22.0551  -13.3041   21.9839 N   0  0  0  0  0  0  0  0  0  0  0  0
  -22.9812  -30.6898   19.7716 N   0  3  0  0  0  0  0  0  0  0  0  0
  -19.5993  -14.9014   24.1017 N   0  3  0  0  0  0  0  0  0  0  0  0
  -31.4548  -27.5889   17.3574 O   0  0  0  0  0  0  0  0  0  0  0  0
  -23.0779  -22.9475   17.8207 O   0  0  0  0  0  0  0  0  0  0  0  0
  -27.0079  -15.8987   19.6867 O   0  0  0  0  0  0  0  0  0  0  0  0
  -23.5791  -30.7832   22.4355 O   0  0  0  0  0  0  0  0  0  0  0  0
  -24.8821  -12.9221   22.2509 O   0  0  0  0  0  0  0  0  0  0  0  0
  -20.7693  -15.1864   21.5588 O   0  0  0  0  0  0  0  0  0  0  0  0
  -23.0709  -27.2081   19.9535 O   0  0  0  0  0  0  0  0  0  0  0  0
  -29.2443  -20.4058   19.3828 O   0  0  0  0  0  0  0  0  0  0  0  0
  -23.8870  -20.8897   19.5332 O   0  0  0  0  0  0  0  0  0  1  0  0
  -34.2168  -18.0229   19.3686 F   0  0  0  0  0  0  0  0  0  0  0  0
  -29.9710  -18.6285   21.3717 F   0  0  0  0  0  0  0  0  0  0  0  0
  -19.6701  -28.6550   22.7085 F   0  0  0  0  0  0  0  0  0  0  0  0
  -21.5533  -29.6185   23.1878 F   0  0  0  0  0  0  0  0  0  0  0  0
  -20.4288  -30.2466   21.4357 F   0  0  0  0  0  0  0  0  0  0  0  0
  1  2  1  0  0  0  0
  1  5  2  0  0  0  0
  2  6  2  0  0  0  0
  3  8  2  0  0  0  0
  3 16  1  0  0  0  0
  4  9  1  0  0  0  0
  4 16  2  0  0  0  0
  5 18  1  0  0  0  0
  6 20  1  0  0  0  0
  7 10  2  0  0  0  0
  7 19  1  0  0  0  0
  8 23  1  0  0  0  0
  9 23  2  0  0  0  0
 10 24  1  0  0  0  0
 11 12  2  0  0  0  0
 11 25  1  0  0  0  0
 12 26  1  0  0  0  0
 13 21  1  0  0  0  0
 13 24  2  0  0  0  0
 14 22  1  0  0  0  0
 14 30  2  0  0  0  0
 15 26  2  0  0  0  0
 15 27  1  0  0  0  0
 16 28  1  0  0  0  0
 17 28  1  0  0  0  0
 17 31  2  0  0  0  0
 17 33  1  0  0  0  0
 18 20  2  0  0  0  0
 18 39  1  0  0  0  0
 19 21  2  0  0  0  0
 19 40  1  0  0  0  0
 20 48  1  0  0  0  0
 21 41  1  0  0  0  0
 22 29  2  0  0  0  0
 22 60  1  0  0  0  0
 23 80  1  0  0  0  0
 24 81  1  0  0  0  0
 25 27  2  0  0  0  0
 25 80  1  0  0  0  0
 26 82  1  0  0  0  0
 27 83  1  0  0  0  0
 28 62  2  0  0  0  0
 29 57  1  0  0  0  0
 29 79  1  0  0  0  0
 30 63  1  0  0  0  0
 30 79  1  0  0  0  0
 31 64  1  0  0  0  0
 31 67  1  0  0  0  0
 32 34  1  0  0  0  0
 32 63  2  0  0  0  0
 33 68  1  0  0  0  0
 33 73  2  0  0  0  0
 34 56  1  0  0  0  0
 34 74  2  0  0  0  0
 35 49  1  0  0  0  0
 35 69  1  0  0  0  0
 35 75  2  0  0  0  0
 36 57  1  0  0  0  0
 36 66  1  0  0  0  0
 36 76  2  0  0  0  0
 37 58  1  0  0  0  0
 37 65  1  0  0  0  0
 37 77  2  0  0  0  0
 38 59  1  0  0  0  0
 38 70  1  0  0  0  0
 38 78  2  0  0  0  0
 39 42  1  0  0  0  0
 40 49  1  0  0  0  0
 41 65  1  0  0  0  0
 42 44  1  0  0  0  0
 43 45  1  0  0  0  0
 43 46  1  0  0  0  0
 44 48  1  0  0  0  0
 45 50  1  0  0  0  0
 46 66  1  0  0  0  0
 47 50  1  0  0  0  0
 47 66  1  0  0  0  0
 48 69  1  0  0  0  0
 49 65  1  0  0  0  0
 50 64  1  0  0  0  0
 51 59  1  0  0  0  0
 52 61  1  0  0  0  0
 53 61  1  0  0  0  0
 54 61  1  0  0  0  0
 55 72  1  0  0  0  0
 56 81  1  0  0  0  0
 57 71  1  0  0  0  0
 58 61  1  0  0  0  0
 58 70  1  0  0  0  0
 59 72  1  0  0  0  0
 60 84  1  0  0  0  0
 60 85  1  0  0  0  0
 60 86  1  0  0  0  0
 62 64  1  0  0  0  0
M  CHG  2  71   1  72   1
M  ISO  4  36 100  56 101  57 100  81 101
M  END
> <Batch ID>
0160

> <Smiles>
CNC(C)C(=O)NC(C(=O)N1Cc2cc([101O:1][101CH2:1]C(=O)CNc3cc(C(F)(F)F)c([100C:0](=N)[100C:0](=O)N4CCCC(n5nc(-c6ccc(Oc7ccc(F)cc7F)cc6)c(C(N)=O)c5N)C4)o3)ccc2CC1C(=O)NC1CCCc2ccccc21)C(C)(C)C

> <Shape>
0.262

> <Color>
0.056

> <Negative vol penalty>
0.000

$$$$

  -OEChem-04052303503D

 85 94  0     1  0  0  0  0  0999 V2000
  -25.3182  -35.7786   20.5357 C   0  0  0  0  0  0  0  0  0  0  0  0
  -25.9770  -34.5631   20.6906 C   0  0  0  0  0  0  0  0  0  0  0  0
  -26.4071  -10.3995   20.7218 C   0  0  0  0  0  0  0  0  0  0  0  0
  -25.6058  -11.8134   18.9341 C   0  0  0  0  0  0  0  0  0  0  0  0
  -24.0698  -35.9736   21.1252 C   0  0  0  0  0  0  0  0  0  0  0  0
  -25.3882  -33.5422   21.4360 C   0  0  0  0  0  0  0  0  0  0  0  0
  -25.7289  -29.0309   19.1608 C   0  0  0  0  0  0  0  0  0  0  0  0
  -25.1470   -9.8098   20.8203 C   0  0  0  0  0  0  0  0  0  0  0  0
  -24.3456  -11.2237   19.0326 C   0  0  0  0  0  0  0  0  0  0  0  0
  -26.9542  -28.3702   19.2372 C   0  0  0  0  0  0  0  0  0  0  0  0
  -23.3566   -7.4674   19.1647 C   0  0  0  0  0  0  0  0  0  0  0  0
  -23.2977   -6.0778   19.2703 C   0  0  0  0  0  0  0  0  0  0  0  0
  -28.5695  -19.8096   17.9458 C   0  0  0  0  0  0  0  0  0  0  0  0
  -26.0932  -26.9923   21.0202 C   0  0  0  0  0  0  0  0  0  0  0  0
  -22.1810   -6.2873   21.4025 C   0  0  0  0  0  0  0  0  0  0  0  0
  -26.6366  -11.4014   19.7788 C   0  0  0  0  0  0  0  0  0  0  0  0
  -28.8026  -21.1815   17.6874 C   0  0  0  0  0  0  0  0  0  0  0  0
  -29.0109  -11.5949   18.8663 C   0  0  0  0  0  0  0  0  0  0  0  0
  -23.4611  -34.9513   21.8701 C   0  0  0  0  0  0  0  0  0  0  0  0
  -24.6783  -28.6841   20.0224 C   0  0  0  0  0  0  0  0  0  0  0  0
  -24.1311  -33.7242   22.0371 C   0  0  0  0  0  0  0  0  0  0  0  0
  -24.8547  -27.6484   20.9510 C   0  0  0  0  0  0  0  0  0  0  0  0
  -24.1162  -10.2218   19.9757 C   0  0  0  0  0  0  0  0  0  0  0  0
  -27.1374  -27.3527   20.1689 C   0  0  0  0  0  0  0  0  0  0  0  0
  -22.8278   -8.2670   20.1780 C   0  0  0  0  0  0  0  0  0  0  0  0
  -22.7098   -5.4877   20.3892 C   0  0  0  0  0  0  0  0  0  0  0  0
  -22.2400   -7.6769   21.2969 C   0  0  0  0  0  0  0  0  0  0  0  0
  -27.9380  -12.0114   19.6769 C   0  0  0  0  0  0  0  0  0  0  0  0
  -30.0116  -12.4978   19.1307 C   0  0  0  0  0  0  0  0  0  0  0  0
  -29.5686  -21.6424   18.7329 C   0  0  0  0  0  0  0  0  0  0  0  0
  -29.2099  -19.5299   19.1306 C   0  0  0  0  0  0  0  0  0  0  0  0
  -31.2870  -25.4350   19.0140 C   0  0  0  0  0  0  0  0  0  0  0  0
  -29.9472  -25.3668   19.0856 C   0  0  0  0  0  0  0  0  0  0  0  0
  -28.3490  -21.9629   16.5742 C   0  0  0  0  0  0  0  0  0  0  0  0
  -29.0955  -10.4907   17.9557 C   0  0  0  0  0  0  0  0  0  0  0  0
  -23.0263  -30.2061   22.2714 C   0  0  0  0  0  0  0  0  0  0  0  0
  -21.2731  -27.4769   22.2818 C   0  0  0  0  0  0  0  0  0  0  0  0
  -21.1162  -24.1317   21.6248 C   0  0  0  0  0  0  0  0  0  0  0  0
  -30.0031  -18.1461   21.0806 C   0  0  0  0  0  0  0  0  0  0  0  0
  -22.1319  -35.2253   22.5280 C   0  0  0  0  0  0  0  0  0  0  0  0
  -23.3540  -29.3883   19.9092 C   0  0  0  0  0  0  0  0  0  0  0  0
  -23.7518  -27.2244   21.8850 C   0  0  0  0  0  0  0  0  0  0  0  0
  -32.1630  -24.2238   19.0846 C   0  0  0  0  0  0  0  0  0  0  0  0
  -29.2070  -24.0534   19.1977 C   0  0  0  0  0  0  0  0  0  0  0  0
  -21.4086  -33.9624   22.9889 C   0  0  0  0  0  0  0  0  0  0  0  0
  -31.6421  -15.3725   22.5965 C   0  0  0  0  0  0  0  0  0  0  0  0
  -22.3687  -33.0380   23.7308 C   0  0  0  0  0  0  0  0  0  0  0  0
  -30.9801  -14.1580   21.9416 C   0  0  0  0  0  0  0  0  0  0  0  0
  -31.4303  -23.0004   19.6328 C   0  0  0  0  0  0  0  0  0  0  0  0
  -30.6434  -16.5042   22.8325 C   0  0  0  0  0  0  0  0  0  0  0  0
  -29.2158  -15.6990   20.9933 C   0  0  0  0  0  0  0  0  0  0  0  0
  -23.5139  -32.5841   22.8176 C   0  0  1  0  0  0  0  0  0  0  0  0
  -22.5202  -29.3013   21.1838 C   0  0  1  0  0  0  0  0  0  0  0  0
  -30.1957  -14.5576   20.6765 C   0  0  2  0  0  0  0  0  0  0  0  0
  -19.5633  -22.1659   21.7721 C   0  0  0  0  0  0  0  0  0  0  0  0
  -21.7418  -27.3355   25.2935 C   0  0  0  0  0  0  0  0  0  0  0  0
  -21.0176  -24.9399   25.2235 C   0  0  0  0  0  0  0  0  0  0  0  0
  -19.4224  -26.7429   24.5698 C   0  0  0  0  0  0  0  0  0  0  0  0
  -21.1952  -23.7022   18.6976 C   0  0  0  0  0  0  0  0  0  0  0  0
  -29.0918  -26.5993   19.0425 C   0  0  0  0  0  0  0  0  0  1  0  0
  -21.3405  -26.1658   23.0271 C   0  0  1  0  0  0  0  0  0  0  0  0
  -20.0799  -23.2959   20.8953 C   0  0  2  0  0  0  0  0  0  0  0  0
  -20.9022  -26.3051   24.5123 C   0  0  0  0  0  0  0  0  0  0  0  0
  -28.2297  -13.0944   20.4021 N   0  0  0  0  0  0  0  0  0  0  0  0
  -27.6187  -21.4917   15.5920 N   0  0  0  0  0  0  0  0  0  0  0  0
  -29.4974  -13.3661   20.0482 N   0  0  0  0  0  0  0  0  0  0  0  0
  -30.1015  -22.9006   19.0226 N   0  0  1  0  0  0  0  0  0  0  0  0
  -22.4776  -27.9474   21.7400 N   0  0  0  0  0  0  0  0  0  0  0  0
  -29.9412  -16.8317   21.5897 N   0  0  0  0  0  0  0  0  0  0  0  0
  -31.2725  -12.6256   18.6657 N   0  0  0  0  0  0  0  0  0  0  0  0
  -27.9750   -9.6625   17.8039 N   0  0  0  0  0  0  0  0  0  0  0  0
  -29.3242  -18.3306   19.8766 N   0  0  0  0  0  0  0  0  0  0  0  0
  -23.0622  -31.5421   21.9204 N   0  0  0  0  0  0  0  0  0  0  0  0
  -20.5452  -25.2165   22.2559 N   0  0  0  0  0  0  0  0  0  0  0  0
  -20.6685  -22.7021   19.6616 N   0  3  0  0  0  0  0  0  0  0  0  0
  -30.1393  -10.2360   17.3084 O   0  0  0  0  0  0  0  0  0  0  0  0
  -23.3581  -29.7277   23.3496 O   0  0  0  0  0  0  0  0  0  0  0  0
  -20.1902  -28.0584   22.1780 O   0  0  0  0  0  0  0  0  0  0  0  0
  -22.3120  -23.8483   21.6368 O   0  0  0  0  0  0  0  0  0  0  0  0
  -30.6362  -19.0355   21.6552 O   0  0  0  0  0  0  0  0  0  0  0  0
  -29.8213  -20.6418   19.6168 O   0  0  0  0  0  0  0  0  0  0  0  0
  -22.8864   -9.6464   20.0714 O   0  0  0  0  0  0  0  0  0  0  0  0
  -28.3326  -26.7066   20.2460 O   0  0  0  0  0  0  0  0  0  1  0  0
  -22.6519   -4.1533   20.4897 F   0  0  0  0  0  0  0  0  0  0  0  0
  -21.7292   -8.4398   22.2731 F   0  0  0  0  0  0  0  0  0  0  0  0
  1  2  1  0  0  0  0
  1  5  2  0  0  0  0
  2  6  2  0  0  0  0
  3  8  2  0  0  0  0
  3 16  1  0  0  0  0
  4  9  1  0  0  0  0
  4 16  2  0  0  0  0
  5 19  1  0  0  0  0
  6 21  1  0  0  0  0
  7 10  2  0  0  0  0
  7 20  1  0  0  0  0
  8 23  1  0  0  0  0
  9 23  2  0  0  0  0
 10 24  1  0  0  0  0
 11 12  2  0  0  0  0
 11 25  1  0  0  0  0
 12 26  1  0  0  0  0
 13 17  1  0  0  0  0
 13 31  2  0  0  0  0
 14 22  1  0  0  0  0
 14 24  2  0  0  0  0
 15 26  2  0  0  0  0
 15 27  1  0  0  0  0
 16 28  1  0  0  0  0
 17 30  2  0  0  0  0
 17 34  1  0  0  0  0
 18 28  1  0  0  0  0
 18 29  2  0  0  0  0
 18 35  1  0  0  0  0
 19 21  2  0  0  0  0
 19 40  1  0  0  0  0
 20 22  2  0  0  0  0
 20 41  1  0  0  0  0
 21 52  1  0  0  0  0
 22 42  1  0  0  0  0
 23 82  1  0  0  0  0
 24 83  1  0  0  0  0
 25 27  2  0  0  0  0
 25 82  1  0  0  0  0
 26 84  1  0  0  0  0
 27 85  1  0  0  0  0
 28 64  2  0  0  0  0
 29 66  1  0  0  0  0
 29 70  1  0  0  0  0
 30 67  1  0  0  0  0
 30 81  1  0  0  0  0
 31 72  1  0  0  0  0
 31 81  1  0  0  0  0
 32 33  2  0  0  0  0
 32 43  1  0  0  0  0
 33 44  1  0  0  0  0
 33 60  1  0  0  0  0
 34 65  2  0  0  0  0
 35 71  1  0  0  0  0
 35 76  2  0  0  0  0
 36 53  1  0  0  0  0
 36 73  1  0  0  0  0
 36 77  2  0  0  0  0
 37 61  1  0  0  0  0
 37 68  1  0  0  0  0
 37 78  2  0  0  0  0
 38 62  1  0  0  0  0
 38 74  1  0  0  0  0
 38 79  2  0  0  0  0
 39 69  1  0  0  0  0
 39 72  1  0  0  0  0
 39 80  2  0  0  0  0
 40 45  1  0  0  0  0
 41 53  1  0  0  0  0
 42 68  1  0  0  0  0
 43 49  1  0  0  0  0
 44 67  1  0  0  0  0
 45 47  1  0  0  0  0
 46 48  1  0  0  0  0
 46 50  1  0  0  0  0
 47 52  1  0  0  0  0
 48 54  1  0  0  0  0
 49 67  1  0  0  0  0
 50 69  1  0  0  0  0
 51 54  1  0  0  0  0
 51 69  1  0  0  0  0
 52 73  1  0  0  0  0
 53 68  1  0  0  0  0
 54 66  1  0  0  0  0
 55 62  1  0  0  0  0
 56 63  1  0  0  0  0
 57 63  1  0  0  0  0
 58 63  1  0  0  0  0
 59 75  1  0  0  0  0
 60 83  1  0  0  0  0
 61 63  1  0  0  0  0
 61 74  1  0  0  0  0
 62 75  1  0  0  0  0
 64 66  1  0  0  0  0
M  CHG  1  75   1
M  ISO  4  39 100  60 101  72 100  83 101
M  END
> <Batch ID>
0160

> <Smiles>
CNC(C)C(=O)NC(C(=O)N1Cc2cc([101O:1][101CH2:1]C3=CCCN(c4oc([100NH:0][100C:0](=O)N5CCCC(n6nc(-c7ccc(Oc8ccc(F)cc8F)cc7)c(C(N)=O)c6N)C5)cc4C=N)C3)ccc2CC1C(=O)NC1CCCc2ccccc21)C(C)(C)C

> <Shape>
0.291

> <Color>
0.074

> <Negative vol penalty>
0.000

$$$$

  -OEChem-04052303503D

 83 91  0     1  0  0  0  0  0999 V2000
  -19.1338  -28.5051   21.7857 C   0  0  0  0  0  0  0  0  0  0  0  0
  -20.3397  -27.8741   22.0741 C   0  0  0  0  0  0  0  0  0  0  0  0
  -23.1246   -9.8778   21.4364 C   0  0  0  0  0  0  0  0  0  0  0  0
  -23.7874  -10.8796   23.5326 C   0  0  0  0  0  0  0  0  0  0  0  0
  -17.9952  -28.2047   22.5322 C   0  0  0  0  0  0  0  0  0  0  0  0
  -20.4078  -26.9430   23.1099 C   0  0  0  0  0  0  0  0  0  0  0  0
  -22.9799  -22.7782   21.8126 C   0  0  0  0  0  0  0  0  0  0  0  0
  -22.3896   -8.9155   22.1286 C   0  0  0  0  0  0  0  0  0  0  0  0
  -23.0523   -9.9172   24.2249 C   0  0  0  0  0  0  0  0  0  0  0  0
  -24.3714  -22.8647   21.8084 C   0  0  0  0  0  0  0  0  0  0  0  0
  -20.0456   -6.4114   23.3331 C   0  0  0  0  0  0  0  0  0  0  0  0
  -18.7625   -6.1190   22.8708 C   0  0  0  0  0  0  0  0  0  0  0  0
  -29.8251  -18.5620   20.7675 C   0  0  0  0  0  0  0  0  0  0  0  0
  -24.4388  -21.7864   23.9653 C   0  0  0  0  0  0  0  0  0  0  0  0
  -18.1112   -8.4186   23.2238 C   0  0  0  0  0  0  0  0  0  0  0  0
  -23.8236  -10.8598   22.1384 C   0  0  0  0  0  0  0  0  0  0  0  0
  -30.7773  -19.5655   20.4684 C   0  0  0  0  0  0  0  0  0  0  0  0
  -24.1294  -13.1064   20.9691 C   0  0  0  0  0  0  0  0  0  0  0  0
  -18.0471  -27.2624   23.5714 C   0  0  0  0  0  0  0  0  0  0  0  0
  -22.3057  -22.2041   22.8998 C   0  0  0  0  0  0  0  0  0  0  0  0
  -19.2691  -26.6308   23.8719 C   0  0  0  0  0  0  0  0  0  0  0  0
  -23.0388  -21.6915   23.9796 C   0  0  0  0  0  0  0  0  0  0  0  0
  -22.3534   -8.9352   23.5229 C   0  0  0  0  0  0  0  0  0  0  0  0
  -25.1009  -22.3714   22.8862 C   0  0  0  0  0  0  0  0  0  0  0  0
  -20.3615   -7.7075   23.7408 C   0  0  0  0  0  0  0  0  0  0  0  0
  -17.7953   -7.1226   22.8161 C   0  0  0  0  0  0  0  0  0  0  0  0
  -19.3944   -8.7111   23.6861 C   0  0  0  0  0  0  0  0  0  0  0  0
  -24.5835  -11.8539   21.4238 C   0  0  0  0  0  0  0  0  0  0  0  0
  -25.2236  -13.6666   20.3564 C   0  0  0  0  0  0  0  0  0  0  0  0
  -30.4291  -17.3621   20.4718 C   0  0  0  0  0  0  0  0  0  0  0  0
  -31.8953  -18.9073   20.0114 C   0  0  0  0  0  0  0  0  0  0  0  0
  -30.6408  -21.0391   20.6048 C   0  0  0  0  0  0  0  0  0  0  0  0
  -22.8343  -13.7096   21.0898 C   0  0  0  0  0  0  0  0  0  0  0  0
  -20.1933  -23.2471   25.0337 C   0  0  0  0  0  0  0  0  0  0  0  0
  -28.4846  -21.7881   21.7364 C   0  0  0  0  0  0  0  0  0  0  0  0
  -20.1423  -20.1297   25.9288 C   0  0  0  0  0  0  0  0  0  0  0  0
  -21.7440  -17.1178   26.0295 C   0  0  0  0  0  0  0  0  0  0  0  0
  -30.6601  -14.8641   20.2414 C   0  0  0  0  0  0  0  0  0  0  0  0
  -16.8011  -27.0055   24.3813 C   0  0  0  0  0  0  0  0  0  0  0  0
  -20.8058  -22.0942   22.8769 C   0  0  0  0  0  0  0  0  0  0  0  0
  -22.3638  -21.0475   25.1620 C   0  0  0  0  0  0  0  0  0  0  0  0
  -16.8708  -25.7308   25.2184 C   0  0  0  0  0  0  0  0  0  0  0  0
  -29.6851  -11.6401   19.0872 C   0  0  0  0  0  0  0  0  0  0  0  0
  -18.2032  -25.6492   25.9566 C   0  0  0  0  0  0  0  0  0  0  0  0
  -28.2335  -11.5114   19.5548 C   0  0  0  0  0  0  0  0  0  0  0  0
  -30.5451  -12.3855   20.1062 C   0  0  0  0  0  0  0  0  0  0  0  0
  -28.5705  -13.5644   20.9895 C   0  0  0  0  0  0  0  0  0  0  0  0
  -19.3773  -25.5968   24.9716 C   0  0  1  0  0  0  0  0  0  0  0  0
  -20.1956  -21.9542   24.2682 C   0  0  1  0  0  0  0  0  0  0  0  0
  -27.6509  -12.8775   19.9668 C   0  0  2  0  0  0  0  0  0  0  0  0
  -22.0665  -14.6650   26.4506 C   0  0  0  0  0  0  0  0  0  0  0  0
  -20.7378  -21.0658   28.7712 C   0  0  0  0  0  0  0  0  0  0  0  0
  -21.3816  -18.7133   29.3366 C   0  0  0  0  0  0  0  0  0  0  0  0
  -19.0509  -19.2265   28.6105 C   0  0  0  0  0  0  0  0  0  0  0  0
  -20.6890  -16.4023   23.3585 C   0  0  0  0  0  0  0  0  0  0  0  0
  -29.2730  -21.6731   20.4471 C   0  0  0  0  0  0  0  0  0  0  0  0
  -27.1112  -22.4172   21.6162 C   0  0  0  0  0  0  0  0  0  1  0  0
  -20.9205  -19.2861   26.9096 C   0  0  1  0  0  0  0  0  0  0  0  0
  -21.2744  -15.7153   25.6875 C   0  0  2  0  0  0  0  0  0  0  0  0
  -20.5356  -19.5868   28.3857 C   0  0  0  0  0  0  0  0  0  0  0  0
  -25.8662  -11.6310   21.1254 N   0  0  0  0  0  0  0  0  0  0  0  0
  -31.6468  -21.8147   20.8574 N   0  0  0  0  0  0  0  0  0  0  0  0
  -26.2274  -12.7510   20.4764 N   0  0  0  0  0  0  0  0  0  0  0  0
  -20.8952  -20.9693   25.0957 N   0  0  0  0  0  0  0  0  0  0  0  0
  -29.9333  -13.6721   20.4456 N   0  0  0  0  0  0  0  0  0  0  0  0
  -25.4154  -14.8480   19.7320 N   0  0  0  0  0  0  0  0  0  0  0  0
  -21.8239  -12.9964   21.7492 N   0  0  0  0  0  0  0  0  0  0  0  0
  -29.9642  -16.0272   20.5695 N   0  0  0  0  0  0  0  0  0  0  0  0
  -19.5058  -24.2699   24.4085 N   0  0  0  0  0  0  0  0  0  0  0  0
  -20.7136  -17.8987   26.5088 N   0  0  0  0  0  0  0  0  0  0  0  0
  -21.4346  -15.4567   24.2286 N   0  3  0  0  0  0  0  0  0  0  0  0
  -22.5760  -14.8404   20.6122 O   0  0  0  0  0  0  0  0  0  0  0  0
  -20.7710  -23.3116   26.1124 O   0  0  0  0  0  0  0  0  0  0  0  0
  -28.9283  -21.3955   22.8145 O   0  0  0  0  0  0  0  0  0  0  0  0
  -18.9124  -20.0414   25.8980 O   0  0  0  0  0  0  0  0  0  0  0  0
  -22.9091  -17.4829   25.8893 O   0  0  0  0  0  0  0  0  0  0  0  0
  -31.8050  -14.8555   19.7818 O   0  0  0  0  0  0  0  0  0  0  0  0
  -31.6912  -17.5639   20.0105 O   0  0  0  0  0  0  0  0  0  0  0  0
  -21.6361   -7.9964   24.1987 O   0  0  0  0  0  0  0  0  0  0  0  0
  -26.4592  -22.4551   22.8850 O   0  0  0  0  0  0  0  0  0  1  0  0
  -16.5636   -6.8419   22.3708 F   0  0  0  0  0  0  0  0  0  0  0  0
  -19.6923   -9.9583   24.0752 F   0  0  0  0  0  0  0  0  0  0  0  0
  -33.0294  -19.4970   19.6205 F   0  0  0  0  0  0  0  0  0  0  0  0
  1  2  1  0  0  0  0
  1  5  2  0  0  0  0
  2  6  2  0  0  0  0
  3  8  2  0  0  0  0
  3 16  1  0  0  0  0
  4  9  1  0  0  0  0
  4 16  2  0  0  0  0
  5 19  1  0  0  0  0
  6 21  1  0  0  0  0
  7 10  2  0  0  0  0
  7 20  1  0  0  0  0
  8 23  1  0  0  0  0
  9 23  2  0  0  0  0
 10 24  1  0  0  0  0
 11 12  2  0  0  0  0
 11 25  1  0  0  0  0
 12 26  1  0  0  0  0
 13 17  1  0  0  0  0
 13 30  2  0  0  0  0
 14 22  1  0  0  0  0
 14 24  2  0  0  0  0
 15 26  2  0  0  0  0
 15 27  1  0  0  0  0
 16 28  1  0  0  0  0
 17 31  2  0  0  0  0
 17 32  1  0  0  0  0
 18 28  1  0  0  0  0
 18 29  2  0  0  0  0
 18 33  1  0  0  0  0
 19 21  2  0  0  0  0
 19 39  1  0  0  0  0
 20 22  2  0  0  0  0
 20 40  1  0  0  0  0
 21 48  1  0  0  0  0
 22 41  1  0  0  0  0
 23 79  1  0  0  0  0
 24 80  1  0  0  0  0
 25 27  2  0  0  0  0
 25 79  1  0  0  0  0
 26 81  1  0  0  0  0
 27 82  1  0  0  0  0
 28 61  2  0  0  0  0
 29 63  1  0  0  0  0
 29 66  1  0  0  0  0
 30 68  1  0  0  0  0
 30 78  1  0  0  0  0
 31 78  1  0  0  0  0
 31 83  1  0  0  0  0
 32 56  1  0  0  0  0
 32 62  2  0  0  0  0
 33 67  1  0  0  0  0
 33 72  2  0  0  0  0
 34 49  1  0  0  0  0
 34 69  1  0  0  0  0
 34 73  2  0  0  0  0
 35 56  1  0  0  0  0
 35 57  1  0  0  0  0
 35 74  2  0  0  0  0
 36 58  1  0  0  0  0
 36 64  1  0  0  0  0
 36 75  2  0  0  0  0
 37 59  1  0  0  0  0
 37 70  1  0  0  0  0
 37 76  2  0  0  0  0
 38 65  1  0  0  0  0
 38 68  1  0  0  0  0
 38 77  2  0  0  0  0
 39 42  1  0  0  0  0
 40 49  1  0  0  0  0
 41 64  1  0  0  0  0
 42 44  1  0  0  0  0
 43 45  1  0  0  0  0
 43 46  1  0  0  0  0
 44 48  1  0  0  0  0
 45 50  1  0  0  0  0
 46 65  1  0  0  0  0
 47 50  1  0  0  0  0
 47 65  1  0  0  0  0
 48 69  1  0  0  0  0
 49 64  1  0  0  0  0
 50 63  1  0  0  0  0
 51 59  1  0  0  0  0
 52 60  1  0  0  0  0
 53 60  1  0  0  0  0
 54 60  1  0  0  0  0
 55 71  1  0  0  0  0
 57 80  1  0  0  0  0
 58 60  1  0  0  0  0
 58 70  1  0  0  0  0
 59 71  1  0  0  0  0
 61 63  1  0  0  0  0
M  CHG  1  71   1
M  ISO  4  38 100  57 101  68 100  80 101
M  END
> <Batch ID>
0160

> <Smiles>
CNC(C)C(=O)NC(C(=O)N1Cc2cc([101O:1][101CH2:1]C(=O)CC(=N)c3cc([100NH:0][100C:0](=O)N4CCCC(n5nc(-c6ccc(Oc7ccc(F)cc7F)cc6)c(C(N)=O)c5N)C4)oc3F)ccc2CC1C(=O)NC1CCCc2ccccc21)C(C)(C)C

> <Shape>
0.182

> <Color>
0.146

> <Negative vol penalty>
0.000

$$$$

  -OEChem-04052303503D

 85 93  0     1  0  0  0  0  0999 V2000
  -25.2853  -19.4274   13.8308 C   0  0  0  0  0  0  0  0  0  0  0  0
  -26.2955  -18.6706   14.4158 C   0  0  0  0  0  0  0  0  0  0  0  0
  -29.4714  -18.8305   23.9571 C   0  0  0  0  0  0  0  0  0  0  0  0
  -26.4602  -28.0794   18.8979 C   0  0  0  0  0  0  0  0  0  0  0  0
  -26.2492  -27.1916   21.1349 C   0  0  0  0  0  0  0  0  0  0  0  0
  -30.3380  -17.7790   23.6590 C   0  0  0  0  0  0  0  0  0  0  0  0
  -24.1854  -19.8251   14.5897 C   0  0  0  0  0  0  0  0  0  0  0  0
  -26.2068  -18.3120   15.7604 C   0  0  0  0  0  0  0  0  0  0  0  0
  -28.1680  -13.1050   18.3190 C   0  0  0  0  0  0  0  0  0  0  0  0
  -28.9011  -19.5779   22.9266 C   0  0  0  0  0  0  0  0  0  0  0  0
  -25.3269  -28.8663   19.1033 C   0  0  0  0  0  0  0  0  0  0  0  0
  -25.1159  -27.9785   21.3403 C   0  0  0  0  0  0  0  0  0  0  0  0
  -29.3282  -12.7845   19.0225 C   0  0  0  0  0  0  0  0  0  0  0  0
  -24.5566  -31.7648   20.6648 C   0  0  0  0  0  0  0  0  0  0  0  0
  -24.6104  -33.0977   20.2573 C   0  0  0  0  0  0  0  0  0  0  0  0
  -30.0643  -18.2223   21.2998 C   0  0  0  0  0  0  0  0  0  0  0  0
  -28.1625  -13.1541   21.1018 C   0  0  0  0  0  0  0  0  0  0  0  0
  -22.7545  -32.7144   18.7586 C   0  0  0  0  0  0  0  0  0  0  0  0
  -26.9213  -27.2420   19.9137 C   0  0  0  0  0  0  0  0  0  0  0  0
  -30.6345  -17.4750   22.3303 C   0  0  0  0  0  0  0  0  0  0  0  0
  -29.4292  -26.7780   19.9671 C   0  0  0  0  0  0  0  0  0  0  0  0
  -24.0785  -19.4631   15.9418 C   0  0  0  0  0  0  0  0  0  0  0  0
  -26.9973  -13.4637   19.0027 C   0  0  0  0  0  0  0  0  0  0  0  0
  -25.1051  -18.7065   16.5385 C   0  0  0  0  0  0  0  0  0  0  0  0
  -26.9880  -13.4762   20.4047 C   0  0  0  0  0  0  0  0  0  0  0  0
  -29.1976  -19.2738   21.5979 C   0  0  0  0  0  0  0  0  0  0  0  0
  -24.6548  -28.8159   20.3245 C   0  0  0  0  0  0  0  0  0  0  0  0
  -29.3264  -12.8118   20.4140 C   0  0  0  0  0  0  0  0  0  0  0  0
  -23.6018  -30.9066   20.1191 C   0  0  0  0  0  0  0  0  0  0  0  0
  -23.7093  -33.5725   19.3042 C   0  0  0  0  0  0  0  0  0  0  0  0
  -22.7007  -31.3815   19.1661 C   0  0  0  0  0  0  0  0  0  0  0  0
  -28.0915  -26.4285   19.7020 C   0  0  0  0  0  0  0  0  0  0  0  0
  -30.1531  -25.6711   19.5970 C   0  0  0  0  0  0  0  0  0  0  0  0
  -31.5515  -16.3616   22.0137 C   0  0  0  0  0  0  0  0  0  0  0  0
  -29.9690  -27.9945   20.5003 C   0  0  0  0  0  0  0  0  0  0  0  0
  -25.1797  -16.0685   19.1247 C   0  0  0  0  0  0  0  0  0  0  0  0
  -32.7181  -12.4358   20.3131 C   0  0  0  0  0  0  0  0  0  0  0  0
  -23.2644  -14.1736   20.9311 C   0  0  0  0  0  0  0  0  0  0  0  0
  -22.9727  -11.4521   22.9695 C   0  0  0  0  0  0  0  0  0  0  0  0
  -28.8062  -19.8644   19.1804 C   0  0  0  0  0  0  0  0  0  0  0  0
  -22.8937  -19.9565   16.7339 C   0  0  0  0  0  0  0  0  0  0  0  0
  -25.7466  -13.7808   18.2297 C   0  0  0  0  0  0  0  0  0  0  0  0
  -25.7515  -13.8349   21.1863 C   0  0  0  0  0  0  0  0  0  0  0  0
  -22.6938  -19.2177   18.0547 C   0  0  0  0  0  0  0  0  0  0  0  0
  -30.0347  -21.9575   16.5754 C   0  0  0  0  0  0  0  0  0  0  0  0
  -24.0182  -19.0898   18.8006 C   0  0  0  0  0  0  0  0  0  0  0  0
  -29.8032  -23.3734   17.1082 C   0  0  0  0  0  0  0  0  0  0  0  0
  -28.9067  -21.0088   16.9770 C   0  0  0  0  0  0  0  0  0  0  0  0
  -28.3757  -22.3894   18.9471 C   0  0  0  0  0  0  0  0  0  0  0  0
  -25.0330  -18.2768   17.9877 C   0  0  1  0  0  0  0  0  0  0  0  0
  -24.7558  -14.6309   19.0190 C   0  0  1  0  0  0  0  0  0  0  0  0
  -29.5182  -23.3658   18.6229 C   0  0  2  0  0  0  0  0  0  0  0  0
  -33.6959  -13.0446   19.3481 C   0  0  0  0  0  0  0  0  0  0  0  0
  -21.2884  -10.1769   24.3239 C   0  0  0  0  0  0  0  0  0  0  0  0
  -23.3419  -16.3479   23.0703 C   0  0  0  0  0  0  0  0  0  0  0  0
  -22.4771  -14.6667   24.7116 C   0  0  0  0  0  0  0  0  0  0  0  0
  -21.0977  -15.2977   22.7312 C   0  0  0  0  0  0  0  0  0  0  0  0
  -23.3895   -8.9889   21.3828 C   0  0  0  0  0  0  0  0  0  0  0  0
  -32.0497  -13.9484   22.1710 C   0  0  0  0  0  0  0  0  0  0  0  0
  -31.6079  -13.3100   20.8639 C   0  0  2  0  0  0  0  0  0  1  0  0
  -23.1521  -13.8608   22.4037 C   0  0  1  0  0  0  0  0  0  0  0  0
  -21.9835  -10.3006   22.9770 C   0  0  2  0  0  0  0  0  0  0  0  0
  -22.5412  -15.0384   23.2147 C   0  0  0  0  0  0  0  0  0  0  0  0
  -27.9700  -25.1959   19.2019 N   0  0  0  0  0  0  0  0  0  0  0  0
  -32.8640  -11.2042   20.6822 N   0  0  0  0  0  0  0  0  0  0  0  0
  -29.2407  -24.7613   19.1498 N   0  0  0  0  0  0  0  0  0  0  0  0
  -24.5554  -14.1433   20.3851 N   0  0  0  0  0  0  0  0  0  0  0  0
  -28.6964  -21.0515   18.4257 N   0  0  0  0  0  0  0  0  0  0  0  0
  -31.4748  -25.3969   19.6136 N   0  0  0  0  0  0  0  0  0  0  0  0
  -32.6645  -16.6385   21.3344 N   0  0  0  0  0  0  0  0  0  0  0  0
  -29.0844  -29.0312   20.8274 N   0  0  0  0  0  0  0  0  0  0  0  0
  -28.6179  -20.0336   20.5518 N   0  0  0  0  0  0  0  0  0  0  0  0
  -24.7401  -16.8627   18.0828 N   0  0  0  0  0  0  0  0  0  0  0  0
  -22.3993  -12.6149   22.5001 N   0  0  0  0  0  0  0  0  0  0  0  0
  -31.2207  -15.1308   22.4211 N   0  3  0  0  0  0  0  0  0  0  0  0
  -22.6819   -9.0160   22.6888 N   0  3  0  0  0  0  0  0  0  0  0  0
  -31.2009  -28.1635   20.6659 O   0  0  0  0  0  0  0  0  0  0  0  0
  -25.8544  -16.4307   20.0814 O   0  0  0  0  0  0  0  0  0  0  0  0
  -22.2434  -14.4282   20.2874 O   0  0  0  0  0  0  0  0  0  0  0  0
  -24.1365  -11.3330   23.3462 O   0  0  0  0  0  0  0  0  0  0  0  0
  -29.0761  -18.7825   18.6527 O   0  0  0  0  0  0  0  0  0  0  0  0
  -23.5491  -29.5838   20.5253 O   0  0  0  0  0  0  0  0  0  0  0  0
  -30.4577  -12.5000   21.1031 O   0  0  0  0  0  0  0  0  0  1  0  0
  -23.7601  -34.8529   18.9141 F   0  0  0  0  0  0  0  0  0  0  0  0
  -21.7804  -30.5621   18.6393 F   0  0  0  0  0  0  0  0  0  0  0  0
  1  2  1  0  0  0  0
  1  7  2  0  0  0  0
  2  8  2  0  0  0  0
  3  6  2  0  0  0  0
  3 10  1  0  0  0  0
  4 11  2  0  0  0  0
  4 19  1  0  0  0  0
  5 12  1  0  0  0  0
  5 19  2  0  0  0  0
  6 20  1  0  0  0  0
  7 22  1  0  0  0  0
  8 24  1  0  0  0  0
  9 13  2  0  0  0  0
  9 23  1  0  0  0  0
 10 26  2  0  0  0  0
 11 27  1  0  0  0  0
 12 27  2  0  0  0  0
 13 28  1  0  0  0  0
 14 15  2  0  0  0  0
 14 29  1  0  0  0  0
 15 30  1  0  0  0  0
 16 20  2  0  0  0  0
 16 26  1  0  0  0  0
 17 25  1  0  0  0  0
 17 28  2  0  0  0  0
 18 30  2  0  0  0  0
 18 31  1  0  0  0  0
 19 32  1  0  0  0  0
 20 34  1  0  0  0  0
 21 32  1  0  0  0  0
 21 33  2  0  0  0  0
 21 35  1  0  0  0  0
 22 24  2  0  0  0  0
 22 41  1  0  0  0  0
 23 25  2  0  0  0  0
 23 42  1  0  0  0  0
 24 50  1  0  0  0  0
 25 43  1  0  0  0  0
 26 72  1  0  0  0  0
 27 82  1  0  0  0  0
 28 83  1  0  0  0  0
 29 31  2  0  0  0  0
 29 82  1  0  0  0  0
 30 84  1  0  0  0  0
 31 85  1  0  0  0  0
 32 64  2  0  0  0  0
 33 66  1  0  0  0  0
 33 69  1  0  0  0  0
 34 70  1  0  0  0  0
 34 75  2  0  0  0  0
 35 71  1  0  0  0  0
 35 77  2  0  0  0  0
 36 51  1  0  0  0  0
 36 73  1  0  0  0  0
 36 78  2  0  0  0  0
 37 53  1  0  0  0  0
 37 60  1  0  0  0  0
 37 65  2  0  0  0  0
 38 61  1  0  0  0  0
 38 67  1  0  0  0  0
 38 79  2  0  0  0  0
 39 62  1  0  0  0  0
 39 74  1  0  0  0  0
 39 80  2  0  0  0  0
 40 68  1  0  0  0  0
 40 72  1  0  0  0  0
 40 81  2  0  0  0  0
 41 44  1  0  0  0  0
 42 51  1  0  0  0  0
 43 67  1  0  0  0  0
 44 46  1  0  0  0  0
 45 47  1  0  0  0  0
 45 48  1  0  0  0  0
 46 50  1  0  0  0  0
 47 52  1  0  0  0  0
 48 68  1  0  0  0  0
 49 52  1  0  0  0  0
 49 68  1  0  0  0  0
 50 73  1  0  0  0  0
 51 67  1  0  0  0  0
 52 66  1  0  0  0  0
 54 62  1  0  0  0  0
 55 63  1  0  0  0  0
 56 63  1  0  0  0  0
 57 63  1  0  0  0  0
 58 76  1  0  0  0  0
 59 60  1  0  0  0  0
 59 75  1  0  0  0  0
 60 83  1  0  0  0  0
 61 63  1  0  0  0  0
 61 74  1  0  0  0  0
 62 76  1  0  0  0  0
 64 66  1  0  0  0  0
M  CHG  2  75   1  76   1
M  ISO  4  40 100  60 101  72 100  83 101
M  END
> <Batch ID>
0160

> <Smiles>
CNC(C)C(=O)NC(C(=O)N1Cc2cc([101O:1][101CH:1](CNC(=N)c3cccc([100NH:0][100C:0](=O)N4CCCC(n5nc(-c6ccc(Oc7ccc(F)cc7F)cc6)c(C(N)=O)c5N)C4)c3)C(C)=N)ccc2CC1C(=O)NC1CCCc2ccccc21)C(C)(C)C

> <Shape>
0.258

> <Color>
0.066

> <Negative vol penalty>
0.000

$$$$

  -OEChem-04052303503D

 85 93  0     1  0  0  0  0  0999 V2000
  -17.9657  -26.5904   24.0598 C   0  0  0  0  0  0  0  0  0  0  0  0
  -19.2519  -26.0712   23.9523 C   0  0  0  0  0  0  0  0  0  0  0  0
  -23.1224   -9.7527   19.9876 C   0  0  0  0  0  0  0  0  0  0  0  0
  -23.6267  -10.0654   22.3296 C   0  0  0  0  0  0  0  0  0  0  0  0
  -17.6141  -27.7329   23.3421 C   0  0  0  0  0  0  0  0  0  0  0  0
  -20.1870  -26.6937   23.1261 C   0  0  0  0  0  0  0  0  0  0  0  0
  -24.7225  -27.1579   25.3303 C   0  0  0  0  0  0  0  0  0  0  0  0
  -22.3727   -8.6188   20.3004 C   0  0  0  0  0  0  0  0  0  0  0  0
  -22.8770   -8.9315   22.6425 C   0  0  0  0  0  0  0  0  0  0  0  0
  -25.5286  -26.0212   25.3740 C   0  0  0  0  0  0  0  0  0  0  0  0
  -23.2760   -5.5756   22.5433 C   0  0  0  0  0  0  0  0  0  0  0  0
  -23.8243   -4.6651   23.4466 C   0  0  0  0  0  0  0  0  0  0  0  0
  -26.7768  -26.8408   23.4794 C   0  0  0  0  0  0  0  0  0  0  0  0
  -29.4226  -17.8700   22.9083 C   0  0  0  0  0  0  0  0  0  0  0  0
  -31.6703  -17.0176   22.6668 C   0  0  0  0  0  0  0  0  0  0  0  0
  -31.2547  -18.9531   24.0518 C   0  0  0  0  0  0  0  0  0  0  0  0
  -21.9441   -5.0006   24.9262 C   0  0  0  0  0  0  0  0  0  0  0  0
  -23.7495  -10.4759   21.0022 C   0  0  0  0  0  0  0  0  0  0  0  0
  -24.0652  -12.9754   20.6014 C   0  0  0  0  0  0  0  0  0  0  0  0
  -18.5482  -28.3752   22.5142 C   0  0  0  0  0  0  0  0  0  0  0  0
  -24.9310  -28.1411   24.3524 C   0  0  0  0  0  0  0  0  0  0  0  0
  -19.8472  -27.8451   22.3956 C   0  0  0  0  0  0  0  0  0  0  0  0
  -25.9737  -27.9903   23.4271 C   0  0  0  0  0  0  0  0  0  0  0  0
  -30.3104  -16.9408   22.3661 C   0  0  0  0  0  0  0  0  0  0  0  0
  -29.8948  -18.8763   23.7511 C   0  0  0  0  0  0  0  0  0  0  0  0
  -22.2500   -8.2082   21.6278 C   0  0  0  0  0  0  0  0  0  0  0  0
  -26.5540  -25.8611   24.4467 C   0  0  0  0  0  0  0  0  0  0  0  0
  -22.0617   -6.1988   22.8316 C   0  0  0  0  0  0  0  0  0  0  0  0
  -23.1583   -4.3775   24.6380 C   0  0  0  0  0  0  0  0  0  0  0  0
  -32.1424  -18.0238   23.5097 C   0  0  0  0  0  0  0  0  0  0  0  0
  -21.3958   -5.9112   24.0230 C   0  0  0  0  0  0  0  0  0  0  0  0
  -24.5245  -11.6470   20.6796 C   0  0  0  0  0  0  0  0  0  0  0  0
  -25.1794  -13.7047   20.2649 C   0  0  0  0  0  0  0  0  0  0  0  0
  -25.9892  -20.7871   25.6517 C   0  0  0  0  0  0  0  0  0  0  0  0
  -22.7490  -13.5030   20.8139 C   0  0  0  0  0  0  0  0  0  0  0  0
  -26.9494  -20.9628   24.7320 C   0  0  0  0  0  0  0  0  0  0  0  0
  -27.3970  -22.3417   24.3307 C   0  0  0  0  0  0  0  0  0  0  0  0
  -23.2006  -29.3368   21.9691 C   0  0  0  0  0  0  0  0  0  0  0  0
  -25.6930  -31.3968   21.7109 C   0  0  0  0  0  0  0  0  0  0  0  0
  -28.9982  -32.0311   22.2771 C   0  0  0  0  0  0  0  0  0  0  0  0
  -30.5777  -14.9183   20.8881 C   0  0  0  0  0  0  0  0  0  0  0  0
  -18.1078  -29.5803   21.7214 C   0  0  0  0  0  0  0  0  0  0  0  0
  -24.0699  -29.3742   24.3353 C   0  0  0  0  0  0  0  0  0  0  0  0
  -26.2518  -29.0264   22.3699 C   0  0  0  0  0  0  0  0  0  0  0  0
  -19.2685  -30.3963   21.1582 C   0  0  0  0  0  0  0  0  0  0  0  0
  -29.7646  -12.1990   18.7384 C   0  0  0  0  0  0  0  0  0  0  0  0
  -20.2987  -29.4796   20.5061 C   0  0  0  0  0  0  0  0  0  0  0  0
  -28.2910  -11.9222   19.0454 C   0  0  0  0  0  0  0  0  0  0  0  0
  -30.5393  -12.6008   19.9923 C   0  0  0  0  0  0  0  0  0  0  0  0
  -28.4823  -13.4365   21.0596 C   0  0  0  0  0  0  0  0  0  0  0  0
  -20.8969  -28.5062   21.5290 C   0  0  1  0  0  0  0  0  0  0  0  0
  -24.0442  -30.0663   22.9760 C   0  0  1  0  0  0  0  0  0  0  0  0
  -27.6468  -13.0911   19.8162 C   0  0  2  0  0  0  0  0  0  0  0  0
  -30.7566  -33.7855   21.9205 C   0  0  0  0  0  0  0  0  0  0  0  0
  -25.8690  -30.6185   18.7659 C   0  0  0  0  0  0  0  0  0  0  0  0
  -28.1576  -31.6320   18.7067 C   0  0  0  0  0  0  0  0  0  0  0  0
  -26.1767  -33.0585   19.2203 C   0  0  0  0  0  0  0  0  0  0  0  0
  -29.4556  -32.3291   25.1858 C   0  0  0  0  0  0  0  0  0  0  0  0
  -27.5924  -19.7956   24.0333 C   0  0  0  0  0  0  0  0  0  0  0  0
  -26.7487  -23.5516   24.9797 C   0  0  0  0  0  0  0  0  0  1  0  0
  -26.9970  -31.4073   20.9502 C   0  0  1  0  0  0  0  0  0  0  0  0
  -29.7052  -33.2355   22.8718 C   0  0  2  0  0  0  0  0  0  0  0  0
  -26.7938  -31.6584   19.4293 C   0  0  0  0  0  0  0  0  0  0  0  0
  -25.8288  -11.5359   20.4141 N   0  0  0  0  0  0  0  0  0  0  0  0
  -26.1985  -12.8038   20.1656 N   0  0  0  0  0  0  0  0  0  0  0  0
  -25.3784  -30.2114   22.3904 N   0  0  0  0  0  0  0  0  0  0  0  0
  -29.8726  -13.7162   20.6678 N   0  0  0  0  0  0  0  0  0  0  0  0
  -25.3769  -15.0223   20.0472 N   0  0  0  0  0  0  0  0  0  0  0  0
  -21.7198  -12.6143   21.1534 N   0  0  0  0  0  0  0  0  0  0  0  0
  -29.8311  -15.9189   21.5094 N   0  0  0  0  0  0  0  0  0  0  0  0
  -29.0131  -19.7997   24.2899 N   0  0  0  0  0  0  0  0  0  0  0  0
  -21.8818  -29.1777   22.3496 N   0  0  0  0  0  0  0  0  0  0  0  0
  -27.8467  -32.3926   21.6103 N   0  0  0  0  0  0  0  0  0  0  0  0
  -30.3761  -32.8637   24.1496 N   0  3  0  0  0  0  0  0  0  0  0  0
  -22.4898  -14.7240   20.6898 O   0  0  0  0  0  0  0  0  0  0  0  0
  -28.2816  -22.4744   23.4834 O   0  0  0  0  0  0  0  0  0  0  0  0
  -23.7084  -28.9483   20.9236 O   0  0  0  0  0  0  0  0  0  0  0  0
  -24.9833  -32.4057   21.7084 O   0  0  0  0  0  0  0  0  0  0  0  0
  -29.4266  -30.8846   22.3894 O   0  0  0  0  0  0  0  0  0  0  0  0
  -31.7485  -15.0597   20.5260 O   0  0  0  0  0  0  0  0  0  0  0  0
  -21.5183   -7.1020   21.9335 O   0  0  0  0  0  0  0  0  0  0  0  0
  -27.3418  -24.7522   24.4867 O   0  0  0  0  0  0  0  0  0  1  0  0
  -23.6842   -3.5019   25.5045 F   0  0  0  0  0  0  0  0  0  0  0  0
  -33.4484  -18.0981   23.7982 F   0  0  0  0  0  0  0  0  0  0  0  0
  -20.2284   -6.5058   24.3049 F   0  0  0  0  0  0  0  0  0  0  0  0
  1  2  1  0  0  0  0
  1  5  2  0  0  0  0
  2  6  2  0  0  0  0
  3  8  2  0  0  0  0
  3 18  1  0  0  0  0
  4  9  1  0  0  0  0
  4 18  2  0  0  0  0
  5 20  1  0  0  0  0
  6 22  1  0  0  0  0
  7 10  2  0  0  0  0
  7 21  1  0  0  0  0
  8 26  1  0  0  0  0
  9 26  2  0  0  0  0
 10 27  1  0  0  0  0
 11 12  2  0  0  0  0
 11 28  1  0  0  0  0
 12 29  1  0  0  0  0
 13 23  1  0  0  0  0
 13 27  2  0  0  0  0
 14 24  1  0  0  0  0
 14 25  2  0  0  0  0
 15 24  2  0  0  0  0
 15 30  1  0  0  0  0
 16 25  1  0  0  0  0
 16 30  2  0  0  0  0
 17 29  2  0  0  0  0
 17 31  1  0  0  0  0
 18 32  1  0  0  0  0
 19 32  1  0  0  0  0
 19 33  2  0  0  0  0
 19 35  1  0  0  0  0
 20 22  2  0  0  0  0
 20 42  1  0  0  0  0
 21 23  2  0  0  0  0
 21 43  1  0  0  0  0
 22 51  1  0  0  0  0
 23 44  1  0  0  0  0
 24 70  1  0  0  0  0
 25 71  1  0  0  0  0
 26 81  1  0  0  0  0
 27 82  1  0  0  0  0
 28 31  2  0  0  0  0
 28 81  1  0  0  0  0
 29 83  1  0  0  0  0
 30 84  1  0  0  0  0
 31 85  1  0  0  0  0
 32 64  2  0  0  0  0
 33 65  1  0  0  0  0
 33 68  1  0  0  0  0
 34 36  2  0  0  0  0
 35 69  1  0  0  0  0
 35 75  2  0  0  0  0
 36 37  1  0  0  0  0
 36 59  1  0  0  0  0
 37 60  1  0  0  0  0
 37 76  2  0  0  0  0
 38 52  1  0  0  0  0
 38 72  1  0  0  0  0
 38 77  2  0  0  0  0
 39 61  1  0  0  0  0
 39 66  1  0  0  0  0
 39 78  2  0  0  0  0
 40 62  1  0  0  0  0
 40 73  1  0  0  0  0
 40 79  2  0  0  0  0
 41 67  1  0  0  0  0
 41 70  1  0  0  0  0
 41 80  2  0  0  0  0
 42 45  1  0  0  0  0
 43 52  1  0  0  0  0
 44 66  1  0  0  0  0
 45 47  1  0  0  0  0
 46 48  1  0  0  0  0
 46 49  1  0  0  0  0
 47 51  1  0  0  0  0
 48 53  1  0  0  0  0
 49 67  1  0  0  0  0
 50 53  1  0  0  0  0
 50 67  1  0  0  0  0
 51 72  1  0  0  0  0
 52 66  1  0  0  0  0
 53 65  1  0  0  0  0
 54 62  1  0  0  0  0
 55 63  1  0  0  0  0
 56 63  1  0  0  0  0
 57 63  1  0  0  0  0
 58 74  1  0  0  0  0
 59 71  1  0  0  0  0
 60 82  1  0  0  0  0
 61 63  1  0  0  0  0
 61 73  1  0  0  0  0
 62 74  1  0  0  0  0
 64 65  1  0  0  0  0
M  CHG  1  74   1
M  ISO  4  41 100  60 101  70 100  82 101
M  END
> <Batch ID>
0160

> <Smiles>
C=C(CNc1cc(F)cc([100NH:0][100C:0](=O)N2CCCC(n3nc(-c4ccc(Oc5ccc(F)cc5F)cc4)c(C(N)=O)c3N)C2)c1)C(=O)[101CH2:1][101O:1]c1ccc2c(c1)CN(C(=O)C(NC(=O)C(C)NC)C(C)(C)C)C(C(=O)NC1CCCc3ccccc31)C2

> <Shape>
0.281

> <Color>
0.211

> <Negative vol penalty>
0.000

$$$$

  -OEChem-04052303503D

 87 96  0     1  0  0  0  0  0999 V2000
  -18.5033  -28.6723   22.9797 C   0  0  0  0  0  0  0  0  0  0  0  0
  -19.8792  -28.7488   22.7890 C   0  0  0  0  0  0  0  0  0  0  0  0
  -26.4669  -12.8916   21.5806 C   0  0  0  0  0  0  0  0  0  0  0  0
  -26.1147  -13.7844   19.3634 C   0  0  0  0  0  0  0  0  0  0  0  0
  -17.8558  -27.4406   22.8913 C   0  0  0  0  0  0  0  0  0  0  0  0
  -20.6087  -27.5934   22.5108 C   0  0  0  0  0  0  0  0  0  0  0  0
  -25.5241  -27.1262   18.8878 C   0  0  0  0  0  0  0  0  0  0  0  0
  -25.2072  -12.2941   21.5401 C   0  0  0  0  0  0  0  0  0  0  0  0
  -24.8550  -13.1868   19.3229 C   0  0  0  0  0  0  0  0  0  0  0  0
  -26.8909  -27.0944   19.1608 C   0  0  0  0  0  0  0  0  0  0  0  0
  -23.7978   -9.5436   20.1684 C   0  0  0  0  0  0  0  0  0  0  0  0
  -23.6929   -8.2224   20.6031 C   0  0  0  0  0  0  0  0  0  0  0  0
  -31.2779  -22.4051   16.0882 C   0  0  0  0  0  0  0  0  0  0  0  0
  -31.2406  -22.0283   18.4743 C   0  0  0  0  0  0  0  0  0  0  0  0
  -26.8412  -24.6834   19.0979 C   0  0  0  0  0  0  0  0  0  0  0  0
  -29.6810  -20.8639   17.0430 C   0  0  0  0  0  0  0  0  0  0  0  0
  -22.1268   -8.9085   22.3101 C   0  0  0  0  0  0  0  0  0  0  0  0
  -26.9207  -13.6368   20.4922 C   0  0  0  0  0  0  0  0  0  0  0  0
  -31.7853  -22.6677   17.3607 C   0  0  0  0  0  0  0  0  0  0  0  0
  -29.4428  -13.6943   20.1137 C   0  0  0  0  0  0  0  0  0  0  0  0
  -18.5764  -26.2710   22.6023 C   0  0  0  0  0  0  0  0  0  0  0  0
  -24.8022  -25.9347   18.7284 C   0  0  0  0  0  0  0  0  0  0  0  0
  -19.9705  -26.3448   22.4197 C   0  0  0  0  0  0  0  0  0  0  0  0
  -25.4658  -24.7029   18.8205 C   0  0  0  0  0  0  0  0  0  0  0  0
  -30.2257  -21.5032   15.9294 C   0  0  0  0  0  0  0  0  0  0  0  0
  -30.1884  -21.1264   18.3155 C   0  0  0  0  0  0  0  0  0  0  0  0
  -24.4013  -12.4416   20.4113 C   0  0  0  0  0  0  0  0  0  0  0  0
  -27.5491  -25.8728   19.2688 C   0  0  0  0  0  0  0  0  0  0  0  0
  -23.0674  -10.5473   20.8046 C   0  0  0  0  0  0  0  0  0  0  0  0
  -22.8573   -7.9049   21.6739 C   0  0  0  0  0  0  0  0  0  0  0  0
  -22.2318  -10.2298   21.8754 C   0  0  0  0  0  0  0  0  0  0  0  0
  -28.2216  -14.2548   20.5336 C   0  0  0  0  0  0  0  0  0  0  0  0
  -30.3731  -14.6744   20.3597 C   0  0  0  0  0  0  0  0  0  0  0  0
  -32.1221  -27.0127   19.4589 C   0  0  0  0  0  0  0  0  0  0  0  0
  -31.0738  -26.4819   18.8051 C   0  0  0  0  0  0  0  0  0  0  0  0
  -32.8971  -23.6206   17.5287 C   0  0  0  0  0  0  0  0  0  0  0  0
  -29.7122  -12.4031   19.5516 C   0  0  0  0  0  0  0  0  0  0  0  0
  -22.3746  -24.5616   20.2533 C   0  0  0  0  0  0  0  0  0  0  0  0
  -22.5597  -22.4277   17.8172 C   0  0  0  0  0  0  0  0  0  0  0  0
  -24.4522  -20.9703   15.3798 C   0  0  0  0  0  0  0  0  0  0  0  0
  -30.0205  -20.6246   20.7785 C   0  0  0  0  0  0  0  0  0  0  0  0
  -17.8397  -24.9555   22.5635 C   0  0  0  0  0  0  0  0  0  0  0  0
  -23.3335  -25.9866   18.4078 C   0  0  0  0  0  0  0  0  0  0  0  0
  -24.7403  -23.3957   18.6376 C   0  0  0  0  0  0  0  0  0  0  0  0
  -33.5426  -26.6027   19.2095 C   0  0  0  0  0  0  0  0  0  0  0  0
  -31.2322  -25.3870   17.7815 C   0  0  0  0  0  0  0  0  0  0  0  0
  -18.6305  -23.8341   21.8946 C   0  0  0  0  0  0  0  0  0  0  0  0
  -31.2265  -18.3825   23.2676 C   0  0  0  0  0  0  0  0  0  0  0  0
  -20.0640  -23.8077   22.4154 C   0  0  0  0  0  0  0  0  0  0  0  0
  -30.7091  -17.0177   22.8075 C   0  0  0  0  0  0  0  0  0  0  0  0
  -33.7140  -25.8919   17.8740 C   0  0  0  0  0  0  0  0  0  0  0  0
  -30.2199  -19.4959   22.9833 C   0  0  0  0  0  0  0  0  0  0  0  0
  -29.2315  -18.2025   21.1342 C   0  0  0  0  0  0  0  0  0  0  0  0
  -20.7928  -25.1175   22.0917 C   0  0  1  0  0  0  0  0  0  0  0  0
  -22.5963  -24.7021   18.7738 C   0  0  1  0  0  0  0  0  0  0  0  0
  -30.2381  -17.0589   21.3405 C   0  0  2  0  0  0  0  0  0  0  0  0
  -24.3391  -19.2327   13.5728 C   0  0  0  0  0  0  0  0  0  0  0  0
  -22.7446  -20.2282   19.9239 C   0  0  0  0  0  0  0  0  0  0  0  0
  -23.5704  -18.6819   18.1365 C   0  0  0  0  0  0  0  0  0  0  0  0
  -21.2896  -19.6776   17.9658 C   0  0  0  0  0  0  0  0  0  0  0  0
  -25.0351  -22.9609   13.2687 C   0  0  0  0  0  0  0  0  0  0  0  0
  -29.6674  -26.9348   19.0667 C   0  0  0  0  0  0  0  0  0  1  0  0
  -23.3136  -21.1420   17.5772 C   0  0  1  0  0  0  0  0  0  0  0  0
  -24.1737  -20.7061   13.9111 C   0  0  2  0  0  0  0  0  0  0  0  0
  -22.7431  -19.9568   18.4063 C   0  0  0  0  0  0  0  0  0  0  0  0
  -28.3603  -15.4948   21.0103 N   0  0  0  0  0  0  0  0  0  0  0  0
  -29.6796  -15.7215   20.8915 N   0  0  0  0  0  0  0  0  0  0  0  0
  -32.6302  -24.9046   17.7273 N   0  0  0  0  0  0  0  0  0  0  0  0
  -23.3039  -23.4987   18.3319 N   0  0  0  0  0  0  0  0  0  0  0  0
  -29.8225  -19.4761   21.5739 N   0  0  0  0  0  0  0  0  0  0  0  0
  -29.7122  -21.2381   14.6428 N   0  0  0  0  0  0  0  0  0  0  0  0
  -31.7084  -14.7340   20.1708 N   0  0  0  0  0  0  0  0  0  0  0  0
  -28.6410  -11.5184   19.3663 N   0  0  0  0  0  0  0  0  0  0  0  0
  -29.6346  -20.4771   19.4466 N   0  0  0  0  0  0  0  0  0  0  0  0
  -21.2024  -25.1383   20.7038 N   0  0  0  0  0  0  0  0  0  0  0  0
  -23.2994  -20.9237   16.1348 N   0  0  0  0  0  0  0  0  0  0  0  0
  -34.1500  -23.1779   17.4803 N   0  3  0  0  0  0  0  0  0  0  0  0
  -25.1083  -21.4922   13.0571 N   0  3  0  0  0  0  0  0  0  0  0  0
  -30.8708  -12.0384   19.2385 O   0  0  0  0  0  0  0  0  0  0  0  0
  -23.2048  -23.9724   20.9353 O   0  0  0  0  0  0  0  0  0  0  0  0
  -21.3564  -22.4819   17.5510 O   0  0  0  0  0  0  0  0  0  0  0  0
  -25.5803  -21.1918   15.8145 O   0  0  0  0  0  0  0  0  0  0  0  0
  -30.5223  -21.6537   21.2381 O   0  0  0  0  0  0  0  0  0  0  0  0
  -23.1721  -11.8584   20.3714 O   0  0  0  0  0  0  0  0  0  0  0  0
  -28.8831  -25.8389   19.5358 O   0  0  0  0  0  0  0  0  0  1  0  0
  -22.7554   -6.6358   22.0902 F   0  0  0  0  0  0  0  0  0  0  0  0
  -21.5266  -11.1895   22.4898 F   0  0  0  0  0  0  0  0  0  0  0  0
  1  2  1  0  0  0  0
  1  5  2  0  0  0  0
  2  6  2  0  0  0  0
  3  8  2  0  0  0  0
  3 18  1  0  0  0  0
  4  9  1  0  0  0  0
  4 18  2  0  0  0  0
  5 21  1  0  0  0  0
  6 23  1  0  0  0  0
  7 10  2  0  0  0  0
  7 22  1  0  0  0  0
  8 27  1  0  0  0  0
  9 27  2  0  0  0  0
 10 28  1  0  0  0  0
 11 12  2  0  0  0  0
 11 29  1  0  0  0  0
 12 30  1  0  0  0  0
 13 19  1  0  0  0  0
 13 25  2  0  0  0  0
 14 19  2  0  0  0  0
 14 26  1  0  0  0  0
 15 24  1  0  0  0  0
 15 28  2  0  0  0  0
 16 25  1  0  0  0  0
 16 26  2  0  0  0  0
 17 30  2  0  0  0  0
 17 31  1  0  0  0  0
 18 32  1  0  0  0  0
 19 36  1  0  0  0  0
 20 32  1  0  0  0  0
 20 33  2  0  0  0  0
 20 37  1  0  0  0  0
 21 23  2  0  0  0  0
 21 42  1  0  0  0  0
 22 24  2  0  0  0  0
 22 43  1  0  0  0  0
 23 54  1  0  0  0  0
 24 44  1  0  0  0  0
 25 71  1  0  0  0  0
 26 74  1  0  0  0  0
 27 84  1  0  0  0  0
 28 85  1  0  0  0  0
 29 31  2  0  0  0  0
 29 84  1  0  0  0  0
 30 86  1  0  0  0  0
 31 87  1  0  0  0  0
 32 66  2  0  0  0  0
 33 67  1  0  0  0  0
 33 72  1  0  0  0  0
 34 35  2  0  0  0  0
 34 45  1  0  0  0  0
 35 46  1  0  0  0  0
 35 62  1  0  0  0  0
 36 68  1  0  0  0  0
 36 77  2  0  0  0  0
 37 73  1  0  0  0  0
 37 79  2  0  0  0  0
 38 55  1  0  0  0  0
 38 75  1  0  0  0  0
 38 80  2  0  0  0  0
 39 63  1  0  0  0  0
 39 69  1  0  0  0  0
 39 81  2  0  0  0  0
 40 64  1  0  0  0  0
 40 76  1  0  0  0  0
 40 82  2  0  0  0  0
 41 70  1  0  0  0  0
 41 74  1  0  0  0  0
 41 83  2  0  0  0  0
 42 47  1  0  0  0  0
 43 55  1  0  0  0  0
 44 69  1  0  0  0  0
 45 51  1  0  0  0  0
 46 68  1  0  0  0  0
 47 49  1  0  0  0  0
 48 50  1  0  0  0  0
 48 52  1  0  0  0  0
 49 54  1  0  0  0  0
 50 56  1  0  0  0  0
 51 68  1  0  0  0  0
 52 70  1  0  0  0  0
 53 56  1  0  0  0  0
 53 70  1  0  0  0  0
 54 75  1  0  0  0  0
 55 69  1  0  0  0  0
 56 67  1  0  0  0  0
 57 64  1  0  0  0  0
 58 65  1  0  0  0  0
 59 65  1  0  0  0  0
 60 65  1  0  0  0  0
 61 78  1  0  0  0  0
 62 85  1  0  0  0  0
 63 65  1  0  0  0  0
 63 76  1  0  0  0  0
 64 78  1  0  0  0  0
 66 67  1  0  0  0  0
M  CHG  2  77   1  78   1
M  ISO  4  41 100  62 101  74 100  85 101
M  END
> <Batch ID>
0160

> <Smiles>
CNC(C)C(=O)NC(C(=O)N1Cc2cc([101O:1][101CH2:1]C3=CCCN(C(=N)c4cc(N)cc([100NH:0][100C:0](=O)N5CCCC(n6nc(-c7ccc(Oc8ccc(F)cc8F)cc7)c(C(N)=O)c6N)C5)c4)C3)ccc2CC1C(=O)NC1CCCc2ccccc21)C(C)(C)C

> <Shape>
0.240

> <Color>
0.071

> <Negative vol penalty>
0.000

$$$$

  -OEChem-04052303503D

 85 93  0     1  0  0  0  0  0999 V2000
  -24.2084  -11.2700   20.2966 C   0  0  0  0  0  0  0  0  0  0  0  0
  -23.6020  -12.4738   20.6406 C   0  0  0  0  0  0  0  0  0  0  0  0
  -31.2052  -30.7658   21.5147 C   0  0  0  0  0  0  0  0  0  0  0  0
  -30.7979  -29.0859   23.2027 C   0  0  0  0  0  0  0  0  0  0  0  0
  -25.5973  -11.1540   20.3367 C   0  0  0  0  0  0  0  0  0  0  0  0
  -24.3840  -13.5621   21.0260 C   0  0  0  0  0  0  0  0  0  0  0  0
  -23.2640  -19.4789   19.9111 C   0  0  0  0  0  0  0  0  0  0  0  0
  -32.3235  -31.2061   22.2227 C   0  0  0  0  0  0  0  0  0  0  0  0
  -31.9161  -29.5262   23.9107 C   0  0  0  0  0  0  0  0  0  0  0  0
  -22.6997  -20.4894   20.6884 C   0  0  0  0  0  0  0  0  0  0  0  0
  -34.8725  -29.9724   25.9793 C   0  0  0  0  0  0  0  0  0  0  0  0
  -35.7458  -29.0067   26.4796 C   0  0  0  0  0  0  0  0  0  0  0  0
  -24.9071  -21.2165   21.3349 C   0  0  0  0  0  0  0  0  0  0  0  0
  -18.6458  -26.7238   21.6217 C   0  0  0  0  0  0  0  0  0  0  0  0
  -36.1480  -28.2076   24.2353 C   0  0  0  0  0  0  0  0  0  0  0  0
  -30.4424  -29.7057   22.0047 C   0  0  0  0  0  0  0  0  0  0  0  0
  -29.2482  -28.2579   20.2769 C   0  0  0  0  0  0  0  0  0  0  0  0
  -26.3972  -12.2443   20.7134 C   0  0  0  0  0  0  0  0  0  0  0  0
  -24.6562  -19.3225   19.8484 C   0  0  0  0  0  0  0  0  0  0  0  0
  -25.7848  -13.4602   21.0724 C   0  0  0  0  0  0  0  0  0  0  0  0
  -25.4867  -20.2049   20.5540 C   0  0  0  0  0  0  0  0  0  0  0  0
  -18.6963  -28.0485   22.1176 C   0  0  0  0  0  0  0  0  0  0  0  0
  -32.6789  -30.5863   23.4207 C   0  0  0  0  0  0  0  0  0  0  0  0
  -23.5212  -21.3566   21.4027 C   0  0  0  0  0  0  0  0  0  0  0  0
  -34.6369  -30.0557   24.6069 C   0  0  0  0  0  0  0  0  0  0  0  0
  -36.3836  -28.1243   25.6076 C   0  0  0  0  0  0  0  0  0  0  0  0
  -35.2747  -29.1733   23.7350 C   0  0  0  0  0  0  0  0  0  0  0  0
  -29.2868  -29.2508   21.2741 C   0  0  0  0  0  0  0  0  0  0  0  0
  -19.9133  -28.1748   22.7461 C   0  0  0  0  0  0  0  0  0  0  0  0
  -27.9283  -28.1995   19.9014 C   0  0  0  0  0  0  0  0  0  0  0  0
  -19.8355  -26.1352   21.9824 C   0  0  0  0  0  0  0  0  0  0  0  0
  -30.3104  -27.4597   19.7382 C   0  0  0  0  0  0  0  0  0  0  0  0
  -26.6927  -17.0166   20.6478 C   0  0  0  0  0  0  0  0  0  0  0  0
  -28.8582  -18.9738   19.2328 C   0  0  0  0  0  0  0  0  0  0  0  0
  -21.5704  -24.3217   22.1702 C   0  0  0  0  0  0  0  0  0  0  0  0
  -29.7153  -22.1356   18.2762 C   0  0  0  0  0  0  0  0  0  0  0  0
  -22.9540  -29.5218   22.7935 C   0  0  0  0  0  0  0  0  0  0  0  0
  -27.8919  -12.0568   20.7872 C   0  0  0  0  0  0  0  0  0  0  0  0
  -25.2500  -18.2442   18.9841 C   0  0  0  0  0  0  0  0  0  0  0  0
  -26.9877  -20.0921   20.5041 C   0  0  0  0  0  0  0  0  0  0  0  0
  -28.6684  -13.3698   20.8455 C   0  0  0  0  0  0  0  0  0  0  0  0
  -23.9928  -30.9083   19.6160 C   0  0  0  0  0  0  0  0  0  0  0  0
  -28.0402  -14.3167   21.8631 C   0  0  0  0  0  0  0  0  0  0  0  0
  -25.4770  -30.5387   19.5935 C   0  0  0  0  0  0  0  0  0  0  0  0
  -23.5386  -31.2868   21.0226 C   0  0  0  0  0  0  0  0  0  0  0  0
  -25.2870  -29.8762   22.0358 C   0  0  0  0  0  0  0  0  0  0  0  0
  -26.6003  -14.6707   21.4718 C   0  0  1  0  0  0  0  0  0  0  0  0
  -26.6649  -17.8555   19.4015 C   0  0  1  0  0  0  0  0  0  0  0  0
  -25.8023  -29.4618   20.6456 C   0  0  2  0  0  0  0  0  0  0  0  0
  -31.5637  -23.4278   17.1758 C   0  0  0  0  0  0  0  0  0  0  0  0
  -30.5004  -18.8054   21.7989 C   0  0  0  0  0  0  0  0  0  0  0  0
  -31.7900  -20.8059   21.0223 C   0  0  0  0  0  0  0  0  0  0  0  0
  -31.8432  -18.6964   19.6920 C   0  0  0  0  0  0  0  0  0  0  0  0
  -27.9491  -23.0046   16.0662 C   0  0  0  0  0  0  0  0  0  0  0  0
  -20.5741  -29.2820   23.4533 C   0  0  0  0  0  0  0  0  0  0  0  0
  -21.7224  -22.8775   21.7301 C   0  0  0  0  0  0  0  0  0  1  0  0
  -29.7432  -20.1041   19.6999 C   0  0  1  0  0  0  0  0  0  0  0  0
  -30.2562  -22.6799   16.9664 C   0  0  2  0  0  0  0  0  0  0  0  0
  -17.6525  -29.0809   21.9851 C   0  0  0  0  0  0  0  0  0  0  0  0
  -30.9409  -19.6041   20.5560 C   0  0  0  0  0  0  0  0  0  0  0  0
  -28.0868  -29.7849   21.5167 N   0  0  0  0  0  0  0  0  0  0  0  0
  -27.2818  -29.1252   20.6665 N   0  0  0  0  0  0  0  0  0  0  0  0
  -27.5203  -19.0177   19.6500 N   0  0  0  0  0  0  0  0  0  0  0  0
  -23.8607  -30.2121   21.9720 N   0  0  0  0  0  0  0  0  0  0  0  0
  -27.2693  -27.4472   18.9947 N   0  0  0  0  0  0  0  0  0  0  0  0
  -31.6066  -27.6478   20.2371 N   0  0  0  0  0  0  0  0  0  0  0  0
  -20.3427  -24.8325   21.7629 N   0  0  0  0  0  0  0  0  0  0  0  0
  -26.5923  -15.6584   20.4141 N   0  0  0  0  0  0  0  0  0  0  0  0
  -30.1313  -20.8405   18.5017 N   0  0  0  0  0  0  0  0  0  0  0  0
  -21.6234  -29.9049   22.6775 N   0  0  0  0  0  0  0  0  0  0  0  0
  -29.2737  -23.6149   16.3489 N   0  3  0  0  0  0  0  0  0  0  0  0
  -30.1187  -26.6165   18.8295 O   0  0  0  0  0  0  0  0  0  0  0  0
  -26.7988  -17.5612   21.7404 O   0  0  0  0  0  0  0  0  0  0  0  0
  -29.3346  -18.0885   18.5181 O   0  0  0  0  0  0  0  0  0  0  0  0
  -22.4526  -24.8984   22.7977 O   0  0  0  0  0  0  0  0  0  0  0  0
  -28.9988  -22.7948   19.0263 O   0  0  0  0  0  0  0  0  0  0  0  0
  -23.3037  -28.6259   23.5695 O   0  0  0  0  0  0  0  0  0  0  0  0
  -20.6138  -27.0130   22.6681 O   0  0  0  0  0  0  0  0  0  0  0  0
  -33.7702  -31.0155   24.1117 O   0  0  0  0  0  0  0  0  0  0  0  0
  -22.9730  -22.3434   22.1627 O   0  0  0  0  0  0  0  0  0  1  0  0
  -37.2234  -27.1980   26.0881 F   0  0  0  0  0  0  0  0  0  0  0  0
  -35.0532  -29.2493   22.4155 F   0  0  0  0  0  0  0  0  0  0  0  0
  -16.5344  -28.6693   21.3028 F   0  0  0  0  0  0  0  0  0  0  0  0
  -17.1679  -29.5497   23.1810 F   0  0  0  0  0  0  0  0  0  0  0  0
  -18.0786  -30.2003   21.3166 F   0  0  0  0  0  0  0  0  0  0  0  0
  1  2  1  0  0  0  0
  1  5  2  0  0  0  0
  2  6  2  0  0  0  0
  3  8  2  0  0  0  0
  3 16  1  0  0  0  0
  4  9  1  0  0  0  0
  4 16  2  0  0  0  0
  5 18  1  0  0  0  0
  6 20  1  0  0  0  0
  7 10  2  0  0  0  0
  7 19  1  0  0  0  0
  8 23  1  0  0  0  0
  9 23  2  0  0  0  0
 10 24  1  0  0  0  0
 11 12  2  0  0  0  0
 11 25  1  0  0  0  0
 12 26  1  0  0  0  0
 13 21  1  0  0  0  0
 13 24  2  0  0  0  0
 14 22  1  0  0  0  0
 14 31  2  0  0  0  0
 15 26  2  0  0  0  0
 15 27  1  0  0  0  0
 16 28  1  0  0  0  0
 17 28  1  0  0  0  0
 17 30  2  0  0  0  0
 17 32  1  0  0  0  0
 18 20  2  0  0  0  0
 18 38  1  0  0  0  0
 19 21  2  0  0  0  0
 19 39  1  0  0  0  0
 20 47  1  0  0  0  0
 21 40  1  0  0  0  0
 22 29  2  0  0  0  0
 22 59  1  0  0  0  0
 23 79  1  0  0  0  0
 24 80  1  0  0  0  0
 25 27  2  0  0  0  0
 25 79  1  0  0  0  0
 26 81  1  0  0  0  0
 27 82  1  0  0  0  0
 28 61  2  0  0  0  0
 29 55  1  0  0  0  0
 29 78  1  0  0  0  0
 30 62  1  0  0  0  0
 30 65  1  0  0  0  0
 31 67  1  0  0  0  0
 31 78  1  0  0  0  0
 32 66  1  0  0  0  0
 32 72  2  0  0  0  0
 33 48  1  0  0  0  0
 33 68  1  0  0  0  0
 33 73  2  0  0  0  0
 34 57  1  0  0  0  0
 34 63  1  0  0  0  0
 34 74  2  0  0  0  0
 35 56  1  0  0  0  0
 35 67  1  0  0  0  0
 35 75  2  0  0  0  0
 36 58  1  0  0  0  0
 36 69  1  0  0  0  0
 36 76  2  0  0  0  0
 37 64  1  0  0  0  0
 37 70  1  0  0  0  0
 37 77  2  0  0  0  0
 38 41  1  0  0  0  0
 39 48  1  0  0  0  0
 40 63  1  0  0  0  0
 41 43  1  0  0  0  0
 42 44  1  0  0  0  0
 42 45  1  0  0  0  0
 43 47  1  0  0  0  0
 44 49  1  0  0  0  0
 45 64  1  0  0  0  0
 46 49  1  0  0  0  0
 46 64  1  0  0  0  0
 47 68  1  0  0  0  0
 48 63  1  0  0  0  0
 49 62  1  0  0  0  0
 50 58  1  0  0  0  0
 51 60  1  0  0  0  0
 52 60  1  0  0  0  0
 53 60  1  0  0  0  0
 54 71  1  0  0  0  0
 55 70  1  0  0  0  0
 56 80  1  0  0  0  0
 57 60  1  0  0  0  0
 57 69  1  0  0  0  0
 58 71  1  0  0  0  0
 59 83  1  0  0  0  0
 59 84  1  0  0  0  0
 59 85  1  0  0  0  0
 61 62  1  0  0  0  0
M  CHG  1  71   1
M  ISO  4  37 100  56 101  70 100  80 101
M  END
> <Batch ID>
0160

> <Smiles>
CNC(C)C(=O)NC(C(=O)N1Cc2cc([101O:1][101CH2:1]C(=O)Nc3cc(C(F)(F)F)c(C[100NH:0][100C:0](=O)N4CCCC(n5nc(-c6ccc(Oc7ccc(F)cc7F)cc6)c(C(N)=O)c5N)C4)o3)ccc2CC1C(=O)NC1CCCc2ccccc21)C(C)(C)C

> <Shape>
0.254

> <Color>
0.103

> <Negative vol penalty>
0.000

$$$$

  -OEChem-04052303503D

 83 91  0     1  0  0  0  0  0999 V2000
  -17.4353  -23.1574   26.5816 C   0  0  0  0  0  0  0  0  0  0  0  0
  -18.7677  -22.8006   26.7630 C   0  0  0  0  0  0  0  0  0  0  0  0
  -22.8854   -9.9940   20.0492 C   0  0  0  0  0  0  0  0  0  0  0  0
  -23.6484  -10.0202   22.3415 C   0  0  0  0  0  0  0  0  0  0  0  0
  -17.0701  -23.9572   25.4995 C   0  0  0  0  0  0  0  0  0  0  0  0
  -19.7356  -23.2425   25.8617 C   0  0  0  0  0  0  0  0  0  0  0  0
  -25.5340  -24.7493   27.1318 C   0  0  0  0  0  0  0  0  0  0  0  0
  -22.0691   -8.8993   20.3334 C   0  0  0  0  0  0  0  0  0  0  0  0
  -22.8320   -8.9255   22.6257 C   0  0  0  0  0  0  0  0  0  0  0  0
  -26.7331  -24.0480   27.0126 C   0  0  0  0  0  0  0  0  0  0  0  0
  -22.9068   -5.5765   22.1678 C   0  0  0  0  0  0  0  0  0  0  0  0
  -23.4561   -4.5354   22.9161 C   0  0  0  0  0  0  0  0  0  0  0  0
  -27.1226  -25.0896   24.8720 C   0  0  0  0  0  0  0  0  0  0  0  0
  -21.7726   -4.8694   24.6165 C   0  0  0  0  0  0  0  0  0  0  0  0
  -32.1203  -16.9934   21.4868 C   0  0  0  0  0  0  0  0  0  0  0  0
  -23.6751  -10.5544   21.0532 C   0  0  0  0  0  0  0  0  0  0  0  0
  -24.1791  -13.0475   20.8579 C   0  0  0  0  0  0  0  0  0  0  0  0
  -18.0354  -24.4171   24.5899 C   0  0  0  0  0  0  0  0  0  0  0  0
  -25.1143  -25.6193   26.1152 C   0  0  0  0  0  0  0  0  0  0  0  0
  -19.3828  -24.0481   24.7657 C   0  0  0  0  0  0  0  0  0  0  0  0
  -25.9191  -25.8027   24.9818 C   0  0  0  0  0  0  0  0  0  0  0  0
  -30.8390  -16.6185   21.8264 C   0  0  0  0  0  0  0  0  0  0  0  0
  -22.0424   -8.3650   21.6217 C   0  0  0  0  0  0  0  0  0  0  0  0
  -27.5261  -24.2158   25.8813 C   0  0  0  0  0  0  0  0  0  0  0  0
  -21.7904   -6.2641   22.6439 C   0  0  0  0  0  0  0  0  0  0  0  0
  -22.8890   -4.1819   24.1405 C   0  0  0  0  0  0  0  0  0  0  0  0
  -21.2233   -5.9105   23.8682 C   0  0  0  0  0  0  0  0  0  0  0  0
  -30.1925  -17.5957   22.6371 C   0  0  0  0  0  0  0  0  0  0  0  0
  -24.5190  -11.6849   20.7601 C   0  0  0  0  0  0  0  0  0  0  0  0
  -25.3167  -13.7137   20.4725 C   0  0  0  0  0  0  0  0  0  0  0  0
  -31.0045  -18.6803   22.8865 C   0  0  0  0  0  0  0  0  0  0  0  0
  -28.6663  -22.3043   25.1625 C   0  0  0  0  0  0  0  0  0  1  0  0
  -22.9453  -13.6566   21.2611 C   0  0  0  0  0  0  0  0  0  0  0  0
  -29.7562  -21.5460   24.9928 C   0  0  0  0  0  0  0  0  0  0  0  0
  -29.6174  -20.2127   24.3211 C   0  0  0  0  0  0  0  0  0  0  0  0
  -22.6096  -25.7441   24.1621 C   0  0  0  0  0  0  0  0  0  0  0  0
  -23.9055  -28.5944   23.3142 C   0  0  0  0  0  0  0  0  0  0  0  0
  -26.6816  -30.5690   23.1112 C   0  0  0  0  0  0  0  0  0  0  0  0
  -30.8392  -14.4089   20.6163 C   0  0  0  0  0  0  0  0  0  0  0  0
  -17.5860  -25.2403   23.4089 C   0  0  0  0  0  0  0  0  0  0  0  0
  -23.8313  -26.3888   26.2711 C   0  0  0  0  0  0  0  0  0  0  0  0
  -25.5233  -26.7402   23.8714 C   0  0  0  0  0  0  0  0  0  0  0  0
  -18.7262  -25.9767   22.7104 C   0  0  0  0  0  0  0  0  0  0  0  0
  -29.5670  -12.0024   18.3213 C   0  0  0  0  0  0  0  0  0  0  0  0
  -19.9100  -25.0405   22.4891 C   0  0  0  0  0  0  0  0  0  0  0  0
  -28.1123  -11.8174   18.7592 C   0  0  0  0  0  0  0  0  0  0  0  0
  -30.4972  -12.2075   19.5156 C   0  0  0  0  0  0  0  0  0  0  0  0
  -28.6435  -13.0945   20.8744 C   0  0  0  0  0  0  0  0  0  0  0  0
  -20.4653  -24.5283   23.8235 C   0  0  1  0  0  0  0  0  0  0  0  0
  -23.2506  -26.8580   24.9407 C   0  0  1  0  0  0  0  0  0  0  0  0
  -27.6594  -12.9493   19.7022 C   0  0  2  0  0  0  0  0  0  0  0  0
  -27.4355  -32.8342   22.3379 C   0  0  0  0  0  0  0  0  0  0  0  0
  -23.8062  -27.6364   20.4190 C   0  0  0  0  0  0  0  0  0  0  0  0
  -25.3990  -29.4757   19.8289 C   0  0  0  0  0  0  0  0  0  0  0  0
  -23.1472  -30.0260   20.7503 C   0  0  0  0  0  0  0  0  0  0  0  0
  -27.5362  -31.3431   25.8369 C   0  0  0  0  0  0  0  0  0  0  0  0
  -24.9069  -29.0480   22.2796 C   0  0  1  0  0  0  0  0  0  0  0  0
  -26.9214  -32.0138   23.5107 C   0  0  2  0  0  0  0  0  0  0  0  0
  -24.3216  -29.0273   20.8393 C   0  0  0  0  0  0  0  0  0  0  0  0
  -25.7743  -11.4952   20.3450 N   0  0  0  0  0  0  0  0  0  0  0  0
  -26.2330  -12.7473   20.1784 N   0  0  0  0  0  0  0  0  0  0  0  0
  -24.2570  -27.4652   24.0674 N   0  0  0  0  0  0  0  0  0  0  0  0
  -30.0075  -13.2980   20.3617 N   0  0  0  0  0  0  0  0  0  0  0  0
  -25.6125  -15.0261   20.3598 N   0  0  0  0  0  0  0  0  0  0  0  0
  -21.8774  -12.8252   21.6253 N   0  0  0  0  0  0  0  0  0  0  0  0
  -30.2544  -15.3979   21.4066 N   0  0  0  0  0  0  0  0  0  0  0  0
  -30.7706  -19.8599   23.6336 N   0  0  0  0  0  0  0  0  0  0  0  0
  -21.2744  -25.5465   24.4584 N   0  0  0  0  0  0  0  0  0  0  0  0
  -25.3779  -30.3585   22.7145 N   0  0  0  0  0  0  0  0  0  0  0  0
  -27.9239  -32.0873   24.6110 N   0  3  0  0  0  0  0  0  0  0  0  0
  -22.7891  -14.9011   21.2817 O   0  0  0  0  0  0  0  0  0  0  0  0
  -28.5790  -19.5667   24.4118 O   0  0  0  0  0  0  0  0  0  0  0  0
  -23.2765  -25.1119   23.3515 O   0  0  0  0  0  0  0  0  0  0  0  0
  -22.8535  -29.2231   23.4541 O   0  0  0  0  0  0  0  0  0  0  0  0
  -27.5635  -29.7136   23.1440 O   0  0  0  0  0  0  0  0  0  0  0  0
  -31.9760  -14.4903   20.1440 O   0  0  0  0  0  0  0  0  0  0  0  0
  -31.0096  -21.9437   25.4117 O   0  0  0  0  0  0  0  0  0  0  0  0
  -21.2457   -7.2970   21.8994 O   0  0  0  0  0  0  0  0  0  0  0  0
  -28.6966  -23.5320   25.7622 O   0  0  0  0  0  0  0  0  0  1  0  0
  -23.4157   -3.1811   24.8582 F   0  0  0  0  0  0  0  0  0  0  0  0
  -20.1500   -6.5666   24.3302 F   0  0  0  0  0  0  0  0  0  0  0  0
  -28.9468  -17.4748   23.1023 F   0  0  0  0  0  0  0  0  0  0  0  0
  -32.5392  -18.5179   22.1445 S   0  0  0  0  0  0  0  0  0  0  0  0
  1  2  1  0  0  0  0
  1  5  2  0  0  0  0
  2  6  2  0  0  0  0
  3  8  2  0  0  0  0
  3 16  1  0  0  0  0
  4  9  1  0  0  0  0
  4 16  2  0  0  0  0
  5 18  1  0  0  0  0
  6 20  1  0  0  0  0
  7 10  2  0  0  0  0
  7 19  1  0  0  0  0
  8 23  1  0  0  0  0
  9 23  2  0  0  0  0
 10 24  1  0  0  0  0
 11 12  2  0  0  0  0
 11 25  1  0  0  0  0
 12 26  1  0  0  0  0
 13 21  1  0  0  0  0
 13 24  2  0  0  0  0
 14 26  2  0  0  0  0
 14 27  1  0  0  0  0
 15 22  2  0  0  0  0
 15 83  1  0  0  0  0
 16 29  1  0  0  0  0
 17 29  1  0  0  0  0
 17 30  2  0  0  0  0
 17 33  1  0  0  0  0
 18 20  2  0  0  0  0
 18 40  1  0  0  0  0
 19 21  2  0  0  0  0
 19 41  1  0  0  0  0
 20 49  1  0  0  0  0
 21 42  1  0  0  0  0
 22 28  1  0  0  0  0
 22 66  1  0  0  0  0
 23 78  1  0  0  0  0
 24 79  1  0  0  0  0
 25 27  2  0  0  0  0
 25 78  1  0  0  0  0
 26 80  1  0  0  0  0
 27 81  1  0  0  0  0
 28 31  2  0  0  0  0
 28 82  1  0  0  0  0
 29 60  2  0  0  0  0
 30 61  1  0  0  0  0
 30 64  1  0  0  0  0
 31 67  1  0  0  0  0
 31 83  1  0  0  0  0
 32 34  2  0  0  0  0
 32 79  1  0  0  0  0
 33 65  1  0  0  0  0
 33 71  2  0  0  0  0
 34 35  1  0  0  0  0
 34 77  1  0  0  0  0
 35 67  1  0  0  0  0
 35 72  2  0  0  0  0
 36 50  1  0  0  0  0
 36 68  1  0  0  0  0
 36 73  2  0  0  0  0
 37 57  1  0  0  0  0
 37 62  1  0  0  0  0
 37 74  2  0  0  0  0
 38 58  1  0  0  0  0
 38 69  1  0  0  0  0
 38 75  2  0  0  0  0
 39 63  1  0  0  0  0
 39 66  1  0  0  0  0
 39 76  2  0  0  0  0
 40 43  1  0  0  0  0
 41 50  1  0  0  0  0
 42 62  1  0  0  0  0
 43 45  1  0  0  0  0
 44 46  1  0  0  0  0
 44 47  1  0  0  0  0
 45 49  1  0  0  0  0
 46 51  1  0  0  0  0
 47 63  1  0  0  0  0
 48 51  1  0  0  0  0
 48 63  1  0  0  0  0
 49 68  1  0  0  0  0
 50 62  1  0  0  0  0
 51 61  1  0  0  0  0
 52 58  1  0  0  0  0
 53 59  1  0  0  0  0
 54 59  1  0  0  0  0
 55 59  1  0  0  0  0
 56 70  1  0  0  0  0
 57 59  1  0  0  0  0
 57 69  1  0  0  0  0
 58 70  1  0  0  0  0
 60 61  1  0  0  0  0
M  CHG  1  70   1
M  ISO  4  32 101  39 100  66 100  79 101
M  END
> <Batch ID>
0160

> <Smiles>
CNC(C)C(=O)NC(C(=O)N1Cc2cc([101O:1][101CH2:1]C(=O)C(=O)Nc3scc([100NH:0][100C:0](=O)N4CCCC(n5nc(-c6ccc(Oc7ccc(F)cc7F)cc6)c(C(N)=O)c5N)C4)c3F)ccc2CC1C(=O)NC1CCCc2ccccc21)C(C)(C)C

> <Shape>
0.276

> <Color>
0.202

> <Negative vol penalty>
0.000

$$$$

  -OEChem-04052303503D

 81 89  0     1  0  0  0  0  0999 V2000
  -36.5087  -29.8139   23.9477 C   0  0  0  0  0  0  0  0  0  0  0  0
  -35.3405  -29.1222   23.6436 C   0  0  0  0  0  0  0  0  0  0  0  0
  -24.1258   -9.4885   21.3800 C   0  0  0  0  0  0  0  0  0  0  0  0
  -24.7656  -10.5386   23.4597 C   0  0  0  0  0  0  0  0  0  0  0  0
  -36.4752  -30.8706   24.8566 C   0  0  0  0  0  0  0  0  0  0  0  0
  -34.1383  -29.4862   24.2492 C   0  0  0  0  0  0  0  0  0  0  0  0
  -30.2904  -29.6866   20.9631 C   0  0  0  0  0  0  0  0  0  0  0  0
  -23.7426   -8.3424   22.0765 C   0  0  0  0  0  0  0  0  0  0  0  0
  -24.3823   -9.3925   24.1562 C   0  0  0  0  0  0  0  0  0  0  0  0
  -29.7201  -28.4748   20.5759 C   0  0  0  0  0  0  0  0  0  0  0  0
  -21.1043   -7.3172   23.9262 C   0  0  0  0  0  0  0  0  0  0  0  0
  -19.8868   -6.7282   23.5853 C   0  0  0  0  0  0  0  0  0  0  0  0
  -27.9181  -28.8301   22.1398 C   0  0  0  0  0  0  0  0  0  0  0  0
  -21.0380   -4.6856   23.0025 C   0  0  0  0  0  0  0  0  0  0  0  0
  -28.3337  -19.6229   20.6130 C   0  0  0  0  0  0  0  0  0  0  0  0
  -24.6374  -10.5866   22.0715 C   0  0  0  0  0  0  0  0  0  0  0  0
  -24.2308  -12.8831   21.0380 C   0  0  0  0  0  0  0  0  0  0  0  0
  -35.2702  -31.2540   25.4663 C   0  0  0  0  0  0  0  0  0  0  0  0
  -29.6836  -30.4754   21.9511 C   0  0  0  0  0  0  0  0  0  0  0  0
  -34.0890  -30.5482   25.1681 C   0  0  0  0  0  0  0  0  0  0  0  0
  -28.4814  -30.0527   22.5360 C   0  0  0  0  0  0  0  0  0  0  0  0
  -23.8708   -8.2944   23.4646 C   0  0  0  0  0  0  0  0  0  0  0  0
  -28.5353  -28.0450   21.1663 C   0  0  0  0  0  0  0  0  0  0  0  0
  -22.2888   -6.5904   23.8051 C   0  0  0  0  0  0  0  0  0  0  0  0
  -19.8535   -5.4125   23.1235 C   0  0  0  0  0  0  0  0  0  0  0  0
  -22.2556   -5.2747   23.3433 C   0  0  0  0  0  0  0  0  0  0  0  0
  -25.0339  -11.7706   21.3525 C   0  0  0  0  0  0  0  0  0  0  0  0
  -29.0135  -20.8012   20.2595 C   0  0  0  0  0  0  0  0  0  0  0  0
  -25.0690  -13.7293   20.3539 C   0  0  0  0  0  0  0  0  0  0  0  0
  -29.1644  -18.6246   20.1778 C   0  0  0  0  0  0  0  0  0  0  0  0
  -22.8505  -13.1298   21.3375 C   0  0  0  0  0  0  0  0  0  0  0  0
  -30.5375  -31.5112   24.8323 C   0  0  0  0  0  0  0  0  0  0  0  0
  -28.2901  -24.4640   20.6374 C   0  0  0  0  0  0  0  0  0  0  0  0
  -27.7560  -33.1682   24.6327 C   0  0  0  0  0  0  0  0  0  0  0  0
  -24.6416  -33.4470   23.2653 C   0  0  0  0  0  0  0  0  0  0  0  0
  -29.9810  -16.2804   19.7483 C   0  0  0  0  0  0  0  0  0  0  0  0
  -35.2923  -32.3722   26.4781 C   0  0  0  0  0  0  0  0  0  0  0  0
  -30.2974  -31.7928   22.3385 C   0  0  0  0  0  0  0  0  0  0  0  0
  -27.7795  -30.8723   23.5867 C   0  0  0  0  0  0  0  0  0  0  0  0
  -33.9091  -32.9364   26.7926 C   0  0  0  0  0  0  0  0  0  0  0  0
  -29.7082  -12.9650   18.4792 C   0  0  0  0  0  0  0  0  0  0  0  0
  -32.9138  -31.8061   27.0343 C   0  0  0  0  0  0  0  0  0  0  0  0
  -28.4018  -12.4502   19.0877 C   0  0  0  0  0  0  0  0  0  0  0  0
  -30.4717  -13.8625   19.4514 C   0  0  0  0  0  0  0  0  0  0  0  0
  -28.3869  -14.4599   20.6200 C   0  0  0  0  0  0  0  0  0  0  0  0
  -32.7609  -30.9292   25.7856 C   0  0  1  0  0  0  0  0  0  0  0  0
  -29.8660  -32.2690   23.7222 C   0  0  1  0  0  0  0  0  0  0  0  0
  -27.5511  -13.6037   19.6545 C   0  0  2  0  0  0  0  0  0  0  0  0
  -22.5856  -34.8848   23.3247 C   0  0  0  0  0  0  0  0  0  0  0  0
  -26.9759  -31.9377   27.3136 C   0  0  0  0  0  0  0  0  0  0  0  0
  -24.6113  -32.6254   26.8622 C   0  0  0  0  0  0  0  0  0  0  0  0
  -26.3945  -34.3576   27.0678 C   0  0  0  0  0  0  0  0  0  0  0  0
  -24.8876  -34.1194   20.3937 C   0  0  0  0  0  0  0  0  0  0  0  0
  -29.1412  -23.2923   20.1960 C   0  0  0  0  0  0  0  0  0  0  0  0
  -28.8643  -25.8370   20.3463 C   0  0  0  0  0  0  0  0  0  1  0  0
  -26.3193  -32.8946   25.0072 C   0  0  1  0  0  0  0  0  0  0  0  0
  -23.9182  -34.6257   22.6393 C   0  0  2  0  0  0  0  0  0  0  0  0
  -26.0893  -32.9372   26.5443 C   0  0  0  0  0  0  0  0  0  0  0  0
  -26.2861  -11.8955   20.9048 N   0  0  0  0  0  0  0  0  0  0  0  0
  -30.1769  -20.5528   19.6515 N   0  0  0  0  0  0  0  0  0  0  0  0
  -26.2761  -13.0966   20.3019 N   0  0  0  0  0  0  0  0  0  0  0  0
  -28.4223  -32.1499   23.9363 N   0  0  0  0  0  0  0  0  0  0  0  0
  -29.6042  -14.9348   19.9437 N   0  0  0  0  0  0  0  0  0  0  0  0
  -24.8838  -14.9453   19.7977 N   0  0  0  0  0  0  0  0  0  0  0  0
  -22.1366  -12.1553   22.0483 N   0  0  0  0  0  0  0  0  0  0  0  0
  -28.4869  -22.0548   20.5361 N   0  0  0  0  0  0  0  0  0  0  0  0
  -29.0620  -17.2123   20.2296 N   0  0  0  0  0  0  0  0  0  0  0  0
  -31.9172  -31.5837   24.8086 N   0  0  0  0  0  0  0  0  0  0  0  0
  -25.5125  -33.8498   24.2556 N   0  0  0  0  0  0  0  0  0  0  0  0
  -23.6610  -34.3674   21.1942 N   0  3  0  0  0  0  0  0  0  0  0  0
  -22.2631  -14.1758   20.9711 O   0  0  0  0  0  0  0  0  0  0  0  0
  -29.8544  -30.9068   25.6507 O   0  0  0  0  0  0  0  0  0  0  0  0
  -27.2031  -24.3236   21.1964 O   0  0  0  0  0  0  0  0  0  0  0  0
  -28.2659  -34.2485   24.9402 O   0  0  0  0  0  0  0  0  0  0  0  0
  -24.4502  -32.2850   22.9139 O   0  0  0  0  0  0  0  0  0  0  0  0
  -31.0280  -16.5838   19.1705 O   0  0  0  0  0  0  0  0  0  0  0  0
  -30.2679  -19.1669   19.6021 O   0  0  0  0  0  0  0  0  0  0  0  0
  -23.4967   -7.1763   24.1447 O   0  0  0  0  0  0  0  0  0  0  0  0
  -27.9768  -26.8622   20.7906 O   0  0  0  0  0  0  0  0  0  1  0  0
  -18.6841   -4.8465   22.7977 F   0  0  0  0  0  0  0  0  0  0  0  0
  -23.3900   -4.5711   23.2260 F   0  0  0  0  0  0  0  0  0  0  0  0
  1  2  1  0  0  0  0
  1  5  2  0  0  0  0
  2  6  2  0  0  0  0
  3  8  2  0  0  0  0
  3 16  1  0  0  0  0
  4  9  1  0  0  0  0
  4 16  2  0  0  0  0
  5 18  1  0  0  0  0
  6 20  1  0  0  0  0
  7 10  2  0  0  0  0
  7 19  1  0  0  0  0
  8 22  1  0  0  0  0
  9 22  2  0  0  0  0
 10 23  1  0  0  0  0
 11 12  2  0  0  0  0
 11 24  1  0  0  0  0
 12 25  1  0  0  0  0
 13 21  1  0  0  0  0
 13 23  2  0  0  0  0
 14 25  2  0  0  0  0
 14 26  1  0  0  0  0
 15 28  1  0  0  0  0
 15 30  2  0  0  0  0
 16 27  1  0  0  0  0
 17 27  1  0  0  0  0
 17 29  2  0  0  0  0
 17 31  1  0  0  0  0
 18 20  2  0  0  0  0
 18 37  1  0  0  0  0
 19 21  2  0  0  0  0
 19 38  1  0  0  0  0
 20 46  1  0  0  0  0
 21 39  1  0  0  0  0
 22 78  1  0  0  0  0
 23 79  1  0  0  0  0
 24 26  2  0  0  0  0
 24 78  1  0  0  0  0
 25 80  1  0  0  0  0
 26 81  1  0  0  0  0
 27 59  2  0  0  0  0
 28 60  2  0  0  0  0
 28 66  1  0  0  0  0
 29 61  1  0  0  0  0
 29 64  1  0  0  0  0
 30 67  1  0  0  0  0
 30 77  1  0  0  0  0
 31 65  1  0  0  0  0
 31 71  2  0  0  0  0
 32 47  1  0  0  0  0
 32 68  1  0  0  0  0
 32 72  2  0  0  0  0
 33 54  1  0  0  0  0
 33 55  1  0  0  0  0
 33 73  2  0  0  0  0
 34 56  1  0  0  0  0
 34 62  1  0  0  0  0
 34 74  2  0  0  0  0
 35 57  1  0  0  0  0
 35 69  1  0  0  0  0
 35 75  2  0  0  0  0
 36 63  1  0  0  0  0
 36 67  1  0  0  0  0
 36 76  2  0  0  0  0
 37 40  1  0  0  0  0
 38 47  1  0  0  0  0
 39 62  1  0  0  0  0
 40 42  1  0  0  0  0
 41 43  1  0  0  0  0
 41 44  1  0  0  0  0
 42 46  1  0  0  0  0
 43 48  1  0  0  0  0
 44 63  1  0  0  0  0
 45 48  1  0  0  0  0
 45 63  1  0  0  0  0
 46 68  1  0  0  0  0
 47 62  1  0  0  0  0
 48 61  1  0  0  0  0
 49 57  1  0  0  0  0
 50 58  1  0  0  0  0
 51 58  1  0  0  0  0
 52 58  1  0  0  0  0
 53 70  1  0  0  0  0
 54 66  1  0  0  0  0
 55 79  1  0  0  0  0
 56 58  1  0  0  0  0
 56 69  1  0  0  0  0
 57 70  1  0  0  0  0
 59 61  1  0  0  0  0
 60 77  1  0  0  0  0
M  CHG  1  70   1
M  ISO  4  36 100  55 101  67 100  79 101
M  END
> <Batch ID>
0160

> <Smiles>
CNC(C)C(=O)NC(C(=O)N1Cc2cc([101O:1][101CH2:1]C(=O)CNc3cc([100NH:0][100C:0](=O)N4CCCC(n5nc(-c6ccc(Oc7ccc(F)cc7F)cc6)c(C(N)=O)c5N)C4)on3)ccc2CC1C(=O)NC1CCCc2ccccc21)C(C)(C)C

> <Shape>
0.273

> <Color>
0.143

> <Negative vol penalty>
0.000

$$$$

  -OEChem-04052303503D

 83 91  0     1  0  0  0  0  0999 V2000
  -19.7719  -29.0330   27.1016 C   0  0  0  0  0  0  0  0  0  0  0  0
  -20.9437  -28.4705   26.6059 C   0  0  0  0  0  0  0  0  0  0  0  0
  -24.2064   -9.3029   22.1589 C   0  0  0  0  0  0  0  0  0  0  0  0
  -23.1753  -10.0442   20.1035 C   0  0  0  0  0  0  0  0  0  0  0  0
  -18.7915  -29.4882   26.2209 C   0  0  0  0  0  0  0  0  0  0  0  0
  -21.1353  -28.3617   25.2290 C   0  0  0  0  0  0  0  0  0  0  0  0
  -26.4313  -28.8779   22.1971 C   0  0  0  0  0  0  0  0  0  0  0  0
  -23.3278   -8.2208   22.2094 C   0  0  0  0  0  0  0  0  0  0  0  0
  -22.2967   -8.9620   20.1540 C   0  0  0  0  0  0  0  0  0  0  0  0
  -27.3242  -27.9293   21.7006 C   0  0  0  0  0  0  0  0  0  0  0  0
  -23.0224   -5.1895   20.7427 C   0  0  0  0  0  0  0  0  0  0  0  0
  -23.5539   -3.9368   21.0491 C   0  0  0  0  0  0  0  0  0  0  0  0
  -26.2773  -28.0872   19.5330 C   0  0  0  0  0  0  0  0  0  0  0  0
  -22.1259   -3.8066   22.9936 C   0  0  0  0  0  0  0  0  0  0  0  0
  -28.1991  -18.5590   17.7826 C   0  0  0  0  0  0  0  0  0  0  0  0
  -24.1301  -10.2147   21.1059 C   0  0  0  0  0  0  0  0  0  0  0  0
  -26.3007  -11.3745   20.4343 C   0  0  0  0  0  0  0  0  0  0  0  0
  -18.9754  -29.3937   24.8324 C   0  0  0  0  0  0  0  0  0  0  0  0
  -25.4460  -29.4313   21.3667 C   0  0  0  0  0  0  0  0  0  0  0  0
  -20.1559  -28.8148   24.3288 C   0  0  0  0  0  0  0  0  0  0  0  0
  -25.3748  -29.0446   20.0207 C   0  0  0  0  0  0  0  0  0  0  0  0
  -22.3730   -8.0503   21.2070 C   0  0  0  0  0  0  0  0  0  0  0  0
  -27.2455  -27.5316   20.3691 C   0  0  0  0  0  0  0  0  0  0  0  0
  -22.0428   -5.7509   21.5618 C   0  0  0  0  0  0  0  0  0  0  0  0
  -23.1056   -3.2454   22.1745 C   0  0  0  0  0  0  0  0  0  0  0  0
  -21.5945   -5.0594   22.6872 C   0  0  0  0  0  0  0  0  0  0  0  0
  -28.7627  -19.8177   17.4646 C   0  0  0  0  0  0  0  0  0  0  0  0
  -25.0371  -11.3331   21.0535 C   0  0  0  0  0  0  0  0  0  0  0  0
  -26.7547  -12.6500   20.6655 C   0  0  0  0  0  0  0  0  0  0  0  0
  -27.4500  -18.7522   18.9199 C   0  0  0  0  0  0  0  0  0  0  0  0
  -28.3175  -20.6905   18.4301 C   0  0  0  0  0  0  0  0  0  0  0  0
  -27.7621  -25.2874   19.9598 C   0  0  0  0  0  0  0  0  0  1  0  0
  -27.0014  -10.3516   19.7144 C   0  0  0  0  0  0  0  0  0  0  0  0
  -28.5398  -24.2941   19.5127 C   0  0  0  0  0  0  0  0  0  0  0  0
  -28.0601  -22.8795   19.6436 C   0  0  0  0  0  0  0  0  0  0  0  0
  -22.2675  -29.4533   21.3646 C   0  0  0  0  0  0  0  0  0  0  0  0
  -22.6715  -31.4974   18.8785 C   0  0  0  0  0  0  0  0  0  0  0  0
  -24.6662  -32.6244   16.3491 C   0  0  0  0  0  0  0  0  0  0  0  0
  -25.9354  -18.1546   20.8422 C   0  0  0  0  0  0  0  0  0  0  0  0
  -17.8670  -29.8562   23.9202 C   0  0  0  0  0  0  0  0  0  0  0  0
  -24.5075  -30.4732   21.9106 C   0  0  0  0  0  0  0  0  0  0  0  0
  -24.3484  -29.6234   19.0827 C   0  0  0  0  0  0  0  0  0  0  0  0
  -18.3097  -30.0465   22.4717 C   0  0  0  0  0  0  0  0  0  0  0  0
  -24.9731  -16.2790   23.7115 C   0  0  0  0  0  0  0  0  0  0  0  0
  -19.1352  -28.8519   22.0045 C   0  0  0  0  0  0  0  0  0  0  0  0
  -25.0079  -14.8284   23.2249 C   0  0  0  0  0  0  0  0  0  0  0  0
  -24.4727  -17.2297   22.6255 C   0  0  0  0  0  0  0  0  0  0  0  0
  -25.2168  -15.6850   20.8564 C   0  0  0  0  0  0  0  0  0  0  0  0
  -20.4114  -28.7020   22.8415 C   0  0  1  0  0  0  0  0  0  0  0  0
  -23.2153  -30.5907   21.1083 C   0  0  1  0  0  0  0  0  0  0  0  0
  -25.7757  -14.6986   21.8947 C   0  0  2  0  0  0  0  0  0  0  0  0
  -24.7088  -34.2772   14.4613 C   0  0  0  0  0  0  0  0  0  0  0  0
  -20.8403  -29.6802   17.2494 C   0  0  0  0  0  0  0  0  0  0  0  0
  -21.6698  -30.8172   15.1788 C   0  0  0  0  0  0  0  0  0  0  0  0
  -20.4479  -32.1273   16.9146 C   0  0  0  0  0  0  0  0  0  0  0  0
  -26.9932  -34.0492   17.4954 C   0  0  0  0  0  0  0  0  0  0  0  0
  -22.8070  -31.3477   17.3825 C   0  0  1  0  0  0  0  0  0  0  0  0
  -25.0539  -34.0283   15.9213 C   0  0  2  0  0  0  0  0  0  0  0  0
  -21.4595  -30.9805   16.6992 C   0  0  0  0  0  0  0  0  0  0  0  0
  -24.7094  -12.4902   21.6346 N   0  0  0  0  0  0  0  0  0  0  0  0
  -25.7738  -13.2707   21.3816 N   0  0  0  0  0  0  0  0  0  0  0  0
  -23.4491  -30.6342   19.6634 N   0  0  0  0  0  0  0  0  0  0  0  0
  -25.2493  -17.0533   21.3964 N   0  0  0  0  0  0  0  0  0  0  0  0
  -27.8933  -13.2899   20.3243 N   0  0  0  0  0  0  0  0  0  0  0  0
  -26.3905   -9.0984   19.5698 N   0  0  0  0  0  0  0  0  0  0  0  0
  -28.5553  -22.0719   18.6289 N   0  0  0  0  0  0  0  0  0  0  0  0
  -26.6663  -17.8592   19.6919 N   0  0  0  0  0  0  0  0  0  0  0  0
  -21.4060  -29.6667   22.4238 N   0  0  0  0  0  0  0  0  0  0  0  0
  -23.4028  -32.5890   16.9003 N   0  0  0  0  0  0  0  0  0  0  0  0
  -26.5184  -34.2385   16.1005 N   0  3  0  0  0  0  0  0  0  0  0  0
  -28.1426  -10.5380   19.2282 O   0  0  0  0  0  0  0  0  0  0  0  0
  -27.3201  -22.5477   20.5634 O   0  0  0  0  0  0  0  0  0  0  0  0
  -22.3133  -28.4566   20.6532 O   0  0  0  0  0  0  0  0  0  0  0  0
  -21.9094  -32.3538   19.3340 O   0  0  0  0  0  0  0  0  0  0  0  0
  -25.4082  -31.6553   16.2050 O   0  0  0  0  0  0  0  0  0  0  0  0
  -25.9009  -19.2711   21.3660 O   0  0  0  0  0  0  0  0  0  0  0  0
  -27.5168  -20.0488   19.3209 O   0  0  0  0  0  0  0  0  0  0  0  0
  -29.7712  -24.5196   18.9318 O   0  0  0  0  0  0  0  0  0  0  0  0
  -21.5156   -6.9943   21.2558 O   0  0  0  0  0  0  0  0  0  0  0  0
  -28.1153  -26.6054   19.8821 O   0  0  0  0  0  0  0  0  0  1  0  0
  -23.6149   -2.0417   22.4678 F   0  0  0  0  0  0  0  0  0  0  0  0
  -20.6527   -5.5930   23.4772 F   0  0  0  0  0  0  0  0  0  0  0  0
  -29.5618  -20.0972   16.4391 F   0  0  0  0  0  0  0  0  0  0  0  0
  1  2  1  0  0  0  0
  1  5  2  0  0  0  0
  2  6  2  0  0  0  0
  3  8  2  0  0  0  0
  3 16  1  0  0  0  0
  4  9  1  0  0  0  0
  4 16  2  0  0  0  0
  5 18  1  0  0  0  0
  6 20  1  0  0  0  0
  7 10  2  0  0  0  0
  7 19  1  0  0  0  0
  8 22  1  0  0  0  0
  9 22  2  0  0  0  0
 10 23  1  0  0  0  0
 11 12  2  0  0  0  0
 11 24  1  0  0  0  0
 12 25  1  0  0  0  0
 13 21  1  0  0  0  0
 13 23  2  0  0  0  0
 14 25  2  0  0  0  0
 14 26  1  0  0  0  0
 15 27  1  0  0  0  0
 15 30  2  0  0  0  0
 16 28  1  0  0  0  0
 17 28  1  0  0  0  0
 17 29  2  0  0  0  0
 17 33  1  0  0  0  0
 18 20  2  0  0  0  0
 18 40  1  0  0  0  0
 19 21  2  0  0  0  0
 19 41  1  0  0  0  0
 20 49  1  0  0  0  0
 21 42  1  0  0  0  0
 22 79  1  0  0  0  0
 23 80  1  0  0  0  0
 24 26  2  0  0  0  0
 24 79  1  0  0  0  0
 25 81  1  0  0  0  0
 26 82  1  0  0  0  0
 27 31  2  0  0  0  0
 27 83  1  0  0  0  0
 28 60  2  0  0  0  0
 29 61  1  0  0  0  0
 29 64  1  0  0  0  0
 30 67  1  0  0  0  0
 30 77  1  0  0  0  0
 31 66  1  0  0  0  0
 31 77  1  0  0  0  0
 32 34  2  0  0  0  0
 32 80  1  0  0  0  0
 33 65  1  0  0  0  0
 33 71  2  0  0  0  0
 34 35  1  0  0  0  0
 34 78  1  0  0  0  0
 35 66  1  0  0  0  0
 35 72  2  0  0  0  0
 36 50  1  0  0  0  0
 36 68  1  0  0  0  0
 36 73  2  0  0  0  0
 37 57  1  0  0  0  0
 37 62  1  0  0  0  0
 37 74  2  0  0  0  0
 38 58  1  0  0  0  0
 38 69  1  0  0  0  0
 38 75  2  0  0  0  0
 39 63  1  0  0  0  0
 39 67  1  0  0  0  0
 39 76  2  0  0  0  0
 40 43  1  0  0  0  0
 41 50  1  0  0  0  0
 42 62  1  0  0  0  0
 43 45  1  0  0  0  0
 44 46  1  0  0  0  0
 44 47  1  0  0  0  0
 45 49  1  0  0  0  0
 46 51  1  0  0  0  0
 47 63  1  0  0  0  0
 48 51  1  0  0  0  0
 48 63  1  0  0  0  0
 49 68  1  0  0  0  0
 50 62  1  0  0  0  0
 51 61  1  0  0  0  0
 52 58  1  0  0  0  0
 53 59  1  0  0  0  0
 54 59  1  0  0  0  0
 55 59  1  0  0  0  0
 56 70  1  0  0  0  0
 57 59  1  0  0  0  0
 57 69  1  0  0  0  0
 58 70  1  0  0  0  0
 60 61  1  0  0  0  0
M  CHG  1  70   1
M  ISO  4  32 101  39 100  67 100  80 101
M  END
> <Batch ID>
0160

> <Smiles>
CNC(C)C(=O)NC(C(=O)N1Cc2cc([101O:1][101CH2:1]C(=O)C(=O)Nc3oc([100NH:0][100C:0](=O)N4CCCC(n5nc(-c6ccc(Oc7ccc(F)cc7F)cc6)c(C(N)=O)c5N)C4)cc3F)ccc2CC1C(=O)NC1CCCc2ccccc21)C(C)(C)C

> <Shape>
0.256

> <Color>
0.111

> <Negative vol penalty>
0.000

$$$$

  -OEChem-04052303503D

 87 95  0     1  0  0  0  0  0999 V2000
  -28.5723  -35.7378   27.2004 C   0  0  0  0  0  0  0  0  0  0  0  0
  -28.3787  -34.3614   27.1408 C   0  0  0  0  0  0  0  0  0  0  0  0
  -23.8140   -9.7569   21.4669 C   0  0  0  0  0  0  0  0  0  0  0  0
  -24.3508  -10.8283   23.5648 C   0  0  0  0  0  0  0  0  0  0  0  0
  -27.6304  -36.5981   26.6378 C   0  0  0  0  0  0  0  0  0  0  0  0
  -27.2423  -33.8446   26.5195 C   0  0  0  0  0  0  0  0  0  0  0  0
  -28.2992  -29.9366   23.4772 C   0  0  0  0  0  0  0  0  0  0  0  0
  -23.2869   -8.6665   22.1587 C   0  0  0  0  0  0  0  0  0  0  0  0
  -23.8235   -9.7378   24.2566 C   0  0  0  0  0  0  0  0  0  0  0  0
  -28.5216  -28.7005   24.0825 C   0  0  0  0  0  0  0  0  0  0  0  0
  -20.4297   -7.9006   23.7967 C   0  0  0  0  0  0  0  0  0  0  0  0
  -19.2048   -7.3907   23.3665 C   0  0  0  0  0  0  0  0  0  0  0  0
  -26.2671  -28.0359   23.5397 C   0  0  0  0  0  0  0  0  0  0  0  0
  -31.0605  -18.7224   21.1643 C   0  0  0  0  0  0  0  0  0  0  0  0
  -28.7207  -19.2463   21.3518 C   0  0  0  0  0  0  0  0  0  0  0  0
  -20.2438   -5.2508   22.9444 C   0  0  0  0  0  0  0  0  0  0  0  0
  -24.3461  -10.8379   22.1700 C   0  0  0  0  0  0  0  0  0  0  0  0
  -24.2046  -13.1211   21.0412 C   0  0  0  0  0  0  0  0  0  0  0  0
  -26.4868  -36.0913   26.0008 C   0  0  0  0  0  0  0  0  0  0  0  0
  -27.0535  -30.2362   22.9073 C   0  0  0  0  0  0  0  0  0  0  0  0
  -26.2836  -34.6990   25.9490 C   0  0  0  0  0  0  0  0  0  0  0  0
  -26.0322  -29.2755   22.9256 C   0  0  0  0  0  0  0  0  0  0  0  0
  -29.7291  -18.3480   21.0210 C   0  0  0  0  0  0  0  0  0  0  0  0
  -23.2916   -8.6569   23.5535 C   0  0  0  0  0  0  0  0  0  0  0  0
  -27.5046  -27.7510   24.1164 C   0  0  0  0  0  0  0  0  0  0  0  0
  -21.5618   -7.0856   23.8007 C   0  0  0  0  0  0  0  0  0  0  0  0
  -19.1118   -6.0658   22.9403 C   0  0  0  0  0  0  0  0  0  0  0  0
  -21.4688   -5.7607   23.3745 C   0  0  0  0  0  0  0  0  0  0  0  0
  -24.8913  -11.9643   21.4560 C   0  0  0  0  0  0  0  0  0  0  0  0
  -31.3285  -19.9963   21.6387 C   0  0  0  0  0  0  0  0  0  0  0  0
  -29.0934  -20.4967   21.8180 C   0  0  0  0  0  0  0  0  0  0  0  0
  -25.1600  -13.8799   20.4102 C   0  0  0  0  0  0  0  0  0  0  0  0
  -28.1315  -21.8464   23.3920 C   0  0  0  0  0  0  0  0  0  0  0  0
  -22.8264  -13.4779   21.2110 C   0  0  0  0  0  0  0  0  0  0  0  0
  -32.6864  -20.4541   21.8108 C   0  0  0  0  0  0  0  0  0  0  0  0
  -24.8011  -32.4112   23.4548 C   0  0  0  0  0  0  0  0  0  0  0  0
  -27.7854  -24.1477   24.3690 C   0  0  0  0  0  0  0  0  0  0  0  0
  -23.4732  -31.1416   20.7814 C   0  0  0  0  0  0  0  0  0  0  0  0
  -23.1824  -28.4683   18.6800 C   0  0  0  0  0  0  0  0  0  0  0  0
  -30.2847  -16.0435   20.1686 C   0  0  0  0  0  0  0  0  0  0  0  0
  -25.4730  -37.0620   25.4488 C   0  0  0  0  0  0  0  0  0  0  0  0
  -26.8381  -31.5641   22.2346 C   0  0  0  0  0  0  0  0  0  0  0  0
  -24.6834  -29.5403   22.3101 C   0  0  0  0  0  0  0  0  0  0  0  0
  -24.4824  -36.4225   24.4792 C   0  0  0  0  0  0  0  0  0  0  0  0
  -29.8717  -12.7151   18.9734 C   0  0  0  0  0  0  0  0  0  0  0  0
  -23.9456  -35.1139   25.0503 C   0  0  0  0  0  0  0  0  0  0  0  0
  -28.4827  -12.3182   19.4786 C   0  0  0  0  0  0  0  0  0  0  0  0
  -30.6148  -13.5875   19.9837 C   0  0  0  0  0  0  0  0  0  0  0  0
  -28.4886  -14.3751   20.9470 C   0  0  0  0  0  0  0  0  0  0  0  0
  -25.0759  -34.0994   25.2618 C   0  0  1  0  0  0  0  0  0  0  0  0
  -25.3663  -31.9542   22.1398 C   0  0  1  0  0  0  0  0  0  0  0  0
  -27.6763  -13.5495   19.9359 C   0  0  2  0  0  0  0  0  0  0  0  0
  -26.3034  -22.2291   24.9951 C   0  0  0  0  0  0  0  0  0  0  0  0
  -21.9934  -27.7163   16.6020 C   0  0  0  0  0  0  0  0  0  0  0  0
  -20.9131  -30.7439   22.3932 C   0  0  0  0  0  0  0  0  0  0  0  0
  -20.1198  -29.1715   20.6137 C   0  0  0  0  0  0  0  0  0  0  0  0
  -20.5584  -31.5633   20.0571 C   0  0  0  0  0  0  0  0  0  0  0  0
  -25.7292  -28.0854   17.2217 C   0  0  0  0  0  0  0  0  0  0  0  0
  -26.9934  -25.4295   24.1892 C   0  0  0  0  0  0  0  0  0  1  0  0
  -27.1262  -22.8632   23.8811 C   0  0  2  0  0  0  0  0  0  0  0  0
  -22.5083  -30.0156   20.4982 C   0  0  1  0  0  0  0  0  0  0  0  0
  -23.2477  -28.3647   17.1669 C   0  0  2  0  0  0  0  0  0  0  0  0
  -21.0496  -30.3690   20.9039 C   0  0  0  0  0  0  0  0  0  0  0  0
  -26.1831  -11.9821   21.1170 N   0  0  0  0  0  0  0  0  0  0  0  0
  -30.3759  -20.8963   21.9705 N   0  0  0  0  0  0  0  0  0  0  0  0
  -28.1114  -21.4398   22.1645 N   0  0  0  0  0  0  0  0  0  0  0  0
  -26.3157  -13.1593   20.4824 N   0  0  0  0  0  0  0  0  0  0  0  0
  -24.5197  -30.8558   21.6697 N   0  0  0  0  0  0  0  0  0  0  0  0
  -29.7918  -14.7365   20.3675 N   0  0  0  0  0  0  0  0  0  0  0  0
  -25.1157  -15.0863   19.8062 N   0  0  0  0  0  0  0  0  0  0  0  0
  -21.9825  -12.5832   21.8830 N   0  0  0  0  0  0  0  0  0  0  0  0
  -33.7222  -19.6494   21.5128 N   0  0  0  0  0  0  0  0  0  0  0  0
  -29.4010  -17.0559   20.5409 N   0  0  0  0  0  0  0  0  0  0  0  0
  -25.4569  -33.4974   24.0021 N   0  0  0  0  0  0  0  0  0  0  0  0
  -22.6721  -29.6828   19.0872 N   0  0  0  0  0  0  0  0  0  0  0  0
  -32.9375  -21.6930   22.2702 N   0  3  0  0  0  0  0  0  0  0  0  0
  -24.4249  -27.5496   16.7538 N   0  3  0  0  0  0  0  0  0  0  0  0
  -22.3534  -14.5508   20.7653 O   0  0  0  0  0  0  0  0  0  0  0  0
  -23.8401  -31.8228   23.9365 O   0  0  0  0  0  0  0  0  0  0  0  0
  -28.9067  -24.1499   24.8775 O   0  0  0  0  0  0  0  0  0  0  0  0
  -23.3086  -32.2322   20.2291 O   0  0  0  0  0  0  0  0  0  0  0  0
  -23.5442  -27.5610   19.4260 O   0  0  0  0  0  0  0  0  0  0  0  0
  -31.3973  -16.2496   19.6771 O   0  0  0  0  0  0  0  0  0  0  0  0
  -22.7770   -7.5931   24.2289 O   0  0  0  0  0  0  0  0  0  0  0  0
  -27.7188  -26.5439   24.7071 O   0  0  0  0  0  0  0  0  0  1  0  0
  -17.9351   -5.5759   22.5287 F   0  0  0  0  0  0  0  0  0  0  0  0
  -22.5526   -4.9726   23.3772 F   0  0  0  0  0  0  0  0  0  0  0  0
  1  2  1  0  0  0  0
  1  5  2  0  0  0  0
  2  6  2  0  0  0  0
  3  8  2  0  0  0  0
  3 17  1  0  0  0  0
  4  9  1  0  0  0  0
  4 17  2  0  0  0  0
  5 19  1  0  0  0  0
  6 21  1  0  0  0  0
  7 10  2  0  0  0  0
  7 20  1  0  0  0  0
  8 24  1  0  0  0  0
  9 24  2  0  0  0  0
 10 25  1  0  0  0  0
 11 12  2  0  0  0  0
 11 26  1  0  0  0  0
 12 27  1  0  0  0  0
 13 22  1  0  0  0  0
 13 25  2  0  0  0  0
 14 23  1  0  0  0  0
 14 30  2  0  0  0  0
 15 23  2  0  0  0  0
 15 31  1  0  0  0  0
 16 27  2  0  0  0  0
 16 28  1  0  0  0  0
 17 29  1  0  0  0  0
 18 29  1  0  0  0  0
 18 32  2  0  0  0  0
 18 34  1  0  0  0  0
 19 21  2  0  0  0  0
 19 41  1  0  0  0  0
 20 22  2  0  0  0  0
 20 42  1  0  0  0  0
 21 50  1  0  0  0  0
 22 43  1  0  0  0  0
 23 73  1  0  0  0  0
 24 84  1  0  0  0  0
 25 85  1  0  0  0  0
 26 28  2  0  0  0  0
 26 84  1  0  0  0  0
 27 86  1  0  0  0  0
 28 87  1  0  0  0  0
 29 64  2  0  0  0  0
 30 35  1  0  0  0  0
 30 65  1  0  0  0  0
 31 65  2  0  0  0  0
 31 66  1  0  0  0  0
 32 67  1  0  0  0  0
 32 70  1  0  0  0  0
 33 60  1  0  0  0  0
 33 66  2  0  0  0  0
 34 71  1  0  0  0  0
 34 78  2  0  0  0  0
 35 72  1  0  0  0  0
 35 76  2  0  0  0  0
 36 51  1  0  0  0  0
 36 74  1  0  0  0  0
 36 79  2  0  0  0  0
 37 59  1  0  0  0  0
 37 60  1  0  0  0  0
 37 80  2  0  0  0  0
 38 61  1  0  0  0  0
 38 68  1  0  0  0  0
 38 81  2  0  0  0  0
 39 62  1  0  0  0  0
 39 75  1  0  0  0  0
 39 82  2  0  0  0  0
 40 69  1  0  0  0  0
 40 73  1  0  0  0  0
 40 83  2  0  0  0  0
 41 44  1  0  0  0  0
 42 51  1  0  0  0  0
 43 68  1  0  0  0  0
 44 46  1  0  0  0  0
 45 47  1  0  0  0  0
 45 48  1  0  0  0  0
 46 50  1  0  0  0  0
 47 52  1  0  0  0  0
 48 69  1  0  0  0  0
 49 52  1  0  0  0  0
 49 69  1  0  0  0  0
 50 74  1  0  0  0  0
 51 68  1  0  0  0  0
 52 67  1  0  0  0  0
 53 60  1  0  0  0  0
 54 62  1  0  0  0  0
 55 63  1  0  0  0  0
 56 63  1  0  0  0  0
 57 63  1  0  0  0  0
 58 77  1  0  0  0  0
 59 85  1  0  0  0  0
 61 63  1  0  0  0  0
 61 75  1  0  0  0  0
 62 77  1  0  0  0  0
 64 67  1  0  0  0  0
M  CHG  2  76   1  77   1
M  ISO  4  40 100  59 101  73 100  85 101
M  END
> <Batch ID>
0160

> <Smiles>
CNC(C)C(=O)NC(C(=O)N1Cc2cc([101O:1][101CH2:1]C(=O)C(C)=CNc3cc([100NH:0][100C:0](=O)N4CCCC(n5nc(-c6ccc(Oc7ccc(F)cc7F)cc6)c(C(N)=O)c5N)C4)cc(C(=N)N)n3)ccc2CC1C(=O)NC1CCCc2ccccc21)C(C)(C)C

> <Shape>
0.283

> <Color>
0.130

> <Negative vol penalty>
0.000

$$$$

  -OEChem-04052303503D

 88 97  0     1  0  0  0  0  0999 V2000
  -26.2629  -19.0530   17.4802 C   0  0  0  0  0  0  0  0  0  0  0  0
  -25.7634  -20.1332   18.2007 C   0  0  0  0  0  0  0  0  0  0  0  0
  -25.2779  -15.7296   20.7429 C   0  0  0  0  0  0  0  0  0  0  0  0
  -24.0879  -15.5103   18.6517 C   0  0  0  0  0  0  0  0  0  0  0  0
  -27.6211  -18.7442   17.5409 C   0  0  0  0  0  0  0  0  0  0  0  0
  -26.6218  -20.9047   18.9832 C   0  0  0  0  0  0  0  0  0  0  0  0
  -25.8285  -25.8740   18.4161 C   0  0  0  0  0  0  0  0  0  0  0  0
  -26.4419  -15.2672   20.1290 C   0  0  0  0  0  0  0  0  0  0  0  0
  -25.2520  -15.0480   18.0378 C   0  0  0  0  0  0  0  0  0  0  0  0
  -24.7360  -26.4247   19.0845 C   0  0  0  0  0  0  0  0  0  0  0  0
  -29.6376  -13.8031   19.1978 C   0  0  0  0  0  0  0  0  0  0  0  0
  -30.3950  -12.8481   19.8761 C   0  0  0  0  0  0  0  0  0  0  0  0
  -26.2096  -27.2329   20.8150 C   0  0  0  0  0  0  0  0  0  0  0  0
  -28.5073  -11.3403   19.8610 C   0  0  0  0  0  0  0  0  0  0  0  0
  -22.5716  -23.6732   23.3295 C   0  0  0  0  0  0  0  0  0  0  0  0
  -24.1008  -15.8511   20.0043 C   0  0  0  0  0  0  0  0  0  0  0  0
  -22.2246  -15.7477   21.7295 C   0  0  0  0  0  0  0  0  0  0  0  0
  -28.4983  -19.5182   18.3170 C   0  0  0  0  0  0  0  0  0  0  0  0
  -27.1207  -25.9894   18.9486 C   0  0  0  0  0  0  0  0  0  0  0  0
  -27.9928  -20.6052   19.0555 C   0  0  0  0  0  0  0  0  0  0  0  0
  -27.3172  -26.6850   20.1501 C   0  0  0  0  0  0  0  0  0  0  0  0
  -26.4290  -14.9265   18.7765 C   0  0  0  0  0  0  0  0  0  0  0  0
  -24.9260  -27.1018   20.2856 C   0  0  0  0  0  0  0  0  0  0  0  0
  -28.3151  -13.5267   18.8512 C   0  0  0  0  0  0  0  0  0  0  0  0
  -29.8298  -11.6167   20.2077 C   0  0  0  0  0  0  0  0  0  0  0  0
  -27.7499  -12.2953   19.1827 C   0  0  0  0  0  0  0  0  0  0  0  0
  -22.8979  -16.3281   20.6380 C   0  0  0  0  0  0  0  0  0  0  0  0
  -21.4931  -23.6134   22.4720 C   0  0  0  0  0  0  0  0  0  0  0  0
  -21.1494  -16.5739   21.9484 C   0  0  0  0  0  0  0  0  0  0  0  0
  -21.1763  -25.6356   23.2596 C   0  0  0  0  0  0  0  0  0  0  0  0
  -22.5425  -14.5673   22.4787 C   0  0  0  0  0  0  0  0  0  0  0  0
  -29.3204  -23.9316   19.9638 C   0  0  0  0  0  0  0  0  0  0  0  0
  -31.1404  -26.6043   20.2219 C   0  0  0  0  0  0  0  0  0  0  0  0
  -21.5841  -28.8776   22.1865 C   0  0  0  0  0  0  0  0  0  0  0  0
  -33.3196  -29.1390   20.9100 C   0  0  0  0  0  0  0  0  0  0  0  0
  -20.1297  -22.3437   20.7763 C   0  0  0  0  0  0  0  0  0  0  0  0
  -29.9504  -19.1171   18.3888 C   0  0  0  0  0  0  0  0  0  0  0  0
  -28.2921  -25.4128   18.2018 C   0  0  0  0  0  0  0  0  0  0  0  0
  -28.6868  -26.8542   20.7536 C   0  0  0  0  0  0  0  0  0  0  0  0
  -30.8577  -20.2113   18.9455 C   0  0  0  0  0  0  0  0  0  0  0  0
  -18.0422  -26.8202   22.9829 C   0  0  0  0  0  0  0  0  0  0  0  0
  -18.2625  -27.6796   21.7416 C   0  0  0  0  0  0  0  0  0  0  0  0
  -18.2005  -19.5696   19.6540 C   0  0  0  0  0  0  0  0  0  0  0  0
  -30.2473  -20.8226   20.2026 C   0  0  0  0  0  0  0  0  0  0  0  0
  -19.1224  -27.0713   24.0413 C   0  0  0  0  0  0  0  0  0  0  0  0
  -19.1226  -18.3700   19.8840 C   0  0  0  0  0  0  0  0  0  0  0  0
  -19.6800  -27.5092   21.2097 C   0  0  0  0  0  0  0  0  0  0  0  0
  -18.9783  -20.8043   19.2017 C   0  0  0  0  0  0  0  0  0  0  0  0
  -21.0257  -19.9809   20.2969 C   0  0  0  0  0  0  0  0  0  0  0  0
  -28.8966  -21.4808   19.8961 C   0  0  1  0  0  0  0  0  0  0  0  0
  -20.5618  -27.0189   23.4955 C   0  0  2  0  0  0  0  0  0  0  0  0
  -29.4984  -25.1458   19.0967 C   0  0  1  0  0  0  0  0  0  0  0  0
  -20.2957  -18.7314   20.8161 C   0  0  2  0  0  0  0  0  0  0  0  0
  -35.3329  -29.6813   22.3063 C   0  0  0  0  0  0  0  0  0  0  0  0
  -29.3621  -26.8401   22.6901 C   0  0  0  0  0  0  0  0  0  0  0  0
  -31.1397  -28.2486   23.7505 C   0  0  0  0  0  0  0  0  0  0  0  0
  -31.6312  -25.8839   23.1268 C   0  0  0  0  0  0  0  0  0  0  0  0
  -34.9752  -29.6856   18.5184 C   0  0  0  0  0  0  0  0  0  0  0  0
  -22.7600  -28.0734   20.1431 C   0  0  0  0  0  0  0  0  0  1  0  0
  -31.3966  -27.6227   21.3065 C   0  0  1  0  0  0  0  0  0  0  0  0
  -34.8363  -29.1776   20.9600 C   0  0  2  0  0  0  0  0  0  0  0  0
  -22.0768  -29.2510   20.8112 C   0  0  0  0  0  0  0  0  0  0  0  0
  -30.8710  -27.1563   22.6935 C   0  0  0  0  0  0  0  0  0  0  0  0
  -22.3005  -17.4372   20.1942 N   0  0  0  0  0  0  0  0  0  0  0  0
  -20.6916  -24.7376   22.4309 N   0  0  0  0  0  0  0  0  0  0  0  0
  -21.2404  -17.5603   21.0110 N   0  0  0  0  0  0  0  0  0  0  0  0
  -29.7996  -26.2672   19.9889 N   0  0  0  0  0  0  0  0  0  0  0  0
  -20.6552  -27.8343   22.2609 N   0  0  0  0  0  0  0  0  0  0  0  0
  -20.0708  -21.0885   20.1347 N   0  0  0  0  0  0  0  0  0  0  0  0
  -20.1445  -16.5455   22.8494 N   0  0  0  0  0  0  0  0  0  0  0  0
  -22.0137  -13.3418   22.0511 N   0  0  0  0  0  0  0  0  0  0  0  0
  -21.1941  -22.4872   21.6657 N   0  0  0  0  0  0  0  0  0  0  0  0
  -29.0933  -22.7651   19.2587 N   0  0  0  0  0  0  0  0  0  0  0  0
  -32.8279  -27.9031   21.2733 N   0  0  0  0  0  0  0  0  0  0  0  0
  -35.3670  -30.0771   19.8969 N   0  3  0  0  0  0  0  0  0  0  0  0
  -23.2607  -14.6008   23.5067 O   0  0  0  0  0  0  0  0  0  0  0  0
  -29.3858  -24.0445   21.1823 O   0  0  0  0  0  0  0  0  0  0  0  0
  -32.0943  -26.1309   19.5994 O   0  0  0  0  0  0  0  0  0  0  0  0
  -22.0140  -29.4936   23.1654 O   0  0  0  0  0  0  0  0  0  0  0  0
  -32.6390  -30.1093   20.5849 O   0  0  0  0  0  0  0  0  0  0  0  0
  -19.2818  -23.2166   20.5735 O   0  0  0  0  0  0  0  0  0  0  0  0
  -27.5647  -14.4755   18.1771 O   0  0  0  0  0  0  0  0  0  0  0  0
  -23.8612  -27.6397   20.9404 O   0  0  0  0  0  0  0  0  0  1  0  0
  -30.5577  -10.6992   20.8577 F   0  0  0  0  0  0  0  0  0  0  0  0
  -26.4802  -12.0236   18.8513 F   0  0  0  0  0  0  0  0  0  0  0  0
  -21.0448  -29.6693   20.0324 F   0  0  0  0  0  0  0  0  0  0  0  0
  -22.9492  -30.2898   20.8868 F   0  0  0  0  0  0  0  0  0  0  0  0
  -22.5941  -25.1949   24.1202 S   0  0  0  0  0  0  0  0  0  0  0  0
  1  2  1  0  0  0  0
  1  5  2  0  0  0  0
  2  6  2  0  0  0  0
  3  8  2  0  0  0  0
  3 16  1  0  0  0  0
  4  9  1  0  0  0  0
  4 16  2  0  0  0  0
  5 18  1  0  0  0  0
  6 20  1  0  0  0  0
  7 10  2  0  0  0  0
  7 19  1  0  0  0  0
  8 22  1  0  0  0  0
  9 22  2  0  0  0  0
 10 23  1  0  0  0  0
 11 12  2  0  0  0  0
 11 24  1  0  0  0  0
 12 25  1  0  0  0  0
 13 21  1  0  0  0  0
 13 23  2  0  0  0  0
 14 25  2  0  0  0  0
 14 26  1  0  0  0  0
 15 28  2  0  0  0  0
 15 88  1  0  0  0  0
 16 27  1  0  0  0  0
 17 27  1  0  0  0  0
 17 29  2  0  0  0  0
 17 31  1  0  0  0  0
 18 20  2  0  0  0  0
 18 37  1  0  0  0  0
 19 21  2  0  0  0  0
 19 38  1  0  0  0  0
 20 50  1  0  0  0  0
 21 39  1  0  0  0  0
 22 82  1  0  0  0  0
 23 83  1  0  0  0  0
 24 26  2  0  0  0  0
 24 82  1  0  0  0  0
 25 84  1  0  0  0  0
 26 85  1  0  0  0  0
 27 64  2  0  0  0  0
 28 65  1  0  0  0  0
 28 72  1  0  0  0  0
 29 66  1  0  0  0  0
 29 70  1  0  0  0  0
 30 51  1  0  0  0  0
 30 65  2  0  0  0  0
 30 88  1  0  0  0  0
 31 71  1  0  0  0  0
 31 76  2  0  0  0  0
 32 52  1  0  0  0  0
 32 73  1  0  0  0  0
 32 77  2  0  0  0  0
 33 60  1  0  0  0  0
 33 67  1  0  0  0  0
 33 78  2  0  0  0  0
 34 62  1  0  0  0  0
 34 68  1  0  0  0  0
 34 79  2  0  0  0  0
 35 61  1  0  0  0  0
 35 74  1  0  0  0  0
 35 80  2  0  0  0  0
 36 69  1  0  0  0  0
 36 72  1  0  0  0  0
 36 81  2  0  0  0  0
 37 40  1  0  0  0  0
 38 52  1  0  0  0  0
 39 67  1  0  0  0  0
 40 44  1  0  0  0  0
 41 42  1  0  0  0  0
 41 45  1  0  0  0  0
 42 47  1  0  0  0  0
 43 46  1  0  0  0  0
 43 48  1  0  0  0  0
 44 50  1  0  0  0  0
 45 51  1  0  0  0  0
 46 53  1  0  0  0  0
 47 68  1  0  0  0  0
 48 69  1  0  0  0  0
 49 53  1  0  0  0  0
 49 69  1  0  0  0  0
 50 73  1  0  0  0  0
 51 68  1  0  0  0  0
 52 67  1  0  0  0  0
 53 66  1  0  0  0  0
 54 61  1  0  0  0  0
 55 63  1  0  0  0  0
 56 63  1  0  0  0  0
 57 63  1  0  0  0  0
 58 75  1  0  0  0  0
 59 62  1  0  0  0  0
 59 83  1  0  0  0  0
 60 63  1  0  0  0  0
 60 74  1  0  0  0  0
 61 75  1  0  0  0  0
 62 86  1  0  0  0  0
 62 87  1  0  0  0  0
 64 66  1  0  0  0  0
M  CHG  1  75   1
M  ISO  4  36 100  59 101  72 100  83 101
M  END
> <Batch ID>
0160

> <Smiles>
CNC(C)C(=O)NC(C(=O)N1Cc2cc([101O:1][101CH2:1]C(F)(F)C(=O)N3CCCCC3c3nc([100NH:0][100C:0](=O)N4CCCC(n5nc(-c6ccc(Oc7ccc(F)cc7F)cc6)c(C(N)=O)c5N)C4)cs3)ccc2CC1C(=O)NC1CCCc2ccccc21)C(C)(C)C

> <Shape>
0.234

> <Color>
0.052

> <Negative vol penalty>
0.000

$$$$

  -OEChem-04052303503D

 86 94  0     1  0  0  0  0  0999 V2000
  -27.5738  -23.8282   17.5087 C   0  0  0  0  0  0  0  0  0  0  0  0
  -26.3709  -24.2494   18.0665 C   0  0  0  0  0  0  0  0  0  0  0  0
  -26.4253  -13.8729   21.2234 C   0  0  0  0  0  0  0  0  0  0  0  0
  -25.6540  -14.6398   19.0661 C   0  0  0  0  0  0  0  0  0  0  0  0
  -28.7816  -24.1927   18.1022 C   0  0  0  0  0  0  0  0  0  0  0  0
  -26.3752  -25.0346   19.2189 C   0  0  0  0  0  0  0  0  0  0  0  0
  -23.1518  -28.9295   18.9279 C   0  0  0  0  0  0  0  0  0  0  0  0
  -25.9276  -12.5992   20.9487 C   0  0  0  0  0  0  0  0  0  0  0  0
  -25.1562  -13.3660   18.7913 C   0  0  0  0  0  0  0  0  0  0  0  0
  -21.8001  -28.6537   19.1295 C   0  0  0  0  0  0  0  0  0  0  0  0
  -24.5403   -9.2379   20.9612 C   0  0  0  0  0  0  0  0  0  0  0  0
  -23.8218   -8.5901   21.9660 C   0  0  0  0  0  0  0  0  0  0  0  0
  -21.5615  -23.1396   19.9552 C   0  0  0  0  0  0  0  0  0  0  0  0
  -20.5997  -23.4233   17.7572 C   0  0  0  0  0  0  0  0  0  0  0  0
  -21.9817  -29.4526   21.3984 C   0  0  0  0  0  0  0  0  0  0  0  0
  -22.6086  -22.1104   18.0365 C   0  0  0  0  0  0  0  0  0  0  0  0
  -22.2093  -10.3893   21.9729 C   0  0  0  0  0  0  0  0  0  0  0  0
  -26.2885  -14.8932   20.2821 C   0  0  0  0  0  0  0  0  0  0  0  0
  -20.5714  -23.6718   19.1295 C   0  0  0  0  0  0  0  0  0  0  0  0
  -28.0903  -16.6991   20.2788 C   0  0  0  0  0  0  0  0  0  0  0  0
  -28.8009  -24.9907   19.2569 C   0  0  0  0  0  0  0  0  0  0  0  0
  -23.9325  -29.4596   19.9652 C   0  0  0  0  0  0  0  0  0  0  0  0
  -27.5844  -25.4090   19.8292 C   0  0  0  0  0  0  0  0  0  0  0  0
  -23.3425  -29.7365   21.2067 C   0  0  0  0  0  0  0  0  0  0  0  0
  -22.5802  -22.3590   19.4087 C   0  0  0  0  0  0  0  0  0  0  0  0
  -25.2930  -12.3458   19.7327 C   0  0  0  0  0  0  0  0  0  0  0  0
  -21.2155  -28.9126   20.3658 C   0  0  0  0  0  0  0  0  0  0  0  0
  -24.0934  -10.4614   20.4623 C   0  0  0  0  0  0  0  0  0  0  0  0
  -22.6563   -9.1657   22.4719 C   0  0  0  0  0  0  0  0  0  0  0  0
  -21.6183  -22.6426   17.2107 C   0  0  0  0  0  0  0  0  0  0  0  0
  -22.9279  -11.0371   20.9681 C   0  0  0  0  0  0  0  0  0  0  0  0
  -26.8020  -16.2093   20.5656 C   0  0  0  0  0  0  0  0  0  0  0  0
  -28.0770  -17.9921   20.7422 C   0  0  0  0  0  0  0  0  0  0  0  0
  -19.4935  -24.4994   19.7072 C   0  0  0  0  0  0  0  0  0  0  0  0
  -29.1997  -16.0440   19.6498 C   0  0  0  0  0  0  0  0  0  0  0  0
  -26.4884  -28.4741   21.5776 C   0  0  0  0  0  0  0  0  0  0  0  0
  -18.7457  -28.3969   22.6733 C   0  0  0  0  0  0  0  0  0  0  0  0
  -26.3310  -31.4425   22.8760 C   0  0  0  0  0  0  0  0  0  0  0  0
  -24.4323  -34.1731   23.6412 C   0  0  0  0  0  0  0  0  0  0  0  0
  -23.7037  -21.9660   21.6290 C   0  0  0  0  0  0  0  0  0  0  0  0
  -30.1298  -25.3199   19.8897 C   0  0  0  0  0  0  0  0  0  0  0  0
  -25.3829  -29.7764   19.7235 C   0  0  0  0  0  0  0  0  0  0  0  0
  -24.1322  -30.3243   22.3465 C   0  0  0  0  0  0  0  0  0  0  0  0
  -30.0583  -26.4660   20.8955 C   0  0  0  0  0  0  0  0  0  0  0  0
  -26.0104  -20.7605   24.0586 C   0  0  0  0  0  0  0  0  0  0  0  0
  -28.8732  -26.2768   21.8370 C   0  0  0  0  0  0  0  0  0  0  0  0
  -26.5968  -19.5045   23.4100 C   0  0  0  0  0  0  0  0  0  0  0  0
  -24.5277  -20.9283   23.7312 C   0  0  0  0  0  0  0  0  0  0  0  0
  -24.7860  -19.6328   21.6517 C   0  0  0  0  0  0  0  0  0  0  0  0
  -27.5485  -26.2823   21.0645 C   0  0  1  0  0  0  0  0  0  0  0  0
  -26.2038  -29.8350   21.0080 C   0  0  1  0  0  0  0  0  0  0  0  0
  -26.2929  -19.4560   21.8997 C   0  0  2  0  0  0  0  0  0  0  0  0
  -18.9330  -27.9207   24.0912 C   0  0  0  0  0  0  0  0  0  0  0  0
  -24.5741  -36.4271   24.7352 C   0  0  0  0  0  0  0  0  0  0  0  0
  -26.3483  -30.1073   25.6195 C   0  0  0  0  0  0  0  0  0  0  0  0
  -25.5433  -32.2665   26.5983 C   0  0  0  0  0  0  0  0  0  0  0  0
  -27.7571  -32.1669   25.4528 C   0  0  0  0  0  0  0  0  0  0  0  0
  -23.6605  -35.5621   21.1445 C   0  0  0  0  0  0  0  0  0  0  0  0
  -18.8530  -26.5244   20.9666 C   0  0  0  0  0  0  0  0  0  0  0  0
  -19.5727  -27.7084   21.5933 C   0  0  1  0  0  0  0  0  0  1  0  0
  -25.6415  -32.0505   24.0734 C   0  0  1  0  0  0  0  0  0  0  0  0
  -24.6697  -35.6571   23.4272 C   0  0  2  0  0  0  0  0  0  0  0  0
  -26.3078  -31.6349   25.4153 C   0  0  0  0  0  0  0  0  0  0  0  0
  -26.0268  -17.1171   21.1648 N   0  0  0  0  0  0  0  0  0  0  0  0
  -26.8303  -18.1902   21.2585 N   0  0  0  0  0  0  0  0  0  0  0  0
  -25.5482  -30.6108   22.0628 N   0  0  0  0  0  0  0  0  0  0  0  0
  -24.3164  -20.8762   22.2829 N   0  0  0  0  0  0  0  0  0  0  0  0
  -29.0103  -18.9673   20.7543 N   0  0  0  0  0  0  0  0  0  0  0  0
  -18.2352  -24.0852   19.5584 N   0  0  0  0  0  0  0  0  0  0  0  0
  -29.0426  -14.7147   19.2343 N   0  0  0  0  0  0  0  0  0  0  0  0
  -23.5854  -21.8171   20.2476 N   0  0  0  0  0  0  0  0  0  0  0  0
  -27.1715  -27.6357   20.7173 N   0  0  0  0  0  0  0  0  0  0  0  0
  -25.6136  -33.4905   23.8409 N   0  0  0  0  0  0  0  0  0  0  0  0
  -19.8314  -25.6235   20.3485 N   0  3  0  0  0  0  0  0  0  0  0  0
  -23.6613  -36.2118   22.4805 N   0  3  0  0  0  0  0  0  0  0  0  0
  -30.3030  -16.6151   19.4765 O   0  0  0  0  0  0  0  0  0  0  0  0
  -26.1171  -28.2050   22.7140 O   0  0  0  0  0  0  0  0  0  0  0  0
  -17.9612  -29.3094   22.4124 O   0  0  0  0  0  0  0  0  0  0  0  0
  -27.5185  -31.7019   22.6657 O   0  0  0  0  0  0  0  0  0  0  0  0
  -23.3108  -33.6704   23.6358 O   0  0  0  0  0  0  0  0  0  0  0  0
  -23.3373  -22.9700   22.2453 O   0  0  0  0  0  0  0  0  0  0  0  0
  -24.8074  -11.1029   19.4641 O   0  0  0  0  0  0  0  0  0  0  0  0
  -19.8966  -28.6437   20.5654 O   0  0  0  0  0  0  0  0  0  1  0  0
  -21.9655   -8.5428   23.4357 F   0  0  0  0  0  0  0  0  0  0  0  0
  -21.6456  -22.4040   15.8930 F   0  0  0  0  0  0  0  0  0  0  0  0
  -22.4929  -12.2118   20.4919 F   0  0  0  0  0  0  0  0  0  0  0  0
  1  2  1  0  0  0  0
  1  5  2  0  0  0  0
  2  6  2  0  0  0  0
  3  8  2  0  0  0  0
  3 18  1  0  0  0  0
  4  9  1  0  0  0  0
  4 18  2  0  0  0  0
  5 21  1  0  0  0  0
  6 23  1  0  0  0  0
  7 10  2  0  0  0  0
  7 22  1  0  0  0  0
  8 26  1  0  0  0  0
  9 26  2  0  0  0  0
 10 27  1  0  0  0  0
 11 12  2  0  0  0  0
 11 28  1  0  0  0  0
 12 29  1  0  0  0  0
 13 19  2  0  0  0  0
 13 25  1  0  0  0  0
 14 19  1  0  0  0  0
 14 30  2  0  0  0  0
 15 24  1  0  0  0  0
 15 27  2  0  0  0  0
 16 25  2  0  0  0  0
 16 30  1  0  0  0  0
 17 29  2  0  0  0  0
 17 31  1  0  0  0  0
 18 32  1  0  0  0  0
 19 34  1  0  0  0  0
 20 32  1  0  0  0  0
 20 33  2  0  0  0  0
 20 35  1  0  0  0  0
 21 23  2  0  0  0  0
 21 41  1  0  0  0  0
 22 24  2  0  0  0  0
 22 42  1  0  0  0  0
 23 50  1  0  0  0  0
 24 43  1  0  0  0  0
 25 71  1  0  0  0  0
 26 82  1  0  0  0  0
 27 83  1  0  0  0  0
 28 31  2  0  0  0  0
 28 82  1  0  0  0  0
 29 84  1  0  0  0  0
 30 85  1  0  0  0  0
 31 86  1  0  0  0  0
 32 64  2  0  0  0  0
 33 65  1  0  0  0  0
 33 68  1  0  0  0  0
 34 69  1  0  0  0  0
 34 74  2  0  0  0  0
 35 70  1  0  0  0  0
 35 76  2  0  0  0  0
 36 51  1  0  0  0  0
 36 72  1  0  0  0  0
 36 77  2  0  0  0  0
 37 53  1  0  0  0  0
 37 60  1  0  0  0  0
 37 78  2  0  0  0  0
 38 61  1  0  0  0  0
 38 66  1  0  0  0  0
 38 79  2  0  0  0  0
 39 62  1  0  0  0  0
 39 73  1  0  0  0  0
 39 80  2  0  0  0  0
 40 67  1  0  0  0  0
 40 71  1  0  0  0  0
 40 81  2  0  0  0  0
 41 44  1  0  0  0  0
 42 51  1  0  0  0  0
 43 66  1  0  0  0  0
 44 46  1  0  0  0  0
 45 47  1  0  0  0  0
 45 48  1  0  0  0  0
 46 50  1  0  0  0  0
 47 52  1  0  0  0  0
 48 67  1  0  0  0  0
 49 52  1  0  0  0  0
 49 67  1  0  0  0  0
 50 72  1  0  0  0  0
 51 66  1  0  0  0  0
 52 65  1  0  0  0  0
 54 62  1  0  0  0  0
 55 63  1  0  0  0  0
 56 63  1  0  0  0  0
 57 63  1  0  0  0  0
 58 75  1  0  0  0  0
 59 60  1  0  0  0  0
 59 74  1  0  0  0  0
 60 83  1  0  0  0  0
 61 63  1  0  0  0  0
 61 73  1  0  0  0  0
 62 75  1  0  0  0  0
 64 65  1  0  0  0  0
M  CHG  2  74   1  75   1
M  ISO  4  40 100  60 101  71 100  83 101
M  END
> <Batch ID>
0160

> <Smiles>
CNC(C)C(=O)NC(C(=O)N1Cc2cc([101O:1][101CH:1](CNC(=N)c3cc(F)cc([100NH:0][100C:0](=O)N4CCCC(n5nc(-c6ccc(Oc7ccc(F)cc7F)cc6)c(C(N)=O)c5N)C4)c3)C(C)=O)ccc2CC1C(=O)NC1CCCc2ccccc21)C(C)(C)C

> <Shape>
0.291

> <Color>
0.071

> <Negative vol penalty>
0.000

$$$$

  -OEChem-04052303503D

 84 92  0     1  0  0  0  0  0999 V2000
  -16.9425  -30.0985   24.7413 C   0  0  0  0  0  0  0  0  0  0  0  0
  -17.9797  -29.1734   24.8013 C   0  0  0  0  0  0  0  0  0  0  0  0
  -32.0519  -18.1390   23.4677 C   0  0  0  0  0  0  0  0  0  0  0  0
  -23.2803   -9.5916   19.9796 C   0  0  0  0  0  0  0  0  0  0  0  0
  -23.8237   -9.8805   22.3159 C   0  0  0  0  0  0  0  0  0  0  0  0
  -31.1417  -19.0233   24.0466 C   0  0  0  0  0  0  0  0  0  0  0  0
  -16.9287  -31.0644   23.7359 C   0  0  0  0  0  0  0  0  0  0  0  0
  -19.0033  -29.2129   23.8552 C   0  0  0  0  0  0  0  0  0  0  0  0
  -24.9103  -27.8759   24.7639 C   0  0  0  0  0  0  0  0  0  0  0  0
  -31.5998  -17.1315   22.6154 C   0  0  0  0  0  0  0  0  0  0  0  0
  -22.5817   -8.4239   20.2865 C   0  0  0  0  0  0  0  0  0  0  0  0
  -23.1251   -8.7129   22.6228 C   0  0  0  0  0  0  0  0  0  0  0  0
  -25.6610  -26.7276   24.5156 C   0  0  0  0  0  0  0  0  0  0  0  0
  -19.9044   -7.7725   23.0273 C   0  0  0  0  0  0  0  0  0  0  0  0
  -19.0460   -7.8025   24.1263 C   0  0  0  0  0  0  0  0  0  0  0  0
  -29.3273  -17.8926   22.9212 C   0  0  0  0  0  0  0  0  0  0  0  0
  -26.3840  -27.6624   22.4126 C   0  0  0  0  0  0  0  0  0  0  0  0
  -20.3199   -6.0345   25.1696 C   0  0  0  0  0  0  0  0  0  0  0  0
  -23.9013  -10.3199   20.9943 C   0  0  0  0  0  0  0  0  0  0  0  0
  -29.7794  -18.9002   23.7733 C   0  0  0  0  0  0  0  0  0  0  0  0
  -24.1119  -12.8366   20.6349 C   0  0  0  0  0  0  0  0  0  0  0  0
  -17.9576  -31.1219   22.7828 C   0  0  0  0  0  0  0  0  0  0  0  0
  -24.8820  -28.9232   23.8318 C   0  0  0  0  0  0  0  0  0  0  0  0
  -19.0026  -30.1796   22.8353 C   0  0  0  0  0  0  0  0  0  0  0  0
  -25.6341  -28.8239   22.6526 C   0  0  0  0  0  0  0  0  0  0  0  0
  -30.2375  -17.0083   22.3422 C   0  0  0  0  0  0  0  0  0  0  0  0
  -22.5041   -7.9845   21.6081 C   0  0  0  0  0  0  0  0  0  0  0  0
  -26.3957  -26.6195   23.3385 C   0  0  0  0  0  0  0  0  0  0  0  0
  -20.9705   -6.8734   22.9994 C   0  0  0  0  0  0  0  0  0  0  0  0
  -19.2538   -6.9336   25.1975 C   0  0  0  0  0  0  0  0  0  0  0  0
  -21.1783   -6.0044   24.0706 C   0  0  0  0  0  0  0  0  0  0  0  0
  -24.6235  -11.5258   20.6779 C   0  0  0  0  0  0  0  0  0  0  0  0
  -25.1896  -13.6147   20.2889 C   0  0  0  0  0  0  0  0  0  0  0  0
  -28.8151  -19.8363   24.3853 C   0  0  0  0  0  0  0  0  0  0  0  0
  -22.7815  -13.3087   20.8855 C   0  0  0  0  0  0  0  0  0  0  0  0
  -22.6180  -30.3099   22.0839 C   0  0  0  0  0  0  0  0  0  0  0  0
  -27.9795  -23.3083   23.6803 C   0  0  0  0  0  0  0  0  0  0  0  0
  -25.0168  -32.3476   21.2995 C   0  0  0  0  0  0  0  0  0  0  0  0
  -28.3720  -32.8931   20.9965 C   0  0  0  0  0  0  0  0  0  0  0  0
  -30.5497  -15.0252   20.8203 C   0  0  0  0  0  0  0  0  0  0  0  0
  -17.8748  -32.1544   21.6865 C   0  0  0  0  0  0  0  0  0  0  0  0
  -24.0884  -30.1664   24.1268 C   0  0  0  0  0  0  0  0  0  0  0  0
  -25.6535  -29.9286   21.6290 C   0  0  0  0  0  0  0  0  0  0  0  0
  -19.1931  -32.3631   20.9456 C   0  0  0  0  0  0  0  0  0  0  0  0
  -29.7945  -12.3163   18.6366 C   0  0  0  0  0  0  0  0  0  0  0  0
  -19.8204  -31.0206   20.5837 C   0  0  0  0  0  0  0  0  0  0  0  0
  -28.3398  -11.9770   18.9694 C   0  0  0  0  0  0  0  0  0  0  0  0
  -30.5807  -12.7248   19.8811 C   0  0  0  0  0  0  0  0  0  0  0  0
  -28.5171  -13.4604   21.0079 C   0  0  0  0  0  0  0  0  0  0  0  0
  -20.1438  -30.2058   21.8419 C   0  0  1  0  0  0  0  0  0  0  0  0
  -23.7232  -30.9539   22.8722 C   0  0  1  0  0  0  0  0  0  0  0  0
  -27.6682  -13.1057   19.7760 C   0  0  2  0  0  0  0  0  0  0  0  0
  -30.0278  -34.6435   20.2950 C   0  0  0  0  0  0  0  0  0  0  0  0
  -24.3742  -31.7786   18.3715 C   0  0  0  0  0  0  0  0  0  0  0  0
  -26.5957  -32.7612   17.7652 C   0  0  0  0  0  0  0  0  0  0  0  0
  -24.8717  -34.1754   18.8836 C   0  0  0  0  0  0  0  0  0  0  0  0
  -29.5993  -32.9768   23.6883 C   0  0  0  0  0  0  0  0  0  0  0  0
  -28.0410  -22.1650   24.6590 C   0  0  0  0  0  0  0  0  0  0  0  0
  -27.0999  -24.4742   24.0855 C   0  0  0  0  0  0  0  0  0  1  0  0
  -26.0698  -32.3938   20.2187 C   0  0  1  0  0  0  0  0  0  0  0  0
  -29.2513  -34.0421   21.4561 C   0  0  2  0  0  0  0  0  0  0  0  0
  -25.4762  -32.7555   18.8280 C   0  0  0  0  0  0  0  0  0  0  0  0
  -25.9249  -11.4704   20.3826 N   0  0  0  0  0  0  0  0  0  0  0  0
  -26.2402  -12.7560   20.1507 N   0  0  0  0  0  0  0  0  0  0  0  0
  -24.8565  -31.1214   21.9602 N   0  0  0  0  0  0  0  0  0  0  0  0
  -29.8867  -13.8009   20.5919 N   0  0  0  0  0  0  0  0  0  0  0  0
  -25.3315  -14.9427   20.0924 N   0  0  0  0  0  0  0  0  0  0  0  0
  -21.7948  -12.3747   21.2297 N   0  0  0  0  0  0  0  0  0  0  0  0
  -29.7791  -15.9846   21.4764 N   0  0  0  0  0  0  0  0  0  0  0  0
  -28.9378  -21.1511   24.1303 N   0  0  0  0  0  0  0  0  0  0  0  0
  -21.3501  -30.7018   22.4690 N   0  0  0  0  0  0  0  0  0  0  0  0
  -27.0967  -33.3175   20.6885 N   0  0  0  0  0  0  0  0  0  0  0  0
  -27.8622  -19.3328   25.1699 N   0  3  0  0  0  0  0  0  0  0  0  0
  -30.2265  -33.5708   22.4796 N   0  3  0  0  0  0  0  0  0  0  0  0
  -22.4729  -14.5209   20.7905 O   0  0  0  0  0  0  0  0  0  0  0  0
  -22.8950  -29.5173   21.1913 O   0  0  0  0  0  0  0  0  0  0  0  0
  -28.6001  -23.3035   22.6181 O   0  0  0  0  0  0  0  0  0  0  0  0
  -24.3656  -33.3641   21.5532 O   0  0  0  0  0  0  0  0  0  0  0  0
  -28.7772  -31.7357   20.9149 O   0  0  0  0  0  0  0  0  0  0  0  0
  -31.7060  -15.2186   20.4362 O   0  0  0  0  0  0  0  0  0  0  0  0
  -21.8224   -6.8453   21.9079 O   0  0  0  0  0  0  0  0  0  0  0  0
  -27.1289  -25.4996   23.0934 O   0  0  0  0  0  0  0  0  0  1  0  0
  -18.4303   -6.9636   26.2535 F   0  0  0  0  0  0  0  0  0  0  0  0
  -22.2015   -5.1393   24.0500 F   0  0  0  0  0  0  0  0  0  0  0  0
  1  2  1  0  0  0  0
  1  7  2  0  0  0  0
  2  8  2  0  0  0  0
  3  6  2  0  0  0  0
  3 10  1  0  0  0  0
  4 11  2  0  0  0  0
  4 19  1  0  0  0  0
  5 12  1  0  0  0  0
  5 19  2  0  0  0  0
  6 20  1  0  0  0  0
  7 22  1  0  0  0  0
  8 24  1  0  0  0  0
  9 13  2  0  0  0  0
  9 23  1  0  0  0  0
 10 26  2  0  0  0  0
 11 27  1  0  0  0  0
 12 27  2  0  0  0  0
 13 28  1  0  0  0  0
 14 15  2  0  0  0  0
 14 29  1  0  0  0  0
 15 30  1  0  0  0  0
 16 20  2  0  0  0  0
 16 26  1  0  0  0  0
 17 25  1  0  0  0  0
 17 28  2  0  0  0  0
 18 30  2  0  0  0  0
 18 31  1  0  0  0  0
 19 32  1  0  0  0  0
 20 34  1  0  0  0  0
 21 32  1  0  0  0  0
 21 33  2  0  0  0  0
 21 35  1  0  0  0  0
 22 24  2  0  0  0  0
 22 41  1  0  0  0  0
 23 25  2  0  0  0  0
 23 42  1  0  0  0  0
 24 50  1  0  0  0  0
 25 43  1  0  0  0  0
 26 69  1  0  0  0  0
 27 81  1  0  0  0  0
 28 82  1  0  0  0  0
 29 31  2  0  0  0  0
 29 81  1  0  0  0  0
 30 83  1  0  0  0  0
 31 84  1  0  0  0  0
 32 63  2  0  0  0  0
 33 64  1  0  0  0  0
 33 67  1  0  0  0  0
 34 70  1  0  0  0  0
 34 73  2  0  0  0  0
 35 68  1  0  0  0  0
 35 75  2  0  0  0  0
 36 51  1  0  0  0  0
 36 71  1  0  0  0  0
 36 76  2  0  0  0  0
 37 58  1  0  0  0  0
 37 59  1  0  0  0  0
 37 77  2  0  0  0  0
 38 60  1  0  0  0  0
 38 65  1  0  0  0  0
 38 78  2  0  0  0  0
 39 61  1  0  0  0  0
 39 72  1  0  0  0  0
 39 79  2  0  0  0  0
 40 66  1  0  0  0  0
 40 69  1  0  0  0  0
 40 80  2  0  0  0  0
 41 44  1  0  0  0  0
 42 51  1  0  0  0  0
 43 65  1  0  0  0  0
 44 46  1  0  0  0  0
 45 47  1  0  0  0  0
 45 48  1  0  0  0  0
 46 50  1  0  0  0  0
 47 52  1  0  0  0  0
 48 66  1  0  0  0  0
 49 52  1  0  0  0  0
 49 66  1  0  0  0  0
 50 71  1  0  0  0  0
 51 65  1  0  0  0  0
 52 64  1  0  0  0  0
 53 61  1  0  0  0  0
 54 62  1  0  0  0  0
 55 62  1  0  0  0  0
 56 62  1  0  0  0  0
 57 74  1  0  0  0  0
 58 70  1  0  0  0  0
 59 82  1  0  0  0  0
 60 62  1  0  0  0  0
 60 72  1  0  0  0  0
 61 74  1  0  0  0  0
 63 64  1  0  0  0  0
M  CHG  2  73   1  74   1
M  ISO  4  40 100  59 101  69 100  82 101
M  END
> <Batch ID>
0160

> <Smiles>
CNC(C)C(=O)NC(C(=O)N1Cc2cc([101O:1][101CH2:1]C(=O)CNC(=N)c3cccc([100NH:0][100C:0](=O)N4CCCC(n5nc(-c6ccc(Oc7ccc(F)cc7F)cc6)c(C(N)=O)c5N)C4)c3)ccc2CC1C(=O)NC1CCCc2ccccc21)C(C)(C)C

> <Shape>
0.261

> <Color>
0.183

> <Negative vol penalty>
0.000

$$$$

  -OEChem-04052303503D

 86 95  0     1  0  0  0  0  0999 V2000
  -35.3835  -27.2155   11.8683 C   0  0  0  0  0  0  0  0  0  0  0  0
  -34.6209  -26.4007   12.6989 C   0  0  0  0  0  0  0  0  0  0  0  0
  -23.0779   -9.8642   19.9422 C   0  0  0  0  0  0  0  0  0  0  0  0
  -23.8357   -9.8757   22.2363 C   0  0  0  0  0  0  0  0  0  0  0  0
  -36.4343  -27.9621   12.3997 C   0  0  0  0  0  0  0  0  0  0  0  0
  -34.9094  -26.3312   14.0614 C   0  0  0  0  0  0  0  0  0  0  0  0
  -30.9031  -25.6462   18.6425 C   0  0  0  0  0  0  0  0  0  0  0  0
  -22.3349   -8.7107   20.1934 C   0  0  0  0  0  0  0  0  0  0  0  0
  -23.0926   -8.7222   22.4875 C   0  0  0  0  0  0  0  0  0  0  0  0
  -30.4971  -24.5314   19.3747 C   0  0  0  0  0  0  0  0  0  0  0  0
  -19.8647   -7.9224   23.0884 C   0  0  0  0  0  0  0  0  0  0  0  0
  -19.1067   -7.8837   24.2586 C   0  0  0  0  0  0  0  0  0  0  0  0
  -29.8709  -17.4658   23.1336 C   0  0  0  0  0  0  0  0  0  0  0  0
  -31.8426  -18.3734   24.1945 C   0  0  0  0  0  0  0  0  0  0  0  0
  -32.0930  -25.0882   21.0958 C   0  0  0  0  0  0  0  0  0  0  0  0
  -32.0564  -16.6194   22.5468 C   0  0  0  0  0  0  0  0  0  0  0  0
  -20.3492   -5.9486   24.9994 C   0  0  0  0  0  0  0  0  0  0  0  0
  -23.8284  -10.4466   20.9637 C   0  0  0  0  0  0  0  0  0  0  0  0
  -30.4569  -18.3530   24.0365 C   0  0  0  0  0  0  0  0  0  0  0  0
  -24.1679  -12.9719   20.8398 C   0  0  0  0  0  0  0  0  0  0  0  0
  -36.7296  -27.9091   13.7710 C   0  0  0  0  0  0  0  0  0  0  0  0
  -31.9164  -26.4857   19.1271 C   0  0  0  0  0  0  0  0  0  0  0  0
  -35.9659  -27.0768   14.6115 C   0  0  0  0  0  0  0  0  0  0  0  0
  -32.5083  -26.2144   20.3690 C   0  0  0  0  0  0  0  0  0  0  0  0
  -30.6707  -16.5990   22.3888 C   0  0  0  0  0  0  0  0  0  0  0  0
  -22.3422   -8.1398   21.4660 C   0  0  0  0  0  0  0  0  0  0  0  0
  -31.0941  -24.2506   20.6002 C   0  0  0  0  0  0  0  0  0  0  0  0
  -20.8649   -6.9742   22.8736 C   0  0  0  0  0  0  0  0  0  0  0  0
  -19.3489   -6.8969   25.2142 C   0  0  0  0  0  0  0  0  0  0  0  0
  -32.6424  -17.5066   23.4497 C   0  0  0  0  0  0  0  0  0  0  0  0
  -21.1072   -5.9873   23.8291 C   0  0  0  0  0  0  0  0  0  0  0  0
  -24.5966  -11.6378   20.7047 C   0  0  0  0  0  0  0  0  0  0  0  0
  -25.2597  -13.7218   20.4763 C   0  0  0  0  0  0  0  0  0  0  0  0
  -29.2138  -22.3197   22.9704 C   0  0  0  0  0  0  0  0  0  0  0  0
  -29.6814  -23.3180   22.2143 C   0  0  0  0  0  0  0  0  0  1  0  0
  -29.6123  -19.2682   24.8247 C   0  0  0  0  0  0  0  0  0  0  0  0
  -22.8966  -13.4872   21.2566 C   0  0  0  0  0  0  0  0  0  0  0  0
  -34.8078  -27.3291   18.1112 C   0  0  0  0  0  0  0  0  0  0  0  0
  -34.6828  -29.3485   20.6466 C   0  0  0  0  0  0  0  0  0  0  0  0
  -33.3648  -30.0751   23.7096 C   0  0  0  0  0  0  0  0  0  0  0  0
  -30.7248  -14.7728   20.6543 C   0  0  0  0  0  0  0  0  0  0  0  0
  -37.9051  -28.6979   14.2914 C   0  0  0  0  0  0  0  0  0  0  0  0
  -32.3243  -27.6993   18.3378 C   0  0  0  0  0  0  0  0  0  0  0  0
  -33.5863  -27.0957   20.9431 C   0  0  0  0  0  0  0  0  0  0  0  0
  -28.0994  -22.4404   23.9681 C   0  0  0  0  0  0  0  0  0  0  0  0
  -29.8028  -20.9437   23.0346 C   0  0  0  0  0  0  0  0  0  0  0  0
  -37.9083  -28.8562   15.8097 C   0  0  0  0  0  0  0  0  0  0  0  0
  -29.6148  -12.3540   18.2890 C   0  0  0  0  0  0  0  0  0  0  0  0
  -37.6195  -27.5199   16.4863 C   0  0  0  0  0  0  0  0  0  0  0  0
  -28.1751  -12.0618   18.7177 C   0  0  0  0  0  0  0  0  0  0  0  0
  -28.4940  -21.4476   25.0547 C   0  0  0  0  0  0  0  0  0  0  0  0
  -30.5286  -12.5857   19.4911 C   0  0  0  0  0  0  0  0  0  0  0  0
  -28.6197  -13.3106   20.8694 C   0  0  0  0  0  0  0  0  0  0  0  0
  -36.2322  -26.9938   16.0988 C   0  0  1  0  0  0  0  0  0  0  0  0
  -33.7239  -28.1962   18.6865 C   0  0  1  0  0  0  0  0  0  0  0  0
  -27.6481  -13.1345   19.6910 C   0  0  2  0  0  0  0  0  0  0  0  0
  -33.4840  -31.7739   25.5528 C   0  0  0  0  0  0  0  0  0  0  0  0
  -37.3464  -28.1708   21.5565 C   0  0  0  0  0  0  0  0  0  0  0  0
  -36.9428  -29.1801   23.8119 C   0  0  0  0  0  0  0  0  0  0  0  0
  -37.1620  -30.6519   21.8098 C   0  0  0  0  0  0  0  0  0  0  0  0
  -30.5055  -30.7761   23.4059 C   0  0  0  0  0  0  0  0  0  0  0  0
  -35.0709  -29.2614   22.1029 C   0  0  1  0  0  0  0  0  0  0  0  0
  -32.7748  -31.3546   24.2745 C   0  0  2  0  0  0  0  0  0  0  0  0
  -36.6116  -29.2982   22.3088 C   0  0  0  0  0  0  0  0  0  0  0  0
  -25.8619  -11.5424   20.2877 N   0  0  0  0  0  0  0  0  0  0  0  0
  -26.2377  -12.8261   20.1576 N   0  0  0  0  0  0  0  0  0  0  0  0
  -29.3226  -20.4627   24.3406 N   0  0  0  0  0  0  0  0  0  0  0  0
  -33.9551  -28.2668   20.1307 N   0  0  0  0  0  0  0  0  0  0  0  0
  -29.9679  -13.6174   20.3663 N   0  0  0  0  0  0  0  0  0  0  0  0
  -25.4690  -15.0533   20.4012 N   0  0  0  0  0  0  0  0  0  0  0  0
  -21.8852  -12.5776   21.5945 N   0  0  0  0  0  0  0  0  0  0  0  0
  -30.0758  -15.6986   21.4706 N   0  0  0  0  0  0  0  0  0  0  0  0
  -35.2023  -27.6923   16.8376 N   0  0  0  0  0  0  0  0  0  0  0  0
  -34.3516  -30.3338   22.7819 N   0  0  0  0  0  0  0  0  0  0  0  0
  -29.1537  -18.8765   26.0098 N   0  3  0  0  0  0  0  0  0  0  0  0
  -31.3281  -31.1675   24.5794 N   0  3  0  0  0  0  0  0  0  0  0  0
  -22.6591  -14.7177   21.3117 O   0  0  0  0  0  0  0  0  0  0  0  0
  -35.2542  -26.4003   18.7742 O   0  0  0  0  0  0  0  0  0  0  0  0
  -35.0070  -30.3431   19.9928 O   0  0  0  0  0  0  0  0  0  0  0  0
  -32.9905  -28.9579   24.0592 O   0  0  0  0  0  0  0  0  0  0  0  0
  -31.8541  -14.9418   20.1875 O   0  0  0  0  0  0  0  0  0  0  0  0
  -21.6171   -7.0144   21.7116 O   0  0  0  0  0  0  0  0  0  0  0  0
  -30.7001  -23.1627   21.3166 O   0  0  0  0  0  0  0  0  0  1  0  0
  -18.6220   -6.8608   26.3386 F   0  0  0  0  0  0  0  0  0  0  0  0
  -33.9731  -17.5262   23.6015 F   0  0  0  0  0  0  0  0  0  0  0  0
  -22.0675   -5.0744   23.6289 F   0  0  0  0  0  0  0  0  0  0  0  0
  1  2  1  0  0  0  0
  1  5  2  0  0  0  0
  2  6  2  0  0  0  0
  3  8  2  0  0  0  0
  3 18  1  0  0  0  0
  4  9  1  0  0  0  0
  4 18  2  0  0  0  0
  5 21  1  0  0  0  0
  6 23  1  0  0  0  0
  7 10  2  0  0  0  0
  7 22  1  0  0  0  0
  8 26  1  0  0  0  0
  9 26  2  0  0  0  0
 10 27  1  0  0  0  0
 11 12  2  0  0  0  0
 11 28  1  0  0  0  0
 12 29  1  0  0  0  0
 13 19  2  0  0  0  0
 13 25  1  0  0  0  0
 14 19  1  0  0  0  0
 14 30  2  0  0  0  0
 15 24  1  0  0  0  0
 15 27  2  0  0  0  0
 16 25  2  0  0  0  0
 16 30  1  0  0  0  0
 17 29  2  0  0  0  0
 17 31  1  0  0  0  0
 18 32  1  0  0  0  0
 19 36  1  0  0  0  0
 20 32  1  0  0  0  0
 20 33  2  0  0  0  0
 20 37  1  0  0  0  0
 21 23  2  0  0  0  0
 21 42  1  0  0  0  0
 22 24  2  0  0  0  0
 22 43  1  0  0  0  0
 23 54  1  0  0  0  0
 24 44  1  0  0  0  0
 25 72  1  0  0  0  0
 26 82  1  0  0  0  0
 27 83  1  0  0  0  0
 28 31  2  0  0  0  0
 28 82  1  0  0  0  0
 29 84  1  0  0  0  0
 30 85  1  0  0  0  0
 31 86  1  0  0  0  0
 32 65  2  0  0  0  0
 33 66  1  0  0  0  0
 33 70  1  0  0  0  0
 34 35  2  0  0  0  0
 34 45  1  0  0  0  0
 34 46  1  0  0  0  0
 35 83  1  0  0  0  0
 36 67  1  0  0  0  0
 36 75  2  0  0  0  0
 37 71  1  0  0  0  0
 37 77  2  0  0  0  0
 38 55  1  0  0  0  0
 38 73  1  0  0  0  0
 38 78  2  0  0  0  0
 39 62  1  0  0  0  0
 39 68  1  0  0  0  0
 39 79  2  0  0  0  0
 40 63  1  0  0  0  0
 40 74  1  0  0  0  0
 40 80  2  0  0  0  0
 41 69  1  0  0  0  0
 41 72  1  0  0  0  0
 41 81  2  0  0  0  0
 42 47  1  0  0  0  0
 43 55  1  0  0  0  0
 44 68  1  0  0  0  0
 45 51  1  0  0  0  0
 46 67  1  0  0  0  0
 47 49  1  0  0  0  0
 48 50  1  0  0  0  0
 48 52  1  0  0  0  0
 49 54  1  0  0  0  0
 50 56  1  0  0  0  0
 51 67  1  0  0  0  0
 52 69  1  0  0  0  0
 53 56  1  0  0  0  0
 53 69  1  0  0  0  0
 54 73  1  0  0  0  0
 55 68  1  0  0  0  0
 56 66  1  0  0  0  0
 57 63  1  0  0  0  0
 58 64  1  0  0  0  0
 59 64  1  0  0  0  0
 60 64  1  0  0  0  0
 61 76  1  0  0  0  0
 62 64  1  0  0  0  0
 62 74  1  0  0  0  0
 63 76  1  0  0  0  0
 65 66  1  0  0  0  0
M  CHG  2  75   1  76   1
M  ISO  4  35 101  41 100  72 100  83 101
M  END
> <Batch ID>
0160

> <Smiles>
CNC(C)C(=O)NC(C(=O)N1Cc2cc([101O:1][101CH:1]=C3CCN(C(=N)c4cc(F)cc([100NH:0][100C:0](=O)N5CCCC(n6nc(-c7ccc(Oc8ccc(F)cc8F)cc7)c(C(N)=O)c6N)C5)c4)C3)ccc2CC1C(=O)NC1CCCc2ccccc21)C(C)(C)C

> <Shape>
0.197

> <Color>
0.188

> <Negative vol penalty>
0.000

$$$$

  -OEChem-04052303503D

 84 92  0     1  0  0  0  0  0999 V2000
  -40.7458  -27.9027   15.0231 C   0  0  0  0  0  0  0  0  0  0  0  0
  -39.8767  -27.2456   15.8882 C   0  0  0  0  0  0  0  0  0  0  0  0
  -22.9997   -9.8943   19.9812 C   0  0  0  0  0  0  0  0  0  0  0  0
  -23.7252   -9.9444   22.2851 C   0  0  0  0  0  0  0  0  0  0  0  0
  -42.0132  -28.2807   15.4644 C   0  0  0  0  0  0  0  0  0  0  0  0
  -40.2750  -26.9651   17.1947 C   0  0  0  0  0  0  0  0  0  0  0  0
  -36.6812  -28.0445   20.5954 C   0  0  0  0  0  0  0  0  0  0  0  0
  -22.2329   -8.7599   20.2473 C   0  0  0  0  0  0  0  0  0  0  0  0
  -22.9583   -8.8101   22.5513 C   0  0  0  0  0  0  0  0  0  0  0  0
  -35.6343  -27.1331   20.7265 C   0  0  0  0  0  0  0  0  0  0  0  0
  -23.2016   -5.4712   22.0785 C   0  0  0  0  0  0  0  0  0  0  0  0
  -23.7889   -4.4536   22.8302 C   0  0  0  0  0  0  0  0  0  0  0  0
  -36.6927  -26.2086   22.6872 C   0  0  0  0  0  0  0  0  0  0  0  0
  -31.8985  -17.3753   21.6092 C   0  0  0  0  0  0  0  0  0  0  0  0
  -22.0653   -4.6966   24.5058 C   0  0  0  0  0  0  0  0  0  0  0  0
  -29.8796  -17.7662   22.6926 C   0  0  0  0  0  0  0  0  0  0  0  0
  -23.7459  -10.4865   21.0000 C   0  0  0  0  0  0  0  0  0  0  0  0
  -24.1320  -13.0020   20.8246 C   0  0  0  0  0  0  0  0  0  0  0  0
  -42.4236  -28.0133   16.7799 C   0  0  0  0  0  0  0  0  0  0  0  0
  -37.7490  -28.0376   21.5044 C   0  0  0  0  0  0  0  0  0  0  0  0
  -41.5496  -27.3386   17.6536 C   0  0  0  0  0  0  0  0  0  0  0  0
  -37.7507  -27.1226   22.5669 C   0  0  0  0  0  0  0  0  0  0  0  0
  -30.5962  -16.8841   21.9142 C   0  0  0  0  0  0  0  0  0  0  0  0
  -22.2122   -8.2179   21.5324 C   0  0  0  0  0  0  0  0  0  0  0  0
  -35.6414  -26.2131   21.7708 C   0  0  0  0  0  0  0  0  0  0  0  0
  -22.0462   -6.1016   22.5404 C   0  0  0  0  0  0  0  0  0  0  0  0
  -23.2208   -4.0663   24.0439 C   0  0  0  0  0  0  0  0  0  0  0  0
  -21.4780   -5.7143   23.7540 C   0  0  0  0  0  0  0  0  0  0  0  0
  -24.5387  -11.6579   20.7256 C   0  0  0  0  0  0  0  0  0  0  0  0
  -32.1275  -18.6144   22.1661 C   0  0  0  0  0  0  0  0  0  0  0  0
  -25.2419  -13.7244   20.4603 C   0  0  0  0  0  0  0  0  0  0  0  0
  -34.9203  -23.9895   21.8496 C   0  0  0  0  0  0  0  0  0  1  0  0
  -22.8642  -13.5487   21.2114 C   0  0  0  0  0  0  0  0  0  0  0  0
  -33.3865  -19.3724   22.0163 C   0  0  0  0  0  0  0  0  0  0  0  0
  -33.9978  -23.0277   21.9657 C   0  0  0  0  0  0  0  0  0  0  0  0
  -34.4385  -21.6146   21.8936 C   0  0  0  0  0  0  0  0  0  0  0  0
  -40.8811  -27.5437   21.2818 C   0  0  0  0  0  0  0  0  0  0  0  0
  -40.8459  -28.4113   24.4073 C   0  0  0  0  0  0  0  0  0  0  0  0
  -39.0828  -28.6958   27.3154 C   0  0  0  0  0  0  0  0  0  0  0  0
  -30.7216  -14.6839   20.6937 C   0  0  0  0  0  0  0  0  0  0  0  0
  -43.8207  -28.3991   17.1971 C   0  0  0  0  0  0  0  0  0  0  0  0
  -38.8573  -29.0448   21.3647 C   0  0  0  0  0  0  0  0  0  0  0  0
  -38.8634  -27.0874   23.5812 C   0  0  0  0  0  0  0  0  0  0  0  0
  -44.0268  -28.3982   18.7097 C   0  0  0  0  0  0  0  0  0  0  0  0
  -29.6024  -12.2317   18.3675 C   0  0  0  0  0  0  0  0  0  0  0  0
  -43.4477  -27.1290   19.3266 C   0  0  0  0  0  0  0  0  0  0  0  0
  -28.1518  -11.9744   18.7817 C   0  0  0  0  0  0  0  0  0  0  0  0
  -30.5032  -12.4747   19.5772 C   0  0  0  0  0  0  0  0  0  0  0  0
  -28.5882  -13.2638   20.9110 C   0  0  0  0  0  0  0  0  0  0  0  0
  -41.9359  -27.0387   19.0857 C   0  0  1  0  0  0  0  0  0  0  0  0
  -40.1499  -28.6095   22.0481 C   0  0  1  0  0  0  0  0  0  0  0  0
  -27.6303  -13.0779   19.7229 C   0  0  2  0  0  0  0  0  0  0  0  0
  -39.3340  -29.4021   29.7103 C   0  0  0  0  0  0  0  0  0  0  0  0
  -42.3261  -25.8135   25.0157 C   0  0  0  0  0  0  0  0  0  0  0  0
  -41.7114  -26.1089   27.4246 C   0  0  0  0  0  0  0  0  0  0  0  0
  -43.1461  -27.8040   26.2884 C   0  0  0  0  0  0  0  0  0  0  0  0
  -37.0451  -30.8221   27.0231 C   0  0  0  0  0  0  0  0  0  0  0  0
  -40.6862  -27.6798   25.7181 C   0  0  1  0  0  0  0  0  0  0  0  0
  -38.9501  -29.8391   28.3051 C   0  0  2  0  0  0  0  0  0  0  0  0
  -41.9473  -26.8507   26.0916 C   0  0  0  0  0  0  0  0  0  0  0  0
  -25.8079  -11.5311   20.3292 N   0  0  0  0  0  0  0  0  0  0  0  0
  -26.2083  -12.8048   20.1759 N   0  0  0  0  0  0  0  0  0  0  0  0
  -39.9276  -28.0882   23.3983 N   0  0  0  0  0  0  0  0  0  0  0  0
  -29.9485  -13.5356   20.4207 N   0  0  0  0  0  0  0  0  0  0  0  0
  -25.4758  -15.0500   20.3585 N   0  0  0  0  0  0  0  0  0  0  0  0
  -21.8322  -12.6648   21.5549 N   0  0  0  0  0  0  0  0  0  0  0  0
  -30.0777  -15.6391   21.4795 N   0  0  0  0  0  0  0  0  0  0  0  0
  -33.3239  -20.7112   22.0363 N   0  0  0  0  0  0  0  0  0  0  0  0
  -41.2261  -27.9121   19.9954 N   0  0  0  0  0  0  0  0  0  0  0  0
  -40.3199  -28.6884   26.7065 N   0  0  0  0  0  0  0  0  0  0  0  0
  -34.5151  -18.6786   21.8716 N   0  3  0  0  0  0  0  0  0  0  0  0
  -37.5460  -30.3379   28.3352 N   0  3  0  0  0  0  0  0  0  0  0  0
  -22.6479  -14.7841   21.2355 O   0  0  0  0  0  0  0  0  0  0  0  0
  -35.5847  -21.2276   21.7356 O   0  0  0  0  0  0  0  0  0  0  0  0
  -41.1162  -26.4674   21.8184 O   0  0  0  0  0  0  0  0  0  0  0  0
  -41.7478  -29.2441   24.2855 O   0  0  0  0  0  0  0  0  0  0  0  0
  -38.1807  -27.8877   27.1063 O   0  0  0  0  0  0  0  0  0  0  0  0
  -31.8603  -14.8226   20.2395 O   0  0  0  0  0  0  0  0  0  0  0  0
  -32.6578  -23.2896   22.1489 O   0  0  0  0  0  0  0  0  0  0  0  0
  -21.4638   -7.1111   21.7925 O   0  0  0  0  0  0  0  0  0  0  0  0
  -34.6211  -25.3220   21.9007 O   0  0  0  0  0  0  0  0  0  1  0  0
  -23.7840   -3.0881   24.7649 F   0  0  0  0  0  0  0  0  0  0  0  0
  -20.3674   -6.3154   24.2023 F   0  0  0  0  0  0  0  0  0  0  0  0
  -30.7761  -19.1801   23.0525 S   0  0  0  0  0  0  0  0  0  0  0  0
  1  2  1  0  0  0  0
  1  5  2  0  0  0  0
  2  6  2  0  0  0  0
  3  8  2  0  0  0  0
  3 17  1  0  0  0  0
  4  9  1  0  0  0  0
  4 17  2  0  0  0  0
  5 19  1  0  0  0  0
  6 21  1  0  0  0  0
  7 10  2  0  0  0  0
  7 20  1  0  0  0  0
  8 24  1  0  0  0  0
  9 24  2  0  0  0  0
 10 25  1  0  0  0  0
 11 12  2  0  0  0  0
 11 26  1  0  0  0  0
 12 27  1  0  0  0  0
 13 22  1  0  0  0  0
 13 25  2  0  0  0  0
 14 23  1  0  0  0  0
 14 30  2  0  0  0  0
 15 27  2  0  0  0  0
 15 28  1  0  0  0  0
 16 23  2  0  0  0  0
 16 84  1  0  0  0  0
 17 29  1  0  0  0  0
 18 29  1  0  0  0  0
 18 31  2  0  0  0  0
 18 33  1  0  0  0  0
 19 21  2  0  0  0  0
 19 41  1  0  0  0  0
 20 22  2  0  0  0  0
 20 42  1  0  0  0  0
 21 50  1  0  0  0  0
 22 43  1  0  0  0  0
 23 67  1  0  0  0  0
 24 80  1  0  0  0  0
 25 81  1  0  0  0  0
 26 28  2  0  0  0  0
 26 80  1  0  0  0  0
 27 82  1  0  0  0  0
 28 83  1  0  0  0  0
 29 61  2  0  0  0  0
 30 34  1  0  0  0  0
 30 84  1  0  0  0  0
 31 62  1  0  0  0  0
 31 65  1  0  0  0  0
 32 35  2  0  0  0  0
 32 81  1  0  0  0  0
 33 66  1  0  0  0  0
 33 73  2  0  0  0  0
 34 68  1  0  0  0  0
 34 71  2  0  0  0  0
 35 36  1  0  0  0  0
 35 79  1  0  0  0  0
 36 68  1  0  0  0  0
 36 74  2  0  0  0  0
 37 51  1  0  0  0  0
 37 69  1  0  0  0  0
 37 75  2  0  0  0  0
 38 58  1  0  0  0  0
 38 63  1  0  0  0  0
 38 76  2  0  0  0  0
 39 59  1  0  0  0  0
 39 70  1  0  0  0  0
 39 77  2  0  0  0  0
 40 64  1  0  0  0  0
 40 67  1  0  0  0  0
 40 78  2  0  0  0  0
 41 44  1  0  0  0  0
 42 51  1  0  0  0  0
 43 63  1  0  0  0  0
 44 46  1  0  0  0  0
 45 47  1  0  0  0  0
 45 48  1  0  0  0  0
 46 50  1  0  0  0  0
 47 52  1  0  0  0  0
 48 64  1  0  0  0  0
 49 52  1  0  0  0  0
 49 64  1  0  0  0  0
 50 69  1  0  0  0  0
 51 63  1  0  0  0  0
 52 62  1  0  0  0  0
 53 59  1  0  0  0  0
 54 60  1  0  0  0  0
 55 60  1  0  0  0  0
 56 60  1  0  0  0  0
 57 72  1  0  0  0  0
 58 60  1  0  0  0  0
 58 70  1  0  0  0  0
 59 72  1  0  0  0  0
 61 62  1  0  0  0  0
M  CHG  2  71   1  72   1
M  ISO  4  32 101  40 100  67 100  81 101
M  END
> <Batch ID>
0160

> <Smiles>
CNC(C)C(=O)NC(C(=O)N1Cc2cc([101O:1][101CH2:1]C(=O)C(=O)NC(=N)c3cc([100NH:0][100C:0](=O)N4CCCC(n5nc(-c6ccc(Oc7ccc(F)cc7F)cc6)c(C(N)=O)c5N)C4)cs3)ccc2CC1C(=O)NC1CCCc2ccccc21)C(C)(C)C

> <Shape>
0.174

> <Color>
0.189

> <Negative vol penalty>
0.000

$$$$

  -OEChem-04052303503D

 85 93  0     1  0  0  0  0  0999 V2000
  -26.9277  -32.0878   24.5523 C   0  0  0  0  0  0  0  0  0  0  0  0
  -26.4645  -30.7760   24.5457 C   0  0  0  0  0  0  0  0  0  0  0  0
  -23.4949   -9.7659   21.7669 C   0  0  0  0  0  0  0  0  0  0  0  0
  -24.1829  -10.9577   23.7526 C   0  0  0  0  0  0  0  0  0  0  0  0
  -27.6579  -32.5735   23.4684 C   0  0  0  0  0  0  0  0  0  0  0  0
  -26.7304  -29.9494   23.4546 C   0  0  0  0  0  0  0  0  0  0  0  0
  -28.2494  -25.3234   24.8466 C   0  0  0  0  0  0  0  0  0  0  0  0
  -22.9044   -8.7831   22.5613 C   0  0  0  0  0  0  0  0  0  0  0  0
  -23.5924   -9.9749   24.5471 C   0  0  0  0  0  0  0  0  0  0  0  0
  -27.2661  -24.4319   25.2732 C   0  0  0  0  0  0  0  0  0  0  0  0
  -20.9025   -6.1466   24.0633 C   0  0  0  0  0  0  0  0  0  0  0  0
  -19.6290   -5.7032   23.7069 C   0  0  0  0  0  0  0  0  0  0  0  0
  -27.2850  -23.3813   23.1017 C   0  0  0  0  0  0  0  0  0  0  0  0
  -18.7737   -7.9472   23.9717 C   0  0  0  0  0  0  0  0  0  0  0  0
  -30.8969  -18.0254   23.7777 C   0  0  0  0  0  0  0  0  0  0  0  0
  -24.1342  -10.8532   22.3625 C   0  0  0  0  0  0  0  0  0  0  0  0
  -29.1582  -18.2243   22.2482 C   0  0  0  0  0  0  0  0  0  0  0  0
  -24.1401  -13.0401   21.0491 C   0  0  0  0  0  0  0  0  0  0  0  0
  -27.9412  -31.7495   22.3677 C   0  0  0  0  0  0  0  0  0  0  0  0
  -28.7509  -25.2575   23.5387 C   0  0  0  0  0  0  0  0  0  0  0  0
  -27.4639  -30.4249   22.3544 C   0  0  0  0  0  0  0  0  0  0  0  0
  -28.2765  -24.2715   22.6618 C   0  0  0  0  0  0  0  0  0  0  0  0
  -30.4211  -17.6353   22.5453 C   0  0  0  0  0  0  0  0  0  0  0  0
  -22.9532   -8.8876   23.9514 C   0  0  0  0  0  0  0  0  0  0  0  0
  -26.7817  -23.4625   24.3999 C   0  0  0  0  0  0  0  0  0  0  0  0
  -21.1117   -7.4902   24.3740 C   0  0  0  0  0  0  0  0  0  0  0  0
  -18.5646   -6.6036   23.6611 C   0  0  0  0  0  0  0  0  0  0  0  0
  -20.0473   -8.3906   24.3282 C   0  0  0  0  0  0  0  0  0  0  0  0
  -24.7448  -11.8684   21.5425 C   0  0  0  0  0  0  0  0  0  0  0  0
  -25.1325  -13.6630   20.3324 C   0  0  0  0  0  0  0  0  0  0  0  0
  -28.7167  -19.0421   23.2652 C   0  0  0  0  0  0  0  0  0  0  0  0
  -28.4291  -17.9918   21.0304 C   0  0  0  0  0  0  0  0  0  0  0  0
  -22.8011  -13.5222   21.2231 C   0  0  0  0  0  0  0  0  0  0  0  0
  -28.7867  -27.2318   21.0478 C   0  0  0  0  0  0  0  0  0  0  0  0
  -30.6602  -24.9272   19.7435 C   0  0  0  0  0  0  0  0  0  0  0  0
  -31.6087  -21.6493   19.6922 C   0  0  0  0  0  0  0  0  0  0  0  0
  -27.1705  -20.6275   24.4629 C   0  0  0  0  0  0  0  0  0  0  0  0
  -30.8520  -14.5492   20.4570 C   0  0  0  0  0  0  0  0  0  0  0  0
  -28.6937  -32.3334   21.1984 C   0  0  0  0  0  0  0  0  0  0  0  0
  -29.8307  -26.2094   23.1022 C   0  0  0  0  0  0  0  0  0  0  0  0
  -28.7965  -24.1457   21.2539 C   0  0  0  0  0  0  0  0  0  0  0  0
  -29.2534  -31.2793   20.2466 C   0  0  0  0  0  0  0  0  0  0  0  0
  -29.3639  -12.1953   18.2386 C   0  0  0  0  0  0  0  0  0  0  0  0
  -28.1935  -30.2288   19.9305 C   0  0  0  0  0  0  0  0  0  0  0  0
  -27.9649  -11.9800   18.8186 C   0  0  0  0  0  0  0  0  0  0  0  0
  -30.4073  -12.3847   19.3375 C   0  0  0  0  0  0  0  0  0  0  0  0
  -28.6934  -13.2282   20.8946 C   0  0  0  0  0  0  0  0  0  0  0  0
  -27.7532  -29.4900   21.2001 C   0  0  1  0  0  0  0  0  0  0  0  0
  -29.9005  -26.3800   21.5878 C   0  0  1  0  0  0  0  0  0  0  0  0
  -27.5979  -13.0882   19.8238 C   0  0  2  0  0  0  0  0  0  0  0  0
  -33.1328  -20.0582   18.4911 C   0  0  0  0  0  0  0  0  0  0  0  0
  -24.6753  -20.4765   24.7956 C   0  0  0  0  0  0  0  0  0  0  0  0
  -28.7472  -24.8927   17.3667 C   0  0  0  0  0  0  0  0  0  0  0  0
  -29.7411  -22.6974   16.6876 C   0  0  0  0  0  0  0  0  0  0  0  0
  -31.1685  -24.7420   16.7593 C   0  0  0  0  0  0  0  0  0  0  0  0
  -33.0960  -21.0196   22.1722 C   0  0  0  0  0  0  0  0  0  0  0  0
  -31.1477  -16.7091   21.6431 C   0  0  0  0  0  0  0  0  0  0  0  0
  -30.4112  -23.6825   18.9263 C   0  0  1  0  0  0  0  0  0  0  0  0
  -32.9796  -20.9975   19.6773 C   0  0  2  0  0  0  0  0  0  0  0  0
  -25.8199  -21.2951   24.2170 C   0  0  1  0  0  0  0  0  0  1  0  0
  -30.0056  -24.0070   17.4608 C   0  0  0  0  0  0  0  0  0  0  0  0
  -26.0223  -11.7516   21.1705 N   0  0  0  0  0  0  0  0  0  0  0  0
  -26.2285  -12.8578   20.4357 N   0  0  0  0  0  0  0  0  0  0  0  0
  -29.8473  -25.1036   20.8722 N   0  0  0  0  0  0  0  0  0  0  0  0
  -30.0000  -13.4507   20.2559 N   0  0  0  0  0  0  0  0  0  0  0  0
  -25.1658  -14.8154   19.6300 N   0  0  0  0  0  0  0  0  0  0  0  0
  -27.5439  -16.9797   20.9400 N   0  0  0  0  0  0  0  0  0  0  0  0
  -21.9102  -12.7584   21.9893 N   0  0  0  0  0  0  0  0  0  0  0  0
  -27.5387  -19.8156   23.3952 N   0  0  0  0  0  0  0  0  0  0  0  0
  -28.7433  -28.5058   21.5813 N   0  0  0  0  0  0  0  0  0  0  0  0
  -31.6154  -22.8676   19.0466 N   0  0  0  0  0  0  0  0  0  0  0  0
  -30.3872  -15.5176   21.3384 N   0  0  0  0  0  0  0  0  0  0  0  0
  -28.6145  -18.7823   19.9548 N   0  3  0  0  0  0  0  0  0  0  0  0
  -33.1947  -20.2150   20.9273 N   0  3  0  0  0  0  0  0  0  0  0  0
  -22.4017  -14.5904   20.7006 O   0  0  0  0  0  0  0  0  0  0  0  0
  -28.0241  -26.7680   20.2081 O   0  0  0  0  0  0  0  0  0  0  0  0
  -31.5481  -25.7104   19.3972 O   0  0  0  0  0  0  0  0  0  0  0  0
  -30.6290  -21.1280   20.2203 O   0  0  0  0  0  0  0  0  0  0  0  0
  -27.8071  -20.8391   25.4911 O   0  0  0  0  0  0  0  0  0  0  0  0
  -31.9436  -14.6614   19.8888 O   0  0  0  0  0  0  0  0  0  0  0  0
  -22.3769   -7.9290   24.7269 O   0  0  0  0  0  0  0  0  0  0  0  0
  -25.8214  -22.5915   24.8135 O   0  0  0  0  0  0  0  0  0  1  0  0
  -17.3419   -6.1780   23.3173 F   0  0  0  0  0  0  0  0  0  0  0  0
  -20.2424   -9.6828   24.6244 F   0  0  0  0  0  0  0  0  0  0  0  0
  -29.8229  -19.0975   24.5711 S   0  0  0  0  0  0  0  0  0  0  0  0
  1  2  1  0  0  0  0
  1  5  2  0  0  0  0
  2  6  2  0  0  0  0
  3  8  2  0  0  0  0
  3 16  1  0  0  0  0
  4  9  1  0  0  0  0
  4 16  2  0  0  0  0
  5 19  1  0  0  0  0
  6 21  1  0  0  0  0
  7 10  2  0  0  0  0
  7 20  1  0  0  0  0
  8 24  1  0  0  0  0
  9 24  2  0  0  0  0
 10 25  1  0  0  0  0
 11 12  2  0  0  0  0
 11 26  1  0  0  0  0
 12 27  1  0  0  0  0
 13 22  1  0  0  0  0
 13 25  2  0  0  0  0
 14 27  2  0  0  0  0
 14 28  1  0  0  0  0
 15 23  2  0  0  0  0
 15 85  1  0  0  0  0
 16 29  1  0  0  0  0
 17 23  1  0  0  0  0
 17 31  2  0  0  0  0
 17 32  1  0  0  0  0
 18 29  1  0  0  0  0
 18 30  2  0  0  0  0
 18 33  1  0  0  0  0
 19 21  2  0  0  0  0
 19 39  1  0  0  0  0
 20 22  2  0  0  0  0
 20 40  1  0  0  0  0
 21 48  1  0  0  0  0
 22 41  1  0  0  0  0
 23 57  1  0  0  0  0
 24 81  1  0  0  0  0
 25 82  1  0  0  0  0
 26 28  2  0  0  0  0
 26 81  1  0  0  0  0
 27 83  1  0  0  0  0
 28 84  1  0  0  0  0
 29 62  2  0  0  0  0
 30 63  1  0  0  0  0
 30 66  1  0  0  0  0
 31 69  1  0  0  0  0
 31 85  1  0  0  0  0
 32 67  1  0  0  0  0
 32 73  2  0  0  0  0
 33 68  1  0  0  0  0
 33 75  2  0  0  0  0
 34 49  1  0  0  0  0
 34 70  1  0  0  0  0
 34 76  2  0  0  0  0
 35 58  1  0  0  0  0
 35 64  1  0  0  0  0
 35 77  2  0  0  0  0
 36 59  1  0  0  0  0
 36 71  1  0  0  0  0
 36 78  2  0  0  0  0
 37 60  1  0  0  0  0
 37 69  1  0  0  0  0
 37 79  2  0  0  0  0
 38 65  1  0  0  0  0
 38 72  1  0  0  0  0
 38 80  2  0  0  0  0
 39 42  1  0  0  0  0
 40 49  1  0  0  0  0
 41 64  1  0  0  0  0
 42 44  1  0  0  0  0
 43 45  1  0  0  0  0
 43 46  1  0  0  0  0
 44 48  1  0  0  0  0
 45 50  1  0  0  0  0
 46 65  1  0  0  0  0
 47 50  1  0  0  0  0
 47 65  1  0  0  0  0
 48 70  1  0  0  0  0
 49 64  1  0  0  0  0
 50 63  1  0  0  0  0
 51 59  1  0  0  0  0
 52 60  1  0  0  0  0
 53 61  1  0  0  0  0
 54 61  1  0  0  0  0
 55 61  1  0  0  0  0
 56 74  1  0  0  0  0
 57 72  1  0  0  0  0
 58 61  1  0  0  0  0
 58 71  1  0  0  0  0
 59 74  1  0  0  0  0
 60 82  1  0  0  0  0
 62 63  1  0  0  0  0
M  CHG  2  73   1  74   1
M  ISO  4  38 100  60 101  72 100  82 101
M  END
> <Batch ID>
0160

> <Smiles>
CNC(C)C(=O)NC(C(=O)N1Cc2cc([101O:1][101CH:1](C)C(=O)Nc3scc(C[100NH:0][100C:0](=O)N4CCCC(n5nc(-c6ccc(Oc7ccc(F)cc7F)cc6)c(C(N)=O)c5N)C4)c3C(=N)N)ccc2CC1C(=O)NC1CCCc2ccccc21)C(C)(C)C

> <Shape>
0.270

> <Color>
0.154

> <Negative vol penalty>
0.000

$$$$

  -OEChem-04052303503D

 86 94  0     1  0  0  0  0  0999 V2000
  -24.7464  -36.7974   16.2611 C   0  0  0  0  0  0  0  0  0  0  0  0
  -25.3942  -35.5663   16.2777 C   0  0  0  0  0  0  0  0  0  0  0  0
  -24.2268   -8.9285   21.3958 C   0  0  0  0  0  0  0  0  0  0  0  0
  -25.0829   -9.8633   23.4526 C   0  0  0  0  0  0  0  0  0  0  0  0
  -24.4704  -37.4547   17.4593 C   0  0  0  0  0  0  0  0  0  0  0  0
  -25.7673  -34.9924   17.4925 C   0  0  0  0  0  0  0  0  0  0  0  0
  -25.8472  -29.0268   18.8752 C   0  0  0  0  0  0  0  0  0  0  0  0
  -23.9103   -7.7463   22.0649 C   0  0  0  0  0  0  0  0  0  0  0  0
  -24.7664   -8.6811   24.1217 C   0  0  0  0  0  0  0  0  0  0  0  0
  -26.8739  -28.0841   18.9030 C   0  0  0  0  0  0  0  0  0  0  0  0
  -21.4698   -6.6226   24.1178 C   0  0  0  0  0  0  0  0  0  0  0  0
  -20.2202   -6.0535   23.8725 C   0  0  0  0  0  0  0  0  0  0  0  0
  -28.2914  -20.2301   20.8212 C   0  0  0  0  0  0  0  0  0  0  0  0
  -27.1384  -28.4509   21.2725 C   0  0  0  0  0  0  0  0  0  0  0  0
  -21.2932   -4.0454   23.0644 C   0  0  0  0  0  0  0  0  0  0  0  0
  -30.2402  -20.0221   19.4738 C   0  0  0  0  0  0  0  0  0  0  0  0
  -24.8132   -9.9871   22.0896 C   0  0  0  0  0  0  0  0  0  0  0  0
  -28.1931  -18.8433   20.8396 C   0  0  0  0  0  0  0  0  0  0  0  0
  -24.3163  -12.3368   21.2295 C   0  0  0  0  0  0  0  0  0  0  0  0
  -24.8317  -36.8840   18.6899 C   0  0  0  0  0  0  0  0  0  0  0  0
  -25.4650  -29.6978   20.0458 C   0  0  0  0  0  0  0  0  0  0  0  0
  -25.4971  -35.6433   18.7082 C   0  0  0  0  0  0  0  0  0  0  0  0
  -26.1048  -29.3999   21.2574 C   0  0  0  0  0  0  0  0  0  0  0  0
  -29.3315  -20.8386   20.1275 C   0  0  0  0  0  0  0  0  0  0  0  0
  -24.1800   -7.6225   23.4278 C   0  0  0  0  0  0  0  0  0  0  0  0
  -27.5217  -27.7981   20.1012 C   0  0  0  0  0  0  0  0  0  0  0  0
  -22.6312   -5.9031   23.8363 C   0  0  0  0  0  0  0  0  0  0  0  0
  -20.1319   -4.7649   23.3458 C   0  0  0  0  0  0  0  0  0  0  0  0
  -22.5429   -4.6145   23.3096 C   0  0  0  0  0  0  0  0  0  0  0  0
  -25.1409  -11.2084   21.3989 C   0  0  0  0  0  0  0  0  0  0  0  0
  -29.1526  -18.1161   20.1538 C   0  0  0  0  0  0  0  0  0  0  0  0
  -25.0848  -13.2187   20.5098 C   0  0  0  0  0  0  0  0  0  0  0  0
  -28.1950  -25.5746   20.3721 C   0  0  0  0  0  0  0  0  0  1  0  0
  -27.0996  -18.2150   21.5686 C   0  0  0  0  0  0  0  0  0  0  0  0
  -22.9756  -12.5671   21.6824 C   0  0  0  0  0  0  0  0  0  0  0  0
  -29.0993  -24.5890   20.4234 C   0  0  0  0  0  0  0  0  0  0  0  0
  -28.6350  -23.1891   20.6935 C   0  0  0  0  0  0  0  0  0  0  0  0
  -25.4440  -32.7342   20.9857 C   0  0  0  0  0  0  0  0  0  0  0  0
  -23.9195  -31.5152   23.5765 C   0  0  0  0  0  0  0  0  0  0  0  0
  -23.3032  -28.8154   25.5710 C   0  0  0  0  0  0  0  0  0  0  0  0
  -29.9238  -15.7974   19.5413 C   0  0  0  0  0  0  0  0  0  0  0  0
  -24.5545  -37.6543   19.9566 C   0  0  0  0  0  0  0  0  0  0  0  0
  -24.3376  -30.6925   20.0042 C   0  0  0  0  0  0  0  0  0  0  0  0
  -25.7185  -30.0776   22.5458 C   0  0  0  0  0  0  0  0  0  0  0  0
  -24.6481  -36.8028   21.2201 C   0  0  0  0  0  0  0  0  0  0  0  0
  -29.5025  -12.5561   18.1292 C   0  0  0  0  0  0  0  0  0  0  0  0
  -25.9104  -35.9468   21.1947 C   0  0  0  0  0  0  0  0  0  0  0  0
  -28.2624  -12.0094   18.8401 C   0  0  0  0  0  0  0  0  0  0  0  0
  -30.3671  -13.3991   19.0650 C   0  0  0  0  0  0  0  0  0  0  0  0
  -28.4168  -13.9325   20.4724 C   0  0  0  0  0  0  0  0  0  0  0  0
  -25.8955  -34.9768   20.0071 C   0  0  1  0  0  0  0  0  0  0  0  0
  -24.3777  -31.6897   21.1580 C   0  0  1  0  0  0  0  0  0  0  0  0
  -27.4813  -13.1306   19.5530 C   0  0  2  0  0  0  0  0  0  0  0  0
  -26.5648  -18.9371   22.7697 C   0  0  0  0  0  0  0  0  0  0  0  0
  -22.0469  -28.1366   27.6346 C   0  0  0  0  0  0  0  0  0  0  0  0
  -26.0178  -32.8991   25.3063 C   0  0  0  0  0  0  0  0  0  0  0  0
  -25.3029  -31.4447   27.2146 C   0  0  0  0  0  0  0  0  0  0  0  0
  -23.6817  -33.0387   26.1881 C   0  0  0  0  0  0  0  0  0  0  0  0
  -21.6834  -26.8407   24.0759 C   0  0  0  0  0  0  0  0  0  0  0  0
  -24.3559  -30.9629   24.9120 C   0  0  1  0  0  0  0  0  0  0  0  0
  -22.0085  -28.2417   26.1179 C   0  0  2  0  0  0  0  0  0  0  0  0
  -24.8484  -32.0748   25.8808 C   0  0  0  0  0  0  0  0  0  0  0  0
  -30.1773  -18.6717   19.4690 N   0  0  0  0  0  0  0  0  0  0  0  0
  -26.3412  -11.3571   20.8322 N   0  0  0  0  0  0  0  0  0  0  0  0
  -26.2764  -12.5893   20.2997 N   0  0  0  0  0  0  0  0  0  0  0  0
  -24.6145  -31.0472   22.4524 N   0  0  0  0  0  0  0  0  0  0  0  0
  -29.5610  -14.4433   19.7012 N   0  0  0  0  0  0  0  0  0  0  0  0
  -24.8508  -14.4633   20.0423 N   0  0  0  0  0  0  0  0  0  0  0  0
  -22.3327  -11.5556   22.4089 N   0  0  0  0  0  0  0  0  0  0  0  0
  -29.4585  -22.2482   20.0907 N   0  0  0  0  0  0  0  0  0  0  0  0
  -29.0646  -16.7019   20.1644 N   0  0  0  0  0  0  0  0  0  0  0  0
  -25.0298  -33.8509   20.2851 N   0  0  0  0  0  0  0  0  0  0  0  0
  -23.2313  -30.1839   25.4188 N   0  0  0  0  0  0  0  0  0  0  0  0
  -21.7675  -26.8816   25.5585 N   0  3  0  0  0  0  0  0  0  0  0  0
  -26.5865  -17.1347   21.2749 O   0  0  0  0  0  0  0  0  0  0  0  0
  -22.3599  -13.6318   21.4356 O   0  0  0  0  0  0  0  0  0  0  0  0
  -27.6378  -22.9765   21.3748 O   0  0  0  0  0  0  0  0  0  0  0  0
  -26.5596  -32.5419   21.4550 O   0  0  0  0  0  0  0  0  0  0  0  0
  -22.9913  -32.3264   23.5317 O   0  0  0  0  0  0  0  0  0  0  0  0
  -24.2818  -28.1196   25.3088 O   0  0  0  0  0  0  0  0  0  0  0  0
  -30.9077  -16.1314   18.8763 O   0  0  0  0  0  0  0  0  0  0  0  0
  -30.4486  -24.8094   20.2355 O   0  0  0  0  0  0  0  0  0  0  0  0
  -23.8711   -6.4691   24.0811 O   0  0  0  0  0  0  0  0  0  0  0  0
  -28.5246  -26.8788   20.1310 O   0  0  0  0  0  0  0  0  0  1  0  0
  -18.9317   -4.2180   23.1118 F   0  0  0  0  0  0  0  0  0  0  0  0
  -23.6551   -3.9179   23.0383 F   0  0  0  0  0  0  0  0  0  0  0  0
  1  2  1  0  0  0  0
  1  5  2  0  0  0  0
  2  6  2  0  0  0  0
  3  8  2  0  0  0  0
  3 17  1  0  0  0  0
  4  9  1  0  0  0  0
  4 17  2  0  0  0  0
  5 20  1  0  0  0  0
  6 22  1  0  0  0  0
  7 10  2  0  0  0  0
  7 21  1  0  0  0  0
  8 25  1  0  0  0  0
  9 25  2  0  0  0  0
 10 26  1  0  0  0  0
 11 12  2  0  0  0  0
 11 27  1  0  0  0  0
 12 28  1  0  0  0  0
 13 18  1  0  0  0  0
 13 24  2  0  0  0  0
 14 23  1  0  0  0  0
 14 26  2  0  0  0  0
 15 28  2  0  0  0  0
 15 29  1  0  0  0  0
 16 24  1  0  0  0  0
 16 63  2  0  0  0  0
 17 30  1  0  0  0  0
 18 31  2  0  0  0  0
 18 34  1  0  0  0  0
 19 30  1  0  0  0  0
 19 32  2  0  0  0  0
 19 35  1  0  0  0  0
 20 22  2  0  0  0  0
 20 42  1  0  0  0  0
 21 23  2  0  0  0  0
 21 43  1  0  0  0  0
 22 51  1  0  0  0  0
 23 44  1  0  0  0  0
 24 70  1  0  0  0  0
 25 83  1  0  0  0  0
 26 84  1  0  0  0  0
 27 29  2  0  0  0  0
 27 83  1  0  0  0  0
 28 85  1  0  0  0  0
 29 86  1  0  0  0  0
 30 64  2  0  0  0  0
 31 63  1  0  0  0  0
 31 71  1  0  0  0  0
 32 65  1  0  0  0  0
 32 68  1  0  0  0  0
 33 36  2  0  0  0  0
 33 84  1  0  0  0  0
 34 54  1  0  0  0  0
 34 75  2  0  0  0  0
 35 69  1  0  0  0  0
 35 76  2  0  0  0  0
 36 37  1  0  0  0  0
 36 82  1  0  0  0  0
 37 70  1  0  0  0  0
 37 77  2  0  0  0  0
 38 52  1  0  0  0  0
 38 72  1  0  0  0  0
 38 78  2  0  0  0  0
 39 60  1  0  0  0  0
 39 66  1  0  0  0  0
 39 79  2  0  0  0  0
 40 61  1  0  0  0  0
 40 73  1  0  0  0  0
 40 80  2  0  0  0  0
 41 67  1  0  0  0  0
 41 71  1  0  0  0  0
 41 81  2  0  0  0  0
 42 45  1  0  0  0  0
 43 52  1  0  0  0  0
 44 66  1  0  0  0  0
 45 47  1  0  0  0  0
 46 48  1  0  0  0  0
 46 49  1  0  0  0  0
 47 51  1  0  0  0  0
 48 53  1  0  0  0  0
 49 67  1  0  0  0  0
 50 53  1  0  0  0  0
 50 67  1  0  0  0  0
 51 72  1  0  0  0  0
 52 66  1  0  0  0  0
 53 65  1  0  0  0  0
 55 61  1  0  0  0  0
 56 62  1  0  0  0  0
 57 62  1  0  0  0  0
 58 62  1  0  0  0  0
 59 74  1  0  0  0  0
 60 62  1  0  0  0  0
 60 73  1  0  0  0  0
 61 74  1  0  0  0  0
 64 65  1  0  0  0  0
M  CHG  1  74   1
M  ISO  4  33 101  41 100  71 100  84 101
M  END
> <Batch ID>
0160

> <Smiles>
CNC(C)C(=O)NC(C(=O)N1Cc2cc([101O:1][101CH2:1]C(=O)C(=O)Nc3cnc([100NH:0][100C:0](=O)N4CCCC(n5nc(-c6ccc(Oc7ccc(F)cc7F)cc6)c(C(N)=O)c5N)C4)c(C(C)=O)c3)ccc2CC1C(=O)NC1CCCc2ccccc21)C(C)(C)C

> <Shape>
0.314

> <Color>
0.148

> <Negative vol penalty>
0.000

$$$$

  -OEChem-04052303503D

 83 91  0     1  0  0  0  0  0999 V2000
  -28.4461  -33.8320   15.0144 C   0  0  0  0  0  0  0  0  0  0  0  0
  -28.1652  -32.5005   15.3035 C   0  0  0  0  0  0  0  0  0  0  0  0
  -24.0896   -8.9922   19.9273 C   0  0  0  0  0  0  0  0  0  0  0  0
  -22.9991  -10.4580   21.5082 C   0  0  0  0  0  0  0  0  0  0  0  0
  -28.7241  -34.7250   16.0483 C   0  0  0  0  0  0  0  0  0  0  0  0
  -28.1631  -32.0610   16.6269 C   0  0  0  0  0  0  0  0  0  0  0  0
  -24.5245  -27.7904   19.0822 C   0  0  0  0  0  0  0  0  0  0  0  0
  -23.3225   -7.9229   20.3895 C   0  0  0  0  0  0  0  0  0  0  0  0
  -22.2319   -9.3886   21.9704 C   0  0  0  0  0  0  0  0  0  0  0  0
  -24.7192  -26.4376   19.3571 C   0  0  0  0  0  0  0  0  0  0  0  0
  -21.9054   -4.7304   21.4012 C   0  0  0  0  0  0  0  0  0  0  0  0
  -22.5548   -3.5189   21.6377 C   0  0  0  0  0  0  0  0  0  0  0  0
  -25.3013  -26.9898   21.6321 C   0  0  0  0  0  0  0  0  0  0  0  0
  -29.4917  -19.4057   20.7347 C   0  0  0  0  0  0  0  0  0  0  0  0
  -23.9753   -4.5982   23.2668 C   0  0  0  0  0  0  0  0  0  0  0  0
  -27.3720  -19.3341   19.9788 C   0  0  0  0  0  0  0  0  0  0  0  0
  -23.9280  -10.2598   20.4867 C   0  0  0  0  0  0  0  0  0  0  0  0
  -24.3999  -12.2527   18.9658 C   0  0  0  0  0  0  0  0  0  0  0  0
  -28.7160  -34.2985   17.3857 C   0  0  0  0  0  0  0  0  0  0  0  0
  -24.7277  -28.7557   20.0789 C   0  0  0  0  0  0  0  0  0  0  0  0
  -28.4426  -32.9489   17.6796 C   0  0  0  0  0  0  0  0  0  0  0  0
  -25.1060  -28.3541   21.3679 C   0  0  0  0  0  0  0  0  0  0  0  0
  -28.3708  -18.5634   20.5316 C   0  0  0  0  0  0  0  0  0  0  0  0
  -22.3937   -8.1211   21.4110 C   0  0  0  0  0  0  0  0  0  0  0  0
  -25.1104  -26.0373   20.6314 C   0  0  0  0  0  0  0  0  0  0  0  0
  -22.2910   -5.8760   22.0975 C   0  0  0  0  0  0  0  0  0  0  0  0
  -23.5897   -3.4527   22.5705 C   0  0  0  0  0  0  0  0  0  0  0  0
  -23.3259   -5.8098   23.0303 C   0  0  0  0  0  0  0  0  0  0  0  0
  -24.7205  -11.3647   20.0100 C   0  0  0  0  0  0  0  0  0  0  0  0
  -29.1436  -20.6656   20.3000 C   0  0  0  0  0  0  0  0  0  0  0  0
  -25.4688  -13.1132   18.9066 C   0  0  0  0  0  0  0  0  0  0  0  0
  -23.2396  -12.2960   18.1247 C   0  0  0  0  0  0  0  0  0  0  0  0
  -29.9745  -21.8237   20.3211 C   0  0  0  0  0  0  0  0  0  0  0  0
  -26.6958  -31.2252   20.4420 C   0  0  0  0  0  0  0  0  0  0  0  0
  -26.5683  -22.7306   20.3362 C   0  0  0  0  0  0  0  0  0  0  0  0
  -24.9069  -31.7612   23.0943 C   0  0  0  0  0  0  0  0  0  0  0  0
  -22.8415  -30.4983   25.4998 C   0  0  0  0  0  0  0  0  0  0  0  0
  -29.2493  -16.3627   21.3869 C   0  0  0  0  0  0  0  0  0  0  0  0
  -29.0689  -35.2899   18.4661 C   0  0  0  0  0  0  0  0  0  0  0  0
  -24.4876  -30.2088   19.7735 C   0  0  0  0  0  0  0  0  0  0  0  0
  -25.3176  -29.3492   22.4785 C   0  0  0  0  0  0  0  0  0  0  0  0
  -28.6784  -34.8282   19.8677 C   0  0  0  0  0  0  0  0  0  0  0  0
  -30.0039  -12.8916   21.1441 C   0  0  0  0  0  0  0  0  0  0  0  0
  -29.1063  -33.3813   20.0917 C   0  0  0  0  0  0  0  0  0  0  0  0
  -28.6702  -12.2579   20.7415 C   0  0  0  0  0  0  0  0  0  0  0  0
  -29.8090  -14.0540   22.1159 C   0  0  0  0  0  0  0  0  0  0  0  0
  -27.5314  -14.4523   21.2657 C   0  0  0  0  0  0  0  0  0  0  0  0
  -28.4064  -32.4398   19.1043 C   0  0  1  0  0  0  0  0  0  0  0  0
  -25.2221  -31.1486   20.7248 C   0  0  1  0  0  0  0  0  0  0  0  0
  -27.6720  -13.3184   20.2370 C   0  0  2  0  0  0  0  0  0  0  0  0
  -21.5696  -31.1711   27.5557 C   0  0  0  0  0  0  0  0  0  0  0  0
  -27.5079  -31.7959   24.6892 C   0  0  0  0  0  0  0  0  0  0  0  0
  -26.1515  -31.5144   26.7746 C   0  0  0  0  0  0  0  0  0  0  0  0
  -25.8508  -33.5455   25.3579 C   0  0  0  0  0  0  0  0  0  0  0  0
  -20.2487  -29.7609   24.2782 C   0  0  0  0  0  0  0  0  0  0  0  0
  -27.0719  -21.7669   19.2772 C   0  0  0  0  0  0  0  0  0  0  0  0
  -25.7349  -23.8893   19.8239 C   0  0  0  0  0  0  0  0  0  1  0  0
  -24.9748  -31.3206   24.5366 C   0  0  1  0  0  0  0  0  0  0  0  0
  -21.5136  -30.9900   26.0468 C   0  0  2  0  0  0  0  0  0  0  0  0
  -26.1192  -32.0252   25.3184 C   0  0  0  0  0  0  0  0  0  0  0  0
  -25.9008  -11.6358   20.5735 N   0  0  0  0  0  0  0  0  0  0  0  0
  -27.8529  -20.6103   19.8429 N   0  0  0  0  0  0  0  0  0  0  0  0
  -26.3312  -12.7040   19.8808 N   0  0  0  0  0  0  0  0  0  0  0  0
  -25.0764  -30.7588   22.1287 N   0  0  0  0  0  0  0  0  0  0  0  0
  -28.8541  -15.0206   21.5695 N   0  0  0  0  0  0  0  0  0  0  0  0
  -25.7458  -14.1724   18.1168 N   0  0  0  0  0  0  0  0  0  0  0  0
  -22.2363  -11.3372   18.3204 N   0  0  0  0  0  0  0  0  0  0  0  0
  -31.2411  -21.7699   20.7973 N   0  0  0  0  0  0  0  0  0  0  0  0
  -28.2678  -17.1821   20.8302 N   0  0  0  0  0  0  0  0  0  0  0  0
  -27.0421  -32.1947   19.5202 N   0  0  0  0  0  0  0  0  0  0  0  0
  -23.6451  -31.5429   25.0944 N   0  0  0  0  0  0  0  0  0  0  0  0
  -29.5265  -23.0171   19.8641 N   0  3  0  0  0  0  0  0  0  0  0  0
  -20.4306  -30.0164   25.7303 N   0  3  0  0  0  0  0  0  0  0  0  0
  -23.1043  -13.1493   17.2152 O   0  0  0  0  0  0  0  0  0  0  0  0
  -27.4621  -30.4624   21.0186 O   0  0  0  0  0  0  0  0  0  0  0  0
  -26.8137  -22.5922   21.5339 O   0  0  0  0  0  0  0  0  0  0  0  0
  -24.7036  -32.9497   22.8340 O   0  0  0  0  0  0  0  0  0  0  0  0
  -23.1380  -29.3070   25.4417 O   0  0  0  0  0  0  0  0  0  0  0  0
  -30.3844  -16.7500   21.6758 O   0  0  0  0  0  0  0  0  0  0  0  0
  -21.6448   -7.0779   21.8622 O   0  0  0  0  0  0  0  0  0  0  0  0
  -25.3017  -24.7175   20.9023 O   0  0  0  0  0  0  0  0  0  1  0  0
  -24.2122   -2.2888   22.7986 F   0  0  0  0  0  0  0  0  0  0  0  0
  -23.7000   -6.9067   23.7032 F   0  0  0  0  0  0  0  0  0  0  0  0
  1  2  1  0  0  0  0
  1  5  2  0  0  0  0
  2  6  2  0  0  0  0
  3  8  2  0  0  0  0
  3 17  1  0  0  0  0
  4  9  1  0  0  0  0
  4 17  2  0  0  0  0
  5 19  1  0  0  0  0
  6 21  1  0  0  0  0
  7 10  2  0  0  0  0
  7 20  1  0  0  0  0
  8 24  1  0  0  0  0
  9 24  2  0  0  0  0
 10 25  1  0  0  0  0
 11 12  2  0  0  0  0
 11 26  1  0  0  0  0
 12 27  1  0  0  0  0
 13 22  1  0  0  0  0
 13 25  2  0  0  0  0
 14 23  1  0  0  0  0
 14 30  2  0  0  0  0
 15 27  2  0  0  0  0
 15 28  1  0  0  0  0
 16 23  2  0  0  0  0
 16 62  1  0  0  0  0
 17 29  1  0  0  0  0
 18 29  1  0  0  0  0
 18 31  2  0  0  0  0
 18 32  1  0  0  0  0
 19 21  2  0  0  0  0
 19 39  1  0  0  0  0
 20 22  2  0  0  0  0
 20 40  1  0  0  0  0
 21 48  1  0  0  0  0
 22 41  1  0  0  0  0
 23 69  1  0  0  0  0
 24 80  1  0  0  0  0
 25 81  1  0  0  0  0
 26 28  2  0  0  0  0
 26 80  1  0  0  0  0
 27 82  1  0  0  0  0
 28 83  1  0  0  0  0
 29 61  2  0  0  0  0
 30 33  1  0  0  0  0
 30 62  1  0  0  0  0
 31 63  1  0  0  0  0
 31 66  1  0  0  0  0
 32 67  1  0  0  0  0
 32 74  2  0  0  0  0
 33 68  1  0  0  0  0
 33 72  2  0  0  0  0
 34 49  1  0  0  0  0
 34 70  1  0  0  0  0
 34 75  2  0  0  0  0
 35 56  1  0  0  0  0
 35 57  1  0  0  0  0
 35 76  2  0  0  0  0
 36 58  1  0  0  0  0
 36 64  1  0  0  0  0
 36 77  2  0  0  0  0
 37 59  1  0  0  0  0
 37 71  1  0  0  0  0
 37 78  2  0  0  0  0
 38 65  1  0  0  0  0
 38 69  1  0  0  0  0
 38 79  2  0  0  0  0
 39 42  1  0  0  0  0
 40 49  1  0  0  0  0
 41 64  1  0  0  0  0
 42 44  1  0  0  0  0
 43 45  1  0  0  0  0
 43 46  1  0  0  0  0
 44 48  1  0  0  0  0
 45 50  1  0  0  0  0
 46 65  1  0  0  0  0
 47 50  1  0  0  0  0
 47 65  1  0  0  0  0
 48 70  1  0  0  0  0
 49 64  1  0  0  0  0
 50 63  1  0  0  0  0
 51 59  1  0  0  0  0
 52 60  1  0  0  0  0
 53 60  1  0  0  0  0
 54 60  1  0  0  0  0
 55 73  1  0  0  0  0
 56 62  1  0  0  0  0
 57 81  1  0  0  0  0
 58 60  1  0  0  0  0
 58 71  1  0  0  0  0
 59 73  1  0  0  0  0
 61 63  1  0  0  0  0
M  CHG  2  72   1  73   1
M  ISO  4  38 100  57 101  69 100  81 101
M  END
> <Batch ID>
0160

> <Smiles>
CNC(C)C(=O)NC(C(=O)N1Cc2cc([101O:1][101CH2:1]C(=O)Cn3cc([100NH:0][100C:0](=O)N4CCCC(n5nc(-c6ccc(Oc7ccc(F)cc7F)cc6)c(C(N)=O)c5N)C4)cc3C(=N)N)ccc2CC1C(=O)NC1CCCc2ccccc21)C(C)(C)C

> <Shape>
0.271

> <Color>
0.087

> <Negative vol penalty>
0.000

$$$$

  -OEChem-04052303503D

 84 92  0     1  0  0  0  0  0999 V2000
  -20.0067  -22.0980   29.1371 C   0  0  0  0  0  0  0  0  0  0  0  0
  -20.7835  -21.4698   28.1690 C   0  0  0  0  0  0  0  0  0  0  0  0
  -25.0859  -12.4487   21.6693 C   0  0  0  0  0  0  0  0  0  0  0  0
  -25.3273  -12.4857   19.2657 C   0  0  0  0  0  0  0  0  0  0  0  0
  -19.1341  -23.1225   28.7723 C   0  0  0  0  0  0  0  0  0  0  0  0
  -20.6873  -21.8649   26.8352 C   0  0  0  0  0  0  0  0  0  0  0  0
  -26.2501  -24.3293   21.9353 C   0  0  0  0  0  0  0  0  0  0  0  0
  -24.3827  -11.2474   21.5802 C   0  0  0  0  0  0  0  0  0  0  0  0
  -24.6241  -11.2844   19.1766 C   0  0  0  0  0  0  0  0  0  0  0  0
  -27.1193  -24.9285   21.0234 C   0  0  0  0  0  0  0  0  0  0  0  0
  -25.0949   -7.9700   21.1510 C   0  0  0  0  0  0  0  0  0  0  0  0
  -25.4314   -6.9540   22.0454 C   0  0  0  0  0  0  0  0  0  0  0  0
  -25.2577  -26.0664   19.9805 C   0  0  0  0  0  0  0  0  0  0  0  0
  -29.0778  -22.8128   17.7936 C   0  0  0  0  0  0  0  0  0  0  0  0
  -23.1752   -6.9672   22.9093 C   0  0  0  0  0  0  0  0  0  0  0  0
  -25.5582  -13.0679   20.5120 C   0  0  0  0  0  0  0  0  0  0  0  0
  -27.6754  -14.4718   20.7454 C   0  0  0  0  0  0  0  0  0  0  0  0
  -19.0343  -23.5368   27.4347 C   0  0  0  0  0  0  0  0  0  0  0  0
  -24.8817  -24.6087   21.8829 C   0  0  0  0  0  0  0  0  0  0  0  0
  -19.8116  -22.8949   26.4519 C   0  0  0  0  0  0  0  0  0  0  0  0
  -24.3839  -25.4789   20.8991 C   0  0  0  0  0  0  0  0  0  0  0  0
  -29.0918  -21.4030   17.9177 C   0  0  0  0  0  0  0  0  0  0  0  0
  -24.1518  -10.6652   20.3339 C   0  0  0  0  0  0  0  0  0  0  0  0
  -26.6243  -25.7947   20.0483 C   0  0  0  0  0  0  0  0  0  0  0  0
  -23.7985   -8.4847   21.1357 C   0  0  0  0  0  0  0  0  0  0  0  0
  -24.4716   -6.4526   22.9246 C   0  0  0  0  0  0  0  0  0  0  0  0
  -22.8387   -7.9833   22.0149 C   0  0  0  0  0  0  0  0  0  0  0  0
  -26.2842  -14.3091   20.6034 C   0  0  0  0  0  0  0  0  0  0  0  0
  -27.8598  -15.8323   20.7840 C   0  0  0  0  0  0  0  0  0  0  0  0
  -30.3047  -23.1632   17.2799 C   0  0  0  0  0  0  0  0  0  0  0  0
  -30.3261  -20.9924   17.4708 C   0  0  0  0  0  0  0  0  0  0  0  0
  -28.7085  -13.4816   20.8343 C   0  0  0  0  0  0  0  0  0  0  0  0
  -21.4805  -24.0248   23.3550 C   0  0  0  0  0  0  0  0  0  0  0  0
  -30.2240  -26.0968   18.5545 C   0  0  0  0  0  0  0  0  0  0  0  0
  -21.6510  -27.0081   22.6612 C   0  0  0  0  0  0  0  0  0  0  0  0
  -22.3943  -30.2967   22.1415 C   0  0  0  0  0  0  0  0  0  0  0  0
  -26.7996  -20.9481   18.8586 C   0  0  0  0  0  0  0  0  0  0  0  0
  -18.0423  -24.6165   27.0814 C   0  0  0  0  0  0  0  0  0  0  0  0
  -23.9008  -23.9382   22.8060 C   0  0  0  0  0  0  0  0  0  0  0  0
  -22.9001  -25.7231   20.8587 C   0  0  0  0  0  0  0  0  0  0  0  0
  -18.2747  -25.2298   25.7029 C   0  0  0  0  0  0  0  0  0  0  0  0
  -24.5080  -19.5994   21.2265 C   0  0  0  0  0  0  0  0  0  0  0  0
  -18.5047  -24.1366   24.6642 C   0  0  0  0  0  0  0  0  0  0  0  0
  -24.8802  -18.1162   21.2871 C   0  0  0  0  0  0  0  0  0  0  0  0
  -24.6441  -20.1610   19.8123 C   0  0  0  0  0  0  0  0  0  0  0  0
  -26.3203  -18.4496   19.2372 C   0  0  0  0  0  0  0  0  0  0  0  0
  -19.7537  -23.3120   24.9983 C   0  0  1  0  0  0  0  0  0  0  0  0
  -22.7249  -24.8491   23.2017 C   0  0  1  0  0  0  0  0  0  0  0  0
  -26.2611  -17.8554   20.6540 C   0  0  2  0  0  0  0  0  0  0  0  0
  -21.3944  -32.5923   22.3080 C   0  0  0  0  0  0  0  0  0  0  0  0
  -20.0428  -26.4877   20.1223 C   0  0  0  0  0  0  0  0  0  0  0  0
  -19.8570  -28.9657   19.8169 C   0  0  0  0  0  0  0  0  0  0  0  0
  -18.8681  -27.8818   21.8343 C   0  0  0  0  0  0  0  0  0  0  0  0
  -27.8004  -28.4586   20.1490 C   0  0  0  0  0  0  0  0  0  0  0  0
  -24.4281  -31.1663   24.1078 C   0  0  0  0  0  0  0  0  0  0  0  0
  -30.1625  -25.6483   17.1076 C   0  0  0  0  0  0  0  0  0  0  0  0
  -29.5341  -27.4159   18.8507 C   0  0  0  0  0  0  0  0  0  0  0  0
  -21.3807  -28.0877   21.6440 C   0  0  1  0  0  0  0  0  0  0  0  0
  -22.2091  -31.5222   23.0180 C   0  0  2  0  0  0  0  0  0  0  0  0
  -20.0626  -27.8433   20.8564 C   0  0  0  0  0  0  0  0  0  0  0  0
  -25.6312  -15.4732   20.5552 N   0  0  0  0  0  0  0  0  0  0  0  0
  -26.6163  -16.3804   20.6677 N   0  0  0  0  0  0  0  0  0  0  0  0
  -22.3821  -25.8966   22.2248 N   0  0  0  0  0  0  0  0  0  0  0  0
  -25.9788  -19.8801   19.2787 N   0  0  0  0  0  0  0  0  0  0  0  0
  -28.9626  -16.6012   20.9058 N   0  0  0  0  0  0  0  0  0  0  0  0
  -28.3445  -12.1293   20.7777 N   0  0  0  0  0  0  0  0  0  0  0  0
  -28.0587  -20.5618   18.4003 N   0  0  0  0  0  0  0  0  0  0  0  0
  -30.8540  -24.3943   16.9513 N   0  0  0  0  0  0  0  0  0  0  0  0
  -20.9511  -24.0372   24.6313 N   0  0  0  0  0  0  0  0  0  0  0  0
  -21.4166  -29.3520   22.3712 N   0  0  0  0  0  0  0  0  0  0  0  0
  -28.4832  -27.2032   19.8437 N   0  0  2  0  0  0  0  0  0  1  0  0
  -23.5321  -32.1033   23.3824 N   0  3  0  0  0  0  0  0  0  0  0  0
  -29.9168  -13.7867   20.9767 O   0  0  0  0  0  0  0  0  0  0  0  0
  -21.0317  -23.4226   22.3867 O   0  0  0  0  0  0  0  0  0  0  0  0
  -30.7931  -25.4348   19.4222 O   0  0  0  0  0  0  0  0  0  0  0  0
  -21.2219  -27.1415   23.8108 O   0  0  0  0  0  0  0  0  0  0  0  0
  -23.3123  -30.1898   21.3313 O   0  0  0  0  0  0  0  0  0  0  0  0
  -26.4241  -22.1212   18.9277 O   0  0  0  0  0  0  0  0  0  0  0  0
  -31.0715  -22.0593   17.0801 O   0  0  0  0  0  0  0  0  0  0  0  0
  -23.4658   -9.4929   20.2466 O   0  0  0  0  0  0  0  0  0  0  0  0
  -27.4789  -26.3798   19.1640 O   0  0  0  0  0  0  0  0  0  1  0  0
  -24.7945   -5.4758   23.7824 F   0  0  0  0  0  0  0  0  0  0  0  0
  -21.5913   -8.4730   22.0041 F   0  0  0  0  0  0  0  0  0  0  0  0
  -30.7442  -19.7237   17.4232 F   0  0  0  0  0  0  0  0  0  0  0  0
  1  2  1  0  0  0  0
  1  5  2  0  0  0  0
  2  6  2  0  0  0  0
  3  8  2  0  0  0  0
  3 16  1  0  0  0  0
  4  9  1  0  0  0  0
  4 16  2  0  0  0  0
  5 18  1  0  0  0  0
  6 20  1  0  0  0  0
  7 10  2  0  0  0  0
  7 19  1  0  0  0  0
  8 23  1  0  0  0  0
  9 23  2  0  0  0  0
 10 24  1  0  0  0  0
 11 12  2  0  0  0  0
 11 25  1  0  0  0  0
 12 26  1  0  0  0  0
 13 21  1  0  0  0  0
 13 24  2  0  0  0  0
 14 22  1  0  0  0  0
 14 30  2  0  0  0  0
 15 26  2  0  0  0  0
 15 27  1  0  0  0  0
 16 28  1  0  0  0  0
 17 28  1  0  0  0  0
 17 29  2  0  0  0  0
 17 32  1  0  0  0  0
 18 20  2  0  0  0  0
 18 38  1  0  0  0  0
 19 21  2  0  0  0  0
 19 39  1  0  0  0  0
 20 47  1  0  0  0  0
 21 40  1  0  0  0  0
 22 31  2  0  0  0  0
 22 67  1  0  0  0  0
 23 80  1  0  0  0  0
 24 81  1  0  0  0  0
 25 27  2  0  0  0  0
 25 80  1  0  0  0  0
 26 82  1  0  0  0  0
 27 83  1  0  0  0  0
 28 61  2  0  0  0  0
 29 62  1  0  0  0  0
 29 65  1  0  0  0  0
 30 68  1  0  0  0  0
 30 79  1  0  0  0  0
 31 79  1  0  0  0  0
 31 84  1  0  0  0  0
 32 66  1  0  0  0  0
 32 73  2  0  0  0  0
 33 48  1  0  0  0  0
 33 69  1  0  0  0  0
 33 74  2  0  0  0  0
 34 56  1  0  0  0  0
 34 57  1  0  0  0  0
 34 75  2  0  0  0  0
 35 58  1  0  0  0  0
 35 63  1  0  0  0  0
 35 76  2  0  0  0  0
 36 59  1  0  0  0  0
 36 70  1  0  0  0  0
 36 77  2  0  0  0  0
 37 64  1  0  0  0  0
 37 67  1  0  0  0  0
 37 78  2  0  0  0  0
 38 41  1  0  0  0  0
 39 48  1  0  0  0  0
 40 63  1  0  0  0  0
 41 43  1  0  0  0  0
 42 44  1  0  0  0  0
 42 45  1  0  0  0  0
 43 47  1  0  0  0  0
 44 49  1  0  0  0  0
 45 64  1  0  0  0  0
 46 49  1  0  0  0  0
 46 64  1  0  0  0  0
 47 69  1  0  0  0  0
 48 63  1  0  0  0  0
 49 62  1  0  0  0  0
 50 59  1  0  0  0  0
 51 60  1  0  0  0  0
 52 60  1  0  0  0  0
 53 60  1  0  0  0  0
 54 71  1  0  0  0  0
 55 72  1  0  0  0  0
 56 68  1  0  0  0  0
 57 71  1  0  0  0  0
 58 60  1  0  0  0  0
 58 70  1  0  0  0  0
 59 72  1  0  0  0  0
 61 62  1  0  0  0  0
 71 81  1  0  0  0  0
M  CHG  1  72   1
M  ISO  4  37 100  67 100  71 101  81 101
M  END
> <Batch ID>
0160

> <Smiles>
CNC(C)C(=O)NC(C(=O)N1Cc2cc([101O:1][101N:1](C)CC(=O)CNc3cc([100NH:0][100C:0](=O)N4CCCC(n5nc(-c6ccc(Oc7ccc(F)cc7F)cc6)c(C(N)=O)c5N)C4)c(F)o3)ccc2CC1C(=O)NC1CCCc2ccccc21)C(C)(C)C

> <Shape>
0.226

> <Color>
0.063

> <Negative vol penalty>
0.000

$$$$

  -OEChem-04052303503D

 83 91  0     1  0  0  0  0  0999 V2000
  -24.2057  -29.5905   24.5547 C   0  0  0  0  0  0  0  0  0  0  0  0
  -24.6322  -28.2733   24.4182 C   0  0  0  0  0  0  0  0  0  0  0  0
  -22.6279  -20.6982   22.4915 C   0  0  0  0  0  0  0  0  0  0  0  0
  -24.9645  -20.8310   21.8917 C   0  0  0  0  0  0  0  0  0  0  0  0
  -24.1883  -30.4349   23.4453 C   0  0  0  0  0  0  0  0  0  0  0  0
  -25.0406  -27.7995   23.1720 C   0  0  0  0  0  0  0  0  0  0  0  0
  -29.4660  -23.7160   22.0556 C   0  0  0  0  0  0  0  0  0  0  0  0
  -22.8094  -21.7191   23.4245 C   0  0  0  0  0  0  0  0  0  0  0  0
  -25.1459  -21.8520   22.8246 C   0  0  0  0  0  0  0  0  0  0  0  0
  -29.4350  -22.3462   21.7975 C   0  0  0  0  0  0  0  0  0  0  0  0
  -26.3052  -24.2456   25.3018 C   0  0  0  0  0  0  0  0  0  0  0  0
  -27.4260  -24.1760   26.1292 C   0  0  0  0  0  0  0  0  0  0  0  0
  -29.5040  -22.7970   19.4287 C   0  0  0  0  0  0  0  0  0  0  0  0
  -26.6516  -22.0598   27.0004 C   0  0  0  0  0  0  0  0  0  0  0  0
  -29.6692  -11.7731   19.3817 C   0  0  0  0  0  0  0  0  0  0  0  0
  -23.7055  -20.2541   21.7251 C   0  0  0  0  0  0  0  0  0  0  0  0
  -23.1632  -19.3385   19.4067 C   0  0  0  0  0  0  0  0  0  0  0  0
  -24.6058  -29.9739   22.1868 C   0  0  0  0  0  0  0  0  0  0  0  0
  -29.5053  -24.6384   21.0001 C   0  0  0  0  0  0  0  0  0  0  0  0
  -25.0275  -28.6381   22.0445 C   0  0  0  0  0  0  0  0  0  0  0  0
  -29.5381  -24.1778   19.6761 C   0  0  0  0  0  0  0  0  0  0  0  0
  -24.0684  -22.2960   23.5910 C   0  0  0  0  0  0  0  0  0  0  0  0
  -29.4511  -21.8866   20.4839 C   0  0  0  0  0  0  0  0  0  0  0  0
  -25.3575  -23.2223   25.3237 C   0  0  0  0  0  0  0  0  0  0  0  0
  -27.5992  -23.0832   26.9785 C   0  0  0  0  0  0  0  0  0  0  0  0
  -25.5307  -22.1294   26.1730 C   0  0  0  0  0  0  0  0  0  0  0  0
  -23.5187  -19.1992   20.7616 C   0  0  0  0  0  0  0  0  0  0  0  0
  -28.1613  -13.1937   19.8705 C   0  0  0  0  0  0  0  0  0  0  0  0
  -23.1149  -18.0512   18.9302 C   0  0  0  0  0  0  0  0  0  0  0  0
  -29.2683  -13.9350   19.5306 C   0  0  0  0  0  0  0  0  0  0  0  0
  -22.9001  -20.5255   18.6467 C   0  0  0  0  0  0  0  0  0  0  0  0
  -27.5906  -26.9607   19.9781 C   0  0  0  0  0  0  0  0  0  0  0  0
  -29.1289  -17.6882   19.6126 C   0  0  0  0  0  0  0  0  0  0  0  0
  -30.0357  -27.5429   17.9276 C   0  0  0  0  0  0  0  0  0  0  0  0
  -32.7746  -26.3559   16.2733 C   0  0  0  0  0  0  0  0  0  0  0  0
  -25.7668  -12.9705   20.6207 C   0  0  0  0  0  0  0  0  0  0  0  0
  -24.5246  -30.9102   21.0072 C   0  0  0  0  0  0  0  0  0  0  0  0
  -29.5653  -26.1119   21.2957 C   0  0  0  0  0  0  0  0  0  0  0  0
  -29.6005  -25.1264   18.5079 C   0  0  0  0  0  0  0  0  0  0  0  0
  -25.3281  -30.4379   19.7983 C   0  0  0  0  0  0  0  0  0  0  0  0
  -22.2653  -13.5595   20.3573 C   0  0  0  0  0  0  0  0  0  0  0  0
  -25.0647  -28.9602   19.5264 C   0  0  0  0  0  0  0  0  0  0  0  0
  -22.1574  -15.0850   20.3017 C   0  0  0  0  0  0  0  0  0  0  0  0
  -23.3796  -13.1036   21.2977 C   0  0  0  0  0  0  0  0  0  0  0  0
  -24.5873  -15.2275   20.9817 C   0  0  0  0  0  0  0  0  0  0  0  0
  -25.5016  -28.0943   20.7142 C   0  0  1  0  0  0  0  0  0  0  0  0
  -29.0851  -26.9747   20.1328 C   0  0  1  0  0  0  0  0  0  0  0  0
  -23.5211  -15.7357   19.9975 C   0  0  2  0  0  0  0  0  0  0  0  0
  -34.5458  -27.0563   14.6394 C   0  0  0  0  0  0  0  0  0  0  0  0
  -28.0077  -27.3614   15.6551 C   0  0  0  0  0  0  0  0  0  0  0  0
  -29.9217  -27.1147   14.0600 C   0  0  0  0  0  0  0  0  0  0  0  0
  -29.6867  -29.1987   15.4107 C   0  0  0  0  0  0  0  0  0  0  0  0
  -31.5833  -13.2678   18.7968 C   0  0  0  0  0  0  0  0  0  0  0  0
  -34.9417  -25.8260   18.2179 C   0  0  0  0  0  0  0  0  0  0  0  0
  -28.1418  -18.7789   19.2181 C   0  0  0  0  0  0  0  0  0  0  0  0
  -28.5332  -16.3056   19.7866 C   0  0  0  0  0  0  0  0  0  0  0  0
  -28.7998  -20.1348   19.0132 C   0  0  0  0  0  0  0  0  0  1  0  0
  -30.4116  -27.0600   16.5475 C   0  0  1  0  0  0  0  0  0  0  0  0
  -34.1742  -26.9200   16.1078 C   0  0  2  0  0  0  0  0  0  0  0  0
  -29.5038  -27.6656   15.4401 C   0  0  0  0  0  0  0  0  0  0  0  0
  -28.4175  -11.8486   19.7760 N   0  0  0  0  0  0  0  0  0  0  0  0
  -23.6844  -17.9239   21.1227 N   0  0  0  0  0  0  0  0  0  0  0  0
  -30.2262  -13.0112   19.2203 N   0  0  0  0  0  0  0  0  0  0  0  0
  -23.4318  -17.2503   19.9876 N   0  0  0  0  0  0  0  0  0  0  0  0
  -29.6512  -26.5578   18.8483 N   0  0  0  0  0  0  0  0  0  0  0  0
  -24.6421  -13.7576   20.9467 N   0  0  0  0  0  0  0  0  0  0  0  0
  -22.8326  -17.5376   17.7141 N   0  0  0  0  0  0  0  0  0  0  0  0
  -22.9944  -21.7663   19.2915 N   0  0  0  0  0  0  0  0  0  0  0  0
  -26.9014  -13.7025   20.2721 N   0  0  0  0  0  0  0  0  0  0  0  0
  -29.5139  -15.2988   19.4679 N   0  0  0  0  0  0  0  0  0  0  0  0
  -26.9393  -27.9294   20.7177 N   0  0  0  0  0  0  0  0  0  0  0  0
  -31.8310  -27.3552   16.3844 N   0  0  0  0  0  0  0  0  0  0  0  0
  -35.1725  -26.0295   16.7645 N   0  3  0  0  0  0  0  0  0  0  0  0
  -22.5746  -20.4860   17.4359 O   0  0  0  0  0  0  0  0  0  0  0  0
  -27.0672  -26.1333   19.2412 O   0  0  0  0  0  0  0  0  0  0  0  0
  -30.3263  -17.9153   19.7801 O   0  0  0  0  0  0  0  0  0  0  0  0
  -30.0884  -28.7489   18.1815 O   0  0  0  0  0  0  0  0  0  0  0  0
  -32.5412  -25.1495   16.2977 O   0  0  0  0  0  0  0  0  0  0  0  0
  -25.7187  -11.7377   20.6224 O   0  0  0  0  0  0  0  0  0  0  0  0
  -24.2458  -23.2924   24.5011 O   0  0  0  0  0  0  0  0  0  0  0  0
  -29.4203  -20.5501   20.2293 O   0  0  0  0  0  0  0  0  0  1  0  0
  -28.6763  -23.0158   27.7718 F   0  0  0  0  0  0  0  0  0  0  0  0
  -24.6243  -21.1427   26.1976 F   0  0  0  0  0  0  0  0  0  0  0  0
  1  2  1  0  0  0  0
  1  5  2  0  0  0  0
  2  6  2  0  0  0  0
  3  8  2  0  0  0  0
  3 16  1  0  0  0  0
  4  9  1  0  0  0  0
  4 16  2  0  0  0  0
  5 18  1  0  0  0  0
  6 20  1  0  0  0  0
  7 10  2  0  0  0  0
  7 19  1  0  0  0  0
  8 22  1  0  0  0  0
  9 22  2  0  0  0  0
 10 23  1  0  0  0  0
 11 12  2  0  0  0  0
 11 24  1  0  0  0  0
 12 25  1  0  0  0  0
 13 21  1  0  0  0  0
 13 23  2  0  0  0  0
 14 25  2  0  0  0  0
 14 26  1  0  0  0  0
 15 61  2  0  0  0  0
 15 63  1  0  0  0  0
 16 27  1  0  0  0  0
 17 27  1  0  0  0  0
 17 29  2  0  0  0  0
 17 31  1  0  0  0  0
 18 20  2  0  0  0  0
 18 37  1  0  0  0  0
 19 21  2  0  0  0  0
 19 38  1  0  0  0  0
 20 46  1  0  0  0  0
 21 39  1  0  0  0  0
 22 80  1  0  0  0  0
 23 81  1  0  0  0  0
 24 26  2  0  0  0  0
 24 80  1  0  0  0  0
 25 82  1  0  0  0  0
 26 83  1  0  0  0  0
 27 62  2  0  0  0  0
 28 30  2  0  0  0  0
 28 61  1  0  0  0  0
 28 69  1  0  0  0  0
 29 64  1  0  0  0  0
 29 67  1  0  0  0  0
 30 63  1  0  0  0  0
 30 70  1  0  0  0  0
 31 68  1  0  0  0  0
 31 74  2  0  0  0  0
 32 47  1  0  0  0  0
 32 71  1  0  0  0  0
 32 75  2  0  0  0  0
 33 55  1  0  0  0  0
 33 56  1  0  0  0  0
 33 76  2  0  0  0  0
 34 58  1  0  0  0  0
 34 65  1  0  0  0  0
 34 77  2  0  0  0  0
 35 59  1  0  0  0  0
 35 72  1  0  0  0  0
 35 78  2  0  0  0  0
 36 66  1  0  0  0  0
 36 69  1  0  0  0  0
 36 79  2  0  0  0  0
 37 40  1  0  0  0  0
 38 47  1  0  0  0  0
 39 65  1  0  0  0  0
 40 42  1  0  0  0  0
 41 43  1  0  0  0  0
 41 44  1  0  0  0  0
 42 46  1  0  0  0  0
 43 48  1  0  0  0  0
 44 66  1  0  0  0  0
 45 48  1  0  0  0  0
 45 66  1  0  0  0  0
 46 71  1  0  0  0  0
 47 65  1  0  0  0  0
 48 64  1  0  0  0  0
 49 59  1  0  0  0  0
 50 60  1  0  0  0  0
 51 60  1  0  0  0  0
 52 60  1  0  0  0  0
 53 63  1  0  0  0  0
 54 73  1  0  0  0  0
 55 57  1  0  0  0  0
 56 70  1  0  0  0  0
 57 81  1  0  0  0  0
 58 60  1  0  0  0  0
 58 72  1  0  0  0  0
 59 73  1  0  0  0  0
 62 64  1  0  0  0  0
M  CHG  1  73   1
M  ISO  4  36 100  57 101  69 100  81 101
M  END
> <Batch ID>
0160

> <Smiles>
CNC(C)C(=O)NC(C(=O)N1Cc2cc([101O:1][101CH2:1]CC(=O)CNc3c([100NH:0][100C:0](=O)N4CCCC(n5nc(-c6ccc(Oc7ccc(F)cc7F)cc6)c(C(N)=O)c5N)C4)ncn3C)ccc2CC1C(=O)NC1CCCc2ccccc21)C(C)(C)C

> <Shape>
0.212

> <Color>
0.084

> <Negative vol penalty>
0.000

$$$$

  -OEChem-04052303503D

 87 96  0     1  0  0  0  0  0999 V2000
  -16.9882  -28.9218   23.3060 C   0  0  0  0  0  0  0  0  0  0  0  0
  -17.7120  -29.1190   22.1344 C   0  0  0  0  0  0  0  0  0  0  0  0
  -24.5444   -9.2365   20.1979 C   0  0  0  0  0  0  0  0  0  0  0  0
  -24.1575   -9.6731   22.5424 C   0  0  0  0  0  0  0  0  0  0  0  0
  -17.3576  -29.5893   24.4730 C   0  0  0  0  0  0  0  0  0  0  0  0
  -18.8050  -29.9848   22.1288 C   0  0  0  0  0  0  0  0  0  0  0  0
  -24.5969  -26.8943   21.0228 C   0  0  0  0  0  0  0  0  0  0  0  0
  -23.4696   -8.3476   20.1860 C   0  0  0  0  0  0  0  0  0  0  0  0
  -23.0826   -8.7842   22.5305 C   0  0  0  0  0  0  0  0  0  0  0  0
  -25.5684  -26.3050   20.2134 C   0  0  0  0  0  0  0  0  0  0  0  0
  -22.6172   -5.4365   22.6163 C   0  0  0  0  0  0  0  0  0  0  0  0
  -22.5176   -4.5259   23.6681 C   0  0  0  0  0  0  0  0  0  0  0  0
  -26.3736  -28.4923   19.5696 C   0  0  0  0  0  0  0  0  0  0  0  0
  -20.3630   -5.4449   24.2598 C   0  0  0  0  0  0  0  0  0  0  0  0
  -25.6519  -18.6040   16.1726 C   0  0  0  0  0  0  0  0  0  0  0  0
  -24.8885   -9.8992   21.3761 C   0  0  0  0  0  0  0  0  0  0  0  0
  -27.3435  -10.5292   21.0871 C   0  0  0  0  0  0  0  0  0  0  0  0
  -18.4616  -30.4563   24.4841 C   0  0  0  0  0  0  0  0  0  0  0  0
  -24.5194  -28.2867   21.1210 C   0  0  0  0  0  0  0  0  0  0  0  0
  -19.1888  -30.6656   23.2967 C   0  0  0  0  0  0  0  0  0  0  0  0
  -25.4109  -29.0879   20.3889 C   0  0  0  0  0  0  0  0  0  0  0  0
  -22.7387   -8.1215   21.3523 C   0  0  0  0  0  0  0  0  0  0  0  0
  -26.4543  -27.1020   19.4883 C   0  0  0  0  0  0  0  0  0  0  0  0
  -21.5896   -6.3514   22.3862 C   0  0  0  0  0  0  0  0  0  0  0  0
  -21.3905   -4.5301   24.4899 C   0  0  0  0  0  0  0  0  0  0  0  0
  -20.4625   -6.3556   23.2079 C   0  0  0  0  0  0  0  0  0  0  0  0
  -25.9990  -10.8172   21.3892 C   0  0  0  0  0  0  0  0  0  0  0  0
  -25.9262  -19.5931   17.0938 C   0  0  0  0  0  0  0  0  0  0  0  0
  -27.9952  -11.7280   21.2446 C   0  0  0  0  0  0  0  0  0  0  0  0
  -25.8980  -17.8735   18.4547 C   0  0  0  0  0  0  0  0  0  0  0  0
  -27.9492   -9.2890   20.6988 C   0  0  0  0  0  0  0  0  0  0  0  0
  -22.7569  -31.2574   22.5411 C   0  0  0  0  0  0  0  0  0  0  0  0
  -25.8816  -31.8802   22.5101 C   0  0  0  0  0  0  0  0  0  0  0  0
  -27.4809  -24.2891   17.9098 C   0  0  0  0  0  0  0  0  0  0  0  0
  -24.9926  -34.5938   24.3791 C   0  0  0  0  0  0  0  0  0  0  0  0
  -26.2079  -17.4202   20.9133 C   0  0  0  0  0  0  0  0  0  0  0  0
  -18.7940  -31.1920   25.7581 C   0  0  0  0  0  0  0  0  0  0  0  0
  -23.4459  -28.9621   21.9315 C   0  0  0  0  0  0  0  0  0  0  0  0
  -25.2703  -30.5802   20.4985 C   0  0  0  0  0  0  0  0  0  0  0  0
  -20.1924  -31.8043   25.7607 C   0  0  0  0  0  0  0  0  0  0  0  0
  -27.7472  -15.8304   23.7027 C   0  0  0  0  0  0  0  0  0  0  0  0
  -20.4559  -32.5391   24.4501 C   0  0  0  0  0  0  0  0  0  0  0  0
  -27.6013  -14.3383   23.3955 C   0  0  0  0  0  0  0  0  0  0  0  0
  -26.5252  -16.6255   23.2463 C   0  0  0  0  0  0  0  0  0  0  0  0
  -27.0584  -21.8531   17.6726 C   0  0  0  0  0  0  0  0  0  0  0  0
  -25.9973  -14.9334   21.5354 C   0  0  0  0  0  0  0  0  0  0  0  0
  -25.3855  -23.3604   16.8106 C   0  0  0  0  0  0  0  0  0  0  0  0
  -20.3956  -31.5778   23.2569 C   0  0  1  0  0  0  0  0  0  0  0  0
  -26.0806  -21.0663   16.7885 C   0  0  2  0  0  0  0  0  0  0  0  0
  -23.9011  -30.2872   22.5749 C   0  0  1  0  0  0  0  0  0  0  0  0
  -27.2316  -14.1005   21.9182 C   0  0  2  0  0  0  0  0  0  0  0  0
  -24.7888  -21.9368   16.8290 C   0  0  0  0  0  0  0  0  0  0  0  0
  -23.9507  -21.7448   18.1061 C   0  0  0  0  0  0  0  0  0  0  0  0
  -23.8941  -21.7100   15.6052 C   0  0  0  0  0  0  0  0  0  0  0  0
  -27.4495  -26.2106   16.3257 C   0  0  0  0  0  0  0  0  0  0  0  0
  -25.9444  -36.2935   25.9610 C   0  0  0  0  0  0  0  0  0  0  0  0
  -25.9284  -29.7857   24.7285 C   0  0  0  0  0  0  0  0  0  0  0  0
  -25.9405  -31.6532   26.3960 C   0  0  0  0  0  0  0  0  0  0  0  0
  -27.8301  -31.4089   24.7860 C   0  0  0  0  0  0  0  0  0  0  0  0
  -24.2856  -36.8349   22.5800 C   0  0  0  0  0  0  0  0  0  0  0  0
  -25.5874  -32.2238   23.9504 C   0  0  1  0  0  0  0  0  0  0  0  0
  -26.9438  -25.6737   17.6504 C   0  0  2  0  0  0  0  0  0  1  0  0
  -25.6136  -35.9727   24.5117 C   0  0  2  0  0  0  0  0  0  0  0  0
  -26.3009  -31.2659   24.9459 C   0  0  0  0  0  0  0  0  0  0  0  0
  -25.8065  -12.0983   21.7141 N   0  0  0  0  0  0  0  0  0  0  0  0
  -26.0673  -19.1761   18.4030 N   0  0  0  0  0  0  0  0  0  0  0  0
  -27.0387  -12.6260   21.6172 N   0  0  0  0  0  0  0  0  0  0  0  0
  -25.0249  -30.9591   21.8946 N   0  0  0  0  0  0  0  0  0  0  0  0
  -26.6773  -23.2461   17.4848 N   0  0  0  0  0  0  0  0  0  0  0  0
  -26.2375  -16.3534   21.8363 N   0  0  0  0  0  0  0  0  0  0  0  0
  -29.2873  -12.0909   21.0993 N   0  0  0  0  0  0  0  0  0  0  0  0
  -28.4399   -8.4421   21.7019 N   0  0  0  0  0  0  0  0  0  0  0  0
  -25.9568  -17.0363   19.5964 N   0  0  0  0  0  0  0  0  0  0  0  0
  -21.6143  -30.8020   23.1708 N   0  0  0  0  0  0  0  0  0  0  0  0
  -25.9421  -33.6293   24.1154 N   0  0  0  0  0  0  0  0  0  0  0  0
  -24.6771  -37.0138   24.0019 N   0  3  0  0  0  0  0  0  0  0  0  0
  -28.0670   -8.9496   19.4969 O   0  0  0  0  0  0  0  0  0  0  0  0
  -22.8995  -32.3406   21.9860 O   0  0  0  0  0  0  0  0  0  0  0  0
  -26.8478  -32.4074   21.9526 O   0  0  0  0  0  0  0  0  0  0  0  0
  -28.5664  -24.1372   18.4726 O   0  0  0  0  0  0  0  0  0  0  0  0
  -23.7864  -34.3920   24.5011 O   0  0  0  0  0  0  0  0  0  0  0  0
  -26.4187  -18.5850   21.2608 O   0  0  0  0  0  0  0  0  0  0  0  0
  -21.6896   -7.2544   21.3410 O   0  0  0  0  0  0  0  0  0  0  0  0
  -27.4031  -26.5204   18.7033 O   0  0  0  0  0  0  0  0  0  1  0  0
  -21.2943   -3.6545   25.4990 F   0  0  0  0  0  0  0  0  0  0  0  0
  -19.4717   -7.2314   22.9911 F   0  0  0  0  0  0  0  0  0  0  0  0
  -25.5668  -17.0861   16.9663 S   0  0  0  0  0  0  0  0  0  0  0  0
  1  2  1  0  0  0  0
  1  5  2  0  0  0  0
  2  6  2  0  0  0  0
  3  8  2  0  0  0  0
  3 16  1  0  0  0  0
  4  9  1  0  0  0  0
  4 16  2  0  0  0  0
  5 18  1  0  0  0  0
  6 20  1  0  0  0  0
  7 10  2  0  0  0  0
  7 19  1  0  0  0  0
  8 22  1  0  0  0  0
  9 22  2  0  0  0  0
 10 23  1  0  0  0  0
 11 12  2  0  0  0  0
 11 24  1  0  0  0  0
 12 25  1  0  0  0  0
 13 21  1  0  0  0  0
 13 23  2  0  0  0  0
 14 25  2  0  0  0  0
 14 26  1  0  0  0  0
 15 28  2  0  0  0  0
 15 87  1  0  0  0  0
 16 27  1  0  0  0  0
 17 27  1  0  0  0  0
 17 29  2  0  0  0  0
 17 31  1  0  0  0  0
 18 20  2  0  0  0  0
 18 37  1  0  0  0  0
 19 21  2  0  0  0  0
 19 38  1  0  0  0  0
 20 48  1  0  0  0  0
 21 39  1  0  0  0  0
 22 83  1  0  0  0  0
 23 84  1  0  0  0  0
 24 26  2  0  0  0  0
 24 83  1  0  0  0  0
 25 85  1  0  0  0  0
 26 86  1  0  0  0  0
 27 65  2  0  0  0  0
 28 49  1  0  0  0  0
 28 66  1  0  0  0  0
 29 67  1  0  0  0  0
 29 71  1  0  0  0  0
 30 66  2  0  0  0  0
 30 73  1  0  0  0  0
 30 87  1  0  0  0  0
 31 72  1  0  0  0  0
 31 77  2  0  0  0  0
 32 50  1  0  0  0  0
 32 74  1  0  0  0  0
 32 78  2  0  0  0  0
 33 61  1  0  0  0  0
 33 68  1  0  0  0  0
 33 79  2  0  0  0  0
 34 62  1  0  0  0  0
 34 69  1  0  0  0  0
 34 80  2  0  0  0  0
 35 63  1  0  0  0  0
 35 75  1  0  0  0  0
 35 81  2  0  0  0  0
 36 70  1  0  0  0  0
 36 73  1  0  0  0  0
 36 82  2  0  0  0  0
 37 40  1  0  0  0  0
 38 50  1  0  0  0  0
 39 68  1  0  0  0  0
 40 42  1  0  0  0  0
 41 43  1  0  0  0  0
 41 44  1  0  0  0  0
 42 48  1  0  0  0  0
 43 51  1  0  0  0  0
 44 70  1  0  0  0  0
 45 49  1  0  0  0  0
 45 69  1  0  0  0  0
 46 51  1  0  0  0  0
 46 70  1  0  0  0  0
 47 52  1  0  0  0  0
 47 69  1  0  0  0  0
 48 74  1  0  0  0  0
 49 52  1  0  0  0  0
 50 68  1  0  0  0  0
 51 67  1  0  0  0  0
 52 53  1  0  0  0  0
 52 54  1  0  0  0  0
 55 62  1  0  0  0  0
 56 63  1  0  0  0  0
 57 64  1  0  0  0  0
 58 64  1  0  0  0  0
 59 64  1  0  0  0  0
 60 76  1  0  0  0  0
 61 64  1  0  0  0  0
 61 75  1  0  0  0  0
 62 84  1  0  0  0  0
 63 76  1  0  0  0  0
 65 67  1  0  0  0  0
M  CHG  1  76   1
M  ISO  4  36 100  62 101  73 100  84 101
M  END
> <Batch ID>
0160

> <Smiles>
CNC(C)C(=O)NC(C(=O)N1Cc2cc([101O:1][101CH:1](C)C(=O)N3CC(c4csc([100NH:0][100C:0](=O)N5CCCC(n6nc(-c7ccc(Oc8ccc(F)cc8F)cc7)c(C(N)=O)c6N)C5)n4)C(C)(C)C3)ccc2CC1C(=O)NC1CCCc2ccccc21)C(C)(C)C

> <Shape>
0.280

> <Color>
0.131

> <Negative vol penalty>
0.000

$$$$

  -OEChem-04052303502D

  0  0  0     0  0  0  0  0  0999 V2000
M  END
$$$$

  -OEChem-04052303503D

 84 93  0     1  0  0  0  0  0999 V2000
  -30.2903  -32.2661   25.7760 C   0  0  0  0  0  0  0  0  0  0  0  0
  -29.8230  -31.1746   25.0511 C   0  0  0  0  0  0  0  0  0  0  0  0
  -24.0463   -9.2895   22.2188 C   0  0  0  0  0  0  0  0  0  0  0  0
  -23.1457   -9.7108   20.0169 C   0  0  0  0  0  0  0  0  0  0  0  0
  -29.3868  -33.1712   26.3312 C   0  0  0  0  0  0  0  0  0  0  0  0
  -28.4516  -30.9869   24.8819 C   0  0  0  0  0  0  0  0  0  0  0  0
  -27.2307  -29.7647   20.1216 C   0  0  0  0  0  0  0  0  0  0  0  0
  -23.1833   -8.2034   22.3640 C   0  0  0  0  0  0  0  0  0  0  0  0
  -22.2827   -8.6246   20.1620 C   0  0  0  0  0  0  0  0  0  0  0  0
  -27.4526  -28.4464   19.7258 C   0  0  0  0  0  0  0  0  0  0  0  0
  -23.0257   -4.9905   21.3222 C   0  0  0  0  0  0  0  0  0  0  0  0
  -23.5546   -3.8064   21.8359 C   0  0  0  0  0  0  0  0  0  0  0  0
  -28.0987  -17.6266   16.9328 C   0  0  0  0  0  0  0  0  0  0  0  0
  -25.1137  -27.9590   20.0589 C   0  0  0  0  0  0  0  0  0  0  0  0
  -22.0001   -3.9131   23.6823 C   0  0  0  0  0  0  0  0  0  0  0  0
  -28.9045  -18.4366   16.1588 C   0  0  0  0  0  0  0  0  0  0  0  0
  -24.0275  -10.0433   21.0452 C   0  0  0  0  0  0  0  0  0  0  0  0
  -26.2203  -11.1520   20.3595 C   0  0  0  0  0  0  0  0  0  0  0  0
  -28.0040  -32.9999   26.1606 C   0  0  0  0  0  0  0  0  0  0  0  0
  -25.9485  -30.1880   20.5001 C   0  0  0  0  0  0  0  0  0  0  0  0
  -27.5287  -31.8898   25.4365 C   0  0  0  0  0  0  0  0  0  0  0  0
  -24.8776  -29.2839   20.4566 C   0  0  0  0  0  0  0  0  0  0  0  0
  -22.3015   -7.8709   21.3356 C   0  0  0  0  0  0  0  0  0  0  0  0
  -26.3946  -27.5426   19.6972 C   0  0  0  0  0  0  0  0  0  0  0  0
  -21.9840   -5.6359   21.9886 C   0  0  0  0  0  0  0  0  0  0  0  0
  -23.0418   -3.2677   23.0160 C   0  0  0  0  0  0  0  0  0  0  0  0
  -21.4712   -5.0972   23.1686 C   0  0  0  0  0  0  0  0  0  0  0  0
  -24.9183  -11.1657   20.8949 C   0  0  0  0  0  0  0  0  0  0  0  0
  -27.3775  -18.2688   17.9185 C   0  0  0  0  0  0  0  0  0  0  0  0
  -26.6375  -12.4582   20.4378 C   0  0  0  0  0  0  0  0  0  0  0  0
  -28.2529  -20.2793   17.3195 C   0  0  0  0  0  0  0  0  0  0  0  0
  -28.7784  -23.5779   19.2716 C   0  0  0  0  0  0  0  0  0  0  0  0
  -28.0032  -24.4424   18.5943 C   0  0  0  0  0  0  0  0  0  0  0  0
  -26.9841  -10.0564   19.8380 C   0  0  0  0  0  0  0  0  0  0  0  0
  -24.6631  -31.3379   23.1701 C   0  0  0  0  0  0  0  0  0  0  0  0
  -22.0526  -31.7258   21.2841 C   0  0  0  0  0  0  0  0  0  0  0  0
  -20.3254  -30.7791   18.4970 C   0  0  0  0  0  0  0  0  0  0  0  0
  -25.7223  -17.9114   19.7837 C   0  0  0  0  0  0  0  0  0  0  0  0
  -27.0645  -33.9785   26.8195 C   0  0  0  0  0  0  0  0  0  0  0  0
  -25.7205  -31.6202   20.8990 C   0  0  0  0  0  0  0  0  0  0  0  0
  -23.4782  -29.6934   20.8339 C   0  0  0  0  0  0  0  0  0  0  0  0
  -28.9005  -22.1207   18.9302 C   0  0  0  0  0  0  0  0  0  0  0  0
  -27.1471  -24.0070   17.4312 C   0  0  0  0  0  0  0  0  0  0  0  0
  -25.6391  -33.9141   26.2770 C   0  0  0  0  0  0  0  0  0  0  0  0
  -26.9936  -22.4866   17.3154 C   0  0  0  0  0  0  0  0  0  0  0  0
  -24.5966  -16.4309   22.8198 C   0  0  0  0  0  0  0  0  0  0  0  0
  -25.1701  -32.4659   26.1789 C   0  0  0  0  0  0  0  0  0  0  0  0
  -24.6870  -14.9280   22.5456 C   0  0  0  0  0  0  0  0  0  0  0  0
  -24.1564  -17.2080   21.5804 C   0  0  0  0  0  0  0  0  0  0  0  0
  -25.0430  -15.4508   20.0988 C   0  0  0  0  0  0  0  0  0  0  0  0
  -26.0493  -31.6658   25.2102 C   0  0  1  0  0  0  0  0  0  0  0  0
  -28.3392  -21.7785   17.5367 C   0  0  2  0  0  0  0  0  0  0  0  0
  -24.4731  -31.8103   21.7565 C   0  0  1  0  0  0  0  0  0  0  0  0
  -25.5454  -14.6331   21.2999 C   0  0  2  0  0  0  0  0  0  0  0  0
  -18.2061  -31.2497   17.2384 C   0  0  0  0  0  0  0  0  0  0  0  0
  -20.4700  -30.1533   23.3656 C   0  0  0  0  0  0  0  0  0  0  0  0
  -18.6676  -29.8396   21.6565 C   0  0  0  0  0  0  0  0  0  0  0  0
  -19.2715  -32.1354   22.4226 C   0  0  0  0  0  0  0  0  0  0  0  0
  -21.8112  -31.6344   16.0846 C   0  0  0  0  0  0  0  0  0  0  0  0
  -27.9421  -25.8985   18.9501 C   0  0  0  0  0  0  0  0  0  1  0  0
  -20.8624  -30.8726   20.9172 C   0  0  1  0  0  0  0  0  0  0  0  0
  -19.6807  -31.5902   17.3876 C   0  0  2  0  0  0  0  0  0  0  0  0
  -19.8445  -30.7417   22.0852 C   0  0  0  0  0  0  0  0  0  0  0  0
  -29.0061  -19.7716   16.3252 N   0  0  0  0  0  0  0  0  0  0  0  0
  -24.5339  -12.3840   21.2846 N   0  0  0  0  0  0  0  0  0  0  0  0
  -27.4309  -19.5985   18.1407 N   0  0  0  0  0  0  0  0  0  0  0  0
  -25.6007  -13.1480   20.9940 N   0  0  0  0  0  0  0  0  0  0  0  0
  -23.3073  -31.1030   21.2229 N   0  0  0  0  0  0  0  0  0  0  0  0
  -25.0174  -16.8814   20.4416 N   0  0  0  0  0  0  0  0  0  0  0  0
  -27.7865  -13.0725   20.0846 N   0  0  0  0  0  0  0  0  0  0  0  0
  -26.4042   -8.7805   19.8319 N   0  0  0  0  0  0  0  0  0  0  0  0
  -26.5342  -17.4768   18.7366 N   0  0  0  0  0  0  0  0  0  0  0  0
  -25.6951  -31.9672   23.8397 N   0  0  0  0  0  0  0  0  0  0  0  0
  -20.3043  -31.4521   19.7003 N   0  0  0  0  0  0  0  0  0  0  0  0
  -20.3590  -31.3214   16.0881 N   0  3  0  0  0  0  0  0  0  0  0  0
  -28.1527  -10.2017   19.4057 O   0  0  0  0  0  0  0  0  0  0  0  0
  -23.9268  -30.4680   23.6205 O   0  0  0  0  0  0  0  0  0  0  0  0
  -21.8762  -32.9034   21.6059 O   0  0  0  0  0  0  0  0  0  0  0  0
  -20.7971  -29.6588   18.3153 O   0  0  0  0  0  0  0  0  0  0  0  0
  -25.6349  -19.0888   20.1416 O   0  0  0  0  0  0  0  0  0  0  0  0
  -21.4595   -6.8109   21.4769 O   0  0  0  0  0  0  0  0  0  0  0  0
  -26.6086  -26.2551   19.3119 O   0  0  0  0  0  0  0  0  0  1  0  0
  -23.5488   -2.1299   23.5083 F   0  0  0  0  0  0  0  0  0  0  0  0
  -20.4697   -5.7121   23.8126 F   0  0  0  0  0  0  0  0  0  0  0  0
  1  2  1  0  0  0  0
  1  5  2  0  0  0  0
  2  6  2  0  0  0  0
  3  8  2  0  0  0  0
  3 17  1  0  0  0  0
  4  9  1  0  0  0  0
  4 17  2  0  0  0  0
  5 19  1  0  0  0  0
  6 21  1  0  0  0  0
  7 10  2  0  0  0  0
  7 20  1  0  0  0  0
  8 23  1  0  0  0  0
  9 23  2  0  0  0  0
 10 24  1  0  0  0  0
 11 12  2  0  0  0  0
 11 25  1  0  0  0  0
 12 26  1  0  0  0  0
 13 16  1  0  0  0  0
 13 29  2  0  0  0  0
 14 22  1  0  0  0  0
 14 24  2  0  0  0  0
 15 26  2  0  0  0  0
 15 27  1  0  0  0  0
 16 64  2  0  0  0  0
 17 28  1  0  0  0  0
 18 28  1  0  0  0  0
 18 30  2  0  0  0  0
 18 34  1  0  0  0  0
 19 21  2  0  0  0  0
 19 39  1  0  0  0  0
 20 22  2  0  0  0  0
 20 40  1  0  0  0  0
 21 51  1  0  0  0  0
 22 41  1  0  0  0  0
 23 81  1  0  0  0  0
 24 82  1  0  0  0  0
 25 27  2  0  0  0  0
 25 81  1  0  0  0  0
 26 83  1  0  0  0  0
 27 84  1  0  0  0  0
 28 65  2  0  0  0  0
 29 66  1  0  0  0  0
 29 72  1  0  0  0  0
 30 67  1  0  0  0  0
 30 70  1  0  0  0  0
 31 52  1  0  0  0  0
 31 64  1  0  0  0  0
 31 66  2  0  0  0  0
 32 33  2  0  0  0  0
 32 42  1  0  0  0  0
 33 43  1  0  0  0  0
 33 60  1  0  0  0  0
 34 71  1  0  0  0  0
 34 76  2  0  0  0  0
 35 53  1  0  0  0  0
 35 73  1  0  0  0  0
 35 77  2  0  0  0  0
 36 61  1  0  0  0  0
 36 68  1  0  0  0  0
 36 78  2  0  0  0  0
 37 62  1  0  0  0  0
 37 74  1  0  0  0  0
 37 79  2  0  0  0  0
 38 69  1  0  0  0  0
 38 72  1  0  0  0  0
 38 80  2  0  0  0  0
 39 44  1  0  0  0  0
 40 53  1  0  0  0  0
 41 68  1  0  0  0  0
 42 52  1  0  0  0  0
 43 45  1  0  0  0  0
 44 47  1  0  0  0  0
 45 52  1  0  0  0  0
 46 48  1  0  0  0  0
 46 49  1  0  0  0  0
 47 51  1  0  0  0  0
 48 54  1  0  0  0  0
 49 69  1  0  0  0  0
 50 54  1  0  0  0  0
 50 69  1  0  0  0  0
 51 73  1  0  0  0  0
 53 68  1  0  0  0  0
 54 67  1  0  0  0  0
 55 62  1  0  0  0  0
 56 63  1  0  0  0  0
 57 63  1  0  0  0  0
 58 63  1  0  0  0  0
 59 75  1  0  0  0  0
 60 82  1  0  0  0  0
 61 63  1  0  0  0  0
 61 74  1  0  0  0  0
 62 75  1  0  0  0  0
 65 67  1  0  0  0  0
M  CHG  1  75   1
M  ISO  4  38 100  60 101  72 100  82 101
M  END
> <Batch ID>
0160

> <Smiles>
CNC(C)C(=O)NC(C(=O)N1Cc2cc([101O:1][101CH2:1]C3=CCC(c4nccc([100NH:0][100C:0](=O)N5CCCC(n6nc(-c7ccc(Oc8ccc(F)cc8F)cc7)c(C(N)=O)c6N)C5)n4)CC3)ccc2CC1C(=O)NC1CCCc2ccccc21)C(C)(C)C

> <Shape>
0.277

> <Color>
0.080

> <Negative vol penalty>
0.000

$$$$

  -OEChem-04052303503D

 88 97  0     1  0  0  0  0  0999 V2000
  -28.1764  -32.3459   19.7674 C   0  0  0  0  0  0  0  0  0  0  0  0
  -28.2059  -31.2455   20.6181 C   0  0  0  0  0  0  0  0  0  0  0  0
  -23.1213   -9.7455   20.0504 C   0  0  0  0  0  0  0  0  0  0  0  0
  -23.7778   -9.9733   22.3644 C   0  0  0  0  0  0  0  0  0  0  0  0
  -27.0335  -33.1414   19.6979 C   0  0  0  0  0  0  0  0  0  0  0  0
  -27.0928  -30.9406   21.4007 C   0  0  0  0  0  0  0  0  0  0  0  0
  -32.4964  -17.7474   23.2520 C   0  0  0  0  0  0  0  0  0  0  0  0
  -25.9739  -26.0019   21.3467 C   0  0  0  0  0  0  0  0  0  0  0  0
  -31.9537  -16.7772   22.4096 C   0  0  0  0  0  0  0  0  0  0  0  0
  -22.3720   -8.6145   20.3744 C   0  0  0  0  0  0  0  0  0  0  0  0
  -23.0284   -8.8423   22.6883 C   0  0  0  0  0  0  0  0  0  0  0  0
  -26.7538  -25.1637   22.1422 C   0  0  0  0  0  0  0  0  0  0  0  0
  -19.7800   -8.0771   23.2199 C   0  0  0  0  0  0  0  0  0  0  0  0
  -18.9716   -8.1404   24.3548 C   0  0  0  0  0  0  0  0  0  0  0  0
  -29.7419  -17.6588   22.8191 C   0  0  0  0  0  0  0  0  0  0  0  0
  -25.0238  -25.1594   23.8233 C   0  0  0  0  0  0  0  0  0  0  0  0
  -20.1870   -6.2909   25.3238 C   0  0  0  0  0  0  0  0  0  0  0  0
  -23.8243  -10.4249   21.0454 C   0  0  0  0  0  0  0  0  0  0  0  0
  -30.2846  -18.6290   23.6616 C   0  0  0  0  0  0  0  0  0  0  0  0
  -24.1603  -12.9306   20.7044 C   0  0  0  0  0  0  0  0  0  0  0  0
  -31.6618  -18.6733   23.8781 C   0  0  0  0  0  0  0  0  0  0  0  0
  -25.9023  -32.8404   20.4729 C   0  0  0  0  0  0  0  0  0  0  0  0
  -24.7156  -26.4348   21.7891 C   0  0  0  0  0  0  0  0  0  0  0  0
  -25.9341  -31.7336   21.3425 C   0  0  0  0  0  0  0  0  0  0  0  0
  -24.2288  -26.0011   23.0304 C   0  0  0  0  0  0  0  0  0  0  0  0
  -30.5764  -16.7329   22.1930 C   0  0  0  0  0  0  0  0  0  0  0  0
  -22.3255   -8.1629   21.6933 C   0  0  0  0  0  0  0  0  0  0  0  0
  -26.2801  -24.7446   23.3820 C   0  0  0  0  0  0  0  0  0  0  0  0
  -20.7919   -7.1206   23.1368 C   0  0  0  0  0  0  0  0  0  0  0  0
  -19.1751   -7.2473   25.4067 C   0  0  0  0  0  0  0  0  0  0  0  0
  -20.9954   -6.2275   24.1888 C   0  0  0  0  0  0  0  0  0  0  0  0
  -24.5990  -11.5929   20.7114 C   0  0  0  0  0  0  0  0  0  0  0  0
  -25.2644  -13.6520   20.3210 C   0  0  0  0  0  0  0  0  0  0  0  0
  -29.0581  -20.7638   23.7256 C   0  0  0  0  0  0  0  0  0  0  0  0
  -29.3746  -19.5941   24.3097 C   0  0  0  0  0  0  0  0  0  0  0  0
  -22.8701  -13.4725   21.0166 C   0  0  0  0  0  0  0  0  0  0  0  0
  -28.1404  -21.7814   24.3217 C   0  0  0  0  0  0  0  0  0  0  0  0
  -23.4192  -29.2617   22.4461 C   0  0  0  0  0  0  0  0  0  0  0  0
  -20.7181  -27.5024   22.8078 C   0  0  0  0  0  0  0  0  0  0  0  0
  -19.3040  -24.4678   23.4702 C   0  0  0  0  0  0  0  0  0  0  0  0
  -30.7127  -14.7556   20.6380 C   0  0  0  0  0  0  0  0  0  0  0  0
  -24.7069  -33.7571   20.3990 C   0  0  0  0  0  0  0  0  0  0  0  0
  -23.8752  -27.3173   20.9074 C   0  0  0  0  0  0  0  0  0  0  0  0
  -22.8760  -26.4210   23.5424 C   0  0  0  0  0  0  0  0  0  0  0  0
  -23.4350  -33.1476   20.9828 C   0  0  0  0  0  0  0  0  0  0  0  0
  -34.3687  -20.8999   25.0999 C   0  0  0  0  0  0  0  0  0  0  0  0
  -34.4846  -19.5785   25.8385 C   0  0  0  0  0  0  0  0  0  0  0  0
  -29.7158  -12.1216   18.4597 C   0  0  0  0  0  0  0  0  0  0  0  0
  -33.2918  -20.6205   24.0625 C   0  0  0  0  0  0  0  0  0  0  0  0
  -33.0387  -19.1203   25.9915 C   0  0  0  0  0  0  0  0  0  0  0  0
  -23.7248  -32.4983   22.3324 C   0  0  0  0  0  0  0  0  0  0  0  0
  -28.2596  -11.8593   18.8507 C   0  0  0  0  0  0  0  0  0  0  0  0
  -30.5752  -12.4695   19.6738 C   0  0  0  0  0  0  0  0  0  0  0  0
  -28.6053  -13.3037   20.8955 C   0  0  0  0  0  0  0  0  0  0  0  0
  -32.2830  -19.7071   24.7818 C   0  0  0  0  0  0  0  0  0  0  0  0
  -24.7377  -31.3560   22.1888 C   0  0  1  0  0  0  0  0  0  0  0  0
  -22.8276  -28.1114   21.6816 C   0  0  1  0  0  0  0  0  0  0  0  0
  -27.6869  -13.0129   19.6973 C   0  0  2  0  0  0  0  0  0  0  0  0
  -17.0730  -23.3497   23.7343 C   0  0  0  0  0  0  0  0  0  0  0  0
  -20.4136  -28.7672   25.5678 C   0  0  0  0  0  0  0  0  0  0  0  0
  -18.7759  -26.9614   26.1380 C   0  0  0  0  0  0  0  0  0  0  0  0
  -18.2814  -28.5496   24.2790 C   0  0  0  0  0  0  0  0  0  0  0  0
  -19.8293  -22.6272   21.2130 C   0  0  0  0  0  0  0  0  0  0  0  0
  -27.9236  -23.0291   23.4908 C   0  0  0  0  0  0  0  0  0  1  0  0
  -20.0586  -26.7802   23.9579 C   0  0  1  0  0  0  0  0  0  0  0  0
  -18.1976  -23.6981   22.7717 C   0  0  2  0  0  0  0  0  0  0  0  0
  -19.4087  -27.7581   24.9772 C   0  0  0  0  0  0  0  0  0  0  0  0
  -25.8817  -11.4691   20.3602 N   0  0  0  0  0  0  0  0  0  0  0  0
  -26.2585  -12.7382   20.1288 N   0  0  0  0  0  0  0  0  0  0  0  0
  -22.0945  -27.2894   22.6465 N   0  0  0  0  0  0  0  0  0  0  0  0
  -29.9731  -13.5731   20.4251 N   0  0  0  0  0  0  0  0  0  0  0  0
  -25.4721  -14.9726   20.1328 N   0  0  0  0  0  0  0  0  0  0  0  0
  -21.8480  -12.5903   21.3926 N   0  0  0  0  0  0  0  0  0  0  0  0
  -30.0254  -15.7476   21.3367 N   0  0  0  0  0  0  0  0  0  0  0  0
  -24.0942  -30.1737   21.6573 N   0  0  0  0  0  0  0  0  0  0  0  0
  -19.1249  -25.8307   23.3620 N   0  0  0  0  0  0  0  0  0  0  0  0
  -18.7319  -22.4319   22.1951 N   0  3  0  0  0  0  0  0  0  0  0  0
  -22.6263  -14.7010   20.9477 O   0  0  0  0  0  0  0  0  0  0  0  0
  -27.5995  -21.6175   25.4113 O   0  0  0  0  0  0  0  0  0  0  0  0
  -23.2729  -29.3184   23.6614 O   0  0  0  0  0  0  0  0  0  0  0  0
  -20.0358  -28.2230   22.0752 O   0  0  0  0  0  0  0  0  0  0  0  0
  -20.2322  -23.9153   24.0566 O   0  0  0  0  0  0  0  0  0  0  0  0
  -31.8609  -14.8894   20.2070 O   0  0  0  0  0  0  0  0  0  0  0  0
  -28.8859  -19.1669   25.5265 O   0  0  0  0  0  0  0  0  0  0  0  0
  -21.5941   -7.0595   22.0098 O   0  0  0  0  0  0  0  0  0  0  0  0
  -27.0395  -23.9269   24.1607 O   0  0  0  0  0  0  0  0  0  1  0  0
  -18.3997   -7.3092   26.4972 F   0  0  0  0  0  0  0  0  0  0  0  0
  -21.9668   -5.3072   24.1153 F   0  0  0  0  0  0  0  0  0  0  0  0
  1  2  1  0  0  0  0
  1  5  2  0  0  0  0
  2  6  2  0  0  0  0
  3 10  2  0  0  0  0
  3 18  1  0  0  0  0
  4 11  1  0  0  0  0
  4 18  2  0  0  0  0
  5 22  1  0  0  0  0
  6 24  1  0  0  0  0
  7  9  2  0  0  0  0
  7 21  1  0  0  0  0
  8 12  2  0  0  0  0
  8 23  1  0  0  0  0
  9 26  1  0  0  0  0
 10 27  1  0  0  0  0
 11 27  2  0  0  0  0
 12 28  1  0  0  0  0
 13 14  2  0  0  0  0
 13 29  1  0  0  0  0
 14 30  1  0  0  0  0
 15 19  1  0  0  0  0
 15 26  2  0  0  0  0
 16 25  1  0  0  0  0
 16 28  2  0  0  0  0
 17 30  2  0  0  0  0
 17 31  1  0  0  0  0
 18 32  1  0  0  0  0
 19 21  2  0  0  0  0
 19 35  1  0  0  0  0
 20 32  1  0  0  0  0
 20 33  2  0  0  0  0
 20 36  1  0  0  0  0
 21 55  1  0  0  0  0
 22 24  2  0  0  0  0
 22 42  1  0  0  0  0
 23 25  2  0  0  0  0
 23 43  1  0  0  0  0
 24 56  1  0  0  0  0
 25 44  1  0  0  0  0
 26 74  1  0  0  0  0
 27 85  1  0  0  0  0
 28 86  1  0  0  0  0
 29 31  2  0  0  0  0
 29 85  1  0  0  0  0
 30 87  1  0  0  0  0
 31 88  1  0  0  0  0
 32 68  2  0  0  0  0
 33 69  1  0  0  0  0
 33 72  1  0  0  0  0
 34 35  2  0  0  0  0
 34 37  1  0  0  0  0
 35 84  1  0  0  0  0
 36 73  1  0  0  0  0
 36 78  2  0  0  0  0
 37 64  1  0  0  0  0
 37 79  2  0  0  0  0
 38 57  1  0  0  0  0
 38 75  1  0  0  0  0
 38 80  2  0  0  0  0
 39 65  1  0  0  0  0
 39 70  1  0  0  0  0
 39 81  2  0  0  0  0
 40 66  1  0  0  0  0
 40 76  1  0  0  0  0
 40 82  2  0  0  0  0
 41 71  1  0  0  0  0
 41 74  1  0  0  0  0
 41 83  2  0  0  0  0
 42 45  1  0  0  0  0
 43 57  1  0  0  0  0
 44 70  1  0  0  0  0
 45 51  1  0  0  0  0
 46 47  1  0  0  0  0
 46 49  1  0  0  0  0
 47 50  1  0  0  0  0
 48 52  1  0  0  0  0
 48 53  1  0  0  0  0
 49 55  1  0  0  0  0
 50 55  1  0  0  0  0
 51 56  1  0  0  0  0
 52 58  1  0  0  0  0
 53 71  1  0  0  0  0
 54 58  1  0  0  0  0
 54 71  1  0  0  0  0
 56 75  1  0  0  0  0
 57 70  1  0  0  0  0
 58 69  1  0  0  0  0
 59 66  1  0  0  0  0
 60 67  1  0  0  0  0
 61 67  1  0  0  0  0
 62 67  1  0  0  0  0
 63 77  1  0  0  0  0
 64 86  1  0  0  0  0
 65 67  1  0  0  0  0
 65 76  1  0  0  0  0
 66 77  1  0  0  0  0
 68 69  1  0  0  0  0
M  CHG  1  77   1
M  ISO  4  41 100  64 101  74 100  86 101
M  END
> <Batch ID>
0160

> <Smiles>
CNC(C)C(=O)NC(C(=O)N1Cc2cc([101O:1][101CH2:1]C(=O)CC(=O)c3cc([100NH:0][100C:0](=O)N4CCCC(n5nc(-c6ccc(Oc7ccc(F)cc7F)cc6)c(C(N)=O)c5N)C4)ccc3C3CCCC3)ccc2CC1C(=O)NC1CCCc2ccccc21)C(C)(C)C

> <Shape>
0.256

> <Color>
0.196

> <Negative vol penalty>
0.000

$$$$

  -OEChem-04052303503D

 85 93  0     1  0  0  0  0  0999 V2000
  -20.4074  -31.0924   22.1977 C   0  0  0  0  0  0  0  0  0  0  0  0
  -21.6675  -30.5041   22.1603 C   0  0  0  0  0  0  0  0  0  0  0  0
  -26.3099  -12.9368   21.5684 C   0  0  0  0  0  0  0  0  0  0  0  0
  -25.9254  -13.7374   19.3215 C   0  0  0  0  0  0  0  0  0  0  0  0
  -19.2720  -30.2968   22.3463 C   0  0  0  0  0  0  0  0  0  0  0  0
  -21.7931  -29.1198   22.2726 C   0  0  0  0  0  0  0  0  0  0  0  0
  -25.0393  -27.1840   18.9022 C   0  0  0  0  0  0  0  0  0  0  0  0
  -28.6288  -21.2089   16.8923 C   0  0  0  0  0  0  0  0  0  0  0  0
  -25.0924  -12.2569   21.5345 C   0  0  0  0  0  0  0  0  0  0  0  0
  -24.7079  -13.0574   19.2876 C   0  0  0  0  0  0  0  0  0  0  0  0
  -26.3994  -27.3223   19.1760 C   0  0  0  0  0  0  0  0  0  0  0  0
  -23.8815   -9.3798   20.2348 C   0  0  0  0  0  0  0  0  0  0  0  0
  -28.6544  -22.1363   15.8507 C   0  0  0  0  0  0  0  0  0  0  0  0
  -23.8581   -8.0683   20.7089 C   0  0  0  0  0  0  0  0  0  0  0  0
  -26.4611  -25.0511   19.9865 C   0  0  0  0  0  0  0  0  0  0  0  0
  -29.4472  -22.8966   18.4152 C   0  0  0  0  0  0  0  0  0  0  0  0
  -22.2312   -8.7011   22.3792 C   0  0  0  0  0  0  0  0  0  0  0  0
  -26.7263  -13.6771   20.4619 C   0  0  0  0  0  0  0  0  0  0  0  0
  -29.2434  -13.8886   20.1056 C   0  0  0  0  0  0  0  0  0  0  0  0
  -19.3831  -28.9013   22.4507 C   0  0  0  0  0  0  0  0  0  0  0  0
  -24.3765  -25.9797   19.1791 C   0  0  0  0  0  0  0  0  0  0  0  0
  -20.6582  -28.3050   22.4240 C   0  0  0  0  0  0  0  0  0  0  0  0
  -25.0932  -24.8992   19.7129 C   0  0  0  0  0  0  0  0  0  0  0  0
  -29.0252  -21.5890   18.1745 C   0  0  0  0  0  0  0  0  0  0  0  0
  -29.4729  -23.8240   17.3736 C   0  0  0  0  0  0  0  0  0  0  0  0
  -24.2915  -12.3172   20.3941 C   0  0  0  0  0  0  0  0  0  0  0  0
  -27.1098  -26.2568   19.7209 C   0  0  0  0  0  0  0  0  0  0  0  0
  -23.0798  -10.3521   20.8329 C   0  0  0  0  0  0  0  0  0  0  0  0
  -23.0329   -7.7289   21.7811 C   0  0  0  0  0  0  0  0  0  0  0  0
  -29.0764  -23.4439   16.0914 C   0  0  0  0  0  0  0  0  0  0  0  0
  -22.2546  -10.0127   21.9051 C   0  0  0  0  0  0  0  0  0  0  0  0
  -27.9835  -14.3802   20.4965 C   0  0  0  0  0  0  0  0  0  0  0  0
  -30.1048  -14.9347   20.3300 C   0  0  0  0  0  0  0  0  0  0  0  0
  -29.6030  -12.6016   19.5859 C   0  0  0  0  0  0  0  0  0  0  0  0
  -30.6172  -26.8089   19.0386 C   0  0  0  0  0  0  0  0  0  0  0  0
  -30.8297  -25.4816   18.4871 C   0  0  0  0  0  0  0  0  0  0  0  0
  -21.9786  -25.1253   21.0828 C   0  0  0  0  0  0  0  0  0  0  0  0
  -22.3184  -22.2702   19.5811 C   0  0  0  0  0  0  0  0  0  0  0  0
  -24.3326  -20.1320   17.8438 C   0  0  0  0  0  0  0  0  0  0  0  0
  -29.3594  -20.8588   20.5623 C   0  0  0  0  0  0  0  0  0  0  0  0
  -18.1306  -28.0869   22.6573 C   0  0  0  0  0  0  0  0  0  0  0  0
  -22.9150  -25.8377   18.8531 C   0  0  0  0  0  0  0  0  0  0  0  0
  -24.4326  -23.5785   20.0096 C   0  0  0  0  0  0  0  0  0  0  0  0
  -18.3232  -26.5958   22.3933 C   0  0  0  0  0  0  0  0  0  0  0  0
  -30.6810  -18.7766   23.1304 C   0  0  0  0  0  0  0  0  0  0  0  0
  -19.5935  -26.0932   23.0719 C   0  0  0  0  0  0  0  0  0  0  0  0
  -30.2591  -17.3675   22.7076 C   0  0  0  0  0  0  0  0  0  0  0  0
  -29.6070  -19.8124   22.8025 C   0  0  0  0  0  0  0  0  0  0  0  0
  -28.7264  -18.4019   20.9848 C   0  0  0  0  0  0  0  0  0  0  0  0
  -20.8336  -26.8048   22.5177 C   0  0  1  0  0  0  0  0  0  0  0  0
  -22.2286  -24.7352   19.6535 C   0  0  1  0  0  0  0  0  0  0  0  0
  -29.8031  -17.3335   21.2357 C   0  0  2  0  0  0  0  0  0  0  0  0
  -24.3415  -17.8573   16.7842 C   0  0  0  0  0  0  0  0  0  0  0  0
  -22.5535  -20.9886   22.3401 C   0  0  0  0  0  0  0  0  0  0  0  0
  -23.4910  -18.9469   21.2351 C   0  0  0  0  0  0  0  0  0  0  0  0
  -21.1718  -19.6967   20.7040 C   0  0  0  0  0  0  0  0  0  0  0  0
  -32.3400  -23.4731   18.4779 C   0  0  0  0  0  0  0  0  0  0  0  0
  -24.8739  -21.2566   15.1603 C   0  0  0  0  0  0  0  0  0  0  0  0
  -29.1817  -27.2816   19.1615 C   0  0  0  0  0  0  0  0  0  1  0  0
  -23.1356  -21.0245   19.8250 C   0  0  1  0  0  0  0  0  0  0  0  0
  -24.1012  -19.3432   16.5676 C   0  0  2  0  0  0  0  0  0  0  0  0
  -22.6003  -20.1896   21.0224 C   0  0  0  0  0  0  0  0  0  0  0  0
  -28.0355  -15.6404   20.9361 N   0  0  0  0  0  0  0  0  0  0  0  0
  -29.3384  -15.9495   20.8228 N   0  0  0  0  0  0  0  0  0  0  0  0
  -23.0006  -23.4912   19.6792 N   0  0  0  0  0  0  0  0  0  0  0  0
  -29.2279  -19.7242   21.3907 N   0  0  0  0  0  0  0  0  0  0  0  0
  -31.4355  -15.0761   20.1519 N   0  0  0  0  0  0  0  0  0  0  0  0
  -28.5941  -11.6433   19.4179 N   0  0  0  0  0  0  0  0  0  0  0  0
  -29.8893  -25.1088   17.6114 N   0  0  0  0  0  0  0  0  0  0  0  0
  -28.9993  -20.6462   19.2320 N   0  0  0  0  0  0  0  0  0  0  0  0
  -21.1977  -26.2559   21.2291 N   0  0  0  0  0  0  0  0  0  0  0  0
  -23.1655  -20.3014   18.5582 N   0  0  0  0  0  0  0  0  0  0  0  0
  -31.9180  -24.8171   18.8927 N   0  3  0  0  0  0  0  0  0  0  0  0
  -25.0189  -19.8160   15.4928 N   0  3  0  0  0  0  0  0  0  0  0  0
  -30.7865  -12.3046   19.2951 O   0  0  0  0  0  0  0  0  0  0  0  0
  -31.5641  -27.5098   19.3858 O   0  0  0  0  0  0  0  0  0  0  0  0
  -22.4575  -24.4497   21.9861 O   0  0  0  0  0  0  0  0  0  0  0  0
  -21.1206  -22.1635   19.3064 O   0  0  0  0  0  0  0  0  0  0  0  0
  -25.4387  -20.5524   18.1757 O   0  0  0  0  0  0  0  0  0  0  0  0
  -29.7877  -21.9319   20.9947 O   0  0  0  0  0  0  0  0  0  0  0  0
  -23.1036  -11.6536   20.3606 O   0  0  0  0  0  0  0  0  0  0  0  0
  -28.4372  -26.3893   19.9897 O   0  0  0  0  0  0  0  0  0  1  0  0
  -23.0094   -6.4690   22.2352 F   0  0  0  0  0  0  0  0  0  0  0  0
  -29.0995  -24.3286   15.0849 F   0  0  0  0  0  0  0  0  0  0  0  0
  -21.4813  -10.9421   22.4830 F   0  0  0  0  0  0  0  0  0  0  0  0
  1  2  1  0  0  0  0
  1  5  2  0  0  0  0
  2  6  2  0  0  0  0
  3  9  2  0  0  0  0
  3 18  1  0  0  0  0
  4 10  1  0  0  0  0
  4 18  2  0  0  0  0
  5 20  1  0  0  0  0
  6 22  1  0  0  0  0
  7 11  2  0  0  0  0
  7 21  1  0  0  0  0
  8 13  2  0  0  0  0
  8 24  1  0  0  0  0
  9 26  1  0  0  0  0
 10 26  2  0  0  0  0
 11 27  1  0  0  0  0
 12 14  2  0  0  0  0
 12 28  1  0  0  0  0
 13 30  1  0  0  0  0
 14 29  1  0  0  0  0
 15 23  1  0  0  0  0
 15 27  2  0  0  0  0
 16 24  2  0  0  0  0
 16 25  1  0  0  0  0
 17 29  2  0  0  0  0
 17 31  1  0  0  0  0
 18 32  1  0  0  0  0
 19 32  1  0  0  0  0
 19 33  2  0  0  0  0
 19 34  1  0  0  0  0
 20 22  2  0  0  0  0
 20 41  1  0  0  0  0
 21 23  2  0  0  0  0
 21 42  1  0  0  0  0
 22 50  1  0  0  0  0
 23 43  1  0  0  0  0
 24 70  1  0  0  0  0
 25 30  2  0  0  0  0
 25 69  1  0  0  0  0
 26 81  1  0  0  0  0
 27 82  1  0  0  0  0
 28 31  2  0  0  0  0
 28 81  1  0  0  0  0
 29 83  1  0  0  0  0
 30 84  1  0  0  0  0
 31 85  1  0  0  0  0
 32 63  2  0  0  0  0
 33 64  1  0  0  0  0
 33 67  1  0  0  0  0
 34 68  1  0  0  0  0
 34 75  2  0  0  0  0
 35 36  1  0  0  0  0
 35 59  1  0  0  0  0
 35 76  2  0  0  0  0
 36 69  1  0  0  0  0
 36 73  2  0  0  0  0
 37 51  1  0  0  0  0
 37 71  1  0  0  0  0
 37 77  2  0  0  0  0
 38 60  1  0  0  0  0
 38 65  1  0  0  0  0
 38 78  2  0  0  0  0
 39 61  1  0  0  0  0
 39 72  1  0  0  0  0
 39 79  2  0  0  0  0
 40 66  1  0  0  0  0
 40 70  1  0  0  0  0
 40 80  2  0  0  0  0
 41 44  1  0  0  0  0
 42 51  1  0  0  0  0
 43 65  1  0  0  0  0
 44 46  1  0  0  0  0
 45 47  1  0  0  0  0
 45 48  1  0  0  0  0
 46 50  1  0  0  0  0
 47 52  1  0  0  0  0
 48 66  1  0  0  0  0
 49 52  1  0  0  0  0
 49 66  1  0  0  0  0
 50 71  1  0  0  0  0
 51 65  1  0  0  0  0
 52 64  1  0  0  0  0
 53 61  1  0  0  0  0
 54 62  1  0  0  0  0
 55 62  1  0  0  0  0
 56 62  1  0  0  0  0
 57 73  1  0  0  0  0
 58 74  1  0  0  0  0
 59 82  1  0  0  0  0
 60 62  1  0  0  0  0
 60 72  1  0  0  0  0
 61 74  1  0  0  0  0
 63 64  1  0  0  0  0
M  CHG  2  73   1  74   1
M  ISO  4  40 100  59 101  70 100  82 101
M  END
> <Batch ID>
0160

> <Smiles>
CN=C(Nc1cc([100NH:0][100C:0](=O)N2CCCC(n3nc(-c4ccc(Oc5ccc(F)cc5F)cc4)c(C(N)=O)c3N)C2)ccc1F)C(=O)[101CH2:1][101O:1]c1ccc2c(c1)CN(C(=O)C(NC(=O)C(C)NC)C(C)(C)C)C(C(=O)NC1CCCc3ccccc31)C2

> <Shape>
0.287

> <Color>
0.081

> <Negative vol penalty>
0.000

$$$$

  -OEChem-04052303503D

 86 95  0     1  0  0  0  0  0999 V2000
  -19.0932  -26.5717   31.0241 C   0  0  0  0  0  0  0  0  0  0  0  0
  -20.0701  -25.6742   30.6053 C   0  0  0  0  0  0  0  0  0  0  0  0
  -23.0003   -9.8942   19.9812 C   0  0  0  0  0  0  0  0  0  0  0  0
  -23.7255   -9.9450   22.2852 C   0  0  0  0  0  0  0  0  0  0  0  0
  -17.8048  -26.4941   30.4968 C   0  0  0  0  0  0  0  0  0  0  0  0
  -19.7589  -24.6976   29.6598 C   0  0  0  0  0  0  0  0  0  0  0  0
  -23.3068  -24.2664   26.0721 C   0  0  0  0  0  0  0  0  0  0  0  0
  -22.2336   -8.7599   20.2474 C   0  0  0  0  0  0  0  0  0  0  0  0
  -22.9587   -8.8106   22.5515 C   0  0  0  0  0  0  0  0  0  0  0  0
  -24.4657  -23.5658   26.4037 C   0  0  0  0  0  0  0  0  0  0  0  0
  -23.2024   -5.4716   22.0795 C   0  0  0  0  0  0  0  0  0  0  0  0
  -23.7898   -4.4543   22.8315 C   0  0  0  0  0  0  0  0  0  0  0  0
  -23.6064  -21.6189   25.2678 C   0  0  0  0  0  0  0  0  0  0  0  0
  -29.8809  -17.4481   23.0992 C   0  0  0  0  0  0  0  0  0  0  0  0
  -32.0586  -16.5490   22.5645 C   0  0  0  0  0  0  0  0  0  0  0  0
  -22.0659   -4.6975   24.5067 C   0  0  0  0  0  0  0  0  0  0  0  0
  -23.7464  -10.4868   21.0001 C   0  0  0  0  0  0  0  0  0  0  0  0
  -24.1322  -13.0023   20.8242 C   0  0  0  0  0  0  0  0  0  0  0  0
  -17.4802  -25.5223   29.5373 C   0  0  0  0  0  0  0  0  0  0  0  0
  -22.2826  -23.6441   25.3441 C   0  0  0  0  0  0  0  0  0  0  0  0
  -18.4646  -24.6061   29.1202 C   0  0  0  0  0  0  0  0  0  0  0  0
  -22.4366  -22.3146   24.9261 C   0  0  0  0  0  0  0  0  0  0  0  0
  -31.8532  -18.3424   24.1703 C   0  0  0  0  0  0  0  0  0  0  0  0
  -30.6752  -16.5506   22.3857 C   0  0  0  0  0  0  0  0  0  0  0  0
  -30.4699  -18.3441   23.9915 C   0  0  0  0  0  0  0  0  0  0  0  0
  -22.2128   -8.2181   21.5326 C   0  0  0  0  0  0  0  0  0  0  0  0
  -24.6144  -22.2410   26.0040 C   0  0  0  0  0  0  0  0  0  0  0  0
  -22.0469   -6.1020   22.5410 C   0  0  0  0  0  0  0  0  0  0  0  0
  -23.2215   -4.0672   24.0451 C   0  0  0  0  0  0  0  0  0  0  0  0
  -32.6476  -17.4449   23.4568 C   0  0  0  0  0  0  0  0  0  0  0  0
  -21.4786   -5.7149   23.7547 C   0  0  0  0  0  0  0  0  0  0  0  0
  -24.5391  -11.6582   20.7255 C   0  0  0  0  0  0  0  0  0  0  0  0
  -25.2421  -13.7247   20.4598 C   0  0  0  0  0  0  0  0  0  0  0  0
  -22.8643  -13.5489   21.2107 C   0  0  0  0  0  0  0  0  0  0  0  0
  -19.2333  -22.9471   25.9093 C   0  0  0  0  0  0  0  0  0  0  0  0
  -27.6685  -20.3572   25.4686 C   0  0  0  0  0  0  0  0  0  0  0  0
  -19.2712  -22.0289   22.7984 C   0  0  0  0  0  0  0  0  0  0  0  0
  -21.0884  -20.9568   20.1160 C   0  0  0  0  0  0  0  0  0  0  0  0
  -30.7217  -14.6847   20.6938 C   0  0  0  0  0  0  0  0  0  0  0  0
  -16.0614  -25.4473   29.0312 C   0  0  0  0  0  0  0  0  0  0  0  0
  -21.0502  -24.4219   24.9715 C   0  0  0  0  0  0  0  0  0  0  0  0
  -21.3752  -21.6071   24.1253 C   0  0  0  0  0  0  0  0  0  0  0  0
  -15.9124  -24.6213   27.7561 C   0  0  0  0  0  0  0  0  0  0  0  0
  -29.6030  -12.2322   18.3678 C   0  0  0  0  0  0  0  0  0  0  0  0
  -33.3898  -18.7398   26.2086 C   0  0  0  0  0  0  0  0  0  0  0  0
  -32.0516  -19.3125   26.5573 C   0  0  0  0  0  0  0  0  0  0  0  0
  -16.6712  -23.3040   27.8817 C   0  0  0  0  0  0  0  0  0  0  0  0
  -28.1523  -11.9748   18.7819 C   0  0  0  0  0  0  0  0  0  0  0  0
  -30.5035  -12.4753   19.5776 C   0  0  0  0  0  0  0  0  0  0  0  0
  -28.5883  -13.2645   20.9111 C   0  0  0  0  0  0  0  0  0  0  0  0
  -32.5055  -19.2907   25.1226 C   0  0  0  0  0  0  0  0  0  0  0  0
  -18.1722  -23.5485   28.0780 C   0  0  1  0  0  0  0  0  0  0  0  0
  -19.8497  -23.5304   24.6694 C   0  0  1  0  0  0  0  0  0  0  0  0
  -27.6306  -13.0784   19.7229 C   0  0  2  0  0  0  0  0  0  0  0  0
  -20.8365  -20.2526   17.7206 C   0  0  0  0  0  0  0  0  0  0  0  0
  -18.1584  -19.3378   23.7091 C   0  0  0  0  0  0  0  0  0  0  0  0
  -18.8177  -18.3918   21.4867 C   0  0  0  0  0  0  0  0  0  0  0  0
  -17.1377  -20.2317   21.6083 C   0  0  0  0  0  0  0  0  0  0  0  0
  -22.8255  -23.1563   19.1657 C   0  0  0  0  0  0  0  0  0  0  0  0
  -28.2297  -19.2850   24.5589 C   0  0  0  0  0  0  0  0  0  0  0  0
  -26.1629  -20.5316   25.4243 C   0  0  0  0  0  0  0  0  0  1  0  0
  -19.5709  -20.7428   22.0669 C   0  0  1  0  0  0  0  0  0  0  0  0
  -21.1099  -21.4107   18.6676 C   0  0  2  0  0  0  0  0  0  0  0  0
  -18.4405  -19.6885   22.2345 C   0  0  0  0  0  0  0  0  0  0  0  0
  -25.8083  -11.5315   20.3293 N   0  0  0  0  0  0  0  0  0  0  0  0
  -26.2085  -12.8052   20.1758 N   0  0  0  0  0  0  0  0  0  0  0  0
  -20.1859  -22.4080   23.7911 N   0  0  0  0  0  0  0  0  0  0  0  0
  -29.9487  -13.5363   20.4209 N   0  0  0  0  0  0  0  0  0  0  0  0
  -25.4758  -15.0503   20.3578 N   0  0  0  0  0  0  0  0  0  0  0  0
  -21.8323  -12.6650   21.5542 N   0  0  0  0  0  0  0  0  0  0  0  0
  -30.0776  -15.6400   21.4794 N   0  0  0  0  0  0  0  0  0  0  0  0
  -29.6629  -19.2285   24.6927 N   0  0  0  0  0  0  0  0  0  0  0  0
  -18.7973  -23.8918   26.8187 N   0  0  0  0  0  0  0  0  0  0  0  0
  -19.8410  -21.1143   20.6821 N   0  0  0  0  0  0  0  0  0  0  0  0
  -22.4388  -21.9928   18.3269 N   0  3  0  0  0  0  0  0  0  0  0  0
  -22.6478  -14.7843   21.2345 O   0  0  0  0  0  0  0  0  0  0  0  0
  -19.1574  -21.7301   26.0313 O   0  0  0  0  0  0  0  0  0  0  0  0
  -28.3776  -21.0477   26.1994 O   0  0  0  0  0  0  0  0  0  0  0  0
  -18.2665  -22.6772   22.4951 O   0  0  0  0  0  0  0  0  0  0  0  0
  -22.0781  -20.5040   20.6870 O   0  0  0  0  0  0  0  0  0  0  0  0
  -31.8604  -14.8234   20.2398 O   0  0  0  0  0  0  0  0  0  0  0  0
  -21.4645   -7.1113   21.7929 O   0  0  0  0  0  0  0  0  0  0  0  0
  -25.7442  -21.5546   26.3268 O   0  0  0  0  0  0  0  0  0  1  0  0
  -23.7848   -3.0891   24.7665 F   0  0  0  0  0  0  0  0  0  0  0  0
  -33.9781  -17.4345   23.6208 F   0  0  0  0  0  0  0  0  0  0  0  0
  -20.3678   -6.3159   24.2027 F   0  0  0  0  0  0  0  0  0  0  0  0
  1  2  1  0  0  0  0
  1  5  2  0  0  0  0
  2  6  2  0  0  0  0
  3  8  2  0  0  0  0
  3 17  1  0  0  0  0
  4  9  1  0  0  0  0
  4 17  2  0  0  0  0
  5 19  1  0  0  0  0
  6 21  1  0  0  0  0
  7 10  2  0  0  0  0
  7 20  1  0  0  0  0
  8 26  1  0  0  0  0
  9 26  2  0  0  0  0
 10 27  1  0  0  0  0
 11 12  2  0  0  0  0
 11 28  1  0  0  0  0
 12 29  1  0  0  0  0
 13 22  1  0  0  0  0
 13 27  2  0  0  0  0
 14 24  2  0  0  0  0
 14 25  1  0  0  0  0
 15 24  1  0  0  0  0
 15 30  2  0  0  0  0
 16 29  2  0  0  0  0
 16 31  1  0  0  0  0
 17 32  1  0  0  0  0
 18 32  1  0  0  0  0
 18 33  2  0  0  0  0
 18 34  1  0  0  0  0
 19 21  2  0  0  0  0
 19 40  1  0  0  0  0
 20 22  2  0  0  0  0
 20 41  1  0  0  0  0
 21 52  1  0  0  0  0
 22 42  1  0  0  0  0
 23 25  2  0  0  0  0
 23 30  1  0  0  0  0
 23 51  1  0  0  0  0
 24 71  1  0  0  0  0
 25 72  1  0  0  0  0
 26 82  1  0  0  0  0
 27 83  1  0  0  0  0
 28 31  2  0  0  0  0
 28 82  1  0  0  0  0
 29 84  1  0  0  0  0
 30 85  1  0  0  0  0
 31 86  1  0  0  0  0
 32 65  2  0  0  0  0
 33 66  1  0  0  0  0
 33 69  1  0  0  0  0
 34 70  1  0  0  0  0
 34 76  2  0  0  0  0
 35 53  1  0  0  0  0
 35 73  1  0  0  0  0
 35 77  2  0  0  0  0
 36 60  1  0  0  0  0
 36 61  1  0  0  0  0
 36 78  2  0  0  0  0
 37 62  1  0  0  0  0
 37 67  1  0  0  0  0
 37 79  2  0  0  0  0
 38 63  1  0  0  0  0
 38 74  1  0  0  0  0
 38 80  2  0  0  0  0
 39 68  1  0  0  0  0
 39 71  1  0  0  0  0
 39 81  2  0  0  0  0
 40 43  1  0  0  0  0
 41 53  1  0  0  0  0
 42 67  1  0  0  0  0
 43 47  1  0  0  0  0
 44 48  1  0  0  0  0
 44 49  1  0  0  0  0
 45 46  1  0  0  0  0
 45 51  1  0  0  0  0
 46 51  1  0  0  0  0
 47 52  1  0  0  0  0
 48 54  1  0  0  0  0
 49 68  1  0  0  0  0
 50 54  1  0  0  0  0
 50 68  1  0  0  0  0
 52 73  1  0  0  0  0
 53 67  1  0  0  0  0
 54 66  1  0  0  0  0
 55 63  1  0  0  0  0
 56 64  1  0  0  0  0
 57 64  1  0  0  0  0
 58 64  1  0  0  0  0
 59 75  1  0  0  0  0
 60 72  1  0  0  0  0
 61 83  1  0  0  0  0
 62 64  1  0  0  0  0
 62 74  1  0  0  0  0
 63 75  1  0  0  0  0
 65 66  1  0  0  0  0
M  CHG  1  75   1
M  ISO  4  39 100  61 101  71 100  83 101
M  END
> <Batch ID>
0160

> <Smiles>
CNC(C)C(=O)NC(C(=O)N1Cc2cc([101O:1][101CH2:1]C(=O)CNc3cc([100NH:0][100C:0](=O)N4CCCC(n5nc(-c6ccc(Oc7ccc(F)cc7F)cc6)c(C(N)=O)c5N)C4)cc(F)c3C3CC3)ccc2CC1C(=O)NC1CCCc2ccccc21)C(C)(C)C

> <Shape>
0.170

> <Color>
0.198

> <Negative vol penalty>
0.000

$$$$

  -OEChem-04052303503D

 82 90  0     1  0  0  0  0  0999 V2000
  -23.9928   -8.4100   21.4389 C   0  0  0  0  0  0  0  0  0  0  0  0
  -25.1458   -9.1688   21.6131 C   0  0  0  0  0  0  0  0  0  0  0  0
  -19.6471  -26.7867   19.9413 C   0  0  0  0  0  0  0  0  0  0  0  0
  -20.6452  -24.8699   21.0214 C   0  0  0  0  0  0  0  0  0  0  0  0
  -22.8838   -8.9654   20.8020 C   0  0  0  0  0  0  0  0  0  0  0  0
  -25.1908  -10.4831   21.1496 C   0  0  0  0  0  0  0  0  0  0  0  0
  -28.0586  -16.8589   22.7120 C   0  0  0  0  0  0  0  0  0  0  0  0
  -18.6311  -25.9742   19.4383 C   0  0  0  0  0  0  0  0  0  0  0  0
  -19.6291  -24.0573   20.5184 C   0  0  0  0  0  0  0  0  0  0  0  0
  -28.8080  -17.8764   22.1229 C   0  0  0  0  0  0  0  0  0  0  0  0
  -17.0991  -21.5423   19.8169 C   0  0  0  0  0  0  0  0  0  0  0  0
  -16.5105  -20.6249   20.6873 C   0  0  0  0  0  0  0  0  0  0  0  0
  -31.3222  -26.0348   17.4154 C   0  0  0  0  0  0  0  0  0  0  0  0
  -31.4537  -24.6838   17.0144 C   0  0  0  0  0  0  0  0  0  0  0  0
  -26.8042  -18.7564   21.1081 C   0  0  0  0  0  0  0  0  0  0  0  0
  -15.8163  -22.4365   22.1273 C   0  0  0  0  0  0  0  0  0  0  0  0
  -20.6542  -26.2345   20.7329 C   0  0  0  0  0  0  0  0  0  0  0  0
  -21.7109  -27.7667   22.4775 C   0  0  0  0  0  0  0  0  0  0  0  0
  -22.9119  -10.2903   20.3390 C   0  0  0  0  0  0  0  0  0  0  0  0
  -26.6758  -16.7761   22.4944 C   0  0  0  0  0  0  0  0  0  0  0  0
  -24.0816  -11.0563   20.5047 C   0  0  0  0  0  0  0  0  0  0  0  0
  -26.0392  -17.7384   21.6977 C   0  0  0  0  0  0  0  0  0  0  0  0
  -18.6220  -24.6095   19.7268 C   0  0  0  0  0  0  0  0  0  0  0  0
  -28.1813  -18.8236   21.3185 C   0  0  0  0  0  0  0  0  0  0  0  0
  -17.0464  -22.9068   20.1018 C   0  0  0  0  0  0  0  0  0  0  0  0
  -15.8691  -21.0720   21.8424 C   0  0  0  0  0  0  0  0  0  0  0  0
  -16.4050  -23.3539   21.2569 C   0  0  0  0  0  0  0  0  0  0  0  0
  -21.7044  -27.0732   21.2524 C   0  0  0  0  0  0  0  0  0  0  0  0
  -30.8775  -26.0055   18.7167 C   0  0  0  0  0  0  0  0  0  0  0  0
  -22.9239  -28.4106   22.5011 C   0  0  0  0  0  0  0  0  0  0  0  0
  -31.0803  -23.9252   18.0994 C   0  0  0  0  0  0  0  0  0  0  0  0
  -20.7100  -27.8237   23.5025 C   0  0  0  0  0  0  0  0  0  0  0  0
  -24.7373  -14.6304   21.1744 C   0  0  0  0  0  0  0  0  0  0  0  0
  -22.4235  -16.6265   22.2627 C   0  0  0  0  0  0  0  0  0  0  0  0
  -30.6171  -21.8387   19.4320 C   0  0  0  0  0  0  0  0  0  0  0  0
  -21.5339  -19.7760   23.2301 C   0  0  0  0  0  0  0  0  0  0  0  0
  -28.0795  -27.1839   19.8991 C   0  0  0  0  0  0  0  0  0  0  0  0
  -21.7050  -10.8318   19.6145 C   0  0  0  0  0  0  0  0  0  0  0  0
  -25.8775  -15.6881   23.1587 C   0  0  0  0  0  0  0  0  0  0  0  0
  -24.5540  -17.7057   21.4492 C   0  0  0  0  0  0  0  0  0  0  0  0
  -21.7032  -12.3530   19.4865 C   0  0  0  0  0  0  0  0  0  0  0  0
  -26.2293  -30.2786   19.5870 C   0  0  0  0  0  0  0  0  0  0  0  0
  -23.0682  -12.8513   19.0225 C   0  0  0  0  0  0  0  0  0  0  0  0
  -24.8503  -29.8617   20.1014 C   0  0  0  0  0  0  0  0  0  0  0  0
  -26.8799  -29.1590   18.7799 C   0  0  0  0  0  0  0  0  0  0  0  0
  -25.6178  -27.4442   20.0208 C   0  0  0  0  0  0  0  0  0  0  0  0
  -24.1604  -12.4936   20.0378 C   0  0  1  0  0  0  0  0  0  0  0  0
  -24.5564  -15.4000   22.4522 C   0  0  1  0  0  0  0  0  0  0  0  0
  -24.9172  -28.5251   20.8639 C   0  0  2  0  0  0  0  0  0  0  0  0
  -19.5635  -21.1082   24.0304 C   0  0  0  0  0  0  0  0  0  0  0  0
  -21.3112  -16.6834   19.4220 C   0  0  0  0  0  0  0  0  0  0  0  0
  -19.9826  -18.7080   20.0573 C   0  0  0  0  0  0  0  0  0  0  0  0
  -19.5775  -16.5377   21.2184 C   0  0  0  0  0  0  0  0  0  0  0  0
  -22.8681  -20.4297   25.7896 C   0  0  0  0  0  0  0  0  0  0  0  0
  -30.5487  -27.0555   19.6909 C   0  0  0  0  0  0  0  0  0  0  0  0
  -30.6891  -20.3331   19.2044 C   0  0  0  0  0  0  0  0  0  0  0  0
  -30.2700  -19.5239   20.4224 C   0  0  0  0  0  0  0  0  0  1  0  0
  -21.6975  -17.8266   21.7045 C   0  0  1  0  0  0  0  0  0  0  0  0
  -20.7706  -20.2797   24.4418 C   0  0  2  0  0  0  0  0  0  0  0  0
  -20.6705  -17.4387   20.6034 C   0  0  0  0  0  0  0  0  0  0  0  0
  -22.8243  -27.2592   20.5486 N   0  0  0  0  0  0  0  0  0  0  0  0
  -23.5458  -28.0769   21.3340 N   0  0  0  0  0  0  0  0  0  0  0  0
  -23.8179  -16.6188   22.1157 N   0  0  0  0  0  0  0  0  0  0  0  0
  -26.9295  -27.9201   19.5690 N   0  0  0  0  0  0  0  0  0  0  0  0
  -23.5084  -29.2240   23.4061 N   0  0  0  0  0  0  0  0  0  0  0  0
  -19.5226  -27.1023   23.3178 N   0  0  0  0  0  0  0  0  0  0  0  0
  -31.0112  -22.5241   18.2859 N   0  0  0  0  0  0  0  0  0  0  0  0
  -24.1152  -13.3966   21.1678 N   0  0  0  0  0  0  0  0  0  0  0  0
  -21.1142  -18.5193   22.8483 N   0  0  0  0  0  0  0  0  0  0  0  0
  -29.2808  -27.6986   19.4272 N   0  0  0  0  0  0  0  0  0  0  0  0
  -21.6526  -21.1257   25.2946 N   0  3  0  0  0  0  0  0  0  0  0  0
  -20.8571  -28.5076   24.5437 O   0  0  0  0  0  0  0  0  0  0  0  0
  -25.3916  -15.1205   20.2615 O   0  0  0  0  0  0  0  0  0  0  0  0
  -21.7780  -15.7324   22.8153 O   0  0  0  0  0  0  0  0  0  0  0  0
  -30.2549  -22.3209   20.4999 O   0  0  0  0  0  0  0  0  0  0  0  0
  -22.4117  -20.4334   22.6753 O   0  0  0  0  0  0  0  0  0  0  0  0
  -28.0394  -26.1468   20.5698 O   0  0  0  0  0  0  0  0  0  0  0  0
  -30.7276  -24.7233   19.1411 O   0  0  0  0  0  0  0  0  0  0  0  0
  -17.6306  -23.8164   19.2363 O   0  0  0  0  0  0  0  0  0  0  0  0
  -28.9104  -19.8173   20.7417 O   0  0  0  0  0  0  0  0  0  1  0  0
  -15.3026  -20.1911   22.6774 F   0  0  0  0  0  0  0  0  0  0  0  0
  -16.3501  -24.6636   21.5352 F   0  0  0  0  0  0  0  0  0  0  0  0
  1  2  1  0  0  0  0
  1  5  2  0  0  0  0
  2  6  2  0  0  0  0
  3  8  2  0  0  0  0
  3 17  1  0  0  0  0
  4  9  1  0  0  0  0
  4 17  2  0  0  0  0
  5 19  1  0  0  0  0
  6 21  1  0  0  0  0
  7 10  2  0  0  0  0
  7 20  1  0  0  0  0
  8 23  1  0  0  0  0
  9 23  2  0  0  0  0
 10 24  1  0  0  0  0
 11 12  2  0  0  0  0
 11 25  1  0  0  0  0
 12 26  1  0  0  0  0
 13 14  1  0  0  0  0
 13 29  2  0  0  0  0
 14 31  2  0  0  0  0
 15 22  1  0  0  0  0
 15 24  2  0  0  0  0
 16 26  2  0  0  0  0
 16 27  1  0  0  0  0
 17 28  1  0  0  0  0
 18 28  1  0  0  0  0
 18 30  2  0  0  0  0
 18 32  1  0  0  0  0
 19 21  2  0  0  0  0
 19 38  1  0  0  0  0
 20 22  2  0  0  0  0
 20 39  1  0  0  0  0
 21 47  1  0  0  0  0
 22 40  1  0  0  0  0
 23 79  1  0  0  0  0
 24 80  1  0  0  0  0
 25 27  2  0  0  0  0
 25 79  1  0  0  0  0
 26 81  1  0  0  0  0
 27 82  1  0  0  0  0
 28 61  2  0  0  0  0
 29 55  1  0  0  0  0
 29 78  1  0  0  0  0
 30 62  1  0  0  0  0
 30 65  1  0  0  0  0
 31 67  1  0  0  0  0
 31 78  1  0  0  0  0
 32 66  1  0  0  0  0
 32 72  2  0  0  0  0
 33 48  1  0  0  0  0
 33 68  1  0  0  0  0
 33 73  2  0  0  0  0
 34 58  1  0  0  0  0
 34 63  1  0  0  0  0
 34 74  2  0  0  0  0
 35 56  1  0  0  0  0
 35 67  1  0  0  0  0
 35 75  2  0  0  0  0
 36 59  1  0  0  0  0
 36 69  1  0  0  0  0
 36 76  2  0  0  0  0
 37 64  1  0  0  0  0
 37 70  1  0  0  0  0
 37 77  2  0  0  0  0
 38 41  1  0  0  0  0
 39 48  1  0  0  0  0
 40 63  1  0  0  0  0
 41 43  1  0  0  0  0
 42 44  1  0  0  0  0
 42 45  1  0  0  0  0
 43 47  1  0  0  0  0
 44 49  1  0  0  0  0
 45 64  1  0  0  0  0
 46 49  1  0  0  0  0
 46 64  1  0  0  0  0
 47 68  1  0  0  0  0
 48 63  1  0  0  0  0
 49 62  1  0  0  0  0
 50 59  1  0  0  0  0
 51 60  1  0  0  0  0
 52 60  1  0  0  0  0
 53 60  1  0  0  0  0
 54 71  1  0  0  0  0
 55 70  1  0  0  0  0
 56 57  1  0  0  0  0
 57 80  1  0  0  0  0
 58 60  1  0  0  0  0
 58 69  1  0  0  0  0
 59 71  1  0  0  0  0
 61 62  1  0  0  0  0
M  CHG  1  71   1
M  ISO  4  37 100  57 101  70 100  80 101
M  END
> <Batch ID>
0160

> <Smiles>
CNC(C)C(=O)NC(C(=O)N1Cc2cc([101O:1][101CH2:1]CC(=O)Nc3ccc(C[100NH:0][100C:0](=O)N4CCCC(n5nc(-c6ccc(Oc7ccc(F)cc7F)cc6)c(C(N)=O)c5N)C4)o3)ccc2CC1C(=O)NC1CCCc2ccccc21)C(C)(C)C

> <Shape>
0.208

> <Color>
0.080

> <Negative vol penalty>
0.000

$$$$

  -OEChem-04052303503D

 85 94  0     1  0  0  0  0  0999 V2000
  -32.2705   -8.9070   41.2431 C   0  0  0  0  0  0  0  0  0  0  0  0
  -31.7898   -9.3462   40.0137 C   0  0  0  0  0  0  0  0  0  0  0  0
  -22.8488  -10.1042   20.1088 C   0  0  0  0  0  0  0  0  0  0  0  0
  -24.2830   -9.5459   21.9712 C   0  0  0  0  0  0  0  0  0  0  0  0
  -33.4891   -8.2332   41.3134 C   0  0  0  0  0  0  0  0  0  0  0  0
  -32.5280   -9.1127   38.8539 C   0  0  0  0  0  0  0  0  0  0  0  0
  -30.3249   -7.9385   33.2616 C   0  0  0  0  0  0  0  0  0  0  0  0
  -22.1418   -8.9166   20.2973 C   0  0  0  0  0  0  0  0  0  0  0  0
  -23.5760   -8.3583   22.1597 C   0  0  0  0  0  0  0  0  0  0  0  0
  -30.1228   -8.7473   32.1442 C   0  0  0  0  0  0  0  0  0  0  0  0
  -20.6485   -7.3978   23.5480 C   0  0  0  0  0  0  0  0  0  0  0  0
  -20.2925   -7.0574   24.8530 C   0  0  0  0  0  0  0  0  0  0  0  0
  -32.2514   -8.0411   31.2556 C   0  0  0  0  0  0  0  0  0  0  0  0
  -21.5645   -5.0118   24.6664 C   0  0  0  0  0  0  0  0  0  0  0  0
  -32.8321  -13.5366   23.9098 C   0  0  0  0  0  0  0  0  0  0  0  0
  -23.9194  -10.4188   20.9458 C   0  0  0  0  0  0  0  0  0  0  0  0
  -24.1416  -12.9564   20.8087 C   0  0  0  0  0  0  0  0  0  0  0  0
  -34.2379   -7.9828   40.1527 C   0  0  0  0  0  0  0  0  0  0  0  0
  -31.4986   -7.1819   33.3898 C   0  0  0  0  0  0  0  0  0  0  0  0
  -33.7583   -8.4361   38.9089 C   0  0  0  0  0  0  0  0  0  0  0  0
  -32.4648   -7.2214   32.3744 C   0  0  0  0  0  0  0  0  0  0  0  0
  -22.5054   -8.0437   21.3227 C   0  0  0  0  0  0  0  0  0  0  0  0
  -31.0874   -8.8010   31.1423 C   0  0  0  0  0  0  0  0  0  0  0  0
  -21.4624   -6.5452   22.8022 C   0  0  0  0  0  0  0  0  0  0  0  0
  -20.7505   -5.8645   25.4122 C   0  0  0  0  0  0  0  0  0  0  0  0
  -21.9204   -5.3522   23.3614 C   0  0  0  0  0  0  0  0  0  0  0  0
  -24.6505  -11.6451   20.7513 C   0  0  0  0  0  0  0  0  0  0  0  0
  -25.2282  -13.7578   20.5565 C   0  0  0  0  0  0  0  0  0  0  0  0
  -31.5120  -13.1667   23.7593 C   0  0  0  0  0  0  0  0  0  0  0  0
  -32.2771  -13.4259   26.0287 C   0  0  0  0  0  0  0  0  0  0  0  0
  -22.8061  -13.4096   21.0670 C   0  0  0  0  0  0  0  0  0  0  0  0
  -33.9079   -7.1132   35.4621 C   0  0  0  0  0  0  0  0  0  0  0  0
  -31.6646  -11.4483   28.8060 C   0  0  0  0  0  0  0  0  0  0  0  0
  -34.8103   -4.5223   33.7315 C   0  0  0  0  0  0  0  0  0  0  0  0
  -34.9466   -3.6013   30.2457 C   0  0  0  0  0  0  0  0  0  0  0  0
  -31.1118  -13.0032   21.2775 C   0  0  0  0  0  0  0  0  0  0  0  0
  -35.5722   -7.2922   40.2845 C   0  0  0  0  0  0  0  0  0  0  0  0
  -31.6894   -6.2938   34.5887 C   0  0  0  0  0  0  0  0  0  0  0  0
  -33.7329   -6.4129   32.4546 C   0  0  0  0  0  0  0  0  0  0  0  0
  -36.1133   -6.7550   38.9621 C   0  0  0  0  0  0  0  0  0  0  0  0
  -34.8062  -14.1006   28.1067 C   0  0  0  0  0  0  0  0  0  0  0  0
  -35.0117  -12.6937   28.6589 C   0  0  0  0  0  0  0  0  0  0  0  0
  -29.4190  -13.7642   18.2390 C   0  0  0  0  0  0  0  0  0  0  0  0
  -35.9864   -7.8083   37.8661 C   0  0  0  0  0  0  0  0  0  0  0  0
  -33.3356  -14.5206   28.1722 C   0  0  0  0  0  0  0  0  0  0  0  0
  -27.9569  -13.4323   18.5456 C   0  0  0  0  0  0  0  0  0  0  0  0
  -34.0619  -11.6977   28.0038 C   0  0  0  0  0  0  0  0  0  0  0  0
  -30.3767  -12.7839   18.9139 C   0  0  0  0  0  0  0  0  0  0  0  0
  -28.7179  -12.2879   20.6665 C   0  0  0  0  0  0  0  0  0  0  0  0
  -34.5182   -8.1800   37.6255 C   0  0  1  0  0  0  0  0  0  0  0  0
  -32.3721  -13.4843   27.5526 C   0  0  2  0  0  0  0  0  0  0  0  0
  -33.1536   -5.9619   34.8594 C   0  0  1  0  0  0  0  0  0  0  0  0
  -27.7179  -13.2866   20.0613 C   0  0  2  0  0  0  0  0  0  0  0  0
  -34.8350   -1.3473   29.1482 C   0  0  0  0  0  0  0  0  0  0  0  0
  -37.8572   -4.6363   33.8477 C   0  0  0  0  0  0  0  0  0  0  0  0
  -37.9144   -3.5489   31.5932 C   0  0  0  0  0  0  0  0  0  0  0  0
  -36.9103   -2.3431   33.5325 C   0  0  0  0  0  0  0  0  0  0  0  0
  -32.6738   -4.4180   28.5350 C   0  0  0  0  0  0  0  0  0  0  0  0
  -32.0559  -10.1301   29.4244 C   0  0  0  0  0  0  0  0  0  1  0  0
  -35.6730   -4.2982   32.5131 C   0  0  1  0  0  0  0  0  0  0  0  0
  -34.0579   -2.5957   29.5360 C   0  0  2  0  0  0  0  0  0  0  0  0
  -37.0746   -3.7310   32.8756 C   0  0  0  0  0  0  0  0  0  0  0  0
  -33.2725  -13.6861   25.2104 N   0  0  0  0  0  0  0  0  0  0  0  0
  -25.9586  -11.6109   20.4835 N   0  0  0  0  0  0  0  0  0  0  0  0
  -26.2808  -12.9107   20.3703 N   0  0  0  0  0  0  0  0  0  0  0  0
  -33.8762   -5.5647   33.6494 N   0  0  0  0  0  0  0  0  0  0  0  0
  -32.6704  -12.1531   28.1370 N   0  0  0  0  0  0  0  0  0  0  0  0
  -30.0938  -12.7009   20.3485 N   0  0  0  0  0  0  0  0  0  0  0  0
  -25.3764  -15.0973   20.4781 N   0  0  0  0  0  0  0  0  0  0  0  0
  -21.8103  -12.4527   21.3062 N   0  0  0  0  0  0  0  0  0  0  0  0
  -30.7168  -12.9217   22.6124 N   0  0  0  0  0  0  0  0  0  0  0  0
  -33.8595   -7.1566   36.8424 N   0  0  0  0  0  0  0  0  0  0  0  0
  -34.8985   -3.4483   31.6152 N   0  0  0  0  0  0  0  0  0  0  0  0
  -33.4832   -3.1950   28.2985 N   0  3  0  0  0  0  0  0  0  0  0  0
  -22.5013  -14.6264   21.0689 O   0  0  0  0  0  0  0  0  0  0  0  0
  -34.4918   -7.9028   34.7292 O   0  0  0  0  0  0  0  0  0  0  0  0
  -30.4989  -11.8388   28.9125 O   0  0  0  0  0  0  0  0  0  0  0  0
  -34.9548   -3.7946   34.7170 O   0  0  0  0  0  0  0  0  0  0  0  0
  -35.6192   -4.4364   29.6451 O   0  0  0  0  0  0  0  0  0  0  0  0
  -32.2425  -13.3382   20.9152 O   0  0  0  0  0  0  0  0  0  0  0  0
  -21.8156   -6.8849   21.5070 O   0  0  0  0  0  0  0  0  0  0  0  0
  -30.8930   -9.5901   30.0509 O   0  0  0  0  0  0  0  0  0  1  0  0
  -20.4099   -5.5384   26.6660 F   0  0  0  0  0  0  0  0  0  0  0  0
  -22.7036   -4.5297   22.6502 F   0  0  0  0  0  0  0  0  0  0  0  0
  -30.7833  -12.9945   25.3023 S   0  0  0  0  0  0  0  0  0  0  0  0
  1  2  1  0  0  0  0
  1  5  2  0  0  0  0
  2  6  2  0  0  0  0
  3  8  2  0  0  0  0
  3 16  1  0  0  0  0
  4  9  1  0  0  0  0
  4 16  2  0  0  0  0
  5 18  1  0  0  0  0
  6 20  1  0  0  0  0
  7 10  2  0  0  0  0
  7 19  1  0  0  0  0
  8 22  1  0  0  0  0
  9 22  2  0  0  0  0
 10 23  1  0  0  0  0
 11 12  2  0  0  0  0
 11 24  1  0  0  0  0
 12 25  1  0  0  0  0
 13 21  1  0  0  0  0
 13 23  2  0  0  0  0
 14 25  2  0  0  0  0
 14 26  1  0  0  0  0
 15 29  2  0  0  0  0
 15 63  1  0  0  0  0
 16 27  1  0  0  0  0
 17 27  1  0  0  0  0
 17 28  2  0  0  0  0
 17 31  1  0  0  0  0
 18 20  2  0  0  0  0
 18 37  1  0  0  0  0
 19 21  2  0  0  0  0
 19 38  1  0  0  0  0
 20 50  1  0  0  0  0
 21 39  1  0  0  0  0
 22 81  1  0  0  0  0
 23 82  1  0  0  0  0
 24 26  2  0  0  0  0
 24 81  1  0  0  0  0
 25 83  1  0  0  0  0
 26 84  1  0  0  0  0
 27 64  2  0  0  0  0
 28 65  1  0  0  0  0
 28 69  1  0  0  0  0
 29 71  1  0  0  0  0
 29 85  1  0  0  0  0
 30 51  1  0  0  0  0
 30 63  2  0  0  0  0
 30 85  1  0  0  0  0
 31 70  1  0  0  0  0
 31 75  2  0  0  0  0
 32 52  1  0  0  0  0
 32 72  1  0  0  0  0
 32 76  2  0  0  0  0
 33 59  1  0  0  0  0
 33 67  1  0  0  0  0
 33 77  2  0  0  0  0
 34 60  1  0  0  0  0
 34 66  1  0  0  0  0
 34 78  2  0  0  0  0
 35 61  1  0  0  0  0
 35 73  1  0  0  0  0
 35 79  2  0  0  0  0
 36 68  1  0  0  0  0
 36 71  1  0  0  0  0
 36 80  2  0  0  0  0
 37 40  1  0  0  0  0
 38 52  1  0  0  0  0
 39 66  1  0  0  0  0
 40 44  1  0  0  0  0
 41 42  1  0  0  0  0
 41 45  1  0  0  0  0
 42 47  1  0  0  0  0
 43 46  1  0  0  0  0
 43 48  1  0  0  0  0
 44 50  1  0  0  0  0
 45 51  1  0  0  0  0
 46 53  1  0  0  0  0
 47 67  1  0  0  0  0
 48 68  1  0  0  0  0
 49 53  1  0  0  0  0
 49 68  1  0  0  0  0
 50 72  1  0  0  0  0
 51 67  1  0  0  0  0
 52 66  1  0  0  0  0
 53 65  1  0  0  0  0
 54 61  1  0  0  0  0
 55 62  1  0  0  0  0
 56 62  1  0  0  0  0
 57 62  1  0  0  0  0
 58 74  1  0  0  0  0
 59 82  1  0  0  0  0
 60 62  1  0  0  0  0
 60 73  1  0  0  0  0
 61 74  1  0  0  0  0
 64 65  1  0  0  0  0
M  CHG  1  74   1
M  ISO  4  36 100  59 101  71 100  82 101
M  END
> <Batch ID>
0160

> <Smiles>
CNC(C)C(=O)NC(C(=O)N1Cc2cc([101O:1][101CH2:1]C(=O)N3CCCCC3c3ncc([100NH:0][100C:0](=O)N4CCCC(n5nc(-c6ccc(Oc7ccc(F)cc7F)cc6)c(C(N)=O)c5N)C4)s3)ccc2CC1C(=O)NC1CCCc2ccccc21)C(C)(C)C

> <Shape>
0.151

> <Color>
0.174

> <Negative vol penalty>
0.000

$$$$

  -OEChem-04052303503D

 85 94  0     1  0  0  0  0  0999 V2000
  -31.7608  -33.9713   20.2274 C   0  0  0  0  0  0  0  0  0  0  0  0
  -31.2800  -32.6689   20.1383 C   0  0  0  0  0  0  0  0  0  0  0  0
  -23.1037   -9.6571   19.8707 C   0  0  0  0  0  0  0  0  0  0  0  0
  -24.7302   -8.6534   21.3486 C   0  0  0  0  0  0  0  0  0  0  0  0
  -31.2792  -34.8247   21.2192 C   0  0  0  0  0  0  0  0  0  0  0  0
  -30.3179  -32.2187   21.0418 C   0  0  0  0  0  0  0  0  0  0  0  0
  -26.5913  -29.6368   18.7856 C   0  0  0  0  0  0  0  0  0  0  0  0
  -22.2317   -8.5948   20.1089 C   0  0  0  0  0  0  0  0  0  0  0  0
  -23.8582   -7.5910   21.5868 C   0  0  0  0  0  0  0  0  0  0  0  0
  -26.8591  -28.3171   18.4244 C   0  0  0  0  0  0  0  0  0  0  0  0
  -21.1167   -6.9955   23.4709 C   0  0  0  0  0  0  0  0  0  0  0  0
  -20.9551   -6.5753   24.7911 C   0  0  0  0  0  0  0  0  0  0  0  0
  -25.6982  -27.5486   20.3944 C   0  0  0  0  0  0  0  0  0  0  0  0
  -21.7551   -4.3765   24.1892 C   0  0  0  0  0  0  0  0  0  0  0  0
  -27.1831  -18.7434   18.5786 C   0  0  0  0  0  0  0  0  0  0  0  0
  -24.3530   -9.6864   20.4905 C   0  0  0  0  0  0  0  0  0  0  0  0
  -25.7924  -11.1798   19.0055 C   0  0  0  0  0  0  0  0  0  0  0  0
  -30.3037  -34.3878   22.1293 C   0  0  0  0  0  0  0  0  0  0  0  0
  -25.8832  -29.9231   19.9616 C   0  0  0  0  0  0  0  0  0  0  0  0
  -29.8238  -33.0666   22.0476 C   0  0  0  0  0  0  0  0  0  0  0  0
  -25.4205  -28.8726   20.7670 C   0  0  0  0  0  0  0  0  0  0  0  0
  -22.6090   -7.5618   20.9669 C   0  0  0  0  0  0  0  0  0  0  0  0
  -26.4151  -27.2728   19.2302 C   0  0  0  0  0  0  0  0  0  0  0  0
  -21.5975   -6.1062   22.5098 C   0  0  0  0  0  0  0  0  0  0  0  0
  -21.2743   -5.2658   25.1503 C   0  0  0  0  0  0  0  0  0  0  0  0
  -21.9167   -4.7967   22.8690 C   0  0  0  0  0  0  0  0  0  0  0  0
  -25.2545  -10.7831   20.2444 C   0  0  0  0  0  0  0  0  0  0  0  0
  -27.4902  -18.5452   19.9084 C   0  0  0  0  0  0  0  0  0  0  0  0
  -26.5823  -12.2628   19.3050 C   0  0  0  0  0  0  0  0  0  0  0  0
  -28.3295  -20.5577   19.6726 C   0  0  0  0  0  0  0  0  0  0  0  0
  -25.5957  -10.6194   17.7005 C   0  0  0  0  0  0  0  0  0  0  0  0
  -26.5390  -31.4858   22.6508 C   0  0  0  0  0  0  0  0  0  0  0  0
  -27.7695  -23.9699   19.4683 C   0  0  0  0  0  0  0  0  0  0  0  0
  -23.4029  -30.9394   23.2742 C   0  0  0  0  0  0  0  0  0  0  0  0
  -21.0784  -28.2071   22.8883 C   0  0  0  0  0  0  0  0  0  0  0  0
  -27.4378  -17.0824   21.9587 C   0  0  0  0  0  0  0  0  0  0  0  0
  -29.8480  -35.3317   23.2137 C   0  0  0  0  0  0  0  0  0  0  0  0
  -25.5793  -31.3511   20.3234 C   0  0  0  0  0  0  0  0  0  0  0  0
  -24.6385  -29.1261   22.0290 C   0  0  0  0  0  0  0  0  0  0  0  0
  -28.5553  -34.8946   23.8980 C   0  0  0  0  0  0  0  0  0  0  0  0
  -29.6503  -21.7891   22.4848 C   0  0  0  0  0  0  0  0  0  0  0  0
  -28.6020  -22.8616   22.7629 C   0  0  0  0  0  0  0  0  0  0  0  0
  -28.1083  -14.0920   23.7712 C   0  0  0  0  0  0  0  0  0  0  0  0
  -28.6138  -33.4122   24.2527 C   0  0  0  0  0  0  0  0  0  0  0  0
  -30.1575  -21.8598   21.0422 C   0  0  0  0  0  0  0  0  0  0  0  0
  -27.4699  -12.9972   22.9133 C   0  0  0  0  0  0  0  0  0  0  0  0
  -27.4893  -22.8312   21.7216 C   0  0  0  0  0  0  0  0  0  0  0  0
  -27.2816  -15.3765   23.7589 C   0  0  0  0  0  0  0  0  0  0  0  0
  -26.3202  -14.7994   21.5654 C   0  0  0  0  0  0  0  0  0  0  0  0
  -28.7621  -32.5492   22.9938 C   0  0  1  0  0  0  0  0  0  0  0  0
  -29.0245  -21.8803   19.9925 C   0  0  2  0  0  0  0  0  0  0  0  0
  -25.2951  -31.5434   21.8099 C   0  0  1  0  0  0  0  0  0  0  0  0
  -27.1505  -13.5075   21.4945 C   0  0  2  0  0  0  0  0  0  0  0  0
  -18.5851  -28.2140   22.6042 C   0  0  0  0  0  0  0  0  0  0  0  0
  -23.3471  -30.5934   26.3052 C   0  0  0  0  0  0  0  0  0  0  0  0
  -21.4023  -29.0424   26.0225 C   0  0  0  0  0  0  0  0  0  0  0  0
  -21.2086  -31.4253   25.3107 C   0  0  0  0  0  0  0  0  0  0  0  0
  -21.2421  -26.6267   20.3914 C   0  0  0  0  0  0  0  0  0  0  0  0
  -26.8167  -25.0389   19.9403 C   0  0  0  0  0  0  0  0  0  1  0  0
  -22.6230  -29.8351   23.9459 C   0  0  1  0  0  0  0  0  0  0  0  0
  -19.9296  -28.1241   21.8994 C   0  0  2  0  0  0  0  0  0  0  0  0
  -22.1699  -30.2189   25.3828 C   0  0  0  0  0  0  0  0  0  0  0  0
  -25.6678  -11.5515   21.2558 N   0  0  0  0  0  0  0  0  0  0  0  0
  -28.1479  -19.5843   20.5373 N   0  0  0  0  0  0  0  0  0  0  0  0
  -26.4739  -12.4418   20.6527 N   0  0  0  0  0  0  0  0  0  0  0  0
  -24.3722  -30.5395   22.3434 N   0  0  0  0  0  0  0  0  0  0  0  0
  -28.0518  -22.9367   20.3675 N   0  0  0  0  0  0  0  0  0  0  0  0
  -27.0218  -15.8023   22.3820 N   0  0  0  0  0  0  0  0  0  0  0  0
  -27.3521  -13.0698   18.5444 N   0  0  0  0  0  0  0  0  0  0  0  0
  -26.4652   -9.6082   17.2695 N   0  0  0  0  0  0  0  0  0  0  0  0
  -27.1659  -17.3637   20.6203 N   0  0  0  0  0  0  0  0  0  0  0  0
  -27.4914  -32.4277   22.3118 N   0  0  0  0  0  0  0  0  0  0  0  0
  -21.5268  -29.5019   23.0427 N   0  0  0  0  0  0  0  0  0  0  0  0
  -19.9826  -26.8366   21.1508 N   0  3  0  0  0  0  0  0  0  0  0  0
  -24.6862  -11.0155   16.9327 O   0  0  0  0  0  0  0  0  0  0  0  0
  -26.6274  -30.6496   23.5422 O   0  0  0  0  0  0  0  0  0  0  0  0
  -28.2467  -24.0500   18.3332 O   0  0  0  0  0  0  0  0  0  0  0  0
  -23.1561  -32.1139   23.5594 O   0  0  0  0  0  0  0  0  0  0  0  0
  -21.5302  -27.2225   23.4687 O   0  0  0  0  0  0  0  0  0  0  0  0
  -28.0187  -17.8605   22.7197 O   0  0  0  0  0  0  0  0  0  0  0  0
  -21.7582   -6.5252   21.1998 O   0  0  0  0  0  0  0  0  0  0  0  0
  -26.6757  -25.9839   18.8803 O   0  0  0  0  0  0  0  0  0  1  0  0
  -21.1204   -4.8629   26.4184 F   0  0  0  0  0  0  0  0  0  0  0  0
  -22.3802   -3.9382   21.9503 F   0  0  0  0  0  0  0  0  0  0  0  0
  -27.7338  -20.2909   18.0855 S   0  0  0  0  0  0  0  0  0  0  0  0
  1  2  1  0  0  0  0
  1  5  2  0  0  0  0
  2  6  2  0  0  0  0
  3  8  2  0  0  0  0
  3 16  1  0  0  0  0
  4  9  1  0  0  0  0
  4 16  2  0  0  0  0
  5 18  1  0  0  0  0
  6 20  1  0  0  0  0
  7 10  2  0  0  0  0
  7 19  1  0  0  0  0
  8 22  1  0  0  0  0
  9 22  2  0  0  0  0
 10 23  1  0  0  0  0
 11 12  2  0  0  0  0
 11 24  1  0  0  0  0
 12 25  1  0  0  0  0
 13 21  1  0  0  0  0
 13 23  2  0  0  0  0
 14 25  2  0  0  0  0
 14 26  1  0  0  0  0
 15 28  2  0  0  0  0
 15 85  1  0  0  0  0
 16 27  1  0  0  0  0
 17 27  1  0  0  0  0
 17 29  2  0  0  0  0
 17 31  1  0  0  0  0
 18 20  2  0  0  0  0
 18 37  1  0  0  0  0
 19 21  2  0  0  0  0
 19 38  1  0  0  0  0
 20 50  1  0  0  0  0
 21 39  1  0  0  0  0
 22 81  1  0  0  0  0
 23 82  1  0  0  0  0
 24 26  2  0  0  0  0
 24 81  1  0  0  0  0
 25 83  1  0  0  0  0
 26 84  1  0  0  0  0
 27 63  2  0  0  0  0
 28 64  1  0  0  0  0
 28 71  1  0  0  0  0
 29 65  1  0  0  0  0
 29 69  1  0  0  0  0
 30 51  1  0  0  0  0
 30 64  2  0  0  0  0
 30 85  1  0  0  0  0
 31 70  1  0  0  0  0
 31 75  2  0  0  0  0
 32 52  1  0  0  0  0
 32 72  1  0  0  0  0
 32 76  2  0  0  0  0
 33 59  1  0  0  0  0
 33 67  1  0  0  0  0
 33 77  2  0  0  0  0
 34 60  1  0  0  0  0
 34 66  1  0  0  0  0
 34 78  2  0  0  0  0
 35 61  1  0  0  0  0
 35 73  1  0  0  0  0
 35 79  2  0  0  0  0
 36 68  1  0  0  0  0
 36 71  1  0  0  0  0
 36 80  2  0  0  0  0
 37 40  1  0  0  0  0
 38 52  1  0  0  0  0
 39 66  1  0  0  0  0
 40 44  1  0  0  0  0
 41 42  1  0  0  0  0
 41 45  1  0  0  0  0
 42 47  1  0  0  0  0
 43 46  1  0  0  0  0
 43 48  1  0  0  0  0
 44 50  1  0  0  0  0
 45 51  1  0  0  0  0
 46 53  1  0  0  0  0
 47 67  1  0  0  0  0
 48 68  1  0  0  0  0
 49 53  1  0  0  0  0
 49 68  1  0  0  0  0
 50 72  1  0  0  0  0
 51 67  1  0  0  0  0
 52 66  1  0  0  0  0
 53 65  1  0  0  0  0
 54 61  1  0  0  0  0
 55 62  1  0  0  0  0
 56 62  1  0  0  0  0
 57 62  1  0  0  0  0
 58 74  1  0  0  0  0
 59 82  1  0  0  0  0
 60 62  1  0  0  0  0
 60 73  1  0  0  0  0
 61 74  1  0  0  0  0
 63 65  1  0  0  0  0
M  CHG  1  74   1
M  ISO  4  36 100  59 101  71 100  82 101
M  END
> <Batch ID>
0160

> <Smiles>
CNC(C)C(=O)NC(C(=O)N1Cc2cc([101O:1][101CH2:1]C(=O)N3CCCCC3c3nc([100NH:0][100C:0](=O)N4CCCC(n5nc(-c6ccc(Oc7ccc(F)cc7F)cc6)c(C(N)=O)c5N)C4)cs3)ccc2CC1C(=O)NC1CCCc2ccccc21)C(C)(C)C

> <Shape>
0.288

> <Color>
0.115

> <Negative vol penalty>
0.000

$$$$

  -OEChem-04052303503D

 84 92  0     1  0  0  0  0  0999 V2000
  -24.5873  -31.3182   32.4282 C   0  0  0  0  0  0  0  0  0  0  0  0
  -24.9119  -30.1424   31.7593 C   0  0  0  0  0  0  0  0  0  0  0  0
  -23.2178   -9.7345   21.3775 C   0  0  0  0  0  0  0  0  0  0  0  0
  -23.8743  -10.6603   23.5104 C   0  0  0  0  0  0  0  0  0  0  0  0
  -23.6573  -32.1986   31.8769 C   0  0  0  0  0  0  0  0  0  0  0  0
  -24.3058  -29.8457   30.5390 C   0  0  0  0  0  0  0  0  0  0  0  0
  -26.8407  -26.9445   25.7784 C   0  0  0  0  0  0  0  0  0  0  0  0
  -22.5329   -8.7111   22.0325 C   0  0  0  0  0  0  0  0  0  0  0  0
  -23.1892   -9.6369   24.1654 C   0  0  0  0  0  0  0  0  0  0  0  0
  -26.7792  -25.6206   25.3459 C   0  0  0  0  0  0  0  0  0  0  0  0
  -23.2862   -5.7975   23.5712 C   0  0  0  0  0  0  0  0  0  0  0  0
  -23.4548   -4.4974   23.0948 C   0  0  0  0  0  0  0  0  0  0  0  0
  -25.0123  -26.2099   23.8129 C   0  0  0  0  0  0  0  0  0  0  0  0
  -29.6801  -19.5006   22.1372 C   0  0  0  0  0  0  0  0  0  0  0  0
  -21.0824   -4.3481   22.6625 C   0  0  0  0  0  0  0  0  0  0  0  0
  -23.8886  -10.7091   22.1165 C   0  0  0  0  0  0  0  0  0  0  0  0
  -24.0861  -13.0198   21.0537 C   0  0  0  0  0  0  0  0  0  0  0  0
  -23.0467  -31.9172   30.6445 C   0  0  0  0  0  0  0  0  0  0  0  0
  -25.9795  -27.9105   25.2384 C   0  0  0  0  0  0  0  0  0  0  0  0
  -23.3657  -30.7225   29.9713 C   0  0  0  0  0  0  0  0  0  0  0  0
  -25.0666  -27.5459   24.2385 C   0  0  0  0  0  0  0  0  0  0  0  0
  -29.4948  -18.5728   21.0845 C   0  0  0  0  0  0  0  0  0  0  0  0
  -22.5185   -8.6623   23.4265 C   0  0  0  0  0  0  0  0  0  0  0  0
  -25.8629  -25.2525   24.3650 C   0  0  0  0  0  0  0  0  0  0  0  0
  -22.0157   -6.3729   23.5934 C   0  0  0  0  0  0  0  0  0  0  0  0
  -22.3530   -3.7727   22.6404 C   0  0  0  0  0  0  0  0  0  0  0  0
  -20.9138   -5.6482   23.1390 C   0  0  0  0  0  0  0  0  0  0  0  0
  -24.5969  -11.7662   21.4404 C   0  0  0  0  0  0  0  0  0  0  0  0
  -28.2699  -18.8636   20.5303 C   0  0  0  0  0  0  0  0  0  0  0  0
  -25.1472  -13.6525   20.4535 C   0  0  0  0  0  0  0  0  0  0  0  0
  -28.5554  -20.2923   22.1511 C   0  0  0  0  0  0  0  0  0  0  0  0
  -22.7703  -13.5637   21.2221 C   0  0  0  0  0  0  0  0  0  0  0  0
  -27.5560  -18.2756   19.4477 C   0  0  0  0  0  0  0  0  0  0  0  0
  -23.7017  -29.7919   26.4113 C   0  0  0  0  0  0  0  0  0  0  0  0
  -23.7226  -31.0303   23.4132 C   0  0  0  0  0  0  0  0  0  0  0  0
  -27.0124  -22.1269   22.9175 C   0  0  0  0  0  0  0  0  0  0  0  0
  -24.4269  -30.5929   20.1027 C   0  0  0  0  0  0  0  0  0  0  0  0
  -30.5478  -15.0547   20.3423 C   0  0  0  0  0  0  0  0  0  0  0  0
  -22.0122  -32.8764   30.1111 C   0  0  0  0  0  0  0  0  0  0  0  0
  -26.0767  -29.3399   25.6966 C   0  0  0  0  0  0  0  0  0  0  0  0
  -24.1339  -28.5491   23.6121 C   0  0  0  0  0  0  0  0  0  0  0  0
  -21.6941  -32.6688   28.6326 C   0  0  0  0  0  0  0  0  0  0  0  0
  -29.6588  -11.8715   19.0181 C   0  0  0  0  0  0  0  0  0  0  0  0
  -21.4810  -31.1879   28.3352 C   0  0  0  0  0  0  0  0  0  0  0  0
  -28.2235  -11.6614   19.5035 C   0  0  0  0  0  0  0  0  0  0  0  0
  -30.5076  -12.5938   20.0621 C   0  0  0  0  0  0  0  0  0  0  0  0
  -28.5069  -13.6566   21.0323 C   0  0  0  0  0  0  0  0  0  0  0  0
  -22.7481  -30.3774   28.6336 C   0  0  1  0  0  0  0  0  0  0  0  0
  -24.7999  -30.1361   25.4453 C   0  0  1  0  0  0  0  0  0  0  0  0
  -27.5975  -12.9818   19.9912 C   0  0  2  0  0  0  0  0  0  0  0  0
  -26.1998  -18.8441   19.0813 C   0  0  0  0  0  0  0  0  0  0  0  0
  -24.3010  -31.7695   17.8898 C   0  0  0  0  0  0  0  0  0  0  0  0
  -20.7154  -30.5232   23.3176 C   0  0  0  0  0  0  0  0  0  0  0  0
  -20.8166  -30.8093   20.8324 C   0  0  0  0  0  0  0  0  0  0  0  0
  -21.4373  -32.7047   22.3306 C   0  0  0  0  0  0  0  0  0  0  0  0
  -27.3603  -30.4588   19.7333 C   0  0  0  0  0  0  0  0  0  0  0  0
  -30.4324  -17.5118   20.6718 C   0  0  0  0  0  0  0  0  0  0  0  0
  -27.0086  -23.2029   23.9873 C   0  0  0  0  0  0  0  0  0  1  0  0
  -22.9966  -30.7252   22.1253 C   0  0  1  0  0  0  0  0  0  0  0  0
  -25.1638  -31.4686   19.1054 C   0  0  2  0  0  0  0  0  0  0  0  0
  -21.5076  -31.1710   22.1645 C   0  0  0  0  0  0  0  0  0  0  0  0
  -25.8824  -11.6099   21.1132 N   0  0  0  0  0  0  0  0  0  0  0  0
  -26.1883  -12.7735   20.5145 N   0  0  0  0  0  0  0  0  0  0  0  0
  -24.2630  -29.9328   24.0982 N   0  0  0  0  0  0  0  0  0  0  0  0
  -29.8589  -13.8385   20.4813 N   0  0  0  0  0  0  0  0  0  0  0  0
  -25.2819  -14.8693   19.8847 N   0  0  0  0  0  0  0  0  0  0  0  0
  -21.7998  -12.7794   21.8604 N   0  0  0  0  0  0  0  0  0  0  0  0
  -28.1832  -21.3788   22.9778 N   0  0  0  0  0  0  0  0  0  0  0  0
  -23.7162  -30.5435   27.5707 N   0  0  0  0  0  0  0  0  0  0  0  0
  -23.7778  -31.3438   21.0598 N   0  0  0  0  0  0  0  0  0  0  0  0
  -29.8586  -16.1874   20.7578 N   0  0  0  0  0  0  0  0  0  0  0  0
  -26.4084  -30.7922   18.6425 N   0  3  0  0  0  0  0  0  0  0  0  0
  -22.4597  -14.7048   20.8039 O   0  0  0  0  0  0  0  0  0  0  0  0
  -27.9381  -17.3102   18.7508 O   0  0  0  0  0  0  0  0  0  0  0  0
  -22.8996  -28.9107   26.1251 O   0  0  0  0  0  0  0  0  0  0  0  0
  -23.8134  -32.2002   23.7937 O   0  0  0  0  0  0  0  0  0  0  0  0
  -26.0749  -21.9926   22.1379 O   0  0  0  0  0  0  0  0  0  0  0  0
  -24.4242  -29.3657   20.0370 O   0  0  0  0  0  0  0  0  0  0  0  0
  -31.6904  -15.1264   19.8771 O   0  0  0  0  0  0  0  0  0  0  0  0
  -27.6909  -19.9105   21.1746 O   0  0  0  0  0  0  0  0  0  0  0  0
  -21.8500   -7.6639   24.0659 O   0  0  0  0  0  0  0  0  0  0  0  0
  -25.8003  -23.9608   23.9414 O   0  0  0  0  0  0  0  0  0  1  0  0
  -22.5153   -2.5248   22.1815 F   0  0  0  0  0  0  0  0  0  0  0  0
  -19.6910   -6.1961   23.1568 F   0  0  0  0  0  0  0  0  0  0  0  0
  1  2  1  0  0  0  0
  1  5  2  0  0  0  0
  2  6  2  0  0  0  0
  3  8  2  0  0  0  0
  3 16  1  0  0  0  0
  4  9  1  0  0  0  0
  4 16  2  0  0  0  0
  5 18  1  0  0  0  0
  6 20  1  0  0  0  0
  7 10  2  0  0  0  0
  7 19  1  0  0  0  0
  8 23  1  0  0  0  0
  9 23  2  0  0  0  0
 10 24  1  0  0  0  0
 11 12  2  0  0  0  0
 11 25  1  0  0  0  0
 12 26  1  0  0  0  0
 13 21  1  0  0  0  0
 13 24  2  0  0  0  0
 14 22  1  0  0  0  0
 14 31  2  0  0  0  0
 15 26  2  0  0  0  0
 15 27  1  0  0  0  0
 16 28  1  0  0  0  0
 17 28  1  0  0  0  0
 17 30  2  0  0  0  0
 17 32  1  0  0  0  0
 18 20  2  0  0  0  0
 18 39  1  0  0  0  0
 19 21  2  0  0  0  0
 19 40  1  0  0  0  0
 20 48  1  0  0  0  0
 21 41  1  0  0  0  0
 22 29  2  0  0  0  0
 22 57  1  0  0  0  0
 23 81  1  0  0  0  0
 24 82  1  0  0  0  0
 25 27  2  0  0  0  0
 25 81  1  0  0  0  0
 26 83  1  0  0  0  0
 27 84  1  0  0  0  0
 28 62  2  0  0  0  0
 29 33  1  0  0  0  0
 29 80  1  0  0  0  0
 30 63  1  0  0  0  0
 30 66  1  0  0  0  0
 31 68  1  0  0  0  0
 31 80  1  0  0  0  0
 32 67  1  0  0  0  0
 32 73  2  0  0  0  0
 33 51  1  0  0  0  0
 33 74  2  0  0  0  0
 34 49  1  0  0  0  0
 34 69  1  0  0  0  0
 34 75  2  0  0  0  0
 35 59  1  0  0  0  0
 35 64  1  0  0  0  0
 35 76  2  0  0  0  0
 36 58  1  0  0  0  0
 36 68  1  0  0  0  0
 36 77  2  0  0  0  0
 37 60  1  0  0  0  0
 37 70  1  0  0  0  0
 37 78  2  0  0  0  0
 38 65  1  0  0  0  0
 38 71  1  0  0  0  0
 38 79  2  0  0  0  0
 39 42  1  0  0  0  0
 40 49  1  0  0  0  0
 41 64  1  0  0  0  0
 42 44  1  0  0  0  0
 43 45  1  0  0  0  0
 43 46  1  0  0  0  0
 44 48  1  0  0  0  0
 45 50  1  0  0  0  0
 46 65  1  0  0  0  0
 47 50  1  0  0  0  0
 47 65  1  0  0  0  0
 48 69  1  0  0  0  0
 49 64  1  0  0  0  0
 50 63  1  0  0  0  0
 52 60  1  0  0  0  0
 53 61  1  0  0  0  0
 54 61  1  0  0  0  0
 55 61  1  0  0  0  0
 56 72  1  0  0  0  0
 57 71  1  0  0  0  0
 58 82  1  0  0  0  0
 59 61  1  0  0  0  0
 59 70  1  0  0  0  0
 60 72  1  0  0  0  0
 62 63  1  0  0  0  0
M  CHG  1  72   1
M  ISO  4  38 100  58 101  71 100  82 101
M  END
> <Batch ID>
0160

> <Smiles>
CNC(C)C(=O)NC(C(=O)N1Cc2cc([101O:1][101CH2:1]C(=O)Nc3cc(C[100NH:0][100C:0](=O)N4CCCC(n5nc(-c6ccc(Oc7ccc(F)cc7F)cc6)c(C(N)=O)c5N)C4)c(C(C)=O)o3)ccc2CC1C(=O)NC1CCCc2ccccc21)C(C)(C)C

> <Shape>
0.249

> <Color>
0.162

> <Negative vol penalty>
0.000

$$$$

  -OEChem-04052303503D

 84 92  0     1  0  0  0  0  0999 V2000
  -17.2620  -25.8212   21.0996 C   0  0  0  0  0  0  0  0  0  0  0  0
  -18.2247  -25.2505   21.9261 C   0  0  0  0  0  0  0  0  0  0  0  0
  -32.6636  -17.4745   23.4596 C   0  0  0  0  0  0  0  0  0  0  0  0
  -23.0720   -9.8741   19.9381 C   0  0  0  0  0  0  0  0  0  0  0  0
  -23.8380   -9.8700   22.2295 C   0  0  0  0  0  0  0  0  0  0  0  0
  -31.8688  -18.3384   24.2128 C   0  0  0  0  0  0  0  0  0  0  0  0
  -17.6313  -26.3514   19.8641 C   0  0  0  0  0  0  0  0  0  0  0  0
  -19.5571  -25.2088   21.5171 C   0  0  0  0  0  0  0  0  0  0  0  0
  -24.5172  -25.7247   25.0719 C   0  0  0  0  0  0  0  0  0  0  0  0
  -32.0722  -16.5952   22.5525 C   0  0  0  0  0  0  0  0  0  0  0  0
  -22.3278   -8.7205   20.1849 C   0  0  0  0  0  0  0  0  0  0  0  0
  -23.0938   -8.7164   22.4763 C   0  0  0  0  0  0  0  0  0  0  0  0
  -25.3767  -24.7771   25.6262 C   0  0  0  0  0  0  0  0  0  0  0  0
  -19.8665   -7.9188   23.0838 C   0  0  0  0  0  0  0  0  0  0  0  0
  -19.1127   -7.8742   24.2566 C   0  0  0  0  0  0  0  0  0  0  0  0
  -29.8911  -17.4436   23.1520 C   0  0  0  0  0  0  0  0  0  0  0  0
  -26.8947  -25.0806   23.7761 C   0  0  0  0  0  0  0  0  0  0  0  0
  -20.3543   -5.9323   24.9809 C   0  0  0  0  0  0  0  0  0  0  0  0
  -23.8272  -10.4488   20.9604 C   0  0  0  0  0  0  0  0  0  0  0  0
  -30.4825  -18.3230   24.0591 C   0  0  0  0  0  0  0  0  0  0  0  0
  -24.1710  -12.9742   20.8509 C   0  0  0  0  0  0  0  0  0  0  0  0
  -18.9705  -26.3248   19.4439 C   0  0  0  0  0  0  0  0  0  0  0  0
  -24.8354  -26.3505   23.8580 C   0  0  0  0  0  0  0  0  0  0  0  0
  -19.9445  -25.7380   20.2742 C   0  0  0  0  0  0  0  0  0  0  0  0
  -26.0388  -26.0377   23.2098 C   0  0  0  0  0  0  0  0  0  0  0  0
  -30.6860  -16.5797   22.3987 C   0  0  0  0  0  0  0  0  0  0  0  0
  -22.3386   -8.1416   21.4539 C   0  0  0  0  0  0  0  0  0  0  0  0
  -26.5642  -24.4528   24.9768 C   0  0  0  0  0  0  0  0  0  0  0  0
  -20.8642   -6.9700   22.8596 C   0  0  0  0  0  0  0  0  0  0  0  0
  -19.3566   -6.8810   25.2051 C   0  0  0  0  0  0  0  0  0  0  0  0
  -21.1081   -5.9769   23.8081 C   0  0  0  0  0  0  0  0  0  0  0  0
  -24.5967  -11.6402   20.7060 C   0  0  0  0  0  0  0  0  0  0  0  0
  -25.2628  -13.7243   20.4881 C   0  0  0  0  0  0  0  0  0  0  0  0
  -29.6410  -19.2367   24.8548 C   0  0  0  0  0  0  0  0  0  0  0  0
  -22.9021  -13.4892   21.2756 C   0  0  0  0  0  0  0  0  0  0  0  0
  -23.4978  -26.4682   20.9769 C   0  0  0  0  0  0  0  0  0  0  0  0
  -25.8491  -28.6275   20.4018 C   0  0  0  0  0  0  0  0  0  0  0  0
  -28.4799  -21.3988   25.1918 C   0  0  0  0  0  0  0  0  0  0  0  0
  -28.9420  -29.8258   21.2049 C   0  0  0  0  0  0  0  0  0  0  0  0
  -30.7304  -14.7642   20.6528 C   0  0  0  0  0  0  0  0  0  0  0  0
  -19.3141  -26.8679   18.0795 C   0  0  0  0  0  0  0  0  0  0  0  0
  -23.9104  -27.3900   23.2868 C   0  0  0  0  0  0  0  0  0  0  0  0
  -26.4363  -26.6957   21.9147 C   0  0  0  0  0  0  0  0  0  0  0  0
  -20.8066  -27.1209   17.8828 C   0  0  0  0  0  0  0  0  0  0  0  0
  -29.6075  -12.3621   18.2766 C   0  0  0  0  0  0  0  0  0  0  0  0
  -21.6198  -25.9283   18.3761 C   0  0  0  0  0  0  0  0  0  0  0  0
  -28.1687  -12.0699   18.7088 C   0  0  0  0  0  0  0  0  0  0  0  0
  -30.5260  -12.5847   19.4768 C   0  0  0  0  0  0  0  0  0  0  0  0
  -28.6234  -13.3046   20.8665 C   0  0  0  0  0  0  0  0  0  0  0  0
  -21.4040  -25.6962   19.8765 C   0  0  1  0  0  0  0  0  0  0  0  0
  -24.0893  -27.5885   21.7848 C   0  0  1  0  0  0  0  0  0  0  0  0
  -27.6473  -13.1375   19.6905 C   0  0  2  0  0  0  0  0  0  0  0  0
  -30.6127  -31.5738   20.5337 C   0  0  0  0  0  0  0  0  0  0  0  0
  -26.6184  -26.9546   17.9688 C   0  0  0  0  0  0  0  0  0  0  0  0
  -28.8043  -28.1737   17.9087 C   0  0  0  0  0  0  0  0  0  0  0  0
  -26.6703  -29.4266   17.5937 C   0  0  0  0  0  0  0  0  0  0  0  0
  -29.8314  -20.9647   23.0921 C   0  0  0  0  0  0  0  0  0  0  0  0
  -28.8330  -31.1175   23.8655 C   0  0  0  0  0  0  0  0  0  0  0  0
  -28.1968  -22.7635   24.6073 C   0  0  0  0  0  0  0  0  0  1  0  0
  -27.2673  -28.5528   19.8898 C   0  0  1  0  0  0  0  0  0  0  0  0
  -29.4436  -31.2380   21.4465 C   0  0  2  0  0  0  0  0  0  0  0  0
  -27.3320  -28.2630   18.3636 C   0  0  0  0  0  0  0  0  0  0  0  0
  -25.8603  -11.5451   20.2839 N   0  0  0  0  0  0  0  0  0  0  0  0
  -26.2380  -12.8289   20.1603 N   0  0  0  0  0  0  0  0  0  0  0  0
  -25.4957  -27.7011   21.3931 N   0  0  0  0  0  0  0  0  0  0  0  0
  -29.9703  -13.6120   20.3604 N   0  0  0  0  0  0  0  0  0  0  0  0
  -25.4742  -15.0559   20.4205 N   0  0  0  0  0  0  0  0  0  0  0  0
  -21.8903  -12.5794   21.6114 N   0  0  0  0  0  0  0  0  0  0  0  0
  -30.0861  -15.6861   21.4771 N   0  0  0  0  0  0  0  0  0  0  0  0
  -22.1675  -26.6512   20.6507 N   0  0  0  0  0  0  0  0  0  0  0  0
  -27.9116  -29.7994   20.2891 N   0  0  0  0  0  0  0  0  0  0  0  0
  -29.3203  -20.4801   24.4022 N   0  0  0  0  0  0  0  0  0  0  0  0
  -29.2691  -18.7452   26.0399 N   0  3  0  0  0  0  0  0  0  0  0  0
  -29.8906  -31.3944   22.8596 N   0  3  0  0  0  0  0  0  0  0  0  0
  -22.6671  -14.7198   21.3391 O   0  0  0  0  0  0  0  0  0  0  0  0
  -24.1969  -25.5094   20.6708 O   0  0  0  0  0  0  0  0  0  0  0  0
  -25.0852  -29.4812   19.9443 O   0  0  0  0  0  0  0  0  0  0  0  0
  -28.0457  -21.0587   26.2878 O   0  0  0  0  0  0  0  0  0  0  0  0
  -29.4192  -28.8438   21.7693 O   0  0  0  0  0  0  0  0  0  0  0  0
  -31.8584  -14.9341   20.1829 O   0  0  0  0  0  0  0  0  0  0  0  0
  -21.6123   -7.0161   21.6951 O   0  0  0  0  0  0  0  0  0  0  0  0
  -27.4046  -23.5278   25.5153 O   0  0  0  0  0  0  0  0  0  1  0  0
  -18.6336   -6.8393   26.3320 F   0  0  0  0  0  0  0  0  0  0  0  0
  -22.0661   -5.0634   23.5988 F   0  0  0  0  0  0  0  0  0  0  0  0
  1  2  1  0  0  0  0
  1  7  2  0  0  0  0
  2  8  2  0  0  0  0
  3  6  2  0  0  0  0
  3 10  1  0  0  0  0
  4 11  2  0  0  0  0
  4 19  1  0  0  0  0
  5 12  1  0  0  0  0
  5 19  2  0  0  0  0
  6 20  1  0  0  0  0
  7 22  1  0  0  0  0
  8 24  1  0  0  0  0
  9 13  2  0  0  0  0
  9 23  1  0  0  0  0
 10 26  2  0  0  0  0
 11 27  1  0  0  0  0
 12 27  2  0  0  0  0
 13 28  1  0  0  0  0
 14 15  2  0  0  0  0
 14 29  1  0  0  0  0
 15 30  1  0  0  0  0
 16 20  2  0  0  0  0
 16 26  1  0  0  0  0
 17 25  1  0  0  0  0
 17 28  2  0  0  0  0
 18 30  2  0  0  0  0
 18 31  1  0  0  0  0
 19 32  1  0  0  0  0
 20 34  1  0  0  0  0
 21 32  1  0  0  0  0
 21 33  2  0  0  0  0
 21 35  1  0  0  0  0
 22 24  2  0  0  0  0
 22 41  1  0  0  0  0
 23 25  2  0  0  0  0
 23 42  1  0  0  0  0
 24 50  1  0  0  0  0
 25 43  1  0  0  0  0
 26 69  1  0  0  0  0
 27 81  1  0  0  0  0
 28 82  1  0  0  0  0
 29 31  2  0  0  0  0
 29 81  1  0  0  0  0
 30 83  1  0  0  0  0
 31 84  1  0  0  0  0
 32 63  2  0  0  0  0
 33 64  1  0  0  0  0
 33 67  1  0  0  0  0
 34 72  1  0  0  0  0
 34 73  2  0  0  0  0
 35 68  1  0  0  0  0
 35 75  2  0  0  0  0
 36 51  1  0  0  0  0
 36 70  1  0  0  0  0
 36 76  2  0  0  0  0
 37 60  1  0  0  0  0
 37 65  1  0  0  0  0
 37 77  2  0  0  0  0
 38 59  1  0  0  0  0
 38 72  1  0  0  0  0
 38 78  2  0  0  0  0
 39 61  1  0  0  0  0
 39 71  1  0  0  0  0
 39 79  2  0  0  0  0
 40 66  1  0  0  0  0
 40 69  1  0  0  0  0
 40 80  2  0  0  0  0
 41 44  1  0  0  0  0
 42 51  1  0  0  0  0
 43 65  1  0  0  0  0
 44 46  1  0  0  0  0
 45 47  1  0  0  0  0
 45 48  1  0  0  0  0
 46 50  1  0  0  0  0
 47 52  1  0  0  0  0
 48 66  1  0  0  0  0
 49 52  1  0  0  0  0
 49 66  1  0  0  0  0
 50 70  1  0  0  0  0
 51 65  1  0  0  0  0
 52 64  1  0  0  0  0
 53 61  1  0  0  0  0
 54 62  1  0  0  0  0
 55 62  1  0  0  0  0
 56 62  1  0  0  0  0
 57 72  1  0  0  0  0
 58 74  1  0  0  0  0
 59 82  1  0  0  0  0
 60 62  1  0  0  0  0
 60 71  1  0  0  0  0
 61 74  1  0  0  0  0
 63 64  1  0  0  0  0
M  CHG  2  73   1  74   1
M  ISO  4  40 100  59 101  69 100  82 101
M  END
> <Batch ID>
0160

> <Smiles>
CNC(C)C(=O)NC(C(=O)N1Cc2cc([101O:1][101CH2:1]C(=O)N(C)C(=N)c3cccc([100NH:0][100C:0](=O)N4CCCC(n5nc(-c6ccc(Oc7ccc(F)cc7F)cc6)c(C(N)=O)c5N)C4)c3)ccc2CC1C(=O)NC1CCCc2ccccc21)C(C)(C)C

> <Shape>
0.235

> <Color>
0.192

> <Negative vol penalty>
0.000

$$$$

  -OEChem-04052303503D

 83 92  0     1  0  0  0  0  0999 V2000
  -28.7519  -32.3209   31.7520 C   0  0  0  0  0  0  0  0  0  0  0  0
  -28.7021  -31.0893   31.1070 C   0  0  0  0  0  0  0  0  0  0  0  0
  -23.1199   -9.8115   19.9661 C   0  0  0  0  0  0  0  0  0  0  0  0
  -23.7487   -9.9699   22.2934 C   0  0  0  0  0  0  0  0  0  0  0  0
  -27.7228  -33.2438   31.5702 C   0  0  0  0  0  0  0  0  0  0  0  0
  -27.6224  -30.7794   30.2807 C   0  0  0  0  0  0  0  0  0  0  0  0
  -29.0643  -28.6597   25.9134 C   0  0  0  0  0  0  0  0  0  0  0  0
  -22.3927   -8.6535   20.2413 C   0  0  0  0  0  0  0  0  0  0  0  0
  -23.0214   -8.8119   22.5687 C   0  0  0  0  0  0  0  0  0  0  0  0
  -29.4170  -27.3113   25.9460 C   0  0  0  0  0  0  0  0  0  0  0  0
  -23.4277   -5.4734   22.2220 C   0  0  0  0  0  0  0  0  0  0  0  0
  -24.0276   -4.5084   23.0309 C   0  0  0  0  0  0  0  0  0  0  0  0
  -27.2410  -26.7275   25.0838 C   0  0  0  0  0  0  0  0  0  0  0  0
  -22.2287   -4.7294   24.6285 C   0  0  0  0  0  0  0  0  0  0  0  0
  -31.5186  -17.8572   21.7763 C   0  0  0  0  0  0  0  0  0  0  0  0
  -23.7979  -10.4697   20.9921 C   0  0  0  0  0  0  0  0  0  0  0  0
  -24.0817  -12.9928   20.7447 C   0  0  0  0  0  0  0  0  0  0  0  0
  -26.6348  -32.9490   30.7336 C   0  0  0  0  0  0  0  0  0  0  0  0
  -27.7913  -29.0521   25.4753 C   0  0  0  0  0  0  0  0  0  0  0  0
  -26.5772  -31.6988   30.0886 C   0  0  0  0  0  0  0  0  0  0  0  0
  -26.8755  -28.0817   25.0442 C   0  0  0  0  0  0  0  0  0  0  0  0
  -22.3434   -8.1537   21.5426 C   0  0  0  0  0  0  0  0  0  0  0  0
  -28.5043  -26.3447   25.5339 C   0  0  0  0  0  0  0  0  0  0  0  0
  -22.2284   -6.0665   22.6163 C   0  0  0  0  0  0  0  0  0  0  0  0
  -23.4281   -4.1364   24.2342 C   0  0  0  0  0  0  0  0  0  0  0  0
  -21.6288   -5.6945   23.8195 C   0  0  0  0  0  0  0  0  0  0  0  0
  -24.5498  -11.6656   20.7083 C   0  0  0  0  0  0  0  0  0  0  0  0
  -25.1731  -13.7515   20.3990 C   0  0  0  0  0  0  0  0  0  0  0  0
  -30.3228  -17.1926   21.9506 C   0  0  0  0  0  0  0  0  0  0  0  0
  -30.4497  -19.3953   22.9172 C   0  0  0  0  0  0  0  0  0  0  0  0
  -31.0027  -22.3421   25.3798 C   0  0  0  0  0  0  0  0  0  0  0  0
  -30.3552  -23.3479   24.7669 C   0  0  0  0  0  0  0  0  0  0  0  0
  -22.7768  -13.4949   21.0626 C   0  0  0  0  0  0  0  0  0  0  0  0
  -25.3278  -30.5593   26.8032 C   0  0  0  0  0  0  0  0  0  0  0  0
  -24.1255  -30.4272   23.7934 C   0  0  0  0  0  0  0  0  0  0  0  0
  -24.1035  -28.8884   20.7473 C   0  0  0  0  0  0  0  0  0  0  0  0
  -30.5924  -14.9613   20.8127 C   0  0  0  0  0  0  0  0  0  0  0  0
  -25.5229  -33.9598   30.6054 C   0  0  0  0  0  0  0  0  0  0  0  0
  -27.4356  -30.5125   25.4209 C   0  0  0  0  0  0  0  0  0  0  0  0
  -25.5033  -28.4522   24.5459 C   0  0  0  0  0  0  0  0  0  0  0  0
  -31.1230  -20.9611   24.7971 C   0  0  0  0  0  0  0  0  0  0  0  0
  -29.7267  -23.1550   23.4166 C   0  0  0  0  0  0  0  0  0  0  0  0
  -24.5992  -33.7018   29.4177 C   0  0  0  0  0  0  0  0  0  0  0  0
  -29.6752  -12.3867   18.5307 C   0  0  0  0  0  0  0  0  0  0  0  0
  -24.2042  -32.2296   29.3585 C   0  0  0  0  0  0  0  0  0  0  0  0
  -28.2215  -12.0787   18.8968 C   0  0  0  0  0  0  0  0  0  0  0  0
  -30.5149  -12.7091   19.7655 C   0  0  0  0  0  0  0  0  0  0  0  0
  -28.5152  -13.4555   20.9957 C   0  0  0  0  0  0  0  0  0  0  0  0
  -25.4349  -31.3356   29.1647 C   0  0  1  0  0  0  0  0  0  0  0  0
  -30.1463  -20.6908   23.6372 C   0  0  1  0  0  0  0  0  0  0  0  0
  -25.9308  -30.7623   25.4420 C   0  0  1  0  0  0  0  0  0  0  0  0
  -27.6152  -13.1882   19.7783 C   0  0  2  0  0  0  0  0  0  0  0  0
  -22.9885  -28.9819   18.5011 C   0  0  0  0  0  0  0  0  0  0  0  0
  -21.6288  -29.1370   24.9817 C   0  0  0  0  0  0  0  0  0  0  0  0
  -20.9942  -28.4034   22.6736 C   0  0  0  0  0  0  0  0  0  0  0  0
  -21.1790  -30.8345   23.2011 C   0  0  0  0  0  0  0  0  0  0  0  0
  -26.6687  -29.4096   19.3665 C   0  0  0  0  0  0  0  0  0  0  0  0
  -30.2242  -24.7096   25.3778 C   0  0  0  0  0  0  0  0  0  1  0  0
  -23.2814  -29.4418   23.0216 C   0  0  1  0  0  0  0  0  0  0  0  0
  -24.1714  -29.4455   19.3368 C   0  0  2  0  0  0  0  0  0  0  0  0
  -21.7959  -29.4467   23.4807 C   0  0  0  0  0  0  0  0  0  0  0  0
  -31.5931  -19.1206   22.3296 N   0  0  0  0  0  0  0  0  0  0  0  0
  -25.8383  -11.5826   20.3664 N   0  0  0  0  0  0  0  0  0  0  0  0
  -26.1891  -12.8671   20.1846 N   0  0  0  0  0  0  0  0  0  0  0  0
  -25.2005  -29.8926   24.5175 N   0  0  0  0  0  0  0  0  0  0  0  0
  -29.8813  -13.7714   20.5496 N   0  0  0  0  0  0  0  0  0  0  0  0
  -25.3534  -15.0822   20.2605 N   0  0  0  0  0  0  0  0  0  0  0  0
  -21.7709  -12.5776   21.3960 N   0  0  0  0  0  0  0  0  0  0  0  0
  -29.8766  -15.9122   21.5393 N   0  0  0  0  0  0  0  0  0  0  0  0
  -25.8700  -31.3668   27.7848 N   0  0  0  0  0  0  0  0  0  0  0  0
  -23.4718  -29.7587   21.6103 N   0  0  0  0  0  0  0  0  0  0  0  0
  -30.1558  -21.8925   22.7259 N   0  3  0  0  0  0  0  0  0  0  0  0
  -25.4249  -29.0012   18.6643 N   0  3  0  0  0  0  0  0  0  0  0  0
  -22.5065  -14.7195   21.0353 O   0  0  0  0  0  0  0  0  0  0  0  0
  -24.4357  -29.7325   26.9517 O   0  0  0  0  0  0  0  0  0  0  0  0
  -23.8457  -31.6278   23.7494 O   0  0  0  0  0  0  0  0  0  0  0  0
  -24.5614  -27.7893   21.0522 O   0  0  0  0  0  0  0  0  0  0  0  0
  -31.7415  -15.1356   20.3987 O   0  0  0  0  0  0  0  0  0  0  0  0
  -21.6337   -7.0239   21.8117 O   0  0  0  0  0  0  0  0  0  0  0  0
  -28.8458  -25.0278   25.5654 O   0  0  0  0  0  0  0  0  0  1  0  0
  -24.0035   -3.2085   25.0102 F   0  0  0  0  0  0  0  0  0  0  0  0
  -20.4760   -6.2599   24.2031 F   0  0  0  0  0  0  0  0  0  0  0  0
  -29.2411  -18.1793   22.8436 S   0  0  0  0  0  0  0  0  0  0  0  0
  1  2  1  0  0  0  0
  1  5  2  0  0  0  0
  2  6  2  0  0  0  0
  3  8  2  0  0  0  0
  3 16  1  0  0  0  0
  4  9  1  0  0  0  0
  4 16  2  0  0  0  0
  5 18  1  0  0  0  0
  6 20  1  0  0  0  0
  7 10  2  0  0  0  0
  7 19  1  0  0  0  0
  8 22  1  0  0  0  0
  9 22  2  0  0  0  0
 10 23  1  0  0  0  0
 11 12  2  0  0  0  0
 11 24  1  0  0  0  0
 12 25  1  0  0  0  0
 13 21  1  0  0  0  0
 13 23  2  0  0  0  0
 14 25  2  0  0  0  0
 14 26  1  0  0  0  0
 15 29  2  0  0  0  0
 15 62  1  0  0  0  0
 16 27  1  0  0  0  0
 17 27  1  0  0  0  0
 17 28  2  0  0  0  0
 17 33  1  0  0  0  0
 18 20  2  0  0  0  0
 18 38  1  0  0  0  0
 19 21  2  0  0  0  0
 19 39  1  0  0  0  0
 20 49  1  0  0  0  0
 21 40  1  0  0  0  0
 22 79  1  0  0  0  0
 23 80  1  0  0  0  0
 24 26  2  0  0  0  0
 24 79  1  0  0  0  0
 25 81  1  0  0  0  0
 26 82  1  0  0  0  0
 27 63  2  0  0  0  0
 28 64  1  0  0  0  0
 28 67  1  0  0  0  0
 29 69  1  0  0  0  0
 29 83  1  0  0  0  0
 30 50  1  0  0  0  0
 30 62  2  0  0  0  0
 30 83  1  0  0  0  0
 31 32  2  0  0  0  0
 31 41  1  0  0  0  0
 32 42  1  0  0  0  0
 32 58  1  0  0  0  0
 33 68  1  0  0  0  0
 33 74  2  0  0  0  0
 34 51  1  0  0  0  0
 34 70  1  0  0  0  0
 34 75  2  0  0  0  0
 35 59  1  0  0  0  0
 35 65  1  0  0  0  0
 35 76  2  0  0  0  0
 36 60  1  0  0  0  0
 36 71  1  0  0  0  0
 36 77  2  0  0  0  0
 37 66  1  0  0  0  0
 37 69  1  0  0  0  0
 37 78  2  0  0  0  0
 38 43  1  0  0  0  0
 39 51  1  0  0  0  0
 40 65  1  0  0  0  0
 41 50  1  0  0  0  0
 42 72  1  0  0  0  0
 43 45  1  0  0  0  0
 44 46  1  0  0  0  0
 44 47  1  0  0  0  0
 45 49  1  0  0  0  0
 46 52  1  0  0  0  0
 47 66  1  0  0  0  0
 48 52  1  0  0  0  0
 48 66  1  0  0  0  0
 49 70  1  0  0  0  0
 50 72  1  0  0  0  0
 51 65  1  0  0  0  0
 52 64  1  0  0  0  0
 53 60  1  0  0  0  0
 54 61  1  0  0  0  0
 55 61  1  0  0  0  0
 56 61  1  0  0  0  0
 57 73  1  0  0  0  0
 58 80  1  0  0  0  0
 59 61  1  0  0  0  0
 59 71  1  0  0  0  0
 60 73  1  0  0  0  0
 63 64  1  0  0  0  0
M  CHG  2  72   1  73   1
M  ISO  4  37 100  58 101  69 100  80 101
M  END
> <Batch ID>
0160

> <Smiles>
CNC(C)C(=O)NC(C(=O)N1Cc2cc([101O:1][101CH2:1]C3=CCC(c4ncc([100NH:0][100C:0](=O)N5CCCC(n6nc(-c7ccc(Oc8ccc(F)cc8F)cc7)c(C(N)=O)c6N)C5)s4)NC3)ccc2CC1C(=O)NC1CCCc2ccccc21)C(C)(C)C

> <Shape>
0.280

> <Color>
0.201

> <Negative vol penalty>
0.000

$$$$

  -OEChem-04052303503D

 86 95  0     1  0  0  0  0  0999 V2000
  -27.0475  -30.5664   28.5402 C   0  0  0  0  0  0  0  0  0  0  0  0
  -27.3001  -29.7600   27.4350 C   0  0  0  0  0  0  0  0  0  0  0  0
  -24.5051   -9.0022   21.5053 C   0  0  0  0  0  0  0  0  0  0  0  0
  -24.0204  -10.7219   23.1316 C   0  0  0  0  0  0  0  0  0  0  0  0
  -25.7663  -31.0731   28.7537 C   0  0  0  0  0  0  0  0  0  0  0  0
  -26.2712  -29.4590   26.5433 C   0  0  0  0  0  0  0  0  0  0  0  0
  -27.7033  -29.8961   21.7056 C   0  0  0  0  0  0  0  0  0  0  0  0
  -24.1210   -8.0253   22.4238 C   0  0  0  0  0  0  0  0  0  0  0  0
  -23.6362   -9.7450   24.0501 C   0  0  0  0  0  0  0  0  0  0  0  0
  -28.4621  -28.8565   21.1698 C   0  0  0  0  0  0  0  0  0  0  0  0
  -21.2371   -6.7190   23.6111 C   0  0  0  0  0  0  0  0  0  0  0  0
  -20.4110   -5.6911   23.1567 C   0  0  0  0  0  0  0  0  0  0  0  0
  -26.2509  -19.2177   18.9397 C   0  0  0  0  0  0  0  0  0  0  0  0
  -28.6055  -19.5800   19.4420 C   0  0  0  0  0  0  0  0  0  0  0  0
  -26.4838  -27.9628   20.1177 C   0  0  0  0  0  0  0  0  0  0  0  0
  -22.0960   -4.0691   23.7626 C   0  0  0  0  0  0  0  0  0  0  0  0
  -24.4549  -10.3505   21.8592 C   0  0  0  0  0  0  0  0  0  0  0  0
  -26.0046  -20.5922   18.9664 C   0  0  0  0  0  0  0  0  0  0  0  0
  -24.0317  -12.0157   19.9735 C   0  0  0  0  0  0  0  0  0  0  0  0
  -24.7235  -30.7861   27.8589 C   0  0  0  0  0  0  0  0  0  0  0  0
  -26.3247  -29.9710   21.4601 C   0  0  0  0  0  0  0  0  0  0  0  0
  -24.9745  -29.9613   26.7458 C   0  0  0  0  0  0  0  0  0  0  0  0
  -28.3516  -20.9398   19.4665 C   0  0  0  0  0  0  0  0  0  0  0  0
  -25.7102  -29.0058   20.6495 C   0  0  0  0  0  0  0  0  0  0  0  0
  -27.0651  -21.4405   19.2311 C   0  0  0  0  0  0  0  0  0  0  0  0
  -27.5413  -18.7155   19.1757 C   0  0  0  0  0  0  0  0  0  0  0  0
  -23.6865   -8.3967   23.6962 C   0  0  0  0  0  0  0  0  0  0  0  0
  -27.8519  -27.8880   20.3781 C   0  0  0  0  0  0  0  0  0  0  0  0
  -22.4927   -6.4221   24.1412 C   0  0  0  0  0  0  0  0  0  0  0  0
  -20.8404   -4.3662   23.2324 C   0  0  0  0  0  0  0  0  0  0  0  0
  -22.9221   -5.0971   24.2170 C   0  0  0  0  0  0  0  0  0  0  0  0
  -24.8522  -11.3601   20.9110 C   0  0  0  0  0  0  0  0  0  0  0  0
  -24.8787  -12.8755   19.3180 C   0  0  0  0  0  0  0  0  0  0  0  0
  -24.6657  -21.1022   18.7209 C   0  0  0  0  0  0  0  0  0  0  0  0
  -22.6294  -11.8613   19.7181 C   0  0  0  0  0  0  0  0  0  0  0  0
  -23.7152  -29.8811   23.2729 C   0  0  0  0  0  0  0  0  0  0  0  0
  -28.9392  -24.5491   19.7906 C   0  0  0  0  0  0  0  0  0  0  0  0
  -22.2213  -30.5634   20.4756 C   0  0  0  0  0  0  0  0  0  0  0  0
  -22.2731  -30.4665   17.0646 C   0  0  0  0  0  0  0  0  0  0  0  0
  -28.9723  -16.6497   19.3522 C   0  0  0  0  0  0  0  0  0  0  0  0
  -23.3440  -31.3179   28.1571 C   0  0  0  0  0  0  0  0  0  0  0  0
  -25.5251  -31.1136   22.0234 C   0  0  0  0  0  0  0  0  0  0  0  0
  -29.3044  -22.0583   19.7248 C   0  0  0  0  0  0  0  0  0  0  0  0
  -24.2371  -29.0523   20.3391 C   0  0  0  0  0  0  0  0  0  0  0  0
  -27.0644  -22.9310   19.3148 C   0  0  0  0  0  0  0  0  0  0  0  0
  -22.3968  -31.2588   26.9615 C   0  0  0  0  0  0  0  0  0  0  0  0
  -29.9282  -13.2202   19.3929 C   0  0  0  0  0  0  0  0  0  0  0  0
  -22.4793  -29.8956   26.2819 C   0  0  0  0  0  0  0  0  0  0  0  0
  -28.6254  -12.4844   19.7143 C   0  0  0  0  0  0  0  0  0  0  0  0
  -30.0313  -14.5460   20.1447 C   0  0  0  0  0  0  0  0  0  0  0  0
  -27.5781  -14.7082   20.3019 C   0  0  0  0  0  0  0  0  0  0  0  0
  -23.8904  -29.6326   25.7424 C   0  0  1  0  0  0  0  0  0  0  0  0
  -24.0351  -30.8043   22.1314 C   0  0  1  0  0  0  0  0  0  0  0  0
  -27.3993  -13.3977   19.5182 C   0  0  2  0  0  0  0  0  0  0  0  0
  -23.7746  -20.3045   17.8132 C   0  0  0  0  0  0  0  0  0  0  0  0
  -20.8934  -31.0648   15.0557 C   0  0  0  0  0  0  0  0  0  0  0  0
  -20.4391  -28.1388   20.9805 C   0  0  0  0  0  0  0  0  0  0  0  0
  -19.7619  -28.2223   18.5716 C   0  0  0  0  0  0  0  0  0  0  0  0
  -19.2443  -30.1419   20.0782 C   0  0  0  0  0  0  0  0  0  0  0  0
  -24.3351  -32.3375   16.0613 C   0  0  0  0  0  0  0  0  0  0  0  0
  -27.9246  -25.6272   19.6436 C   0  0  0  0  0  0  0  0  0  1  0  0
  -21.6331  -29.7464   19.3507 C   0  0  1  0  0  0  0  0  0  0  0  0
  -21.9724  -31.5281   16.0221 C   0  0  2  0  0  0  0  0  0  0  0  0
  -20.2970  -29.0601   19.7525 C   0  0  0  0  0  0  0  0  0  0  0  0
  -26.1228  -11.7684   20.8588 N   0  0  0  0  0  0  0  0  0  0  0  0
  -26.1072  -12.6897   19.8806 N   0  0  0  0  0  0  0  0  0  0  0  0
  -28.4663  -23.2590   19.6208 N   0  0  0  0  0  0  0  0  0  0  0  0
  -23.4969  -30.1856   20.9182 N   0  0  0  0  0  0  0  0  0  0  0  0
  -28.8370  -15.3601   19.9084 N   0  0  0  0  0  0  0  0  0  0  0  0
  -24.6851  -13.7648   18.3210 N   0  0  0  0  0  0  0  0  0  0  0  0
  -21.9091  -10.9338   20.4831 N   0  0  0  0  0  0  0  0  0  0  0  0
  -27.7658  -17.3168   19.1427 N   0  0  0  0  0  0  0  0  0  0  0  0
  -24.1038  -30.3599   24.5095 N   0  0  0  0  0  0  0  0  0  0  0  0
  -21.5226  -30.6458   18.2074 N   0  0  0  0  0  0  0  0  0  0  0  0
  -23.1994  -31.8470   15.2387 N   0  3  0  0  0  0  0  0  0  0  0  0
  -24.2070  -22.1430   19.1976 O   0  0  0  0  0  0  0  0  0  0  0  0
  -22.0361  -12.5143   18.8265 O   0  0  0  0  0  0  0  0  0  0  0  0
  -23.1559  -28.8141   23.0485 O   0  0  0  0  0  0  0  0  0  0  0  0
  -30.1123  -24.8247   20.0466 O   0  0  0  0  0  0  0  0  0  0  0  0
  -21.5759  -31.5067   20.9395 O   0  0  0  0  0  0  0  0  0  0  0  0
  -23.0893  -29.5658   16.8820 O   0  0  0  0  0  0  0  0  0  0  0  0
  -30.0754  -17.1164   19.0564 O   0  0  0  0  0  0  0  0  0  0  0  0
  -23.3113   -7.4437   24.5926 O   0  0  0  0  0  0  0  0  0  0  0  0
  -28.5901  -26.8718   19.8544 O   0  0  0  0  0  0  0  0  0  1  0  0
  -20.0464   -3.3790   22.7975 F   0  0  0  0  0  0  0  0  0  0  0  0
  -24.1268   -4.8055   24.7264 F   0  0  0  0  0  0  0  0  0  0  0  0
  1  2  1  0  0  0  0
  1  5  2  0  0  0  0
  2  6  2  0  0  0  0
  3  8  2  0  0  0  0
  3 17  1  0  0  0  0
  4  9  1  0  0  0  0
  4 17  2  0  0  0  0
  5 20  1  0  0  0  0
  6 22  1  0  0  0  0
  7 10  2  0  0  0  0
  7 21  1  0  0  0  0
  8 27  1  0  0  0  0
  9 27  2  0  0  0  0
 10 28  1  0  0  0  0
 11 12  2  0  0  0  0
 11 29  1  0  0  0  0
 12 30  1  0  0  0  0
 13 18  2  0  0  0  0
 13 26  1  0  0  0  0
 14 23  1  0  0  0  0
 14 26  2  0  0  0  0
 15 24  1  0  0  0  0
 15 28  2  0  0  0  0
 16 30  2  0  0  0  0
 16 31  1  0  0  0  0
 17 32  1  0  0  0  0
 18 25  1  0  0  0  0
 18 34  1  0  0  0  0
 19 32  1  0  0  0  0
 19 33  2  0  0  0  0
 19 35  1  0  0  0  0
 20 22  2  0  0  0  0
 20 41  1  0  0  0  0
 21 24  2  0  0  0  0
 21 42  1  0  0  0  0
 22 52  1  0  0  0  0
 23 25  2  0  0  0  0
 23 43  1  0  0  0  0
 24 44  1  0  0  0  0
 25 45  1  0  0  0  0
 26 72  1  0  0  0  0
 27 83  1  0  0  0  0
 28 84  1  0  0  0  0
 29 31  2  0  0  0  0
 29 83  1  0  0  0  0
 30 85  1  0  0  0  0
 31 86  1  0  0  0  0
 32 65  2  0  0  0  0
 33 66  1  0  0  0  0
 33 70  1  0  0  0  0
 34 55  1  0  0  0  0
 34 76  2  0  0  0  0
 35 71  1  0  0  0  0
 35 77  2  0  0  0  0
 36 53  1  0  0  0  0
 36 73  1  0  0  0  0
 36 78  2  0  0  0  0
 37 61  1  0  0  0  0
 37 67  1  0  0  0  0
 37 79  2  0  0  0  0
 38 62  1  0  0  0  0
 38 68  1  0  0  0  0
 38 80  2  0  0  0  0
 39 63  1  0  0  0  0
 39 74  1  0  0  0  0
 39 81  2  0  0  0  0
 40 69  1  0  0  0  0
 40 72  1  0  0  0  0
 40 82  2  0  0  0  0
 41 46  1  0  0  0  0
 42 53  1  0  0  0  0
 43 67  1  0  0  0  0
 44 68  1  0  0  0  0
 45 67  1  0  0  0  0
 46 48  1  0  0  0  0
 47 49  1  0  0  0  0
 47 50  1  0  0  0  0
 48 52  1  0  0  0  0
 49 54  1  0  0  0  0
 50 69  1  0  0  0  0
 51 54  1  0  0  0  0
 51 69  1  0  0  0  0
 52 73  1  0  0  0  0
 53 68  1  0  0  0  0
 54 66  1  0  0  0  0
 56 63  1  0  0  0  0
 57 64  1  0  0  0  0
 58 64  1  0  0  0  0
 59 64  1  0  0  0  0
 60 75  1  0  0  0  0
 61 84  1  0  0  0  0
 62 64  1  0  0  0  0
 62 74  1  0  0  0  0
 63 75  1  0  0  0  0
 65 66  1  0  0  0  0
M  CHG  1  75   1
M  ISO  4  40 100  61 101  72 100  84 101
M  END
> <Batch ID>
0160

> <Smiles>
CNC(C)C(=O)NC(C(=O)N1Cc2cc([101O:1][101CH2:1]C(=O)N3Cc4cc([100NH:0][100C:0](=O)N5CCCC(n6nc(-c7ccc(Oc8ccc(F)cc8F)cc7)c(C(N)=O)c6N)C5)cc(C(C)=O)c4C3)ccc2CC1C(=O)NC1CCCc2ccccc21)C(C)(C)C

> <Shape>
0.274

> <Color>
0.122

> <Negative vol penalty>
0.000

$$$$

  -OEChem-04052303503D

 88 97  0     1  0  0  0  0  0999 V2000
  -28.5068  -36.6331   24.4776 C   0  0  0  0  0  0  0  0  0  0  0  0
  -28.8868  -35.4160   23.9211 C   0  0  0  0  0  0  0  0  0  0  0  0
  -21.9960  -12.6608   22.1619 C   0  0  0  0  0  0  0  0  0  0  0  0
  -22.0795  -14.4686   20.5613 C   0  0  0  0  0  0  0  0  0  0  0  0
  -27.2769  -36.7490   25.1241 C   0  0  0  0  0  0  0  0  0  0  0  0
  -28.0375  -34.3137   24.0117 C   0  0  0  0  0  0  0  0  0  0  0  0
  -27.2883  -29.8909   19.8425 C   0  0  0  0  0  0  0  0  0  0  0  0
  -20.6613  -12.9623   22.4328 C   0  0  0  0  0  0  0  0  0  0  0  0
  -20.7449  -14.7701   20.8321 C   0  0  0  0  0  0  0  0  0  0  0  0
  -27.8170  -28.6054   19.7333 C   0  0  0  0  0  0  0  0  0  0  0  0
  -17.6464  -12.4297   20.9977 C   0  0  0  0  0  0  0  0  0  0  0  0
  -16.7436  -11.3688   21.0683 C   0  0  0  0  0  0  0  0  0  0  0  0
  -29.3669  -19.2627   17.7812 C   0  0  0  0  0  0  0  0  0  0  0  0
  -28.6101  -20.1882   15.6819 C   0  0  0  0  0  0  0  0  0  0  0  0
  -25.8350  -27.7082   20.7752 C   0  0  0  0  0  0  0  0  0  0  0  0
  -27.8203  -18.0213   16.4013 C   0  0  0  0  0  0  0  0  0  0  0  0
  -16.2222  -11.9644   23.3509 C   0  0  0  0  0  0  0  0  0  0  0  0
  -22.7051  -13.4140   21.2262 C   0  0  0  0  0  0  0  0  0  0  0  0
  -29.3779  -20.2935   16.8416 C   0  0  0  0  0  0  0  0  0  0  0  0
  -24.5984  -11.8905   20.4500 C   0  0  0  0  0  0  0  0  0  0  0  0
  -26.4080  -35.6502   25.2142 C   0  0  0  0  0  0  0  0  0  0  0  0
  -26.0316  -30.0960   20.4297 C   0  0  0  0  0  0  0  0  0  0  0  0
  -26.7955  -34.4147   24.6612 C   0  0  0  0  0  0  0  0  0  0  0  0
  -25.2914  -28.9970   20.8883 C   0  0  0  0  0  0  0  0  0  0  0  0
  -28.5882  -18.1265   17.5611 C   0  0  0  0  0  0  0  0  0  0  0  0
  -20.0358  -14.0169   21.7679 C   0  0  0  0  0  0  0  0  0  0  0  0
  -27.0916  -27.5142   20.2023 C   0  0  0  0  0  0  0  0  0  0  0  0
  -17.8372  -13.2580   22.1037 C   0  0  0  0  0  0  0  0  0  0  0  0
  -16.0315  -11.1362   22.2449 C   0  0  0  0  0  0  0  0  0  0  0  0
  -27.8313  -19.0521   15.4617 C   0  0  0  0  0  0  0  0  0  0  0  0
  -17.1251  -13.0253   23.2803 C   0  0  0  0  0  0  0  0  0  0  0  0
  -24.0840  -13.1033   20.9464 C   0  0  0  0  0  0  0  0  0  0  0  0
  -25.9523  -12.1031   20.3600 C   0  0  0  0  0  0  0  0  0  0  0  0
  -30.2015  -21.4936   17.0731 C   0  0  0  0  0  0  0  0  0  0  0  0
  -23.9135  -10.6801   20.1014 C   0  0  0  0  0  0  0  0  0  0  0  0
  -24.9787  -31.6695   22.9830 C   0  0  0  0  0  0  0  0  0  0  0  0
  -22.0698  -30.8403   21.8112 C   0  0  0  0  0  0  0  0  0  0  0  0
  -20.2202  -28.7120   19.8887 C   0  0  0  0  0  0  0  0  0  0  0  0
  -29.2780  -17.0260   19.7196 C   0  0  0  0  0  0  0  0  0  0  0  0
  -25.1093  -35.8113   25.9640 C   0  0  0  0  0  0  0  0  0  0  0  0
  -25.4637  -31.4862   20.5158 C   0  0  0  0  0  0  0  0  0  0  0  0
  -23.9288  -29.1616   21.5084 C   0  0  0  0  0  0  0  0  0  0  0  0
  -24.1050  -34.6949   25.6896 C   0  0  0  0  0  0  0  0  0  0  0  0
  -29.4850  -14.6448   22.3586 C   0  0  0  0  0  0  0  0  0  0  0  0
  -24.7856  -33.3323   25.7723 C   0  0  0  0  0  0  0  0  0  0  0  0
  -28.1730  -13.8649   22.2470 C   0  0  0  0  0  0  0  0  0  0  0  0
  -30.6714  -24.4691   18.8392 C   0  0  0  0  0  0  0  0  0  0  0  0
  -28.2283  -23.8028   18.7964 C   0  0  0  0  0  0  0  0  0  0  0  0
  -29.2938  -16.1256   22.0357 C   0  0  0  0  0  0  0  0  0  0  0  0
  -31.0667  -22.9974   18.7914 C   0  0  0  0  0  0  0  0  0  0  0  0
  -28.6363  -22.3347   18.7480 C   0  0  0  0  0  0  0  0  0  0  0  0
  -27.3288  -15.6214   20.6379 C   0  0  0  0  0  0  0  0  0  0  0  0
  -25.8909  -33.2028   24.7173 C   0  0  1  0  0  0  0  0  0  0  0  0
  -24.3979  -31.6303   21.5978 C   0  0  1  0  0  0  0  0  0  0  0  0
  -27.4836  -14.1129   20.8909 C   0  0  2  0  0  0  0  0  0  0  0  0
  -29.2948  -24.6617   19.4871 C   0  0  0  0  0  0  0  0  0  0  0  0
  -17.8625  -28.2657   19.1542 C   0  0  0  0  0  0  0  0  0  0  0  0
  -21.4440  -29.6517   24.5508 C   0  0  0  0  0  0  0  0  0  0  0  0
  -19.5341  -28.4184   23.5021 C   0  0  0  0  0  0  0  0  0  0  0  0
  -19.5547  -30.9129   23.5045 C   0  0  0  0  0  0  0  0  0  0  0  0
  -20.9087  -29.1151   17.0387 C   0  0  0  0  0  0  0  0  0  0  0  0
  -28.8936  -26.1320   19.4963 C   0  0  0  0  0  0  0  0  0  1  0  0
  -21.1430  -29.6617   21.9865 C   0  0  1  0  0  0  0  0  0  0  0  0
  -19.1687  -28.9714   18.8250 C   0  0  2  0  0  0  0  0  0  0  0  0
  -20.4454  -29.6579   23.3761 C   0  0  0  0  0  0  0  0  0  0  0  0
  -25.0338  -14.0185   21.1571 N   0  0  0  0  0  0  0  0  0  0  0  0
  -26.1586  -13.3804   20.7914 N   0  0  0  0  0  0  0  0  0  0  0  0
  -29.9791  -22.2390   18.1465 N   0  0  0  0  0  0  0  0  0  0  0  0
  -23.4193  -30.5413   21.5758 N   0  0  0  0  0  0  0  0  0  0  0  0
  -28.6392  -16.2833   20.7351 N   0  0  0  0  0  0  0  0  0  0  0  0
  -26.9747  -11.3201   19.9548 N   0  0  0  0  0  0  0  0  0  0  0  0
  -22.5212  -10.6323   20.2549 N   0  0  0  0  0  0  0  0  0  0  0  0
  -28.5758  -17.0798   18.5161 N   0  0  0  0  0  0  0  0  0  0  0  0
  -25.3181  -32.9375   23.4151 N   0  0  0  0  0  0  0  0  0  0  0  0
  -20.2219  -29.6949   20.8557 N   0  0  0  0  0  0  0  0  0  0  0  0
  -31.1560  -21.8088   16.2025 N   0  3  0  0  0  0  0  0  0  0  0  0
  -19.6435  -28.4865   17.4982 N   0  3  0  0  0  0  0  0  0  0  0  0
  -24.5202   -9.6653   19.6823 O   0  0  0  0  0  0  0  0  0  0  0  0
  -25.1079  -30.6269   23.6137 O   0  0  0  0  0  0  0  0  0  0  0  0
  -21.6121  -31.9841   21.8733 O   0  0  0  0  0  0  0  0  0  0  0  0
  -20.9631  -27.7331   19.8662 O   0  0  0  0  0  0  0  0  0  0  0  0
  -30.3805  -17.5510   19.8954 O   0  0  0  0  0  0  0  0  0  0  0  0
  -18.7333  -14.3113   22.0318 O   0  0  0  0  0  0  0  0  0  0  0  0
  -27.6056  -26.2585   20.0975 O   0  0  0  0  0  0  0  0  0  1  0  0
  -15.1634  -10.1183   22.3120 F   0  0  0  0  0  0  0  0  0  0  0  0
  -27.0941  -18.9511   14.3480 F   0  0  0  0  0  0  0  0  0  0  0  0
  -17.3033  -13.8183   24.3458 F   0  0  0  0  0  0  0  0  0  0  0  0
  -29.3823  -24.2577   20.7896 F   0  0  0  0  0  0  0  0  0  0  0  0
  1  2  1  0  0  0  0
  1  5  2  0  0  0  0
  2  6  2  0  0  0  0
  3  8  2  0  0  0  0
  3 18  1  0  0  0  0
  4  9  1  0  0  0  0
  4 18  2  0  0  0  0
  5 21  1  0  0  0  0
  6 23  1  0  0  0  0
  7 10  2  0  0  0  0
  7 22  1  0  0  0  0
  8 26  1  0  0  0  0
  9 26  2  0  0  0  0
 10 27  1  0  0  0  0
 11 12  2  0  0  0  0
 11 28  1  0  0  0  0
 12 29  1  0  0  0  0
 13 19  2  0  0  0  0
 13 25  1  0  0  0  0
 14 19  1  0  0  0  0
 14 30  2  0  0  0  0
 15 24  1  0  0  0  0
 15 27  2  0  0  0  0
 16 25  2  0  0  0  0
 16 30  1  0  0  0  0
 17 29  2  0  0  0  0
 17 31  1  0  0  0  0
 18 32  1  0  0  0  0
 19 34  1  0  0  0  0
 20 32  1  0  0  0  0
 20 33  2  0  0  0  0
 20 35  1  0  0  0  0
 21 23  2  0  0  0  0
 21 40  1  0  0  0  0
 22 24  2  0  0  0  0
 22 41  1  0  0  0  0
 23 53  1  0  0  0  0
 24 42  1  0  0  0  0
 25 73  1  0  0  0  0
 26 83  1  0  0  0  0
 27 84  1  0  0  0  0
 28 31  2  0  0  0  0
 28 83  1  0  0  0  0
 29 85  1  0  0  0  0
 30 86  1  0  0  0  0
 31 87  1  0  0  0  0
 32 66  2  0  0  0  0
 33 67  1  0  0  0  0
 33 71  1  0  0  0  0
 34 68  1  0  0  0  0
 34 76  2  0  0  0  0
 35 72  1  0  0  0  0
 35 78  2  0  0  0  0
 36 54  1  0  0  0  0
 36 74  1  0  0  0  0
 36 79  2  0  0  0  0
 37 63  1  0  0  0  0
 37 69  1  0  0  0  0
 37 80  2  0  0  0  0
 38 64  1  0  0  0  0
 38 75  1  0  0  0  0
 38 81  2  0  0  0  0
 39 70  1  0  0  0  0
 39 73  1  0  0  0  0
 39 82  2  0  0  0  0
 40 43  1  0  0  0  0
 41 54  1  0  0  0  0
 42 69  1  0  0  0  0
 43 45  1  0  0  0  0
 44 46  1  0  0  0  0
 44 49  1  0  0  0  0
 45 53  1  0  0  0  0
 46 55  1  0  0  0  0
 47 50  1  0  0  0  0
 47 56  1  0  0  0  0
 48 51  1  0  0  0  0
 48 56  1  0  0  0  0
 49 70  1  0  0  0  0
 50 68  1  0  0  0  0
 51 68  1  0  0  0  0
 52 55  1  0  0  0  0
 52 70  1  0  0  0  0
 53 74  1  0  0  0  0
 54 69  1  0  0  0  0
 55 67  1  0  0  0  0
 56 62  1  0  0  0  0
 56 88  1  0  0  0  0
 57 64  1  0  0  0  0
 58 65  1  0  0  0  0
 59 65  1  0  0  0  0
 60 65  1  0  0  0  0
 61 77  1  0  0  0  0
 62 84  1  0  0  0  0
 63 65  1  0  0  0  0
 63 75  1  0  0  0  0
 64 77  1  0  0  0  0
 66 67  1  0  0  0  0
M  CHG  2  76   1  77   1
M  ISO  4  39 100  62 101  73 100  84 101
M  END
> <Batch ID>
0160

> <Smiles>
CNC(C)C(=O)NC(C(=O)N1Cc2cc([101O:1][101CH2:1]C3(F)CCN(C(=N)c4cc(F)cc([100NH:0][100C:0](=O)N5CCCC(n6nc(-c7ccc(Oc8ccc(F)cc8F)cc7)c(C(N)=O)c6N)C5)c4)CC3)ccc2CC1C(=O)NC1CCCc2ccccc21)C(C)(C)C

> <Shape>
0.295

> <Color>
0.083

> <Negative vol penalty>
0.000

$$$$

  -OEChem-04052303503D

 88 97  0     1  0  0  0  0  0999 V2000
  -18.9219  -33.4275   24.4970 C   0  0  0  0  0  0  0  0  0  0  0  0
  -20.2900  -33.4029   24.2457 C   0  0  0  0  0  0  0  0  0  0  0  0
  -24.3396   -9.5953   21.2889 C   0  0  0  0  0  0  0  0  0  0  0  0
  -25.0708  -10.5723   23.3740 C   0  0  0  0  0  0  0  0  0  0  0  0
  -18.1934  -32.2387   24.4999 C   0  0  0  0  0  0  0  0  0  0  0  0
  -20.9306  -32.1893   23.9983 C   0  0  0  0  0  0  0  0  0  0  0  0
  -26.3382  -29.3998   20.2176 C   0  0  0  0  0  0  0  0  0  0  0  0
  -24.0371   -8.4061   21.9521 C   0  0  0  0  0  0  0  0  0  0  0  0
  -24.7683   -9.3831   24.0373 C   0  0  0  0  0  0  0  0  0  0  0  0
  -27.4756  -28.6113   20.3855 C   0  0  0  0  0  0  0  0  0  0  0  0
  -21.5516   -7.2059   23.9052 C   0  0  0  0  0  0  0  0  0  0  0  0
  -20.3353   -6.5903   23.6101 C   0  0  0  0  0  0  0  0  0  0  0  0
  -27.3590  -20.8869   20.0574 C   0  0  0  0  0  0  0  0  0  0  0  0
  -26.1014  -26.6293   20.3375 C   0  0  0  0  0  0  0  0  0  0  0  0
  -29.2562  -19.3866   18.6673 C   0  0  0  0  0  0  0  0  0  0  0  0
  -21.5145   -4.6181   22.8638 C   0  0  0  0  0  0  0  0  0  0  0  0
  -24.8565  -10.6784   21.9998 C   0  0  0  0  0  0  0  0  0  0  0  0
  -27.9937  -21.4284   18.9396 C   0  0  0  0  0  0  0  0  0  0  0  0
  -24.3130  -13.0036   21.1020 C   0  0  0  0  0  0  0  0  0  0  0  0
  -18.8237  -31.0110   24.2429 C   0  0  0  0  0  0  0  0  0  0  0  0
  -25.0704  -28.8085   20.1191 C   0  0  0  0  0  0  0  0  0  0  0  0
  -20.2101  -30.9828   23.9991 C   0  0  0  0  0  0  0  0  0  0  0  0
  -24.9497  -27.4124   20.1658 C   0  0  0  0  0  0  0  0  0  0  0  0
  -28.6216  -18.8451   19.7852 C   0  0  0  0  0  0  0  0  0  0  0  0
  -24.2515   -8.3000   23.3263 C   0  0  0  0  0  0  0  0  0  0  0  0
  -27.3570  -27.2260   20.4484 C   0  0  0  0  0  0  0  0  0  0  0  0
  -22.7495   -6.5276   23.6796 C   0  0  0  0  0  0  0  0  0  0  0  0
  -20.3167   -5.2964   23.0894 C   0  0  0  0  0  0  0  0  0  0  0  0
  -27.6730  -19.5953   20.4803 C   0  0  0  0  0  0  0  0  0  0  0  0
  -28.9422  -20.6783   18.2445 C   0  0  0  0  0  0  0  0  0  0  0  0
  -22.7309   -5.2337   23.1589 C   0  0  0  0  0  0  0  0  0  0  0  0
  -25.1697  -11.9070   21.3152 C   0  0  0  0  0  0  0  0  0  0  0  0
  -25.0798  -13.9088   20.4099 C   0  0  0  0  0  0  0  0  0  0  0  0
  -28.1390  -25.2017   18.6417 C   0  0  0  0  0  0  0  0  0  0  0  0
  -27.6600  -22.7934   18.4951 C   0  0  0  0  0  0  0  0  0  0  0  0
  -22.9464  -13.1875   21.4946 C   0  0  0  0  0  0  0  0  0  0  0  0
  -22.3954  -28.9390   21.8312 C   0  0  0  0  0  0  0  0  0  0  0  0
  -21.2121  -27.1501   19.3977 C   0  0  0  0  0  0  0  0  0  0  0  0
  -21.8217  -24.9870   16.8294 C   0  0  0  0  0  0  0  0  0  0  0  0
  -29.8600  -16.6566   19.6338 C   0  0  0  0  0  0  0  0  0  0  0  0
  -18.0030  -29.7470   24.3034 C   0  0  0  0  0  0  0  0  0  0  0  0
  -23.8562  -29.6716   19.9114 C   0  0  0  0  0  0  0  0  0  0  0  0
  -23.6137  -26.7274   20.0448 C   0  0  0  0  0  0  0  0  0  0  0  0
  -18.6894  -28.5438   23.6618 C   0  0  0  0  0  0  0  0  0  0  0  0
  -29.6182  -13.3943   18.2282 C   0  0  0  0  0  0  0  0  0  0  0  0
  -20.1401  -28.4480   24.1235 C   0  0  0  0  0  0  0  0  0  0  0  0
  -28.3689  -12.8067   18.8885 C   0  0  0  0  0  0  0  0  0  0  0  0
  -30.1943  -24.9773   19.8011 C   0  0  0  0  0  0  0  0  0  0  0  0
  -30.4101  -14.2735   19.1945 C   0  0  0  0  0  0  0  0  0  0  0  0
  -29.4293  -23.6641   19.9545 C   0  0  0  0  0  0  0  0  0  0  0  0
  -28.3823  -14.7434   20.5121 C   0  0  0  0  0  0  0  0  0  0  0  0
  -20.9364  -29.6889   23.7019 C   0  0  1  0  0  0  0  0  0  0  0  0
  -22.5593  -28.9911   20.3385 C   0  0  1  0  0  0  0  0  0  0  0  0
  -27.5173  -13.9027   19.5587 C   0  0  2  0  0  0  0  0  0  0  0  0
  -29.1291  -26.0194   19.4384 C   0  0  1  0  0  0  0  0  0  1  0  0
  -29.6887  -27.2022   18.6710 C   0  0  0  0  0  0  0  0  0  0  0  0
  -20.6504  -23.6687   15.0441 C   0  0  0  0  0  0  0  0  0  0  0  0
  -20.2932  -25.1323   21.4940 C   0  0  0  0  0  0  0  0  0  0  0  0
  -20.0096  -23.4566   19.6556 C   0  0  0  0  0  0  0  0  0  0  0  0
  -18.6498  -25.5479   19.6552 C   0  0  0  0  0  0  0  0  0  0  0  0
  -23.2638  -26.4086   14.6710 C   0  0  0  0  0  0  0  0  0  0  0  0
  -21.1147  -25.6720   19.1065 C   0  0  1  0  0  0  0  0  0  0  0  0
  -21.3472  -24.9761   15.3875 C   0  0  2  0  0  0  0  0  0  0  0  0
  -20.0419  -24.9649   19.9821 C   0  0  0  0  0  0  0  0  0  0  0  0
  -26.3874  -12.0962   20.8001 N   0  0  0  0  0  0  0  0  0  0  0  0
  -26.3015  -13.3221   20.2563 N   0  0  0  0  0  0  0  0  0  0  0  0
  -28.3428  -23.8174   18.9752 N   0  0  0  0  0  0  0  0  0  0  0  0
  -22.4554  -27.6149   19.8492 N   0  0  0  0  0  0  0  0  0  0  0  0
  -29.5398  -15.2911   19.7876 N   0  0  0  0  0  0  0  0  0  0  0  0
  -24.8215  -15.1415   19.9238 N   0  0  0  0  0  0  0  0  0  0  0  0
  -22.3093  -12.1573   22.1998 N   0  0  0  0  0  0  0  0  0  0  0  0
  -28.9423  -17.5327   20.2125 N   0  0  0  0  0  0  0  0  0  0  0  0
  -21.2840  -29.6138   22.2991 N   0  0  0  0  0  0  0  0  0  0  0  0
  -20.8871  -25.5530   17.6704 N   0  0  0  0  0  0  0  0  0  0  0  0
  -26.6782  -22.9727   17.6163 N   0  3  0  0  0  0  0  0  0  0  0  0
  -22.5013  -25.1510   14.4610 N   0  3  0  0  0  0  0  0  0  0  0  0
  -27.2762  -25.5899   17.8748 O   0  0  0  0  0  0  0  0  0  0  0  0
  -22.3040  -14.2276   21.2136 O   0  0  0  0  0  0  0  0  0  0  0  0
  -23.2157  -28.3303   22.5082 O   0  0  0  0  0  0  0  0  0  0  0  0
  -20.2235  -27.8671   19.2239 O   0  0  0  0  0  0  0  0  0  0  0  0
  -22.9109  -24.5350   17.1756 O   0  0  0  0  0  0  0  0  0  0  0  0
  -30.8593  -17.0225   19.0097 O   0  0  0  0  0  0  0  0  0  0  0  0
  -23.9562   -7.1398   23.9739 O   0  0  0  0  0  0  0  0  0  0  0  0
  -28.4656  -26.4540   20.6129 O   0  0  0  0  0  0  0  0  0  1  0  0
  -19.1485   -4.7048   22.8075 F   0  0  0  0  0  0  0  0  0  0  0  0
  -27.0570  -19.0849   21.5564 F   0  0  0  0  0  0  0  0  0  0  0  0
  -29.5576  -21.1900   17.1692 F   0  0  0  0  0  0  0  0  0  0  0  0
  -23.8783   -4.5766   22.9411 F   0  0  0  0  0  0  0  0  0  0  0  0
  1  2  1  0  0  0  0
  1  5  2  0  0  0  0
  2  6  2  0  0  0  0
  3  8  2  0  0  0  0
  3 17  1  0  0  0  0
  4  9  1  0  0  0  0
  4 17  2  0  0  0  0
  5 20  1  0  0  0  0
  6 22  1  0  0  0  0
  7 10  2  0  0  0  0
  7 21  1  0  0  0  0
  8 25  1  0  0  0  0
  9 25  2  0  0  0  0
 10 26  1  0  0  0  0
 11 12  2  0  0  0  0
 11 27  1  0  0  0  0
 12 28  1  0  0  0  0
 13 18  1  0  0  0  0
 13 29  2  0  0  0  0
 14 23  1  0  0  0  0
 14 26  2  0  0  0  0
 15 24  2  0  0  0  0
 15 30  1  0  0  0  0
 16 28  2  0  0  0  0
 16 31  1  0  0  0  0
 17 32  1  0  0  0  0
 18 30  2  0  0  0  0
 18 35  1  0  0  0  0
 19 32  1  0  0  0  0
 19 33  2  0  0  0  0
 19 36  1  0  0  0  0
 20 22  2  0  0  0  0
 20 41  1  0  0  0  0
 21 23  2  0  0  0  0
 21 42  1  0  0  0  0
 22 52  1  0  0  0  0
 23 43  1  0  0  0  0
 24 29  1  0  0  0  0
 24 72  1  0  0  0  0
 25 83  1  0  0  0  0
 26 84  1  0  0  0  0
 27 31  2  0  0  0  0
 27 83  1  0  0  0  0
 28 85  1  0  0  0  0
 29 86  1  0  0  0  0
 30 87  1  0  0  0  0
 31 88  1  0  0  0  0
 32 65  2  0  0  0  0
 33 66  1  0  0  0  0
 33 70  1  0  0  0  0
 34 55  1  0  0  0  0
 34 67  1  0  0  0  0
 34 77  2  0  0  0  0
 35 67  1  0  0  0  0
 35 75  2  0  0  0  0
 36 71  1  0  0  0  0
 36 78  2  0  0  0  0
 37 53  1  0  0  0  0
 37 73  1  0  0  0  0
 37 79  2  0  0  0  0
 38 62  1  0  0  0  0
 38 68  1  0  0  0  0
 38 80  2  0  0  0  0
 39 63  1  0  0  0  0
 39 74  1  0  0  0  0
 39 81  2  0  0  0  0
 40 69  1  0  0  0  0
 40 72  1  0  0  0  0
 40 82  2  0  0  0  0
 41 44  1  0  0  0  0
 42 53  1  0  0  0  0
 43 68  1  0  0  0  0
 44 46  1  0  0  0  0
 45 47  1  0  0  0  0
 45 49  1  0  0  0  0
 46 52  1  0  0  0  0
 47 54  1  0  0  0  0
 48 50  1  0  0  0  0
 48 55  1  0  0  0  0
 49 69  1  0  0  0  0
 50 67  1  0  0  0  0
 51 54  1  0  0  0  0
 51 69  1  0  0  0  0
 52 73  1  0  0  0  0
 53 68  1  0  0  0  0
 54 66  1  0  0  0  0
 55 56  1  0  0  0  0
 55 84  1  0  0  0  0
 57 63  1  0  0  0  0
 58 64  1  0  0  0  0
 59 64  1  0  0  0  0
 60 64  1  0  0  0  0
 61 76  1  0  0  0  0
 62 64  1  0  0  0  0
 62 74  1  0  0  0  0
 63 76  1  0  0  0  0
 65 66  1  0  0  0  0
M  CHG  2  75   1  76   1
M  ISO  4  40 100  55 101  72 100  84 101
M  END
> <Batch ID>
0160

> <Smiles>
CNC(C)C(=O)NC(C(=O)N1Cc2cc([101O:1][101C:1]3(C)CCN(C(=N)c4cc(F)c([100NH:0][100C:0](=O)N5CCCC(n6nc(-c7ccc(Oc8ccc(F)cc8F)cc7)c(C(N)=O)c6N)C5)cc4F)C3=O)ccc2CC1C(=O)NC1CCCc2ccccc21)C(C)(C)C

> <Shape>
0.315

> <Color>
0.158

> <Negative vol penalty>
0.000

$$$$

  -OEChem-04052303503D

 86 94  0     1  0  0  0  0  0999 V2000
  -18.4565  -24.3363   23.2291 C   0  0  0  0  0  0  0  0  0  0  0  0
  -19.7602  -24.3294   22.7435 C   0  0  0  0  0  0  0  0  0  0  0  0
  -24.0306  -12.2424   20.1213 C   0  0  0  0  0  0  0  0  0  0  0  0
  -22.6531  -13.9320   21.1628 C   0  0  0  0  0  0  0  0  0  0  0  0
  -17.7465  -25.5342   23.2998 C   0  0  0  0  0  0  0  0  0  0  0  0
  -20.3543  -25.5202   22.3273 C   0  0  0  0  0  0  0  0  0  0  0  0
  -25.0981  -26.0224   24.0270 C   0  0  0  0  0  0  0  0  0  0  0  0
  -26.4586  -23.6234   17.2179 C   0  0  0  0  0  0  0  0  0  0  0  0
  -23.2951  -11.2466   20.7640 C   0  0  0  0  0  0  0  0  0  0  0  0
  -21.9175  -12.9362   21.8054 C   0  0  0  0  0  0  0  0  0  0  0  0
  -26.0916  -25.3034   23.3638 C   0  0  0  0  0  0  0  0  0  0  0  0
  -23.1391   -9.8603   23.8426 C   0  0  0  0  0  0  0  0  0  0  0  0
  -23.8463   -8.8186   24.4429 C   0  0  0  0  0  0  0  0  0  0  0  0
  -26.4202  -22.3921   17.8628 C   0  0  0  0  0  0  0  0  0  0  0  0
  -26.7103  -27.2923   22.1470 C   0  0  0  0  0  0  0  0  0  0  0  0
  -22.7179   -7.2296   23.0150 C   0  0  0  0  0  0  0  0  0  0  0  0
  -23.7097  -13.5851   20.3208 C   0  0  0  0  0  0  0  0  0  0  0  0
  -24.2112  -15.1820   18.3957 C   0  0  0  0  0  0  0  0  0  0  0  0
  -18.3356  -26.7418   22.8933 C   0  0  0  0  0  0  0  0  0  0  0  0
  -24.8958  -27.3814   23.7468 C   0  0  0  0  0  0  0  0  0  0  0  0
  -19.6511  -26.7352   22.3914 C   0  0  0  0  0  0  0  0  0  0  0  0
  -25.7153  -28.0269   22.8099 C   0  0  0  0  0  0  0  0  0  0  0  0
  -27.5605  -24.4549   17.3841 C   0  0  0  0  0  0  0  0  0  0  0  0
  -22.2386  -11.5935   21.6060 C   0  0  0  0  0  0  0  0  0  0  0  0
  -26.8959  -25.9376   22.4215 C   0  0  0  0  0  0  0  0  0  0  0  0
  -22.2212   -9.5866   22.8285 C   0  0  0  0  0  0  0  0  0  0  0  0
  -23.6357   -7.5033   24.0291 C   0  0  0  0  0  0  0  0  0  0  0  0
  -22.0107   -8.2713   22.4147 C   0  0  0  0  0  0  0  0  0  0  0  0
  -24.4694  -14.6143   19.6577 C   0  0  0  0  0  0  0  0  0  0  0  0
  -28.5898  -24.0124   18.1993 C   0  0  0  0  0  0  0  0  0  0  0  0
  -27.5006  -22.0419   18.6564 C   0  0  0  0  0  0  0  0  0  0  0  0
  -25.2127  -16.1060   18.2233 C   0  0  0  0  0  0  0  0  0  0  0  0
  -23.1599  -14.8994   17.4626 C   0  0  0  0  0  0  0  0  0  0  0  0
  -22.4855  -29.0976   22.5853 C   0  0  0  0  0  0  0  0  0  0  0  0
  -29.6127  -25.7817   19.6235 C   0  0  0  0  0  0  0  0  0  0  0  0
  -24.4274  -31.5939   23.3067 C   0  0  0  0  0  0  0  0  0  0  0  0
  -27.5972  -32.7361   23.8494 C   0  0  0  0  0  0  0  0  0  0  0  0
  -28.4177  -20.2317   20.1492 C   0  0  0  0  0  0  0  0  0  0  0  0
  -17.5122  -28.0044   22.9441 C   0  0  0  0  0  0  0  0  0  0  0  0
  -23.8375  -28.1494   24.4903 C   0  0  0  0  0  0  0  0  0  0  0  0
  -25.5521  -29.4891   22.4878 C   0  0  0  0  0  0  0  0  0  0  0  0
  -18.3447  -29.2792   22.8340 C   0  0  0  0  0  0  0  0  0  0  0  0
  -29.4513  -16.9023   20.8732 C   0  0  0  0  0  0  0  0  0  0  0  0
  -19.3563  -29.1598   21.6986 C   0  0  0  0  0  0  0  0  0  0  0  0
  -28.2261  -16.0570   20.5177 C   0  0  0  0  0  0  0  0  0  0  0  0
  -29.0559  -18.2414   21.4932 C   0  0  0  0  0  0  0  0  0  0  0  0
  -26.8731  -18.1851   20.3524 C   0  0  0  0  0  0  0  0  0  0  0  0
  -20.3386  -28.0102   21.9536 C   0  0  1  0  0  0  0  0  0  0  0  0
  -23.3806  -29.4041   23.7526 C   0  0  1  0  0  0  0  0  0  0  0  0
  -27.2194  -16.8542   19.6652 C   0  0  2  0  0  0  0  0  0  0  0  0
  -28.8721  -34.8311   24.3814 C   0  0  0  0  0  0  0  0  0  0  0  0
  -24.0849  -32.5315   20.4234 C   0  0  0  0  0  0  0  0  0  0  0  0
  -26.0718  -34.0204   20.7450 C   0  0  0  0  0  0  0  0  0  0  0  0
  -24.0243  -34.3595   22.1290 C   0  0  0  0  0  0  0  0  0  0  0  0
  -29.5877  -25.2956   23.3301 C   0  0  0  0  0  0  0  0  0  0  0  0
  -28.6274  -31.6044   26.3826 C   0  0  0  0  0  0  0  0  0  0  0  0
  -30.0462  -25.2351   20.9712 C   0  0  0  0  0  0  0  0  0  0  0  0
  -25.5035  -32.3579   22.5736 C   0  0  1  0  0  0  0  0  0  0  0  0
  -28.1810  -33.6020   24.9511 C   0  0  2  0  0  0  0  0  0  0  0  0
  -29.8140  -24.8709   18.4194 C   0  0  0  0  0  0  0  0  0  0  0  0
  -24.9232  -33.2893   21.4722 C   0  0  0  0  0  0  0  0  0  0  0  0
  -25.5504  -15.1340   20.2455 N   0  0  0  0  0  0  0  0  0  0  0  0
  -28.5883  -22.8231   18.8420 N   0  0  0  0  0  0  0  0  0  0  0  0
  -25.9803  -16.0379   19.3487 N   0  0  0  0  0  0  0  0  0  0  0  0
  -24.4995  -30.1954   23.2366 N   0  0  0  0  0  0  0  0  0  0  0  0
  -28.1041  -18.9422   20.6285 N   0  0  0  0  0  0  0  0  0  0  0  0
  -27.6086  -25.7024   16.7366 N   0  0  0  0  0  0  0  0  0  0  0  0
  -25.5029  -16.9618   17.2205 N   0  0  0  0  0  0  0  0  0  0  0  0
  -22.2142  -13.9208   17.7977 N   0  0  0  0  0  0  0  0  0  0  0  0
  -27.4518  -20.7854   19.3095 N   0  0  0  0  0  0  0  0  0  0  0  0
  -21.3383  -28.4052   22.9226 N   0  0  0  0  0  0  0  0  0  0  0  0
  -26.2793  -33.0522   23.5956 N   0  0  0  0  0  0  0  0  0  0  0  0
  -29.1966  -25.8021   22.0164 N   0  0  1  0  0  0  0  0  0  1  0  0
  -29.1772  -32.8284   25.7450 N   0  3  0  0  0  0  0  0  0  0  0  0
  -23.0715  -15.4855   16.3570 O   0  0  0  0  0  0  0  0  0  0  0  0
  -22.8109  -29.4636   21.4620 O   0  0  0  0  0  0  0  0  0  0  0  0
  -29.1532  -26.9152   19.4771 O   0  0  0  0  0  0  0  0  0  0  0  0
  -23.5592  -32.2149   23.9249 O   0  0  0  0  0  0  0  0  0  0  0  0
  -28.2465  -31.8686   23.2693 O   0  0  0  0  0  0  0  0  0  0  0  0
  -29.4782  -20.7915   20.4389 O   0  0  0  0  0  0  0  0  0  0  0  0
  -21.5205  -10.6220   22.2330 O   0  0  0  0  0  0  0  0  0  0  0  0
  -27.8659  -25.2380   21.7723 O   0  0  0  0  0  0  0  0  0  1  0  0
  -24.3161   -6.5032   24.6046 F   0  0  0  0  0  0  0  0  0  0  0  0
  -21.1310   -8.0024   21.4402 F   0  0  0  0  0  0  0  0  0  0  0  0
  -30.1213  -25.6232   17.3201 F   0  0  0  0  0  0  0  0  0  0  0  0
  -30.9276  -24.1020   18.6219 F   0  0  0  0  0  0  0  0  0  0  0  0
  1  2  1  0  0  0  0
  1  5  2  0  0  0  0
  2  6  2  0  0  0  0
  3  9  2  0  0  0  0
  3 17  1  0  0  0  0
  4 10  1  0  0  0  0
  4 17  2  0  0  0  0
  5 19  1  0  0  0  0
  6 21  1  0  0  0  0
  7 11  2  0  0  0  0
  7 20  1  0  0  0  0
  8 14  2  0  0  0  0
  8 23  1  0  0  0  0
  9 24  1  0  0  0  0
 10 24  2  0  0  0  0
 11 25  1  0  0  0  0
 12 13  2  0  0  0  0
 12 26  1  0  0  0  0
 13 27  1  0  0  0  0
 14 31  1  0  0  0  0
 15 22  1  0  0  0  0
 15 25  2  0  0  0  0
 16 27  2  0  0  0  0
 16 28  1  0  0  0  0
 17 29  1  0  0  0  0
 18 29  1  0  0  0  0
 18 32  2  0  0  0  0
 18 33  1  0  0  0  0
 19 21  2  0  0  0  0
 19 39  1  0  0  0  0
 20 22  2  0  0  0  0
 20 40  1  0  0  0  0
 21 48  1  0  0  0  0
 22 41  1  0  0  0  0
 23 30  2  0  0  0  0
 23 67  1  0  0  0  0
 24 81  1  0  0  0  0
 25 82  1  0  0  0  0
 26 28  2  0  0  0  0
 26 81  1  0  0  0  0
 27 83  1  0  0  0  0
 28 84  1  0  0  0  0
 29 62  2  0  0  0  0
 30 60  1  0  0  0  0
 30 63  1  0  0  0  0
 31 63  2  0  0  0  0
 31 70  1  0  0  0  0
 32 64  1  0  0  0  0
 32 68  1  0  0  0  0
 33 69  1  0  0  0  0
 33 75  2  0  0  0  0
 34 49  1  0  0  0  0
 34 71  1  0  0  0  0
 34 76  2  0  0  0  0
 35 57  1  0  0  0  0
 35 60  1  0  0  0  0
 35 77  2  0  0  0  0
 36 58  1  0  0  0  0
 36 65  1  0  0  0  0
 36 78  2  0  0  0  0
 37 59  1  0  0  0  0
 37 72  1  0  0  0  0
 37 79  2  0  0  0  0
 38 66  1  0  0  0  0
 38 70  1  0  0  0  0
 38 80  2  0  0  0  0
 39 42  1  0  0  0  0
 40 49  1  0  0  0  0
 41 65  1  0  0  0  0
 42 44  1  0  0  0  0
 43 45  1  0  0  0  0
 43 46  1  0  0  0  0
 44 48  1  0  0  0  0
 45 50  1  0  0  0  0
 46 66  1  0  0  0  0
 47 50  1  0  0  0  0
 47 66  1  0  0  0  0
 48 71  1  0  0  0  0
 49 65  1  0  0  0  0
 50 64  1  0  0  0  0
 51 59  1  0  0  0  0
 52 61  1  0  0  0  0
 53 61  1  0  0  0  0
 54 61  1  0  0  0  0
 55 73  1  0  0  0  0
 56 74  1  0  0  0  0
 57 73  1  0  0  0  0
 58 61  1  0  0  0  0
 58 72  1  0  0  0  0
 59 74  1  0  0  0  0
 60 85  1  0  0  0  0
 60 86  1  0  0  0  0
 62 64  1  0  0  0  0
 73 82  1  0  0  0  0
M  CHG  1  74   1
M  ISO  4  38 100  70 100  73 101  82 101
M  END
> <Batch ID>
0160

> <Smiles>
CNC(C)C(=O)NC(C(=O)N1Cc2cc([101O:1][101N:1](C)CC(=O)C(F)(F)c3nc([100NH:0][100C:0](=O)N4CCCC(n5nc(-c6ccc(Oc7ccc(F)cc7F)cc6)c(C(N)=O)c5N)C4)ccc3N)ccc2CC1C(=O)NC1CCCc2ccccc21)C(C)(C)C

> <Shape>
0.274

> <Color>
0.099

> <Negative vol penalty>
0.000

$$$$

  -OEChem-04052303503D

 87 95  0     1  0  0  0  0  0999 V2000
  -23.0330  -22.4212   18.5520 C   0  0  0  0  0  0  0  0  0  0  0  0
  -22.9293  -21.0430   18.4014 C   0  0  0  0  0  0  0  0  0  0  0  0
  -26.2883  -28.3828   18.9232 C   0  0  0  0  0  0  0  0  0  0  0  0
  -26.1878  -27.6590   21.2260 C   0  0  0  0  0  0  0  0  0  0  0  0
  -23.4636  -22.9556   19.7645 C   0  0  0  0  0  0  0  0  0  0  0  0
  -23.2448  -20.1992   19.4670 C   0  0  0  0  0  0  0  0  0  0  0  0
  -23.4555  -14.1175   19.7756 C   0  0  0  0  0  0  0  0  0  0  0  0
  -25.2925  -29.3262   19.1762 C   0  0  0  0  0  0  0  0  0  0  0  0
  -25.1920  -28.6025   21.4791 C   0  0  0  0  0  0  0  0  0  0  0  0
  -24.4034  -13.1104   19.5995 C   0  0  0  0  0  0  0  0  0  0  0  0
  -25.0007  -31.9281   22.0484 C   0  0  0  0  0  0  0  0  0  0  0  0
  -25.1142  -32.6923   23.2097 C   0  0  0  0  0  0  0  0  0  0  0  0
  -24.7879  -13.0643   21.9805 C   0  0  0  0  0  0  0  0  0  0  0  0
  -30.5847  -16.2575   17.6861 C   0  0  0  0  0  0  0  0  0  0  0  0
  -29.8166  -13.9774   17.9058 C   0  0  0  0  0  0  0  0  0  0  0  0
  -22.9937  -31.8310   23.9837 C   0  0  0  0  0  0  0  0  0  0  0  0
  -26.7359  -27.5492   19.9481 C   0  0  0  0  0  0  0  0  0  0  0  0
  -29.9076  -15.4138   19.8463 C   0  0  0  0  0  0  0  0  0  0  0  0
  -29.1555  -26.7537   19.8045 C   0  0  0  0  0  0  0  0  0  0  0  0
  -23.7962  -22.1168   20.8409 C   0  0  0  0  0  0  0  0  0  0  0  0
  -23.1741  -14.6140   21.0565 C   0  0  0  0  0  0  0  0  0  0  0  0
  -23.6583  -20.7203   20.7064 C   0  0  0  0  0  0  0  0  0  0  0  0
  -23.8341  -14.0759   22.1704 C   0  0  0  0  0  0  0  0  0  0  0  0
  -30.3894  -16.4551   19.0530 C   0  0  0  0  0  0  0  0  0  0  0  0
  -29.6212  -14.1750   19.2728 C   0  0  0  0  0  0  0  0  0  0  0  0
  -24.7444  -29.4360   20.4541 C   0  0  0  0  0  0  0  0  0  0  0  0
  -25.0719  -12.5856   20.7018 C   0  0  0  0  0  0  0  0  0  0  0  0
  -23.8837  -31.1154   21.8546 C   0  0  0  0  0  0  0  0  0  0  0  0
  -24.1107  -32.6438   24.1773 C   0  0  0  0  0  0  0  0  0  0  0  0
  -30.2983  -15.0187   17.1125 C   0  0  0  0  0  0  0  0  0  0  0  0
  -22.8802  -31.0668   22.8223 C   0  0  0  0  0  0  0  0  0  0  0  0
  -27.7641  -26.5741   19.6872 C   0  0  0  0  0  0  0  0  0  0  0  0
  -29.6897  -25.5398   19.4472 C   0  0  0  0  0  0  0  0  0  0  0  0
  -29.7055  -15.6265   21.2768 C   0  0  0  0  0  0  0  0  0  0  0  0
  -29.8985  -27.9139   20.2011 C   0  0  0  0  0  0  0  0  0  0  0  0
  -23.4336  -17.4490   22.4703 C   0  0  0  0  0  0  0  0  0  0  0  0
  -21.9172  -15.9374   24.9070 C   0  0  0  0  0  0  0  0  0  0  0  0
  -28.7991  -11.8207   19.6266 C   0  0  0  0  0  0  0  0  0  0  0  0
  -21.1632  -13.0000   26.4724 C   0  0  0  0  0  0  0  0  0  0  0  0
  -29.7555  -20.0798   19.8096 C   0  0  0  0  0  0  0  0  0  0  0  0
  -24.2494  -22.7488   22.1334 C   0  0  0  0  0  0  0  0  0  0  0  0
  -22.1295  -15.6818   21.2324 C   0  0  0  0  0  0  0  0  0  0  0  0
  -23.5536  -14.5602   23.5687 C   0  0  0  0  0  0  0  0  0  0  0  0
  -24.9801  -21.7719   23.0487 C   0  0  0  0  0  0  0  0  0  0  0  0
  -27.5309  -21.4864   17.3256 C   0  0  0  0  0  0  0  0  0  0  0  0
  -24.1715  -20.4914   23.1937 C   0  0  0  0  0  0  0  0  0  0  0  0
  -27.5111  -22.9603   17.7348 C   0  0  0  0  0  0  0  0  0  0  0  0
  -27.5746  -20.5739   18.5477 C   0  0  0  0  0  0  0  0  0  0  0  0
  -28.6895  -22.3159   19.8879 C   0  0  0  0  0  0  0  0  0  0  0  0
  -24.0253  -19.7818   21.8417 C   0  0  1  0  0  0  0  0  0  0  0  0
  -22.2942  -16.4712   22.5274 C   0  0  1  0  0  0  0  0  0  0  0  0
  -28.6681  -23.2905   18.6963 C   0  0  2  0  0  0  0  0  0  0  0  0
  -28.3619  -16.1246   21.7147 C   0  0  0  0  0  0  0  0  0  0  0  0
  -19.9369  -12.0865   28.4621 C   0  0  0  0  0  0  0  0  0  0  0  0
  -24.1852  -16.8625   26.7264 C   0  0  0  0  0  0  0  0  0  0  0  0
  -23.4298  -15.1718   28.4113 C   0  0  0  0  0  0  0  0  0  0  0  0
  -21.9037  -17.0264   27.7376 C   0  0  0  0  0  0  0  0  0  0  0  0
  -19.3333  -11.4202   24.7651 C   0  0  0  0  0  0  0  0  0  0  0  0
  -30.7043  -17.7935   19.6383 C   0  0  0  0  0  0  0  0  0  0  0  0
  -28.3069  -10.9770   20.7970 C   0  0  0  0  0  0  0  0  0  0  0  0
  -27.0715  -11.5537   21.4716 C   0  0  0  0  0  0  0  0  0  1  0  0
  -22.3590  -15.1437   26.1127 C   0  0  1  0  0  0  0  0  0  0  0  0
  -19.8486  -12.4408   26.9858 C   0  0  2  0  0  0  0  0  0  0  0  0
  -22.9763  -16.0431   27.2206 C   0  0  0  0  0  0  0  0  0  0  0  0
  -27.4351  -25.3432   19.2865 N   0  0  0  0  0  0  0  0  0  0  0  0
  -28.6272  -24.7383   19.1488 N   0  0  0  0  0  0  0  0  0  0  0  0
  -22.5284  -15.6100   23.6884 N   0  0  0  0  0  0  0  0  0  0  0  0
  -28.7091  -20.9287   19.4121 N   0  0  0  0  0  0  0  0  0  0  0  0
  -30.9598  -25.0906   19.3621 N   0  0  0  0  0  0  0  0  0  0  0  0
  -29.1924  -29.0776   20.5352 N   0  0  0  0  0  0  0  0  0  0  0  0
  -29.1294  -13.1034   20.0555 N   0  0  0  0  0  0  0  0  0  0  0  0
  -23.0838  -18.6925   21.9796 N   0  0  0  0  0  0  0  0  0  0  0  0
  -21.1958  -14.3766   26.5451 N   0  0  0  0  0  0  0  0  0  0  0  0
  -29.6961  -18.7804   19.3212 N   0  0  0  0  0  0  0  0  0  0  0  0
  -19.4776  -11.2118   26.2289 N   0  3  0  0  0  0  0  0  0  0  0  0
  -30.5574  -15.4309   22.1414 O   0  0  0  0  0  0  0  0  0  0  0  0
  -31.1522  -27.9236   20.2417 O   0  0  0  0  0  0  0  0  0  0  0  0
  -24.5474  -17.1015   22.8451 O   0  0  0  0  0  0  0  0  0  0  0  0
  -21.0562  -16.8106   25.0402 O   0  0  0  0  0  0  0  0  0  0  0  0
  -28.8715  -11.3756   18.4860 O   0  0  0  0  0  0  0  0  0  0  0  0
  -22.0718  -12.2868   26.0525 O   0  0  0  0  0  0  0  0  0  0  0  0
  -30.6781  -20.4539   20.5417 O   0  0  0  0  0  0  0  0  0  0  0  0
  -23.7729  -30.3566   20.7015 O   0  0  0  0  0  0  0  0  0  0  0  0
  -25.9980  -11.6030   20.5327 O   0  0  0  0  0  0  0  0  0  1  0  0
  -24.2206  -33.3765   25.2932 F   0  0  0  0  0  0  0  0  0  0  0  0
  -30.4854  -14.8289   15.7998 F   0  0  0  0  0  0  0  0  0  0  0  0
  -21.8054  -30.2870   22.6423 F   0  0  0  0  0  0  0  0  0  0  0  0
  1  2  1  0  0  0  0
  1  5  2  0  0  0  0
  2  6  2  0  0  0  0
  3  8  2  0  0  0  0
  3 17  1  0  0  0  0
  4  9  1  0  0  0  0
  4 17  2  0  0  0  0
  5 20  1  0  0  0  0
  6 22  1  0  0  0  0
  7 10  2  0  0  0  0
  7 21  1  0  0  0  0
  8 26  1  0  0  0  0
  9 26  2  0  0  0  0
 10 27  1  0  0  0  0
 11 12  2  0  0  0  0
 11 28  1  0  0  0  0
 12 29  1  0  0  0  0
 13 23  1  0  0  0  0
 13 27  2  0  0  0  0
 14 24  2  0  0  0  0
 14 30  1  0  0  0  0
 15 25  1  0  0  0  0
 15 30  2  0  0  0  0
 16 29  2  0  0  0  0
 16 31  1  0  0  0  0
 17 32  1  0  0  0  0
 18 24  1  0  0  0  0
 18 25  2  0  0  0  0
 18 34  1  0  0  0  0
 19 32  1  0  0  0  0
 19 33  2  0  0  0  0
 19 35  1  0  0  0  0
 20 22  2  0  0  0  0
 20 41  1  0  0  0  0
 21 23  2  0  0  0  0
 21 42  1  0  0  0  0
 22 50  1  0  0  0  0
 23 43  1  0  0  0  0
 24 59  1  0  0  0  0
 25 71  1  0  0  0  0
 26 83  1  0  0  0  0
 27 84  1  0  0  0  0
 28 31  2  0  0  0  0
 28 83  1  0  0  0  0
 29 85  1  0  0  0  0
 30 86  1  0  0  0  0
 31 87  1  0  0  0  0
 32 65  2  0  0  0  0
 33 66  1  0  0  0  0
 33 69  1  0  0  0  0
 34 53  1  0  0  0  0
 34 76  2  0  0  0  0
 35 70  1  0  0  0  0
 35 77  2  0  0  0  0
 36 51  1  0  0  0  0
 36 72  1  0  0  0  0
 36 78  2  0  0  0  0
 37 62  1  0  0  0  0
 37 67  1  0  0  0  0
 37 79  2  0  0  0  0
 38 60  1  0  0  0  0
 38 71  1  0  0  0  0
 38 80  2  0  0  0  0
 39 63  1  0  0  0  0
 39 73  1  0  0  0  0
 39 81  2  0  0  0  0
 40 68  1  0  0  0  0
 40 74  1  0  0  0  0
 40 82  2  0  0  0  0
 41 44  1  0  0  0  0
 42 51  1  0  0  0  0
 43 67  1  0  0  0  0
 44 46  1  0  0  0  0
 45 47  1  0  0  0  0
 45 48  1  0  0  0  0
 46 50  1  0  0  0  0
 47 52  1  0  0  0  0
 48 68  1  0  0  0  0
 49 52  1  0  0  0  0
 49 68  1  0  0  0  0
 50 72  1  0  0  0  0
 51 67  1  0  0  0  0
 52 66  1  0  0  0  0
 54 63  1  0  0  0  0
 55 64  1  0  0  0  0
 56 64  1  0  0  0  0
 57 64  1  0  0  0  0
 58 75  1  0  0  0  0
 59 74  1  0  0  0  0
 60 61  1  0  0  0  0
 61 84  1  0  0  0  0
 62 64  1  0  0  0  0
 62 73  1  0  0  0  0
 63 75  1  0  0  0  0
 65 66  1  0  0  0  0
M  CHG  1  75   1
M  ISO  4  40 100  61 101  74 100  84 101
M  END
> <Batch ID>
0160

> <Smiles>
CNC(C)C(=O)NC(C(=O)N1Cc2cc([101O:1][101CH2:1]CC(=O)Nc3cc(F)cc(C[100NH:0][100C:0](=O)N4CCCC(n5nc(-c6ccc(Oc7ccc(F)cc7F)cc6)c(C(N)=O)c5N)C4)c3C(C)=O)ccc2CC1C(=O)NC1CCCc2ccccc21)C(C)(C)C

> <Shape>
0.224

> <Color>
0.056

> <Negative vol penalty>
0.000

$$$$

  -OEChem-04052303503D

 90 99  0     1  0  0  0  0  0999 V2000
  -28.6556  -30.5257   21.0651 C   0  0  0  0  0  0  0  0  0  0  0  0
  -28.4048  -29.9525   22.3077 C   0  0  0  0  0  0  0  0  0  0  0  0
  -29.4440  -20.4223   20.9747 C   0  0  0  0  0  0  0  0  0  0  0  0
  -30.0733  -19.6418   18.7765 C   0  0  0  0  0  0  0  0  0  0  0  0
  -27.5993  -30.7875   20.1935 C   0  0  0  0  0  0  0  0  0  0  0  0
  -27.0974  -29.6418   22.6799 C   0  0  0  0  0  0  0  0  0  0  0  0
  -24.0332  -22.8300   24.9685 C   0  0  0  0  0  0  0  0  0  0  0  0
  -29.1984  -21.6925   20.4534 C   0  0  0  0  0  0  0  0  0  0  0  0
  -29.8277  -20.9120   18.2552 C   0  0  0  0  0  0  0  0  0  0  0  0
  -23.3424  -21.6476   25.2345 C   0  0  0  0  0  0  0  0  0  0  0  0
  -31.0038  -24.3933   19.5204 C   0  0  0  0  0  0  0  0  0  0  0  0
  -31.4925  -25.4900   20.2303 C   0  0  0  0  0  0  0  0  0  0  0  0
  -24.0248  -14.2089   23.2159 C   0  0  0  0  0  0  0  0  0  0  0  0
  -21.3140  -22.6204   24.3474 C   0  0  0  0  0  0  0  0  0  0  0  0
  -23.5748  -12.4382   21.6349 C   0  0  0  0  0  0  0  0  0  0  0  0
  -29.2418  -26.3329   20.4774 C   0  0  0  0  0  0  0  0  0  0  0  0
  -29.8815  -19.3969   20.1363 C   0  0  0  0  0  0  0  0  0  0  0  0
  -22.6995  -14.1598   23.6481 C   0  0  0  0  0  0  0  0  0  0  0  0
  -31.0625  -17.7421   21.6772 C   0  0  0  0  0  0  0  0  0  0  0  0
  -26.2793  -30.4710   20.5513 C   0  0  0  0  0  0  0  0  0  0  0  0
  -23.3698  -23.9081   24.3760 C   0  0  0  0  0  0  0  0  0  0  0  0
  -26.0223  -29.9009   21.8128 C   0  0  0  0  0  0  0  0  0  0  0  0
  -22.0037  -23.8030   24.0671 C   0  0  0  0  0  0  0  0  0  0  0  0
  -24.4624  -13.3481   22.2093 C   0  0  0  0  0  0  0  0  0  0  0  0
  -29.3902  -21.9374   19.0936 C   0  0  0  0  0  0  0  0  0  0  0  0
  -21.9861  -21.5431   24.9250 C   0  0  0  0  0  0  0  0  0  0  0  0
  -29.6341  -24.2665   19.2889 C   0  0  0  0  0  0  0  0  0  0  0  0
  -30.6115  -26.4598   20.7089 C   0  0  0  0  0  0  0  0  0  0  0  0
  -22.2495  -12.3892   22.0671 C   0  0  0  0  0  0  0  0  0  0  0  0
  -28.7531  -25.2363   19.7674 C   0  0  0  0  0  0  0  0  0  0  0  0
  -21.8119  -13.2500   23.0737 C   0  0  0  0  0  0  0  0  0  0  0  0
  -30.1359  -18.0847   20.6743 C   0  0  0  0  0  0  0  0  0  0  0  0
  -30.9199  -16.3843   21.8271 C   0  0  0  0  0  0  0  0  0  0  0  0
  -22.2395  -15.0705   24.7117 C   0  0  0  0  0  0  0  0  0  0  0  0
  -31.9709  -18.5766   22.4080 C   0  0  0  0  0  0  0  0  0  0  0  0
  -23.5900  -27.4146   23.0600 C   0  0  0  0  0  0  0  0  0  0  0  0
  -21.8131  -25.8429   21.1150 C   0  0  0  0  0  0  0  0  0  0  0  0
  -20.1492  -24.6401   18.3908 C   0  0  0  0  0  0  0  0  0  0  0  0
  -26.4037  -12.6139   20.7814 C   0  0  0  0  0  0  0  0  0  0  0  0
  -25.1653  -30.8161   19.5950 C   0  0  0  0  0  0  0  0  0  0  0  0
  -24.0591  -25.2224   24.1279 C   0  0  0  0  0  0  0  0  0  0  0  0
  -21.3228  -25.0004   23.4624 C   0  0  0  0  0  0  0  0  0  0  0  0
  -23.8488  -30.1122   19.9139 C   0  0  0  0  0  0  0  0  0  0  0  0
  -29.6752  -12.4574   19.3850 C   0  0  0  0  0  0  0  0  0  0  0  0
  -23.5363  -30.2138   21.4034 C   0  0  0  0  0  0  0  0  0  0  0  0
  -30.2511  -13.8495   19.6538 C   0  0  0  0  0  0  0  0  0  0  0  0
  -20.3665  -17.8883   25.5946 C   0  0  0  0  0  0  0  0  0  0  0  0
  -21.0777  -17.9840   23.1693 C   0  0  0  0  0  0  0  0  0  0  0  0
  -28.1854  -12.5146   19.0520 C   0  0  0  0  0  0  0  0  0  0  0  0
  -20.3336  -16.3640   25.5209 C   0  0  0  0  0  0  0  0  0  0  0  0
  -21.0399  -16.4598   23.1020 C   0  0  0  0  0  0  0  0  0  0  0  0
  -27.9337  -14.6244   20.2988 C   0  0  0  0  0  0  0  0  0  0  0  0
  -24.6204  -29.5268   22.2427 C   0  0  1  0  0  0  0  0  0  0  0  0
  -23.5697  -25.9289   22.8511 C   0  0  1  0  0  0  0  0  0  0  0  0
  -29.4172  -14.6116   20.7023 C   0  0  2  0  0  0  0  0  0  0  0  0
  -20.1046  -18.5391   24.2251 C   0  0  0  0  0  0  0  0  0  0  0  0
  -18.6133  -25.3637   16.5429 C   0  0  0  0  0  0  0  0  0  0  0  0
  -19.4857  -25.9206   23.0850 C   0  0  0  0  0  0  0  0  0  0  0  0
  -17.9250  -25.6909   21.1408 C   0  0  0  0  0  0  0  0  0  0  0  0
  -19.4135  -27.6852   21.3143 C   0  0  0  0  0  0  0  0  0  0  0  0
  -22.1045  -23.8699   16.3070 C   0  0  0  0  0  0  0  0  0  0  0  0
  -18.4513  -18.8023   22.5759 C   0  0  0  0  0  0  0  0  0  0  0  0
  -20.2256  -20.0605   24.3253 C   0  0  0  0  0  0  0  0  0  1  0  0
  -20.4139  -25.4395   20.7243 C   0  0  1  0  0  0  0  0  0  0  0  0
  -20.0586  -25.1443   16.9618 C   0  0  2  0  0  0  0  0  0  0  0  0
  -19.3299  -26.1647   21.5707 C   0  0  0  0  0  0  0  0  0  0  0  0
  -29.4551  -17.0295   20.2191 N   0  0  0  0  0  0  0  0  0  0  0  0
  -29.9544  -16.0106   20.9392 N   0  0  0  0  0  0  0  0  0  0  0  0
  -21.2568  -15.9238   24.4586 N   0  0  0  0  0  0  0  0  0  0  0  0
  -22.1909  -25.6103   22.4431 N   0  0  0  0  0  0  0  0  0  0  0  0
  -27.4586  -13.2474   20.0910 N   0  0  0  0  0  0  0  0  0  0  0  0
  -31.5275  -15.4855   22.6305 N   0  0  0  0  0  0  0  0  0  0  0  0
  -31.9881  -19.9500   22.1291 N   0  0  0  0  0  0  0  0  0  0  0  0
  -25.8085  -13.3977   21.7693 N   0  0  0  0  0  0  0  0  0  0  0  0
  -24.4478  -28.0902   22.2131 N   0  0  0  0  0  0  0  0  0  0  0  0
  -20.3072  -25.6747   19.2884 N   0  0  0  0  0  0  0  0  0  0  0  0
  -22.8159  -15.0206   25.9090 N   0  3  0  0  0  0  0  0  0  0  0  0
  -20.6754  -24.1622   16.0259 N   0  3  0  0  0  0  0  0  0  0  0  0
  -32.7560  -18.1156   23.2709 O   0  0  0  0  0  0  0  0  0  0  0  0
  -22.8789  -27.9130   23.9247 O   0  0  0  0  0  0  0  0  0  0  0  0
  -22.5514  -26.3557   20.2693 O   0  0  0  0  0  0  0  0  0  0  0  0
  -20.0824  -23.4479   18.6819 O   0  0  0  0  0  0  0  0  0  0  0  0
  -26.0720  -11.4516   20.5343 O   0  0  0  0  0  0  0  0  0  0  0  0
  -29.1504  -23.1767   18.5845 O   0  0  0  0  0  0  0  0  0  0  0  0
  -21.3189  -20.3843   25.1832 O   0  0  0  0  0  0  0  0  0  1  0  0
  -18.7635  -18.2313   23.8357 O   0  0  0  0  0  0  0  0  0  0  0  0
  -31.0808  -27.5121   21.3920 F   0  0  0  0  0  0  0  0  0  0  0  0
  -21.3969  -11.5157   21.5158 F   0  0  0  0  0  0  0  0  0  0  0  0
  -27.4361  -25.1192   19.5492 F   0  0  0  0  0  0  0  0  0  0  0  0
  -20.5363  -13.1955   23.4819 F   0  0  0  0  0  0  0  0  0  0  0  0
  1  2  1  0  0  0  0
  1  5  2  0  0  0  0
  2  6  2  0  0  0  0
  3  8  2  0  0  0  0
  3 17  1  0  0  0  0
  4  9  1  0  0  0  0
  4 17  2  0  0  0  0
  5 20  1  0  0  0  0
  6 22  1  0  0  0  0
  7 10  2  0  0  0  0
  7 21  1  0  0  0  0
  8 25  1  0  0  0  0
  9 25  2  0  0  0  0
 10 26  1  0  0  0  0
 11 12  2  0  0  0  0
 11 27  1  0  0  0  0
 12 28  1  0  0  0  0
 13 18  1  0  0  0  0
 13 24  2  0  0  0  0
 14 23  1  0  0  0  0
 14 26  2  0  0  0  0
 15 24  1  0  0  0  0
 15 29  2  0  0  0  0
 16 28  2  0  0  0  0
 16 30  1  0  0  0  0
 17 32  1  0  0  0  0
 18 31  2  0  0  0  0
 18 34  1  0  0  0  0
 19 32  1  0  0  0  0
 19 33  2  0  0  0  0
 19 35  1  0  0  0  0
 20 22  2  0  0  0  0
 20 40  1  0  0  0  0
 21 23  2  0  0  0  0
 21 41  1  0  0  0  0
 22 53  1  0  0  0  0
 23 42  1  0  0  0  0
 24 74  1  0  0  0  0
 25 84  1  0  0  0  0
 26 85  1  0  0  0  0
 27 30  2  0  0  0  0
 27 84  1  0  0  0  0
 28 87  1  0  0  0  0
 29 31  1  0  0  0  0
 29 88  1  0  0  0  0
 30 89  1  0  0  0  0
 31 90  1  0  0  0  0
 32 67  2  0  0  0  0
 33 68  1  0  0  0  0
 33 72  1  0  0  0  0
 34 69  1  0  0  0  0
 34 77  2  0  0  0  0
 35 73  1  0  0  0  0
 35 79  2  0  0  0  0
 36 54  1  0  0  0  0
 36 75  1  0  0  0  0
 36 80  2  0  0  0  0
 37 64  1  0  0  0  0
 37 70  1  0  0  0  0
 37 81  2  0  0  0  0
 38 65  1  0  0  0  0
 38 76  1  0  0  0  0
 38 82  2  0  0  0  0
 39 71  1  0  0  0  0
 39 74  1  0  0  0  0
 39 83  2  0  0  0  0
 40 43  1  0  0  0  0
 41 54  1  0  0  0  0
 42 70  1  0  0  0  0
 43 45  1  0  0  0  0
 44 46  1  0  0  0  0
 44 49  1  0  0  0  0
 45 53  1  0  0  0  0
 46 55  1  0  0  0  0
 47 50  1  0  0  0  0
 47 56  1  0  0  0  0
 48 51  1  0  0  0  0
 48 56  1  0  0  0  0
 49 71  1  0  0  0  0
 50 69  1  0  0  0  0
 51 69  1  0  0  0  0
 52 55  1  0  0  0  0
 52 71  1  0  0  0  0
 53 75  1  0  0  0  0
 54 70  1  0  0  0  0
 55 68  1  0  0  0  0
 56 63  1  0  0  0  0
 56 86  1  0  0  0  0
 57 65  1  0  0  0  0
 58 66  1  0  0  0  0
 59 66  1  0  0  0  0
 60 66  1  0  0  0  0
 61 78  1  0  0  0  0
 62 86  1  0  0  0  0
 63 85  1  0  0  0  0
 64 66  1  0  0  0  0
 64 76  1  0  0  0  0
 65 78  1  0  0  0  0
 67 68  1  0  0  0  0
M  CHG  2  77   1  78   1
M  ISO  4  39 100  63 101  74 100  85 101
M  END
> <Batch ID>
0160

> <Smiles>
CNC(C)C(=O)NC(C(=O)N1Cc2cc([101O:1][101CH2:1]C3(OC)CCN(C(=N)c4cc([100NH:0][100C:0](=O)N5CCCC(n6nc(-c7ccc(Oc8ccc(F)cc8F)cc7)c(C(N)=O)c6N)C5)cc(F)c4F)CC3)ccc2CC1C(=O)NC1CCCc2ccccc21)C(C)(C)C

> <Shape>
0.246

> <Color>
0.069

> <Negative vol penalty>
0.000

$$$$

  -OEChem-04052303503D

 83 91  0     1  0  0  0  0  0999 V2000
  -31.1751  -11.5185   19.6516 C   0  0  0  0  0  0  0  0  0  0  0  0
  -30.8529  -12.8574   19.8489 C   0  0  0  0  0  0  0  0  0  0  0  0
  -20.4901  -26.7055   22.9284 C   0  0  0  0  0  0  0  0  0  0  0  0
  -19.6038  -28.0861   21.1549 C   0  0  0  0  0  0  0  0  0  0  0  0
  -30.1639  -10.5847   19.4292 C   0  0  0  0  0  0  0  0  0  0  0  0
  -29.5191  -13.2635   19.8228 C   0  0  0  0  0  0  0  0  0  0  0  0
  -26.9523  -17.6908   23.1868 C   0  0  0  0  0  0  0  0  0  0  0  0
  -19.3512  -26.9569   23.6934 C   0  0  0  0  0  0  0  0  0  0  0  0
  -18.4648  -28.3375   21.9199 C   0  0  0  0  0  0  0  0  0  0  0  0
  -26.6448  -19.0218   22.9081 C   0  0  0  0  0  0  0  0  0  0  0  0
  -17.5936  -30.3256   24.5121 C   0  0  0  0  0  0  0  0  0  0  0  0
  -17.1343  -31.6410   24.5776 C   0  0  0  0  0  0  0  0  0  0  0  0
  -24.3853  -18.3787   22.3602 C   0  0  0  0  0  0  0  0  0  0  0  0
  -29.1330  -21.5146   18.9893 C   0  0  0  0  0  0  0  0  0  0  0  0
  -15.0270  -30.9530   23.6167 C   0  0  0  0  0  0  0  0  0  0  0  0
  -20.6164  -27.2701   21.6592 C   0  0  0  0  0  0  0  0  0  0  0  0
  -21.9874  -25.9600   19.9528 C   0  0  0  0  0  0  0  0  0  0  0  0
  -28.8165  -10.9780   19.4100 C   0  0  0  0  0  0  0  0  0  0  0  0
  -25.9800  -16.6906   23.0436 C   0  0  0  0  0  0  0  0  0  0  0  0
  -28.4890  -12.3343   19.5986 C   0  0  0  0  0  0  0  0  0  0  0  0
  -24.6823  -17.0361   22.6402 C   0  0  0  0  0  0  0  0  0  0  0  0
  -29.9755  -22.6485   18.9018 C   0  0  0  0  0  0  0  0  0  0  0  0
  -18.3385  -27.7729   23.1891 C   0  0  0  0  0  0  0  0  0  0  0  0
  -25.3619  -19.3655   22.4919 C   0  0  0  0  0  0  0  0  0  0  0  0
  -16.7697  -29.3239   23.9988 C   0  0  0  0  0  0  0  0  0  0  0  0
  -15.8510  -31.9547   24.1299 C   0  0  0  0  0  0  0  0  0  0  0  0
  -15.4864  -29.6376   23.5512 C   0  0  0  0  0  0  0  0  0  0  0  0
  -21.7930  -27.0113   20.8687 C   0  0  0  0  0  0  0  0  0  0  0  0
  -29.2244  -23.7167   19.3339 C   0  0  0  0  0  0  0  0  0  0  0  0
  -23.2580  -26.1563   19.4695 C   0  0  0  0  0  0  0  0  0  0  0  0
  -27.9272  -21.9707   19.4688 C   0  0  0  0  0  0  0  0  0  0  0  0
  -21.0989  -24.9008   19.5729 C   0  0  0  0  0  0  0  0  0  0  0  0
  -29.5463  -25.1604   19.4719 C   0  0  0  0  0  0  0  0  0  0  0  0
  -25.6816  -14.0951   21.2329 C   0  0  0  0  0  0  0  0  0  0  0  0
  -23.0394  -13.6066   23.0502 C   0  0  0  0  0  0  0  0  0  0  0  0
  -20.5993  -14.9362   25.0314 C   0  0  0  0  0  0  0  0  0  0  0  0
  -28.6219  -27.3378   20.1984 C   0  0  0  0  0  0  0  0  0  0  0  0
  -27.7615   -9.9403   19.1188 C   0  0  0  0  0  0  0  0  0  0  0  0
  -26.3203  -15.2632   23.3739 C   0  0  0  0  0  0  0  0  0  0  0  0
  -23.5969  -16.0027   22.4904 C   0  0  0  0  0  0  0  0  0  0  0  0
  -26.3481  -10.3909   19.4790 C   0  0  0  0  0  0  0  0  0  0  0  0
  -26.4103  -30.0873   19.9831 C   0  0  0  0  0  0  0  0  0  0  0  0
  -26.0896  -11.8024   18.9616 C   0  0  0  0  0  0  0  0  0  0  0  0
  -25.0252  -29.4474   20.1108 C   0  0  0  0  0  0  0  0  0  0  0  0
  -27.4365  -29.4038   20.8857 C   0  0  0  0  0  0  0  0  0  0  0  0
  -26.1418  -27.3106   20.8664 C   0  0  0  0  0  0  0  0  0  0  0  0
  -27.0523  -12.8096   19.6021 C   0  0  1  0  0  0  0  0  0  0  0  0
  -25.3939  -14.2564   22.6988 C   0  0  1  0  0  0  0  0  0  0  0  0
  -25.0892  -27.9181   19.9250 C   0  0  1  0  0  0  0  0  0  0  0  0
  -31.3758  -22.6703   18.4398 C   0  0  0  0  0  0  0  0  0  0  0  0
  -18.5578  -14.2936   26.3415 C   0  0  0  0  0  0  0  0  0  0  0  0
  -23.2014  -21.5065   20.9912 C   0  0  0  0  0  0  0  0  0  0  0  0
  -21.4514  -13.3709   20.4554 C   0  0  0  0  0  0  0  0  0  0  0  0
  -19.3568  -13.6850   21.7904 C   0  0  0  0  0  0  0  0  0  0  0  0
  -20.8222  -11.7120   22.2180 C   0  0  0  0  0  0  0  0  0  0  0  0
  -21.7971  -15.8634   27.5740 C   0  0  0  0  0  0  0  0  0  0  0  0
  -25.5612  -21.9849   20.2611 C   0  0  0  0  0  0  0  0  0  0  0  0
  -21.5869  -14.0066   22.9541 C   0  0  1  0  0  0  0  0  0  0  0  0
  -20.0617  -14.5149   26.3871 C   0  0  2  0  0  0  0  0  0  0  0  0
  -24.6196  -20.9633   20.8944 C   0  0  1  0  0  0  0  0  0  1  0  0
  -20.8251  -13.2131   21.8553 C   0  0  0  0  0  0  0  0  0  0  0  0
  -22.8551  -27.8156   20.9635 N   0  0  0  0  0  0  0  0  0  0  0  0
  -23.7291  -27.2696   20.1009 N   0  0  0  0  0  0  0  0  0  0  0  0
  -23.9805  -14.6199   22.8191 N   0  0  0  0  0  0  0  0  0  0  0  0
  -27.4419  -27.9602   20.6418 N   0  0  0  0  0  0  0  0  0  0  0  0
  -24.0070  -25.4834   18.5703 N   0  0  0  0  0  0  0  0  0  0  0  0
  -19.8304  -24.8476   20.1664 N   0  0  0  0  0  0  0  0  0  0  0  0
  -26.7397  -21.3183   19.7552 N   0  0  0  0  0  0  0  0  0  0  0  0
  -28.5128  -25.9644   19.9533 N   0  0  0  0  0  0  0  0  0  0  0  0
  -26.6276  -13.1289   20.9483 N   0  0  0  0  0  0  0  0  0  0  0  0
  -21.0319  -13.8539   24.2947 N   0  0  0  0  0  0  0  0  0  0  0  0
  -20.3520  -15.5615   27.4075 N   0  3  0  0  0  0  0  0  0  0  0  0
  -21.4265  -24.0180   18.7441 O   0  0  0  0  0  0  0  0  0  0  0  0
  -30.6794  -25.5489   19.2019 O   0  0  0  0  0  0  0  0  0  0  0  0
  -25.0881  -14.7944   20.4202 O   0  0  0  0  0  0  0  0  0  0  0  0
  -23.3283  -12.4399   23.3273 O   0  0  0  0  0  0  0  0  0  0  0  0
  -20.6289  -16.1079   24.6614 O   0  0  0  0  0  0  0  0  0  0  0  0
  -29.6717  -27.9576   20.0009 O   0  0  0  0  0  0  0  0  0  0  0  0
  -27.9746  -23.3120   19.6815 O   0  0  0  0  0  0  0  0  0  0  0  0
  -17.2269  -28.0182   23.9352 O   0  0  0  0  0  0  0  0  0  0  0  0
  -25.0593  -20.6638   22.2186 O   0  0  0  0  0  0  0  0  0  1  0  0
  -15.4095  -33.2177   24.1943 F   0  0  0  0  0  0  0  0  0  0  0  0
  -14.6898  -28.6793   23.0582 F   0  0  0  0  0  0  0  0  0  0  0  0
  1  2  1  0  0  0  0
  1  5  2  0  0  0  0
  2  6  2  0  0  0  0
  3  8  2  0  0  0  0
  3 16  1  0  0  0  0
  4  9  1  0  0  0  0
  4 16  2  0  0  0  0
  5 18  1  0  0  0  0
  6 20  1  0  0  0  0
  7 10  2  0  0  0  0
  7 19  1  0  0  0  0
  8 23  1  0  0  0  0
  9 23  2  0  0  0  0
 10 24  1  0  0  0  0
 11 12  2  0  0  0  0
 11 25  1  0  0  0  0
 12 26  1  0  0  0  0
 13 21  1  0  0  0  0
 13 24  2  0  0  0  0
 14 22  1  0  0  0  0
 14 31  2  0  0  0  0
 15 26  2  0  0  0  0
 15 27  1  0  0  0  0
 16 28  1  0  0  0  0
 17 28  1  0  0  0  0
 17 30  2  0  0  0  0
 17 32  1  0  0  0  0
 18 20  2  0  0  0  0
 18 38  1  0  0  0  0
 19 21  2  0  0  0  0
 19 39  1  0  0  0  0
 20 47  1  0  0  0  0
 21 40  1  0  0  0  0
 22 29  2  0  0  0  0
 22 50  1  0  0  0  0
 23 80  1  0  0  0  0
 24 81  1  0  0  0  0
 25 27  2  0  0  0  0
 25 80  1  0  0  0  0
 26 82  1  0  0  0  0
 27 83  1  0  0  0  0
 28 62  2  0  0  0  0
 29 33  1  0  0  0  0
 29 79  1  0  0  0  0
 30 63  1  0  0  0  0
 30 66  1  0  0  0  0
 31 68  1  0  0  0  0
 31 79  1  0  0  0  0
 32 67  1  0  0  0  0
 32 73  2  0  0  0  0
 33 69  1  0  0  0  0
 33 74  2  0  0  0  0
 34 48  1  0  0  0  0
 34 70  1  0  0  0  0
 34 75  2  0  0  0  0
 35 58  1  0  0  0  0
 35 64  1  0  0  0  0
 35 76  2  0  0  0  0
 36 59  1  0  0  0  0
 36 71  1  0  0  0  0
 36 77  2  0  0  0  0
 37 65  1  0  0  0  0
 37 69  1  0  0  0  0
 37 78  2  0  0  0  0
 38 41  1  0  0  0  0
 39 48  1  0  0  0  0
 40 64  1  0  0  0  0
 41 43  1  0  0  0  0
 42 44  1  0  0  0  0
 42 45  1  0  0  0  0
 43 47  1  0  0  0  0
 44 49  1  0  0  0  0
 45 65  1  0  0  0  0
 46 49  1  0  0  0  0
 46 65  1  0  0  0  0
 47 70  1  0  0  0  0
 48 64  1  0  0  0  0
 49 63  1  0  0  0  0
 51 59  1  0  0  0  0
 52 60  1  0  0  0  0
 53 61  1  0  0  0  0
 54 61  1  0  0  0  0
 55 61  1  0  0  0  0
 56 72  1  0  0  0  0
 57 60  1  0  0  0  0
 57 68  1  0  0  0  0
 58 61  1  0  0  0  0
 58 71  1  0  0  0  0
 59 72  1  0  0  0  0
 60 81  1  0  0  0  0
 62 63  1  0  0  0  0
M  CHG  1  72   1
M  ISO  4  37 100  60 101  69 100  81 101
M  END
> <Batch ID>
0160

> <Smiles>
CNC(C)C(=O)NC(C(=O)N1Cc2cc([101O:1][101CH:1](C)CNc3cc(C)c(C(=O)[100NH:0][100C:0](=O)N4CCCC(n5nc(-c6ccc(Oc7ccc(F)cc7F)cc6)c(C(N)=O)c5N)C4)o3)ccc2CC1C(=O)NC1CCCc2ccccc21)C(C)(C)C

> <Shape>
0.237

> <Color>
0.072

> <Negative vol penalty>
0.000

$$$$

  -OEChem-04052303503D

 83 92  0     1  0  0  0  0  0999 V2000
  -30.3093  -32.4693   25.3361 C   0  0  0  0  0  0  0  0  0  0  0  0
  -29.5007  -31.4676   24.8086 C   0  0  0  0  0  0  0  0  0  0  0  0
  -24.7077   -8.5046   20.6830 C   0  0  0  0  0  0  0  0  0  0  0  0
  -23.2309  -10.4149   20.5998 C   0  0  0  0  0  0  0  0  0  0  0  0
  -29.7316  -33.6150   25.8815 C   0  0  0  0  0  0  0  0  0  0  0  0
  -28.1137  -31.6107   24.8272 C   0  0  0  0  0  0  0  0  0  0  0  0
  -25.9675  -30.3133   20.4277 C   0  0  0  0  0  0  0  0  0  0  0  0
  -23.6373   -7.6935   21.0598 C   0  0  0  0  0  0  0  0  0  0  0  0
  -22.1604   -9.6038   20.9765 C   0  0  0  0  0  0  0  0  0  0  0  0
  -25.8164  -28.9515   20.1702 C   0  0  0  0  0  0  0  0  0  0  0  0
  -21.8870   -7.0277   23.8735 C   0  0  0  0  0  0  0  0  0  0  0  0
  -22.0930   -6.1286   24.9198 C   0  0  0  0  0  0  0  0  0  0  0  0
  -23.5015  -29.0889   20.8348 C   0  0  0  0  0  0  0  0  0  0  0  0
  -21.5701   -4.2898   23.4425 C   0  0  0  0  0  0  0  0  0  0  0  0
  -24.3048  -19.9359   19.0469 C   0  0  0  0  0  0  0  0  0  0  0  0
  -24.5045   -9.8654   20.4531 C   0  0  0  0  0  0  0  0  0  0  0  0
  -26.4176  -10.5691   18.9193 C   0  0  0  0  0  0  0  0  0  0  0  0
  -28.3373  -33.7766   25.8981 C   0  0  0  0  0  0  0  0  0  0  0  0
  -24.8879  -31.0721   20.9019 C   0  0  0  0  0  0  0  0  0  0  0  0
  -27.5168  -32.7591   25.3746 C   0  0  0  0  0  0  0  0  0  0  0  0
  -23.6409  -30.4607   21.0952 C   0  0  0  0  0  0  0  0  0  0  0  0
  -22.3637   -8.2431   21.2065 C   0  0  0  0  0  0  0  0  0  0  0  0
  -24.5840  -28.3384   20.3765 C   0  0  0  0  0  0  0  0  0  0  0  0
  -21.5224   -6.5579   22.6118 C   0  0  0  0  0  0  0  0  0  0  0  0
  -21.9346   -4.7596   24.7043 C   0  0  0  0  0  0  0  0  0  0  0  0
  -21.3640   -5.1889   22.3963 C   0  0  0  0  0  0  0  0  0  0  0  0
  -25.6099  -10.7039   20.0644 C   0  0  0  0  0  0  0  0  0  0  0  0
  -25.2918  -20.4674   19.8502 C   0  0  0  0  0  0  0  0  0  0  0  0
  -27.3165  -11.6037   19.0095 C   0  0  0  0  0  0  0  0  0  0  0  0
  -25.6172  -18.3434   20.2894 C   0  0  0  0  0  0  0  0  0  0  0  0
  -26.3605   -9.5958   17.8681 C   0  0  0  0  0  0  0  0  0  0  0  0
  -24.3053  -32.7352   23.5474 C   0  0  0  0  0  0  0  0  0  0  0  0
  -21.6131  -33.5885   21.9516 C   0  0  0  0  0  0  0  0  0  0  0  0
  -19.3292  -32.8562   19.5238 C   0  0  0  0  0  0  0  0  0  0  0  0
  -27.1494  -16.9330   21.7070 C   0  0  0  0  0  0  0  0  0  0  0  0
  -27.7571  -35.0113   26.5410 C   0  0  0  0  0  0  0  0  0  0  0  0
  -25.0602  -32.5457   21.1495 C   0  0  0  0  0  0  0  0  0  0  0  0
  -22.4451  -31.2352   21.5837 C   0  0  0  0  0  0  0  0  0  0  0  0
  -26.2931  -35.2538   26.1832 C   0  0  0  0  0  0  0  0  0  0  0  0
  -29.5487  -14.3551   22.2314 C   0  0  0  0  0  0  0  0  0  0  0  0
  -25.4902  -33.9637   26.3167 C   0  0  0  0  0  0  0  0  0  0  0  0
  -24.4225  -22.7214   20.6056 C   0  0  0  0  0  0  0  0  0  0  0  0
  -26.0664  -22.5755   18.6831 C   0  0  0  0  0  0  0  0  0  0  0  0
  -24.7543  -24.2041   20.7725 C   0  0  0  0  0  0  0  0  0  0  0  0
  -26.3940  -24.0585   18.8549 C   0  0  0  0  0  0  0  0  0  0  0  0
  -28.8870  -13.1153   21.6256 C   0  0  0  0  0  0  0  0  0  0  0  0
  -28.5306  -15.2616   22.9210 C   0  0  0  0  0  0  0  0  0  0  0  0
  -26.7191  -14.4068   21.4868 C   0  0  0  0  0  0  0  0  0  0  0  0
  -26.0092  -32.8887   25.3541 C   0  0  1  0  0  0  0  0  0  0  0  0
  -25.6071  -21.9437   20.0080 C   0  0  0  0  0  0  0  0  0  0  0  0
  -24.0288  -33.1133   22.1197 C   0  0  1  0  0  0  0  0  0  0  0  0
  -25.2126  -24.8350   19.4512 C   0  0  0  0  0  0  0  0  0  0  0  0
  -27.6954  -13.4957   20.7250 C   0  0  2  0  0  0  0  0  0  0  0  0
  -17.2193  -33.7234   18.4781 C   0  0  0  0  0  0  0  0  0  0  0  0
  -20.0249  -32.6462   24.3805 C   0  0  0  0  0  0  0  0  0  0  0  0
  -17.9718  -32.6384   22.9478 C   0  0  0  0  0  0  0  0  0  0  0  0
  -19.1986  -34.7719   23.3544 C   0  0  0  0  0  0  0  0  0  0  0  0
  -20.6094  -33.1013   16.8667 C   0  0  0  0  0  0  0  0  0  0  0  0
  -25.5809  -26.3035   19.6546 C   0  0  0  0  0  0  0  0  0  1  0  0
  -20.2167  -33.0272   21.8341 C   0  0  1  0  0  0  0  0  0  0  0  0
  -18.7383  -33.7004   18.4091 C   0  0  2  0  0  0  0  0  0  0  0  0
  -19.3758  -33.2556   23.1218 C   0  0  0  0  0  0  0  0  0  0  0  0
  -25.9644  -11.7422   20.8262 N   0  0  0  0  0  0  0  0  0  0  0  0
  -26.0452  -19.5557   20.5638 N   0  0  0  0  0  0  0  0  0  0  0  0
  -27.0048  -12.2692   20.1585 N   0  0  0  0  0  0  0  0  0  0  0  0
  -22.6657  -32.6720   21.8175 N   0  0  0  0  0  0  0  0  0  0  0  0
  -27.4331  -15.5837   22.0063 N   0  0  0  0  0  0  0  0  0  0  0  0
  -28.3351  -12.0000   18.2172 N   0  0  0  0  0  0  0  0  0  0  0  0
  -25.5622   -9.8675   16.7486 N   0  0  0  0  0  0  0  0  0  0  0  0
  -26.1058  -17.1154   20.8003 N   0  0  0  0  0  0  0  0  0  0  0  0
  -25.5412  -33.1463   24.0091 N   0  0  0  0  0  0  0  0  0  0  0  0
  -19.6395  -33.6171   20.6311 N   0  0  0  0  0  0  0  0  0  0  0  0
  -19.1404  -33.1587   17.0803 N   0  3  0  0  0  0  0  0  0  0  0  0
  -26.9854   -8.5098   17.9275 O   0  0  0  0  0  0  0  0  0  0  0  0
  -23.4594  -32.1176   24.1836 O   0  0  0  0  0  0  0  0  0  0  0  0
  -21.7646  -34.7969   22.1479 O   0  0  0  0  0  0  0  0  0  0  0  0
  -19.4953  -31.6426   19.4238 O   0  0  0  0  0  0  0  0  0  0  0  0
  -27.8033  -17.8576   22.1964 O   0  0  0  0  0  0  0  0  0  0  0  0
  -21.3189   -7.4518   21.5739 O   0  0  0  0  0  0  0  0  0  0  0  0
  -24.4339  -27.0092   20.1265 O   0  0  0  0  0  0  0  0  0  1  0  0
  -22.1341   -3.8962   25.7087 F   0  0  0  0  0  0  0  0  0  0  0  0
  -21.0151   -4.7315   21.1860 F   0  0  0  0  0  0  0  0  0  0  0  0
  -24.3123  -18.2262   19.1811 S   0  0  0  0  0  0  0  0  0  0  0  0
  1  2  1  0  0  0  0
  1  5  2  0  0  0  0
  2  6  2  0  0  0  0
  3  8  2  0  0  0  0
  3 16  1  0  0  0  0
  4  9  1  0  0  0  0
  4 16  2  0  0  0  0
  5 18  1  0  0  0  0
  6 20  1  0  0  0  0
  7 10  2  0  0  0  0
  7 19  1  0  0  0  0
  8 22  1  0  0  0  0
  9 22  2  0  0  0  0
 10 23  1  0  0  0  0
 11 12  2  0  0  0  0
 11 24  1  0  0  0  0
 12 25  1  0  0  0  0
 13 21  1  0  0  0  0
 13 23  2  0  0  0  0
 14 25  2  0  0  0  0
 14 26  1  0  0  0  0
 15 28  2  0  0  0  0
 15 83  1  0  0  0  0
 16 27  1  0  0  0  0
 17 27  1  0  0  0  0
 17 29  2  0  0  0  0
 17 31  1  0  0  0  0
 18 20  2  0  0  0  0
 18 36  1  0  0  0  0
 19 21  2  0  0  0  0
 19 37  1  0  0  0  0
 20 49  1  0  0  0  0
 21 38  1  0  0  0  0
 22 79  1  0  0  0  0
 23 80  1  0  0  0  0
 24 26  2  0  0  0  0
 24 79  1  0  0  0  0
 25 81  1  0  0  0  0
 26 82  1  0  0  0  0
 27 63  2  0  0  0  0
 28 50  1  0  0  0  0
 28 64  1  0  0  0  0
 29 65  1  0  0  0  0
 29 68  1  0  0  0  0
 30 64  2  0  0  0  0
 30 70  1  0  0  0  0
 30 83  1  0  0  0  0
 31 69  1  0  0  0  0
 31 74  2  0  0  0  0
 32 51  1  0  0  0  0
 32 71  1  0  0  0  0
 32 75  2  0  0  0  0
 33 60  1  0  0  0  0
 33 66  1  0  0  0  0
 33 76  2  0  0  0  0
 34 61  1  0  0  0  0
 34 72  1  0  0  0  0
 34 77  2  0  0  0  0
 35 67  1  0  0  0  0
 35 70  1  0  0  0  0
 35 78  2  0  0  0  0
 36 39  1  0  0  0  0
 37 51  1  0  0  0  0
 38 66  1  0  0  0  0
 39 41  1  0  0  0  0
 40 46  1  0  0  0  0
 40 47  1  0  0  0  0
 41 49  1  0  0  0  0
 42 44  1  0  0  0  0
 42 50  1  0  0  0  0
 43 45  1  0  0  0  0
 43 50  1  0  0  0  0
 44 52  1  0  0  0  0
 45 52  1  0  0  0  0
 46 53  1  0  0  0  0
 47 67  1  0  0  0  0
 48 53  1  0  0  0  0
 48 67  1  0  0  0  0
 49 71  1  0  0  0  0
 51 66  1  0  0  0  0
 52 59  1  0  0  0  0
 53 65  1  0  0  0  0
 54 61  1  0  0  0  0
 55 62  1  0  0  0  0
 56 62  1  0  0  0  0
 57 62  1  0  0  0  0
 58 73  1  0  0  0  0
 59 80  1  0  0  0  0
 60 62  1  0  0  0  0
 60 72  1  0  0  0  0
 61 73  1  0  0  0  0
 63 65  1  0  0  0  0
M  CHG  1  73   1
M  ISO  4  35 100  59 101  70 100  80 101
M  END
> <Batch ID>
0160

> <Smiles>
CNC(C)C(=O)NC(C(=O)N1Cc2cc([101O:1][101CH2:1]C3CCC(c4csc([100NH:0][100C:0](=O)N5CCCC(n6nc(-c7ccc(Oc8ccc(F)cc8F)cc7)c(C(N)=O)c6N)C5)n4)CC3)ccc2CC1C(=O)NC1CCCc2ccccc21)C(C)(C)C

> <Shape>
0.227

> <Color>
0.106

> <Negative vol penalty>
0.000

$$$$

  -OEChem-04052303503D

 88 97  0     1  0  0  0  0  0999 V2000
  -24.3041   -8.2382   21.4472 C   0  0  0  0  0  0  0  0  0  0  0  0
  -24.8323   -9.3984   20.8902 C   0  0  0  0  0  0  0  0  0  0  0  0
  -21.2450  -29.3072   20.0753 C   0  0  0  0  0  0  0  0  0  0  0  0
  -22.1763  -27.4660   21.3322 C   0  0  0  0  0  0  0  0  0  0  0  0
  -22.9627   -8.1959   21.8253 C   0  0  0  0  0  0  0  0  0  0  0  0
  -24.0192  -10.5167   20.7098 C   0  0  0  0  0  0  0  0  0  0  0  0
  -26.2690  -14.8111   22.1732 C   0  0  0  0  0  0  0  0  0  0  0  0
  -20.0127  -28.6552   20.0332 C   0  0  0  0  0  0  0  0  0  0  0  0
  -20.9439  -26.8140   21.2901 C   0  0  0  0  0  0  0  0  0  0  0  0
  -27.2101  -15.3644   21.3059 C   0  0  0  0  0  0  0  0  0  0  0  0
  -17.9463  -24.8274   21.8247 C   0  0  0  0  0  0  0  0  0  0  0  0
  -17.4774  -24.2487   23.0040 C   0  0  0  0  0  0  0  0  0  0  0  0
  -25.5548  -16.9337   20.5207 C   0  0  0  0  0  0  0  0  0  0  0  0
  -30.4952  -24.5051   17.0996 C   0  0  0  0  0  0  0  0  0  0  0  0
  -17.5054  -26.4130   24.0773 C   0  0  0  0  0  0  0  0  0  0  0  0
  -22.3268  -28.7126   20.7247 C   0  0  0  0  0  0  0  0  0  0  0  0
  -24.0532  -30.2854   21.7513 C   0  0  0  0  0  0  0  0  0  0  0  0
  -22.1351   -9.3175   21.6583 C   0  0  0  0  0  0  0  0  0  0  0  0
  -24.9586  -15.3086   22.2129 C   0  0  0  0  0  0  0  0  0  0  0  0
  -22.6651  -10.4890   21.0847 C   0  0  0  0  0  0  0  0  0  0  0  0
  -24.5997  -16.3866   21.3912 C   0  0  0  0  0  0  0  0  0  0  0  0
  -30.2580  -23.1342   16.7925 C   0  0  0  0  0  0  0  0  0  0  0  0
  -19.8621  -27.4086   20.6406 C   0  0  0  0  0  0  0  0  0  0  0  0
  -26.8522  -16.4240   20.4775 C   0  0  0  0  0  0  0  0  0  0  0  0
  -18.1949  -26.1989   21.7717 C   0  0  0  0  0  0  0  0  0  0  0  0
  -17.2569  -25.0415   24.1303 C   0  0  0  0  0  0  0  0  0  0  0  0
  -17.9744  -26.9917   22.8980 C   0  0  0  0  0  0  0  0  0  0  0  0
  -23.6003  -29.3854   20.7681 C   0  0  0  0  0  0  0  0  0  0  0  0
  -30.3106  -24.7752   18.4377 C   0  0  0  0  0  0  0  0  0  0  0  0
  -25.3141  -30.6398   21.3377 C   0  0  0  0  0  0  0  0  0  0  0  0
  -29.9013  -22.4084   17.9079 C   0  0  0  0  0  0  0  0  0  0  0  0
  -28.0744  -18.2897   19.7733 C   0  0  0  0  0  0  0  0  0  1  0  0
  -23.3932  -30.7587   22.9328 C   0  0  0  0  0  0  0  0  0  0  0  0
  -28.9599  -18.9245   18.9957 C   0  0  0  0  0  0  0  0  0  0  0  0
  -29.2263  -20.3805   19.2354 C   0  0  0  0  0  0  0  0  0  0  0  0
  -22.0808  -14.0989   21.6139 C   0  0  0  0  0  0  0  0  0  0  0  0
  -21.0691  -16.9667   22.7428 C   0  0  0  0  0  0  0  0  0  0  0  0
  -21.7575  -20.2589   23.3212 C   0  0  0  0  0  0  0  0  0  0  0  0
  -29.3896  -27.9228   17.8940 C   0  0  0  0  0  0  0  0  0  0  0  0
  -20.6797   -9.2087   22.0384 C   0  0  0  0  0  0  0  0  0  0  0  0
  -23.9627  -14.7182   23.1731 C   0  0  0  0  0  0  0  0  0  0  0  0
  -23.2115  -16.9705   21.4103 C   0  0  0  0  0  0  0  0  0  0  0  0
  -19.9791  -10.5595   22.1593 C   0  0  0  0  0  0  0  0  0  0  0  0
  -27.9538  -31.1399   17.3788 C   0  0  0  0  0  0  0  0  0  0  0  0
  -20.3161  -11.4446   20.9636 C   0  0  0  0  0  0  0  0  0  0  0  0
  -26.7161  -31.1362   18.2777 C   0  0  0  0  0  0  0  0  0  0  0  0
  -27.9310  -22.0952   14.6906 C   0  0  0  0  0  0  0  0  0  0  0  0
  -28.7921  -21.9107   13.4738 C   0  0  0  0  0  0  0  0  0  0  0  0
  -28.1990  -29.7698   16.7506 C   0  0  0  0  0  0  0  0  0  0  0  0
  -27.0320  -28.6484   18.6092 C   0  0  0  0  0  0  0  0  0  0  0  0
  -21.8211  -11.7308   20.8959 C   0  0  1  0  0  0  0  0  0  0  0  0
  -22.5151  -14.9671   22.7608 C   0  0  1  0  0  0  0  0  0  0  0  0
  -26.7758  -29.9939   19.3096 C   0  0  2  0  0  0  0  0  0  0  0  0
  -29.1935  -22.9101   14.5335 C   0  0  0  0  0  0  0  0  0  0  0  0
  -29.0534  -24.3727   14.2127 C   0  0  0  0  0  0  0  0  0  0  0  0
  -20.7203  -22.3599   24.2197 C   0  0  0  0  0  0  0  0  0  0  0  0
  -19.4663  -17.2750   20.1649 C   0  0  0  0  0  0  0  0  0  0  0  0
  -19.2395  -19.7146   20.6798 C   0  0  0  0  0  0  0  0  0  0  0  0
  -18.2709  -18.0189   22.2318 C   0  0  0  0  0  0  0  0  0  0  0  0
  -23.7791  -20.4752   25.4719 C   0  0  0  0  0  0  0  0  0  0  0  0
  -30.3854  -22.5663   15.4288 C   0  0  0  0  0  0  0  0  0  0  0  0
  -30.4583  -26.0653   19.1457 C   0  0  0  0  0  0  0  0  0  0  0  0
  -20.7796  -18.3153   22.1293 C   0  0  1  0  0  0  0  0  0  0  0  0
  -21.5532  -21.1304   24.5473 C   0  0  2  0  0  0  0  0  0  0  0  0
  -19.4648  -18.3189   21.2995 C   0  0  0  0  0  0  0  0  0  0  0  0
  -24.5002  -29.1809   19.8025 N   0  0  0  0  0  0  0  0  0  0  0  0
  -25.5311  -29.9574   20.1770 N   0  0  0  0  0  0  0  0  0  0  0  0
  -22.2717  -16.3548   22.3617 N   0  0  0  0  0  0  0  0  0  0  0  0
  -28.2463  -28.7312   17.7826 N   0  0  0  0  0  0  0  0  0  0  0  0
  -26.2471  -31.4655   21.8573 N   0  0  0  0  0  0  0  0  0  0  0  0
  -22.1001  -30.2933   23.2077 N   0  0  0  0  0  0  0  0  0  0  0  0
  -29.5805  -21.0385   18.0656 N   0  0  0  0  0  0  0  0  0  0  0  0
  -22.1870  -12.7437   21.8626 N   0  0  0  0  0  0  0  0  0  0  0  0
  -20.7956  -19.2754   23.2277 N   0  0  0  0  0  0  0  0  0  0  0  0
  -29.3548  -26.9675   18.9024 N   0  0  0  0  0  0  0  0  0  0  0  0
  -22.8670  -21.5826   25.0861 N   0  3  0  0  0  0  0  0  0  0  0  0
  -23.9277  -31.5830   23.7129 O   0  0  0  0  0  0  0  0  0  0  0  0
  -29.1236  -20.8633   20.3580 O   0  0  0  0  0  0  0  0  0  0  0  0
  -21.6778  -14.6198   20.5806 O   0  0  0  0  0  0  0  0  0  0  0  0
  -20.2615  -16.4775   23.5366 O   0  0  0  0  0  0  0  0  0  0  0  0
  -22.6762  -20.4354   22.5241 O   0  0  0  0  0  0  0  0  0  0  0  0
  -30.3709  -28.0470   17.1534 O   0  0  0  0  0  0  0  0  0  0  0  0
  -29.6425  -18.2903   17.9776 O   0  0  0  0  0  0  0  0  0  0  0  0
  -18.6597  -26.7721   20.5999 O   0  0  0  0  0  0  0  0  0  0  0  0
  -27.7686  -16.9655   19.6296 O   0  0  0  0  0  0  0  0  0  1  0  0
  -16.8051  -24.4858   25.2623 F   0  0  0  0  0  0  0  0  0  0  0  0
  -18.2103  -28.3101   22.8528 F   0  0  0  0  0  0  0  0  0  0  0  0
  -29.8533  -23.3792   19.3177 S   0  0  0  0  0  0  0  0  0  0  0  0
  1  2  1  0  0  0  0
  1  5  2  0  0  0  0
  2  6  2  0  0  0  0
  3  8  2  0  0  0  0
  3 16  1  0  0  0  0
  4  9  1  0  0  0  0
  4 16  2  0  0  0  0
  5 18  1  0  0  0  0
  6 20  1  0  0  0  0
  7 10  2  0  0  0  0
  7 19  1  0  0  0  0
  8 23  1  0  0  0  0
  9 23  2  0  0  0  0
 10 24  1  0  0  0  0
 11 12  2  0  0  0  0
 11 25  1  0  0  0  0
 12 26  1  0  0  0  0
 13 21  1  0  0  0  0
 13 24  2  0  0  0  0
 14 22  1  0  0  0  0
 14 29  2  0  0  0  0
 15 26  2  0  0  0  0
 15 27  1  0  0  0  0
 16 28  1  0  0  0  0
 17 28  1  0  0  0  0
 17 30  2  0  0  0  0
 17 33  1  0  0  0  0
 18 20  2  0  0  0  0
 18 40  1  0  0  0  0
 19 21  2  0  0  0  0
 19 41  1  0  0  0  0
 20 51  1  0  0  0  0
 21 42  1  0  0  0  0
 22 31  2  0  0  0  0
 22 61  1  0  0  0  0
 23 84  1  0  0  0  0
 24 85  1  0  0  0  0
 25 27  2  0  0  0  0
 25 84  1  0  0  0  0
 26 86  1  0  0  0  0
 27 87  1  0  0  0  0
 28 66  2  0  0  0  0
 29 62  1  0  0  0  0
 29 88  1  0  0  0  0
 30 67  1  0  0  0  0
 30 70  1  0  0  0  0
 31 72  1  0  0  0  0
 31 88  1  0  0  0  0
 32 34  2  0  0  0  0
 32 85  1  0  0  0  0
 33 71  1  0  0  0  0
 33 77  2  0  0  0  0
 34 35  1  0  0  0  0
 34 83  1  0  0  0  0
 35 72  1  0  0  0  0
 35 78  2  0  0  0  0
 36 52  1  0  0  0  0
 36 73  1  0  0  0  0
 36 79  2  0  0  0  0
 37 63  1  0  0  0  0
 37 68  1  0  0  0  0
 37 80  2  0  0  0  0
 38 64  1  0  0  0  0
 38 74  1  0  0  0  0
 38 81  2  0  0  0  0
 39 69  1  0  0  0  0
 39 75  1  0  0  0  0
 39 82  2  0  0  0  0
 40 43  1  0  0  0  0
 41 52  1  0  0  0  0
 42 68  1  0  0  0  0
 43 45  1  0  0  0  0
 44 46  1  0  0  0  0
 44 49  1  0  0  0  0
 45 51  1  0  0  0  0
 46 53  1  0  0  0  0
 47 48  1  0  0  0  0
 47 54  1  0  0  0  0
 48 54  1  0  0  0  0
 49 69  1  0  0  0  0
 50 53  1  0  0  0  0
 50 69  1  0  0  0  0
 51 73  1  0  0  0  0
 52 68  1  0  0  0  0
 53 67  1  0  0  0  0
 54 55  1  0  0  0  0
 54 61  1  0  0  0  0
 56 64  1  0  0  0  0
 57 65  1  0  0  0  0
 58 65  1  0  0  0  0
 59 65  1  0  0  0  0
 60 76  1  0  0  0  0
 62 75  1  0  0  0  0
 63 65  1  0  0  0  0
 63 74  1  0  0  0  0
 64 76  1  0  0  0  0
 66 67  1  0  0  0  0
M  CHG  1  76   1
M  ISO  4  32 101  39 100  75 100  85 101
M  END
> <Batch ID>
0160

> <Smiles>
CNC(C)C(=O)NC(C(=O)N1Cc2cc([101O:1][101CH2:1]C(=O)C(=O)Nc3sc(C[100NH:0][100C:0](=O)N4CCCC(n5nc(-c6ccc(Oc7ccc(F)cc7F)cc6)c(C(N)=O)c5N)C4)cc3CC3(C)CC3)ccc2CC1C(=O)NC1CCCc2ccccc21)C(C)(C)C

> <Shape>
0.234

> <Color>
0.091

> <Negative vol penalty>
0.000

$$$$

  -OEChem-04052303503D

 81 89  0     1  0  0  0  0  0999 V2000
  -29.7592  -21.1659   15.4359 C   0  0  0  0  0  0  0  0  0  0  0  0
  -29.0766  -20.7813   16.5855 C   0  0  0  0  0  0  0  0  0  0  0  0
  -24.1872  -13.3983   19.2990 C   0  0  0  0  0  0  0  0  0  0  0  0
  -23.4514  -14.7081   21.1911 C   0  0  0  0  0  0  0  0  0  0  0  0
  -30.3308  -22.4352   15.3578 C   0  0  0  0  0  0  0  0  0  0  0  0
  -28.9662  -21.6654   17.6581 C   0  0  0  0  0  0  0  0  0  0  0  0
  -24.2181  -22.2378   21.4836 C   0  0  0  0  0  0  0  0  0  0  0  0
  -23.4070  -12.3281   19.7365 C   0  0  0  0  0  0  0  0  0  0  0  0
  -22.6712  -13.6379   21.6286 C   0  0  0  0  0  0  0  0  0  0  0  0
  -23.9792  -21.7388   22.7633 C   0  0  0  0  0  0  0  0  0  0  0  0
  -21.8881   -9.1261   20.5514 C   0  0  0  0  0  0  0  0  0  0  0  0
  -22.4627   -7.8552   20.5394 C   0  0  0  0  0  0  0  0  0  0  0  0
  -24.7601  -23.8148   23.7119 C   0  0  0  0  0  0  0  0  0  0  0  0
  -24.1800   -8.6172   22.0583 C   0  0  0  0  0  0  0  0  0  0  0  0
  -27.8925  -19.5835   25.7981 C   0  0  0  0  0  0  0  0  0  0  0  0
  -24.2094  -14.5884   20.0263 C   0  0  0  0  0  0  0  0  0  0  0  0
  -24.6264  -16.7311   18.7063 C   0  0  0  0  0  0  0  0  0  0  0  0
  -30.2191  -23.3388   16.4262 C   0  0  0  0  0  0  0  0  0  0  0  0
  -24.7409  -23.5271   21.3085 C   0  0  0  0  0  0  0  0  0  0  0  0
  -29.5380  -22.9475   17.5948 C   0  0  0  0  0  0  0  0  0  0  0  0
  -25.0023  -24.3287   22.4288 C   0  0  0  0  0  0  0  0  0  0  0  0
  -22.6490  -12.4478   20.9012 C   0  0  0  0  0  0  0  0  0  0  0  0
  -24.2529  -22.5263   23.8778 C   0  0  0  0  0  0  0  0  0  0  0  0
  -22.4595  -10.1427   21.3168 C   0  0  0  0  0  0  0  0  0  0  0  0
  -23.6086   -7.6007   21.2928 C   0  0  0  0  0  0  0  0  0  0  0  0
  -23.6054   -9.8882   22.0703 C   0  0  0  0  0  0  0  0  0  0  0  0
  -25.0156  -15.6941   19.5752 C   0  0  0  0  0  0  0  0  0  0  0  0
  -28.6250  -20.2999   24.8360 C   0  0  0  0  0  0  0  0  0  0  0  0
  -26.9022  -20.4543   26.1684 C   0  0  0  0  0  0  0  0  0  0  0  0
  -25.7435  -17.5224   18.5940 C   0  0  0  0  0  0  0  0  0  0  0  0
  -23.3677  -16.9588   18.0586 C   0  0  0  0  0  0  0  0  0  0  0  0
  -27.3997  -24.7156   20.0349 C   0  0  0  0  0  0  0  0  0  0  0  0
  -24.6265  -20.3733   26.7243 C   0  0  0  0  0  0  0  0  0  0  0  0
  -25.9369  -27.5552   20.6000 C   0  0  0  0  0  0  0  0  0  0  0  0
  -23.6347  -29.3213   22.3965 C   0  0  0  0  0  0  0  0  0  0  0  0
  -30.4663  -18.4386   22.1586 C   0  0  0  0  0  0  0  0  0  0  0  0
  -30.8942  -24.6828   16.3140 C   0  0  0  0  0  0  0  0  0  0  0  0
  -24.9679  -24.0605   19.9205 C   0  0  0  0  0  0  0  0  0  0  0  0
  -25.5452  -25.7271   22.2941 C   0  0  0  0  0  0  0  0  0  0  0  0
  -30.4103  -25.6958   17.3484 C   0  0  0  0  0  0  0  0  0  0  0  0
  -30.5193  -17.3068   18.7833 C   0  0  0  0  0  0  0  0  0  0  0  0
  -30.3615  -25.0613   18.7347 C   0  0  0  0  0  0  0  0  0  0  0  0
  -29.0797  -16.8587   18.5251 C   0  0  0  0  0  0  0  0  0  0  0  0
  -30.9613  -16.9908   20.2104 C   0  0  0  0  0  0  0  0  0  0  0  0
  -28.6299  -17.0618   21.0060 C   0  0  0  0  0  0  0  0  0  0  0  0
  -29.3756  -23.8873   18.7697 C   0  0  1  0  0  0  0  0  0  0  0  0
  -25.9851  -25.1966   19.8760 C   0  0  1  0  0  0  0  0  0  0  0  0
  -28.1201  -17.4097   19.5970 C   0  0  2  0  0  0  0  0  0  0  0  0
  -23.5633  -20.1555   27.7748 C   0  0  0  0  0  0  0  0  0  0  0  0
  -22.6914  -31.6320   22.6582 C   0  0  0  0  0  0  0  0  0  0  0  0
  -28.4510  -28.4086   22.1037 C   0  0  0  0  0  0  0  0  0  0  0  0
  -27.1251  -30.2723   23.1220 C   0  0  0  0  0  0  0  0  0  0  0  0
  -27.4520  -30.1820   20.6506 C   0  0  0  0  0  0  0  0  0  0  0  0
  -20.9139  -28.4195   21.6596 C   0  0  0  0  0  0  0  0  0  0  0  0
  -29.8122  -19.8530   24.0901 C   0  0  0  0  0  0  0  0  0  0  0  0
  -24.1432  -20.6315   25.3109 C   0  0  0  0  0  0  0  0  0  1  0  0
  -25.8953  -28.5249   21.7563 C   0  0  1  0  0  0  0  0  0  0  0  0
  -22.5451  -30.2863   21.9650 C   0  0  2  0  0  0  0  0  0  0  0  0
  -27.2224  -29.3199   21.9111 C   0  0  0  0  0  0  0  0  0  0  0  0
  -26.2811  -15.8130   19.9856 N   0  0  0  0  0  0  0  0  0  0  0  0
  -28.1271  -21.5217   24.6256 N   0  0  0  0  0  0  0  0  0  0  0  0
  -25.8672  -20.2874   27.1001 N   0  0  0  0  0  0  0  0  0  0  0  0
  -26.6968  -16.9340   19.3719 N   0  0  0  0  0  0  0  0  0  0  0  0
  -25.7563  -26.2013   20.9164 N   0  0  0  0  0  0  0  0  0  0  0  0
  -30.0098  -17.5424   21.1781 N   0  0  0  0  0  0  0  0  0  0  0  0
  -25.9934  -18.6570   17.9066 N   0  0  0  0  0  0  0  0  0  0  0  0
  -22.3264  -16.0481   18.2832 N   0  0  0  0  0  0  0  0  0  0  0  0
  -28.0143  -24.3726   18.8457 N   0  0  0  0  0  0  0  0  0  0  0  0
  -24.7188  -29.3614   21.5453 N   0  0  0  0  0  0  0  0  0  0  0  0
  -29.4982  -18.9190   23.0320 N   0  0  0  0  0  0  0  0  0  0  0  0
  -21.2017  -29.7315   22.2944 N   0  3  0  0  0  0  0  0  0  0  0  0
  -23.1773  -17.9318   17.2902 O   0  0  0  0  0  0  0  0  0  0  0  0
  -27.8973  -24.6612   21.1534 O   0  0  0  0  0  0  0  0  0  0  0  0
  -26.1158  -27.9840   19.4573 O   0  0  0  0  0  0  0  0  0  0  0  0
  -23.5357  -28.6065   23.3913 O   0  0  0  0  0  0  0  0  0  0  0  0
  -31.6480  -18.7893   22.2456 O   0  0  0  0  0  0  0  0  0  0  0  0
  -27.0315  -21.6146   25.4755 O   0  0  0  0  0  0  0  0  0  0  0  0
  -21.8874  -11.4037   21.3283 O   0  0  0  0  0  0  0  0  0  0  0  0
  -24.0212  -22.0415   25.1281 O   0  0  0  0  0  0  0  0  0  1  0  0
  -24.1594   -6.3798   21.2824 F   0  0  0  0  0  0  0  0  0  0  0  0
  -24.1582  -10.8605   22.8085 F   0  0  0  0  0  0  0  0  0  0  0  0
  1  2  1  0  0  0  0
  1  5  2  0  0  0  0
  2  6  2  0  0  0  0
  3  8  2  0  0  0  0
  3 16  1  0  0  0  0
  4  9  1  0  0  0  0
  4 16  2  0  0  0  0
  5 18  1  0  0  0  0
  6 20  1  0  0  0  0
  7 10  2  0  0  0  0
  7 19  1  0  0  0  0
  8 22  1  0  0  0  0
  9 22  2  0  0  0  0
 10 23  1  0  0  0  0
 11 12  2  0  0  0  0
 11 24  1  0  0  0  0
 12 25  1  0  0  0  0
 13 21  1  0  0  0  0
 13 23  2  0  0  0  0
 14 25  2  0  0  0  0
 14 26  1  0  0  0  0
 15 28  1  0  0  0  0
 15 29  2  0  0  0  0
 16 27  1  0  0  0  0
 17 27  1  0  0  0  0
 17 30  2  0  0  0  0
 17 31  1  0  0  0  0
 18 20  2  0  0  0  0
 18 37  1  0  0  0  0
 19 21  2  0  0  0  0
 19 38  1  0  0  0  0
 20 46  1  0  0  0  0
 21 39  1  0  0  0  0
 22 78  1  0  0  0  0
 23 79  1  0  0  0  0
 24 26  2  0  0  0  0
 24 78  1  0  0  0  0
 25 80  1  0  0  0  0
 26 81  1  0  0  0  0
 27 60  2  0  0  0  0
 28 55  1  0  0  0  0
 28 61  2  0  0  0  0
 29 62  1  0  0  0  0
 29 77  1  0  0  0  0
 30 63  1  0  0  0  0
 30 66  1  0  0  0  0
 31 67  1  0  0  0  0
 31 72  2  0  0  0  0
 32 47  1  0  0  0  0
 32 68  1  0  0  0  0
 32 73  2  0  0  0  0
 33 49  1  0  0  0  0
 33 56  1  0  0  0  0
 33 62  2  0  0  0  0
 34 57  1  0  0  0  0
 34 64  1  0  0  0  0
 34 74  2  0  0  0  0
 35 58  1  0  0  0  0
 35 69  1  0  0  0  0
 35 75  2  0  0  0  0
 36 65  1  0  0  0  0
 36 70  1  0  0  0  0
 36 76  2  0  0  0  0
 37 40  1  0  0  0  0
 38 47  1  0  0  0  0
 39 64  1  0  0  0  0
 40 42  1  0  0  0  0
 41 43  1  0  0  0  0
 41 44  1  0  0  0  0
 42 46  1  0  0  0  0
 43 48  1  0  0  0  0
 44 65  1  0  0  0  0
 45 48  1  0  0  0  0
 45 65  1  0  0  0  0
 46 68  1  0  0  0  0
 47 64  1  0  0  0  0
 48 63  1  0  0  0  0
 50 58  1  0  0  0  0
 51 59  1  0  0  0  0
 52 59  1  0  0  0  0
 53 59  1  0  0  0  0
 54 71  1  0  0  0  0
 55 70  1  0  0  0  0
 56 79  1  0  0  0  0
 57 59  1  0  0  0  0
 57 69  1  0  0  0  0
 58 71  1  0  0  0  0
 60 63  1  0  0  0  0
 61 77  1  0  0  0  0
M  CHG  1  71   1
M  ISO  4  36 100  56 101  70 100  79 101
M  END
> <Batch ID>
0160

> <Smiles>
CNC(C)C(=O)NC(C(=O)N1Cc2cc([101O:1][101CH:1]=C(C)Nc3cc(C[100NH:0][100C:0](=O)N4CCCC(n5nc(-c6ccc(Oc7ccc(F)cc7F)cc6)c(C(N)=O)c5N)C4)no3)ccc2CC1C(=O)NC1CCCc2ccccc21)C(C)(C)C

> <Shape>
0.205

> <Color>
0.054

> <Negative vol penalty>
0.000

$$$$

  -OEChem-04052303503D

 83 91  0     1  0  0  0  0  0999 V2000
  -18.7234  -29.9593   16.5242 C   0  0  0  0  0  0  0  0  0  0  0  0
  -19.7145  -29.1045   16.9959 C   0  0  0  0  0  0  0  0  0  0  0  0
  -23.2919   -9.6160   20.9502 C   0  0  0  0  0  0  0  0  0  0  0  0
  -23.9122  -10.3959   23.1511 C   0  0  0  0  0  0  0  0  0  0  0  0
  -18.8099  -31.3287   16.7715 C   0  0  0  0  0  0  0  0  0  0  0  0
  -20.7933  -29.6188   17.7142 C   0  0  0  0  0  0  0  0  0  0  0  0
  -21.8708  -26.8748   21.8318 C   0  0  0  0  0  0  0  0  0  0  0  0
  -22.6047   -8.5459   21.5231 C   0  0  0  0  0  0  0  0  0  0  0  0
  -23.2250   -9.3258   23.7240 C   0  0  0  0  0  0  0  0  0  0  0  0
  -22.5748  -25.6870   21.6391 C   0  0  0  0  0  0  0  0  0  0  0  0
  -19.6282   -8.0223   23.0394 C   0  0  0  0  0  0  0  0  0  0  0  0
  -18.3576   -7.7284   22.5447 C   0  0  0  0  0  0  0  0  0  0  0  0
  -31.3916  -19.5080   20.7610 C   0  0  0  0  0  0  0  0  0  0  0  0
  -31.4178  -18.1025   20.5286 C   0  0  0  0  0  0  0  0  0  0  0  0
  -24.6136  -26.7955   22.2974 C   0  0  0  0  0  0  0  0  0  0  0  0
  -19.1100   -5.5177   21.9253 C   0  0  0  0  0  0  0  0  0  0  0  0
  -23.9457  -10.5410   21.7642 C   0  0  0  0  0  0  0  0  0  0  0  0
  -24.1426  -12.9207   20.8664 C   0  0  0  0  0  0  0  0  0  0  0  0
  -19.8853  -31.8589   17.5015 C   0  0  0  0  0  0  0  0  0  0  0  0
  -22.5359  -28.0367   22.2490 C   0  0  0  0  0  0  0  0  0  0  0  0
  -20.8950  -30.9968   17.9703 C   0  0  0  0  0  0  0  0  0  0  0  0
  -23.9154  -27.9962   22.4972 C   0  0  0  0  0  0  0  0  0  0  0  0
  -22.5712   -8.4008   22.9100 C   0  0  0  0  0  0  0  0  0  0  0  0
  -23.9469  -25.6479   21.8690 C   0  0  0  0  0  0  0  0  0  0  0  0
  -20.6398   -7.0639   22.9771 C   0  0  0  0  0  0  0  0  0  0  0  0
  -18.0985   -6.4761   21.9877 C   0  0  0  0  0  0  0  0  0  0  0  0
  -20.3807   -5.8116   22.4200 C   0  0  0  0  0  0  0  0  0  0  0  0
  -24.6562  -11.6463   21.1730 C   0  0  0  0  0  0  0  0  0  0  0  0
  -30.1890  -19.9229   21.2893 C   0  0  0  0  0  0  0  0  0  0  0  0
  -25.2077  -13.5994   20.3266 C   0  0  0  0  0  0  0  0  0  0  0  0
  -30.2340  -17.4965   20.8884 C   0  0  0  0  0  0  0  0  0  0  0  0
  -22.8209  -13.4441   21.0529 C   0  0  0  0  0  0  0  0  0  0  0  0
  -29.8707  -21.3233   21.6330 C   0  0  0  0  0  0  0  0  0  0  0  0
  -23.0050  -30.9229   21.0027 C   0  0  0  0  0  0  0  0  0  0  0  0
  -26.6676  -23.1693   21.6599 C   0  0  0  0  0  0  0  0  0  0  0  0
  -24.3337  -31.5300   23.8989 C   0  0  0  0  0  0  0  0  0  0  0  0
  -25.8417  -30.3114   26.7074 C   0  0  0  0  0  0  0  0  0  0  0  0
  -30.5816  -15.0563   20.3683 C   0  0  0  0  0  0  0  0  0  0  0  0
  -19.9601  -33.3517   17.7031 C   0  0  0  0  0  0  0  0  0  0  0  0
  -21.7577  -29.3033   22.4781 C   0  0  0  0  0  0  0  0  0  0  0  0
  -24.6729  -29.2107   22.9656 C   0  0  0  0  0  0  0  0  0  0  0  0
  -20.9420  -33.7705   18.7943 C   0  0  0  0  0  0  0  0  0  0  0  0
  -29.7562  -11.9470   18.8425 C   0  0  0  0  0  0  0  0  0  0  0  0
  -22.2650  -33.0281   18.6356 C   0  0  0  0  0  0  0  0  0  0  0  0
  -28.3135  -11.6964   19.2875 C   0  0  0  0  0  0  0  0  0  0  0  0
  -30.5829  -12.6078   19.9441 C   0  0  0  0  0  0  0  0  0  0  0  0
  -28.5573  -13.5813   20.9533 C   0  0  0  0  0  0  0  0  0  0  0  0
  -22.0679  -31.5137   18.7747 C   0  0  1  0  0  0  0  0  0  0  0  0
  -22.6236  -30.5574   22.4093 C   0  0  1  0  0  0  0  0  0  0  0  0
  -27.6684  -12.9762   19.8546 C   0  0  2  0  0  0  0  0  0  0  0  0
  -26.8487  -31.0541   28.8827 C   0  0  0  0  0  0  0  0  0  0  0  0
  -26.8222  -32.4894   22.4167 C   0  0  0  0  0  0  0  0  0  0  0  0
  -28.0884  -32.3097   24.5690 C   0  0  0  0  0  0  0  0  0  0  0  0
  -26.1712  -33.8944   24.3805 C   0  0  0  0  0  0  0  0  0  0  0  0
  -23.8749  -28.7582   28.2816 C   0  0  0  0  0  0  0  0  0  0  0  0
  -28.1551  -23.0819   21.8803 C   0  0  0  0  0  0  0  0  0  0  0  0
  -26.0403  -24.5213   21.9354 C   0  0  0  0  0  0  0  0  0  1  0  0
  -25.7192  -31.4091   24.4861 C   0  0  1  0  0  0  0  0  0  0  0  0
  -25.5881  -30.5730   28.1811 C   0  0  2  0  0  0  0  0  0  0  0  0
  -26.6866  -32.5031   23.9524 C   0  0  0  0  0  0  0  0  0  0  0  0
  -25.9472  -11.5203   20.8543 N   0  0  0  0  0  0  0  0  0  0  0  0
  -26.2537  -12.7243   20.3417 N   0  0  0  0  0  0  0  0  0  0  0  0
  -23.8686  -30.4270   23.1691 N   0  0  0  0  0  0  0  0  0  0  0  0
  -29.9122  -13.8157   20.4297 N   0  0  0  0  0  0  0  0  0  0  0  0
  -25.3421  -14.8534   19.8451 N   0  0  0  0  0  0  0  0  0  0  0  0
  -21.8468  -12.6121   21.6215 N   0  0  0  0  0  0  0  0  0  0  0  0
  -29.8326  -16.1390   20.8280 N   0  0  0  0  0  0  0  0  0  0  0  0
  -28.5932  -21.7359   21.5514 N   0  0  0  0  0  0  0  0  0  0  0  0
  -21.9271  -31.1482   20.1680 N   0  0  0  0  0  0  0  0  0  0  0  0
  -25.5505  -31.4160   25.9352 N   0  0  0  0  0  0  0  0  0  0  0  0
  -30.8707  -22.1209   22.0086 N   0  3  0  0  0  0  0  0  0  0  0  0
  -25.1209  -29.3287   28.8552 N   0  3  0  0  0  0  0  0  0  0  0  0
  -22.5086  -14.6096   20.7100 O   0  0  0  0  0  0  0  0  0  0  0  0
  -24.1896  -30.9967   20.6976 O   0  0  0  0  0  0  0  0  0  0  0  0
  -25.9978  -22.2095   21.2810 O   0  0  0  0  0  0  0  0  0  0  0  0
  -23.6851  -32.5623   24.0872 O   0  0  0  0  0  0  0  0  0  0  0  0
  -26.2601  -29.2361   26.2841 O   0  0  0  0  0  0  0  0  0  0  0  0
  -31.7244  -15.1552   19.9142 O   0  0  0  0  0  0  0  0  0  0  0  0
  -21.9005   -7.3569   23.4694 O   0  0  0  0  0  0  0  0  0  0  0  0
  -24.6365  -24.4899   21.6811 O   0  0  0  0  0  0  0  0  0  1  0  0
  -16.8778   -6.1935   21.5140 F   0  0  0  0  0  0  0  0  0  0  0  0
  -21.3481   -4.8864   22.3584 F   0  0  0  0  0  0  0  0  0  0  0  0
  -29.0978  -18.6206   21.5032 S   0  0  0  0  0  0  0  0  0  0  0  0
  1  2  1  0  0  0  0
  1  5  2  0  0  0  0
  2  6  2  0  0  0  0
  3  8  2  0  0  0  0
  3 17  1  0  0  0  0
  4  9  1  0  0  0  0
  4 17  2  0  0  0  0
  5 19  1  0  0  0  0
  6 21  1  0  0  0  0
  7 10  2  0  0  0  0
  7 20  1  0  0  0  0
  8 23  1  0  0  0  0
  9 23  2  0  0  0  0
 10 24  1  0  0  0  0
 11 12  2  0  0  0  0
 11 25  1  0  0  0  0
 12 26  1  0  0  0  0
 13 14  1  0  0  0  0
 13 29  2  0  0  0  0
 14 31  2  0  0  0  0
 15 22  1  0  0  0  0
 15 24  2  0  0  0  0
 16 26  2  0  0  0  0
 16 27  1  0  0  0  0
 17 28  1  0  0  0  0
 18 28  1  0  0  0  0
 18 30  2  0  0  0  0
 18 32  1  0  0  0  0
 19 21  2  0  0  0  0
 19 39  1  0  0  0  0
 20 22  2  0  0  0  0
 20 40  1  0  0  0  0
 21 48  1  0  0  0  0
 22 41  1  0  0  0  0
 23 79  1  0  0  0  0
 24 80  1  0  0  0  0
 25 27  2  0  0  0  0
 25 79  1  0  0  0  0
 26 81  1  0  0  0  0
 27 82  1  0  0  0  0
 28 61  2  0  0  0  0
 29 33  1  0  0  0  0
 29 83  1  0  0  0  0
 30 62  1  0  0  0  0
 30 65  1  0  0  0  0
 31 67  1  0  0  0  0
 31 83  1  0  0  0  0
 32 66  1  0  0  0  0
 32 73  2  0  0  0  0
 33 68  1  0  0  0  0
 33 71  2  0  0  0  0
 34 49  1  0  0  0  0
 34 69  1  0  0  0  0
 34 74  2  0  0  0  0
 35 56  1  0  0  0  0
 35 57  1  0  0  0  0
 35 75  2  0  0  0  0
 36 58  1  0  0  0  0
 36 63  1  0  0  0  0
 36 76  2  0  0  0  0
 37 59  1  0  0  0  0
 37 70  1  0  0  0  0
 37 77  2  0  0  0  0
 38 64  1  0  0  0  0
 38 67  1  0  0  0  0
 38 78  2  0  0  0  0
 39 42  1  0  0  0  0
 40 49  1  0  0  0  0
 41 63  1  0  0  0  0
 42 44  1  0  0  0  0
 43 45  1  0  0  0  0
 43 46  1  0  0  0  0
 44 48  1  0  0  0  0
 45 50  1  0  0  0  0
 46 64  1  0  0  0  0
 47 50  1  0  0  0  0
 47 64  1  0  0  0  0
 48 69  1  0  0  0  0
 49 63  1  0  0  0  0
 50 62  1  0  0  0  0
 51 59  1  0  0  0  0
 52 60  1  0  0  0  0
 53 60  1  0  0  0  0
 54 60  1  0  0  0  0
 55 72  1  0  0  0  0
 56 68  1  0  0  0  0
 57 80  1  0  0  0  0
 58 60  1  0  0  0  0
 58 70  1  0  0  0  0
 59 72  1  0  0  0  0
 61 62  1  0  0  0  0
M  CHG  2  71   1  72   1
M  ISO  4  38 100  57 101  67 100  80 101
M  END
> <Batch ID>
0160

> <Smiles>
CNC(C)C(=O)NC(C(=O)N1Cc2cc([101O:1][101CH2:1]C(=O)CNC(=N)c3ccc([100NH:0][100C:0](=O)N4CCCC(n5nc(-c6ccc(Oc7ccc(F)cc7F)cc6)c(C(N)=O)c5N)C4)s3)ccc2CC1C(=O)NC1CCCc2ccccc21)C(C)(C)C

> <Shape>
0.283

> <Color>
0.152

> <Negative vol penalty>
0.000

$$$$

  -OEChem-04052303503D

 82 90  0     1  0  0  0  0  0999 V2000
  -16.8591  -21.2261   18.4966 C   0  0  0  0  0  0  0  0  0  0  0  0
  -18.2268  -21.4062   18.3167 C   0  0  0  0  0  0  0  0  0  0  0  0
  -23.0058  -10.0280   19.8768 C   0  0  0  0  0  0  0  0  0  0  0  0
  -23.8427   -9.8210   22.1338 C   0  0  0  0  0  0  0  0  0  0  0  0
  -15.9634  -22.1888   18.0329 C   0  0  0  0  0  0  0  0  0  0  0  0
  -18.6996  -22.5486   17.6719 C   0  0  0  0  0  0  0  0  0  0  0  0
  -22.6550  -24.6275   20.0548 C   0  0  0  0  0  0  0  0  0  0  0  0
  -22.2315   -8.8822   20.0588 C   0  0  0  0  0  0  0  0  0  0  0  0
  -23.0683   -8.6752   22.3158 C   0  0  0  0  0  0  0  0  0  0  0  0
  -23.8973  -24.0207   19.8751 C   0  0  0  0  0  0  0  0  0  0  0  0
  -19.8367   -7.9327   22.9688 C   0  0  0  0  0  0  0  0  0  0  0  0
  -19.1189   -7.8200   24.1594 C   0  0  0  0  0  0  0  0  0  0  0  0
  -24.4731  -25.6977   18.2394 C   0  0  0  0  0  0  0  0  0  0  0  0
  -20.3169   -5.7899   24.6894 C   0  0  0  0  0  0  0  0  0  0  0  0
  -29.7353  -18.6309   21.1658 C   0  0  0  0  0  0  0  0  0  0  0  0
  -23.8115  -10.4974   20.9143 C   0  0  0  0  0  0  0  0  0  0  0  0
  -24.2360  -13.0117   20.9884 C   0  0  0  0  0  0  0  0  0  0  0  0
  -16.4260  -23.3482   17.3907 C   0  0  0  0  0  0  0  0  0  0  0  0
  -22.3076  -25.7695   19.3189 C   0  0  0  0  0  0  0  0  0  0  0  0
  -17.8092  -23.5271   17.1980 C   0  0  0  0  0  0  0  0  0  0  0  0
  -23.2267  -26.3185   18.4134 C   0  0  0  0  0  0  0  0  0  0  0  0
  -22.2627   -8.2058   21.2783 C   0  0  0  0  0  0  0  0  0  0  0  0
  -24.8055  -24.5541   18.9652 C   0  0  0  0  0  0  0  0  0  0  0  0
  -20.7946   -6.9741   22.6384 C   0  0  0  0  0  0  0  0  0  0  0  0
  -19.3590   -6.7486   25.0197 C   0  0  0  0  0  0  0  0  0  0  0  0
  -21.0347   -5.9027   23.4987 C   0  0  0  0  0  0  0  0  0  0  0  0
  -24.6121  -11.6806   20.7267 C   0  0  0  0  0  0  0  0  0  0  0  0
  -30.8610  -17.7943   21.2586 C   0  0  0  0  0  0  0  0  0  0  0  0
  -25.3405  -13.7538   20.6478 C   0  0  0  0  0  0  0  0  0  0  0  0
  -30.0945  -19.5566   20.2223 C   0  0  0  0  0  0  0  0  0  0  0  0
  -22.9990  -13.5310   21.4941 C   0  0  0  0  0  0  0  0  0  0  0  0
  -20.0431  -26.4703   17.2012 C   0  0  0  0  0  0  0  0  0  0  0  0
  -27.6866  -22.2742   19.2740 C   0  0  0  0  0  0  0  0  0  0  0  0
  -21.2661  -29.4630   17.4665 C   0  0  0  0  0  0  0  0  0  0  0  0
  -23.9315  -31.4444   18.2518 C   0  0  0  0  0  0  0  0  0  0  0  0
  -30.8593  -14.5799   20.7181 C   0  0  0  0  0  0  0  0  0  0  0  0
  -15.4172  -24.3382   16.8646 C   0  0  0  0  0  0  0  0  0  0  0  0
  -20.9739  -26.4277   19.5438 C   0  0  0  0  0  0  0  0  0  0  0  0
  -22.9101  -27.5549   17.6136 C   0  0  0  0  0  0  0  0  0  0  0  0
  -16.0194  -25.6992   16.5249 C   0  0  0  0  0  0  0  0  0  0  0  0
  -29.5600  -12.4383   18.1879 C   0  0  0  0  0  0  0  0  0  0  0  0
  -17.3041  -25.5287   15.7202 C   0  0  0  0  0  0  0  0  0  0  0  0
  -28.1288  -12.1554   18.6476 C   0  0  0  0  0  0  0  0  0  0  0  0
  -30.5243  -12.5299   19.3684 C   0  0  0  0  0  0  0  0  0  0  0  0
  -28.6970  -13.2034   20.8787 C   0  0  0  0  0  0  0  0  0  0  0  0
  -18.3621  -24.7648   16.5255 C   0  0  1  0  0  0  0  0  0  0  0  0
  -20.5258  -27.2876   18.3660 C   0  0  1  0  0  0  0  0  0  0  0  0
  -27.6781  -13.1578   19.7271 C   0  0  2  0  0  0  0  0  0  0  0  0
  -24.6412  -33.8500   18.3339 C   0  0  0  0  0  0  0  0  0  0  0  0
  -21.5571  -29.4783   14.4292 C   0  0  0  0  0  0  0  0  0  0  0  0
  -23.1015  -31.4356   14.6567 C   0  0  0  0  0  0  0  0  0  0  0  0
  -20.7306  -31.6258   15.4088 C   0  0  0  0  0  0  0  0  0  0  0  0
  -24.4195  -31.3215   21.1683 C   0  0  0  0  0  0  0  0  0  0  0  0
  -31.0412  -16.6175   22.1232 C   0  0  0  0  0  0  0  0  0  0  0  0
  -28.0985  -21.0446   20.0553 C   0  0  0  0  0  0  0  0  0  0  0  0
  -26.2947  -22.8001   19.5663 C   0  0  0  0  0  0  0  0  0  1  0  0
  -22.3535  -30.2397   16.7642 C   0  0  1  0  0  0  0  0  0  0  0  0
  -24.0417  -32.6897   19.1130 C   0  0  2  0  0  0  0  0  0  0  0  0
  -21.9412  -30.6704   15.3282 C   0  0  0  0  0  0  0  0  0  0  0  0
  -25.8580  -11.5798   20.2560 N   0  0  0  0  0  0  0  0  0  0  0  0
  -31.8432  -18.1723   20.4357 N   0  0  0  0  0  0  0  0  0  0  0  0
  -26.2744  -12.8570   20.2192 N   0  0  0  0  0  0  0  0  0  0  0  0
  -21.5909  -28.1584   17.8644 N   0  0  0  0  0  0  0  0  0  0  0  0
  -30.0399  -13.4984   20.3549 N   0  0  0  0  0  0  0  0  0  0  0  0
  -25.5941  -15.0794   20.6761 N   0  0  0  0  0  0  0  0  0  0  0  0
  -21.9683  -12.6295   21.7928 N   0  0  0  0  0  0  0  0  0  0  0  0
  -29.4315  -20.6481   19.6796 N   0  0  0  0  0  0  0  0  0  0  0  0
  -18.9823  -25.6366   17.5000 N   0  0  0  0  0  0  0  0  0  0  0  0
  -22.6965  -31.3503   17.6458 N   0  0  0  0  0  0  0  0  0  0  0  0
  -30.3214  -15.4543   21.6545 N   0  0  0  0  0  0  0  0  0  0  0  0
  -24.9042  -32.4245   20.2991 N   0  3  0  0  0  0  0  0  0  0  0  0
  -22.8074  -14.7595   21.6603 O   0  0  0  0  0  0  0  0  0  0  0  0
  -20.5913  -26.5885   16.1116 O   0  0  0  0  0  0  0  0  0  0  0  0
  -28.4239  -22.8189   18.4534 O   0  0  0  0  0  0  0  0  0  0  0  0
  -20.1713  -29.9968   17.6615 O   0  0  0  0  0  0  0  0  0  0  0  0
  -24.8504  -30.6380   18.1261 O   0  0  0  0  0  0  0  0  0  0  0  0
  -31.9847  -14.7563   20.2391 O   0  0  0  0  0  0  0  0  0  0  0  0
  -31.3504  -19.2935   19.7790 O   0  0  0  0  0  0  0  0  0  0  0  0
  -21.5070   -7.0879   21.4564 O   0  0  0  0  0  0  0  0  0  0  0  0
  -26.0185  -23.9635   18.7875 O   0  0  0  0  0  0  0  0  0  1  0  0
  -18.6707   -6.6412   26.1638 F   0  0  0  0  0  0  0  0  0  0  0  0
  -21.9545   -4.9792   23.1873 F   0  0  0  0  0  0  0  0  0  0  0  0
  1  2  1  0  0  0  0
  1  5  2  0  0  0  0
  2  6  2  0  0  0  0
  3  8  2  0  0  0  0
  3 16  1  0  0  0  0
  4  9  1  0  0  0  0
  4 16  2  0  0  0  0
  5 18  1  0  0  0  0
  6 20  1  0  0  0  0
  7 10  2  0  0  0  0
  7 19  1  0  0  0  0
  8 22  1  0  0  0  0
  9 22  2  0  0  0  0
 10 23  1  0  0  0  0
 11 12  2  0  0  0  0
 11 24  1  0  0  0  0
 12 25  1  0  0  0  0
 13 21  1  0  0  0  0
 13 23  2  0  0  0  0
 14 25  2  0  0  0  0
 14 26  1  0  0  0  0
 15 28  1  0  0  0  0
 15 30  2  0  0  0  0
 16 27  1  0  0  0  0
 17 27  1  0  0  0  0
 17 29  2  0  0  0  0
 17 31  1  0  0  0  0
 18 20  2  0  0  0  0
 18 37  1  0  0  0  0
 19 21  2  0  0  0  0
 19 38  1  0  0  0  0
 20 46  1  0  0  0  0
 21 39  1  0  0  0  0
 22 79  1  0  0  0  0
 23 80  1  0  0  0  0
 24 26  2  0  0  0  0
 24 79  1  0  0  0  0
 25 81  1  0  0  0  0
 26 82  1  0  0  0  0
 27 60  2  0  0  0  0
 28 54  1  0  0  0  0
 28 61  2  0  0  0  0
 29 62  1  0  0  0  0
 29 65  1  0  0  0  0
 30 67  1  0  0  0  0
 30 78  1  0  0  0  0
 31 66  1  0  0  0  0
 31 72  2  0  0  0  0
 32 47  1  0  0  0  0
 32 68  1  0  0  0  0
 32 73  2  0  0  0  0
 33 55  1  0  0  0  0
 33 56  1  0  0  0  0
 33 74  2  0  0  0  0
 34 57  1  0  0  0  0
 34 63  1  0  0  0  0
 34 75  2  0  0  0  0
 35 58  1  0  0  0  0
 35 69  1  0  0  0  0
 35 76  2  0  0  0  0
 36 64  1  0  0  0  0
 36 70  1  0  0  0  0
 36 77  2  0  0  0  0
 37 40  1  0  0  0  0
 38 47  1  0  0  0  0
 39 63  1  0  0  0  0
 40 42  1  0  0  0  0
 41 43  1  0  0  0  0
 41 44  1  0  0  0  0
 42 46  1  0  0  0  0
 43 48  1  0  0  0  0
 44 64  1  0  0  0  0
 45 48  1  0  0  0  0
 45 64  1  0  0  0  0
 46 68  1  0  0  0  0
 47 63  1  0  0  0  0
 48 62  1  0  0  0  0
 49 58  1  0  0  0  0
 50 59  1  0  0  0  0
 51 59  1  0  0  0  0
 52 59  1  0  0  0  0
 53 71  1  0  0  0  0
 54 70  1  0  0  0  0
 55 67  1  0  0  0  0
 56 80  1  0  0  0  0
 57 59  1  0  0  0  0
 57 69  1  0  0  0  0
 58 71  1  0  0  0  0
 60 62  1  0  0  0  0
 61 78  1  0  0  0  0
M  CHG  1  71   1
M  ISO  4  36 100  56 101  70 100  80 101
M  END
> <Batch ID>
0160

> <Smiles>
CNC(C)C(=O)NC(C(=O)N1Cc2cc([101O:1][101CH2:1]C(=O)CNc3cc(C[100NH:0][100C:0](=O)N4CCCC(n5nc(-c6ccc(Oc7ccc(F)cc7F)cc6)c(C(N)=O)c5N)C4)no3)ccc2CC1C(=O)NC1CCCc2ccccc21)C(C)(C)C

> <Shape>
0.219

> <Color>
0.196

> <Negative vol penalty>
0.000

$$$$

  -OEChem-04052303503D

 86 95  0     1  0  0  0  0  0999 V2000
  -36.4771  -29.8207   23.9381 C   0  0  0  0  0  0  0  0  0  0  0  0
  -35.3061  -29.1315   23.6395 C   0  0  0  0  0  0  0  0  0  0  0  0
  -24.1673   -9.4521   21.3735 C   0  0  0  0  0  0  0  0  0  0  0  0
  -24.8038  -10.4974   23.4565 C   0  0  0  0  0  0  0  0  0  0  0  0
  -36.4498  -30.8786   24.8458 C   0  0  0  0  0  0  0  0  0  0  0  0
  -34.1073  -29.4992   24.2494 C   0  0  0  0  0  0  0  0  0  0  0  0
  -30.2467  -29.7049   20.9785 C   0  0  0  0  0  0  0  0  0  0  0  0
  -23.7984   -8.2983   22.0651 C   0  0  0  0  0  0  0  0  0  0  0  0
  -24.4349   -9.3436   24.1482 C   0  0  0  0  0  0  0  0  0  0  0  0
  -29.6719  -28.4940   20.5950 C   0  0  0  0  0  0  0  0  0  0  0  0
  -21.1777   -7.2359   23.9187 C   0  0  0  0  0  0  0  0  0  0  0  0
  -19.9650   -6.6363   23.5791 C   0  0  0  0  0  0  0  0  0  0  0  0
  -27.8771  -28.8554   22.1657 C   0  0  0  0  0  0  0  0  0  0  0  0
  -21.1350   -4.6089   22.9809 C   0  0  0  0  0  0  0  0  0  0  0  0
  -24.6700  -10.5516   22.0692 C   0  0  0  0  0  0  0  0  0  0  0  0
  -24.2360  -12.8494   21.0497 C   0  0  0  0  0  0  0  0  0  0  0  0
  -28.2731  -19.6391   20.6439 C   0  0  0  0  0  0  0  0  0  0  0  0
  -35.2483  -31.2657   25.4598 C   0  0  0  0  0  0  0  0  0  0  0  0
  -29.6458  -30.4963   21.9679 C   0  0  0  0  0  0  0  0  0  0  0  0
  -34.0641  -30.5624   25.1672 C   0  0  0  0  0  0  0  0  0  0  0  0
  -28.4449  -30.0772   22.5581 C   0  0  0  0  0  0  0  0  0  0  0  0
  -23.9322   -8.2441   23.4525 C   0  0  0  0  0  0  0  0  0  0  0  0
  -28.4885  -28.0677   21.1906 C   0  0  0  0  0  0  0  0  0  0  0  0
  -22.3691   -6.5221   23.7894 C   0  0  0  0  0  0  0  0  0  0  0  0
  -19.9436   -5.3228   23.1102 C   0  0  0  0  0  0  0  0  0  0  0  0
  -22.3477   -5.2086   23.3205 C   0  0  0  0  0  0  0  0  0  0  0  0
  -25.0517  -11.7435   21.3552 C   0  0  0  0  0  0  0  0  0  0  0  0
  -28.9457  -20.8217   20.2908 C   0  0  0  0  0  0  0  0  0  0  0  0
  -25.0629  -13.7079   20.3672 C   0  0  0  0  0  0  0  0  0  0  0  0
  -29.1070  -18.6460   20.2030 C   0  0  0  0  0  0  0  0  0  0  0  0
  -27.0160  -19.4524   21.3060 C   0  0  0  0  0  0  0  0  0  0  0  0
  -22.8544  -13.0802   21.3556 C   0  0  0  0  0  0  0  0  0  0  0  0
  -30.5137  -31.5335   24.8444 C   0  0  0  0  0  0  0  0  0  0  0  0
  -28.2326  -24.4867   20.6671 C   0  0  0  0  0  0  0  0  0  0  0  0
  -27.7353  -33.1969   24.6539 C   0  0  0  0  0  0  0  0  0  0  0  0
  -24.6162  -33.4816   23.2987 C   0  0  0  0  0  0  0  0  0  0  0  0
  -29.9462  -16.3128   19.7578 C   0  0  0  0  0  0  0  0  0  0  0  0
  -35.2770  -32.3850   26.4702 C   0  0  0  0  0  0  0  0  0  0  0  0
  -30.2642  -31.8127   22.3513 C   0  0  0  0  0  0  0  0  0  0  0  0
  -27.7492  -30.8998   23.6106 C   0  0  0  0  0  0  0  0  0  0  0  0
  -33.8965  -32.9530   26.7895 C   0  0  0  0  0  0  0  0  0  0  0  0
  -29.7029  -13.0017   18.4716 C   0  0  0  0  0  0  0  0  0  0  0  0
  -32.8994  -31.8253   27.0365 C   0  0  0  0  0  0  0  0  0  0  0  0
  -27.8148  -17.9623   23.2360 C   0  0  0  0  0  0  0  0  0  0  0  0
  -26.4199  -18.3998   23.5676 C   0  0  0  0  0  0  0  0  0  0  0  0
  -28.4040  -12.4701   19.0820 C   0  0  0  0  0  0  0  0  0  0  0  0
  -30.4607  -13.9018   19.4459 C   0  0  0  0  0  0  0  0  0  0  0  0
  -28.3741  -14.4712   20.6253 C   0  0  0  0  0  0  0  0  0  0  0  0
  -32.7395  -30.9474   25.7895 C   0  0  1  0  0  0  0  0  0  0  0  0
  -26.8316  -18.2155   22.1542 C   0  0  0  0  0  0  0  0  0  0  0  0
  -29.8395  -32.2916   23.7361 C   0  0  1  0  0  0  0  0  0  0  0  0
  -27.5436  -13.6118   19.6582 C   0  0  2  0  0  0  0  0  0  0  0  0
  -22.5640  -34.9244   23.3645 C   0  0  0  0  0  0  0  0  0  0  0  0
  -26.9630  -31.9715   27.3394 C   0  0  0  0  0  0  0  0  0  0  0  0
  -24.5983  -32.6644   26.8966 C   0  0  0  0  0  0  0  0  0  0  0  0
  -26.3865  -34.3926   27.0930 C   0  0  0  0  0  0  0  0  0  0  0  0
  -24.8524  -34.1499   20.4252 C   0  0  0  0  0  0  0  0  0  0  0  0
  -29.0791  -23.3124   20.2238 C   0  0  0  0  0  0  0  0  0  0  0  0
  -28.8089  -25.8579   20.3721 C   0  0  0  0  0  0  0  0  0  1  0  0
  -26.2996  -32.9272   25.0345 C   0  0  1  0  0  0  0  0  0  0  0  0
  -23.8931  -34.6613   22.6740 C   0  0  2  0  0  0  0  0  0  0  0  0
  -26.0757  -32.9723   26.5725 C   0  0  0  0  0  0  0  0  0  0  0  0
  -26.3009  -11.8838   20.9037 N   0  0  0  0  0  0  0  0  0  0  0  0
  -30.1080  -20.5805   19.6778 N   0  0  0  0  0  0  0  0  0  0  0  0
  -26.2763  -13.0880   20.3074 N   0  0  0  0  0  0  0  0  0  0  0  0
  -28.3964  -32.1762   23.9561 N   0  0  0  0  0  0  0  0  0  0  0  0
  -29.5839  -14.9624   19.9472 N   0  0  0  0  0  0  0  0  0  0  0  0
  -24.8631  -14.9249   19.8183 N   0  0  0  0  0  0  0  0  0  0  0  0
  -22.1532  -12.0946   22.0636 N   0  0  0  0  0  0  0  0  0  0  0  0
  -28.4232  -22.0769   20.5680 N   0  0  0  0  0  0  0  0  0  0  0  0
  -29.0194  -17.2325   20.2475 N   0  0  0  0  0  0  0  0  0  0  0  0
  -31.8935  -31.6027   24.8151 N   0  0  0  0  0  0  0  0  0  0  0  0
  -25.4920  -33.8835   24.2849 N   0  0  0  0  0  0  0  0  0  0  0  0
  -23.6296  -34.4019   21.2304 N   0  3  0  0  0  0  0  0  0  0  0  0
  -26.0399  -20.2232   21.2454 O   0  0  0  0  0  0  0  0  0  0  0  0
  -22.2549  -14.1220   20.9970 O   0  0  0  0  0  0  0  0  0  0  0  0
  -29.8324  -30.9318   25.6663 O   0  0  0  0  0  0  0  0  0  0  0  0
  -27.1475  -24.3495   21.2306 O   0  0  0  0  0  0  0  0  0  0  0  0
  -28.2491  -34.2763   24.9580 O   0  0  0  0  0  0  0  0  0  0  0  0
  -24.4206  -32.3196   22.9494 O   0  0  0  0  0  0  0  0  0  0  0  0
  -30.9878  -16.6301   19.1779 O   0  0  0  0  0  0  0  0  0  0  0  0
  -30.2056  -19.1953   19.6246 O   0  0  0  0  0  0  0  0  0  0  0  0
  -23.5722   -7.1185   24.1278 O   0  0  0  0  0  0  0  0  0  0  0  0
  -27.9256  -26.8858   20.8186 O   0  0  0  0  0  0  0  0  0  1  0  0
  -18.7789   -4.7465   22.7855 F   0  0  0  0  0  0  0  0  0  0  0  0
  -23.4890   -4.5173   23.1953 F   0  0  0  0  0  0  0  0  0  0  0  0
  1  2  1  0  0  0  0
  1  5  2  0  0  0  0
  2  6  2  0  0  0  0
  3  8  2  0  0  0  0
  3 15  1  0  0  0  0
  4  9  1  0  0  0  0
  4 15  2  0  0  0  0
  5 18  1  0  0  0  0
  6 20  1  0  0  0  0
  7 10  2  0  0  0  0
  7 19  1  0  0  0  0
  8 22  1  0  0  0  0
  9 22  2  0  0  0  0
 10 23  1  0  0  0  0
 11 12  2  0  0  0  0
 11 24  1  0  0  0  0
 12 25  1  0  0  0  0
 13 21  1  0  0  0  0
 13 23  2  0  0  0  0
 14 25  2  0  0  0  0
 14 26  1  0  0  0  0
 15 27  1  0  0  0  0
 16 27  1  0  0  0  0
 16 29  2  0  0  0  0
 16 32  1  0  0  0  0
 17 28  1  0  0  0  0
 17 30  2  0  0  0  0
 17 31  1  0  0  0  0
 18 20  2  0  0  0  0
 18 38  1  0  0  0  0
 19 21  2  0  0  0  0
 19 39  1  0  0  0  0
 20 49  1  0  0  0  0
 21 40  1  0  0  0  0
 22 83  1  0  0  0  0
 23 84  1  0  0  0  0
 24 26  2  0  0  0  0
 24 83  1  0  0  0  0
 25 85  1  0  0  0  0
 26 86  1  0  0  0  0
 27 63  2  0  0  0  0
 28 64  2  0  0  0  0
 28 70  1  0  0  0  0
 29 65  1  0  0  0  0
 29 68  1  0  0  0  0
 30 71  1  0  0  0  0
 30 82  1  0  0  0  0
 31 50  1  0  0  0  0
 31 75  2  0  0  0  0
 32 69  1  0  0  0  0
 32 76  2  0  0  0  0
 33 51  1  0  0  0  0
 33 72  1  0  0  0  0
 33 77  2  0  0  0  0
 34 58  1  0  0  0  0
 34 59  1  0  0  0  0
 34 78  2  0  0  0  0
 35 60  1  0  0  0  0
 35 66  1  0  0  0  0
 35 79  2  0  0  0  0
 36 61  1  0  0  0  0
 36 73  1  0  0  0  0
 36 80  2  0  0  0  0
 37 67  1  0  0  0  0
 37 71  1  0  0  0  0
 37 81  2  0  0  0  0
 38 41  1  0  0  0  0
 39 51  1  0  0  0  0
 40 66  1  0  0  0  0
 41 43  1  0  0  0  0
 42 46  1  0  0  0  0
 42 47  1  0  0  0  0
 43 49  1  0  0  0  0
 44 45  1  0  0  0  0
 44 50  1  0  0  0  0
 45 50  1  0  0  0  0
 46 52  1  0  0  0  0
 47 67  1  0  0  0  0
 48 52  1  0  0  0  0
 48 67  1  0  0  0  0
 49 72  1  0  0  0  0
 51 66  1  0  0  0  0
 52 65  1  0  0  0  0
 53 61  1  0  0  0  0
 54 62  1  0  0  0  0
 55 62  1  0  0  0  0
 56 62  1  0  0  0  0
 57 74  1  0  0  0  0
 58 70  1  0  0  0  0
 59 84  1  0  0  0  0
 60 62  1  0  0  0  0
 60 73  1  0  0  0  0
 61 74  1  0  0  0  0
 63 65  1  0  0  0  0
 64 82  1  0  0  0  0
M  CHG  1  74   1
M  ISO  4  37 100  59 101  71 100  84 101
M  END
> <Batch ID>
0160

> <Smiles>
CNC(C)C(=O)NC(C(=O)N1Cc2cc([101O:1][101CH2:1]C(=O)CNc3noc([100NH:0][100C:0](=O)N4CCCC(n5nc(-c6ccc(Oc7ccc(F)cc7F)cc6)c(C(N)=O)c5N)C4)c3C(=O)C3CC3)ccc2CC1C(=O)NC1CCCc2ccccc21)C(C)(C)C

> <Shape>
0.271

> <Color>
0.140

> <Negative vol penalty>
0.000

$$$$

  -OEChem-04052303503D

 87 96  0     1  0  0  0  0  0999 V2000
  -16.7432  -27.1292   21.8212 C   0  0  0  0  0  0  0  0  0  0  0  0
  -17.8486  -26.3838   22.2185 C   0  0  0  0  0  0  0  0  0  0  0  0
  -22.7374  -10.3302   20.4427 C   0  0  0  0  0  0  0  0  0  0  0  0
  -24.5459   -9.1167   21.4885 C   0  0  0  0  0  0  0  0  0  0  0  0
  -16.9234  -28.3682   21.2077 C   0  0  0  0  0  0  0  0  0  0  0  0
  -19.1349  -26.8765   22.0016 C   0  0  0  0  0  0  0  0  0  0  0  0
  -24.0297  -26.1008   25.5996 C   0  0  0  0  0  0  0  0  0  0  0  0
  -21.8365   -9.7660   21.3458 C   0  0  0  0  0  0  0  0  0  0  0  0
  -23.6450   -8.5524   22.3917 C   0  0  0  0  0  0  0  0  0  0  0  0
  -25.1044  -25.2145   25.5430 C   0  0  0  0  0  0  0  0  0  0  0  0
  -21.3647   -6.0562   22.4053 C   0  0  0  0  0  0  0  0  0  0  0  0
  -21.4677   -4.6876   22.6538 C   0  0  0  0  0  0  0  0  0  0  0  0
  -26.4226  -26.8939   24.4201 C   0  0  0  0  0  0  0  0  0  0  0  0
  -28.5442  -18.8353   19.9293 C   0  0  0  0  0  0  0  0  0  0  0  0
  -21.8707   -5.1426   24.9921 C   0  0  0  0  0  0  0  0  0  0  0  0
  -26.3560  -18.3424   19.7324 C   0  0  0  0  0  0  0  0  0  0  0  0
  -24.0921  -10.0055   20.5140 C   0  0  0  0  0  0  0  0  0  0  0  0
  -25.0066  -10.4700   18.1783 C   0  0  0  0  0  0  0  0  0  0  0  0
  -18.2123  -28.8807   20.9919 C   0  0  0  0  0  0  0  0  0  0  0  0
  -24.1399  -27.3888   25.0562 C   0  0  0  0  0  0  0  0  0  0  0  0
  -19.3325  -28.1229   21.3834 C   0  0  0  0  0  0  0  0  0  0  0  0
  -25.3486  -27.7956   24.4734 C   0  0  0  0  0  0  0  0  0  0  0  0
  -27.6023  -17.7777   19.8906 C   0  0  0  0  0  0  0  0  0  0  0  0
  -22.2903   -8.8771   22.3203 C   0  0  0  0  0  0  0  0  0  0  0  0
  -26.3001  -25.6100   24.9506 C   0  0  0  0  0  0  0  0  0  0  0  0
  -21.5148   -6.9681   23.4501 C   0  0  0  0  0  0  0  0  0  0  0  0
  -21.7206   -4.2307   23.9472 C   0  0  0  0  0  0  0  0  0  0  0  0
  -21.7677   -6.5112   24.7436 C   0  0  0  0  0  0  0  0  0  0  0  0
  -25.0231  -10.5876   19.5810 C   0  0  0  0  0  0  0  0  0  0  0  0
  -27.8447  -20.0142   19.7938 C   0  0  0  0  0  0  0  0  0  0  0  0
  -26.0924  -11.1996   17.7597 C   0  0  0  0  0  0  0  0  0  0  0  0
  -24.0915   -9.7643   17.3295 C   0  0  0  0  0  0  0  0  0  0  0  0
  -28.4191  -21.3713   19.7795 C   0  0  0  0  0  0  0  0  0  0  0  0
  -22.6665  -28.9754   22.7291 C   0  0  0  0  0  0  0  0  0  0  0  0
  -24.4492  -31.4554   23.8215 C   0  0  0  0  0  0  0  0  0  0  0  0
  -27.2362  -32.5083   25.4861 C   0  0  0  0  0  0  0  0  0  0  0  0
  -29.1050  -15.7726   20.1507 C   0  0  0  0  0  0  0  0  0  0  0  0
  -18.3581  -30.2035   20.2822 C   0  0  0  0  0  0  0  0  0  0  0  0
  -22.9802  -28.3421   25.1491 C   0  0  0  0  0  0  0  0  0  0  0  0
  -25.5250  -29.1744   23.8935 C   0  0  0  0  0  0  0  0  0  0  0  0
  -19.7457  -30.8230   20.4275 C   0  0  0  0  0  0  0  0  0  0  0  0
  -30.4365  -12.6103   19.1996 C   0  0  0  0  0  0  0  0  0  0  0  0
  -20.8266  -29.7780   20.1693 C   0  0  0  0  0  0  0  0  0  0  0  0
  -29.1974  -11.7236   19.0559 C   0  0  0  0  0  0  0  0  0  0  0  0
  -29.8256  -23.6332   22.2617 C   0  0  0  0  0  0  0  0  0  0  0  0
  -27.7098  -22.5117   23.1631 C   0  0  0  0  0  0  0  0  0  0  0  0
  -30.2946  -13.6003   20.3543 C   0  0  0  0  0  0  0  0  0  0  0  0
  -29.1290  -23.3954   20.9278 C   0  0  0  0  0  0  0  0  0  0  0  0
  -28.1339  -21.4142   22.1952 C   0  0  0  0  0  0  0  0  0  0  0  0
  -27.8381  -13.5343   20.1788 C   0  0  0  0  0  0  0  0  0  0  0  0
  -20.7431  -28.6347   21.1878 C   0  0  1  0  0  0  0  0  0  0  0  0
  -23.0350  -29.4532   24.1051 C   0  0  1  0  0  0  0  0  0  0  0  0
  -27.9075  -12.5645   18.9878 C   0  0  2  0  0  0  0  0  0  0  0  0
  -28.8569  -23.5092   23.4653 C   0  0  0  0  0  0  0  0  0  0  0  0
  -29.6528  -23.0363   24.6964 C   0  0  0  0  0  0  0  0  0  0  0  0
  -28.4423  -34.5947   26.1858 C   0  0  0  0  0  0  0  0  0  0  0  0
  -25.4467  -31.8345   20.9629 C   0  0  0  0  0  0  0  0  0  0  0  0
  -27.3025  -33.2480   21.8720 C   0  0  0  0  0  0  0  0  0  0  0  0
  -24.9310  -33.9586   22.1781 C   0  0  0  0  0  0  0  0  0  0  0  0
  -25.4381  -20.6532   19.5148 C   0  0  0  0  0  0  0  0  0  0  0  0
  -26.9776  -31.8343   28.3563 C   0  0  0  0  0  0  0  0  0  0  0  0
  -28.2457  -24.8850   23.7909 C   0  0  0  0  0  0  0  0  0  1  0  0
  -25.8212  -32.0039   23.5119 C   0  0  1  0  0  0  0  0  0  0  0  0
  -27.4240  -33.5382   26.5854 C   0  0  2  0  0  0  0  0  0  0  0  0
  -25.8717  -32.7345   22.1403 C   0  0  0  0  0  0  0  0  0  0  0  0
  -26.0390  -11.3332   20.0240 N   0  0  0  0  0  0  0  0  0  0  0  0
  -26.5155  -19.7024   19.6751 N   0  0  0  0  0  0  0  0  0  0  0  0
  -26.6709  -11.6905   18.8931 N   0  0  0  0  0  0  0  0  0  0  0  0
  -28.5552  -22.0334   20.9210 N   0  0  0  0  0  0  0  0  0  0  0  0
  -24.3600  -30.0680   24.0030 N   0  0  0  0  0  0  0  0  0  0  0  0
  -29.0522  -14.3644   20.2209 N   0  0  0  0  0  0  0  0  0  0  0  0
  -26.5991  -11.4627   16.5365 N   0  0  0  0  0  0  0  0  0  0  0  0
  -24.3710   -8.4286   17.0101 N   0  0  0  0  0  0  0  0  0  0  0  0
  -27.8643  -16.3888   19.9917 N   0  0  0  0  0  0  0  0  0  0  0  0
  -21.3141  -29.0427   22.4535 N   0  0  0  0  0  0  0  0  0  0  0  0
  -26.1926  -32.8400   24.6483 N   0  0  0  0  0  0  0  0  0  0  0  0
  -28.7937  -21.9102   18.6230 N   0  3  0  0  0  0  0  0  0  0  0  0
  -27.8957  -32.8803   27.8366 N   0  3  0  0  0  0  0  0  0  0  0  0
  -23.0652  -10.3073   16.8547 O   0  0  0  0  0  0  0  0  0  0  0  0
  -23.5444  -28.5765   21.9728 O   0  0  0  0  0  0  0  0  0  0  0  0
  -23.4932  -32.2303   23.9064 O   0  0  0  0  0  0  0  0  0  0  0  0
  -27.9468  -31.5112   25.3791 O   0  0  0  0  0  0  0  0  0  0  0  0
  -30.1749  -16.3851   20.1986 O   0  0  0  0  0  0  0  0  0  0  0  0
  -21.4115   -8.3265   23.2019 O   0  0  0  0  0  0  0  0  0  0  0  0
  -27.3504  -24.7466   24.8935 O   0  0  0  0  0  0  0  0  0  1  0  0
  -21.8180   -2.9163   24.1861 F   0  0  0  0  0  0  0  0  0  0  0  0
  -21.9117   -7.3824   25.7516 F   0  0  0  0  0  0  0  0  0  0  0  0
  1  2  1  0  0  0  0
  1  5  2  0  0  0  0
  2  6  2  0  0  0  0
  3  8  2  0  0  0  0
  3 17  1  0  0  0  0
  4  9  1  0  0  0  0
  4 17  2  0  0  0  0
  5 19  1  0  0  0  0
  6 21  1  0  0  0  0
  7 10  2  0  0  0  0
  7 20  1  0  0  0  0
  8 24  1  0  0  0  0
  9 24  2  0  0  0  0
 10 25  1  0  0  0  0
 11 12  2  0  0  0  0
 11 26  1  0  0  0  0
 12 27  1  0  0  0  0
 13 22  1  0  0  0  0
 13 25  2  0  0  0  0
 14 23  1  0  0  0  0
 14 30  2  0  0  0  0
 15 27  2  0  0  0  0
 15 28  1  0  0  0  0
 16 23  2  0  0  0  0
 16 67  1  0  0  0  0
 17 29  1  0  0  0  0
 18 29  1  0  0  0  0
 18 31  2  0  0  0  0
 18 32  1  0  0  0  0
 19 21  2  0  0  0  0
 19 38  1  0  0  0  0
 20 22  2  0  0  0  0
 20 39  1  0  0  0  0
 21 51  1  0  0  0  0
 22 40  1  0  0  0  0
 23 74  1  0  0  0  0
 24 84  1  0  0  0  0
 25 85  1  0  0  0  0
 26 28  2  0  0  0  0
 26 84  1  0  0  0  0
 27 86  1  0  0  0  0
 28 87  1  0  0  0  0
 29 66  2  0  0  0  0
 30 33  1  0  0  0  0
 30 67  1  0  0  0  0
 31 68  1  0  0  0  0
 31 72  1  0  0  0  0
 32 73  1  0  0  0  0
 32 79  2  0  0  0  0
 33 69  1  0  0  0  0
 33 77  2  0  0  0  0
 34 52  1  0  0  0  0
 34 75  1  0  0  0  0
 34 80  2  0  0  0  0
 35 63  1  0  0  0  0
 35 70  1  0  0  0  0
 35 81  2  0  0  0  0
 36 64  1  0  0  0  0
 36 76  1  0  0  0  0
 36 82  2  0  0  0  0
 37 71  1  0  0  0  0
 37 74  1  0  0  0  0
 37 83  2  0  0  0  0
 38 41  1  0  0  0  0
 39 52  1  0  0  0  0
 40 70  1  0  0  0  0
 41 43  1  0  0  0  0
 42 44  1  0  0  0  0
 42 47  1  0  0  0  0
 43 51  1  0  0  0  0
 44 53  1  0  0  0  0
 45 48  1  0  0  0  0
 45 54  1  0  0  0  0
 46 49  1  0  0  0  0
 46 54  1  0  0  0  0
 47 71  1  0  0  0  0
 48 69  1  0  0  0  0
 49 69  1  0  0  0  0
 50 53  1  0  0  0  0
 50 71  1  0  0  0  0
 51 75  1  0  0  0  0
 52 70  1  0  0  0  0
 53 68  1  0  0  0  0
 54 55  1  0  0  0  0
 54 62  1  0  0  0  0
 56 64  1  0  0  0  0
 57 65  1  0  0  0  0
 58 65  1  0  0  0  0
 59 65  1  0  0  0  0
 60 67  1  0  0  0  0
 61 78  1  0  0  0  0
 62 85  1  0  0  0  0
 63 65  1  0  0  0  0
 63 76  1  0  0  0  0
 64 78  1  0  0  0  0
 66 68  1  0  0  0  0
M  CHG  2  77   1  78   1
M  ISO  4  37 100  62 101  74 100  85 101
M  END
> <Batch ID>
0160

> <Smiles>
CNC(C)C(=O)NC(C(=O)N1Cc2cc([101O:1][101CH2:1]C3(C)CCN(C(=N)c4cc([100NH:0][100C:0](=O)N5CCCC(n6nc(-c7ccc(Oc8ccc(F)cc8F)cc7)c(C(N)=O)c6N)C5)cn4C)CC3)ccc2CC1C(=O)NC1CCCc2ccccc21)C(C)(C)C

> <Shape>
0.299

> <Color>
0.113

> <Negative vol penalty>
0.000

$$$$

  -OEChem-04052303503D

 84 93  0     1  0  0  0  0  0999 V2000
  -29.6621  -36.6971   21.2907 C   0  0  0  0  0  0  0  0  0  0  0  0
  -29.7932  -35.3508   20.9653 C   0  0  0  0  0  0  0  0  0  0  0  0
  -24.8443   -8.3869   21.3487 C   0  0  0  0  0  0  0  0  0  0  0  0
  -23.3900   -9.5249   19.7907 C   0  0  0  0  0  0  0  0  0  0  0  0
  -28.7437  -37.0919   22.2626 C   0  0  0  0  0  0  0  0  0  0  0  0
  -29.0066  -34.3985   21.6123 C   0  0  0  0  0  0  0  0  0  0  0  0
  -26.7312  -29.2493   19.2011 C   0  0  0  0  0  0  0  0  0  0  0  0
  -23.7670   -7.6219   21.7955 C   0  0  0  0  0  0  0  0  0  0  0  0
  -22.3127   -8.7598   20.2375 C   0  0  0  0  0  0  0  0  0  0  0  0
  -27.1581  -27.9229   19.2484 C   0  0  0  0  0  0  0  0  0  0  0  0
  -21.1201   -8.0146   23.8605 C   0  0  0  0  0  0  0  0  0  0  0  0
  -20.9682   -7.8525   25.2375 C   0  0  0  0  0  0  0  0  0  0  0  0
  -25.6536  -27.5106   21.0885 C   0  0  0  0  0  0  0  0  0  0  0  0
  -21.1730   -5.4591   24.9783 C   0  0  0  0  0  0  0  0  0  0  0  0
  -24.6315  -17.5881   17.7917 C   0  0  0  0  0  0  0  0  0  0  0  0
  -24.6558   -9.3385   20.3463 C   0  0  0  0  0  0  0  0  0  0  0  0
  -26.6525   -9.8212   18.8338 C   0  0  0  0  0  0  0  0  0  0  0  0
  -27.9386  -36.1449   22.9150 C   0  0  0  0  0  0  0  0  0  0  0  0
  -25.7686  -29.7199   20.1058 C   0  0  0  0  0  0  0  0  0  0  0  0
  -28.0774  -34.7809   22.5948 C   0  0  0  0  0  0  0  0  0  0  0  0
  -25.2143  -28.8427   21.0489 C   0  0  0  0  0  0  0  0  0  0  0  0
  -22.5012   -7.8082   21.2399 C   0  0  0  0  0  0  0  0  0  0  0  0
  -26.6214  -27.0541   20.1940 C   0  0  0  0  0  0  0  0  0  0  0  0
  -21.2983   -6.8990   23.0423 C   0  0  0  0  0  0  0  0  0  0  0  0
  -20.9947   -6.5747   25.7964 C   0  0  0  0  0  0  0  0  0  0  0  0
  -21.3248   -5.6213   23.6012 C   0  0  0  0  0  0  0  0  0  0  0  0
  -25.7681  -10.1296   19.8848 C   0  0  0  0  0  0  0  0  0  0  0  0
  -25.6133  -17.6869   18.7553 C   0  0  0  0  0  0  0  0  0  0  0  0
  -27.5232  -10.8827   18.7950 C   0  0  0  0  0  0  0  0  0  0  0  0
  -25.5243  -19.7952   18.1576 C   0  0  0  0  0  0  0  0  0  0  0  0
  -26.6840   -8.6775   17.9697 C   0  0  0  0  0  0  0  0  0  0  0  0
  -25.7233  -31.9411   22.3790 C   0  0  0  0  0  0  0  0  0  0  0  0
  -22.5702  -31.1902   22.5070 C   0  0  0  0  0  0  0  0  0  0  0  0
  -20.1126  -28.8949   21.9250 C   0  0  0  0  0  0  0  0  0  0  0  0
  -27.0747  -16.5944   20.4922 C   0  0  0  0  0  0  0  0  0  0  0  0
  -26.9934  -36.6146   23.9924 C   0  0  0  0  0  0  0  0  0  0  0  0
  -25.2992  -31.1466   20.0243 C   0  0  0  0  0  0  0  0  0  0  0  0
  -24.1635  -29.2933   22.0293 C   0  0  0  0  0  0  0  0  0  0  0  0
  -25.9322  -35.5822   24.3642 C   0  0  0  0  0  0  0  0  0  0  0  0
  -29.4831  -14.2231   21.6120 C   0  0  0  0  0  0  0  0  0  0  0  0
  -26.5674  -34.2083   24.5538 C   0  0  0  0  0  0  0  0  0  0  0  0
  -27.2907  -21.5011   17.7768 C   0  0  0  0  0  0  0  0  0  0  0  0
  -28.8871  -12.8766   21.1951 C   0  0  0  0  0  0  0  0  0  0  0  0
  -27.6180  -22.9949   17.7663 C   0  0  0  0  0  0  0  0  0  0  0  0
  -28.4041  -15.2047   22.0659 C   0  0  0  0  0  0  0  0  0  0  0  0
  -26.7087  -14.0567   20.6959 C   0  0  0  0  0  0  0  0  0  0  0  0
  -25.7255  -23.4065   19.3947 C   0  0  0  0  0  0  0  0  0  0  0  0
  -27.2245  -33.7206   23.2569 C   0  0  1  0  0  0  0  0  0  0  0  0
  -25.8117  -21.2457   18.0948 C   0  0  2  0  0  0  0  0  0  0  0  0
  -24.6890  -31.6502   21.3286 C   0  0  1  0  0  0  0  0  0  0  0  0
  -27.7509  -13.0566   20.1693 C   0  0  2  0  0  0  0  0  0  0  0  0
  -27.1893  -23.6784   19.0671 C   0  0  2  0  0  0  0  0  0  0  0  0
  -17.6382  -28.5539   22.1670 C   0  0  0  0  0  0  0  0  0  0  0  0
  -22.9282  -30.7354   25.5028 C   0  0  0  0  0  0  0  0  0  0  0  0
  -20.7438  -29.5122   25.5075 C   0  0  0  0  0  0  0  0  0  0  0  0
  -20.8197  -31.9234   24.8727 C   0  0  0  0  0  0  0  0  0  0  0  0
  -19.7564  -28.5578   19.0064 C   0  0  0  0  0  0  0  0  0  0  0  0
  -27.4614  -25.1666   19.0160 C   0  0  0  0  0  0  0  0  0  1  0  0
  -21.7393  -30.1919   23.2763 C   0  0  1  0  0  0  0  0  0  0  0  0
  -18.7587  -29.0181   21.2495 C   0  0  2  0  0  0  0  0  0  0  0  0
  -21.5789  -30.5824   24.7727 C   0  0  0  0  0  0  0  0  0  0  0  0
  -26.0512  -11.2956   20.4715 N   0  0  0  0  0  0  0  0  0  0  0  0
  -26.1267  -18.9517   18.9662 N   0  0  0  0  0  0  0  0  0  0  0  0
  -27.1233  -11.7292   19.7868 N   0  0  0  0  0  0  0  0  0  0  0  0
  -23.7419  -30.6991   21.9139 N   0  0  0  0  0  0  0  0  0  0  0  0
  -27.3638  -15.3277   21.0424 N   0  0  0  0  0  0  0  0  0  0  0  0
  -28.5843  -11.1652   18.0098 N   0  0  0  0  0  0  0  0  0  0  0  0
  -25.7156   -7.6799   18.1461 N   0  0  0  0  0  0  0  0  0  0  0  0
  -26.0903  -16.5830   19.5045 N   0  0  0  0  0  0  0  0  0  0  0  0
  -26.2219  -33.2291   22.3361 N   0  0  0  0  0  0  0  0  0  0  0  0
  -20.4785  -30.0666   22.5531 N   0  0  0  0  0  0  0  0  0  0  0  0
  -25.4849  -21.9303   19.3981 N   0  3  0  0  0  0  0  0  0  0  0  0
  -18.7221  -28.1936   20.0086 N   0  3  0  0  0  0  0  0  0  0  0  0
  -27.5555   -8.5364   17.0785 O   0  0  0  0  0  0  0  0  0  0  0  0
  -26.0440  -31.0625   23.1708 O   0  0  0  0  0  0  0  0  0  0  0  0
  -22.1898  -32.3611   22.4289 O   0  0  0  0  0  0  0  0  0  0  0  0
  -20.7773  -27.8614   21.9012 O   0  0  0  0  0  0  0  0  0  0  0  0
  -27.6767  -17.6101   20.8500 O   0  0  0  0  0  0  0  0  0  0  0  0
  -21.4498   -7.0617   21.6755 O   0  0  0  0  0  0  0  0  0  0  0  0
  -27.0368  -25.7591   20.2428 O   0  0  0  0  0  0  0  0  0  1  0  0
  -20.8504   -6.4193   27.1190 F   0  0  0  0  0  0  0  0  0  0  0  0
  -21.4969   -4.5458   22.8204 F   0  0  0  0  0  0  0  0  0  0  0  0
  -27.9496  -23.1659   20.0816 F   0  0  0  0  0  0  0  0  0  0  0  0
  -24.3297  -19.1357   17.1171 S   0  0  0  0  0  0  0  0  0  0  0  0
  1  2  1  0  0  0  0
  1  5  2  0  0  0  0
  2  6  2  0  0  0  0
  3  8  2  0  0  0  0
  3 16  1  0  0  0  0
  4  9  1  0  0  0  0
  4 16  2  0  0  0  0
  5 18  1  0  0  0  0
  6 20  1  0  0  0  0
  7 10  2  0  0  0  0
  7 19  1  0  0  0  0
  8 22  1  0  0  0  0
  9 22  2  0  0  0  0
 10 23  1  0  0  0  0
 11 12  2  0  0  0  0
 11 24  1  0  0  0  0
 12 25  1  0  0  0  0
 13 21  1  0  0  0  0
 13 23  2  0  0  0  0
 14 25  2  0  0  0  0
 14 26  1  0  0  0  0
 15 28  2  0  0  0  0
 15 84  1  0  0  0  0
 16 27  1  0  0  0  0
 17 27  1  0  0  0  0
 17 29  2  0  0  0  0
 17 31  1  0  0  0  0
 18 20  2  0  0  0  0
 18 36  1  0  0  0  0
 19 21  2  0  0  0  0
 19 37  1  0  0  0  0
 20 48  1  0  0  0  0
 21 38  1  0  0  0  0
 22 79  1  0  0  0  0
 23 80  1  0  0  0  0
 24 26  2  0  0  0  0
 24 79  1  0  0  0  0
 25 81  1  0  0  0  0
 26 82  1  0  0  0  0
 27 62  2  0  0  0  0
 28 63  1  0  0  0  0
 28 69  1  0  0  0  0
 29 64  1  0  0  0  0
 29 67  1  0  0  0  0
 30 49  1  0  0  0  0
 30 63  2  0  0  0  0
 30 84  1  0  0  0  0
 31 68  1  0  0  0  0
 31 74  2  0  0  0  0
 32 50  1  0  0  0  0
 32 70  1  0  0  0  0
 32 75  2  0  0  0  0
 33 59  1  0  0  0  0
 33 65  1  0  0  0  0
 33 76  2  0  0  0  0
 34 60  1  0  0  0  0
 34 71  1  0  0  0  0
 34 77  2  0  0  0  0
 35 66  1  0  0  0  0
 35 69  1  0  0  0  0
 35 78  2  0  0  0  0
 36 39  1  0  0  0  0
 37 50  1  0  0  0  0
 38 65  1  0  0  0  0
 39 41  1  0  0  0  0
 40 43  1  0  0  0  0
 40 45  1  0  0  0  0
 41 48  1  0  0  0  0
 42 44  1  0  0  0  0
 42 49  1  0  0  0  0
 43 51  1  0  0  0  0
 44 52  1  0  0  0  0
 45 66  1  0  0  0  0
 46 51  1  0  0  0  0
 46 66  1  0  0  0  0
 47 52  1  0  0  0  0
 47 72  1  0  0  0  0
 48 70  1  0  0  0  0
 49 72  1  0  0  0  0
 50 65  1  0  0  0  0
 51 64  1  0  0  0  0
 52 58  1  0  0  0  0
 52 83  1  0  0  0  0
 53 60  1  0  0  0  0
 54 61  1  0  0  0  0
 55 61  1  0  0  0  0
 56 61  1  0  0  0  0
 57 73  1  0  0  0  0
 58 80  1  0  0  0  0
 59 61  1  0  0  0  0
 59 71  1  0  0  0  0
 60 73  1  0  0  0  0
 62 64  1  0  0  0  0
M  CHG  2  72   1  73   1
M  ISO  4  35 100  58 101  69 100  80 101
M  END
> <Batch ID>
0160

> <Smiles>
CNC(C)C(=O)NC(C(=O)N1Cc2cc([101O:1][101CH2:1]C3(F)CCC(c4nc([100NH:0][100C:0](=O)N5CCCC(n6nc(-c7ccc(Oc8ccc(F)cc8F)cc7)c(C(N)=O)c6N)C5)cs4)NC3)ccc2CC1C(=O)NC1CCCc2ccccc21)C(C)(C)C

> <Shape>
0.260

> <Color>
0.085

> <Negative vol penalty>
0.000

$$$$

  -OEChem-04052303503D

 84 92  0     1  0  0  0  0  0999 V2000
  -28.3898  -19.9354   14.6120 C   0  0  0  0  0  0  0  0  0  0  0  0
  -28.2518  -20.0875   15.9879 C   0  0  0  0  0  0  0  0  0  0  0  0
  -31.3171  -19.0819   20.5955 C   0  0  0  0  0  0  0  0  0  0  0  0
  -23.0770   -9.8652   19.9425 C   0  0  0  0  0  0  0  0  0  0  0  0
  -23.8353   -9.8757   22.2364 C   0  0  0  0  0  0  0  0  0  0  0  0
  -30.5852  -19.8721   21.4818 C   0  0  0  0  0  0  0  0  0  0  0  0
  -29.6106  -20.2160   13.9997 C   0  0  0  0  0  0  0  0  0  0  0  0
  -29.3349  -20.5193   16.7526 C   0  0  0  0  0  0  0  0  0  0  0  0
  -28.0409  -24.0709   20.1226 C   0  0  0  0  0  0  0  0  0  0  0  0
  -31.1482  -17.6973   20.5929 C   0  0  0  0  0  0  0  0  0  0  0  0
  -22.3336   -8.7120   20.1935 C   0  0  0  0  0  0  0  0  0  0  0  0
  -23.0918   -8.7225   22.4874 C   0  0  0  0  0  0  0  0  0  0  0  0
  -27.4004  -23.6428   21.2846 C   0  0  0  0  0  0  0  0  0  0  0  0
  -19.8636   -7.9239   23.0887 C   0  0  0  0  0  0  0  0  0  0  0  0
  -19.1058   -7.8853   24.2591 C   0  0  0  0  0  0  0  0  0  0  0  0
  -29.4886  -23.7917   22.4832 C   0  0  0  0  0  0  0  0  0  0  0  0
  -20.3476   -5.9495   24.9992 C   0  0  0  0  0  0  0  0  0  0  0  0
  -23.8280  -10.4470   20.9639 C   0  0  0  0  0  0  0  0  0  0  0  0
  -29.6845  -19.2777   22.3656 C   0  0  0  0  0  0  0  0  0  0  0  0
  -24.1686  -12.9722   20.8406 C   0  0  0  0  0  0  0  0  0  0  0  0
  -30.7064  -20.6608   14.7560 C   0  0  0  0  0  0  0  0  0  0  0  0
  -29.4146  -24.3526   20.1295 C   0  0  0  0  0  0  0  0  0  0  0  0
  -30.5719  -20.8049   16.1501 C   0  0  0  0  0  0  0  0  0  0  0  0
  -30.1436  -24.2256   21.3206 C   0  0  0  0  0  0  0  0  0  0  0  0
  -30.2476  -17.1028   21.4767 C   0  0  0  0  0  0  0  0  0  0  0  0
  -22.3409   -8.1407   21.4660 C   0  0  0  0  0  0  0  0  0  0  0  0
  -28.1248  -23.5003   22.4645 C   0  0  0  0  0  0  0  0  0  0  0  0
  -20.8633   -6.9753   22.8735 C   0  0  0  0  0  0  0  0  0  0  0  0
  -19.3478   -6.8981   25.2144 C   0  0  0  0  0  0  0  0  0  0  0  0
  -21.1054   -5.9881   23.8287 C   0  0  0  0  0  0  0  0  0  0  0  0
  -29.5157  -17.8930   22.3631 C   0  0  0  0  0  0  0  0  0  0  0  0
  -24.5966  -11.6379   20.7051 C   0  0  0  0  0  0  0  0  0  0  0  0
  -25.2607  -13.7217   20.4771 C   0  0  0  0  0  0  0  0  0  0  0  0
  -28.9108  -20.1172   23.3021 C   0  0  0  0  0  0  0  0  0  0  0  0
  -22.8976  -13.4879   21.2579 C   0  0  0  0  0  0  0  0  0  0  0  0
  -31.9554  -23.1657   18.6332 C   0  0  0  0  0  0  0  0  0  0  0  0
  -33.4783  -25.6341   20.0858 C   0  0  0  0  0  0  0  0  0  0  0  0
  -33.5564  -27.8836   22.6510 C   0  0  0  0  0  0  0  0  0  0  0  0
  -30.7262  -14.7703   20.6543 C   0  0  0  0  0  0  0  0  0  0  0  0
  -32.0197  -20.9063   14.0562 C   0  0  0  0  0  0  0  0  0  0  0  0
  -30.0852  -24.8390   18.8741 C   0  0  0  0  0  0  0  0  0  0  0  0
  -31.6162  -24.5349   21.3857 C   0  0  0  0  0  0  0  0  0  0  0  0
  -33.0100  -21.7184   14.8868 C   0  0  0  0  0  0  0  0  0  0  0  0
  -29.6147  -12.3526   18.2886 C   0  0  0  0  0  0  0  0  0  0  0  0
  -33.0775  -21.1810   16.3128 C   0  0  0  0  0  0  0  0  0  0  0  0
  -28.1749  -12.0609   18.7175 C   0  0  0  0  0  0  0  0  0  0  0  0
  -30.5288  -12.5835   19.4906 C   0  0  0  0  0  0  0  0  0  0  0  0
  -28.6205  -13.3089   20.8694 C   0  0  0  0  0  0  0  0  0  0  0  0
  -31.7166  -21.2948   17.0103 C   0  0  1  0  0  0  0  0  0  0  0  0
  -31.5925  -24.6040   18.8723 C   0  0  1  0  0  0  0  0  0  0  0  0
  -27.6486  -13.1336   19.6912 C   0  0  2  0  0  0  0  0  0  0  0  0
  -34.9455  -29.7488   23.5938 C   0  0  0  0  0  0  0  0  0  0  0  0
  -25.1364  -22.8774   24.0165 C   0  0  0  0  0  0  0  0  0  0  0  0
  -35.4570  -23.5951   21.1979 C   0  0  0  0  0  0  0  0  0  0  0  0
  -36.2085  -25.3258   22.8435 C   0  0  0  0  0  0  0  0  0  0  0  0
  -36.4936  -25.7258   20.3978 C   0  0  0  0  0  0  0  0  0  0  0  0
  -31.3678  -29.8452   22.3025 C   0  0  0  0  0  0  0  0  0  0  0  0
  -26.7005  -20.8762   24.0990 C   0  0  0  0  0  0  0  0  0  0  0  0
  -34.1786  -25.8283   21.4089 C   0  0  1  0  0  0  0  0  0  0  0  0
  -33.7948  -29.3827   22.6692 C   0  0  2  0  0  0  0  0  0  0  0  0
  -26.3809  -22.2135   23.4436 C   0  0  2  0  0  0  0  0  0  1  0  0
  -35.5571  -25.1110   21.4607 C   0  0  0  0  0  0  0  0  0  0  0  0
  -25.8618  -11.5421   20.2878 N   0  0  0  0  0  0  0  0  0  0  0  0
  -26.2382  -12.8257   20.1580 N   0  0  0  0  0  0  0  0  0  0  0  0
  -32.2280  -25.0012   20.1304 N   0  0  0  0  0  0  0  0  0  0  0  0
  -29.9687  -13.6153   20.3661 N   0  0  0  0  0  0  0  0  0  0  0  0
  -25.4704  -15.0531   20.4024 N   0  0  0  0  0  0  0  0  0  0  0  0
  -29.5828  -20.8641   24.1782 N   0  0  0  0  0  0  0  0  0  0  0  0
  -21.8859  -12.5787   21.5957 N   0  0  0  0  0  0  0  0  0  0  0  0
  -30.0778  -15.6961   21.4710 N   0  0  0  0  0  0  0  0  0  0  0  0
  -31.4809  -22.6568   17.4393 N   0  0  0  0  0  0  0  0  0  0  0  0
  -34.2463  -27.2691   21.6274 N   0  0  0  0  0  0  0  0  0  0  0  0
  -27.5751  -20.0862   23.2280 N   0  3  0  0  0  0  0  0  0  0  0  0
  -32.5722  -30.0961   23.1353 N   0  3  0  0  0  0  0  0  0  0  0  0
  -22.6607  -14.7185   21.3134 O   0  0  0  0  0  0  0  0  0  0  0  0
  -32.6181  -22.5627   19.4691 O   0  0  0  0  0  0  0  0  0  0  0  0
  -34.0173  -26.0358   19.0515 O   0  0  0  0  0  0  0  0  0  0  0  0
  -32.8336  -27.3142   23.4657 O   0  0  0  0  0  0  0  0  0  0  0  0
  -31.8555  -14.9389   20.1873 O   0  0  0  0  0  0  0  0  0  0  0  0
  -21.6153   -7.0155   21.7113 O   0  0  0  0  0  0  0  0  0  0  0  0
  -27.5023  -23.0820   23.6000 O   0  0  0  0  0  0  0  0  0  1  0  0
  -18.6211   -6.8620   26.3390 F   0  0  0  0  0  0  0  0  0  0  0  0
  -22.0653   -5.0748   23.6280 F   0  0  0  0  0  0  0  0  0  0  0  0
  -28.6488  -17.3228   23.2137 F   0  0  0  0  0  0  0  0  0  0  0  0
  1  2  1  0  0  0  0
  1  7  2  0  0  0  0
  2  8  2  0  0  0  0
  3  6  2  0  0  0  0
  3 10  1  0  0  0  0
  4 11  2  0  0  0  0
  4 18  1  0  0  0  0
  5 12  1  0  0  0  0
  5 18  2  0  0  0  0
  6 19  1  0  0  0  0
  7 21  1  0  0  0  0
  8 23  1  0  0  0  0
  9 13  2  0  0  0  0
  9 22  1  0  0  0  0
 10 25  2  0  0  0  0
 11 26  1  0  0  0  0
 12 26  2  0  0  0  0
 13 27  1  0  0  0  0
 14 15  2  0  0  0  0
 14 28  1  0  0  0  0
 15 29  1  0  0  0  0
 16 24  1  0  0  0  0
 16 27  2  0  0  0  0
 17 29  2  0  0  0  0
 17 30  1  0  0  0  0
 18 32  1  0  0  0  0
 19 31  2  0  0  0  0
 19 34  1  0  0  0  0
 20 32  1  0  0  0  0
 20 33  2  0  0  0  0
 20 35  1  0  0  0  0
 21 23  2  0  0  0  0
 21 40  1  0  0  0  0
 22 24  2  0  0  0  0
 22 41  1  0  0  0  0
 23 49  1  0  0  0  0
 24 42  1  0  0  0  0
 25 31  1  0  0  0  0
 25 70  1  0  0  0  0
 26 80  1  0  0  0  0
 27 81  1  0  0  0  0
 28 30  2  0  0  0  0
 28 80  1  0  0  0  0
 29 82  1  0  0  0  0
 30 83  1  0  0  0  0
 31 84  1  0  0  0  0
 32 63  2  0  0  0  0
 33 64  1  0  0  0  0
 33 67  1  0  0  0  0
 34 68  1  0  0  0  0
 34 73  2  0  0  0  0
 35 69  1  0  0  0  0
 35 75  2  0  0  0  0
 36 50  1  0  0  0  0
 36 71  1  0  0  0  0
 36 76  2  0  0  0  0
 37 59  1  0  0  0  0
 37 65  1  0  0  0  0
 37 77  2  0  0  0  0
 38 60  1  0  0  0  0
 38 72  1  0  0  0  0
 38 78  2  0  0  0  0
 39 66  1  0  0  0  0
 39 70  1  0  0  0  0
 39 79  2  0  0  0  0
 40 43  1  0  0  0  0
 41 50  1  0  0  0  0
 42 65  1  0  0  0  0
 43 45  1  0  0  0  0
 44 46  1  0  0  0  0
 44 47  1  0  0  0  0
 45 49  1  0  0  0  0
 46 51  1  0  0  0  0
 47 66  1  0  0  0  0
 48 51  1  0  0  0  0
 48 66  1  0  0  0  0
 49 71  1  0  0  0  0
 50 65  1  0  0  0  0
 51 64  1  0  0  0  0
 52 60  1  0  0  0  0
 53 61  1  0  0  0  0
 54 62  1  0  0  0  0
 55 62  1  0  0  0  0
 56 62  1  0  0  0  0
 57 74  1  0  0  0  0
 58 61  1  0  0  0  0
 58 73  1  0  0  0  0
 59 62  1  0  0  0  0
 59 72  1  0  0  0  0
 60 74  1  0  0  0  0
 61 81  1  0  0  0  0
 63 64  1  0  0  0  0
M  CHG  2  73   1  74   1
M  ISO  4  39 100  61 101  70 100  81 101
M  END
> <Batch ID>
0160

> <Smiles>
CNC(C)C(=O)NC(C(=O)N1Cc2cc([101O:1][101CH:1](C)CNC(=N)c3cccc([100NH:0][100C:0](=O)N4CCCC(n5nc(-c6ccc(Oc7ccc(F)cc7F)cc6)c(C(N)=O)c5N)C4)c3F)ccc2CC1C(=O)NC1CCCc2ccccc21)C(C)(C)C

> <Shape>
0.214

> <Color>
0.187

> <Negative vol penalty>
0.000

$$$$

  -OEChem-04052303503D

 86 95  0     1  0  0  0  0  0999 V2000
  -22.1164  -27.6522   33.5797 C   0  0  0  0  0  0  0  0  0  0  0  0
  -22.9177  -26.8292   32.7948 C   0  0  0  0  0  0  0  0  0  0  0  0
  -23.0748   -9.8506   19.9401 C   0  0  0  0  0  0  0  0  0  0  0  0
  -23.7971   -9.8904   22.2453 C   0  0  0  0  0  0  0  0  0  0  0  0
  -20.9227  -28.1568   33.0655 C   0  0  0  0  0  0  0  0  0  0  0  0
  -22.5251  -26.5093   31.4956 C   0  0  0  0  0  0  0  0  0  0  0  0
  -26.1731  -25.6694   26.6487 C   0  0  0  0  0  0  0  0  0  0  0  0
  -30.2948  -18.4809   24.0882 C   0  0  0  0  0  0  0  0  0  0  0  0
  -22.3457   -8.6878   20.1886 C   0  0  0  0  0  0  0  0  0  0  0  0
  -23.0679   -8.7275   22.4938 C   0  0  0  0  0  0  0  0  0  0  0  0
  -26.6771  -24.5197   26.0421 C   0  0  0  0  0  0  0  0  0  0  0  0
  -23.4216   -5.4059   21.9715 C   0  0  0  0  0  0  0  0  0  0  0  0
  -31.6794  -18.5079   24.2544 C   0  0  0  0  0  0  0  0  0  0  0  0
  -24.0418   -4.3971   22.7087 C   0  0  0  0  0  0  0  0  0  0  0  0
  -24.8712  -24.5786   24.4438 C   0  0  0  0  0  0  0  0  0  0  0  0
  -31.9102  -16.7459   22.6176 C   0  0  0  0  0  0  0  0  0  0  0  0
  -22.3103   -4.5581   24.3859 C   0  0  0  0  0  0  0  0  0  0  0  0
  -23.8005  -10.4519   20.9684 C   0  0  0  0  0  0  0  0  0  0  0  0
  -24.1033  -12.9811   20.8309 C   0  0  0  0  0  0  0  0  0  0  0  0
  -20.5200  -27.8508   31.7560 C   0  0  0  0  0  0  0  0  0  0  0  0
  -25.0063  -26.2771   26.1633 C   0  0  0  0  0  0  0  0  0  0  0  0
  -21.3242  -27.0092   30.9639 C   0  0  0  0  0  0  0  0  0  0  0  0
  -24.3559  -25.7374   25.0444 C   0  0  0  0  0  0  0  0  0  0  0  0
  -29.7178  -17.5864   23.1868 C   0  0  0  0  0  0  0  0  0  0  0  0
  -30.5255  -16.7189   22.4514 C   0  0  0  0  0  0  0  0  0  0  0  0
  -22.3422   -8.1262   21.4654 C   0  0  0  0  0  0  0  0  0  0  0  0
  -26.0245  -23.9725   24.9412 C   0  0  0  0  0  0  0  0  0  0  0  0
  -22.2457   -5.9908   22.4416 C   0  0  0  0  0  0  0  0  0  0  0  0
  -32.4871  -17.6404   23.5191 C   0  0  0  0  0  0  0  0  0  0  0  0
  -23.4862   -3.9732   23.9158 C   0  0  0  0  0  0  0  0  0  0  0  0
  -21.6901   -5.5669   23.6488 C   0  0  0  0  0  0  0  0  0  0  0  0
  -24.5543  -11.6529   20.7123 C   0  0  0  0  0  0  0  0  0  0  0  0
  -25.1890  -13.7451   20.4784 C   0  0  0  0  0  0  0  0  0  0  0  0
  -27.3649  -21.8846   22.3483 C   0  0  0  0  0  0  0  0  0  0  0  0
  -26.8735  -22.9229   23.0312 C   0  0  0  0  0  0  0  0  0  1  0  0
  -22.8180  -13.4799   21.2245 C   0  0  0  0  0  0  0  0  0  0  0  0
  -22.1207  -26.8674   27.3586 C   0  0  0  0  0  0  0  0  0  0  0  0
  -21.7175  -28.4644   24.5640 C   0  0  0  0  0  0  0  0  0  0  0  0
  -22.6381  -28.8766   21.3037 C   0  0  0  0  0  0  0  0  0  0  0  0
  -30.6340  -14.8813   20.7316 C   0  0  0  0  0  0  0  0  0  0  0  0
  -19.1981  -28.3813   31.2604 C   0  0  0  0  0  0  0  0  0  0  0  0
  -24.4904  -27.5321   26.8123 C   0  0  0  0  0  0  0  0  0  0  0  0
  -23.1112  -26.3633   24.4722 C   0  0  0  0  0  0  0  0  0  0  0  0
  -27.7751  -21.9068   20.9060 C   0  0  0  0  0  0  0  0  0  0  0  0
  -27.5351  -20.5008   22.8895 C   0  0  0  0  0  0  0  0  0  0  0  0
  -19.0384  -28.2988   29.7444 C   0  0  0  0  0  0  0  0  0  0  0  0
  -29.5974  -12.4287   18.3678 C   0  0  0  0  0  0  0  0  0  0  0  0
  -19.4652  -26.9252   29.2367 C   0  0  0  0  0  0  0  0  0  0  0  0
  -28.1559  -12.1175   18.7768 C   0  0  0  0  0  0  0  0  0  0  0  0
  -30.4891  -12.6831   19.5819 C   0  0  0  0  0  0  0  0  0  0  0  0
  -28.5484  -13.3885   20.9256 C   0  0  0  0  0  0  0  0  0  0  0  0
  -27.7069  -20.4418   20.4958 C   0  0  0  0  0  0  0  0  0  0  0  0
  -20.9445  -26.6596   29.5413 C   0  0  1  0  0  0  0  0  0  0  0  0
  -23.0069  -27.7735   26.5514 C   0  0  1  0  0  0  0  0  0  0  0  0
  -27.5978  -13.1890   19.7339 C   0  0  2  0  0  0  0  0  0  0  0  0
  -22.1033  -30.2347   19.2624 C   0  0  0  0  0  0  0  0  0  0  0  0
  -19.1929  -26.8078   24.1262 C   0  0  0  0  0  0  0  0  0  0  0  0
  -19.2410  -27.4982   21.7201 C   0  0  0  0  0  0  0  0  0  0  0  0
  -18.9780  -29.2208   23.5051 C   0  0  0  0  0  0  0  0  0  0  0  0
  -25.3743  -29.9988   21.1914 C   0  0  0  0  0  0  0  0  0  0  0  0
  -28.2246  -17.5771   23.0303 C   0  0  0  0  0  0  0  0  0  0  0  0
  -27.7344  -18.2486   21.7515 C   0  0  0  0  0  0  0  0  0  0  0  0
  -21.2212  -28.0991   23.1859 C   0  0  1  0  0  0  0  0  0  0  0  0
  -22.9766  -30.1205   20.5022 C   0  0  2  0  0  0  0  0  0  0  0  0
  -19.6806  -27.8933   23.1461 C   0  0  0  0  0  0  0  0  0  0  0  0
  -25.8272  -11.5740   20.3153 N   0  0  0  0  0  0  0  0  0  0  0  0
  -26.1853  -12.8623   20.1813 N   0  0  0  0  0  0  0  0  0  0  0  0
  -22.6424  -27.5857   25.1456 N   0  0  0  0  0  0  0  0  0  0  0  0
  -29.8993  -13.7124   20.4407 N   0  0  0  0  0  0  0  0  0  0  0  0
  -25.3790  -15.0791   20.3966 N   0  0  0  0  0  0  0  0  0  0  0  0
  -21.8156  -12.5573   21.5538 N   0  0  0  0  0  0  0  0  0  0  0  0
  -29.9585  -15.8029   21.5310 N   0  0  0  0  0  0  0  0  0  0  0  0
  -21.7887  -27.3678   28.6031 N   0  0  0  0  0  0  0  0  0  0  0  0
  -21.7084  -29.1401   22.2874 N   0  0  0  0  0  0  0  0  0  0  0  0
  -28.1084  -19.6934   21.7468 N   0  3  2  0  0  0  0  0  0  0  0  0
  -24.4028  -30.0866   20.0710 N   0  3  0  0  0  0  0  0  0  0  0  0
  -22.5610  -14.7069   21.2668 O   0  0  0  0  0  0  0  0  0  0  0  0
  -21.7633  -25.7945   26.8866 O   0  0  0  0  0  0  0  0  0  0  0  0
  -21.3054  -29.4953   25.1016 O   0  0  0  0  0  0  0  0  0  0  0  0
  -23.1447  -27.7799   21.0773 O   0  0  0  0  0  0  0  0  0  0  0  0
  -31.7677  -15.0643   20.2807 O   0  0  0  0  0  0  0  0  0  0  0  0
  -21.6307   -6.9916   21.7083 O   0  0  0  0  0  0  0  0  0  0  0  0
  -26.5139  -22.8500   24.3477 O   0  0  0  0  0  0  0  0  0  1  0  0
  -33.8167  -17.6670   23.6795 F   0  0  0  0  0  0  0  0  0  0  0  0
  -24.0811   -3.0035   24.6228 F   0  0  0  0  0  0  0  0  0  0  0  0
  -20.5600   -6.1242   24.1049 F   0  0  0  0  0  0  0  0  0  0  0  0
  1  2  1  0  0  0  0
  1  5  2  0  0  0  0
  2  6  2  0  0  0  0
  3  9  2  0  0  0  0
  3 18  1  0  0  0  0
  4 10  1  0  0  0  0
  4 18  2  0  0  0  0
  5 20  1  0  0  0  0
  6 22  1  0  0  0  0
  7 11  2  0  0  0  0
  7 21  1  0  0  0  0
  8 13  2  0  0  0  0
  8 24  1  0  0  0  0
  9 26  1  0  0  0  0
 10 26  2  0  0  0  0
 11 27  1  0  0  0  0
 12 14  2  0  0  0  0
 12 28  1  0  0  0  0
 13 29  1  0  0  0  0
 14 30  1  0  0  0  0
 15 23  1  0  0  0  0
 15 27  2  0  0  0  0
 16 25  1  0  0  0  0
 16 29  2  0  0  0  0
 17 30  2  0  0  0  0
 17 31  1  0  0  0  0
 18 32  1  0  0  0  0
 19 32  1  0  0  0  0
 19 33  2  0  0  0  0
 19 36  1  0  0  0  0
 20 22  2  0  0  0  0
 20 41  1  0  0  0  0
 21 23  2  0  0  0  0
 21 42  1  0  0  0  0
 22 53  1  0  0  0  0
 23 43  1  0  0  0  0
 24 25  2  0  0  0  0
 24 61  1  0  0  0  0
 25 72  1  0  0  0  0
 26 82  1  0  0  0  0
 27 83  1  0  0  0  0
 28 31  2  0  0  0  0
 28 82  1  0  0  0  0
 29 84  1  0  0  0  0
 30 85  1  0  0  0  0
 31 86  1  0  0  0  0
 32 66  2  0  0  0  0
 33 67  1  0  0  0  0
 33 70  1  0  0  0  0
 34 35  2  0  0  0  0
 34 44  1  0  0  0  0
 34 45  1  0  0  0  0
 35 83  1  0  0  0  0
 36 71  1  0  0  0  0
 36 77  2  0  0  0  0
 37 54  1  0  0  0  0
 37 73  1  0  0  0  0
 37 78  2  0  0  0  0
 38 63  1  0  0  0  0
 38 68  1  0  0  0  0
 38 79  2  0  0  0  0
 39 64  1  0  0  0  0
 39 74  1  0  0  0  0
 39 80  2  0  0  0  0
 40 69  1  0  0  0  0
 40 72  1  0  0  0  0
 40 81  2  0  0  0  0
 41 46  1  0  0  0  0
 42 54  1  0  0  0  0
 43 68  1  0  0  0  0
 44 52  1  0  0  0  0
 45 75  1  0  0  0  0
 46 48  1  0  0  0  0
 47 49  1  0  0  0  0
 47 50  1  0  0  0  0
 48 53  1  0  0  0  0
 49 55  1  0  0  0  0
 50 69  1  0  0  0  0
 51 55  1  0  0  0  0
 51 69  1  0  0  0  0
 52 75  1  0  0  0  0
 53 73  1  0  0  0  0
 54 68  1  0  0  0  0
 55 67  1  0  0  0  0
 56 64  1  0  0  0  0
 57 65  1  0  0  0  0
 58 65  1  0  0  0  0
 59 65  1  0  0  0  0
 60 76  1  0  0  0  0
 61 62  1  0  0  0  0
 62 75  1  0  0  0  0
 63 65  1  0  0  0  0
 63 74  1  0  0  0  0
 64 76  1  0  0  0  0
 66 67  1  0  0  0  0
M  CHG  2  75   1  76   1
M  ISO  4  35 101  40 100  72 100  83 101
M  END
> <Batch ID>
0160

> <Smiles>
CNC(C)C(=O)NC(C(=O)N1Cc2cc([101O:1][101CH:1]=C3CCN(CCc4ccc(F)cc4[100NH:0][100C:0](=O)N4CCCC(n5nc(-c6ccc(Oc7ccc(F)cc7F)cc6)c(C(N)=O)c5N)C4)C3)ccc2CC1C(=O)NC1CCCc2ccccc21)C(C)(C)C

> <Shape>
0.270

> <Color>
0.212

> <Negative vol penalty>
0.000

$$$$

  -OEChem-04052303503D

 86 95  0     1  0  0  0  0  0999 V2000
  -31.8524  -26.4884   15.3046 C   0  0  0  0  0  0  0  0  0  0  0  0
  -30.9451  -25.7967   16.1007 C   0  0  0  0  0  0  0  0  0  0  0  0
  -26.5211  -12.3589   21.5306 C   0  0  0  0  0  0  0  0  0  0  0  0
  -25.9319  -13.9253   19.7881 C   0  0  0  0  0  0  0  0  0  0  0  0
  -32.3954  -27.6918   15.7528 C   0  0  0  0  0  0  0  0  0  0  0  0
  -30.5812  -26.3075   17.3462 C   0  0  0  0  0  0  0  0  0  0  0  0
  -25.5904  -26.0552   18.1665 C   0  0  0  0  0  0  0  0  0  0  0  0
  -25.2339  -11.8235   21.4845 C   0  0  0  0  0  0  0  0  0  0  0  0
  -24.6447  -13.3898   19.7420 C   0  0  0  0  0  0  0  0  0  0  0  0
  -25.0667  -24.8153   18.5300 C   0  0  0  0  0  0  0  0  0  0  0  0
  -23.1250  -10.6714   18.4301 C   0  0  0  0  0  0  0  0  0  0  0  0
  -22.5763  -10.4144   17.1738 C   0  0  0  0  0  0  0  0  0  0  0  0
  -27.5629  -19.8354   19.9446 C   0  0  0  0  0  0  0  0  0  0  0  0
  -25.0373  -25.5117   20.8395 C   0  0  0  0  0  0  0  0  0  0  0  0
  -20.7639  -11.9383   17.6536 C   0  0  0  0  0  0  0  0  0  0  0  0
  -26.7943  -18.0797   18.8031 C   0  0  0  0  0  0  0  0  0  0  0  0
  -26.8701  -13.4098   20.6824 C   0  0  0  0  0  0  0  0  0  0  0  0
  -26.3877  -19.2284   19.4411 C   0  0  0  0  0  0  0  0  0  0  0  0
  -29.3188  -13.5527   19.9816 C   0  0  0  0  0  0  0  0  0  0  0  0
  -32.0307  -28.2224   17.0002 C   0  0  0  0  0  0  0  0  0  0  0  0
  -25.8520  -27.0304   19.1396 C   0  0  0  0  0  0  0  0  0  0  0  0
  -31.1209  -27.5184   17.8121 C   0  0  0  0  0  0  0  0  0  0  0  0
  -25.5618  -26.7641   20.4853 C   0  0  0  0  0  0  0  0  0  0  0  0
  -24.2958  -12.3389   20.5903 C   0  0  0  0  0  0  0  0  0  0  0  0
  -24.7928  -24.5423   19.8670 C   0  0  0  0  0  0  0  0  0  0  0  0
  -22.4932  -11.5618   19.2983 C   0  0  0  0  0  0  0  0  0  0  0  0
  -21.3957  -11.0478   16.7855 C   0  0  0  0  0  0  0  0  0  0  0  0
  -21.3127  -12.1953   18.9100 C   0  0  0  0  0  0  0  0  0  0  0  0
  -28.1994  -13.9637   20.7298 C   0  0  0  0  0  0  0  0  0  0  0  0
  -28.6039  -19.0142   19.5787 C   0  0  0  0  0  0  0  0  0  0  0  0
  -30.3299  -14.3881   20.3895 C   0  0  0  0  0  0  0  0  0  0  0  0
  -25.0315  -19.6778   19.5470 C   0  0  0  0  0  0  0  0  0  0  0  0
  -29.4343  -12.5093   19.0051 C   0  0  0  0  0  0  0  0  0  0  0  0
  -24.6627  -20.9643   20.2715 C   0  0  0  0  0  0  0  0  0  0  0  0
  -28.4581  -28.5351   20.1634 C   0  0  0  0  0  0  0  0  0  0  0  0
  -26.3177  -30.2301   21.9150 C   0  0  0  0  0  0  0  0  0  0  0  0
  -23.2386  -30.3729   23.3797 C   0  0  0  0  0  0  0  0  0  0  0  0
  -30.6275  -20.0768   22.0224 C   0  0  0  0  0  0  0  0  0  0  0  0
  -32.6802  -29.5027   17.4625 C   0  0  0  0  0  0  0  0  0  0  0  0
  -26.3919  -28.3726   18.7279 C   0  0  0  0  0  0  0  0  0  0  0  0
  -25.8057  -27.7844   21.5661 C   0  0  0  0  0  0  0  0  0  0  0  0
  -31.9571  -30.1646   18.6326 C   0  0  0  0  0  0  0  0  0  0  0  0
  -30.9943  -20.3331   17.7501 C   0  0  0  0  0  0  0  0  0  0  0  0
  -31.5203  -21.4396   18.6553 C   0  0  0  0  0  0  0  0  0  0  0  0
  -31.1536  -17.2249   24.3450 C   0  0  0  0  0  0  0  0  0  0  0  0
  -31.6227  -29.1334   19.7057 C   0  0  0  0  0  0  0  0  0  0  0  0
  -30.9501  -19.0054   18.5005 C   0  0  0  0  0  0  0  0  0  0  0  0
  -30.4717  -16.0757   23.6041 C   0  0  0  0  0  0  0  0  0  0  0  0
  -30.5469  -18.5752   23.9768 C   0  0  0  0  0  0  0  0  0  0  0  0
  -30.7062  -21.5260   19.9383 C   0  0  0  0  0  0  0  0  0  0  0  0
  -29.8496  -17.6989   21.7723 C   0  0  0  0  0  0  0  0  0  0  0  0
  -30.6825  -28.0527   19.1584 C   0  0  1  0  0  0  0  0  0  0  0  0
  -30.1171  -19.0803   19.7999 C   0  0  1  0  0  0  0  0  0  0  0  0
  -27.1007  -29.1052   19.8629 C   0  0  1  0  0  0  0  0  0  0  0  0
  -30.4676  -16.3288   22.0866 C   0  0  2  0  0  0  0  0  0  0  0  0
  -21.7883  -31.8723   24.7746 C   0  0  0  0  0  0  0  0  0  0  0  0
  -27.9717  -29.5309   24.3819 C   0  0  0  0  0  0  0  0  0  0  0  0
  -26.0218  -30.2126   25.7966 C   0  0  0  0  0  0  0  0  0  0  0  0
  -27.1352  -31.8869   24.3202 C   0  0  0  0  0  0  0  0  0  0  0  0
  -21.1584  -30.5087   21.2789 C   0  0  0  0  0  0  0  0  0  0  0  0
  -24.6298  -22.2107   19.4280 C   0  0  0  0  0  0  0  0  0  1  0  0
  -25.7003  -30.0812   23.2845 C   0  0  1  0  0  0  0  0  0  0  0  0
  -22.1646  -31.4456   23.3643 C   0  0  2  0  0  0  0  0  0  0  0  0
  -26.7044  -30.4078   24.4259 C   0  0  0  0  0  0  0  0  0  0  0  0
  -28.4733  -14.9809   21.5510 N   0  0  0  0  0  0  0  0  0  0  0  0
  -29.7763  -15.2161   21.3212 N   0  0  0  0  0  0  0  0  0  0  0  0
  -26.3404  -29.0795   21.1141 N   0  0  0  0  0  0  0  0  0  0  0  0
  -30.5106  -18.7721   22.5281 N   0  0  0  0  0  0  0  0  0  0  0  0
  -30.5916  -20.2216   20.6206 N   0  0  0  0  0  0  0  0  0  0  0  0
  -31.6296  -14.4877   20.0385 N   0  0  0  0  0  0  0  0  0  0  0  0
  -28.2975  -11.7464   18.7048 N   0  0  0  0  0  0  0  0  0  0  0  0
  -29.3258  -28.5514   19.0881 N   0  0  0  0  0  0  0  0  0  0  0  0
  -24.5030  -30.9147   23.2854 N   0  0  0  0  0  0  0  0  0  0  0  0
  -20.9387  -30.9415   22.6830 N   0  3  0  0  0  0  0  0  0  0  0  0
  -24.0398  -19.0751   19.0871 O   0  0  0  0  0  0  0  0  0  0  0  0
  -30.5176  -12.2499   18.4283 O   0  0  0  0  0  0  0  0  0  0  0  0
  -24.4288  -20.8977   21.4682 O   0  0  0  0  0  0  0  0  0  0  0  0
  -28.7007  -28.1130   21.2880 O   0  0  0  0  0  0  0  0  0  0  0  0
  -26.7571  -31.3286   21.5659 O   0  0  0  0  0  0  0  0  0  0  0  0
  -22.9818  -29.1744   23.4704 O   0  0  0  0  0  0  0  0  0  0  0  0
  -30.7591  -21.0500   22.7752 O   0  0  0  0  0  0  0  0  0  0  0  0
  -28.1438  -17.9417   18.8826 O   0  0  0  0  0  0  0  0  0  0  0  0
  -23.0397  -11.8165   20.5449 O   0  0  0  0  0  0  0  0  0  0  0  0
  -24.2772  -23.3206   20.2283 O   0  0  0  0  0  0  0  0  0  1  0  0
  -20.8697  -10.8020   15.5784 F   0  0  0  0  0  0  0  0  0  0  0  0
  -20.7018  -13.0526   19.7392 F   0  0  0  0  0  0  0  0  0  0  0  0
  1  2  1  0  0  0  0
  1  5  2  0  0  0  0
  2  6  2  0  0  0  0
  3  8  2  0  0  0  0
  3 17  1  0  0  0  0
  4  9  1  0  0  0  0
  4 17  2  0  0  0  0
  5 20  1  0  0  0  0
  6 22  1  0  0  0  0
  7 10  2  0  0  0  0
  7 21  1  0  0  0  0
  8 24  1  0  0  0  0
  9 24  2  0  0  0  0
 10 25  1  0  0  0  0
 11 12  2  0  0  0  0
 11 26  1  0  0  0  0
 12 27  1  0  0  0  0
 13 18  1  0  0  0  0
 13 30  2  0  0  0  0
 14 23  1  0  0  0  0
 14 25  2  0  0  0  0
 15 27  2  0  0  0  0
 15 28  1  0  0  0  0
 16 18  2  0  0  0  0
 16 82  1  0  0  0  0
 17 29  1  0  0  0  0
 18 32  1  0  0  0  0
 19 29  1  0  0  0  0
 19 31  2  0  0  0  0
 19 33  1  0  0  0  0
 20 22  2  0  0  0  0
 20 39  1  0  0  0  0
 21 23  2  0  0  0  0
 21 40  1  0  0  0  0
 22 52  1  0  0  0  0
 23 41  1  0  0  0  0
 24 83  1  0  0  0  0
 25 84  1  0  0  0  0
 26 28  2  0  0  0  0
 26 83  1  0  0  0  0
 27 85  1  0  0  0  0
 28 86  1  0  0  0  0
 29 65  2  0  0  0  0
 30 53  1  0  0  0  0
 30 82  1  0  0  0  0
 31 66  1  0  0  0  0
 31 70  1  0  0  0  0
 32 34  1  0  0  0  0
 32 75  2  0  0  0  0
 33 71  1  0  0  0  0
 33 76  2  0  0  0  0
 34 61  1  0  0  0  0
 34 77  2  0  0  0  0
 35 54  1  0  0  0  0
 35 72  1  0  0  0  0
 35 78  2  0  0  0  0
 36 62  1  0  0  0  0
 36 67  1  0  0  0  0
 36 79  2  0  0  0  0
 37 63  1  0  0  0  0
 37 73  1  0  0  0  0
 37 80  2  0  0  0  0
 38 68  1  0  0  0  0
 38 69  1  0  0  0  0
 38 81  2  0  0  0  0
 39 42  1  0  0  0  0
 40 54  1  0  0  0  0
 41 67  1  0  0  0  0
 42 46  1  0  0  0  0
 43 44  1  0  0  0  0
 43 47  1  0  0  0  0
 44 50  1  0  0  0  0
 45 48  1  0  0  0  0
 45 49  1  0  0  0  0
 46 52  1  0  0  0  0
 47 53  1  0  0  0  0
 48 55  1  0  0  0  0
 49 68  1  0  0  0  0
 50 69  1  0  0  0  0
 51 55  1  0  0  0  0
 51 68  1  0  0  0  0
 52 72  1  0  0  0  0
 53 69  1  0  0  0  0
 54 67  1  0  0  0  0
 55 66  1  0  0  0  0
 56 63  1  0  0  0  0
 57 64  1  0  0  0  0
 58 64  1  0  0  0  0
 59 64  1  0  0  0  0
 60 74  1  0  0  0  0
 61 84  1  0  0  0  0
 62 64  1  0  0  0  0
 62 73  1  0  0  0  0
 63 74  1  0  0  0  0
 65 66  1  0  0  0  0
M  CHG  1  74   1
M  ISO  4  38 100  61 101  69 100  84 101
M  END
> <Batch ID>
0160

> <Smiles>
CNC(C)C(=O)NC(C(=O)N1Cc2cc([101O:1][101CH2:1]C(=O)C(=O)c3coc(C4CCCC[100N:0]4[100C:0](=O)N4CCCC(n5nc(-c6ccc(Oc7ccc(F)cc7F)cc6)c(C(N)=O)c5N)C4)c3)ccc2CC1C(=O)NC1CCCc2ccccc21)C(C)(C)C

> <Shape>
0.261

> <Color>
0.071

> <Negative vol penalty>
0.000

$$$$

  -OEChem-04052303503D

 85 94  0     1  0  0  0  0  0999 V2000
  -30.1876  -33.3289   16.5426 C   0  0  0  0  0  0  0  0  0  0  0  0
  -29.9028  -32.0889   17.1054 C   0  0  0  0  0  0  0  0  0  0  0  0
  -24.5697   -7.2819   19.8569 C   0  0  0  0  0  0  0  0  0  0  0  0
  -23.3392   -9.3611   19.8688 C   0  0  0  0  0  0  0  0  0  0  0  0
  -29.9774  -34.4930   17.2807 C   0  0  0  0  0  0  0  0  0  0  0  0
  -29.4086  -32.0122   18.4071 C   0  0  0  0  0  0  0  0  0  0  0  0
  -25.5388  -28.7731   18.8283 C   0  0  0  0  0  0  0  0  0  0  0  0
  -23.5023   -6.6466   20.4914 C   0  0  0  0  0  0  0  0  0  0  0  0
  -22.2718   -8.7257   20.5033 C   0  0  0  0  0  0  0  0  0  0  0  0
  -25.8478  -27.4143   18.8732 C   0  0  0  0  0  0  0  0  0  0  0  0
  -22.2514   -6.4073   23.6223 C   0  0  0  0  0  0  0  0  0  0  0  0
  -22.5448   -5.5605   24.6911 C   0  0  0  0  0  0  0  0  0  0  0  0
  -25.6020  -27.4439   21.2727 C   0  0  0  0  0  0  0  0  0  0  0  0
  -21.5384   -3.7128   23.5035 C   0  0  0  0  0  0  0  0  0  0  0  0
  -23.7732  -17.9134   21.6201 C   0  0  0  0  0  0  0  0  0  0  0  0
  -24.4882   -8.6392   19.5457 C   0  0  0  0  0  0  0  0  0  0  0  0
  -26.1450   -8.9797   17.6361 C   0  0  0  0  0  0  0  0  0  0  0  0
  -29.4713  -34.4310   18.5886 C   0  0  0  0  0  0  0  0  0  0  0  0
  -25.2693  -29.4812   20.0083 C   0  0  0  0  0  0  0  0  0  0  0  0
  -29.1928  -33.1764   19.1638 C   0  0  0  0  0  0  0  0  0  0  0  0
  -25.2874  -28.8111   21.2399 C   0  0  0  0  0  0  0  0  0  0  0  0
  -22.3533   -7.3685   20.8145 C   0  0  0  0  0  0  0  0  0  0  0  0
  -25.8823  -26.7502   20.0958 C   0  0  0  0  0  0  0  0  0  0  0  0
  -21.6014   -5.9069   22.4941 C   0  0  0  0  0  0  0  0  0  0  0  0
  -22.1884   -4.2133   24.6317 C   0  0  0  0  0  0  0  0  0  0  0  0
  -21.2449   -4.5597   22.4347 C   0  0  0  0  0  0  0  0  0  0  0  0
  -25.5907   -9.2962   18.8908 C   0  0  0  0  0  0  0  0  0  0  0  0
  -25.0104  -18.5192   21.6872 C   0  0  0  0  0  0  0  0  0  0  0  0
  -27.1601   -9.8899   17.4696 C   0  0  0  0  0  0  0  0  0  0  0  0
  -25.6519  -16.5327   21.0146 C   0  0  0  0  0  0  0  0  0  0  0  0
  -25.7753   -7.9547   16.7042 C   0  0  0  0  0  0  0  0  0  0  0  0
  -26.6160  -31.9403   21.5059 C   0  0  0  0  0  0  0  0  0  0  0  0
  -25.4168  -23.2545   20.6925 C   0  0  0  0  0  0  0  0  0  0  0  0
  -24.0324  -31.6702   23.4486 C   0  0  0  0  0  0  0  0  0  0  0  0
  -21.5475  -29.6985   24.7073 C   0  0  0  0  0  0  0  0  0  0  0  0
  -27.8023  -15.3382   20.4410 C   0  0  0  0  0  0  0  0  0  0  0  0
  -29.3053  -35.7138   19.3643 C   0  0  0  0  0  0  0  0  0  0  0  0
  -24.9115  -30.9405   19.9403 C   0  0  0  0  0  0  0  0  0  0  0  0
  -24.9858  -29.5211   22.5335 C   0  0  0  0  0  0  0  0  0  0  0  0
  -28.4255  -35.5669   20.6031 C   0  0  0  0  0  0  0  0  0  0  0  0
  -25.0864  -21.6728   23.9484 C   0  0  0  0  0  0  0  0  0  0  0  0
  -30.1275  -12.4688   20.3038 C   0  0  0  0  0  0  0  0  0  0  0  0
  -28.8240  -34.3267   21.3969 C   0  0  0  0  0  0  0  0  0  0  0  0
  -24.8392  -20.2166   23.5564 C   0  0  0  0  0  0  0  0  0  0  0  0
  -29.3746  -11.3472   19.5866 C   0  0  0  0  0  0  0  0  0  0  0  0
  -24.4412  -22.6383   22.9576 C   0  0  0  0  0  0  0  0  0  0  0  0
  -29.7027  -13.8563   19.8427 C   0  0  0  0  0  0  0  0  0  0  0  0
  -24.6100  -20.9601   21.1471 C   0  0  0  0  0  0  0  0  0  0  0  0
  -27.3819  -12.9220   19.7335 C   0  0  0  0  0  0  0  0  0  0  0  0
  -28.6321  -33.0535   20.5640 C   0  0  1  0  0  0  0  0  0  0  0  0
  -25.2729  -19.9547   22.1035 C   0  0  2  0  0  0  0  0  0  0  0  0
  -25.1583  -31.6780   21.2528 C   0  0  1  0  0  0  0  0  0  0  0  0
  -28.0782  -11.8258   18.9119 C   0  0  2  0  0  0  0  0  0  0  0  0
  -19.6121  -29.7473   26.3040 C   0  0  0  0  0  0  0  0  0  0  0  0
  -25.9718  -31.5282   25.7999 C   0  0  0  0  0  0  0  0  0  0  0  0
  -24.0973  -30.6404   27.2023 C   0  0  0  0  0  0  0  0  0  0  0  0
  -23.9367  -32.9230   26.2090 C   0  0  0  0  0  0  0  0  0  0  0  0
  -19.6100  -29.0714   22.5598 C   0  0  0  0  0  0  0  0  0  0  0  0
  -25.6024  -24.6624   21.1997 C   0  0  0  0  0  0  0  0  0  1  0  0
  -23.7179  -30.9001   24.7084 C   0  0  1  0  0  0  0  0  0  0  0  0
  -20.0556  -29.9335   24.8613 C   0  0  2  0  0  0  0  0  0  0  0  0
  -24.4385  -31.4847   25.9559 C   0  0  0  0  0  0  0  0  0  0  0  0
  -26.2030  -10.3269   19.4798 N   0  0  0  0  0  0  0  0  0  0  0  0
  -26.0889  -17.7289   21.3408 N   0  0  0  0  0  0  0  0  0  0  0  0
  -27.1526  -10.6658   18.5913 N   0  0  0  0  0  0  0  0  0  0  0  0
  -24.6475  -30.9490   22.4155 N   0  0  0  0  0  0  0  0  0  0  0  0
  -24.8585  -22.3373   21.5830 N   0  0  0  0  0  0  0  0  0  0  0  0
  -28.2634  -14.0656   20.0246 N   0  0  0  0  0  0  0  0  0  0  0  0
  -28.0494  -10.0942   16.4748 N   0  0  0  0  0  0  0  0  0  0  0  0
  -24.8169   -8.2546   15.7266 N   0  0  0  0  0  0  0  0  0  0  0  0
  -26.4160  -15.4146   20.5974 N   0  0  0  0  0  0  0  0  0  0  0  0
  -27.2333  -32.6851   20.5191 N   0  0  0  0  0  0  0  0  0  0  0  0
  -22.2633  -30.8719   24.8171 N   0  0  0  0  0  0  0  0  0  0  0  0
  -19.2905  -28.9811   24.0078 N   0  3  0  0  0  0  0  0  0  0  0  0
  -26.2679   -6.8019   16.7478 O   0  0  0  0  0  0  0  0  0  0  0  0
  -27.1415  -31.5008   22.5220 O   0  0  0  0  0  0  0  0  0  0  0  0
  -25.7608  -22.9795   19.5400 O   0  0  0  0  0  0  0  0  0  0  0  0
  -23.7365  -32.8658   23.3810 O   0  0  0  0  0  0  0  0  0  0  0  0
  -22.0299  -28.5849   24.5131 O   0  0  0  0  0  0  0  0  0  0  0  0
  -28.5800  -16.2710   20.6535 O   0  0  0  0  0  0  0  0  0  0  0  0
  -21.3114   -6.7488   21.4334 O   0  0  0  0  0  0  0  0  0  0  0  0
  -26.1842  -25.4241   20.1425 O   0  0  0  0  0  0  0  0  0  1  0  0
  -22.4716   -3.3999   25.6575 F   0  0  0  0  0  0  0  0  0  0  0  0
  -20.6214   -4.0729   21.3530 F   0  0  0  0  0  0  0  0  0  0  0  0
  -23.9555  -16.2889   21.1015 S   0  0  0  0  0  0  0  0  0  0  0  0
  1  2  1  0  0  0  0
  1  5  2  0  0  0  0
  2  6  2  0  0  0  0
  3  8  2  0  0  0  0
  3 16  1  0  0  0  0
  4  9  1  0  0  0  0
  4 16  2  0  0  0  0
  5 18  1  0  0  0  0
  6 20  1  0  0  0  0
  7 10  2  0  0  0  0
  7 19  1  0  0  0  0
  8 22  1  0  0  0  0
  9 22  2  0  0  0  0
 10 23  1  0  0  0  0
 11 12  2  0  0  0  0
 11 24  1  0  0  0  0
 12 25  1  0  0  0  0
 13 21  1  0  0  0  0
 13 23  2  0  0  0  0
 14 25  2  0  0  0  0
 14 26  1  0  0  0  0
 15 28  2  0  0  0  0
 15 85  1  0  0  0  0
 16 27  1  0  0  0  0
 17 27  1  0  0  0  0
 17 29  2  0  0  0  0
 17 31  1  0  0  0  0
 18 20  2  0  0  0  0
 18 37  1  0  0  0  0
 19 21  2  0  0  0  0
 19 38  1  0  0  0  0
 20 50  1  0  0  0  0
 21 39  1  0  0  0  0
 22 81  1  0  0  0  0
 23 82  1  0  0  0  0
 24 26  2  0  0  0  0
 24 81  1  0  0  0  0
 25 83  1  0  0  0  0
 26 84  1  0  0  0  0
 27 63  2  0  0  0  0
 28 51  1  0  0  0  0
 28 64  1  0  0  0  0
 29 65  1  0  0  0  0
 29 69  1  0  0  0  0
 30 64  2  0  0  0  0
 30 71  1  0  0  0  0
 30 85  1  0  0  0  0
 31 70  1  0  0  0  0
 31 75  2  0  0  0  0
 32 52  1  0  0  0  0
 32 72  1  0  0  0  0
 32 76  2  0  0  0  0
 33 59  1  0  0  0  0
 33 67  1  0  0  0  0
 33 77  2  0  0  0  0
 34 60  1  0  0  0  0
 34 66  1  0  0  0  0
 34 78  2  0  0  0  0
 35 61  1  0  0  0  0
 35 73  1  0  0  0  0
 35 79  2  0  0  0  0
 36 68  1  0  0  0  0
 36 71  1  0  0  0  0
 36 80  2  0  0  0  0
 37 40  1  0  0  0  0
 38 52  1  0  0  0  0
 39 66  1  0  0  0  0
 40 43  1  0  0  0  0
 41 44  1  0  0  0  0
 41 46  1  0  0  0  0
 42 45  1  0  0  0  0
 42 47  1  0  0  0  0
 43 50  1  0  0  0  0
 44 51  1  0  0  0  0
 45 53  1  0  0  0  0
 46 67  1  0  0  0  0
 47 68  1  0  0  0  0
 48 51  1  0  0  0  0
 48 67  1  0  0  0  0
 49 53  1  0  0  0  0
 49 68  1  0  0  0  0
 50 72  1  0  0  0  0
 52 66  1  0  0  0  0
 53 65  1  0  0  0  0
 54 61  1  0  0  0  0
 55 62  1  0  0  0  0
 56 62  1  0  0  0  0
 57 62  1  0  0  0  0
 58 74  1  0  0  0  0
 59 82  1  0  0  0  0
 60 62  1  0  0  0  0
 60 73  1  0  0  0  0
 61 74  1  0  0  0  0
 63 65  1  0  0  0  0
M  CHG  1  74   1
M  ISO  4  36 100  59 101  71 100  82 101
M  END
> <Batch ID>
0160

> <Smiles>
CNC(C)C(=O)NC(C(=O)N1Cc2cc([101O:1][101CH2:1]C(=O)N3CCCC(c4csc([100NH:0][100C:0](=O)N5CCCC(n6nc(-c7ccc(Oc8ccc(F)cc8F)cc7)c(C(N)=O)c6N)C5)n4)C3)ccc2CC1C(=O)NC1CCCc2ccccc21)C(C)(C)C

> <Shape>
0.212

> <Color>
0.103

> <Negative vol penalty>
0.000

$$$$

  -OEChem-04052303503D

 84 92  0     1  0  0  0  0  0999 V2000
  -28.6719  -32.2341   27.2098 C   0  0  0  0  0  0  0  0  0  0  0  0
  -28.7258  -31.2544   26.2236 C   0  0  0  0  0  0  0  0  0  0  0  0
  -23.6843   -9.4705   20.0082 C   0  0  0  0  0  0  0  0  0  0  0  0
  -24.0620   -9.8589   22.3627 C   0  0  0  0  0  0  0  0  0  0  0  0
  -27.4392  -32.6502   27.7109 C   0  0  0  0  0  0  0  0  0  0  0  0
  -27.5468  -30.6894   25.7386 C   0  0  0  0  0  0  0  0  0  0  0  0
  -27.5108  -30.3039   20.6893 C   0  0  0  0  0  0  0  0  0  0  0  0
  -23.1554   -8.2133   20.3004 C   0  0  0  0  0  0  0  0  0  0  0  0
  -23.5331   -8.6017   22.6549 C   0  0  0  0  0  0  0  0  0  0  0  0
  -28.2366  -29.2556   20.1256 C   0  0  0  0  0  0  0  0  0  0  0  0
  -20.4749   -7.1884   22.9213 C   0  0  0  0  0  0  0  0  0  0  0  0
  -19.5686   -7.0979   23.9777 C   0  0  0  0  0  0  0  0  0  0  0  0
  -26.1984  -27.9914   19.8671 C   0  0  0  0  0  0  0  0  0  0  0  0
  -27.9560  -18.9008   22.2296 C   0  0  0  0  0  0  0  0  0  0  0  0
  -21.0413   -5.5522   25.1086 C   0  0  0  0  0  0  0  0  0  0  0  0
  -29.8183  -18.8996   20.7502 C   0  0  0  0  0  0  0  0  0  0  0  0
  -24.1377  -10.2933   21.0394 C   0  0  0  0  0  0  0  0  0  0  0  0
  -23.9841  -12.8097   20.6498 C   0  0  0  0  0  0  0  0  0  0  0  0
  -26.2440  -32.0968   27.2250 C   0  0  0  0  0  0  0  0  0  0  0  0
  -26.1224  -30.1994   20.8565 C   0  0  0  0  0  0  0  0  0  0  0  0
  -26.2970  -31.0974   26.2346 C   0  0  0  0  0  0  0  0  0  0  0  0
  -25.4569  -29.0409   20.4309 C   0  0  0  0  0  0  0  0  0  0  0  0
  -28.9475  -18.1906   21.5619 C   0  0  0  0  0  0  0  0  0  0  0  0
  -23.0798   -7.7789   21.6237 C   0  0  0  0  0  0  0  0  0  0  0  0
  -27.5809  -28.0979   19.7170 C   0  0  0  0  0  0  0  0  0  0  0  0
  -21.6644   -6.4608   22.9585 C   0  0  0  0  0  0  0  0  0  0  0  0
  -19.8518   -6.2798   25.0714 C   0  0  0  0  0  0  0  0  0  0  0  0
  -27.8669  -20.2789   22.0675 C   0  0  0  0  0  0  0  0  0  0  0  0
  -21.9476   -5.6427   24.0522 C   0  0  0  0  0  0  0  0  0  0  0  0
  -24.6846  -11.5918   20.7381 C   0  0  0  0  0  0  0  0  0  0  0  0
  -28.7861  -20.8944   21.2333 C   0  0  0  0  0  0  0  0  0  0  0  0
  -24.9480  -13.7387   20.3428 C   0  0  0  0  0  0  0  0  0  0  0  0
  -22.5870  -13.0772   20.8294 C   0  0  0  0  0  0  0  0  0  0  0  0
  -24.1558  -30.2212   23.3536 C   0  0  0  0  0  0  0  0  0  0  0  0
  -29.1834  -24.5140   20.3093 C   0  0  0  0  0  0  0  0  0  0  0  0
  -21.8659  -30.1993   21.0561 C   0  0  0  0  0  0  0  0  0  0  0  0
  -20.9899  -29.4420   17.8459 C   0  0  0  0  0  0  0  0  0  0  0  0
  -30.0016  -15.9485   21.1051 C   0  0  0  0  0  0  0  0  0  0  0  0
  -24.9376  -32.5447   27.8310 C   0  0  0  0  0  0  0  0  0  0  0  0
  -25.3503  -31.3499   21.4417 C   0  0  0  0  0  0  0  0  0  0  0  0
  -23.9651  -28.8870   20.5697 C   0  0  0  0  0  0  0  0  0  0  0  0
  -23.7170  -32.1640   26.9970 C   0  0  0  0  0  0  0  0  0  0  0  0
  -29.7719  -13.1375   18.9319 C   0  0  0  0  0  0  0  0  0  0  0  0
  -23.8082  -30.7081   26.5511 C   0  0  0  0  0  0  0  0  0  0  0  0
  -28.3702  -12.5850   19.2008 C   0  0  0  0  0  0  0  0  0  0  0  0
  -30.4251  -13.6711   20.2056 C   0  0  0  0  0  0  0  0  0  0  0  0
  -28.2212  -14.0959   21.2212 C   0  0  0  0  0  0  0  0  0  0  0  0
  -25.0388  -30.4784   25.6655 C   0  0  1  0  0  0  0  0  0  0  0  0
  -24.0098  -30.9290   22.0363 C   0  0  1  0  0  0  0  0  0  0  0  0
  -27.4973  -13.6061   19.9564 C   0  0  2  0  0  0  0  0  0  0  0  0
  -19.0379  -29.5032   16.2699 C   0  0  0  0  0  0  0  0  0  0  0  0
  -20.6675  -27.7639   22.4497 C   0  0  0  0  0  0  0  0  0  0  0  0
  -19.3484  -27.3103   20.3707 C   0  0  0  0  0  0  0  0  0  0  0  0
  -18.9899  -29.4303   21.6354 C   0  0  0  0  0  0  0  0  0  0  0  0
  -22.3980  -31.2659   15.9885 C   0  0  0  0  0  0  0  0  0  0  0  0
  -30.0388  -25.4489   19.4644 C   0  0  0  0  0  0  0  0  0  0  0  0
  -29.5683  -23.0494   20.2485 C   0  0  0  0  0  0  0  0  0  0  0  0
  -29.6377  -26.9100   19.5978 C   0  0  0  0  0  0  0  0  0  1  0  0
  -21.1171  -29.1263   20.3032 C   0  0  1  0  0  0  0  0  0  0  0  0
  -20.2613  -30.2460   16.7842 C   0  0  2  0  0  0  0  0  0  0  0  0
  -20.0591  -28.4095   21.1888 C   0  0  0  0  0  0  0  0  0  0  0  0
  -29.7630  -20.2380   20.5681 N   0  0  0  0  0  0  0  0  0  0  0  0
  -25.9925  -11.7312   20.5058 N   0  0  0  0  0  0  0  0  0  0  0  0
  -26.1215  -13.0477   20.2684 N   0  0  0  0  0  0  0  0  0  0  0  0
  -23.2551  -30.0371   21.1536 N   0  0  0  0  0  0  0  0  0  0  0  0
  -29.5427  -14.6360   20.8653 N   0  0  0  0  0  0  0  0  0  0  0  0
  -24.8977  -15.0712   20.1318 N   0  0  0  0  0  0  0  0  0  0  0  0
  -21.7366  -12.0078   21.1414 N   0  0  0  0  0  0  0  0  0  0  0  0
  -29.0638  -16.7860   21.7083 N   0  0  0  0  0  0  0  0  0  0  0  0
  -28.6869  -22.2696   21.0803 N   0  0  0  0  0  0  0  0  0  0  0  0
  -24.7953  -30.9671   24.3252 N   0  0  0  0  0  0  0  0  0  0  0  0
  -20.5653  -29.7701   19.1160 N   0  0  0  0  0  0  0  0  0  0  0  0
  -21.1644  -30.5194   15.6307 N   0  3  0  0  0  0  0  0  0  0  0  0
  -22.1044  -14.2279   20.7002 O   0  0  0  0  0  0  0  0  0  0  0  0
  -23.7191  -29.0831   23.4796 O   0  0  0  0  0  0  0  0  0  0  0  0
  -28.2440  -24.9203   20.9918 O   0  0  0  0  0  0  0  0  0  0  0  0
  -21.2421  -31.1503   21.5338 O   0  0  0  0  0  0  0  0  0  0  0  0
  -21.8471  -28.6038   17.5753 O   0  0  0  0  0  0  0  0  0  0  0  0
  -31.1331  -16.3112   20.7731 O   0  0  0  0  0  0  0  0  0  0  0  0
  -22.5635   -6.5523   21.9092 O   0  0  0  0  0  0  0  0  0  0  0  0
  -28.2871  -27.0728   19.1671 O   0  0  0  0  0  0  0  0  0  1  0  0
  -18.9821   -6.1942   26.0865 F   0  0  0  0  0  0  0  0  0  0  0  0
  -26.9173  -20.9759   22.7044 F   0  0  0  0  0  0  0  0  0  0  0  0
  -23.0892   -4.9422   24.0941 F   0  0  0  0  0  0  0  0  0  0  0  0
  1  2  1  0  0  0  0
  1  5  2  0  0  0  0
  2  6  2  0  0  0  0
  3  8  2  0  0  0  0
  3 17  1  0  0  0  0
  4  9  1  0  0  0  0
  4 17  2  0  0  0  0
  5 19  1  0  0  0  0
  6 21  1  0  0  0  0
  7 10  2  0  0  0  0
  7 20  1  0  0  0  0
  8 24  1  0  0  0  0
  9 24  2  0  0  0  0
 10 25  1  0  0  0  0
 11 12  2  0  0  0  0
 11 26  1  0  0  0  0
 12 27  1  0  0  0  0
 13 22  1  0  0  0  0
 13 25  2  0  0  0  0
 14 23  2  0  0  0  0
 14 28  1  0  0  0  0
 15 27  2  0  0  0  0
 15 29  1  0  0  0  0
 16 23  1  0  0  0  0
 16 62  2  0  0  0  0
 17 30  1  0  0  0  0
 18 30  1  0  0  0  0
 18 32  2  0  0  0  0
 18 33  1  0  0  0  0
 19 21  2  0  0  0  0
 19 39  1  0  0  0  0
 20 22  2  0  0  0  0
 20 40  1  0  0  0  0
 21 48  1  0  0  0  0
 22 41  1  0  0  0  0
 23 69  1  0  0  0  0
 24 80  1  0  0  0  0
 25 81  1  0  0  0  0
 26 29  2  0  0  0  0
 26 80  1  0  0  0  0
 27 82  1  0  0  0  0
 28 31  2  0  0  0  0
 28 83  1  0  0  0  0
 29 84  1  0  0  0  0
 30 63  2  0  0  0  0
 31 62  1  0  0  0  0
 31 70  1  0  0  0  0
 32 64  1  0  0  0  0
 32 67  1  0  0  0  0
 33 68  1  0  0  0  0
 33 74  2  0  0  0  0
 34 49  1  0  0  0  0
 34 71  1  0  0  0  0
 34 75  2  0  0  0  0
 35 56  1  0  0  0  0
 35 57  1  0  0  0  0
 35 76  2  0  0  0  0
 36 59  1  0  0  0  0
 36 65  1  0  0  0  0
 36 77  2  0  0  0  0
 37 60  1  0  0  0  0
 37 72  1  0  0  0  0
 37 78  2  0  0  0  0
 38 66  1  0  0  0  0
 38 69  1  0  0  0  0
 38 79  2  0  0  0  0
 39 42  1  0  0  0  0
 40 49  1  0  0  0  0
 41 65  1  0  0  0  0
 42 44  1  0  0  0  0
 43 45  1  0  0  0  0
 43 46  1  0  0  0  0
 44 48  1  0  0  0  0
 45 50  1  0  0  0  0
 46 66  1  0  0  0  0
 47 50  1  0  0  0  0
 47 66  1  0  0  0  0
 48 71  1  0  0  0  0
 49 65  1  0  0  0  0
 50 64  1  0  0  0  0
 51 60  1  0  0  0  0
 52 61  1  0  0  0  0
 53 61  1  0  0  0  0
 54 61  1  0  0  0  0
 55 73  1  0  0  0  0
 56 58  1  0  0  0  0
 57 70  1  0  0  0  0
 58 81  1  0  0  0  0
 59 61  1  0  0  0  0
 59 72  1  0  0  0  0
 60 73  1  0  0  0  0
 63 64  1  0  0  0  0
M  CHG  1  73   1
M  ISO  4  38 100  58 101  69 100  81 101
M  END
> <Batch ID>
0160

> <Smiles>
CNC(C)C(=O)NC(C(=O)N1Cc2cc([101O:1][101CH2:1]CC(=O)CNc3ncc([100NH:0][100C:0](=O)N4CCCC(n5nc(-c6ccc(Oc7ccc(F)cc7F)cc6)c(C(N)=O)c5N)C4)cc3F)ccc2CC1C(=O)NC1CCCc2ccccc21)C(C)(C)C

> <Shape>
0.386

> <Color>
0.190

> <Negative vol penalty>
0.000

$$$$

  -OEChem-04052303503D

 82 90  0     1  0  0  0  0  0999 V2000
  -19.2800  -16.7913   31.2151 C   0  0  0  0  0  0  0  0  0  0  0  0
  -20.4811  -17.1421   30.6071 C   0  0  0  0  0  0  0  0  0  0  0  0
  -23.2011   -9.8508   19.9528 C   0  0  0  0  0  0  0  0  0  0  0  0
  -23.9130   -9.9298   22.2602 C   0  0  0  0  0  0  0  0  0  0  0  0
  -19.2450  -15.7428   32.1334 C   0  0  0  0  0  0  0  0  0  0  0  0
  -21.6483  -16.4453   30.9179 C   0  0  0  0  0  0  0  0  0  0  0  0
  -24.3676  -15.2789   26.8082 C   0  0  0  0  0  0  0  0  0  0  0  0
  -22.5098   -8.6662   20.2066 C   0  0  0  0  0  0  0  0  0  0  0  0
  -23.2217   -8.7452   22.5140 C   0  0  0  0  0  0  0  0  0  0  0  0
  -25.1344  -16.2964   26.2422 C   0  0  0  0  0  0  0  0  0  0  0  0
  -21.3467   -5.9338   23.8553 C   0  0  0  0  0  0  0  0  0  0  0  0
  -20.5699   -5.8705   25.0120 C   0  0  0  0  0  0  0  0  0  0  0  0
  -27.0967  -15.4177   27.3360 C   0  0  0  0  0  0  0  0  0  0  0  0
  -32.1665  -17.5705   21.9499 C   0  0  0  0  0  0  0  0  0  0  0  0
  -19.2469   -7.7327   24.2254 C   0  0  0  0  0  0  0  0  0  0  0  0
  -30.4434  -18.9002   22.4931 C   0  0  0  0  0  0  0  0  0  0  0  0
  -23.9027  -10.4826   20.9796 C   0  0  0  0  0  0  0  0  0  0  0  0
  -24.1226  -13.0194   20.8258 C   0  0  0  0  0  0  0  0  0  0  0  0
  -20.4105  -15.0265   32.4484 C   0  0  0  0  0  0  0  0  0  0  0  0
  -24.9585  -14.3279   27.6525 C   0  0  0  0  0  0  0  0  0  0  0  0
  -21.6291  -15.3871   31.8424 C   0  0  0  0  0  0  0  0  0  0  0  0
  -26.3357  -14.3876   27.9094 C   0  0  0  0  0  0  0  0  0  0  0  0
  -31.6576  -18.8811   21.8452 C   0  0  0  0  0  0  0  0  0  0  0  0
  -22.5200   -8.1134   21.4872 C   0  0  0  0  0  0  0  0  0  0  0  0
  -26.4986  -16.3677   26.5084 C   0  0  0  0  0  0  0  0  0  0  0  0
  -21.0737   -6.8966   22.8836 C   0  0  0  0  0  0  0  0  0  0  0  0
  -19.5200   -6.7699   25.1971 C   0  0  0  0  0  0  0  0  0  0  0  0
  -20.0238   -7.7960   23.0686 C   0  0  0  0  0  0  0  0  0  0  0  0
  -24.6175  -11.7060   20.7179 C   0  0  0  0  0  0  0  0  0  0  0  0
  -31.2472  -16.8279   22.6579 C   0  0  0  0  0  0  0  0  0  0  0  0
  -25.1838  -13.8164   20.4720 C   0  0  0  0  0  0  0  0  0  0  0  0
  -22.8201  -13.4781   21.2116 C   0  0  0  0  0  0  0  0  0  0  0  0
  -24.5872  -13.4922   30.6968 C   0  0  0  0  0  0  0  0  0  0  0  0
  -29.0289  -17.2913   23.7175 C   0  0  0  0  0  0  0  0  0  0  0  0
  -26.6728  -11.1391   29.8998 C   0  0  0  0  0  0  0  0  0  0  0  0
  -29.1585  -10.0490   27.8310 C   0  0  0  0  0  0  0  0  0  0  0  0
  -30.9476  -14.0590   20.9560 C   0  0  0  0  0  0  0  0  0  0  0  0
  -20.3323  -13.9315   33.4827 C   0  0  0  0  0  0  0  0  0  0  0  0
  -24.1225  -13.2208   28.2338 C   0  0  0  0  0  0  0  0  0  0  0  0
  -27.0220  -13.3791   28.7928 C   0  0  0  0  0  0  0  0  0  0  0  0
  -21.5418  -13.0001   33.4762 C   0  0  0  0  0  0  0  0  0  0  0  0
  -29.3558  -13.1284   17.9102 C   0  0  0  0  0  0  0  0  0  0  0  0
  -22.8358  -13.8058   33.4201 C   0  0  0  0  0  0  0  0  0  0  0  0
  -27.9257  -12.7888   18.3338 C   0  0  0  0  0  0  0  0  0  0  0  0
  -30.3735  -12.7009   18.9655 C   0  0  0  0  0  0  0  0  0  0  0  0
  -28.6793  -12.8725   20.7470 C   0  0  0  0  0  0  0  0  0  0  0  0
  -22.9116  -14.6390   32.1350 C   0  0  1  0  0  0  0  0  0  0  0  0
  -24.7327  -12.6081   29.4906 C   0  0  1  0  0  0  0  0  0  0  0  0
  -27.6126  -13.3351   19.7398 C   0  0  2  0  0  0  0  0  0  0  0  0
  -32.3040  -20.0214   21.1686 C   0  0  0  0  0  0  0  0  0  0  0  0
  -30.6925   -8.0995   27.4518 C   0  0  0  0  0  0  0  0  0  0  0  0
  -28.3916  -12.0364   32.2557 C   0  0  0  0  0  0  0  0  0  0  0  0
  -30.2926  -10.7360   31.2742 C   0  0  0  0  0  0  0  0  0  0  0  0
  -28.2108   -9.5573   31.9808 C   0  0  0  0  0  0  0  0  0  0  0  0
  -28.0421   -9.5459   25.1367 C   0  0  0  0  0  0  0  0  0  0  0  0
  -31.3704  -15.3950   23.0043 C   0  0  0  0  0  0  0  0  0  0  0  0
  -28.0364  -18.3927   23.9341 C   0  0  0  0  0  0  0  0  0  0  0  0
  -26.8303  -17.8646   24.6904 C   0  0  0  0  0  0  0  0  0  1  0  0
  -28.1756  -10.9964   29.9025 C   0  0  1  0  0  0  0  0  0  0  0  0
  -29.3558   -8.7335   27.0996 C   0  0  2  0  0  0  0  0  0  0  0  0
  -28.7547  -10.8518   31.3382 C   0  0  0  0  0  0  0  0  0  0  0  0
  -25.8938  -11.6664   20.3260 N   0  0  0  0  0  0  0  0  0  0  0  0
  -30.1808  -17.6386   22.9978 N   0  0  0  0  0  0  0  0  0  0  0  0
  -26.2098  -12.9650   20.1845 N   0  0  0  0  0  0  0  0  0  0  0  0
  -26.1606  -12.3193   29.3427 N   0  0  0  0  0  0  0  0  0  0  0  0
  -30.0199  -13.2533   20.2753 N   0  0  0  0  0  0  0  0  0  0  0  0
  -25.3300  -15.1554   20.3818 N   0  0  0  0  0  0  0  0  0  0  0  0
  -21.8474  -12.5252   21.5435 N   0  0  0  0  0  0  0  0  0  0  0  0
  -23.2781  -13.8033   31.0117 N   0  0  0  0  0  0  0  0  0  0  0  0
  -28.4809   -9.8760   29.0194 N   0  0  0  0  0  0  0  0  0  0  0  0
  -30.5302  -14.5472   22.1882 N   0  0  0  0  0  0  0  0  0  0  0  0
  -29.3115   -8.9487   25.6256 N   0  3  0  0  0  0  0  0  0  0  0  0
  -22.5226  -14.6963   21.2446 O   0  0  0  0  0  0  0  0  0  0  0  0
  -25.5883  -13.8635   31.2981 O   0  0  0  0  0  0  0  0  0  0  0  0
  -28.8981  -16.1428   24.1173 O   0  0  0  0  0  0  0  0  0  0  0  0
  -25.9785  -10.2333   30.3682 O   0  0  0  0  0  0  0  0  0  0  0  0
  -29.5680  -11.1222   27.3938 O   0  0  0  0  0  0  0  0  0  0  0  0
  -32.0629  -14.3280   20.4971 O   0  0  0  0  0  0  0  0  0  0  0  0
  -21.8454   -6.9576   21.7353 O   0  0  0  0  0  0  0  0  0  0  0  0
  -27.2493  -17.3602   25.9578 O   0  0  0  0  0  0  0  0  0  1  0  0
  -18.7731   -6.7080   26.3072 F   0  0  0  0  0  0  0  0  0  0  0  0
  -19.7559   -8.7224   22.1381 F   0  0  0  0  0  0  0  0  0  0  0  0
  1  2  1  0  0  0  0
  1  5  2  0  0  0  0
  2  6  2  0  0  0  0
  3  8  2  0  0  0  0
  3 17  1  0  0  0  0
  4  9  1  0  0  0  0
  4 17  2  0  0  0  0
  5 19  1  0  0  0  0
  6 21  1  0  0  0  0
  7 10  2  0  0  0  0
  7 20  1  0  0  0  0
  8 24  1  0  0  0  0
  9 24  2  0  0  0  0
 10 25  1  0  0  0  0
 11 12  2  0  0  0  0
 11 26  1  0  0  0  0
 12 27  1  0  0  0  0
 13 22  1  0  0  0  0
 13 25  2  0  0  0  0
 14 23  1  0  0  0  0
 14 30  2  0  0  0  0
 15 27  2  0  0  0  0
 15 28  1  0  0  0  0
 16 23  2  0  0  0  0
 16 63  1  0  0  0  0
 17 29  1  0  0  0  0
 18 29  1  0  0  0  0
 18 31  2  0  0  0  0
 18 32  1  0  0  0  0
 19 21  2  0  0  0  0
 19 38  1  0  0  0  0
 20 22  2  0  0  0  0
 20 39  1  0  0  0  0
 21 47  1  0  0  0  0
 22 40  1  0  0  0  0
 23 50  1  0  0  0  0
 24 79  1  0  0  0  0
 25 80  1  0  0  0  0
 26 28  2  0  0  0  0
 26 79  1  0  0  0  0
 27 81  1  0  0  0  0
 28 82  1  0  0  0  0
 29 62  2  0  0  0  0
 30 56  1  0  0  0  0
 30 63  1  0  0  0  0
 31 64  1  0  0  0  0
 31 67  1  0  0  0  0
 32 68  1  0  0  0  0
 32 73  2  0  0  0  0
 33 48  1  0  0  0  0
 33 69  1  0  0  0  0
 33 74  2  0  0  0  0
 34 57  1  0  0  0  0
 34 63  1  0  0  0  0
 34 75  2  0  0  0  0
 35 59  1  0  0  0  0
 35 65  1  0  0  0  0
 35 76  2  0  0  0  0
 36 60  1  0  0  0  0
 36 70  1  0  0  0  0
 36 77  2  0  0  0  0
 37 66  1  0  0  0  0
 37 71  1  0  0  0  0
 37 78  2  0  0  0  0
 38 41  1  0  0  0  0
 39 48  1  0  0  0  0
 40 65  1  0  0  0  0
 41 43  1  0  0  0  0
 42 44  1  0  0  0  0
 42 45  1  0  0  0  0
 43 47  1  0  0  0  0
 44 49  1  0  0  0  0
 45 66  1  0  0  0  0
 46 49  1  0  0  0  0
 46 66  1  0  0  0  0
 47 69  1  0  0  0  0
 48 65  1  0  0  0  0
 49 64  1  0  0  0  0
 51 60  1  0  0  0  0
 52 61  1  0  0  0  0
 53 61  1  0  0  0  0
 54 61  1  0  0  0  0
 55 72  1  0  0  0  0
 56 71  1  0  0  0  0
 57 58  1  0  0  0  0
 58 80  1  0  0  0  0
 59 61  1  0  0  0  0
 59 70  1  0  0  0  0
 60 72  1  0  0  0  0
 62 64  1  0  0  0  0
M  CHG  1  72   1
M  ISO  4  37 100  58 101  71 100  80 101
M  END
> <Batch ID>
0160

> <Smiles>
CNC(C)C(=O)NC(C(=O)N1Cc2cc([101O:1][101CH2:1]CC(=O)n3cc(C)cc3C[100NH:0][100C:0](=O)N3CCCC(n4nc(-c5ccc(Oc6ccc(F)cc6F)cc5)c(C(N)=O)c4N)C3)ccc2CC1C(=O)NC1CCCc2ccccc21)C(C)(C)C

> <Shape>
0.166

> <Color>
0.189

> <Negative vol penalty>
0.000

$$$$

  -OEChem-04052303503D

 85 94  0     1  0  0  0  0  0999 V2000
  -25.1005  -37.6240   20.4175 C   0  0  0  0  0  0  0  0  0  0  0  0
  -25.8699  -36.5191   20.0675 C   0  0  0  0  0  0  0  0  0  0  0  0
  -26.1689   -9.3515   21.2943 C   0  0  0  0  0  0  0  0  0  0  0  0
  -26.7774  -10.7747   23.1494 C   0  0  0  0  0  0  0  0  0  0  0  0
  -24.2991  -37.5811   21.5576 C   0  0  0  0  0  0  0  0  0  0  0  0
  -25.8392  -35.3709   20.8582 C   0  0  0  0  0  0  0  0  0  0  0  0
  -26.2801  -29.5702   18.9442 C   0  0  0  0  0  0  0  0  0  0  0  0
  -26.8760   -8.2968   21.8715 C   0  0  0  0  0  0  0  0  0  0  0  0
  -27.4844   -9.7200   23.7267 C   0  0  0  0  0  0  0  0  0  0  0  0
  -27.3489  -28.6761   18.8989 C   0  0  0  0  0  0  0  0  0  0  0  0
  -26.4032   -6.0382   24.3430 C   0  0  0  0  0  0  0  0  0  0  0  0
  -25.7910   -4.7851   24.3697 C   0  0  0  0  0  0  0  0  0  0  0  0
  -28.6323  -20.2303   20.1923 C   0  0  0  0  0  0  0  0  0  0  0  0
  -26.6440  -27.7361   21.0057 C   0  0  0  0  0  0  0  0  0  0  0  0
  -30.8041  -20.3018   21.2977 C   0  0  0  0  0  0  0  0  0  0  0  0
  -27.6060   -3.8706   23.0633 C   0  0  0  0  0  0  0  0  0  0  0  0
  -26.1196  -10.5905   21.9332 C   0  0  0  0  0  0  0  0  0  0  0  0
  -24.0340  -12.0041   21.5339 C   0  0  0  0  0  0  0  0  0  0  0  0
  -24.2511  -36.4284   22.3572 C   0  0  0  0  0  0  0  0  0  0  0  0
  -25.3901  -29.5612   20.0277 C   0  0  0  0  0  0  0  0  0  0  0  0
  -25.0374  -35.3130   22.0108 C   0  0  0  0  0  0  0  0  0  0  0  0
  -28.6406  -18.8700   20.3982 C   0  0  0  0  0  0  0  0  0  0  0  0
  -25.5632  -28.6294   21.0611 C   0  0  0  0  0  0  0  0  0  0  0  0
  -29.6820  -18.2352   21.0313 C   0  0  0  0  0  0  0  0  0  0  0  0
  -29.7363  -20.9535   20.6509 C   0  0  0  0  0  0  0  0  0  0  0  0
  -30.7817  -18.9187   21.4943 C   0  0  0  0  0  0  0  0  0  0  0  0
  -27.5337   -8.4810   23.0877 C   0  0  0  0  0  0  0  0  0  0  0  0
  -27.5326  -27.7608   19.9311 C   0  0  0  0  0  0  0  0  0  0  0  0
  -27.6167   -6.2075   23.6764 C   0  0  0  0  0  0  0  0  0  0  0  0
  -26.3924   -3.7014   23.7299 C   0  0  0  0  0  0  0  0  0  0  0  0
  -28.2181   -5.1237   23.0366 C   0  0  0  0  0  0  0  0  0  0  0  0
  -25.3898  -11.6806   21.3371 C   0  0  0  0  0  0  0  0  0  0  0  0
  -23.8286  -13.1138   20.7510 C   0  0  0  0  0  0  0  0  0  0  0  0
  -28.2948  -25.5498   19.8916 C   0  0  0  0  0  0  0  0  0  1  0  0
  -23.0482  -11.3593   22.3514 C   0  0  0  0  0  0  0  0  0  0  0  0
  -29.2410  -24.6039   19.8531 C   0  0  0  0  0  0  0  0  0  0  0  0
  -28.8290  -23.1622   19.8579 C   0  0  0  0  0  0  0  0  0  0  0  0
  -27.6178  -17.3149   18.7040 C   0  0  0  0  0  0  0  0  0  0  0  0
  -24.5647  -31.6576   22.2700 C   0  0  0  0  0  0  0  0  0  0  0  0
  -22.3769  -29.3884   23.0358 C   0  0  0  0  0  0  0  0  0  0  0  0
  -21.4645  -26.1007   22.9595 C   0  0  0  0  0  0  0  0  0  0  0  0
  -23.4061  -36.4460   23.6063 C   0  0  0  0  0  0  0  0  0  0  0  0
  -24.2267  -30.5144   20.0486 C   0  0  0  0  0  0  0  0  0  0  0  0
  -29.0567  -16.8772   20.9102 C   0  0  0  0  0  0  0  0  0  0  0  0
  -24.6240  -28.5653   22.2368 C   0  0  0  0  0  0  0  0  0  0  0  0
  -23.1427  -35.0575   24.1832 C   0  0  0  0  0  0  0  0  0  0  0  0
  -25.3945  -15.2421   16.7721 C   0  0  0  0  0  0  0  0  0  0  0  0
  -24.4340  -34.2471   24.2346 C   0  0  0  0  0  0  0  0  0  0  0  0
  -25.0456  -14.1058   17.7324 C   0  0  0  0  0  0  0  0  0  0  0  0
  -26.8298  -15.7195   16.9696 C   0  0  0  0  0  0  0  0  0  0  0  0
  -26.7955  -14.9936   19.3369 C   0  0  0  0  0  0  0  0  0  0  0  0
  -27.8587  -17.5998   20.1949 C   0  0  1  0  0  0  0  0  0  0  0  0
  -25.0119  -34.0404   22.8293 C   0  0  1  0  0  0  0  0  0  0  0  0
  -23.6804  -30.7598   21.4517 C   0  0  1  0  0  0  0  0  0  0  0  0
  -25.3446  -14.5028   19.1889 C   0  0  2  0  0  0  0  0  0  0  0  0
  -19.6399  -24.5450   23.6999 C   0  0  0  0  0  0  0  0  0  0  0  0
  -23.4381  -29.5079   25.8941 C   0  0  0  0  0  0  0  0  0  0  0  0
  -22.2825  -27.3322   26.3400 C   0  0  0  0  0  0  0  0  0  0  0  0
  -20.9493  -29.3446   25.7113 C   0  0  0  0  0  0  0  0  0  0  0  0
  -20.8404  -25.3203   20.1738 C   0  0  0  0  0  0  0  0  0  0  0  0
  -22.3553  -28.1911   23.9551 C   0  0  1  0  0  0  0  0  0  0  0  0
  -20.1602  -25.4260   22.5748 C   0  0  2  0  0  0  0  0  0  0  0  0
  -22.2753  -28.5962   25.4541 C   0  0  0  0  0  0  0  0  0  0  0  0
  -26.0026  -12.5170   20.4951 N   0  0  0  0  0  0  0  0  0  0  0  0
  -25.0272  -13.3770   20.1558 N   0  0  0  0  0  0  0  0  0  0  0  0
  -27.0857  -16.0597   18.3702 N   0  0  0  0  0  0  0  0  0  0  0  0
  -23.5053  -29.5222   22.2146 N   0  0  0  0  0  0  0  0  0  0  0  0
  -31.8365  -18.2550   22.1361 N   0  0  0  0  0  0  0  0  0  0  0  0
  -22.7415  -13.8802   20.5205 N   0  0  0  0  0  0  0  0  0  0  0  0
  -23.4280  -10.2312   23.0913 N   0  0  0  0  0  0  0  0  0  0  0  0
  -29.7823  -22.3563   20.4650 N   0  0  0  0  0  0  0  0  0  0  0  0
  -24.2834  -33.0033   22.1307 N   0  0  0  0  0  0  0  0  0  0  0  0
  -21.2522  -27.3497   23.5038 N   0  0  0  0  0  0  0  0  0  0  0  0
  -20.3530  -24.5779   21.3646 N   0  3  0  0  0  0  0  0  0  0  0  0
  -21.8616  -11.7615   22.4108 O   0  0  0  0  0  0  0  0  0  0  0  0
  -27.7623  -22.8102   19.3658 O   0  0  0  0  0  0  0  0  0  0  0  0
  -27.8890  -18.1722   17.8497 O   0  0  0  0  0  0  0  0  0  0  0  0
  -25.4367  -31.1657   22.9767 O   0  0  0  0  0  0  0  0  0  0  0  0
  -21.4242  -30.1719   23.0410 O   0  0  0  0  0  0  0  0  0  0  0  0
  -22.5616  -25.5711   22.7972 O   0  0  0  0  0  0  0  0  0  0  0  0
  -30.5877  -24.9026   19.8076 O   0  0  0  0  0  0  0  0  0  0  0  0
  -28.2236   -7.4520   23.6514 O   0  0  0  0  0  0  0  0  0  0  0  0
  -28.5754  -26.8874   19.8897 O   0  0  0  0  0  0  0  0  0  1  0  0
  -25.8052   -2.4978   23.7570 F   0  0  0  0  0  0  0  0  0  0  0  0
  -29.3845   -5.2800   22.3955 F   0  0  0  0  0  0  0  0  0  0  0  0
  1  2  1  0  0  0  0
  1  5  2  0  0  0  0
  2  6  2  0  0  0  0
  3  8  2  0  0  0  0
  3 17  1  0  0  0  0
  4  9  1  0  0  0  0
  4 17  2  0  0  0  0
  5 19  1  0  0  0  0
  6 21  1  0  0  0  0
  7 10  2  0  0  0  0
  7 20  1  0  0  0  0
  8 27  1  0  0  0  0
  9 27  2  0  0  0  0
 10 28  1  0  0  0  0
 11 12  2  0  0  0  0
 11 29  1  0  0  0  0
 12 30  1  0  0  0  0
 13 22  1  0  0  0  0
 13 25  2  0  0  0  0
 14 23  1  0  0  0  0
 14 28  2  0  0  0  0
 15 25  1  0  0  0  0
 15 26  2  0  0  0  0
 16 30  2  0  0  0  0
 16 31  1  0  0  0  0
 17 32  1  0  0  0  0
 18 32  1  0  0  0  0
 18 33  2  0  0  0  0
 18 35  1  0  0  0  0
 19 21  2  0  0  0  0
 19 42  1  0  0  0  0
 20 23  2  0  0  0  0
 20 43  1  0  0  0  0
 21 53  1  0  0  0  0
 22 24  2  0  0  0  0
 22 52  1  0  0  0  0
 23 45  1  0  0  0  0
 24 26  1  0  0  0  0
 24 44  1  0  0  0  0
 25 71  1  0  0  0  0
 26 68  1  0  0  0  0
 27 82  1  0  0  0  0
 28 83  1  0  0  0  0
 29 31  2  0  0  0  0
 29 82  1  0  0  0  0
 30 84  1  0  0  0  0
 31 85  1  0  0  0  0
 32 64  2  0  0  0  0
 33 65  1  0  0  0  0
 33 69  1  0  0  0  0
 34 36  2  0  0  0  0
 34 83  1  0  0  0  0
 35 70  1  0  0  0  0
 35 75  2  0  0  0  0
 36 37  1  0  0  0  0
 36 81  1  0  0  0  0
 37 71  1  0  0  0  0
 37 76  2  0  0  0  0
 38 52  1  0  0  0  0
 38 66  1  0  0  0  0
 38 77  2  0  0  0  0
 39 54  1  0  0  0  0
 39 72  1  0  0  0  0
 39 78  2  0  0  0  0
 40 61  1  0  0  0  0
 40 67  1  0  0  0  0
 40 79  2  0  0  0  0
 41 62  1  0  0  0  0
 41 73  1  0  0  0  0
 41 80  2  0  0  0  0
 42 46  1  0  0  0  0
 43 54  1  0  0  0  0
 44 52  1  0  0  0  0
 45 67  1  0  0  0  0
 46 48  1  0  0  0  0
 47 49  1  0  0  0  0
 47 50  1  0  0  0  0
 48 53  1  0  0  0  0
 49 55  1  0  0  0  0
 50 66  1  0  0  0  0
 51 55  1  0  0  0  0
 51 66  1  0  0  0  0
 53 72  1  0  0  0  0
 54 67  1  0  0  0  0
 55 65  1  0  0  0  0
 56 62  1  0  0  0  0
 57 63  1  0  0  0  0
 58 63  1  0  0  0  0
 59 63  1  0  0  0  0
 60 74  1  0  0  0  0
 61 63  1  0  0  0  0
 61 73  1  0  0  0  0
 62 74  1  0  0  0  0
 64 65  1  0  0  0  0
M  CHG  1  74   1
M  ISO  4  34 101  38 100  52 100  83 101
M  END
> <Batch ID>
0160

> <Smiles>
CNC(C)C(=O)NC(C(=O)N1Cc2cc([101O:1][101CH2:1]C(=O)C(=O)Nc3cc(N)c4c(c3)[100CH:0]([100C:0](=O)N3CCCC(n5nc(-c6ccc(Oc7ccc(F)cc7F)cc6)c(C(N)=O)c5N)C3)C4)ccc2CC1C(=O)NC1CCCc2ccccc21)C(C)(C)C

> <Shape>
0.253

> <Color>
0.080

> <Negative vol penalty>
0.000

$$$$

  -OEChem-04052303503D

 83 92  0     1  0  0  0  0  0999 V2000
  -29.9808  -33.2862   26.0080 C   0  0  0  0  0  0  0  0  0  0  0  0
  -29.2478  -32.1914   25.5611 C   0  0  0  0  0  0  0  0  0  0  0  0
  -24.5950   -8.8372   21.0858 C   0  0  0  0  0  0  0  0  0  0  0  0
  -22.7716  -10.3566   20.6343 C   0  0  0  0  0  0  0  0  0  0  0  0
  -29.3382  -34.4972   26.2617 C   0  0  0  0  0  0  0  0  0  0  0  0
  -27.8715  -32.3068   25.3688 C   0  0  0  0  0  0  0  0  0  0  0  0
  -26.3361  -30.2185   21.0183 C   0  0  0  0  0  0  0  0  0  0  0  0
  -23.6805   -7.8142   21.3364 C   0  0  0  0  0  0  0  0  0  0  0  0
  -21.8571   -9.3336   20.8849 C   0  0  0  0  0  0  0  0  0  0  0  0
  -26.2170  -28.8298   20.9858 C   0  0  0  0  0  0  0  0  0  0  0  0
  -21.6568   -6.8471   23.8649 C   0  0  0  0  0  0  0  0  0  0  0  0
  -21.8702   -6.0490   24.9888 C   0  0  0  0  0  0  0  0  0  0  0  0
  -23.8339  -29.0329   21.3005 C   0  0  0  0  0  0  0  0  0  0  0  0
  -22.0304   -4.0979   23.5730 C   0  0  0  0  0  0  0  0  0  0  0  0
  -22.5077  -18.4344   19.1240 C   0  0  0  0  0  0  0  0  0  0  0  0
  -24.1405  -10.1085   20.7348 C   0  0  0  0  0  0  0  0  0  0  0  0
  -26.0891  -11.1863   19.4903 C   0  0  0  0  0  0  0  0  0  0  0  0
  -27.9549  -34.6302   26.0632 C   0  0  0  0  0  0  0  0  0  0  0  0
  -25.2046  -31.0258   21.2034 C   0  0  0  0  0  0  0  0  0  0  0  0
  -27.2096  -33.5203   25.6214 C   0  0  0  0  0  0  0  0  0  0  0  0
  -23.9410  -30.4317   21.3324 C   0  0  0  0  0  0  0  0  0  0  0  0
  -22.3116   -8.0624   21.2359 C   0  0  0  0  0  0  0  0  0  0  0  0
  -24.9661  -28.2367   21.1298 C   0  0  0  0  0  0  0  0  0  0  0  0
  -21.6302   -6.2705   22.5950 C   0  0  0  0  0  0  0  0  0  0  0  0
  -22.0570   -4.6745   24.8429 C   0  0  0  0  0  0  0  0  0  0  0  0
  -21.8170   -4.8960   22.4491 C   0  0  0  0  0  0  0  0  0  0  0  0
  -25.0847  -11.1658   20.4764 C   0  0  0  0  0  0  0  0  0  0  0  0
  -23.3716  -18.6085   20.1850 C   0  0  0  0  0  0  0  0  0  0  0  0
  -26.7084  -12.4010   19.6562 C   0  0  0  0  0  0  0  0  0  0  0  0
  -22.8697  -20.7120   19.8198 C   0  0  0  0  0  0  0  0  0  0  0  0
  -26.4316  -10.1960   18.5117 C   0  0  0  0  0  0  0  0  0  0  0  0
  -24.2747  -33.1119   23.4141 C   0  0  0  0  0  0  0  0  0  0  0  0
  -21.8257  -33.6182   21.3481 C   0  0  0  0  0  0  0  0  0  0  0  0
  -19.8889  -32.4269   18.8032 C   0  0  0  0  0  0  0  0  0  0  0  0
  -24.9052  -17.6263   21.9255 C   0  0  0  0  0  0  0  0  0  0  0  0
  -27.2969  -35.9458   26.3962 C   0  0  0  0  0  0  0  0  0  0  0  0
  -25.3464  -32.5233   21.2094 C   0  0  0  0  0  0  0  0  0  0  0  0
  -22.6925  -31.2546   21.5132 C   0  0  0  0  0  0  0  0  0  0  0  0
  -25.8954  -36.0918   25.8089 C   0  0  0  0  0  0  0  0  0  0  0  0
  -27.6838  -15.6803   23.0072 C   0  0  0  0  0  0  0  0  0  0  0  0
  -25.0779  -34.8283   26.0581 C   0  0  0  0  0  0  0  0  0  0  0  0
  -24.2189  -22.8501   19.6959 C   0  0  0  0  0  0  0  0  0  0  0  0
  -22.2756  -22.6685   21.3115 C   0  0  0  0  0  0  0  0  0  0  0  0
  -24.1733  -24.3731   19.8173 C   0  0  0  0  0  0  0  0  0  0  0  0
  -22.2349  -24.1919   21.4288 C   0  0  0  0  0  0  0  0  0  0  0  0
  -27.4271  -14.3053   22.3862 C   0  0  0  0  0  0  0  0  0  0  0  0
  -26.3869  -16.3498   23.4585 C   0  0  0  0  0  0  0  0  0  0  0  0
  -25.0864  -15.0633   21.8084 C   0  0  0  0  0  0  0  0  0  0  0  0
  -25.7190  -33.6131   25.3771 C   0  0  1  0  0  0  0  0  0  0  0  0
  -22.8375  -22.2239   19.9507 C   0  0  0  0  0  0  0  0  0  0  0  0
  -24.1950  -33.2297   21.9183 C   0  0  1  0  0  0  0  0  0  0  0  0
  -23.6127  -24.8174   21.1746 C   0  0  0  0  0  0  0  0  0  0  0  0
  -26.3568  -14.3777   21.2795 C   0  0  2  0  0  0  0  0  0  0  0  0
  -17.9424  -33.0547   17.3490 C   0  0  0  0  0  0  0  0  0  0  0  0
  -19.9207  -33.0807   23.6701 C   0  0  0  0  0  0  0  0  0  0  0  0
  -18.0802  -32.7808   21.9996 C   0  0  0  0  0  0  0  0  0  0  0  0
  -19.2473  -34.9776   22.1859 C   0  0  0  0  0  0  0  0  0  0  0  0
  -21.5174  -32.2319   16.3397 C   0  0  0  0  0  0  0  0  0  0  0  0
  -23.5354  -26.3410   21.2528 C   0  0  0  0  0  0  0  0  0  1  0  0
  -20.4563  -33.0161   21.1453 C   0  0  1  0  0  0  0  0  0  0  0  0
  -19.4568  -33.0516   17.4888 C   0  0  2  0  0  0  0  0  0  0  0  0
  -19.4497  -33.4480   22.2488 C   0  0  0  0  0  0  0  0  0  0  0  0
  -25.0637  -12.2789   21.2143 N   0  0  0  0  0  0  0  0  0  0  0  0
  -23.5807  -19.9139   20.5850 N   0  0  0  0  0  0  0  0  0  0  0  0
  -26.0626  -13.0103   20.6915 N   0  0  0  0  0  0  0  0  0  0  0  0
  -22.8839  -32.7143   21.5187 N   0  0  0  0  0  0  0  0  0  0  0  0
  -25.4222  -16.3865   22.3573 N   0  0  0  0  0  0  0  0  0  0  0  0
  -27.7369  -12.9966   19.0160 N   0  0  0  0  0  0  0  0  0  0  0  0
  -25.8007  -10.2462   17.2612 N   0  0  0  0  0  0  0  0  0  0  0  0
  -24.0215  -17.5396   20.8503 N   0  0  0  0  0  0  0  0  0  0  0  0
  -25.4380  -33.6227   23.9575 N   0  0  0  0  0  0  0  0  0  0  0  0
  -20.0489  -33.3753   19.7912 N   0  0  0  0  0  0  0  0  0  0  0  0
  -20.0331  -32.2951   16.3415 N   0  3  0  0  0  0  0  0  0  0  0  0
  -27.2602   -9.2836   18.7451 O   0  0  0  0  0  0  0  0  0  0  0  0
  -23.3486  -32.5972   24.0299 O   0  0  0  0  0  0  0  0  0  0  0  0
  -21.9530  -34.8451   21.3477 O   0  0  0  0  0  0  0  0  0  0  0  0
  -20.0632  -31.2181   18.9407 O   0  0  0  0  0  0  0  0  0  0  0  0
  -25.2440  -18.6894   22.4519 O   0  0  0  0  0  0  0  0  0  0  0  0
  -21.4190   -7.0643   21.4801 O   0  0  0  0  0  0  0  0  0  0  0  0
  -24.8471  -26.8814   21.0990 O   0  0  0  0  0  0  0  0  0  1  0  0
  -22.2634   -3.9084   25.9221 F   0  0  0  0  0  0  0  0  0  0  0  0
  -21.7936   -4.3366   21.2316 F   0  0  0  0  0  0  0  0  0  0  0  0
  -21.9263  -19.9602   18.5993 S   0  0  0  0  0  0  0  0  0  0  0  0
  1  2  1  0  0  0  0
  1  5  2  0  0  0  0
  2  6  2  0  0  0  0
  3  8  2  0  0  0  0
  3 16  1  0  0  0  0
  4  9  1  0  0  0  0
  4 16  2  0  0  0  0
  5 18  1  0  0  0  0
  6 20  1  0  0  0  0
  7 10  2  0  0  0  0
  7 19  1  0  0  0  0
  8 22  1  0  0  0  0
  9 22  2  0  0  0  0
 10 23  1  0  0  0  0
 11 12  2  0  0  0  0
 11 24  1  0  0  0  0
 12 25  1  0  0  0  0
 13 21  1  0  0  0  0
 13 23  2  0  0  0  0
 14 25  2  0  0  0  0
 14 26  1  0  0  0  0
 15 28  2  0  0  0  0
 15 83  1  0  0  0  0
 16 27  1  0  0  0  0
 17 27  1  0  0  0  0
 17 29  2  0  0  0  0
 17 31  1  0  0  0  0
 18 20  2  0  0  0  0
 18 36  1  0  0  0  0
 19 21  2  0  0  0  0
 19 37  1  0  0  0  0
 20 49  1  0  0  0  0
 21 38  1  0  0  0  0
 22 79  1  0  0  0  0
 23 80  1  0  0  0  0
 24 26  2  0  0  0  0
 24 79  1  0  0  0  0
 25 81  1  0  0  0  0
 26 82  1  0  0  0  0
 27 63  2  0  0  0  0
 28 64  1  0  0  0  0
 28 70  1  0  0  0  0
 29 65  1  0  0  0  0
 29 68  1  0  0  0  0
 30 50  1  0  0  0  0
 30 64  2  0  0  0  0
 30 83  1  0  0  0  0
 31 69  1  0  0  0  0
 31 74  2  0  0  0  0
 32 51  1  0  0  0  0
 32 71  1  0  0  0  0
 32 75  2  0  0  0  0
 33 60  1  0  0  0  0
 33 66  1  0  0  0  0
 33 76  2  0  0  0  0
 34 61  1  0  0  0  0
 34 72  1  0  0  0  0
 34 77  2  0  0  0  0
 35 67  1  0  0  0  0
 35 70  1  0  0  0  0
 35 78  2  0  0  0  0
 36 39  1  0  0  0  0
 37 51  1  0  0  0  0
 38 66  1  0  0  0  0
 39 41  1  0  0  0  0
 40 46  1  0  0  0  0
 40 47  1  0  0  0  0
 41 49  1  0  0  0  0
 42 44  1  0  0  0  0
 42 50  1  0  0  0  0
 43 45  1  0  0  0  0
 43 50  1  0  0  0  0
 44 52  1  0  0  0  0
 45 52  1  0  0  0  0
 46 53  1  0  0  0  0
 47 67  1  0  0  0  0
 48 53  1  0  0  0  0
 48 67  1  0  0  0  0
 49 71  1  0  0  0  0
 51 66  1  0  0  0  0
 52 59  1  0  0  0  0
 53 65  1  0  0  0  0
 54 61  1  0  0  0  0
 55 62  1  0  0  0  0
 56 62  1  0  0  0  0
 57 62  1  0  0  0  0
 58 73  1  0  0  0  0
 59 80  1  0  0  0  0
 60 62  1  0  0  0  0
 60 72  1  0  0  0  0
 61 73  1  0  0  0  0
 63 65  1  0  0  0  0
M  CHG  1  73   1
M  ISO  4  35 100  59 101  70 100  80 101
M  END
> <Batch ID>
0160

> <Smiles>
CNC(C)C(=O)NC(C(=O)N1Cc2cc([101O:1][101CH2:1]C3CCC(c4nc([100NH:0][100C:0](=O)N5CCCC(n6nc(-c7ccc(Oc8ccc(F)cc8F)cc7)c(C(N)=O)c6N)C5)cs4)CC3)ccc2CC1C(=O)NC1CCCc2ccccc21)C(C)(C)C

> <Shape>
0.207

> <Color>
0.113

> <Negative vol penalty>
0.000

$$$$

  -OEChem-04052303503D

 86 95  0     1  0  0  0  0  0999 V2000
  -14.8094  -27.2732   23.2395 C   0  0  0  0  0  0  0  0  0  0  0  0
  -15.4087  -27.0655   22.0013 C   0  0  0  0  0  0  0  0  0  0  0  0
  -32.2505  -18.2708   19.1641 C   0  0  0  0  0  0  0  0  0  0  0  0
  -22.8018  -10.9754   22.1231 C   0  0  0  0  0  0  0  0  0  0  0  0
  -23.5752  -13.2052   22.6396 C   0  0  0  0  0  0  0  0  0  0  0  0
  -15.3903  -28.1489   24.1558 C   0  0  0  0  0  0  0  0  0  0  0  0
  -16.5889  -27.7343   21.6783 C   0  0  0  0  0  0  0  0  0  0  0  0
  -31.3516  -19.3355   19.1021 C   0  0  0  0  0  0  0  0  0  0  0  0
  -22.5665  -24.0943   19.9725 C   0  0  0  0  0  0  0  0  0  0  0  0
  -31.7884  -16.9827   19.4344 C   0  0  0  0  0  0  0  0  0  0  0  0
  -21.9219  -11.0301   23.2040 C   0  0  0  0  0  0  0  0  0  0  0  0
  -22.6953  -13.2599   23.7206 C   0  0  0  0  0  0  0  0  0  0  0  0
  -23.6921  -23.4731   19.4310 C   0  0  0  0  0  0  0  0  0  0  0  0
  -22.5651  -12.0866   26.8888 C   0  0  0  0  0  0  0  0  0  0  0  0
  -23.0537  -12.5821   28.0976 C   0  0  0  0  0  0  0  0  0  0  0  0
  -29.5284  -17.8241   19.5807 C   0  0  0  0  0  0  0  0  0  0  0  0
  -24.8099  -25.6118   19.2739 C   0  0  0  0  0  0  0  0  0  0  0  0
  -21.4011  -14.3437   28.0436 C   0  0  0  0  0  0  0  0  0  0  0  0
  -23.6284  -12.0629   21.8409 C   0  0  0  0  0  0  0  0  0  0  0  0
  -24.2084  -11.8277   19.3679 C   0  0  0  0  0  0  0  0  0  0  0  0
  -29.9906  -19.1122   19.3104 C   0  0  0  0  0  0  0  0  0  0  0  0
  -16.5833  -28.8214   23.8476 C   0  0  0  0  0  0  0  0  0  0  0  0
  -22.5641  -25.4762   20.1813 C   0  0  0  0  0  0  0  0  0  0  0  0
  -17.1856  -28.6209   22.5908 C   0  0  0  0  0  0  0  0  0  0  0  0
  -23.6900  -26.2378   19.8276 C   0  0  0  0  0  0  0  0  0  0  0  0
  -30.4274  -16.7594   19.6427 C   0  0  0  0  0  0  0  0  0  0  0  0
  -21.8687  -12.1723   24.0028 C   0  0  0  0  0  0  0  0  0  0  0  0
  -24.8109  -24.2300   19.0824 C   0  0  0  0  0  0  0  0  0  0  0  0
  -21.4945  -12.7197   26.2573 C   0  0  0  0  0  0  0  0  0  0  0  0
  -22.4717  -13.7106   28.6751 C   0  0  0  0  0  0  0  0  0  0  0  0
  -20.9125  -13.8482   26.8347 C   0  0  0  0  0  0  0  0  0  0  0  0
  -24.5379  -12.0068   20.7248 C   0  0  0  0  0  0  0  0  0  0  0  0
  -25.4170  -11.8473   18.7156 C   0  0  0  0  0  0  0  0  0  0  0  0
  -22.9247  -11.6589   18.7521 C   0  0  0  0  0  0  0  0  0  0  0  0
  -20.6851  -28.4809   21.4131 C   0  0  0  0  0  0  0  0  0  0  0  0
  -23.5917  -28.8067   22.3382 C   0  0  0  0  0  0  0  0  0  0  0  0
  -26.4647  -29.5885   24.0030 C   0  0  0  0  0  0  0  0  0  0  0  0
  -30.7165  -14.2843   20.0122 C   0  0  0  0  0  0  0  0  0  0  0  0
  -17.1485  -29.7944   24.8519 C   0  0  0  0  0  0  0  0  0  0  0  0
  -21.3508  -26.1958   20.7048 C   0  0  0  0  0  0  0  0  0  0  0  0
  -23.6295  -27.7261   20.0379 C   0  0  0  0  0  0  0  0  0  0  0  0
  -18.6004  -30.1781   24.5778 C   0  0  0  0  0  0  0  0  0  0  0  0
  -30.0511  -10.8429   19.3864 C   0  0  0  0  0  0  0  0  0  0  0  0
  -28.9842  -20.9142   17.8464 C   0  0  0  0  0  0  0  0  0  0  0  0
  -29.2968  -21.3230   20.3280 C   0  0  0  0  0  0  0  0  0  0  0  0
  -18.7936  -30.5175   23.1033 C   0  0  0  0  0  0  0  0  0  0  0  0
  -28.5312  -10.7358   19.5291 C   0  0  0  0  0  0  0  0  0  0  0  0
  -27.9855  -22.0732   17.7832 C   0  0  0  0  0  0  0  0  0  0  0  0
  -28.2955  -22.4791   20.2620 C   0  0  0  0  0  0  0  0  0  0  0  0
  -30.6468  -11.8291   20.3895 C   0  0  0  0  0  0  0  0  0  0  0  0
  -28.5157  -13.0572   20.5280 C   0  0  0  0  0  0  0  0  0  0  0  0
  -29.0127  -20.2713   19.2428 C   0  0  0  0  0  0  0  0  0  0  0  0
  -18.4794  -29.3090   22.2132 C   0  0  1  0  0  0  0  0  0  0  0  0
  -21.7014  -27.3939   21.6052 C   0  0  1  0  0  0  0  0  0  0  0  0
  -27.8627  -12.1241   19.4952 C   0  0  2  0  0  0  0  0  0  0  0  0
  -28.2454  -23.1276   18.8695 C   0  0  0  0  0  0  0  0  0  0  0  0
  -27.7351  -31.5450   24.9282 C   0  0  0  0  0  0  0  0  0  0  0  0
  -24.4668  -29.5679   19.5171 C   0  0  0  0  0  0  0  0  0  0  0  0
  -26.3841  -30.8222   20.5266 C   0  0  0  0  0  0  0  0  0  0  0  0
  -24.0405  -31.5079   21.0366 C   0  0  0  0  0  0  0  0  0  0  0  0
  -26.3216  -28.5254   26.7613 C   0  0  0  0  0  0  0  0  0  0  0  0
  -29.8171  -24.7318   19.5620 C   0  0  0  0  0  0  0  0  0  0  0  0
  -27.1750  -24.2193   18.8199 C   0  0  0  0  0  0  0  0  0  1  0  0
  -24.9559  -29.3779   22.0450 C   0  0  1  0  0  0  0  0  0  0  0  0
  -26.7179  -30.4539   25.2243 C   0  0  2  0  0  0  0  0  0  0  0  0
  -24.9582  -30.2913   20.7868 C   0  0  0  0  0  0  0  0  0  0  0  0
  -25.8528  -12.1308   20.9240 N   0  0  0  0  0  0  0  0  0  0  0  0
  -26.3602  -12.0295   19.6837 N   0  0  0  0  0  0  0  0  0  0  0  0
  -23.0045  -28.0251   21.3358 N   0  0  0  0  0  0  0  0  0  0  0  0
  -29.9673  -13.1231   20.2971 N   0  0  0  0  0  0  0  0  0  0  0  0
  -25.7542  -11.7263   17.4140 N   0  0  0  0  0  0  0  0  0  0  0  0
  -21.7859  -11.6634   19.5692 N   0  0  0  0  0  0  0  0  0  0  0  0
  -29.9583  -15.4507   19.9165 N   0  0  0  0  0  0  0  0  0  0  0  0
  -19.5784  -28.3675   22.2328 N   0  0  0  0  0  0  0  0  0  0  0  0
  -25.3909  -30.0442   23.2679 N   0  0  0  0  0  0  0  0  0  0  0  0
  -27.2332  -29.6238   26.3496 N   0  3  0  0  0  0  0  0  0  0  0  0
  -22.7926  -11.4920   17.5159 O   0  0  0  0  0  0  0  0  0  0  0  0
  -20.8894  -29.3594   20.5836 O   0  0  0  0  0  0  0  0  0  0  0  0
  -23.0564  -29.0501   23.4233 O   0  0  0  0  0  0  0  0  0  0  0  0
  -27.1532  -28.6087   23.7266 O   0  0  0  0  0  0  0  0  0  0  0  0
  -31.9370  -14.2423   19.8370 O   0  0  0  0  0  0  0  0  0  0  0  0
  -21.0101  -12.2262   25.0575 O   0  0  0  0  0  0  0  0  0  0  0  0
  -25.9082  -23.6166   18.5584 O   0  0  0  0  0  0  0  0  0  1  0  0
  -29.5081  -23.7419   18.5952 O   0  0  0  0  0  0  0  0  0  0  0  0
  -22.9400  -14.1853   29.8368 F   0  0  0  0  0  0  0  0  0  0  0  0
  -19.8830  -14.4600   26.2333 F   0  0  0  0  0  0  0  0  0  0  0  0
  1  2  1  0  0  0  0
  1  6  2  0  0  0  0
  2  7  2  0  0  0  0
  3  8  2  0  0  0  0
  3 10  1  0  0  0  0
  4 11  2  0  0  0  0
  4 19  1  0  0  0  0
  5 12  1  0  0  0  0
  5 19  2  0  0  0  0
  6 22  1  0  0  0  0
  7 24  1  0  0  0  0
  8 21  1  0  0  0  0
  9 13  2  0  0  0  0
  9 23  1  0  0  0  0
 10 26  2  0  0  0  0
 11 27  1  0  0  0  0
 12 27  2  0  0  0  0
 13 28  1  0  0  0  0
 14 15  2  0  0  0  0
 14 29  1  0  0  0  0
 15 30  1  0  0  0  0
 16 21  2  0  0  0  0
 16 26  1  0  0  0  0
 17 25  1  0  0  0  0
 17 28  2  0  0  0  0
 18 30  2  0  0  0  0
 18 31  1  0  0  0  0
 19 32  1  0  0  0  0
 20 32  1  0  0  0  0
 20 33  2  0  0  0  0
 20 34  1  0  0  0  0
 21 52  1  0  0  0  0
 22 24  2  0  0  0  0
 22 39  1  0  0  0  0
 23 25  2  0  0  0  0
 23 40  1  0  0  0  0
 24 53  1  0  0  0  0
 25 41  1  0  0  0  0
 26 73  1  0  0  0  0
 27 82  1  0  0  0  0
 28 83  1  0  0  0  0
 29 31  2  0  0  0  0
 29 82  1  0  0  0  0
 30 85  1  0  0  0  0
 31 86  1  0  0  0  0
 32 67  2  0  0  0  0
 33 68  1  0  0  0  0
 33 71  1  0  0  0  0
 34 72  1  0  0  0  0
 34 77  2  0  0  0  0
 35 54  1  0  0  0  0
 35 74  1  0  0  0  0
 35 78  2  0  0  0  0
 36 64  1  0  0  0  0
 36 69  1  0  0  0  0
 36 79  2  0  0  0  0
 37 65  1  0  0  0  0
 37 75  1  0  0  0  0
 37 80  2  0  0  0  0
 38 70  1  0  0  0  0
 38 73  1  0  0  0  0
 38 81  2  0  0  0  0
 39 42  1  0  0  0  0
 40 54  1  0  0  0  0
 41 69  1  0  0  0  0
 42 46  1  0  0  0  0
 43 47  1  0  0  0  0
 43 50  1  0  0  0  0
 44 48  1  0  0  0  0
 44 52  1  0  0  0  0
 45 49  1  0  0  0  0
 45 52  1  0  0  0  0
 46 53  1  0  0  0  0
 47 55  1  0  0  0  0
 48 56  1  0  0  0  0
 49 56  1  0  0  0  0
 50 70  1  0  0  0  0
 51 55  1  0  0  0  0
 51 70  1  0  0  0  0
 53 74  1  0  0  0  0
 54 69  1  0  0  0  0
 55 68  1  0  0  0  0
 56 63  1  0  0  0  0
 56 84  1  0  0  0  0
 57 65  1  0  0  0  0
 58 66  1  0  0  0  0
 59 66  1  0  0  0  0
 60 66  1  0  0  0  0
 61 76  1  0  0  0  0
 62 84  1  0  0  0  0
 63 83  1  0  0  0  0
 64 66  1  0  0  0  0
 64 75  1  0  0  0  0
 65 76  1  0  0  0  0
 67 68  1  0  0  0  0
M  CHG  1  76   1
M  ISO  4  38 100  63 101  73 100  83 101
M  END
> <Batch ID>
0160

> <Smiles>
CNC(C)C(=O)NC(C(=O)N1Cc2cc([101O:1][101CH2:1]C3(OC)CCC(c4cccc([100NH:0][100C:0](=O)N5CCCC(n6nc(-c7ccc(Oc8ccc(F)cc8F)cc7)c(C(N)=O)c6N)C5)c4)CC3)ccc2CC1C(=O)NC1CCCc2ccccc21)C(C)(C)C

> <Shape>
0.273

> <Color>
0.087

> <Negative vol penalty>
0.000

$$$$

  -OEChem-04052303503D

 87 96  0     1  0  0  0  0  0999 V2000
  -23.2931   -7.8100   21.7264 C   0  0  0  0  0  0  0  0  0  0  0  0
  -24.1716   -8.7943   21.2849 C   0  0  0  0  0  0  0  0  0  0  0  0
  -22.3978  -28.9336   20.7178 C   0  0  0  0  0  0  0  0  0  0  0  0
  -23.0512  -26.7553   21.5333 C   0  0  0  0  0  0  0  0  0  0  0  0
  -21.9378   -8.1022   21.8742 C   0  0  0  0  0  0  0  0  0  0  0  0
  -23.6950  -10.0711   20.9897 C   0  0  0  0  0  0  0  0  0  0  0  0
  -26.6424  -13.7297   22.8798 C   0  0  0  0  0  0  0  0  0  0  0  0
  -21.0814  -28.6840   21.1057 C   0  0  0  0  0  0  0  0  0  0  0  0
  -21.7349  -26.5057   21.9213 C   0  0  0  0  0  0  0  0  0  0  0  0
  -27.8200  -14.0180   22.1914 C   0  0  0  0  0  0  0  0  0  0  0  0
  -17.6186  -28.7638   22.2090 C   0  0  0  0  0  0  0  0  0  0  0  0
  -16.9361  -29.7795   22.8785 C   0  0  0  0  0  0  0  0  0  0  0  0
  -26.7482  -15.9207   21.1667 C   0  0  0  0  0  0  0  0  0  0  0  0
  -31.2063  -22.1409   19.2130 C   0  0  0  0  0  0  0  0  0  0  0  0
  -18.5941  -29.7356   24.6352 C   0  0  0  0  0  0  0  0  0  0  0  0
  -30.1306  -22.5249   21.1534 C   0  0  0  0  0  0  0  0  0  0  0  0
  -23.3827  -27.9692   20.9315 C   0  0  0  0  0  0  0  0  0  0  0  0
  -25.5786  -29.2667   20.9781 C   0  0  0  0  0  0  0  0  0  0  0  0
  -21.4460   -9.3860   21.5899 C   0  0  0  0  0  0  0  0  0  0  0  0
  -25.5036  -14.5298   22.7082 C   0  0  0  0  0  0  0  0  0  0  0  0
  -22.3317  -10.3803   21.1325 C   0  0  0  0  0  0  0  0  0  0  0  0
  -25.5581  -15.6420   21.8560 C   0  0  0  0  0  0  0  0  0  0  0  0
  -30.1744  -22.8929   19.8268 C   0  0  0  0  0  0  0  0  0  0  0  0
  -20.7500  -27.4700   21.7075 C   0  0  0  0  0  0  0  0  0  0  0  0
  -27.8722  -15.1119   21.3325 C   0  0  0  0  0  0  0  0  0  0  0  0
  -18.7888  -28.2340   22.7527 C   0  0  0  0  0  0  0  0  0  0  0  0
  -17.4238  -30.2654   24.0916 C   0  0  0  0  0  0  0  0  0  0  0  0
  -19.2765  -28.7199   23.9658 C   0  0  0  0  0  0  0  0  0  0  0  0
  -24.7425  -28.2263   20.5305 C   0  0  0  0  0  0  0  0  0  0  0  0
  -31.7617  -21.3362   20.1832 C   0  0  0  0  0  0  0  0  0  0  0  0
  -26.7588  -29.0734   20.3027 C   0  0  0  0  0  0  0  0  0  0  0  0
  -25.3122  -30.3142   21.9202 C   0  0  0  0  0  0  0  0  0  0  0  0
  -22.5593  -14.0364   21.6166 C   0  0  0  0  0  0  0  0  0  0  0  0
  -30.7600  -17.0410   20.2906 C   0  0  0  0  0  0  0  0  0  0  0  0
  -22.0991  -17.0905   22.6080 C   0  0  0  0  0  0  0  0  0  0  0  0
  -23.4582  -20.1322   23.3480 C   0  0  0  0  0  0  0  0  0  0  0  0
  -29.3351  -24.2562   17.8817 C   0  0  0  0  0  0  0  0  0  0  0  0
  -19.9653   -9.6412   21.7195 C   0  0  0  0  0  0  0  0  0  0  0  0
  -24.2491  -14.2211   23.4785 C   0  0  0  0  0  0  0  0  0  0  0  0
  -24.3694  -16.5442   21.6525 C   0  0  0  0  0  0  0  0  0  0  0  0
  -19.6026  -11.1238   21.7441 C   0  0  0  0  0  0  0  0  0  0  0  0
  -34.9722  -20.1639   18.7780 C   0  0  0  0  0  0  0  0  0  0  0  0
  -35.2639  -21.0597   19.9665 C   0  0  0  0  0  0  0  0  0  0  0  0
  -28.4806  -27.2810   16.2091 C   0  0  0  0  0  0  0  0  0  0  0  0
  -20.3378  -11.8717   20.6364 C   0  0  0  0  0  0  0  0  0  0  0  0
  -27.5058  -27.9642   17.1710 C   0  0  0  0  0  0  0  0  0  0  0  0
  -33.4603  -20.2675   18.6294 C   0  0  0  0  0  0  0  0  0  0  0  0
  -34.1370  -20.7480   20.9477 C   0  0  0  0  0  0  0  0  0  0  0  0
  -28.2990  -25.7642   16.2002 C   0  0  0  0  0  0  0  0  0  0  0  0
  -27.3744  -25.8083   18.4832 C   0  0  0  0  0  0  0  0  0  0  0  0
  -21.8570  -11.7842   20.8259 C   0  0  1  0  0  0  0  0  0  0  0  0
  -22.9942  -14.8020   22.8341 C   0  0  1  0  0  0  0  0  0  0  0  0
  -27.5631  -27.3313   18.5752 C   0  0  2  0  0  0  0  0  0  0  0  0
  -32.9096  -20.3214   20.0829 C   0  0  0  0  0  0  0  0  0  0  0  0
  -22.8262  -22.4430   24.0953 C   0  0  0  0  0  0  0  0  0  0  0  0
  -21.0699  -17.7133   19.8039 C   0  0  0  0  0  0  0  0  0  0  0  0
  -21.3584  -20.1474   20.3142 C   0  0  0  0  0  0  0  0  0  0  0  0
  -19.7640  -18.7744   21.6541 C   0  0  0  0  0  0  0  0  0  0  0  0
  -31.3681  -20.9422   22.6296 C   0  0  0  0  0  0  0  0  0  0  0  0
  -25.0857  -19.9068   25.8096 C   0  0  0  0  0  0  0  0  0  0  0  0
  -31.1521  -18.4702   19.9485 C   0  0  0  0  0  0  0  0  0  0  0  0
  -29.2701  -16.7654   20.3488 C   0  0  0  0  0  0  0  0  0  1  0  0
  -32.5102  -18.8887   20.5065 C   0  0  0  0  0  0  0  0  0  0  0  0
  -22.2509  -18.4536   21.9772 C   0  0  1  0  0  0  0  0  0  0  0  0
  -23.2702  -21.0571   24.5370 C   0  0  2  0  0  0  0  0  0  0  0  0
  -21.1328  -18.7542   20.9395 C   0  0  0  0  0  0  0  0  0  0  0  0
  -25.3408  -27.4311   19.6396 N   0  0  0  0  0  0  0  0  0  0  0  0
  -31.0997  -21.5778   21.3586 N   0  0  0  0  0  0  0  0  0  0  0  0
  -26.5654  -27.9721   19.5218 N   0  0  0  0  0  0  0  0  0  0  0  0
  -23.1638  -16.1972   22.4232 N   0  0  0  0  0  0  0  0  0  0  0  0
  -28.3693  -25.2344   17.5637 N   0  0  0  0  0  0  0  0  0  0  0  0
  -27.9328  -29.7399   20.3064 N   0  0  0  0  0  0  0  0  0  0  0  0
  -25.5937  -30.0830   23.2736 N   0  0  0  0  0  0  0  0  0  0  0  0
  -29.3285  -23.8517   19.2162 N   0  0  0  0  0  0  0  0  0  0  0  0
  -22.2913  -12.7023   21.8569 N   0  0  0  0  0  0  0  0  0  0  0  0
  -22.3161  -19.4081   23.0786 N   0  0  0  0  0  0  0  0  0  0  0  0
  -24.5461  -21.1918   25.2953 N   0  3  0  0  0  0  0  0  0  0  0  0
  -24.8233  -31.4164   21.5743 O   0  0  0  0  0  0  0  0  0  0  0  0
  -22.4719  -14.6137   20.5392 O   0  0  0  0  0  0  0  0  0  0  0  0
  -31.5898  -16.1541   20.4844 O   0  0  0  0  0  0  0  0  0  0  0  0
  -21.0768  -16.8305   23.2474 O   0  0  0  0  0  0  0  0  0  0  0  0
  -24.5116  -20.0621   22.7187 O   0  0  0  0  0  0  0  0  0  0  0  0
  -30.1289  -23.8299   17.0389 O   0  0  0  0  0  0  0  0  0  0  0  0
  -19.4656  -27.2262   22.0864 O   0  0  0  0  0  0  0  0  0  0  0  0
  -29.0202  -15.3951   20.6589 O   0  0  0  0  0  0  0  0  0  1  0  0
  -16.7691  -31.2418   24.7336 F   0  0  0  0  0  0  0  0  0  0  0  0
  -20.4009  -28.2156   24.4924 F   0  0  0  0  0  0  0  0  0  0  0  0
  1  2  1  0  0  0  0
  1  5  2  0  0  0  0
  2  6  2  0  0  0  0
  3  8  2  0  0  0  0
  3 17  1  0  0  0  0
  4  9  1  0  0  0  0
  4 17  2  0  0  0  0
  5 19  1  0  0  0  0
  6 21  1  0  0  0  0
  7 10  2  0  0  0  0
  7 20  1  0  0  0  0
  8 24  1  0  0  0  0
  9 24  2  0  0  0  0
 10 25  1  0  0  0  0
 11 12  2  0  0  0  0
 11 26  1  0  0  0  0
 12 27  1  0  0  0  0
 13 22  1  0  0  0  0
 13 25  2  0  0  0  0
 14 23  1  0  0  0  0
 14 30  2  0  0  0  0
 15 27  2  0  0  0  0
 15 28  1  0  0  0  0
 16 23  2  0  0  0  0
 16 68  1  0  0  0  0
 17 29  1  0  0  0  0
 18 29  1  0  0  0  0
 18 31  2  0  0  0  0
 18 32  1  0  0  0  0
 19 21  2  0  0  0  0
 19 38  1  0  0  0  0
 20 22  2  0  0  0  0
 20 39  1  0  0  0  0
 21 51  1  0  0  0  0
 22 40  1  0  0  0  0
 23 74  1  0  0  0  0
 24 84  1  0  0  0  0
 25 85  1  0  0  0  0
 26 28  2  0  0  0  0
 26 84  1  0  0  0  0
 27 86  1  0  0  0  0
 28 87  1  0  0  0  0
 29 67  2  0  0  0  0
 30 54  1  0  0  0  0
 30 68  1  0  0  0  0
 31 69  1  0  0  0  0
 31 72  1  0  0  0  0
 32 73  1  0  0  0  0
 32 78  2  0  0  0  0
 33 52  1  0  0  0  0
 33 75  1  0  0  0  0
 33 79  2  0  0  0  0
 34 61  1  0  0  0  0
 34 62  1  0  0  0  0
 34 80  2  0  0  0  0
 35 64  1  0  0  0  0
 35 70  1  0  0  0  0
 35 81  2  0  0  0  0
 36 65  1  0  0  0  0
 36 76  1  0  0  0  0
 36 82  2  0  0  0  0
 37 71  1  0  0  0  0
 37 74  1  0  0  0  0
 37 83  2  0  0  0  0
 38 41  1  0  0  0  0
 39 52  1  0  0  0  0
 40 70  1  0  0  0  0
 41 45  1  0  0  0  0
 42 43  1  0  0  0  0
 42 47  1  0  0  0  0
 43 48  1  0  0  0  0
 44 46  1  0  0  0  0
 44 49  1  0  0  0  0
 45 51  1  0  0  0  0
 46 53  1  0  0  0  0
 47 54  1  0  0  0  0
 48 54  1  0  0  0  0
 49 71  1  0  0  0  0
 50 53  1  0  0  0  0
 50 71  1  0  0  0  0
 51 75  1  0  0  0  0
 52 70  1  0  0  0  0
 53 69  1  0  0  0  0
 54 63  1  0  0  0  0
 55 65  1  0  0  0  0
 56 66  1  0  0  0  0
 57 66  1  0  0  0  0
 58 66  1  0  0  0  0
 59 68  1  0  0  0  0
 60 77  1  0  0  0  0
 61 63  1  0  0  0  0
 62 85  1  0  0  0  0
 64 66  1  0  0  0  0
 64 76  1  0  0  0  0
 65 77  1  0  0  0  0
 67 69  1  0  0  0  0
M  CHG  1  77   1
M  ISO  4  37 100  62 101  74 100  85 101
M  END
> <Batch ID>
0160

> <Smiles>
CNC(C)C(=O)NC(C(=O)N1Cc2cc([101O:1][101CH2:1]C(=O)CCC3(c4cc([100NH:0][100C:0](=O)N5CCCC(n6nc(-c7ccc(Oc8ccc(F)cc8F)cc7)c(C(N)=O)c6N)C5)cn4C)CCCC3)ccc2CC1C(=O)NC1CCCc2ccccc21)C(C)(C)C

> <Shape>
0.236

> <Color>
0.091

> <Negative vol penalty>
0.000

$$$$

  -OEChem-04052303503D

 89 99  0     1  0  0  0  0  0999 V2000
  -23.3146  -32.5155   14.2490 C   0  0  0  0  0  0  0  0  0  0  0  0
  -24.2204  -31.6655   14.8756 C   0  0  0  0  0  0  0  0  0  0  0  0
  -22.9452  -15.2853   21.9464 C   0  0  0  0  0  0  0  0  0  0  0  0
  -24.1995  -16.4336   20.2302 C   0  0  0  0  0  0  0  0  0  0  0  0
  -22.8898  -33.6767   14.8932 C   0  0  0  0  0  0  0  0  0  0  0  0
  -24.7027  -31.9769   16.1464 C   0  0  0  0  0  0  0  0  0  0  0  0
  -24.7136  -27.9784   19.2539 C   0  0  0  0  0  0  0  0  0  0  0  0
  -30.5400  -20.1003   20.5947 C   0  0  0  0  0  0  0  0  0  0  0  0
  -29.8875  -21.3115   20.3473 C   0  0  0  0  0  0  0  0  0  0  0  0
  -22.2247  -16.4523   22.2006 C   0  0  0  0  0  0  0  0  0  0  0  0
  -23.4790  -17.6006   20.4844 C   0  0  0  0  0  0  0  0  0  0  0  0
  -25.7446  -27.0531   19.0972 C   0  0  0  0  0  0  0  0  0  0  0  0
  -22.2188  -20.9807   20.9273 C   0  0  0  0  0  0  0  0  0  0  0  0
  -22.9316  -22.1763   21.0169 C   0  0  0  0  0  0  0  0  0  0  0  0
  -26.9074  -28.0415   20.9654 C   0  0  0  0  0  0  0  0  0  0  0  0
  -28.3137  -20.2060   18.8709 C   0  0  0  0  0  0  0  0  0  0  0  0
  -24.2003  -21.2811   22.8678 C   0  0  0  0  0  0  0  0  0  0  0  0
  -23.9327  -15.2760   20.9612 C   0  0  0  0  0  0  0  0  0  0  0  0
  -24.3533  -13.0540   19.7807 C   0  0  0  0  0  0  0  0  0  0  0  0
  -23.3596  -33.9976   16.1765 C   0  0  0  0  0  0  0  0  0  0  0  0
  -24.7770  -28.9507   20.2623 C   0  0  0  0  0  0  0  0  0  0  0  0
  -24.2847  -33.1442   16.8078 C   0  0  0  0  0  0  0  0  0  0  0  0
  -25.8746  -28.9764   21.1344 C   0  0  0  0  0  0  0  0  0  0  0  0
  -30.0802  -18.9177   19.9757 C   0  0  0  0  0  0  0  0  0  0  0  0
  -28.7890  -21.3615   19.4962 C   0  0  0  0  0  0  0  0  0  0  0  0
  -22.4916  -17.6099   21.4696 C   0  0  0  0  0  0  0  0  0  0  0  0
  -26.8431  -27.0863   19.9512 C   0  0  0  0  0  0  0  0  0  0  0  0
  -22.4966  -19.9353   21.8080 C   0  0  0  0  0  0  0  0  0  0  0  0
  -23.9224  -22.3265   21.9871 C   0  0  0  0  0  0  0  0  0  0  0  0
  -23.4874  -20.0855   22.7783 C   0  0  0  0  0  0  0  0  0  0  0  0
  -28.9738  -18.9928   19.1241 C   0  0  0  0  0  0  0  0  0  0  0  0
  -24.6777  -14.0710   20.6985 C   0  0  0  0  0  0  0  0  0  0  0  0
  -25.3691  -12.1385   19.9094 C   0  0  0  0  0  0  0  0  0  0  0  0
  -29.9435  -16.7913   19.4043 C   0  0  0  0  0  0  0  0  0  0  0  0
  -23.2339  -12.9465   18.8913 C   0  0  0  0  0  0  0  0  0  0  0  0
  -24.8638  -32.1278   20.3127 C   0  0  0  0  0  0  0  0  0  0  0  0
  -24.6287  -31.6949   23.5189 C   0  0  0  0  0  0  0  0  0  0  0  0
  -28.4700  -23.8406   19.7890 C   0  0  0  0  0  0  0  0  0  0  0  0
  -25.1135  -29.6528   26.2099 C   0  0  0  0  0  0  0  0  0  0  0  0
  -30.9816  -12.4532   21.6302 C   0  0  0  0  0  0  0  0  0  0  0  0
  -22.9080  -35.2879   16.8133 C   0  0  0  0  0  0  0  0  0  0  0  0
  -23.6440  -29.9248   20.4350 C   0  0  0  0  0  0  0  0  0  0  0  0
  -25.9811  -29.9873   22.2458 C   0  0  0  0  0  0  0  0  0  0  0  0
  -23.1792  -35.3541   18.3141 C   0  0  0  0  0  0  0  0  0  0  0  0
  -31.4955  -13.4765   18.1086 C   0  0  0  0  0  0  0  0  0  0  0  0
  -28.5357  -10.4627   23.0734 C   0  0  0  0  0  0  0  0  0  0  0  0
  -24.6008  -34.8935   18.6205 C   0  0  0  0  0  0  0  0  0  0  0  0
  -31.1926  -14.9736   18.1513 C   0  0  0  0  0  0  0  0  0  0  0  0
  -27.2278  -11.0539   22.5478 C   0  0  0  0  0  0  0  0  0  0  0  0
  -32.0175  -12.9643   19.4478 C   0  0  0  0  0  0  0  0  0  0  0  0
  -29.5292  -11.5632   23.4282 C   0  0  0  0  0  0  0  0  0  0  0  0
  -30.8271  -14.7741   20.6418 C   0  0  0  0  0  0  0  0  0  0  0  0
  -28.5296  -13.0904   21.7591 C   0  0  0  0  0  0  0  0  0  0  0  0
  -24.8116  -33.4350   18.1963 C   0  0  1  0  0  0  0  0  0  0  0  0
  -30.2516  -15.3082   19.3216 C   0  0  1  0  0  0  0  0  0  0  0  0
  -24.0559  -31.1960   21.1710 C   0  0  1  0  0  0  0  0  0  0  0  0
  -27.4897  -12.0183   21.3779 C   0  0  2  0  0  0  0  0  0  0  0  0
  -24.8618  -29.5902   28.7059 C   0  0  0  0  0  0  0  0  0  0  0  0
  -27.1126  -33.4428   23.8109 C   0  0  0  0  0  0  0  0  0  0  0  0
  -27.3610  -32.5783   26.1473 C   0  0  0  0  0  0  0  0  0  0  0  0
  -25.3277  -33.8746   25.5086 C   0  0  0  0  0  0  0  0  0  0  0  0
  -23.2131  -27.3879   26.0776 C   0  0  0  0  0  0  0  0  0  0  0  0
  -27.5202  -24.9081   19.2783 C   0  0  0  0  0  0  0  0  0  1  0  0
  -25.6140  -31.5144   24.6484 C   0  0  1  0  0  0  0  0  0  0  0  0
  -24.2062  -29.2813   27.3689 C   0  0  2  0  0  0  0  0  0  0  0  0
  -26.3530  -32.8346   25.0067 C   0  0  0  0  0  0  0  0  0  0  0  0
  -30.6242  -17.6505   20.1262 N   0  0  0  0  0  0  0  0  0  0  0  0
  -25.8109  -13.8250   21.3614 N   0  0  0  0  0  0  0  0  0  0  0  0
  -26.2073  -12.6430   20.8597 N   0  0  0  0  0  0  0  0  0  0  0  0
  -24.8508  -30.9226   22.3700 N   0  0  0  0  0  0  0  0  0  0  0  0
  -31.1292  -13.3375   20.5489 N   0  0  0  0  0  0  0  0  0  0  0  0
  -29.7468  -12.4641   22.2963 N   0  0  0  0  0  0  0  0  0  0  0  0
  -25.6181  -10.9593   19.3013 N   0  0  0  0  0  0  0  0  0  0  0  0
  -22.2831  -13.9762   18.8864 N   0  0  0  0  0  0  0  0  0  0  0  0
  -28.1505  -22.5807   19.2626 N   0  0  0  0  0  0  0  0  0  0  0  0
  -24.2165  -32.5367   19.1624 N   0  0  0  0  0  0  0  0  0  0  0  0
  -24.8638  -30.9303   25.7549 N   0  0  0  0  0  0  0  0  0  0  0  0
  -23.8835  -27.8270   27.3285 N   0  3  0  0  0  0  0  0  0  0  0  0
  -23.0727  -11.9585   18.1354 O   0  0  0  0  0  0  0  0  0  0  0  0
  -25.9905  -32.4529   20.6685 O   0  0  0  0  0  0  0  0  0  0  0  0
  -23.6924  -32.4865   23.6538 O   0  0  0  0  0  0  0  0  0  0  0  0
  -29.3824  -24.1097   20.5635 O   0  0  0  0  0  0  0  0  0  0  0  0
  -25.9617  -28.8878   25.7562 O   0  0  0  0  0  0  0  0  0  0  0  0
  -31.8979  -11.6972   21.9765 O   0  0  0  0  0  0  0  0  0  0  0  0
  -21.7885  -18.7487   21.7173 O   0  0  0  0  0  0  0  0  0  0  0  0
  -27.8617  -26.1754   19.7986 O   0  0  0  0  0  0  0  0  0  1  0  0
  -24.6080  -23.4741   22.0721 F   0  0  0  0  0  0  0  0  0  0  0  0
  -23.7596  -19.0843   23.6264 F   0  0  0  0  0  0  0  0  0  0  0  0
  -28.6278  -17.4194   18.5095 S   0  0  0  0  0  0  0  0  0  0  0  0
  1  2  1  0  0  0  0
  1  5  2  0  0  0  0
  2  6  2  0  0  0  0
  3 10  2  0  0  0  0
  3 18  1  0  0  0  0
  4 11  1  0  0  0  0
  4 18  2  0  0  0  0
  5 20  1  0  0  0  0
  6 22  1  0  0  0  0
  7 12  2  0  0  0  0
  7 21  1  0  0  0  0
  8  9  2  0  0  0  0
  8 24  1  0  0  0  0
  9 25  1  0  0  0  0
 10 26  1  0  0  0  0
 11 26  2  0  0  0  0
 12 27  1  0  0  0  0
 13 14  2  0  0  0  0
 13 28  1  0  0  0  0
 14 29  1  0  0  0  0
 15 23  1  0  0  0  0
 15 27  2  0  0  0  0
 16 25  2  0  0  0  0
 16 31  1  0  0  0  0
 17 29  2  0  0  0  0
 17 30  1  0  0  0  0
 18 32  1  0  0  0  0
 19 32  1  0  0  0  0
 19 33  2  0  0  0  0
 19 35  1  0  0  0  0
 20 22  2  0  0  0  0
 20 41  1  0  0  0  0
 21 23  2  0  0  0  0
 21 42  1  0  0  0  0
 22 54  1  0  0  0  0
 23 43  1  0  0  0  0
 24 31  2  0  0  0  0
 24 67  1  0  0  0  0
 25 75  1  0  0  0  0
 26 85  1  0  0  0  0
 27 86  1  0  0  0  0
 28 30  2  0  0  0  0
 28 85  1  0  0  0  0
 29 87  1  0  0  0  0
 30 88  1  0  0  0  0
 31 89  1  0  0  0  0
 32 68  2  0  0  0  0
 33 69  1  0  0  0  0
 33 73  1  0  0  0  0
 34 55  1  0  0  0  0
 34 67  2  0  0  0  0
 34 89  1  0  0  0  0
 35 74  1  0  0  0  0
 35 79  2  0  0  0  0
 36 56  1  0  0  0  0
 36 76  1  0  0  0  0
 36 80  2  0  0  0  0
 37 64  1  0  0  0  0
 37 70  1  0  0  0  0
 37 81  2  0  0  0  0
 38 63  1  0  0  0  0
 38 75  1  0  0  0  0
 38 82  2  0  0  0  0
 39 65  1  0  0  0  0
 39 77  1  0  0  0  0
 39 83  2  0  0  0  0
 40 71  1  0  0  0  0
 40 72  1  0  0  0  0
 40 84  2  0  0  0  0
 41 44  1  0  0  0  0
 42 56  1  0  0  0  0
 43 70  1  0  0  0  0
 44 47  1  0  0  0  0
 45 48  1  0  0  0  0
 45 50  1  0  0  0  0
 46 49  1  0  0  0  0
 46 51  1  0  0  0  0
 47 54  1  0  0  0  0
 48 55  1  0  0  0  0
 49 57  1  0  0  0  0
 50 71  1  0  0  0  0
 51 72  1  0  0  0  0
 52 55  1  0  0  0  0
 52 71  1  0  0  0  0
 53 57  1  0  0  0  0
 53 72  1  0  0  0  0
 54 76  1  0  0  0  0
 56 70  1  0  0  0  0
 57 69  1  0  0  0  0
 58 65  1  0  0  0  0
 59 66  1  0  0  0  0
 60 66  1  0  0  0  0
 61 66  1  0  0  0  0
 62 78  1  0  0  0  0
 63 86  1  0  0  0  0
 64 66  1  0  0  0  0
 64 77  1  0  0  0  0
 65 78  1  0  0  0  0
 68 69  1  0  0  0  0
M  CHG  1  78   1
M  ISO  4  40 100  63 101  71 100  86 101
M  END
> <Batch ID>
0160

> <Smiles>
CNC(C)C(=O)NC(C(=O)N1Cc2cc([101O:1][101CH2:1]C(=O)Nc3ccc4nc(C5CCC[100N:0]([100C:0](=O)N6CCCC(n7nc(-c8ccc(Oc9ccc(F)cc9F)cc8)c(C(N)=O)c7N)C6)C5)sc4c3)ccc2CC1C(=O)NC1CCCc2ccccc21)C(C)(C)C

> <Shape>
0.243

> <Color>
0.096

> <Negative vol penalty>
0.000

$$$$

  -OEChem-04052303503D

 89 98  0     1  0  0  0  0  0999 V2000
  -27.2665  -38.7431   23.8158 C   0  0  0  0  0  0  0  0  0  0  0  0
  -28.0461  -37.7208   23.2843 C   0  0  0  0  0  0  0  0  0  0  0  0
  -21.7888   -9.2753   19.8062 C   0  0  0  0  0  0  0  0  0  0  0  0
  -23.4636   -9.1337   21.5417 C   0  0  0  0  0  0  0  0  0  0  0  0
  -26.3005  -38.4530   24.7784 C   0  0  0  0  0  0  0  0  0  0  0  0
  -27.8609  -36.4078   23.7160 C   0  0  0  0  0  0  0  0  0  0  0  0
  -28.1875  -29.6544   21.3493 C   0  0  0  0  0  0  0  0  0  0  0  0
  -21.4613   -7.9353   20.0128 C   0  0  0  0  0  0  0  0  0  0  0  0
  -23.1360   -7.7936   21.7484 C   0  0  0  0  0  0  0  0  0  0  0  0
  -28.7644  -28.4268   21.6718 C   0  0  0  0  0  0  0  0  0  0  0  0
  -20.7148   -6.0370   23.3209 C   0  0  0  0  0  0  0  0  0  0  0  0
  -20.5724   -5.6021   24.6385 C   0  0  0  0  0  0  0  0  0  0  0  0
  -27.0115  -28.0328   23.2816 C   0  0  0  0  0  0  0  0  0  0  0  0
  -28.8193  -18.7076   19.9383 C   0  0  0  0  0  0  0  0  0  0  0  0
  -22.3494   -4.0002   24.3019 C   0  0  0  0  0  0  0  0  0  0  0  0
  -27.5399  -18.2906   21.7175 C   0  0  0  0  0  0  0  0  0  0  0  0
  -22.7901   -9.8745   20.5706 C   0  0  0  0  0  0  0  0  0  0  0  0
  -22.5648  -12.3800   20.9937 C   0  0  0  0  0  0  0  0  0  0  0  0
  -26.0967  -37.1345   25.2150 C   0  0  0  0  0  0  0  0  0  0  0  0
  -27.0224  -30.0860   21.9995 C   0  0  0  0  0  0  0  0  0  0  0  0
  -26.8922  -36.1000   24.6863 C   0  0  0  0  0  0  0  0  0  0  0  0
  -26.4204  -29.2651   22.9637 C   0  0  0  0  0  0  0  0  0  0  0  0
  -27.9358  -17.7618   20.5110 C   0  0  0  0  0  0  0  0  0  0  0  0
  -22.1348   -7.1945   20.9840 C   0  0  0  0  0  0  0  0  0  0  0  0
  -28.1781  -27.6171   22.6401 C   0  0  0  0  0  0  0  0  0  0  0  0
  -21.6746   -5.4535   22.4937 C   0  0  0  0  0  0  0  0  0  0  0  0
  -21.3897   -4.5837   25.1290 C   0  0  0  0  0  0  0  0  0  0  0  0
  -22.4918   -4.4352   22.9842 C   0  0  0  0  0  0  0  0  0  0  0  0
  -23.1293  -11.2585   20.3571 C   0  0  0  0  0  0  0  0  0  0  0  0
  -28.9001  -19.7471   20.8354 C   0  0  0  0  0  0  0  0  0  0  0  0
  -23.2240  -13.4535   20.4464 C   0  0  0  0  0  0  0  0  0  0  0  0
  -21.5365  -12.4456   21.9907 C   0  0  0  0  0  0  0  0  0  0  0  0
  -29.7132  -20.9621   20.6493 C   0  0  0  0  0  0  0  0  0  0  0  0
  -29.9473  -23.8411   19.7085 C   0  0  0  0  0  0  0  0  0  0  0  0
  -26.2746  -32.5518   23.8608 C   0  0  0  0  0  0  0  0  0  0  0  0
  -23.2745  -31.3497   23.5851 C   0  0  0  0  0  0  0  0  0  0  0  0
  -21.2806  -28.6486   22.9722 C   0  0  0  0  0  0  0  0  0  0  0  0
  -27.9063  -15.9506   18.7602 C   0  0  0  0  0  0  0  0  0  0  0  0
  -25.0729  -36.8765   26.2920 C   0  0  0  0  0  0  0  0  0  0  0  0
  -26.3975  -31.4009   21.6211 C   0  0  0  0  0  0  0  0  0  0  0  0
  -25.1579  -29.6734   23.6763 C   0  0  0  0  0  0  0  0  0  0  0  0
  -24.6830  -35.4063   26.4221 C   0  0  0  0  0  0  0  0  0  0  0  0
  -26.3380  -13.7257   16.4651 C   0  0  0  0  0  0  0  0  0  0  0  0
  -25.9263  -34.5226   26.4254 C   0  0  0  0  0  0  0  0  0  0  0  0
  -25.3170  -12.9778   17.3254 C   0  0  0  0  0  0  0  0  0  0  0  0
  -27.9277  -23.7231   22.1704 C   0  0  0  0  0  0  0  0  0  0  0  0
  -27.6274  -14.0099   17.2335 C   0  0  0  0  0  0  0  0  0  0  0  0
  -28.0765  -22.2159   21.9817 C   0  0  0  0  0  0  0  0  0  0  0  0
  -26.4241  -13.9427   19.3822 C   0  0  0  0  0  0  0  0  0  0  0  0
  -26.7041  -34.6598   25.1109 C   0  0  1  0  0  0  0  0  0  0  0  0
  -30.0764  -23.3624   21.1173 C   0  0  1  0  0  0  0  0  0  0  0  0
  -25.4978  -31.9711   22.7132 C   0  0  1  0  0  0  0  0  0  0  0  0
  -25.0841  -13.6911   18.6717 C   0  0  2  0  0  0  0  0  0  0  0  0
  -29.3705  -24.2408   22.1623 C   0  0  1  0  0  0  0  0  0  0  0  0
  -31.1099  -24.6144   19.1473 C   0  0  0  0  0  0  0  0  0  0  0  0
  -18.8683  -27.9669   22.8551 C   0  0  0  0  0  0  0  0  0  0  0  0
  -23.1288  -31.3504   26.6328 C   0  0  0  0  0  0  0  0  0  0  0  0
  -21.1556  -29.8180   26.4694 C   0  0  0  0  0  0  0  0  0  0  0  0
  -21.0384  -32.1085   25.4883 C   0  0  0  0  0  0  0  0  0  0  0  0
  -21.5151  -27.8825   20.1232 C   0  0  0  0  0  0  0  0  0  0  0  0
  -31.2892  -24.4234   23.5068 C   0  0  0  0  0  0  0  0  0  0  0  0
  -29.4554  -25.7432   21.9240 C   0  0  0  0  0  0  0  0  0  1  0  0
  -22.4505  -30.3449   24.3536 C   0  0  1  0  0  0  0  0  0  0  0  0
  -20.0702  -28.4735   22.0730 C   0  0  2  0  0  0  0  0  0  0  0  0
  -21.9682  -30.8984   25.7242 C   0  0  0  0  0  0  0  0  0  0  0  0
  -24.0743  -11.5888   19.4729 N   0  0  0  0  0  0  0  0  0  0  0  0
  -24.1086  -12.9301   19.5499 N   0  0  0  0  0  0  0  0  0  0  0  0
  -29.3133  -22.1007   21.1904 N   0  0  0  0  0  0  0  0  0  0  0  0
  -24.5885  -30.9707   23.2760 N   0  0  0  0  0  0  0  0  0  0  0  0
  -27.3292  -14.6906   18.4955 N   0  0  0  0  0  0  0  0  0  0  0  0
  -23.1274  -14.7846   20.6492 N   0  0  0  0  0  0  0  0  0  0  0  0
  -20.9662  -11.2476   22.4422 N   0  0  0  0  0  0  0  0  0  0  0  0
  -27.5243  -16.5157   19.9765 N   0  0  0  0  0  0  0  0  0  0  0  0
  -26.0588  -33.9020   24.0603 N   0  0  0  0  0  0  0  0  0  0  0  0
  -21.3714  -29.9344   23.4618 N   0  0  0  0  0  0  0  0  0  0  0  0
  -30.8372  -20.8941   19.9419 N   0  3  0  0  0  0  0  0  0  0  0  0
  -20.3688  -27.4981   20.9865 N   0  3  0  0  0  0  0  0  0  0  0  0
  -21.1237  -13.5354   22.4552 O   0  0  0  0  0  0  0  0  0  0  0  0
  -28.9410  -23.6127   19.0391 O   0  0  0  0  0  0  0  0  0  0  0  0
  -27.0140  -31.8281   24.5176 O   0  0  0  0  0  0  0  0  0  0  0  0
  -22.7685  -32.4280   23.2644 O   0  0  0  0  0  0  0  0  0  0  0  0
  -22.0649  -27.7351   23.2189 O   0  0  0  0  0  0  0  0  0  0  0  0
  -28.6608  -16.5011   17.9542 O   0  0  0  0  0  0  0  0  0  0  0  0
  -28.1231  -19.5007   21.9227 O   0  0  0  0  0  0  0  0  0  0  0  0
  -21.8153   -5.8870   21.1861 O   0  0  0  0  0  0  0  0  0  0  0  0
  -28.7395  -26.4187   22.9572 O   0  0  0  0  0  0  0  0  0  1  0  0
  -29.9483  -23.9687   23.4437 O   0  0  0  0  0  0  0  0  0  0  0  0
  -21.2538   -4.1672   26.3948 F   0  0  0  0  0  0  0  0  0  0  0  0
  -23.4164   -3.8716   22.1947 F   0  0  0  0  0  0  0  0  0  0  0  0
  1  2  1  0  0  0  0
  1  5  2  0  0  0  0
  2  6  2  0  0  0  0
  3  8  2  0  0  0  0
  3 17  1  0  0  0  0
  4  9  1  0  0  0  0
  4 17  2  0  0  0  0
  5 19  1  0  0  0  0
  6 21  1  0  0  0  0
  7 10  2  0  0  0  0
  7 20  1  0  0  0  0
  8 24  1  0  0  0  0
  9 24  2  0  0  0  0
 10 25  1  0  0  0  0
 11 12  2  0  0  0  0
 11 26  1  0  0  0  0
 12 27  1  0  0  0  0
 13 22  1  0  0  0  0
 13 25  2  0  0  0  0
 14 23  1  0  0  0  0
 14 30  2  0  0  0  0
 15 27  2  0  0  0  0
 15 28  1  0  0  0  0
 16 23  2  0  0  0  0
 16 84  1  0  0  0  0
 17 29  1  0  0  0  0
 18 29  1  0  0  0  0
 18 31  2  0  0  0  0
 18 32  1  0  0  0  0
 19 21  2  0  0  0  0
 19 39  1  0  0  0  0
 20 22  2  0  0  0  0
 20 40  1  0  0  0  0
 21 50  1  0  0  0  0
 22 41  1  0  0  0  0
 23 73  1  0  0  0  0
 24 85  1  0  0  0  0
 25 86  1  0  0  0  0
 26 28  2  0  0  0  0
 26 85  1  0  0  0  0
 27 88  1  0  0  0  0
 28 89  1  0  0  0  0
 29 66  2  0  0  0  0
 30 33  1  0  0  0  0
 30 84  1  0  0  0  0
 31 67  1  0  0  0  0
 31 71  1  0  0  0  0
 32 72  1  0  0  0  0
 32 78  2  0  0  0  0
 33 68  1  0  0  0  0
 33 76  2  0  0  0  0
 34 51  1  0  0  0  0
 34 55  1  0  0  0  0
 34 79  2  0  0  0  0
 35 52  1  0  0  0  0
 35 74  1  0  0  0  0
 35 80  2  0  0  0  0
 36 63  1  0  0  0  0
 36 69  1  0  0  0  0
 36 81  2  0  0  0  0
 37 64  1  0  0  0  0
 37 75  1  0  0  0  0
 37 82  2  0  0  0  0
 38 70  1  0  0  0  0
 38 73  1  0  0  0  0
 38 83  2  0  0  0  0
 39 42  1  0  0  0  0
 40 52  1  0  0  0  0
 41 69  1  0  0  0  0
 42 44  1  0  0  0  0
 43 45  1  0  0  0  0
 43 47  1  0  0  0  0
 44 50  1  0  0  0  0
 45 53  1  0  0  0  0
 46 48  1  0  0  0  0
 46 54  1  0  0  0  0
 47 70  1  0  0  0  0
 48 68  1  0  0  0  0
 49 53  1  0  0  0  0
 49 70  1  0  0  0  0
 50 74  1  0  0  0  0
 51 54  1  0  0  0  0
 51 68  1  0  0  0  0
 52 69  1  0  0  0  0
 53 67  1  0  0  0  0
 54 62  1  0  0  0  0
 54 87  1  0  0  0  0
 56 64  1  0  0  0  0
 57 65  1  0  0  0  0
 58 65  1  0  0  0  0
 59 65  1  0  0  0  0
 60 77  1  0  0  0  0
 61 87  1  0  0  0  0
 62 86  1  0  0  0  0
 63 65  1  0  0  0  0
 63 75  1  0  0  0  0
 64 77  1  0  0  0  0
 66 67  1  0  0  0  0
M  CHG  2  76   1  77   1
M  ISO  4  38 100  62 101  73 100  86 101
M  END
> <Batch ID>
0160

> <Smiles>
CNC(C)C(=O)NC(C(=O)N1Cc2cc([101O:1][101CH2:1]C3(OC)CCN(C(=N)c4cc([100NH:0][100C:0](=O)N5CCCC(n6nc(-c7ccc(Oc8ccc(F)cc8F)cc7)c(C(N)=O)c6N)C5)co4)C3C(C)=O)ccc2CC1C(=O)NC1CCCc2ccccc21)C(C)(C)C

> <Shape>
0.332

> <Color>
0.077

> <Negative vol penalty>
0.000

$$$$

  -OEChem-04052303503D

 81 90  0     1  0  0  0  0  0999 V2000
  -40.4164  -26.2541   17.0542 C   0  0  0  0  0  0  0  0  0  0  0  0
  -39.3746  -25.6466   16.3606 C   0  0  0  0  0  0  0  0  0  0  0  0
  -23.2411   -9.8799   19.8752 C   0  0  0  0  0  0  0  0  0  0  0  0
  -23.7048   -9.9346   22.2456 C   0  0  0  0  0  0  0  0  0  0  0  0
  -40.3140  -26.4520   18.4305 C   0  0  0  0  0  0  0  0  0  0  0  0
  -38.2302  -25.2356   17.0432 C   0  0  0  0  0  0  0  0  0  0  0  0
  -32.4762  -25.2848   14.9469 C   0  0  0  0  0  0  0  0  0  0  0  0
  -22.4811   -8.7235   20.0505 C   0  0  0  0  0  0  0  0  0  0  0  0
  -22.9447   -8.7782   22.4210 C   0  0  0  0  0  0  0  0  0  0  0  0
  -31.6693  -24.2891   14.3981 C   0  0  0  0  0  0  0  0  0  0  0  0
  -19.3796   -7.9215   21.1323 C   0  0  0  0  0  0  0  0  0  0  0  0
  -18.1450   -7.8532   20.4869 C   0  0  0  0  0  0  0  0  0  0  0  0
  -30.6836  -23.9018   16.5655 C   0  0  0  0  0  0  0  0  0  0  0  0
  -18.8832   -5.8934   19.2821 C   0  0  0  0  0  0  0  0  0  0  0  0
  -23.8530  -10.4854   20.9727 C   0  0  0  0  0  0  0  0  0  0  0  0
  -24.1867  -13.0115   20.8501 C   0  0  0  0  0  0  0  0  0  0  0  0
  -39.1638  -26.0521   19.1288 C   0  0  0  0  0  0  0  0  0  0  0  0
  -32.4005  -25.5895   16.3135 C   0  0  0  0  0  0  0  0  0  0  0  0
  -38.1129  -25.4272   18.4304 C   0  0  0  0  0  0  0  0  0  0  0  0
  -31.4888  -24.9036   17.1286 C   0  0  0  0  0  0  0  0  0  0  0  0
  -22.3328   -8.1727   21.3234 C   0  0  0  0  0  0  0  0  0  0  0  0
  -30.7749  -23.5954   15.2079 C   0  0  0  0  0  0  0  0  0  0  0  0
  -20.3661   -6.9758   20.8527 C   0  0  0  0  0  0  0  0  0  0  0  0
  -17.8968   -6.8391   19.5618 C   0  0  0  0  0  0  0  0  0  0  0  0
  -20.1179   -5.9617   19.9276 C   0  0  0  0  0  0  0  0  0  0  0  0
  -24.6388  -11.6796   20.7922 C   0  0  0  0  0  0  0  0  0  0  0  0
  -28.9044  -16.5762   14.8309 C   0  0  0  0  0  0  0  0  0  0  0  0
  -25.3098  -13.7659   20.6138 C   0  0  0  0  0  0  0  0  0  0  0  0
  -29.4927  -16.4259   16.0497 C   0  0  0  0  0  0  0  0  0  0  0  0
  -29.8406  -18.5104   15.0128 C   0  0  0  0  0  0  0  0  0  0  0  0
  -22.8692  -13.5212   21.0956 C   0  0  0  0  0  0  0  0  0  0  0  0
  -34.4324  -25.4677   18.7549 C   0  0  0  0  0  0  0  0  0  0  0  0
  -31.9998  -26.9077   20.3459 C   0  0  0  0  0  0  0  0  0  0  0  0
  -28.6501  -27.5170   20.5797 C   0  0  0  0  0  0  0  0  0  0  0  0
  -29.9700  -14.7185   17.7184 C   0  0  0  0  0  0  0  0  0  0  0  0
  -39.1187  -26.2443   20.6240 C   0  0  0  0  0  0  0  0  0  0  0  0
  -33.2587  -26.6848   16.8848 C   0  0  0  0  0  0  0  0  0  0  0  0
  -31.3545  -25.2067   18.5978 C   0  0  0  0  0  0  0  0  0  0  0  0
  -28.1903  -15.3537   14.4036 C   0  0  0  0  0  0  0  0  0  0  0  0
  -37.7156  -26.1192   21.2122 C   0  0  0  0  0  0  0  0  0  0  0  0
  -30.1819  -12.4881   20.4512 C   0  0  0  0  0  0  0  0  0  0  0  0
  -37.0101  -24.8879   20.6527 C   0  0  0  0  0  0  0  0  0  0  0  0
  -28.7278  -12.1540   20.7732 C   0  0  0  0  0  0  0  0  0  0  0  0
  -28.3689  -14.4287   15.6626 C   0  0  0  0  0  0  0  0  0  0  0  0
  -30.3871  -12.6102   18.9475 C   0  0  0  0  0  0  0  0  0  0  0  0
  -28.0388  -13.3522   18.6315 C   0  0  0  0  0  0  0  0  0  0  0  0
  -36.8451  -24.9901   19.1316 C   0  0  1  0  0  0  0  0  0  0  0  0
  -33.4648  -26.5582   18.3911 C   0  0  1  0  0  0  0  0  0  0  0  0
  -27.7829  -13.1892   20.1440 C   0  0  1  0  0  0  0  0  0  0  0  0
  -26.9574  -28.6964   22.0084 C   0  0  0  0  0  0  0  0  0  0  0  0
  -32.2126  -24.6866   22.4271 C   0  0  0  0  0  0  0  0  0  0  0  0
  -29.9537  -25.3580   23.2728 C   0  0  0  0  0  0  0  0  0  0  0  0
  -31.8522  -26.9729   23.3745 C   0  0  0  0  0  0  0  0  0  0  0  0
  -27.8134  -29.2686   18.3456 C   0  0  0  0  0  0  0  0  0  0  0  0
  -29.9064  -20.5086   13.5200 C   0  0  0  0  0  0  0  0  0  0  0  0
  -30.5059  -21.9044   13.5574 C   0  0  0  0  0  0  0  0  0  1  0  0
  -30.8077  -26.4272   21.1377 C   0  0  1  0  0  0  0  0  0  0  0  0
  -27.8730  -28.8026   20.7988 C   0  0  2  0  0  0  0  0  0  0  0  0
  -31.2102  -25.8539   22.5257 C   0  0  0  0  0  0  0  0  0  0  0  0
  -25.9471  -11.5897   20.5388 N   0  0  0  0  0  0  0  0  0  0  0  0
  -29.0923  -17.7718   14.2063 N   0  0  0  0  0  0  0  0  0  0  0  0
  -26.3267  -12.8747   20.4354 N   0  0  0  0  0  0  0  0  0  0  0  0
  -29.2597  -15.1917   16.6168 N   0  0  0  0  0  0  0  0  0  0  0  0
  -32.2198  -26.2818   19.1107 N   0  0  0  0  0  0  0  0  0  0  0  0
  -29.4616  -13.5723   18.3480 N   0  0  0  0  0  0  0  0  0  0  0  0
  -25.5169  -15.0981   20.5433 N   0  0  0  0  0  0  0  0  0  0  0  0
  -21.8302  -12.6075   21.3191 N   0  0  0  0  0  0  0  0  0  0  0  0
  -30.2417  -19.7807   14.7380 N   0  0  0  0  0  0  0  0  0  0  0  0
  -35.7512  -25.8779   18.8004 N   0  0  0  0  0  0  0  0  0  0  0  0
  -29.8802  -27.5515   21.2017 N   0  0  0  0  0  0  0  0  0  0  0  0
  -27.0387  -29.1136   19.6037 N   0  3  0  0  0  0  0  0  0  0  0  0
  -22.6176  -14.7501   21.0998 O   0  0  0  0  0  0  0  0  0  0  0  0
  -34.0135  -24.3382   18.9792 O   0  0  0  0  0  0  0  0  0  0  0  0
  -32.7056  -27.8101   20.8031 O   0  0  0  0  0  0  0  0  0  0  0  0
  -28.2084  -26.5750   19.9255 O   0  0  0  0  0  0  0  0  0  0  0  0
  -31.0328  -15.2245   18.0994 O   0  0  0  0  0  0  0  0  0  0  0  0
  -21.5910   -7.0445   21.4949 O   0  0  0  0  0  0  0  0  0  0  0  0
  -29.9811  -22.6157   14.6712 O   0  0  0  0  0  0  0  0  0  1  0  0
  -16.7106   -6.7727   18.9431 F   0  0  0  0  0  0  0  0  0  0  0  0
  -21.0613   -5.0497   19.6557 F   0  0  0  0  0  0  0  0  0  0  0  0
  -30.3357  -17.7811   16.5174 S   0  0  0  0  0  0  0  0  0  0  0  0
  1  2  1  0  0  0  0
  1  5  2  0  0  0  0
  2  6  2  0  0  0  0
  3  8  2  0  0  0  0
  3 15  1  0  0  0  0
  4  9  1  0  0  0  0
  4 15  2  0  0  0  0
  5 17  1  0  0  0  0
  6 19  1  0  0  0  0
  7 10  2  0  0  0  0
  7 18  1  0  0  0  0
  8 21  1  0  0  0  0
  9 21  2  0  0  0  0
 10 22  1  0  0  0  0
 11 12  2  0  0  0  0
 11 23  1  0  0  0  0
 12 24  1  0  0  0  0
 13 20  1  0  0  0  0
 13 22  2  0  0  0  0
 14 24  2  0  0  0  0
 14 25  1  0  0  0  0
 15 26  1  0  0  0  0
 16 26  1  0  0  0  0
 16 28  2  0  0  0  0
 16 31  1  0  0  0  0
 17 19  2  0  0  0  0
 17 36  1  0  0  0  0
 18 20  2  0  0  0  0
 18 37  1  0  0  0  0
 19 47  1  0  0  0  0
 20 38  1  0  0  0  0
 21 77  1  0  0  0  0
 22 78  1  0  0  0  0
 23 25  2  0  0  0  0
 23 77  1  0  0  0  0
 24 79  1  0  0  0  0
 25 80  1  0  0  0  0
 26 60  2  0  0  0  0
 27 29  2  0  0  0  0
 27 39  1  0  0  0  0
 27 61  1  0  0  0  0
 28 62  1  0  0  0  0
 28 66  1  0  0  0  0
 29 63  1  0  0  0  0
 29 81  1  0  0  0  0
 30 61  2  0  0  0  0
 30 68  1  0  0  0  0
 30 81  1  0  0  0  0
 31 67  1  0  0  0  0
 31 72  2  0  0  0  0
 32 48  1  0  0  0  0
 32 69  1  0  0  0  0
 32 73  2  0  0  0  0
 33 57  1  0  0  0  0
 33 64  1  0  0  0  0
 33 74  2  0  0  0  0
 34 58  1  0  0  0  0
 34 70  1  0  0  0  0
 34 75  2  0  0  0  0
 35 63  1  0  0  0  0
 35 65  1  0  0  0  0
 35 76  2  0  0  0  0
 36 40  1  0  0  0  0
 37 48  1  0  0  0  0
 38 64  1  0  0  0  0
 39 44  1  0  0  0  0
 40 42  1  0  0  0  0
 41 43  1  0  0  0  0
 41 45  1  0  0  0  0
 42 47  1  0  0  0  0
 43 49  1  0  0  0  0
 44 63  1  0  0  0  0
 45 65  1  0  0  0  0
 46 49  1  0  0  0  0
 46 65  1  0  0  0  0
 47 69  1  0  0  0  0
 48 64  1  0  0  0  0
 49 62  1  0  0  0  0
 50 58  1  0  0  0  0
 51 59  1  0  0  0  0
 52 59  1  0  0  0  0
 53 59  1  0  0  0  0
 54 71  1  0  0  0  0
 55 56  1  0  0  0  0
 55 68  1  0  0  0  0
 56 78  1  0  0  0  0
 57 59  1  0  0  0  0
 57 70  1  0  0  0  0
 58 71  1  0  0  0  0
 60 62  1  0  0  0  0
M  CHG  1  71   1
M  ISO  4  35 100  56 101  63 100  78 101
M  END
> <Batch ID>
0160

> <Smiles>
CNC(C)C(=O)NC(C(=O)N1Cc2cc([101O:1][101CH2:1]CNc3nc4c(s3)[100N:0]([100C:0](=O)N3CCCC(n5nc(-c6ccc(Oc7ccc(F)cc7F)cc6)c(C(N)=O)c5N)C3)CC4)ccc2CC1C(=O)NC1CCCc2ccccc21)C(C)(C)C

> <Shape>
0.176

> <Color>
0.194

> <Negative vol penalty>
0.000

$$$$

  -OEChem-04052303503D

 83 92  0     1  0  0  0  0  0999 V2000
  -30.1618  -32.8751   25.4362 C   0  0  0  0  0  0  0  0  0  0  0  0
  -29.6516  -31.6619   24.9853 C   0  0  0  0  0  0  0  0  0  0  0  0
  -23.8443   -9.0448   21.4666 C   0  0  0  0  0  0  0  0  0  0  0  0
  -26.0938   -8.2806   21.9055 C   0  0  0  0  0  0  0  0  0  0  0  0
  -29.3028  -33.9486   25.6672 C   0  0  0  0  0  0  0  0  0  0  0  0
  -28.2817  -31.5213   24.7662 C   0  0  0  0  0  0  0  0  0  0  0  0
  -27.2436  -29.1637   20.4063 C   0  0  0  0  0  0  0  0  0  0  0  0
  -23.3669   -8.2284   22.4920 C   0  0  0  0  0  0  0  0  0  0  0  0
  -25.6165   -7.4643   22.9309 C   0  0  0  0  0  0  0  0  0  0  0  0
  -27.3823  -27.7766   20.3838 C   0  0  0  0  0  0  0  0  0  0  0  0
  -22.6476   -4.9564   22.9399 C   0  0  0  0  0  0  0  0  0  0  0  0
  -21.5029   -4.2008   22.6861 C   0  0  0  0  0  0  0  0  0  0  0  0
  -24.9967  -27.5398   20.6519 C   0  0  0  0  0  0  0  0  0  0  0  0
  -20.3641   -5.3162   24.5017 C   0  0  0  0  0  0  0  0  0  0  0  0
  -25.2077   -9.0708   21.1733 C   0  0  0  0  0  0  0  0  0  0  0  0
  -25.3476   -9.8622   18.7522 C   0  0  0  0  0  0  0  0  0  0  0  0
  -27.9228  -33.8240   25.4415 C   0  0  0  0  0  0  0  0  0  0  0  0
  -25.9796  -29.7502   20.5629 C   0  0  0  0  0  0  0  0  0  0  0  0
  -27.4032  -32.5938   24.9957 C   0  0  0  0  0  0  0  0  0  0  0  0
  -24.8444  -28.9346   20.6735 C   0  0  0  0  0  0  0  0  0  0  0  0
  -24.2530   -7.4382   23.2241 C   0  0  0  0  0  0  0  0  0  0  0  0
  -26.2591  -26.9644   20.5095 C   0  0  0  0  0  0  0  0  0  0  0  0
  -22.6506   -5.8918   23.9747 C   0  0  0  0  0  0  0  0  0  0  0  0
  -20.3612   -4.3808   23.4669 C   0  0  0  0  0  0  0  0  0  0  0  0
  -21.5089   -6.0718   24.7555 C   0  0  0  0  0  0  0  0  0  0  0  0
  -25.7014   -9.9134   20.1139 C   0  0  0  0  0  0  0  0  0  0  0  0
  -26.0860  -10.8622   18.1679 C   0  0  0  0  0  0  0  0  0  0  0  0
  -26.0104  -19.5030   20.6257 C   0  0  0  0  0  0  0  0  0  0  0  0
  -26.5202  -17.4993   20.5571 C   0  0  0  0  0  0  0  0  0  0  0  0
  -24.4333   -8.9890   18.0761 C   0  0  0  0  0  0  0  0  0  0  0  0
  -24.6381  -31.6412   22.7373 C   0  0  0  0  0  0  0  0  0  0  0  0
  -22.1798  -31.6779   20.6213 C   0  0  0  0  0  0  0  0  0  0  0  0
  -20.5462  -30.1376   18.0511 C   0  0  0  0  0  0  0  0  0  0  0  0
  -28.4674  -15.9299   20.2539 C   0  0  0  0  0  0  0  0  0  0  0  0
  -27.0278  -34.9980   25.7505 C   0  0  0  0  0  0  0  0  0  0  0  0
  -25.8438  -31.2481   20.5584 C   0  0  0  0  0  0  0  0  0  0  0  0
  -23.4626  -29.5148   20.8235 C   0  0  0  0  0  0  0  0  0  0  0  0
  -25.6355  -34.8808   25.1358 C   0  0  0  0  0  0  0  0  0  0  0  0
  -30.2030  -13.2571   18.6662 C   0  0  0  0  0  0  0  0  0  0  0  0
  -25.0591  -33.4899   25.3807 C   0  0  0  0  0  0  0  0  0  0  0  0
  -26.6422  -21.5217   19.2355 C   0  0  0  0  0  0  0  0  0  0  0  0
  -27.0339  -21.5329   21.7387 C   0  0  0  0  0  0  0  0  0  0  0  0
  -26.7582  -23.0456   19.2138 C   0  0  0  0  0  0  0  0  0  0  0  0
  -27.1489  -23.0567   21.7107 C   0  0  0  0  0  0  0  0  0  0  0  0
  -29.2110  -12.0934   18.7279 C   0  0  0  0  0  0  0  0  0  0  0  0
  -30.1407  -14.1228   19.9234 C   0  0  0  0  0  0  0  0  0  0  0  0
  -27.8088  -13.4451   20.3384 C   0  0  0  0  0  0  0  0  0  0  0  0
  -25.9261  -32.4097   24.7226 C   0  0  1  0  0  0  0  0  0  0  0  0
  -26.1412  -21.0150   20.5984 C   0  0  0  0  0  0  0  0  0  0  0  0
  -24.5682  -31.7345   21.2393 C   0  0  1  0  0  0  0  0  0  0  0  0
  -27.6485  -23.5629   20.3512 C   0  0  0  0  0  0  0  0  0  0  0  0
  -27.7890  -12.5824   19.0660 C   0  0  2  0  0  0  0  0  0  0  0  0
  -18.5472  -30.3893   16.5552 C   0  0  0  0  0  0  0  0  0  0  0  0
  -20.3597  -30.8115   22.9118 C   0  0  0  0  0  0  0  0  0  0  0  0
  -18.6395  -30.1696   21.2097 C   0  0  0  0  0  0  0  0  0  0  0  0
  -19.3792  -32.5445   21.3986 C   0  0  0  0  0  0  0  0  0  0  0  0
  -22.2320  -30.2324   15.6204 C   0  0  0  0  0  0  0  0  0  0  0  0
  -27.7112  -25.0891   20.3345 C   0  0  0  0  0  0  0  0  0  1  0  0
  -20.9486  -30.8333   20.3981 C   0  0  1  0  0  0  0  0  0  0  0  0
  -20.0332  -30.6653   16.7234 C   0  0  2  0  0  0  0  0  0  0  0  0
  -19.8579  -31.0785   21.4787 C   0  0  0  0  0  0  0  0  0  0  0  0
  -26.5950  -10.8700   20.3789 N   0  0  0  0  0  0  0  0  0  0  0  0
  -27.0839  -18.6769   20.4612 N   0  0  0  0  0  0  0  0  0  0  0  0
  -24.8346  -18.8970   20.8154 N   0  0  0  0  0  0  0  0  0  0  0  0
  -26.8092  -11.4291   19.1757 N   0  0  0  0  0  0  0  0  0  0  0  0
  -23.3824  -30.9848   20.8197 N   0  0  0  0  0  0  0  0  0  0  0  0
  -28.7641  -14.5526   20.1785 N   0  0  0  0  0  0  0  0  0  0  0  0
  -26.1808  -11.3029   16.8954 N   0  0  0  0  0  0  0  0  0  0  0  0
  -24.9229   -7.7843   17.5531 N   0  0  0  0  0  0  0  0  0  0  0  0
  -27.1200  -16.2187   20.4677 N   0  0  0  0  0  0  0  0  0  0  0  0
  -25.6767  -32.3600   23.2979 N   0  0  0  0  0  0  0  0  0  0  0  0
  -20.5094  -31.1044   19.0336 N   0  0  0  0  0  0  0  0  0  0  0  0
  -20.7617  -30.0217   15.5938 N   0  3  0  0  0  0  0  0  0  0  0  0
  -23.2216   -9.2763   17.9254 O   0  0  0  0  0  0  0  0  0  0  0  0
  -23.8102  -30.9683   23.3401 O   0  0  0  0  0  0  0  0  0  0  0  0
  -22.0795  -32.9073   20.6125 O   0  0  0  0  0  0  0  0  0  0  0  0
  -20.9368  -28.9822   18.2025 O   0  0  0  0  0  0  0  0  0  0  0  0
  -29.3397  -16.7905   20.1102 O   0  0  0  0  0  0  0  0  0  0  0  0
  -25.1786  -17.5401   20.7690 O   0  0  0  0  0  0  0  0  0  0  0  0
  -23.7876   -6.6417   24.2249 O   0  0  0  0  0  0  0  0  0  0  0  0
  -26.3917  -25.6102   20.4885 O   0  0  0  0  0  0  0  0  0  1  0  0
  -19.2615   -3.6562   23.2221 F   0  0  0  0  0  0  0  0  0  0  0  0
  -21.5054   -6.9698   25.7502 F   0  0  0  0  0  0  0  0  0  0  0  0
  1  2  1  0  0  0  0
  1  5  2  0  0  0  0
  2  6  2  0  0  0  0
  3  8  2  0  0  0  0
  3 15  1  0  0  0  0
  4  9  1  0  0  0  0
  4 15  2  0  0  0  0
  5 17  1  0  0  0  0
  6 19  1  0  0  0  0
  7 10  2  0  0  0  0
  7 18  1  0  0  0  0
  8 21  1  0  0  0  0
  9 21  2  0  0  0  0
 10 22  1  0  0  0  0
 11 12  2  0  0  0  0
 11 23  1  0  0  0  0
 12 24  1  0  0  0  0
 13 20  1  0  0  0  0
 13 22  2  0  0  0  0
 14 24  2  0  0  0  0
 14 25  1  0  0  0  0
 15 26  1  0  0  0  0
 16 26  1  0  0  0  0
 16 27  2  0  0  0  0
 16 30  1  0  0  0  0
 17 19  2  0  0  0  0
 17 35  1  0  0  0  0
 18 20  2  0  0  0  0
 18 36  1  0  0  0  0
 19 48  1  0  0  0  0
 20 37  1  0  0  0  0
 21 80  1  0  0  0  0
 22 81  1  0  0  0  0
 23 25  2  0  0  0  0
 23 80  1  0  0  0  0
 24 82  1  0  0  0  0
 25 83  1  0  0  0  0
 26 62  2  0  0  0  0
 27 65  1  0  0  0  0
 27 68  1  0  0  0  0
 28 49  1  0  0  0  0
 28 63  1  0  0  0  0
 28 64  2  0  0  0  0
 29 63  2  0  0  0  0
 29 70  1  0  0  0  0
 29 79  1  0  0  0  0
 30 69  1  0  0  0  0
 30 74  2  0  0  0  0
 31 50  1  0  0  0  0
 31 71  1  0  0  0  0
 31 75  2  0  0  0  0
 32 59  1  0  0  0  0
 32 66  1  0  0  0  0
 32 76  2  0  0  0  0
 33 60  1  0  0  0  0
 33 72  1  0  0  0  0
 33 77  2  0  0  0  0
 34 67  1  0  0  0  0
 34 70  1  0  0  0  0
 34 78  2  0  0  0  0
 35 38  1  0  0  0  0
 36 50  1  0  0  0  0
 37 66  1  0  0  0  0
 38 40  1  0  0  0  0
 39 45  1  0  0  0  0
 39 46  1  0  0  0  0
 40 48  1  0  0  0  0
 41 43  1  0  0  0  0
 41 49  1  0  0  0  0
 42 44  1  0  0  0  0
 42 49  1  0  0  0  0
 43 51  1  0  0  0  0
 44 51  1  0  0  0  0
 45 52  1  0  0  0  0
 46 67  1  0  0  0  0
 47 52  1  0  0  0  0
 47 67  1  0  0  0  0
 48 71  1  0  0  0  0
 50 66  1  0  0  0  0
 51 58  1  0  0  0  0
 52 65  1  0  0  0  0
 53 60  1  0  0  0  0
 54 61  1  0  0  0  0
 55 61  1  0  0  0  0
 56 61  1  0  0  0  0
 57 73  1  0  0  0  0
 58 81  1  0  0  0  0
 59 61  1  0  0  0  0
 59 72  1  0  0  0  0
 60 73  1  0  0  0  0
 62 65  1  0  0  0  0
 64 79  1  0  0  0  0
M  CHG  1  73   1
M  ISO  4  34 100  58 101  70 100  81 101
M  END
> <Batch ID>
0160

> <Smiles>
CNC(C)C(=O)NC(C(=O)N1Cc2cc([101O:1][101CH2:1]C3CCC(c4noc([100NH:0][100C:0](=O)N5CCCC(n6nc(-c7ccc(Oc8ccc(F)cc8F)cc7)c(C(N)=O)c6N)C5)n4)CC3)ccc2CC1C(=O)NC1CCCc2ccccc21)C(C)(C)C

> <Shape>
0.245

> <Color>
0.079

> <Negative vol penalty>
0.000

$$$$

  -OEChem-04052303503D

 87 96  0     1  0  0  0  0  0999 V2000
  -18.4579   -9.4407   21.7961 C   0  0  0  0  0  0  0  0  0  0  0  0
  -19.5004   -9.5434   20.8807 C   0  0  0  0  0  0  0  0  0  0  0  0
  -26.5380  -28.8930   20.6123 C   0  0  0  0  0  0  0  0  0  0  0  0
  -26.9494  -27.9491   22.7979 C   0  0  0  0  0  0  0  0  0  0  0  0
  -18.1023  -10.5429   22.5725 C   0  0  0  0  0  0  0  0  0  0  0  0
  -20.1873  -10.7488   20.7404 C   0  0  0  0  0  0  0  0  0  0  0  0
  -26.1405  -11.4704   19.4972 C   0  0  0  0  0  0  0  0  0  0  0  0
  -25.8688  -29.9657   21.2015 C   0  0  0  0  0  0  0  0  0  0  0  0
  -26.2802  -29.0218   23.3871 C   0  0  0  0  0  0  0  0  0  0  0  0
  -26.8258  -11.7367   18.3127 C   0  0  0  0  0  0  0  0  0  0  0  0
  -24.9938  -31.6958   25.4878 C   0  0  0  0  0  0  0  0  0  0  0  0
  -25.5818  -32.2950   26.6018 C   0  0  0  0  0  0  0  0  0  0  0  0
  -30.3814  -17.9091   19.9203 C   0  0  0  0  0  0  0  0  0  0  0  0
  -31.8524  -19.5788   20.9054 C   0  0  0  0  0  0  0  0  0  0  0  0
  -26.8409  -14.0868   18.8568 C   0  0  0  0  0  0  0  0  0  0  0  0
  -27.5272  -32.8452   25.2790 C   0  0  0  0  0  0  0  0  0  0  0  0
  -27.0783  -27.8847   21.4105 C   0  0  0  0  0  0  0  0  0  0  0  0
  -31.3954  -16.9500   19.9664 C   0  0  0  0  0  0  0  0  0  0  0  0
  -29.1428  -26.6895   20.5067 C   0  0  0  0  0  0  0  0  0  0  0  0
  -18.7915  -11.7595   22.4485 C   0  0  0  0  0  0  0  0  0  0  0  0
  -25.7900  -12.5133   20.3667 C   0  0  0  0  0  0  0  0  0  0  0  0
  -19.8398  -11.8686   21.5149 C   0  0  0  0  0  0  0  0  0  0  0  0
  -32.8556  -18.6250   20.9359 C   0  0  0  0  0  0  0  0  0  0  0  0
  -26.1534  -13.8308   20.0531 C   0  0  0  0  0  0  0  0  0  0  0  0
  -32.6296  -17.3241   20.4709 C   0  0  0  0  0  0  0  0  0  0  0  0
  -30.6083  -19.2140   20.3862 C   0  0  0  0  0  0  0  0  0  0  0  0
  -25.7400  -30.0301   22.5889 C   0  0  0  0  0  0  0  0  0  0  0  0
  -27.1735  -13.0454   17.9909 C   0  0  0  0  0  0  0  0  0  0  0  0
  -25.6726  -31.6713   24.2694 C   0  0  0  0  0  0  0  0  0  0  0  0
  -26.8484  -32.8697   26.4974 C   0  0  0  0  0  0  0  0  0  0  0  0
  -26.9393  -32.2460   24.1651 C   0  0  0  0  0  0  0  0  0  0  0  0
  -27.7692  -26.7761   20.8024 C   0  0  0  0  0  0  0  0  0  0  0  0
  -29.2948  -25.4466   19.9422 C   0  0  0  0  0  0  0  0  0  0  0  0
  -31.1362  -15.5681   19.4878 C   0  0  0  0  0  0  0  0  0  0  0  0
  -30.1879  -27.6469   20.7230 C   0  0  0  0  0  0  0  0  0  0  0  0
  -23.0503  -13.6969   21.4605 C   0  0  0  0  0  0  0  0  0  0  0  0
  -25.0167  -15.5096   23.2962 C   0  0  0  0  0  0  0  0  0  0  0  0
  -28.0986  -16.9090   23.7325 C   0  0  0  0  0  0  0  0  0  0  0  0
  -29.7840  -14.2392   17.9049 C   0  0  0  0  0  0  0  0  0  0  0  0
  -28.2651  -19.9752   19.8602 C   0  0  0  0  0  0  0  0  0  0  0  0
  -18.3401  -12.9371   23.2756 C   0  0  0  0  0  0  0  0  0  0  0  0
  -25.0744  -12.2063   21.6535 C   0  0  0  0  0  0  0  0  0  0  0  0
  -34.2439  -18.7644   21.4755 C   0  0  0  0  0  0  0  0  0  0  0  0
  -33.8463  -16.4735   20.6552 C   0  0  0  0  0  0  0  0  0  0  0  0
  -25.8184  -14.9836   20.9625 C   0  0  0  0  0  0  0  0  0  0  0  0
  -19.3630  -14.0687   23.3334 C   0  0  0  0  0  0  0  0  0  0  0  0
  -34.9316  -17.5441   20.8449 C   0  0  0  0  0  0  0  0  0  0  0  0
  -25.8400  -22.1044   18.3560 C   0  0  0  0  0  0  0  0  0  0  0  0
  -19.9041  -14.3709   21.9396 C   0  0  0  0  0  0  0  0  0  0  0  0
  -26.2387  -23.5025   18.8341 C   0  0  0  0  0  0  0  0  0  0  0  0
  -26.0646  -21.0496   19.4380 C   0  0  0  0  0  0  0  0  0  0  0  0
  -27.8137  -22.4272   20.4924 C   0  0  0  0  0  0  0  0  0  0  0  0
  -20.6250  -13.1519   21.3514 C   0  0  1  0  0  0  0  0  0  0  0  0
  -24.3158  -13.4045   22.2159 C   0  0  1  0  0  0  0  0  0  0  0  0
  -27.6664  -23.5137   19.4147 C   0  0  2  0  0  0  0  0  0  0  0  0
  -29.3938  -18.3686   25.3102 C   0  0  0  0  0  0  0  0  0  0  0  0
  -29.3454  -14.5467   15.4525 C   0  0  0  0  0  0  0  0  0  0  0  0
  -23.5413  -17.9609   22.2358 C   0  0  0  0  0  0  0  0  0  0  0  0
  -25.4345  -19.3732   23.0660 C   0  0  0  0  0  0  0  0  0  0  0  0
  -24.0752  -18.0400   24.6777 C   0  0  0  0  0  0  0  0  0  0  0  0
  -30.0785  -14.7748   24.2655 C   0  0  0  0  0  0  0  0  0  0  0  0
  -25.6906  -16.8512   23.1386 C   0  0  1  0  0  0  0  0  0  0  0  0
  -29.0295  -16.9416   24.9312 C   0  0  2  0  0  0  0  0  0  0  0  0
  -28.7193  -14.4335   16.8335 C   0  0  1  0  0  0  0  0  0  1  0  0
  -24.6902  -18.0351   23.2612 C   0  0  0  0  0  0  0  0  0  0  0  0
  -27.0965  -25.6759   20.4545 N   0  0  0  0  0  0  0  0  0  0  0  0
  -28.0514  -24.8863   19.9342 N   0  0  0  0  0  0  0  0  0  0  0  0
  -25.1125  -14.6331   22.2060 N   0  0  0  0  0  0  0  0  0  0  0  0
  -27.4395  -21.1168   19.9378 N   0  0  0  0  0  0  0  0  0  0  0  0
  -30.3694  -24.7893   19.4569 N   0  0  0  0  0  0  0  0  0  0  0  0
  -29.8580  -28.8740   21.3142 N   0  0  0  0  0  0  0  0  0  0  0  0
  -29.5617  -20.1679   20.3361 N   0  0  0  0  0  0  0  0  0  0  0  0
  -30.1906  -15.4490   18.4708 N   0  0  0  0  0  0  0  0  0  0  0  0
  -21.9439  -13.0161   21.9316 N   0  0  0  0  0  0  0  0  0  0  0  0
  -26.7742  -16.8810   24.1150 N   0  0  0  0  0  0  0  0  0  0  0  0
  -30.2866  -16.1996   24.6311 N   0  3  0  0  0  0  0  0  0  0  0  0
  -31.7306  -14.6316   20.0147 O   0  0  0  0  0  0  0  0  0  0  0  0
  -31.3762  -27.4273   20.3864 O   0  0  0  0  0  0  0  0  0  0  0  0
  -23.0754  -14.4831   20.5209 O   0  0  0  0  0  0  0  0  0  0  0  0
  -24.4331  -15.2462   24.3505 O   0  0  0  0  0  0  0  0  0  0  0  0
  -28.5056  -16.9121   22.5728 O   0  0  0  0  0  0  0  0  0  0  0  0
  -30.2019  -13.1289   18.2252 O   0  0  0  0  0  0  0  0  0  0  0  0
  -27.8606  -18.9132   19.3801 O   0  0  0  0  0  0  0  0  0  0  0  0
  -25.0872  -31.0768   23.1642 O   0  0  0  0  0  0  0  0  0  0  0  0
  -27.8419  -13.3082   16.8350 O   0  0  0  0  0  0  0  0  0  1  0  0
  -27.4122  -33.4464   27.5668 F   0  0  0  0  0  0  0  0  0  0  0  0
  -27.5958  -32.2266   22.9970 F   0  0  0  0  0  0  0  0  0  0  0  0
  1  2  1  0  0  0  0
  1  5  2  0  0  0  0
  2  6  2  0  0  0  0
  3  8  2  0  0  0  0
  3 17  1  0  0  0  0
  4  9  1  0  0  0  0
  4 17  2  0  0  0  0
  5 20  1  0  0  0  0
  6 22  1  0  0  0  0
  7 10  2  0  0  0  0
  7 21  1  0  0  0  0
  8 27  1  0  0  0  0
  9 27  2  0  0  0  0
 10 28  1  0  0  0  0
 11 12  2  0  0  0  0
 11 29  1  0  0  0  0
 12 30  1  0  0  0  0
 13 18  1  0  0  0  0
 13 26  2  0  0  0  0
 14 23  2  0  0  0  0
 14 26  1  0  0  0  0
 15 24  1  0  0  0  0
 15 28  2  0  0  0  0
 16 30  2  0  0  0  0
 16 31  1  0  0  0  0
 17 32  1  0  0  0  0
 18 25  2  0  0  0  0
 18 34  1  0  0  0  0
 19 32  1  0  0  0  0
 19 33  2  0  0  0  0
 19 35  1  0  0  0  0
 20 22  2  0  0  0  0
 20 41  1  0  0  0  0
 21 24  2  0  0  0  0
 21 42  1  0  0  0  0
 22 53  1  0  0  0  0
 23 25  1  0  0  0  0
 23 43  1  0  0  0  0
 24 45  1  0  0  0  0
 25 44  1  0  0  0  0
 26 72  1  0  0  0  0
 27 84  1  0  0  0  0
 28 85  1  0  0  0  0
 29 31  2  0  0  0  0
 29 84  1  0  0  0  0
 30 86  1  0  0  0  0
 31 87  1  0  0  0  0
 32 66  2  0  0  0  0
 33 67  1  0  0  0  0
 33 70  1  0  0  0  0
 34 73  1  0  0  0  0
 34 77  2  0  0  0  0
 35 71  1  0  0  0  0
 35 78  2  0  0  0  0
 36 54  1  0  0  0  0
 36 74  1  0  0  0  0
 36 79  2  0  0  0  0
 37 62  1  0  0  0  0
 37 68  1  0  0  0  0
 37 80  2  0  0  0  0
 38 63  1  0  0  0  0
 38 75  1  0  0  0  0
 38 81  2  0  0  0  0
 39 64  1  0  0  0  0
 39 73  1  0  0  0  0
 39 82  2  0  0  0  0
 40 69  1  0  0  0  0
 40 72  1  0  0  0  0
 40 83  2  0  0  0  0
 41 46  1  0  0  0  0
 42 54  1  0  0  0  0
 43 47  1  0  0  0  0
 44 47  1  0  0  0  0
 45 68  1  0  0  0  0
 46 49  1  0  0  0  0
 48 50  1  0  0  0  0
 48 51  1  0  0  0  0
 49 53  1  0  0  0  0
 50 55  1  0  0  0  0
 51 69  1  0  0  0  0
 52 55  1  0  0  0  0
 52 69  1  0  0  0  0
 53 74  1  0  0  0  0
 54 68  1  0  0  0  0
 55 67  1  0  0  0  0
 56 63  1  0  0  0  0
 57 64  1  0  0  0  0
 58 65  1  0  0  0  0
 59 65  1  0  0  0  0
 60 65  1  0  0  0  0
 61 76  1  0  0  0  0
 62 65  1  0  0  0  0
 62 75  1  0  0  0  0
 63 76  1  0  0  0  0
 64 85  1  0  0  0  0
 66 67  1  0  0  0  0
M  CHG  1  76   1
M  ISO  4  40 100  64 101  72 100  85 101
M  END
> <Batch ID>
0160

> <Smiles>
CNC(C)C(=O)NC(C(=O)N1Cc2cc([101O:1][101CH:1](C)C(=O)NC(=O)c3cc([100NH:0][100C:0](=O)N4CCCC(n5nc(-c6ccc(Oc7ccc(F)cc7F)cc6)c(C(N)=O)c5N)C4)cc4c3CCC4)ccc2CC1C(=O)NC1CCCc2ccccc21)C(C)(C)C

> <Shape>
0.238

> <Color>
0.066

> <Negative vol penalty>
0.000

$$$$

  -OEChem-04052303503D

 86 95  0     1  0  0  0  0  0999 V2000
  -30.3434  -36.1126   20.9479 C   0  0  0  0  0  0  0  0  0  0  0  0
  -30.2562  -34.8328   20.4095 C   0  0  0  0  0  0  0  0  0  0  0  0
  -24.7156   -8.7856   21.4289 C   0  0  0  0  0  0  0  0  0  0  0  0
  -23.1668  -10.6306   21.2448 C   0  0  0  0  0  0  0  0  0  0  0  0
  -29.8004  -36.3775   22.2045 C   0  0  0  0  0  0  0  0  0  0  0  0
  -29.6270  -33.8168   21.1279 C   0  0  0  0  0  0  0  0  0  0  0  0
  -26.3040  -29.2073   18.8440 C   0  0  0  0  0  0  0  0  0  0  0  0
  -23.8987   -8.1960   22.3936 C   0  0  0  0  0  0  0  0  0  0  0  0
  -22.3498  -10.0410   22.2095 C   0  0  0  0  0  0  0  0  0  0  0  0
  -26.6127  -27.8765   18.5656 C   0  0  0  0  0  0  0  0  0  0  0  0
  -21.0404   -6.3912   22.4717 C   0  0  0  0  0  0  0  0  0  0  0  0
  -20.7858   -5.0245   22.3581 C   0  0  0  0  0  0  0  0  0  0  0  0
  -25.7102  -27.2258   20.7061 C   0  0  0  0  0  0  0  0  0  0  0  0
  -28.0724  -19.0979   19.6879 C   0  0  0  0  0  0  0  0  0  0  0  0
  -21.7836   -4.6582   24.5277 C   0  0  0  0  0  0  0  0  0  0  0  0
  -25.8575  -18.3984   19.6013 C   0  0  0  0  0  0  0  0  0  0  0  0
  -24.3497  -10.0029   20.8545 C   0  0  0  0  0  0  0  0  0  0  0  0
  -25.1352  -10.4250   18.4645 C   0  0  0  0  0  0  0  0  0  0  0  0
  -29.1557  -35.3665   22.9345 C   0  0  0  0  0  0  0  0  0  0  0  0
  -25.7051  -29.5593   20.0621 C   0  0  0  0  0  0  0  0  0  0  0  0
  -29.0761  -34.0680   22.3960 C   0  0  0  0  0  0  0  0  0  0  0  0
  -25.3927  -28.5615   20.9964 C   0  0  0  0  0  0  0  0  0  0  0  0
  -27.1690  -17.9969   19.7300 C   0  0  0  0  0  0  0  0  0  0  0  0
  -22.7157   -8.8237   22.7838 C   0  0  0  0  0  0  0  0  0  0  0  0
  -26.3184  -26.8859   19.4979 C   0  0  0  0  0  0  0  0  0  0  0  0
  -21.6668   -6.8914   23.6133 C   0  0  0  0  0  0  0  0  0  0  0  0
  -21.1573   -4.1580   23.3861 C   0  0  0  0  0  0  0  0  0  0  0  0
  -22.0383   -6.0249   24.6413 C   0  0  0  0  0  0  0  0  0  0  0  0
  -25.1935  -10.6127   19.8584 C   0  0  0  0  0  0  0  0  0  0  0  0
  -26.1396  -11.2198   17.9686 C   0  0  0  0  0  0  0  0  0  0  0  0
  -27.4169  -20.2991   19.5284 C   0  0  0  0  0  0  0  0  0  0  0  0
  -28.2504  -23.8618   19.3885 C   0  0  0  0  0  0  0  0  0  0  0  0
  -27.8484  -25.1198   19.6023 C   0  0  0  0  0  0  0  0  0  1  0  0
  -24.2520   -9.6054   17.6873 C   0  0  0  0  0  0  0  0  0  0  0  0
  -26.5391  -31.3848   22.5270 C   0  0  0  0  0  0  0  0  0  0  0  0
  -23.5231  -30.7344   23.5285 C   0  0  0  0  0  0  0  0  0  0  0  0
  -20.8222  -28.6508   23.4255 C   0  0  0  0  0  0  0  0  0  0  0  0
  -28.8434  -16.1374   20.0208 C   0  0  0  0  0  0  0  0  0  0  0  0
  -28.6257  -35.6892   24.3092 C   0  0  0  0  0  0  0  0  0  0  0  0
  -25.3541  -30.9960   20.3359 C   0  0  0  0  0  0  0  0  0  0  0  0
  -24.7313  -28.8845   22.3104 C   0  0  0  0  0  0  0  0  0  0  0  0
  -29.5841  -23.3130   19.7805 C   0  0  0  0  0  0  0  0  0  0  0  0
  -27.6455  -34.6482   24.8438 C   0  0  0  0  0  0  0  0  0  0  0  0
  -30.3999  -13.0521   19.1632 C   0  0  0  0  0  0  0  0  0  0  0  0
  -28.1911  -33.2403   24.6270 C   0  0  0  0  0  0  0  0  0  0  0  0
  -29.2353  -12.0606   19.1113 C   0  0  0  0  0  0  0  0  0  0  0  0
  -29.2614  -21.8647   20.1332 C   0  0  0  0  0  0  0  0  0  0  0  0
  -30.2180  -14.0830   20.2758 C   0  0  0  0  0  0  0  0  0  0  0  0
  -27.7710  -13.8067   20.2040 C   0  0  0  0  0  0  0  0  0  0  0  0
  -28.3794  -32.9455   23.1340 C   0  0  1  0  0  0  0  0  0  0  0  0
  -25.2139  -31.3037   21.8236 C   0  0  1  0  0  0  0  0  0  0  0  0
  -27.8777  -12.7883   19.0572 C   0  0  2  0  0  0  0  0  0  0  0  0
  -27.3936  -22.7472   18.8482 C   0  0  1  0  0  0  0  0  0  0  0  0
  -18.5192  -28.3625   24.3798 C   0  0  0  0  0  0  0  0  0  0  0  0
  -24.7361  -29.7898   26.1641 C   0  0  0  0  0  0  0  0  0  0  0  0
  -22.5624  -28.6594   26.6791 C   0  0  0  0  0  0  0  0  0  0  0  0
  -22.6428  -31.1373   26.4027 C   0  0  0  0  0  0  0  0  0  0  0  0
  -19.5683  -28.8019   20.7490 C   0  0  0  0  0  0  0  0  0  0  0  0
  -22.8852  -29.6548   24.3691 C   0  0  1  0  0  0  0  0  0  0  0  0
  -19.3423  -28.9289   23.2332 C   0  0  2  0  0  0  0  0  0  0  0  0
  -27.4563  -22.7071   17.3243 C   0  0  0  0  0  0  0  0  0  0  0  0
  -23.2209  -29.8042   25.8799 C   0  0  0  0  0  0  0  0  0  0  0  0
  -26.1587  -11.4602   20.2246 N   0  0  0  0  0  0  0  0  0  0  0  0
  -26.7163  -11.8120   19.0535 N   0  0  0  0  0  0  0  0  0  0  0  0
  -28.0015  -21.5521   19.4492 N   0  0  3  0  0  0  0  0  0  0  0  0
  -24.4136  -30.3045   22.5344 N   0  0  0  0  0  0  0  0  0  0  0  0
  -28.9118  -14.7348   20.1581 N   0  0  0  0  0  0  0  0  0  0  0  0
  -26.5770  -11.4628   16.7148 N   0  0  0  0  0  0  0  0  0  0  0  0
  -23.2771   -8.8528   18.3562 N   0  0  0  0  0  0  0  0  0  0  0  0
  -27.5502  -16.6410   19.8844 N   0  0  0  0  0  0  0  0  0  0  0  0
  -27.1069  -32.6445   22.5138 N   0  0  0  0  0  0  0  0  0  0  0  0
  -21.4584  -29.6922   24.0674 N   0  0  0  0  0  0  0  0  0  0  0  0
  -18.8612  -28.3172   21.9623 N   0  3  0  0  0  0  0  0  0  0  0  0
  -24.3358   -9.5298   16.4380 O   0  0  0  0  0  0  0  0  0  0  0  0
  -27.0109  -30.3792   23.0446 O   0  0  0  0  0  0  0  0  0  0  0  0
  -23.2363  -31.9151   23.7412 O   0  0  0  0  0  0  0  0  0  0  0  0
  -21.3594  -27.6120   23.0477 O   0  0  0  0  0  0  0  0  0  0  0  0
  -29.8590  -16.8373   19.9966 O   0  0  0  0  0  0  0  0  0  0  0  0
  -21.9182   -8.2486   23.7250 O   0  0  0  0  0  0  0  0  0  0  0  0
  -26.6192  -25.5862   19.2290 O   0  0  0  0  0  0  0  0  0  1  0  0
  -20.9113   -2.8458   23.2775 F   0  0  0  0  0  0  0  0  0  0  0  0
  -22.6392   -6.4997   25.7410 F   0  0  0  0  0  0  0  0  0  0  0  0
  -26.1045  -22.8980   19.2520 F   0  0  0  0  0  0  0  0  0  0  0  0
  -26.9776  -23.8715   16.8349 F   0  0  0  0  0  0  0  0  0  0  0  0
  -26.6504  -21.7196   16.8779 F   0  0  0  0  0  0  0  0  0  0  0  0
  -25.7194  -20.0967   19.4304 S   0  0  0  0  0  0  0  0  0  0  0  0
  1  2  1  0  0  0  0
  1  5  2  0  0  0  0
  2  6  2  0  0  0  0
  3  8  2  0  0  0  0
  3 17  1  0  0  0  0
  4  9  1  0  0  0  0
  4 17  2  0  0  0  0
  5 19  1  0  0  0  0
  6 21  1  0  0  0  0
  7 10  2  0  0  0  0
  7 20  1  0  0  0  0
  8 24  1  0  0  0  0
  9 24  2  0  0  0  0
 10 25  1  0  0  0  0
 11 12  2  0  0  0  0
 11 26  1  0  0  0  0
 12 27  1  0  0  0  0
 13 22  1  0  0  0  0
 13 25  2  0  0  0  0
 14 23  1  0  0  0  0
 14 31  2  0  0  0  0
 15 27  2  0  0  0  0
 15 28  1  0  0  0  0
 16 23  2  0  0  0  0
 16 86  1  0  0  0  0
 17 29  1  0  0  0  0
 18 29  1  0  0  0  0
 18 30  2  0  0  0  0
 18 34  1  0  0  0  0
 19 21  2  0  0  0  0
 19 39  1  0  0  0  0
 20 22  2  0  0  0  0
 20 40  1  0  0  0  0
 21 50  1  0  0  0  0
 22 41  1  0  0  0  0
 23 70  1  0  0  0  0
 24 79  1  0  0  0  0
 25 80  1  0  0  0  0
 26 28  2  0  0  0  0
 26 79  1  0  0  0  0
 27 81  1  0  0  0  0
 28 82  1  0  0  0  0
 29 63  2  0  0  0  0
 30 64  1  0  0  0  0
 30 68  1  0  0  0  0
 31 65  1  0  0  0  0
 31 86  1  0  0  0  0
 32 33  2  0  0  0  0
 32 42  1  0  0  0  0
 32 53  1  0  0  0  0
 33 80  1  0  0  0  0
 34 69  1  0  0  0  0
 34 74  2  0  0  0  0
 35 51  1  0  0  0  0
 35 71  1  0  0  0  0
 35 75  2  0  0  0  0
 36 59  1  0  0  0  0
 36 66  1  0  0  0  0
 36 76  2  0  0  0  0
 37 60  1  0  0  0  0
 37 72  1  0  0  0  0
 37 77  2  0  0  0  0
 38 67  1  0  0  0  0
 38 70  1  0  0  0  0
 38 78  2  0  0  0  0
 39 43  1  0  0  0  0
 40 51  1  0  0  0  0
 41 66  1  0  0  0  0
 42 47  1  0  0  0  0
 43 45  1  0  0  0  0
 44 46  1  0  0  0  0
 44 48  1  0  0  0  0
 45 50  1  0  0  0  0
 46 52  1  0  0  0  0
 47 65  1  0  0  0  0
 48 67  1  0  0  0  0
 49 52  1  0  0  0  0
 49 67  1  0  0  0  0
 50 71  1  0  0  0  0
 51 66  1  0  0  0  0
 52 64  1  0  0  0  0
 53 61  1  0  0  0  0
 53 65  1  0  0  0  0
 53 83  1  0  0  0  0
 54 60  1  0  0  0  0
 55 62  1  0  0  0  0
 56 62  1  0  0  0  0
 57 62  1  0  0  0  0
 58 73  1  0  0  0  0
 59 62  1  0  0  0  0
 59 72  1  0  0  0  0
 60 73  1  0  0  0  0
 61 84  1  0  0  0  0
 61 85  1  0  0  0  0
 63 64  1  0  0  0  0
M  CHG  1  73   1
M  ISO  4  33 101  38 100  70 100  80 101
M  END
> <Batch ID>
0160

> <Smiles>
CNC(C)C(=O)NC(C(=O)N1Cc2cc([101O:1][101CH:1]=C3CCN(c4cc([100NH:0][100C:0](=O)N5CCCC(n6nc(-c7ccc(Oc8ccc(F)cc8F)cc7)c(C(N)=O)c6N)C5)cs4)C3(F)C(F)F)ccc2CC1C(=O)NC1CCCc2ccccc21)C(C)(C)C

> <Shape>
0.293

> <Color>
0.118

> <Negative vol penalty>
0.000

$$$$

  -OEChem-04052303503D

 84 92  0     1  0  0  0  0  0999 V2000
  -28.8711  -33.7953   15.6904 C   0  0  0  0  0  0  0  0  0  0  0  0
  -29.0272  -32.7256   16.5660 C   0  0  0  0  0  0  0  0  0  0  0  0
  -22.6055  -10.4650   21.8270 C   0  0  0  0  0  0  0  0  0  0  0  0
  -24.6478   -9.6080   20.8617 C   0  0  0  0  0  0  0  0  0  0  0  0
  -28.0632  -34.8743   16.0468 C   0  0  0  0  0  0  0  0  0  0  0  0
  -28.3763  -32.7348   17.7992 C   0  0  0  0  0  0  0  0  0  0  0  0
  -26.1960  -28.2933   18.8782 C   0  0  0  0  0  0  0  0  0  0  0  0
  -22.0334   -9.1956   21.7436 C   0  0  0  0  0  0  0  0  0  0  0  0
  -24.0757   -8.3385   20.7784 C   0  0  0  0  0  0  0  0  0  0  0  0
  -27.0267  -27.2699   19.3325 C   0  0  0  0  0  0  0  0  0  0  0  0
  -22.1581   -6.2890   23.4667 C   0  0  0  0  0  0  0  0  0  0  0  0
  -21.4548   -5.8208   24.5765 C   0  0  0  0  0  0  0  0  0  0  0  0
  -29.0730  -20.5994   21.7558 C   0  0  0  0  0  0  0  0  0  0  0  0
  -26.3482  -27.7339   21.6004 C   0  0  0  0  0  0  0  0  0  0  0  0
  -19.4569   -5.6329   23.2311 C   0  0  0  0  0  0  0  0  0  0  0  0
  -23.9127  -10.6712   21.3860 C   0  0  0  0  0  0  0  0  0  0  0  0
  -29.3686  -19.2426   21.4823 C   0  0  0  0  0  0  0  0  0  0  0  0
  -25.2372  -12.5157   22.5483 C   0  0  0  0  0  0  0  0  0  0  0  0
  -27.3944  -34.8923   17.2809 C   0  0  0  0  0  0  0  0  0  0  0  0
  -25.4422  -29.0532   19.7842 C   0  0  0  0  0  0  0  0  0  0  0  0
  -27.5598  -33.8157   18.1730 C   0  0  0  0  0  0  0  0  0  0  0  0
  -25.5068  -28.7647   21.1549 C   0  0  0  0  0  0  0  0  0  0  0  0
  -22.7685   -8.1324   21.2193 C   0  0  0  0  0  0  0  0  0  0  0  0
  -27.1052  -26.9920   20.6940 C   0  0  0  0  0  0  0  0  0  0  0  0
  -21.5108   -6.4293   22.2391 C   0  0  0  0  0  0  0  0  0  0  0  0
  -20.1042   -5.4927   24.4587 C   0  0  0  0  0  0  0  0  0  0  0  0
  -20.1602   -6.1012   22.1213 C   0  0  0  0  0  0  0  0  0  0  0  0
  -24.5041  -11.9823   21.4714 C   0  0  0  0  0  0  0  0  0  0  0  0
  -29.3885  -19.1246   20.1121 C   0  0  0  0  0  0  0  0  0  0  0  0
  -25.5762  -13.7822   22.1391 C   0  0  0  0  0  0  0  0  0  0  0  0
  -28.9336  -21.2139   20.5331 C   0  0  0  0  0  0  0  0  0  0  0  0
  -29.6054  -18.1789   22.4132 C   0  0  0  0  0  0  0  0  0  0  0  0
  -25.5811  -11.9197   23.8062 C   0  0  0  0  0  0  0  0  0  0  0  0
  -25.3416  -32.1246   20.5964 C   0  0  0  0  0  0  0  0  0  0  0  0
  -22.7907  -31.1730   22.3599 C   0  0  0  0  0  0  0  0  0  0  0  0
  -28.4118  -23.6222   21.0450 C   0  0  0  0  0  0  0  0  0  0  0  0
  -21.1616  -28.6405   23.9659 C   0  0  0  0  0  0  0  0  0  0  0  0
  -27.4576  -17.2933   18.2304 C   0  0  0  0  0  0  0  0  0  0  0  0
  -26.5695  -36.1022   17.6420 C   0  0  0  0  0  0  0  0  0  0  0  0
  -24.5305  -30.1361   19.2758 C   0  0  0  0  0  0  0  0  0  0  0  0
  -24.7023  -29.5378   22.1667 C   0  0  0  0  0  0  0  0  0  0  0  0
  -25.6161  -35.8629   18.8099 C   0  0  0  0  0  0  0  0  0  0  0  0
  -23.9876  -16.4979   18.1783 C   0  0  0  0  0  0  0  0  0  0  0  0
  -26.3376  -35.1535   19.9513 C   0  0  0  0  0  0  0  0  0  0  0  0
  -23.8744  -15.2930   19.1139 C   0  0  0  0  0  0  0  0  0  0  0  0
  -25.2850  -16.4676   17.3734 C   0  0  0  0  0  0  0  0  0  0  0  0
  -26.3986  -15.1278   19.1166 C   0  0  0  0  0  0  0  0  0  0  0  0
  -26.8505  -33.7776   19.5093 C   0  0  1  0  0  0  0  0  0  0  0  0
  -24.1996  -31.1841   20.3339 C   0  0  1  0  0  0  0  0  0  0  0  0
  -25.1326  -15.1434   19.9902 C   0  0  2  0  0  0  0  0  0  0  0  0
  -29.5430  -18.4943   23.8896 C   0  0  0  0  0  0  0  0  0  0  0  0
  -19.1202  -28.1767   25.3497 C   0  0  0  0  0  0  0  0  0  0  0  0
  -24.1383  -32.4615   24.7752 C   0  0  0  0  0  0  0  0  0  0  0  0
  -22.5761  -31.1723   26.2469 C   0  0  0  0  0  0  0  0  0  0  0  0
  -21.6709  -32.8428   24.6305 C   0  0  0  0  0  0  0  0  0  0  0  0
  -20.0970  -26.7356   21.9666 C   0  0  0  0  0  0  0  0  0  0  0  0
  -29.6316  -17.9986   19.1976 C   0  0  0  0  0  0  0  0  0  0  0  0
  -28.1316  -24.8908   20.2611 C   0  0  0  0  0  0  0  0  0  1  0  0
  -22.5954  -30.6549   23.7643 C   0  0  1  0  0  0  0  0  0  0  0  0
  -19.7069  -28.2069   23.9470 C   0  0  2  0  0  0  0  0  0  0  0  0
  -22.7619  -31.7694   24.8356 C   0  0  0  0  0  0  0  0  0  0  0  0
  -24.3839  -12.8399   20.4544 N   0  0  0  0  0  0  0  0  0  0  0  0
  -25.0460  -13.9250   20.8906 N   0  0  0  0  0  0  0  0  0  0  0  0
  -23.8304  -30.5910   21.6208 N   0  0  0  0  0  0  0  0  0  0  0  0
  -26.4398  -16.3259   18.2635 N   0  0  0  0  0  0  0  0  0  0  0  0
  -26.2732  -14.7766   22.7289 N   0  0  0  0  0  0  0  0  0  0  0  0
  -25.1528  -10.6104   24.0644 N   0  0  0  0  0  0  0  0  0  0  0  0
  -28.6401  -22.5537   20.1846 N   0  0  0  0  0  0  0  0  0  0  0  0
  -25.7661  -32.8195   19.4800 N   0  0  0  0  0  0  0  0  0  0  0  0
  -21.2915  -30.0006   23.7804 N   0  0  0  0  0  0  0  0  0  0  0  0
  -28.5128  -17.0868   19.1105 N   0  0  0  0  0  0  0  0  0  0  0  0
  -19.5799  -26.8452   23.3550 N   0  3  0  0  0  0  0  0  0  0  0  0
  -29.8673  -16.9981   22.1176 O   0  0  0  0  0  0  0  0  0  0  0  0
  -26.2343  -12.5359   24.6820 O   0  0  0  0  0  0  0  0  0  0  0  0
  -25.8024  -32.2144   21.7283 O   0  0  0  0  0  0  0  0  0  0  0  0
  -22.0436  -32.0562   21.9318 O   0  0  0  0  0  0  0  0  0  0  0  0
  -28.4197  -23.6134   22.2716 O   0  0  0  0  0  0  0  0  0  0  0  0
  -22.0895  -27.8520   24.1325 O   0  0  0  0  0  0  0  0  0  0  0  0
  -27.4256  -18.2717   17.4762 O   0  0  0  0  0  0  0  0  0  0  0  0
  -29.1245  -20.3218   19.5260 O   0  0  0  0  0  0  0  0  0  0  0  0
  -22.2106   -6.8936   21.1380 O   0  0  0  0  0  0  0  0  0  0  0  0
  -27.9157  -25.9940   21.1400 O   0  0  0  0  0  0  0  0  0  1  0  0
  -19.4293   -5.0416   25.5242 F   0  0  0  0  0  0  0  0  0  0  0  0
  -19.5332   -6.2327   20.9442 F   0  0  0  0  0  0  0  0  0  0  0  0
  1  2  1  0  0  0  0
  1  5  2  0  0  0  0
  2  6  2  0  0  0  0
  3  8  2  0  0  0  0
  3 16  1  0  0  0  0
  4  9  1  0  0  0  0
  4 16  2  0  0  0  0
  5 19  1  0  0  0  0
  6 21  1  0  0  0  0
  7 10  2  0  0  0  0
  7 20  1  0  0  0  0
  8 23  1  0  0  0  0
  9 23  2  0  0  0  0
 10 24  1  0  0  0  0
 11 12  2  0  0  0  0
 11 25  1  0  0  0  0
 12 26  1  0  0  0  0
 13 17  1  0  0  0  0
 13 31  2  0  0  0  0
 14 22  1  0  0  0  0
 14 24  2  0  0  0  0
 15 26  2  0  0  0  0
 15 27  1  0  0  0  0
 16 28  1  0  0  0  0
 17 29  2  0  0  0  0
 17 32  1  0  0  0  0
 18 28  1  0  0  0  0
 18 30  2  0  0  0  0
 18 33  1  0  0  0  0
 19 21  2  0  0  0  0
 19 39  1  0  0  0  0
 20 22  2  0  0  0  0
 20 40  1  0  0  0  0
 21 48  1  0  0  0  0
 22 41  1  0  0  0  0
 23 81  1  0  0  0  0
 24 82  1  0  0  0  0
 25 27  2  0  0  0  0
 25 81  1  0  0  0  0
 26 83  1  0  0  0  0
 27 84  1  0  0  0  0
 28 62  2  0  0  0  0
 29 57  1  0  0  0  0
 29 80  1  0  0  0  0
 30 63  1  0  0  0  0
 30 66  1  0  0  0  0
 31 68  1  0  0  0  0
 31 80  1  0  0  0  0
 32 51  1  0  0  0  0
 32 73  2  0  0  0  0
 33 67  1  0  0  0  0
 33 74  2  0  0  0  0
 34 49  1  0  0  0  0
 34 69  1  0  0  0  0
 34 75  2  0  0  0  0
 35 59  1  0  0  0  0
 35 64  1  0  0  0  0
 35 76  2  0  0  0  0
 36 58  1  0  0  0  0
 36 68  1  0  0  0  0
 36 77  2  0  0  0  0
 37 60  1  0  0  0  0
 37 70  1  0  0  0  0
 37 78  2  0  0  0  0
 38 65  1  0  0  0  0
 38 71  1  0  0  0  0
 38 79  2  0  0  0  0
 39 42  1  0  0  0  0
 40 49  1  0  0  0  0
 41 64  1  0  0  0  0
 42 44  1  0  0  0  0
 43 45  1  0  0  0  0
 43 46  1  0  0  0  0
 44 48  1  0  0  0  0
 45 50  1  0  0  0  0
 46 65  1  0  0  0  0
 47 50  1  0  0  0  0
 47 65  1  0  0  0  0
 48 69  1  0  0  0  0
 49 64  1  0  0  0  0
 50 63  1  0  0  0  0
 52 60  1  0  0  0  0
 53 61  1  0  0  0  0
 54 61  1  0  0  0  0
 55 61  1  0  0  0  0
 56 72  1  0  0  0  0
 57 71  1  0  0  0  0
 58 82  1  0  0  0  0
 59 61  1  0  0  0  0
 59 70  1  0  0  0  0
 60 72  1  0  0  0  0
 62 63  1  0  0  0  0
M  CHG  1  72   1
M  ISO  4  38 100  58 101  71 100  82 101
M  END
> <Batch ID>
0160

> <Smiles>
CNC(C)C(=O)NC(C(=O)N1Cc2cc([101O:1][101CH2:1]C(=O)Nc3cc(C(C)=O)c(C[100NH:0][100C:0](=O)N4CCCC(n5nc(-c6ccc(Oc7ccc(F)cc7F)cc6)c(C(N)=O)c5N)C4)o3)ccc2CC1C(=O)NC1CCCc2ccccc21)C(C)(C)C

> <Shape>
0.259

> <Color>
0.096

> <Negative vol penalty>
0.000

$$$$

  -OEChem-04052303503D

 83 92  0     1  0  0  0  0  0999 V2000
  -28.6039  -37.0917   20.3222 C   0  0  0  0  0  0  0  0  0  0  0  0
  -28.9045  -35.7637   20.0368 C   0  0  0  0  0  0  0  0  0  0  0  0
  -22.8674  -10.9854   20.8148 C   0  0  0  0  0  0  0  0  0  0  0  0
  -24.4123   -9.2262   21.4110 C   0  0  0  0  0  0  0  0  0  0  0  0
  -27.7532  -37.4002   21.3829 C   0  0  0  0  0  0  0  0  0  0  0  0
  -28.3555  -34.7434   20.8127 C   0  0  0  0  0  0  0  0  0  0  0  0
  -26.6471  -29.1804   18.9048 C   0  0  0  0  0  0  0  0  0  0  0  0
  -21.9671  -10.5195   21.7729 C   0  0  0  0  0  0  0  0  0  0  0  0
  -23.5120   -8.7603   22.3692 C   0  0  0  0  0  0  0  0  0  0  0  0
  -27.2779  -27.9379   18.9520 C   0  0  0  0  0  0  0  0  0  0  0  0
  -20.6818   -6.9121   22.4378 C   0  0  0  0  0  0  0  0  0  0  0  0
  -20.4558   -5.5371   22.5003 C   0  0  0  0  0  0  0  0  0  0  0  0
  -26.0778  -27.4123   20.9775 C   0  0  0  0  0  0  0  0  0  0  0  0
  -21.2426   -5.5117   24.7845 C   0  0  0  0  0  0  0  0  0  0  0  0
  -30.4740  -17.8984   20.4400 C   0  0  0  0  0  0  0  0  0  0  0  0
  -24.0900  -10.3387   20.6338 C   0  0  0  0  0  0  0  0  0  0  0  0
  -24.8043  -10.9294   18.2571 C   0  0  0  0  0  0  0  0  0  0  0  0
  -27.1858  -36.3827   22.1662 C   0  0  0  0  0  0  0  0  0  0  0  0
  -25.7337  -29.5532   19.9013 C   0  0  0  0  0  0  0  0  0  0  0  0
  -27.4975  -35.0386   21.8857 C   0  0  0  0  0  0  0  0  0  0  0  0
  -25.4349  -28.6591   20.9393 C   0  0  0  0  0  0  0  0  0  0  0  0
  -22.2894   -9.4069   22.5501 C   0  0  0  0  0  0  0  0  0  0  0  0
  -26.9954  -27.0548   19.9900 C   0  0  0  0  0  0  0  0  0  0  0  0
  -21.1882   -7.5869   23.5487 C   0  0  0  0  0  0  0  0  0  0  0  0
  -20.7362   -4.8369   23.6737 C   0  0  0  0  0  0  0  0  0  0  0  0
  -21.4686   -6.8867   24.7220 C   0  0  0  0  0  0  0  0  0  0  0  0
  -25.0202  -10.8192   19.6439 C   0  0  0  0  0  0  0  0  0  0  0  0
  -25.9832  -11.4339   17.7651 C   0  0  0  0  0  0  0  0  0  0  0  0
  -29.3923  -17.0432   20.4120 C   0  0  0  0  0  0  0  0  0  0  0  0
  -28.8727  -19.3861   20.6207 C   0  0  0  0  0  0  0  0  0  0  0  0
  -23.6419  -10.6047   17.4830 C   0  0  0  0  0  0  0  0  0  0  0  0
  -25.6051  -31.8706   22.0731 C   0  0  0  0  0  0  0  0  0  0  0  0
  -22.6432  -30.6646   22.6164 C   0  0  0  0  0  0  0  0  0  0  0  0
  -20.5224  -27.9972   22.4316 C   0  0  0  0  0  0  0  0  0  0  0  0
  -30.3442  -14.7214   20.1899 C   0  0  0  0  0  0  0  0  0  0  0  0
  -26.3094  -36.7672   23.3318 C   0  0  0  0  0  0  0  0  0  0  0  0
  -25.0417  -30.8863   19.8215 C   0  0  0  0  0  0  0  0  0  0  0  0
  -24.4467  -29.0032   22.0226 C   0  0  0  0  0  0  0  0  0  0  0  0
  -25.4718  -35.6108   23.8716 C   0  0  0  0  0  0  0  0  0  0  0  0
  -30.6855  -11.5209   18.6676 C   0  0  0  0  0  0  0  0  0  0  0  0
  -26.3306  -34.3609   24.0362 C   0  0  0  0  0  0  0  0  0  0  0  0
  -28.4242  -21.6335   19.5460 C   0  0  0  0  0  0  0  0  0  0  0  0
  -28.5206  -21.4312   22.0697 C   0  0  0  0  0  0  0  0  0  0  0  0
  -27.6926  -22.9684   19.6841 C   0  0  0  0  0  0  0  0  0  0  0  0
  -27.7889  -22.7666   22.2015 C   0  0  0  0  0  0  0  0  0  0  0  0
  -29.2510  -10.9903   18.6134 C   0  0  0  0  0  0  0  0  0  0  0  0
  -30.9458  -12.3232   19.9413 C   0  0  0  0  0  0  0  0  0  0  0  0
  -28.5536  -12.8755   20.1453 C   0  0  0  0  0  0  0  0  0  0  0  0
  -26.9019  -33.9028   22.6890 C   0  0  1  0  0  0  0  0  0  0  0  0
  -28.1605  -20.7198   20.7547 C   0  0  0  0  0  0  0  0  0  0  0  0
  -24.5147  -31.3676   21.1698 C   0  0  1  0  0  0  0  0  0  0  0  0
  -28.0514  -23.6786   20.9960 C   0  0  0  0  0  0  0  0  0  0  0  0
  -28.2247  -12.1156   18.8499 C   0  0  2  0  0  0  0  0  0  0  0  0
  -18.1758  -27.3040   22.9885 C   0  0  0  0  0  0  0  0  0  0  0  0
  -23.4101  -30.4430   25.5613 C   0  0  0  0  0  0  0  0  0  0  0  0
  -21.4578  -28.9088   25.8824 C   0  0  0  0  0  0  0  0  0  0  0  0
  -21.0840  -31.2632   25.1479 C   0  0  0  0  0  0  0  0  0  0  0  0
  -19.8895  -27.4418   19.5944 C   0  0  0  0  0  0  0  0  0  0  0  0
  -27.2737  -24.9865   21.1305 C   0  0  0  0  0  0  0  0  0  1  0  0
  -22.0720  -29.5994   23.5208 C   0  0  1  0  0  0  0  0  0  0  0  0
  -19.0972  -27.8768   21.9229 C   0  0  2  0  0  0  0  0  0  0  0  0
  -22.0261  -30.0476   25.0089 C   0  0  0  0  0  0  0  0  0  0  0  0
  -30.1780  -19.2422   20.5592 N   0  0  0  0  0  0  0  0  0  0  0  0
  -26.2404  -11.2213   20.0093 N   0  0  0  0  0  0  0  0  0  0  0  0
  -26.8018  -11.5889   18.8449 N   0  0  0  0  0  0  0  0  0  0  0  0
  -23.8009  -30.3209   21.9040 N   0  0  0  0  0  0  0  0  0  0  0  0
  -29.9372  -13.3736   20.0970 N   0  0  0  0  0  0  0  0  0  0  0  0
  -26.3891  -11.7555   16.5184 N   0  0  0  0  0  0  0  0  0  0  0  0
  -23.5250   -9.3076   16.9651 N   0  0  0  0  0  0  0  0  0  0  0  0
  -29.2957  -15.6338   20.3025 N   0  0  0  0  0  0  0  0  0  0  0  0
  -25.8889  -33.2141   21.9183 N   0  0  0  0  0  0  0  0  0  0  0  0
  -20.7713  -29.2449   22.9632 N   0  0  0  0  0  0  0  0  0  0  0  0
  -19.0468  -26.9855   20.7295 N   0  3  0  0  0  0  0  0  0  0  0  0
  -22.7418  -11.4449   17.2434 O   0  0  0  0  0  0  0  0  0  0  0  0
  -26.1476  -31.0974   22.8538 O   0  0  0  0  0  0  0  0  0  0  0  0
  -22.0788  -31.7587   22.5391 O   0  0  0  0  0  0  0  0  0  0  0  0
  -21.3327  -27.0753   22.3675 O   0  0  0  0  0  0  0  0  0  0  0  0
  -31.5338  -15.0447   20.1435 O   0  0  0  0  0  0  0  0  0  0  0  0
  -21.4112   -8.9521   23.4853 O   0  0  0  0  0  0  0  0  0  0  0  0
  -27.6102  -25.8417   20.0388 O   0  0  0  0  0  0  0  0  0  1  0  0
  -20.5178   -3.5167   23.7341 F   0  0  0  0  0  0  0  0  0  0  0  0
  -21.9541   -7.5297   25.7928 F   0  0  0  0  0  0  0  0  0  0  0  0
  -27.9407  -17.9473   20.5414 S   0  0  0  0  0  0  0  0  0  0  0  0
  1  2  1  0  0  0  0
  1  5  2  0  0  0  0
  2  6  2  0  0  0  0
  3  8  2  0  0  0  0
  3 16  1  0  0  0  0
  4  9  1  0  0  0  0
  4 16  2  0  0  0  0
  5 18  1  0  0  0  0
  6 20  1  0  0  0  0
  7 10  2  0  0  0  0
  7 19  1  0  0  0  0
  8 22  1  0  0  0  0
  9 22  2  0  0  0  0
 10 23  1  0  0  0  0
 11 12  2  0  0  0  0
 11 24  1  0  0  0  0
 12 25  1  0  0  0  0
 13 21  1  0  0  0  0
 13 23  2  0  0  0  0
 14 25  2  0  0  0  0
 14 26  1  0  0  0  0
 15 29  2  0  0  0  0
 15 63  1  0  0  0  0
 16 27  1  0  0  0  0
 17 27  1  0  0  0  0
 17 28  2  0  0  0  0
 17 31  1  0  0  0  0
 18 20  2  0  0  0  0
 18 36  1  0  0  0  0
 19 21  2  0  0  0  0
 19 37  1  0  0  0  0
 20 49  1  0  0  0  0
 21 38  1  0  0  0  0
 22 79  1  0  0  0  0
 23 80  1  0  0  0  0
 24 26  2  0  0  0  0
 24 79  1  0  0  0  0
 25 81  1  0  0  0  0
 26 82  1  0  0  0  0
 27 64  2  0  0  0  0
 28 65  1  0  0  0  0
 28 68  1  0  0  0  0
 29 70  1  0  0  0  0
 29 83  1  0  0  0  0
 30 50  1  0  0  0  0
 30 63  2  0  0  0  0
 30 83  1  0  0  0  0
 31 69  1  0  0  0  0
 31 74  2  0  0  0  0
 32 51  1  0  0  0  0
 32 71  1  0  0  0  0
 32 75  2  0  0  0  0
 33 60  1  0  0  0  0
 33 66  1  0  0  0  0
 33 76  2  0  0  0  0
 34 61  1  0  0  0  0
 34 72  1  0  0  0  0
 34 77  2  0  0  0  0
 35 67  1  0  0  0  0
 35 70  1  0  0  0  0
 35 78  2  0  0  0  0
 36 39  1  0  0  0  0
 37 51  1  0  0  0  0
 38 66  1  0  0  0  0
 39 41  1  0  0  0  0
 40 46  1  0  0  0  0
 40 47  1  0  0  0  0
 41 49  1  0  0  0  0
 42 44  1  0  0  0  0
 42 50  1  0  0  0  0
 43 45  1  0  0  0  0
 43 50  1  0  0  0  0
 44 52  1  0  0  0  0
 45 52  1  0  0  0  0
 46 53  1  0  0  0  0
 47 67  1  0  0  0  0
 48 53  1  0  0  0  0
 48 67  1  0  0  0  0
 49 71  1  0  0  0  0
 51 66  1  0  0  0  0
 52 59  1  0  0  0  0
 53 65  1  0  0  0  0
 54 61  1  0  0  0  0
 55 62  1  0  0  0  0
 56 62  1  0  0  0  0
 57 62  1  0  0  0  0
 58 73  1  0  0  0  0
 59 80  1  0  0  0  0
 60 62  1  0  0  0  0
 60 72  1  0  0  0  0
 61 73  1  0  0  0  0
 64 65  1  0  0  0  0
M  CHG  1  73   1
M  ISO  4  35 100  59 101  70 100  80 101
M  END
> <Batch ID>
0160

> <Smiles>
CNC(C)C(=O)NC(C(=O)N1Cc2cc([101O:1][101CH2:1]C3CCC(c4ncc([100NH:0][100C:0](=O)N5CCCC(n6nc(-c7ccc(Oc8ccc(F)cc8F)cc7)c(C(N)=O)c6N)C5)s4)CC3)ccc2CC1C(=O)NC1CCCc2ccccc21)C(C)(C)C

> <Shape>
0.333

> <Color>
0.106

> <Negative vol penalty>
0.000

$$$$

  -OEChem-04052303503D

 84 92  0     1  0  0  0  0  0999 V2000
  -20.2319  -23.5660   33.4738 C   0  0  0  0  0  0  0  0  0  0  0  0
  -21.1125  -23.1986   32.4614 C   0  0  0  0  0  0  0  0  0  0  0  0
  -23.2007   -9.8507   19.9524 C   0  0  0  0  0  0  0  0  0  0  0  0
  -23.9120   -9.9297   22.2600 C   0  0  0  0  0  0  0  0  0  0  0  0
  -19.6247  -22.5859   34.2577 C   0  0  0  0  0  0  0  0  0  0  0  0
  -21.3872  -21.8507   32.2330 C   0  0  0  0  0  0  0  0  0  0  0  0
  -21.3139  -20.6597   27.3115 C   0  0  0  0  0  0  0  0  0  0  0  0
  -22.5092   -8.6663   20.2060 C   0  0  0  0  0  0  0  0  0  0  0  0
  -23.2204   -8.7452   22.5136 C   0  0  0  0  0  0  0  0  0  0  0  0
  -22.4321  -21.0083   26.5554 C   0  0  0  0  0  0  0  0  0  0  0  0
  -20.0235   -7.7985   23.0648 C   0  0  0  0  0  0  0  0  0  0  0  0
  -19.2455   -7.7389   24.2210 C   0  0  0  0  0  0  0  0  0  0  0  0
  -23.2383  -18.7402   26.7131 C   0  0  0  0  0  0  0  0  0  0  0  0
  -30.0375  -17.5036   23.1671 C   0  0  0  0  0  0  0  0  0  0  0  0
  -32.1325  -17.5343   21.9643 C   0  0  0  0  0  0  0  0  0  0  0  0
  -30.8126  -19.5499   22.1429 C   0  0  0  0  0  0  0  0  0  0  0  0
  -20.5648   -5.8763   25.0128 C   0  0  0  0  0  0  0  0  0  0  0  0
  -23.9022  -10.4825   20.9793 C   0  0  0  0  0  0  0  0  0  0  0  0
  -24.1224  -13.0193   20.8256 C   0  0  0  0  0  0  0  0  0  0  0  0
  -19.8847  -21.2249   34.0326 C   0  0  0  0  0  0  0  0  0  0  0  0
  -21.1546  -19.3491   27.7842 C   0  0  0  0  0  0  0  0  0  0  0  0
  -20.7840  -20.8515   33.0156 C   0  0  0  0  0  0  0  0  0  0  0  0
  -22.1159  -18.3769   27.4729 C   0  0  0  0  0  0  0  0  0  0  0  0
  -31.1758  -16.8420   22.7066 C   0  0  0  0  0  0  0  0  0  0  0  0
  -29.8559  -18.8576   22.8852 C   0  0  0  0  0  0  0  0  0  0  0  0
  -22.5190   -8.1135   21.4866 C   0  0  0  0  0  0  0  0  0  0  0  0
  -23.3960  -20.0492   26.2585 C   0  0  0  0  0  0  0  0  0  0  0  0
  -21.0721   -6.8969   22.8826 C   0  0  0  0  0  0  0  0  0  0  0  0
  -19.5161   -6.7778   25.1950 C   0  0  0  0  0  0  0  0  0  0  0  0
  -31.9510  -18.8883   21.6825 C   0  0  0  0  0  0  0  0  0  0  0  0
  -21.3428   -5.9358   23.8566 C   0  0  0  0  0  0  0  0  0  0  0  0
  -24.6172  -11.7058   20.7178 C   0  0  0  0  0  0  0  0  0  0  0  0
  -25.1838  -13.8161   20.4721 C   0  0  0  0  0  0  0  0  0  0  0  0
  -22.8198  -13.4781   21.2110 C   0  0  0  0  0  0  0  0  0  0  0  0
  -20.9613  -18.0098   30.6604 C   0  0  0  0  0  0  0  0  0  0  0  0
  -26.6030  -19.8891   24.4463 C   0  0  0  0  0  0  0  0  0  0  0  0
  -20.3261  -15.3328   28.9421 C   0  0  0  0  0  0  0  0  0  0  0  0
  -20.6099  -13.6529   25.9851 C   0  0  0  0  0  0  0  0  0  0  0  0
  -30.9475  -14.0580   20.9577 C   0  0  0  0  0  0  0  0  0  0  0  0
  -19.2410  -20.2036   34.9366 C   0  0  0  0  0  0  0  0  0  0  0  0
  -19.9294  -18.9828   28.5760 C   0  0  0  0  0  0  0  0  0  0  0  0
  -21.9817  -16.9511   27.9394 C   0  0  0  0  0  0  0  0  0  0  0  0
  -19.2969  -18.7811   34.3856 C   0  0  0  0  0  0  0  0  0  0  0  0
  -29.3565  -13.1275   17.9114 C   0  0  0  0  0  0  0  0  0  0  0  0
  -20.6971  -18.4626   33.8709 C   0  0  0  0  0  0  0  0  0  0  0  0
  -27.9262  -12.7881   18.3346 C   0  0  0  0  0  0  0  0  0  0  0  0
  -30.3738  -12.6999   18.9670 C   0  0  0  0  0  0  0  0  0  0  0  0
  -28.6791  -12.8718   20.7480 C   0  0  0  0  0  0  0  0  0  0  0  0
  -21.0883  -19.3986   32.7210 C   0  0  1  0  0  0  0  0  0  0  0  0
  -20.1259  -17.7413   29.4407 C   0  0  1  0  0  0  0  0  0  0  0  0
  -27.6128  -13.3345   19.7405 C   0  0  2  0  0  0  0  0  0  0  0  0
  -20.0240  -11.4694   24.8959 C   0  0  0  0  0  0  0  0  0  0  0  0
  -22.5873  -13.9672   30.4692 C   0  0  0  0  0  0  0  0  0  0  0  0
  -22.5857  -12.1702   28.7259 C   0  0  0  0  0  0  0  0  0  0  0  0
  -20.5558  -12.5497   30.1253 C   0  0  0  0  0  0  0  0  0  0  0  0
  -18.9467  -14.9894   23.9341 C   0  0  0  0  0  0  0  0  0  0  0  0
  -31.3699  -15.3939   23.0061 C   0  0  0  0  0  0  0  0  0  0  0  0
  -27.6839  -18.8828   24.1130 C   0  0  0  0  0  0  0  0  0  0  0  0
  -25.4367  -19.3542   25.2543 C   0  0  0  0  0  0  0  0  0  1  0  0
  -21.1586  -14.2298   28.3347 C   0  0  1  0  0  0  0  0  0  0  0  0
  -19.5872  -12.9037   25.1501 C   0  0  2  0  0  0  0  0  0  0  0  0
  -21.7257  -13.2565   29.4064 C   0  0  0  0  0  0  0  0  0  0  0  0
  -25.8935  -11.6661   20.3263 N   0  0  0  0  0  0  0  0  0  0  0  0
  -26.2097  -12.9646   20.1848 N   0  0  0  0  0  0  0  0  0  0  0  0
  -20.7692  -16.6437   28.7158 N   0  0  0  0  0  0  0  0  0  0  0  0
  -30.0199  -13.2524   20.2767 N   0  0  0  0  0  0  0  0  0  0  0  0
  -25.3302  -15.1551   20.3819 N   0  0  0  0  0  0  0  0  0  0  0  0
  -21.8469  -12.5254   21.5427 N   0  0  0  0  0  0  0  0  0  0  0  0
  -28.7231  -19.5159   23.3420 N   0  0  0  0  0  0  0  0  0  0  0  0
  -20.4454  -18.9855   31.4920 N   0  0  0  0  0  0  0  0  0  0  0  0
  -20.3165  -13.5883   27.3309 N   0  0  0  0  0  0  0  0  0  0  0  0
  -30.5298  -14.5462   22.1897 N   0  0  0  0  0  0  0  0  0  0  0  0
  -19.3989  -13.5778   23.8343 N   0  3  0  0  0  0  0  0  0  0  0  0
  -22.5225  -14.6963   21.2439 O   0  0  0  0  0  0  0  0  0  0  0  0
  -21.9964  -17.3776   30.8350 O   0  0  0  0  0  0  0  0  0  0  0  0
  -26.6566  -21.0656   24.0901 O   0  0  0  0  0  0  0  0  0  0  0  0
  -19.3157  -15.0425   29.5875 O   0  0  0  0  0  0  0  0  0  0  0  0
  -21.5747  -14.2339   25.4931 O   0  0  0  0  0  0  0  0  0  0  0  0
  -32.0630  -14.3268   20.4991 O   0  0  0  0  0  0  0  0  0  0  0  0
  -21.8441   -6.9578   21.7346 O   0  0  0  0  0  0  0  0  0  0  0  0
  -24.4887  -20.3869   25.5211 O   0  0  0  0  0  0  0  0  0  1  0  0
  -18.7699   -6.7218   26.3059 F   0  0  0  0  0  0  0  0  0  0  0  0
  -32.8701  -19.5531   20.9702 F   0  0  0  0  0  0  0  0  0  0  0  0
  -22.3497   -5.0677   23.6877 F   0  0  0  0  0  0  0  0  0  0  0  0
  1  2  1  0  0  0  0
  1  5  2  0  0  0  0
  2  6  2  0  0  0  0
  3  8  2  0  0  0  0
  3 18  1  0  0  0  0
  4  9  1  0  0  0  0
  4 18  2  0  0  0  0
  5 20  1  0  0  0  0
  6 22  1  0  0  0  0
  7 10  2  0  0  0  0
  7 21  1  0  0  0  0
  8 26  1  0  0  0  0
  9 26  2  0  0  0  0
 10 27  1  0  0  0  0
 11 12  2  0  0  0  0
 11 28  1  0  0  0  0
 12 29  1  0  0  0  0
 13 23  1  0  0  0  0
 13 27  2  0  0  0  0
 14 24  1  0  0  0  0
 14 25  2  0  0  0  0
 15 24  2  0  0  0  0
 15 30  1  0  0  0  0
 16 25  1  0  0  0  0
 16 30  2  0  0  0  0
 17 29  2  0  0  0  0
 17 31  1  0  0  0  0
 18 32  1  0  0  0  0
 19 32  1  0  0  0  0
 19 33  2  0  0  0  0
 19 34  1  0  0  0  0
 20 22  2  0  0  0  0
 20 40  1  0  0  0  0
 21 23  2  0  0  0  0
 21 41  1  0  0  0  0
 22 49  1  0  0  0  0
 23 42  1  0  0  0  0
 24 57  1  0  0  0  0
 25 69  1  0  0  0  0
 26 80  1  0  0  0  0
 27 81  1  0  0  0  0
 28 31  2  0  0  0  0
 28 80  1  0  0  0  0
 29 82  1  0  0  0  0
 30 83  1  0  0  0  0
 31 84  1  0  0  0  0
 32 63  2  0  0  0  0
 33 64  1  0  0  0  0
 33 67  1  0  0  0  0
 34 68  1  0  0  0  0
 34 74  2  0  0  0  0
 35 50  1  0  0  0  0
 35 70  1  0  0  0  0
 35 75  2  0  0  0  0
 36 58  1  0  0  0  0
 36 59  1  0  0  0  0
 36 76  2  0  0  0  0
 37 60  1  0  0  0  0
 37 65  1  0  0  0  0
 37 77  2  0  0  0  0
 38 61  1  0  0  0  0
 38 71  1  0  0  0  0
 38 78  2  0  0  0  0
 39 66  1  0  0  0  0
 39 72  1  0  0  0  0
 39 79  2  0  0  0  0
 40 43  1  0  0  0  0
 41 50  1  0  0  0  0
 42 65  1  0  0  0  0
 43 45  1  0  0  0  0
 44 46  1  0  0  0  0
 44 47  1  0  0  0  0
 45 49  1  0  0  0  0
 46 51  1  0  0  0  0
 47 66  1  0  0  0  0
 48 51  1  0  0  0  0
 48 66  1  0  0  0  0
 49 70  1  0  0  0  0
 50 65  1  0  0  0  0
 51 64  1  0  0  0  0
 52 61  1  0  0  0  0
 53 62  1  0  0  0  0
 54 62  1  0  0  0  0
 55 62  1  0  0  0  0
 56 73  1  0  0  0  0
 57 72  1  0  0  0  0
 58 69  1  0  0  0  0
 59 81  1  0  0  0  0
 60 62  1  0  0  0  0
 60 71  1  0  0  0  0
 61 73  1  0  0  0  0
 63 64  1  0  0  0  0
M  CHG  1  73   1
M  ISO  4  39 100  59 101  72 100  81 101
M  END
> <Batch ID>
0160

> <Smiles>
CNC(C)C(=O)NC(C(=O)N1Cc2cc([101O:1][101CH2:1]C(=O)CNc3cc(F)cc(C[100NH:0][100C:0](=O)N4CCCC(n5nc(-c6ccc(Oc7ccc(F)cc7F)cc6)c(C(N)=O)c5N)C4)c3)ccc2CC1C(=O)NC1CCCc2ccccc21)C(C)(C)C

> <Shape>
0.169

> <Color>
0.185

> <Negative vol penalty>
0.000

$$$$

  -OEChem-04052303503D

 87 96  0     1  0  0  0  0  0999 V2000
  -33.6437  -28.5568   12.0828 C   0  0  0  0  0  0  0  0  0  0  0  0
  -33.4464  -27.6177   13.0900 C   0  0  0  0  0  0  0  0  0  0  0  0
  -32.6702  -17.4700   23.4489 C   0  0  0  0  0  0  0  0  0  0  0  0
  -23.0714   -9.8730   19.9399 C   0  0  0  0  0  0  0  0  0  0  0  0
  -23.8360   -9.8730   22.2317 C   0  0  0  0  0  0  0  0  0  0  0  0
  -31.8777  -18.3378   24.2002 C   0  0  0  0  0  0  0  0  0  0  0  0
  -33.1326  -29.8463   12.2238 C   0  0  0  0  0  0  0  0  0  0  0  0
  -32.7389  -27.9679   14.2394 C   0  0  0  0  0  0  0  0  0  0  0  0
  -29.0278  -24.3652   17.5188 C   0  0  0  0  0  0  0  0  0  0  0  0
  -32.0763  -16.5895   22.5445 C   0  0  0  0  0  0  0  0  0  0  0  0
  -22.3260   -8.7206   20.1885 C   0  0  0  0  0  0  0  0  0  0  0  0
  -23.0905   -8.7206   22.4804 C   0  0  0  0  0  0  0  0  0  0  0  0
  -29.2223  -23.6394   18.6931 C   0  0  0  0  0  0  0  0  0  0  0  0
  -19.8621   -7.9272   23.0875 C   0  0  0  0  0  0  0  0  0  0  0  0
  -19.1075   -7.8858   24.2599 C   0  0  0  0  0  0  0  0  0  0  0  0
  -28.2820  -25.4595   19.9668 C   0  0  0  0  0  0  0  0  0  0  0  0
  -20.3468   -5.9443   24.9891 C   0  0  0  0  0  0  0  0  0  0  0  0
  -23.8265  -10.4492   20.9615 C   0  0  0  0  0  0  0  0  0  0  0  0
  -30.4913  -18.3251   24.0472 C   0  0  0  0  0  0  0  0  0  0  0  0
  -24.1727  -12.9740   20.8469 C   0  0  0  0  0  0  0  0  0  0  0  0
  -32.4101  -30.2097   13.3712 C   0  0  0  0  0  0  0  0  0  0  0  0
  -28.4680  -25.6503   17.5608 C   0  0  0  0  0  0  0  0  0  0  0  0
  -32.2188  -29.2639   14.3965 C   0  0  0  0  0  0  0  0  0  0  0  0
  -28.0791  -26.1985   18.7914 C   0  0  0  0  0  0  0  0  0  0  0  0
  -30.6900  -16.5768   22.3916 C   0  0  0  0  0  0  0  0  0  0  0  0
  -22.3355   -8.1444   21.4588 C   0  0  0  0  0  0  0  0  0  0  0  0
  -28.8520  -24.1876   19.9177 C   0  0  0  0  0  0  0  0  0  0  0  0
  -20.8591   -6.9771   22.8659 C   0  0  0  0  0  0  0  0  0  0  0  0
  -19.3498   -6.8944   25.2106 C   0  0  0  0  0  0  0  0  0  0  0  0
  -21.1014   -5.9857   23.8167 C   0  0  0  0  0  0  0  0  0  0  0  0
  -29.8974  -17.4446   23.1429 C   0  0  0  0  0  0  0  0  0  0  0  0
  -24.5972  -11.6393   20.7051 C   0  0  0  0  0  0  0  0  0  0  0  0
  -25.2654  -13.7224   20.4833 C   0  0  0  0  0  0  0  0  0  0  0  0
  -29.2800  -20.6280   22.9860 C   0  0  0  0  0  0  0  0  0  0  0  0
  -28.5219  -21.4796   22.2749 C   0  0  0  0  0  0  0  0  0  0  0  0
  -29.6569  -19.2438   24.8421 C   0  0  0  0  0  0  0  0  0  0  0  0
  -22.9040  -13.4911   21.2697 C   0  0  0  0  0  0  0  0  0  0  0  0
  -29.4672  -28.5595   16.7599 C   0  0  0  0  0  0  0  0  0  0  0  0
  -26.4137  -29.3827   17.4815 C   0  0  0  0  0  0  0  0  0  0  0  0
  -23.5474  -28.6688   19.1907 C   0  0  0  0  0  0  0  0  0  0  0  0
  -30.7339  -14.7577   20.6494 C   0  0  0  0  0  0  0  0  0  0  0  0
  -31.9176  -31.6294   13.4997 C   0  0  0  0  0  0  0  0  0  0  0  0
  -28.2402  -26.4095   16.2826 C   0  0  0  0  0  0  0  0  0  0  0  0
  -27.4553  -27.5660   18.8886 C   0  0  0  0  0  0  0  0  0  0  0  0
  -27.1540  -21.8926   22.7533 C   0  0  0  0  0  0  0  0  0  0  0  0
  -30.8571  -31.8106   14.5826 C   0  0  0  0  0  0  0  0  0  0  0  0
  -26.6018  -20.9318   23.8064 C   0  0  0  0  0  0  0  0  0  0  0  0
  -29.6103  -12.3517   18.2775 C   0  0  0  0  0  0  0  0  0  0  0  0
  -31.2816  -31.1081   15.8683 C   0  0  0  0  0  0  0  0  0  0  0  0
  -28.1710  -12.0617   18.7093 C   0  0  0  0  0  0  0  0  0  0  0  0
  -27.6479  -20.6181   24.8660 C   0  0  0  0  0  0  0  0  0  0  0  0
  -30.5282  -12.5759   19.4779 C   0  0  0  0  0  0  0  0  0  0  0  0
  -28.6254  -13.3004   20.8648 C   0  0  0  0  0  0  0  0  0  0  0  0
  -31.4353  -29.5985   15.6472 C   0  0  1  0  0  0  0  0  0  0  0  0
  -28.1354  -27.9168   16.4934 C   0  0  1  0  0  0  0  0  0  0  0  0
  -27.6499  -13.1318   19.6885 C   0  0  2  0  0  0  0  0  0  0  0  0
  -21.2344  -29.5464   19.6116 C   0  0  0  0  0  0  0  0  0  0  0  0
  -27.5599  -31.4948   19.3617 C   0  0  0  0  0  0  0  0  0  0  0  0
  -25.3024  -31.6682   20.4305 C   0  0  0  0  0  0  0  0  0  0  0  0
  -25.5882  -32.2506   18.0218 C   0  0  0  0  0  0  0  0  0  0  0  0
  -22.2938  -26.2491   18.0363 C   0  0  0  0  0  0  0  0  0  0  0  0
  -28.9796  -22.0590   20.9706 C   0  0  0  0  0  0  0  0  0  1  0  0
  -25.6930  -29.8264   18.7316 C   0  0  1  0  0  0  0  0  0  0  0  0
  -22.0947  -28.6341   18.7513 C   0  0  2  0  0  0  0  0  0  0  0  0
  -26.0494  -31.2850   19.1351 C   0  0  0  0  0  0  0  0  0  0  0  0
  -25.8610  -11.5422   20.2840 N   0  0  0  0  0  0  0  0  0  0  0  0
  -26.2400  -12.8254   20.1580 N   0  0  0  0  0  0  0  0  0  0  0  0
  -28.8862  -20.1281   24.2203 N   0  0  0  0  0  0  0  0  0  0  0  0
  -27.2588  -28.2716   17.6114 N   0  0  0  0  0  0  0  0  0  0  0  0
  -29.9729  -13.6056   20.3589 N   0  0  0  0  0  0  0  0  0  0  0  0
  -25.4781  -15.0537   20.4131 N   0  0  0  0  0  0  0  0  0  0  0  0
  -21.8911  -12.5830   21.6068 N   0  0  0  0  0  0  0  0  0  0  0  0
  -30.0899  -15.6819   21.4714 N   0  0  0  0  0  0  0  0  0  0  0  0
  -30.1383  -28.9571   15.6192 N   0  0  0  0  0  0  0  0  0  0  0  0
  -24.2724  -29.6050   18.4841 N   0  0  0  0  0  0  0  0  0  0  0  0
  -29.6877  -19.1714   26.1696 N   0  3  0  0  0  0  0  0  0  0  0  0
  -21.5562  -27.2481   18.8518 N   0  3  0  0  0  0  0  0  0  0  0  0
  -22.6701  -14.7220   21.3305 O   0  0  0  0  0  0  0  0  0  0  0  0
  -29.8564  -28.6867   17.9149 O   0  0  0  0  0  0  0  0  0  0  0  0
  -26.2280  -29.9950   16.4268 O   0  0  0  0  0  0  0  0  0  0  0  0
  -23.9934  -27.9411   20.0750 O   0  0  0  0  0  0  0  0  0  0  0  0
  -31.8623  -14.9255   20.1799 O   0  0  0  0  0  0  0  0  0  0  0  0
  -21.6080   -7.0201   21.7018 O   0  0  0  0  0  0  0  0  0  0  0  0
  -29.0414  -23.4815   21.0655 O   0  0  0  0  0  0  0  0  0  1  0  0
  -18.6261   -6.8556   26.3371 F   0  0  0  0  0  0  0  0  0  0  0  0
  -22.0587   -5.0710   23.6099 F   0  0  0  0  0  0  0  0  0  0  0  0
  -28.5637  -17.4339   22.9968 F   0  0  0  0  0  0  0  0  0  0  0  0
  1  2  1  0  0  0  0
  1  7  2  0  0  0  0
  2  8  2  0  0  0  0
  3  6  2  0  0  0  0
  3 10  1  0  0  0  0
  4 11  2  0  0  0  0
  4 18  1  0  0  0  0
  5 12  1  0  0  0  0
  5 18  2  0  0  0  0
  6 19  1  0  0  0  0
  7 21  1  0  0  0  0
  8 23  1  0  0  0  0
  9 13  2  0  0  0  0
  9 22  1  0  0  0  0
 10 25  2  0  0  0  0
 11 26  1  0  0  0  0
 12 26  2  0  0  0  0
 13 27  1  0  0  0  0
 14 15  2  0  0  0  0
 14 28  1  0  0  0  0
 15 29  1  0  0  0  0
 16 24  1  0  0  0  0
 16 27  2  0  0  0  0
 17 29  2  0  0  0  0
 17 30  1  0  0  0  0
 18 32  1  0  0  0  0
 19 31  2  0  0  0  0
 19 36  1  0  0  0  0
 20 32  1  0  0  0  0
 20 33  2  0  0  0  0
 20 37  1  0  0  0  0
 21 23  2  0  0  0  0
 21 42  1  0  0  0  0
 22 24  2  0  0  0  0
 22 43  1  0  0  0  0
 23 54  1  0  0  0  0
 24 44  1  0  0  0  0
 25 31  1  0  0  0  0
 25 73  1  0  0  0  0
 26 83  1  0  0  0  0
 27 84  1  0  0  0  0
 28 30  2  0  0  0  0
 28 83  1  0  0  0  0
 29 85  1  0  0  0  0
 30 86  1  0  0  0  0
 31 87  1  0  0  0  0
 32 66  2  0  0  0  0
 33 67  1  0  0  0  0
 33 71  1  0  0  0  0
 34 35  2  0  0  0  0
 34 68  1  0  0  0  0
 35 45  1  0  0  0  0
 35 62  1  0  0  0  0
 36 68  1  0  0  0  0
 36 76  2  0  0  0  0
 37 72  1  0  0  0  0
 37 78  2  0  0  0  0
 38 55  1  0  0  0  0
 38 74  1  0  0  0  0
 38 79  2  0  0  0  0
 39 63  1  0  0  0  0
 39 69  1  0  0  0  0
 39 80  2  0  0  0  0
 40 64  1  0  0  0  0
 40 75  1  0  0  0  0
 40 81  2  0  0  0  0
 41 70  1  0  0  0  0
 41 73  1  0  0  0  0
 41 82  2  0  0  0  0
 42 46  1  0  0  0  0
 43 55  1  0  0  0  0
 44 69  1  0  0  0  0
 45 47  1  0  0  0  0
 46 49  1  0  0  0  0
 47 51  1  0  0  0  0
 48 50  1  0  0  0  0
 48 52  1  0  0  0  0
 49 54  1  0  0  0  0
 50 56  1  0  0  0  0
 51 68  1  0  0  0  0
 52 70  1  0  0  0  0
 53 56  1  0  0  0  0
 53 70  1  0  0  0  0
 54 74  1  0  0  0  0
 55 69  1  0  0  0  0
 56 67  1  0  0  0  0
 57 64  1  0  0  0  0
 58 65  1  0  0  0  0
 59 65  1  0  0  0  0
 60 65  1  0  0  0  0
 61 77  1  0  0  0  0
 62 84  1  0  0  0  0
 63 65  1  0  0  0  0
 63 75  1  0  0  0  0
 64 77  1  0  0  0  0
 66 67  1  0  0  0  0
M  CHG  2  76   1  77   1
M  ISO  4  41 100  62 101  73 100  84 101
M  END
> <Batch ID>
0160

> <Smiles>
CNC(C)C(=O)NC(C(=O)N1Cc2cc([101O:1][101CH2:1]C3=CN(C(=N)c4cccc([100NH:0][100C:0](=O)N5CCCC(n6nc(-c7ccc(Oc8ccc(F)cc8F)cc7)c(C(N)=O)c6N)C5)c4F)CCC3)ccc2CC1C(=O)NC1CCCc2ccccc21)C(C)(C)C

> <Shape>
0.244

> <Color>
0.188

> <Negative vol penalty>
0.000

$$$$

  -OEChem-04052303503D

 87 96  0     1  0  0  0  0  0999 V2000
  -19.6486  -26.8623   26.3845 C   0  0  0  0  0  0  0  0  0  0  0  0
  -20.9954  -26.7253   26.0638 C   0  0  0  0  0  0  0  0  0  0  0  0
  -30.0822  -21.0183   23.8660 C   0  0  0  0  0  0  0  0  0  0  0  0
  -24.4008  -12.8029   19.8205 C   0  0  0  0  0  0  0  0  0  0  0  0
  -25.1988  -13.5067   21.9896 C   0  0  0  0  0  0  0  0  0  0  0  0
  -18.7189  -27.1365   25.3823 C   0  0  0  0  0  0  0  0  0  0  0  0
  -21.4131  -26.8614   24.7404 C   0  0  0  0  0  0  0  0  0  0  0  0
  -31.1987  -21.6675   23.3393 C   0  0  0  0  0  0  0  0  0  0  0  0
  -26.6971  -29.2541   22.7755 C   0  0  0  0  0  0  0  0  0  0  0  0
  -29.0594  -20.5914   23.0189 C   0  0  0  0  0  0  0  0  0  0  0  0
  -24.7405  -11.4844   20.1233 C   0  0  0  0  0  0  0  0  0  0  0  0
  -25.5384  -12.1881   22.2925 C   0  0  0  0  0  0  0  0  0  0  0  0
  -27.8974  -28.6718   22.3707 C   0  0  0  0  0  0  0  0  0  0  0  0
  -23.4503   -8.9308   21.9255 C   0  0  0  0  0  0  0  0  0  0  0  0
  -22.5224   -7.9356   21.6187 C   0  0  0  0  0  0  0  0  0  0  0  0
  -30.2697  -21.4632   21.1184 C   0  0  0  0  0  0  0  0  0  0  0  0
  -27.1856  -28.8183   20.0704 C   0  0  0  0  0  0  0  0  0  0  0  0
  -24.1343   -6.8827   20.1592 C   0  0  0  0  0  0  0  0  0  0  0  0
  -24.6300  -13.8141   20.7536 C   0  0  0  0  0  0  0  0  0  0  0  0
  -23.0499  -15.8156   20.6865 C   0  0  0  0  0  0  0  0  0  0  0  0
  -31.2924  -21.8900   21.9655 C   0  0  0  0  0  0  0  0  0  0  0  0
  -19.1268  -27.2857   24.0473 C   0  0  0  0  0  0  0  0  0  0  0  0
  -25.7258  -29.6135   21.8300 C   0  0  0  0  0  0  0  0  0  0  0  0
  -20.4879  -27.1366   23.7192 C   0  0  0  0  0  0  0  0  0  0  0  0
  -25.9749  -29.4074   20.4657 C   0  0  0  0  0  0  0  0  0  0  0  0
  -29.1532  -20.8139   21.6451 C   0  0  0  0  0  0  0  0  0  0  0  0
  -25.3092  -11.1769   21.3593 C   0  0  0  0  0  0  0  0  0  0  0  0
  -28.1406  -28.4511   21.0182 C   0  0  0  0  0  0  0  0  0  0  0  0
  -24.7202   -8.9020   21.3491 C   0  0  0  0  0  0  0  0  0  0  0  0
  -22.8644   -6.9115   20.7356 C   0  0  0  0  0  0  0  0  0  0  0  0
  -25.0622   -7.8779   20.4660 C   0  0  0  0  0  0  0  0  0  0  0  0
  -24.2799  -15.1764   20.4412 C   0  0  0  0  0  0  0  0  0  0  0  0
  -23.2248  -17.0915   20.2091 C   0  0  0  0  0  0  0  0  0  0  0  0
  -21.8560  -15.3021   21.2919 C   0  0  0  0  0  0  0  0  0  0  0  0
  -22.7252  -28.7379   21.2528 C   0  0  0  0  0  0  0  0  0  0  0  0
  -30.7275  -25.9266   20.7702 C   0  0  0  0  0  0  0  0  0  0  0  0
  -22.8600  -31.1283   19.0641 C   0  0  0  0  0  0  0  0  0  0  0  0
  -24.7756  -33.1020   17.0438 C   0  0  0  0  0  0  0  0  0  0  0  0
  -28.0505  -20.5212   19.3991 C   0  0  0  0  0  0  0  0  0  0  0  0
  -18.0790  -27.5350   22.9916 C   0  0  0  0  0  0  0  0  0  0  0  0
  -24.4474  -30.2652   22.2810 C   0  0  0  0  0  0  0  0  0  0  0  0
  -24.9732  -29.7938   19.4094 C   0  0  0  0  0  0  0  0  0  0  0  0
  -18.6539  -28.0356   21.6691 C   0  0  0  0  0  0  0  0  0  0  0  0
  -34.4763  -22.3322   19.8022 C   0  0  0  0  0  0  0  0  0  0  0  0
  -25.6844  -19.5549   16.9202 C   0  0  0  0  0  0  0  0  0  0  0  0
  -34.1320  -23.6675   19.1598 C   0  0  0  0  0  0  0  0  0  0  0  0
  -19.8604  -27.1968   21.2598 C   0  0  0  0  0  0  0  0  0  0  0  0
  -33.2332  -21.6782   20.3923 C   0  0  0  0  0  0  0  0  0  0  0  0
  -24.9397  -18.3845   17.5665 C   0  0  0  0  0  0  0  0  0  0  0  0
  -27.1674  -19.5552   17.2867 C   0  0  0  0  0  0  0  0  0  0  0  0
  -26.7064  -18.3284   19.3727 C   0  0  0  0  0  0  0  0  0  0  0  0
  -33.4468  -24.5956   20.1478 C   0  0  0  0  0  0  0  0  0  0  0  0
  -20.9833  -27.3018   22.2988 C   0  0  1  0  0  0  0  0  0  0  0  0
  -32.5080  -22.5968   21.3926 C   0  0  1  0  0  0  0  0  0  0  0  0
  -23.3139  -30.1202   21.2703 C   0  0  1  0  0  0  0  0  0  0  0  0
  -25.1962  -18.3230   19.0850 C   0  0  2  0  0  0  0  0  0  0  0  0
  -24.5989  -34.9382   15.3424 C   0  0  0  0  0  0  0  0  0  0  0  0
  -21.9237  -29.1048   16.9811 C   0  0  0  0  0  0  0  0  0  0  0  0
  -22.6705  -30.6976   15.1997 C   0  0  0  0  0  0  0  0  0  0  0  0
  -20.8675  -31.3636   16.7897 C   0  0  0  0  0  0  0  0  0  0  0  0
  -26.3688  -34.9577   18.7104 C   0  0  0  0  0  0  0  0  0  0  0  0
  -31.4607  -24.9024   21.5956 C   0  0  0  0  0  0  0  0  0  0  0  0
  -29.9309  -26.9703   21.5262 C   0  0  0  0  0  0  0  0  0  1  0  0
  -23.2549  -31.2257   17.6103 C   0  0  1  0  0  0  0  0  0  0  0  0
  -24.7820  -34.6026   16.8144 C   0  0  2  0  0  0  0  0  0  0  0  0
  -22.1974  -30.5887   16.6650 C   0  0  0  0  0  0  0  0  0  0  0  0
  -25.1704  -15.9798   19.8534 N   0  0  0  0  0  0  0  0  0  0  0  0
  -24.4993  -17.1371   19.7254 N   0  0  0  0  0  0  0  0  0  0  0  0
  -23.7357  -30.4221   19.9009 N   0  0  0  0  0  0  0  0  0  0  0  0
  -27.3331  -19.5000   18.7408 N   0  0  0  0  0  0  0  0  0  0  0  0
  -22.4113  -18.1677   20.1600 N   0  0  0  0  0  0  0  0  0  0  0  0
  -21.8472  -13.9697   21.7266 N   0  0  0  0  0  0  0  0  0  0  0  0
  -28.1144  -20.3796   20.7849 N   0  0  0  0  0  0  0  0  0  0  0  0
  -21.6921  -28.5550   22.1521 N   0  0  0  0  0  0  0  0  0  0  0  0
  -23.5142  -32.6378   17.3514 N   0  0  0  0  0  0  0  0  0  0  0  0
  -32.2010  -23.9343   20.7025 N   0  3  1  0  0  0  0  0  0  0  0  0
  -26.0718  -35.1914   17.2737 N   0  3  0  0  0  0  0  0  0  0  0  0
  -20.8220  -15.9991   21.4279 O   0  0  0  0  0  0  0  0  0  0  0  0
  -23.1739  -27.8998   20.4795 O   0  0  0  0  0  0  0  0  0  0  0  0
  -30.7635  -25.8936   19.5403 O   0  0  0  0  0  0  0  0  0  0  0  0
  -21.8168  -31.6653   19.4446 O   0  0  0  0  0  0  0  0  0  0  0  0
  -25.7876  -32.4103   16.9551 O   0  0  0  0  0  0  0  0  0  0  0  0
  -28.5466  -21.4672   18.7819 O   0  0  0  0  0  0  0  0  0  0  0  0
  -25.6406   -9.8904   21.6553 O   0  0  0  0  0  0  0  0  0  0  0  0
  -29.3111  -27.8823   20.6203 O   0  0  0  0  0  0  0  0  0  1  0  0
  -21.9738   -5.9550   20.4423 F   0  0  0  0  0  0  0  0  0  0  0  0
  -26.2811   -7.8443   19.9100 F   0  0  0  0  0  0  0  0  0  0  0  0
  1  2  1  0  0  0  0
  1  6  2  0  0  0  0
  2  7  2  0  0  0  0
  3  8  2  0  0  0  0
  3 10  1  0  0  0  0
  4 11  2  0  0  0  0
  4 19  1  0  0  0  0
  5 12  1  0  0  0  0
  5 19  2  0  0  0  0
  6 22  1  0  0  0  0
  7 24  1  0  0  0  0
  8 21  1  0  0  0  0
  9 13  2  0  0  0  0
  9 23  1  0  0  0  0
 10 26  2  0  0  0  0
 11 27  1  0  0  0  0
 12 27  2  0  0  0  0
 13 28  1  0  0  0  0
 14 15  2  0  0  0  0
 14 29  1  0  0  0  0
 15 30  1  0  0  0  0
 16 21  2  0  0  0  0
 16 26  1  0  0  0  0
 17 25  1  0  0  0  0
 17 28  2  0  0  0  0
 18 30  2  0  0  0  0
 18 31  1  0  0  0  0
 19 32  1  0  0  0  0
 20 32  1  0  0  0  0
 20 33  2  0  0  0  0
 20 34  1  0  0  0  0
 21 54  1  0  0  0  0
 22 24  2  0  0  0  0
 22 40  1  0  0  0  0
 23 25  2  0  0  0  0
 23 41  1  0  0  0  0
 24 53  1  0  0  0  0
 25 42  1  0  0  0  0
 26 73  1  0  0  0  0
 27 84  1  0  0  0  0
 28 85  1  0  0  0  0
 29 31  2  0  0  0  0
 29 84  1  0  0  0  0
 30 86  1  0  0  0  0
 31 87  1  0  0  0  0
 32 67  2  0  0  0  0
 33 68  1  0  0  0  0
 33 71  1  0  0  0  0
 34 72  1  0  0  0  0
 34 78  2  0  0  0  0
 35 55  1  0  0  0  0
 35 74  1  0  0  0  0
 35 79  2  0  0  0  0
 36 62  1  0  0  0  0
 36 63  1  0  0  0  0
 36 80  2  0  0  0  0
 37 64  1  0  0  0  0
 37 69  1  0  0  0  0
 37 81  2  0  0  0  0
 38 65  1  0  0  0  0
 38 75  1  0  0  0  0
 38 82  2  0  0  0  0
 39 70  1  0  0  0  0
 39 73  1  0  0  0  0
 39 83  2  0  0  0  0
 40 43  1  0  0  0  0
 41 55  1  0  0  0  0
 42 69  1  0  0  0  0
 43 47  1  0  0  0  0
 44 46  1  0  0  0  0
 44 48  1  0  0  0  0
 45 49  1  0  0  0  0
 45 50  1  0  0  0  0
 46 52  1  0  0  0  0
 47 53  1  0  0  0  0
 48 54  1  0  0  0  0
 49 56  1  0  0  0  0
 50 70  1  0  0  0  0
 51 56  1  0  0  0  0
 51 70  1  0  0  0  0
 52 76  1  0  0  0  0
 53 74  1  0  0  0  0
 54 76  1  0  0  0  0
 55 69  1  0  0  0  0
 56 68  1  0  0  0  0
 57 65  1  0  0  0  0
 58 66  1  0  0  0  0
 59 66  1  0  0  0  0
 60 66  1  0  0  0  0
 61 77  1  0  0  0  0
 62 76  1  0  0  0  0
 63 85  1  0  0  0  0
 64 66  1  0  0  0  0
 64 75  1  0  0  0  0
 65 77  1  0  0  0  0
 67 68  1  0  0  0  0
M  CHG  2  76   1  77   1
M  ISO  4  39 100  63 101  73 100  85 101
M  END
> <Batch ID>
0160

> <Smiles>
CNC(C)C(=O)NC(C(=O)N1Cc2cc([101O:1][101CH2:1]C(=O)CN3CCCCC3c3cccc([100NH:0][100C:0](=O)N4CCCC(n5nc(-c6ccc(Oc7ccc(F)cc7F)cc6)c(C(N)=O)c5N)C4)c3)ccc2CC1C(=O)NC1CCCc2ccccc21)C(C)(C)C

> <Shape>
0.219

> <Color>
0.090

> <Negative vol penalty>
0.000

$$$$

  -OEChem-04052303503D

 87 96  0     1  0  0  0  0  0999 V2000
  -20.8065   -8.3626   23.5351 C   0  0  0  0  0  0  0  0  0  0  0  0
  -21.5519   -9.0499   24.4877 C   0  0  0  0  0  0  0  0  0  0  0  0
  -23.5907  -28.7451   23.4393 C   0  0  0  0  0  0  0  0  0  0  0  0
  -22.2722  -28.0542   21.5363 C   0  0  0  0  0  0  0  0  0  0  0  0
  -21.1906   -8.3944   22.1952 C   0  0  0  0  0  0  0  0  0  0  0  0
  -22.6825   -9.7687   24.1009 C   0  0  0  0  0  0  0  0  0  0  0  0
  -23.1938  -16.8413   25.3693 C   0  0  0  0  0  0  0  0  0  0  0  0
  -31.0279  -22.1204   23.5207 C   0  0  0  0  0  0  0  0  0  0  0  0
  -22.4424  -28.7557   24.2311 C   0  0  0  0  0  0  0  0  0  0  0  0
  -21.1239  -28.0647   22.3281 C   0  0  0  0  0  0  0  0  0  0  0  0
  -23.4571  -18.1531   25.7642 C   0  0  0  0  0  0  0  0  0  0  0  0
  -18.9664  -30.3591   23.5575 C   0  0  0  0  0  0  0  0  0  0  0  0
  -32.1521  -21.6786   22.8232 C   0  0  0  0  0  0  0  0  0  0  0  0
  -17.8202  -30.9526   23.0289 C   0  0  0  0  0  0  0  0  0  0  0  0
  -25.5726  -18.0920   24.5941 C   0  0  0  0  0  0  0  0  0  0  0  0
  -31.2106  -22.5290   20.7671 C   0  0  0  0  0  0  0  0  0  0  0  0
  -16.6405  -28.8538   23.2305 C   0  0  0  0  0  0  0  0  0  0  0  0
  -23.5056  -28.3944   22.0919 C   0  0  0  0  0  0  0  0  0  0  0  0
  -25.5449  -29.4694   20.9994 C   0  0  0  0  0  0  0  0  0  0  0  0
  -22.3209   -9.1218   21.7904 C   0  0  0  0  0  0  0  0  0  0  0  0
  -24.1130  -16.1543   24.5715 C   0  0  0  0  0  0  0  0  0  0  0  0
  -23.0828   -9.8092   22.7545 C   0  0  0  0  0  0  0  0  0  0  0  0
  -29.9950  -22.7665   22.8414 C   0  0  0  0  0  0  0  0  0  0  0  0
  -25.3085  -16.7821   24.1851 C   0  0  0  0  0  0  0  0  0  0  0  0
  -30.0863  -22.9708   21.4646 C   0  0  0  0  0  0  0  0  0  0  0  0
  -21.2090  -28.4154   23.6755 C   0  0  0  0  0  0  0  0  0  0  0  0
  -24.6437  -18.7767   25.3777 C   0  0  0  0  0  0  0  0  0  0  0  0
  -18.9498  -29.0129   23.9225 C   0  0  0  0  0  0  0  0  0  0  0  0
  -32.2435  -21.8829   21.4464 C   0  0  0  0  0  0  0  0  0  0  0  0
  -16.6572  -30.2000   22.8654 C   0  0  0  0  0  0  0  0  0  0  0  0
  -17.7868  -28.2603   23.7590 C   0  0  0  0  0  0  0  0  0  0  0  0
  -24.6913  -28.3839   21.2733 C   0  0  0  0  0  0  0  0  0  0  0  0
  -26.5152  -28.9451   20.1809 C   0  0  0  0  0  0  0  0  0  0  0  0
  -25.4675  -30.8299   21.4450 C   0  0  0  0  0  0  0  0  0  0  0  0
  -24.9670  -12.9876   22.7496 C   0  0  0  0  0  0  0  0  0  0  0  0
  -26.1737  -22.0454   25.8728 C   0  0  0  0  0  0  0  0  0  0  0  0
  -25.8342  -15.3139   20.9478 C   0  0  0  0  0  0  0  0  0  0  0  0
  -26.2597  -18.1436   19.0905 C   0  0  0  0  0  0  0  0  0  0  0  0
  -28.6753  -23.4249   19.4277 C   0  0  0  0  0  0  0  0  0  0  0  0
  -22.7240   -9.0880   20.3375 C   0  0  0  0  0  0  0  0  0  0  0  0
  -23.8990  -14.7190   24.1739 C   0  0  0  0  0  0  0  0  0  0  0  0
  -26.2840  -15.9925   23.3556 C   0  0  0  0  0  0  0  0  0  0  0  0
  -23.7200  -10.1801   19.9560 C   0  0  0  0  0  0  0  0  0  0  0  0
  -27.7195  -25.1344   24.9093 C   0  0  0  0  0  0  0  0  0  0  0  0
  -27.2112  -25.4978   16.9303 C   0  0  0  0  0  0  0  0  0  0  0  0
  -28.9364  -24.6898   24.0992 C   0  0  0  0  0  0  0  0  0  0  0  0
  -24.8451  -10.2589   20.9830 C   0  0  0  0  0  0  0  0  0  0  0  0
  -26.4816  -26.5754   17.7356 C   0  0  0  0  0  0  0  0  0  0  0  0
  -27.4273  -24.1688   26.0536 C   0  0  0  0  0  0  0  0  0  0  0  0
  -27.1347  -24.1321   17.6107 C   0  0  0  0  0  0  0  0  0  0  0  0
  -28.4702  -22.3014   24.8091 C   0  0  0  0  0  0  0  0  0  0  0  0
  -26.8442  -25.1887   19.8171 C   0  0  0  0  0  0  0  0  0  0  0  0
  -28.7824  -23.2338   23.6253 C   0  0  2  0  0  0  0  0  0  0  0  0
  -24.3013  -10.6204   22.3705 C   0  0  1  0  0  0  0  0  0  0  0  0
  -24.4436  -14.3937   22.7715 C   0  0  1  0  0  0  0  0  0  0  0  0
  -26.9491  -26.5948   19.2042 C   0  0  2  0  0  0  0  0  0  0  0  0
  -27.0754  -18.9248   16.8496 C   0  0  0  0  0  0  0  0  0  0  0  0
  -28.7169  -14.9210   21.8642 C   0  0  0  0  0  0  0  0  0  0  0  0
  -29.4272  -16.5347   20.0866 C   0  0  0  0  0  0  0  0  0  0  0  0
  -28.3077  -14.3973   19.4533 C   0  0  0  0  0  0  0  0  0  0  0  0
  -23.6122  -19.2644   18.3881 C   0  0  0  0  0  0  0  0  0  0  0  0
  -26.1242  -20.6378   25.3339 C   0  0  0  0  0  0  0  0  0  1  0  0
  -26.9468  -16.2392   20.5243 C   0  0  1  0  0  0  0  0  0  0  0  0
  -25.8697  -18.4795   17.6624 C   0  0  2  0  0  0  0  0  0  0  0  0
  -28.3306  -15.5307   20.5018 C   0  0  0  0  0  0  0  0  0  0  0  0
  -25.0848  -27.2553   20.6771 N   0  0  0  0  0  0  0  0  0  0  0  0
  -26.1962  -27.6288   20.0203 N   0  0  0  0  0  0  0  0  0  0  0  0
  -25.5646  -15.2352   22.3195 N   0  0  0  0  0  0  0  0  0  0  0  0
  -27.3110  -22.7930   25.5669 N   0  0  0  0  0  0  0  0  0  0  0  0
  -27.5972  -24.2268   18.9971 N   0  0  0  0  0  0  0  0  0  0  0  0
  -27.6017  -29.4862   19.5900 N   0  0  0  0  0  0  0  0  0  0  0  0
  -24.4057  -31.1995   22.2819 N   0  0  0  0  0  0  0  0  0  0  0  0
  -29.0477  -23.6248   20.7566 N   0  0  0  0  0  0  0  0  0  0  0  0
  -24.0117  -12.0363   22.4466 N   0  0  0  0  0  0  0  0  0  0  0  0
  -26.5430  -16.8025   19.2405 N   0  0  0  0  0  0  0  0  0  0  0  0
  -24.8605  -19.5760   17.6454 N   0  3  0  0  0  0  0  0  0  0  0  0
  -26.3057  -31.6961   21.0977 O   0  0  0  0  0  0  0  0  0  0  0  0
  -26.1509  -12.7799   22.9885 O   0  0  0  0  0  0  0  0  0  0  0  0
  -25.2276  -22.4668   26.5433 O   0  0  0  0  0  0  0  0  0  0  0  0
  -25.2229  -14.6729   20.0883 O   0  0  0  0  0  0  0  0  0  0  0  0
  -26.3117  -18.9871   19.9828 O   0  0  0  0  0  0  0  0  0  0  0  0
  -29.2451  -22.6399   18.6655 O   0  0  0  0  0  0  0  0  0  0  0  0
  -20.0884  -28.4254   24.4479 O   0  0  0  0  0  0  0  0  0  0  0  0
  -24.8924  -20.0591   25.7630 O   0  0  0  0  0  0  0  0  0  1  0  0
  -33.3234  -21.4581   20.7775 F   0  0  0  0  0  0  0  0  0  0  0  0
  -15.5561  -30.7705   22.3592 F   0  0  0  0  0  0  0  0  0  0  0  0
  -17.7644  -26.9669   24.1090 F   0  0  0  0  0  0  0  0  0  0  0  0
  1  2  1  0  0  0  0
  1  5  2  0  0  0  0
  2  6  2  0  0  0  0
  3  9  2  0  0  0  0
  3 18  1  0  0  0  0
  4 10  1  0  0  0  0
  4 18  2  0  0  0  0
  5 20  1  0  0  0  0
  6 22  1  0  0  0  0
  7 11  2  0  0  0  0
  7 21  1  0  0  0  0
  8 13  2  0  0  0  0
  8 23  1  0  0  0  0
  9 26  1  0  0  0  0
 10 26  2  0  0  0  0
 11 27  1  0  0  0  0
 12 14  2  0  0  0  0
 12 28  1  0  0  0  0
 13 29  1  0  0  0  0
 14 30  1  0  0  0  0
 15 24  1  0  0  0  0
 15 27  2  0  0  0  0
 16 25  1  0  0  0  0
 16 29  2  0  0  0  0
 17 30  2  0  0  0  0
 17 31  1  0  0  0  0
 18 32  1  0  0  0  0
 19 32  1  0  0  0  0
 19 33  2  0  0  0  0
 19 34  1  0  0  0  0
 20 22  2  0  0  0  0
 20 40  1  0  0  0  0
 21 24  2  0  0  0  0
 21 41  1  0  0  0  0
 22 54  1  0  0  0  0
 23 25  2  0  0  0  0
 23 53  1  0  0  0  0
 24 42  1  0  0  0  0
 25 73  1  0  0  0  0
 26 83  1  0  0  0  0
 27 84  1  0  0  0  0
 28 31  2  0  0  0  0
 28 83  1  0  0  0  0
 29 85  1  0  0  0  0
 30 86  1  0  0  0  0
 31 87  1  0  0  0  0
 32 66  2  0  0  0  0
 33 67  1  0  0  0  0
 33 71  1  0  0  0  0
 34 72  1  0  0  0  0
 34 77  2  0  0  0  0
 35 55  1  0  0  0  0
 35 74  1  0  0  0  0
 35 78  2  0  0  0  0
 36 62  1  0  0  0  0
 36 69  1  0  0  0  0
 36 79  2  0  0  0  0
 37 63  1  0  0  0  0
 37 68  1  0  0  0  0
 37 80  2  0  0  0  0
 38 64  1  0  0  0  0
 38 75  1  0  0  0  0
 38 81  2  0  0  0  0
 39 70  1  0  0  0  0
 39 73  1  0  0  0  0
 39 82  2  0  0  0  0
 40 43  1  0  0  0  0
 41 55  1  0  0  0  0
 42 68  1  0  0  0  0
 43 47  1  0  0  0  0
 44 46  1  0  0  0  0
 44 49  1  0  0  0  0
 45 48  1  0  0  0  0
 45 50  1  0  0  0  0
 46 53  1  0  0  0  0
 47 54  1  0  0  0  0
 48 56  1  0  0  0  0
 49 69  1  0  0  0  0
 50 70  1  0  0  0  0
 51 53  1  0  0  0  0
 51 69  1  0  0  0  0
 52 56  1  0  0  0  0
 52 70  1  0  0  0  0
 54 74  1  0  0  0  0
 55 68  1  0  0  0  0
 56 67  1  0  0  0  0
 57 64  1  0  0  0  0
 58 65  1  0  0  0  0
 59 65  1  0  0  0  0
 60 65  1  0  0  0  0
 61 76  1  0  0  0  0
 62 84  1  0  0  0  0
 63 65  1  0  0  0  0
 63 75  1  0  0  0  0
 64 76  1  0  0  0  0
 66 67  1  0  0  0  0
M  CHG  1  76   1
M  ISO  4  39 100  62 101  73 100  84 101
M  END
> <Batch ID>
0160

> <Smiles>
CNC(C)C(=O)NC(C(=O)N1Cc2cc([101O:1][101CH2:1]C(=O)N3CCCC(c4ccc(F)cc4[100NH:0][100C:0](=O)N4CCCC(n5nc(-c6ccc(Oc7ccc(F)cc7F)cc6)c(C(N)=O)c5N)C4)C3)ccc2CC1C(=O)NC1CCCc2ccccc21)C(C)(C)C

> <Shape>
0.204

> <Color>
0.070

> <Negative vol penalty>
0.000

$$$$

  -OEChem-04052303503D

 85 93  0     1  0  0  0  0  0999 V2000
  -19.3700  -26.2458   20.6612 C   0  0  0  0  0  0  0  0  0  0  0  0
  -20.2579  -25.2706   21.1038 C   0  0  0  0  0  0  0  0  0  0  0  0
  -22.9287  -10.0408   19.9685 C   0  0  0  0  0  0  0  0  0  0  0  0
  -23.8834   -9.8028   22.1750 C   0  0  0  0  0  0  0  0  0  0  0  0
  -19.4191  -27.5294   21.2034 C   0  0  0  0  0  0  0  0  0  0  0  0
  -21.1962  -25.5786   22.0883 C   0  0  0  0  0  0  0  0  0  0  0  0
  -23.2723  -21.8590   26.4883 C   0  0  0  0  0  0  0  0  0  0  0  0
  -22.1629   -8.8936   20.1761 C   0  0  0  0  0  0  0  0  0  0  0  0
  -23.1175   -8.6557   22.3827 C   0  0  0  0  0  0  0  0  0  0  0  0
  -24.4305  -21.0907   26.5978 C   0  0  0  0  0  0  0  0  0  0  0  0
  -19.9237   -7.9085   23.1960 C   0  0  0  0  0  0  0  0  0  0  0  0
  -19.2697   -7.7807   24.4214 C   0  0  0  0  0  0  0  0  0  0  0  0
  -32.3745  -16.2063   22.3740 C   0  0  0  0  0  0  0  0  0  0  0  0
  -32.3783  -17.7940   24.1950 C   0  0  0  0  0  0  0  0  0  0  0  0
  -25.4802  -22.8632   27.8531 C   0  0  0  0  0  0  0  0  0  0  0  0
  -30.2856  -17.0633   23.2338 C   0  0  0  0  0  0  0  0  0  0  0  0
  -20.4901   -5.7424   24.8603 C   0  0  0  0  0  0  0  0  0  0  0  0
  -23.7890  -10.4954   20.9679 C   0  0  0  0  0  0  0  0  0  0  0  0
  -33.0733  -16.9791   23.3014 C   0  0  0  0  0  0  0  0  0  0  0  0
  -24.2217  -13.0080   21.0526 C   0  0  0  0  0  0  0  0  0  0  0  0
  -20.3521  -27.8507   22.2019 C   0  0  0  0  0  0  0  0  0  0  0  0
  -23.2130  -23.1417   27.0519 C   0  0  0  0  0  0  0  0  0  0  0  0
  -21.2587  -26.8681   22.6434 C   0  0  0  0  0  0  0  0  0  0  0  0
  -24.3192  -23.6447   27.7515 C   0  0  0  0  0  0  0  0  0  0  0  0
  -30.9806  -16.2484   22.3402 C   0  0  0  0  0  0  0  0  0  0  0  0
  -30.9844  -17.8361   24.1613 C   0  0  0  0  0  0  0  0  0  0  0  0
  -22.2572   -8.2011   21.3832 C   0  0  0  0  0  0  0  0  0  0  0  0
  -25.5357  -21.5939   27.2778 C   0  0  0  0  0  0  0  0  0  0  0  0
  -20.8609   -6.9531   22.8027 C   0  0  0  0  0  0  0  0  0  0  0  0
  -19.5529   -6.6977   25.2535 C   0  0  0  0  0  0  0  0  0  0  0  0
  -21.1441   -5.8701   23.6349 C   0  0  0  0  0  0  0  0  0  0  0  0
  -24.5808  -11.6800   20.7539 C   0  0  0  0  0  0  0  0  0  0  0  0
  -25.3080  -13.7532   20.6639 C   0  0  0  0  0  0  0  0  0  0  0  0
  -34.5182  -16.9361   23.3358 C   0  0  0  0  0  0  0  0  0  0  0  0
  -23.0142  -13.5220   21.6301 C   0  0  0  0  0  0  0  0  0  0  0  0
  -22.8015  -26.0781   25.9066 C   0  0  0  0  0  0  0  0  0  0  0  0
  -28.4398  -19.7183   26.1773 C   0  0  0  0  0  0  0  0  0  0  0  0
  -22.7354  -26.8747   29.0504 C   0  0  0  0  0  0  0  0  0  0  0  0
  -23.6167  -26.0990   32.2549 C   0  0  0  0  0  0  0  0  0  0  0  0
  -30.8069  -14.5998   20.4433 C   0  0  0  0  0  0  0  0  0  0  0  0
  -20.3984  -29.2648   22.7242 C   0  0  0  0  0  0  0  0  0  0  0  0
  -21.9469  -23.9471   26.9479 C   0  0  0  0  0  0  0  0  0  0  0  0
  -24.2995  -25.0077   28.3920 C   0  0  0  0  0  0  0  0  0  0  0  0
  -21.1751  -29.4064   24.0307 C   0  0  0  0  0  0  0  0  0  0  0  0
  -29.3948  -12.4620   17.9709 C   0  0  0  0  0  0  0  0  0  0  0  0
  -22.5013  -28.6574   23.9472 C   0  0  0  0  0  0  0  0  0  0  0  0
  -27.9870  -12.1772   18.4991 C   0  0  0  0  0  0  0  0  0  0  0  0
  -30.4188  -12.5446   19.1015 C   0  0  0  0  0  0  0  0  0  0  0  0
  -28.6693  -13.1943   20.7097 C   0  0  0  0  0  0  0  0  0  0  0  0
  -22.2746  -27.1568   23.7273 C   0  0  1  0  0  0  0  0  0  0  0  0
  -22.1765  -25.4457   27.1178 C   0  0  1  0  0  0  0  0  0  0  0  0
  -27.5922  -13.1665   19.6131 C   0  0  2  0  0  0  0  0  0  0  0  0
  -23.4543  -26.9608   34.6061 C   0  0  0  0  0  0  0  0  0  0  0  0
  -24.9218  -28.9167   28.4505 C   0  0  0  0  0  0  0  0  0  0  0  0
  -25.3741  -29.0511   30.9092 C   0  0  0  0  0  0  0  0  0  0  0  0
  -23.1439  -29.7210   30.0147 C   0  0  0  0  0  0  0  0  0  0  0  0
  -22.0923  -23.7232   33.1438 C   0  0  0  0  0  0  0  0  0  0  0  0
  -28.8570  -18.7530   25.0881 C   0  0  0  0  0  0  0  0  0  0  0  0
  -26.9460  -19.9325   26.3257 C   0  0  0  0  0  0  0  0  0  1  0  0
  -23.7708  -27.2724   30.0746 C   0  0  1  0  0  0  0  0  0  0  0  0
  -22.8148  -26.0804   33.5437 C   0  0  2  0  0  0  0  0  0  0  0  0
  -24.3040  -28.7154   29.8486 C   0  0  0  0  0  0  0  0  0  0  0  0
  -25.7999  -11.5839   20.2166 N   0  0  0  0  0  0  0  0  0  0  0  0
  -26.2162  -12.8610   20.1746 N   0  0  0  0  0  0  0  0  0  0  0  0
  -23.0408  -25.7595   28.2574 N   0  0  0  0  0  0  0  0  0  0  0  0
  -29.9801  -13.5039   20.1174 N   0  0  0  0  0  0  0  0  0  0  0  0
  -25.5653  -15.0780   20.6962 N   0  0  0  0  0  0  0  0  0  0  0  0
  -35.1970  -16.1550   22.4787 N   0  0  0  0  0  0  0  0  0  0  0  0
  -21.9990  -12.6178   21.9710 N   0  0  0  0  0  0  0  0  0  0  0  0
  -30.2708  -15.4624   21.3989 N   0  0  0  0  0  0  0  0  0  0  0  0
  -30.2931  -18.6465   25.0504 N   0  0  0  0  0  0  0  0  0  0  0  0
  -21.8886  -26.5170   24.9667 N   0  0  0  0  0  0  0  0  0  0  0  0
  -23.1558  -27.0603   31.3804 N   0  0  0  0  0  0  0  0  0  0  0  0
  -35.2008  -17.6781   24.2240 N   0  3  0  0  0  0  0  0  0  0  0  0
  -22.7233  -24.6918   34.0768 N   0  3  0  0  0  0  0  0  0  0  0  0
  -22.8341  -14.7484   21.8224 O   0  0  0  0  0  0  0  0  0  0  0  0
  -24.0217  -26.1631   25.8312 O   0  0  0  0  0  0  0  0  0  0  0  0
  -29.2503  -20.2966   26.9001 O   0  0  0  0  0  0  0  0  0  0  0  0
  -21.6909  -27.5250   28.9624 O   0  0  0  0  0  0  0  0  0  0  0  0
  -24.5602  -25.3395   32.0464 O   0  0  0  0  0  0  0  0  0  0  0  0
  -31.8973  -14.7760   19.8939 O   0  0  0  0  0  0  0  0  0  0  0  0
  -21.5099   -7.0818   21.5862 O   0  0  0  0  0  0  0  0  0  0  0  0
  -26.6677  -20.8464   27.3857 O   0  0  0  0  0  0  0  0  0  1  0  0
  -18.9259   -6.5760   26.4309 F   0  0  0  0  0  0  0  0  0  0  0  0
  -22.0444   -4.9498   23.2630 F   0  0  0  0  0  0  0  0  0  0  0  0
  1  2  1  0  0  0  0
  1  5  2  0  0  0  0
  2  6  2  0  0  0  0
  3  8  2  0  0  0  0
  3 18  1  0  0  0  0
  4  9  1  0  0  0  0
  4 18  2  0  0  0  0
  5 21  1  0  0  0  0
  6 23  1  0  0  0  0
  7 10  2  0  0  0  0
  7 22  1  0  0  0  0
  8 27  1  0  0  0  0
  9 27  2  0  0  0  0
 10 28  1  0  0  0  0
 11 12  2  0  0  0  0
 11 29  1  0  0  0  0
 12 30  1  0  0  0  0
 13 19  2  0  0  0  0
 13 25  1  0  0  0  0
 14 19  1  0  0  0  0
 14 26  2  0  0  0  0
 15 24  1  0  0  0  0
 15 28  2  0  0  0  0
 16 25  2  0  0  0  0
 16 26  1  0  0  0  0
 17 30  2  0  0  0  0
 17 31  1  0  0  0  0
 18 32  1  0  0  0  0
 19 34  1  0  0  0  0
 20 32  1  0  0  0  0
 20 33  2  0  0  0  0
 20 35  1  0  0  0  0
 21 23  2  0  0  0  0
 21 41  1  0  0  0  0
 22 24  2  0  0  0  0
 22 42  1  0  0  0  0
 23 50  1  0  0  0  0
 24 43  1  0  0  0  0
 25 70  1  0  0  0  0
 26 71  1  0  0  0  0
 27 82  1  0  0  0  0
 28 83  1  0  0  0  0
 29 31  2  0  0  0  0
 29 82  1  0  0  0  0
 30 84  1  0  0  0  0
 31 85  1  0  0  0  0
 32 63  2  0  0  0  0
 33 64  1  0  0  0  0
 33 67  1  0  0  0  0
 34 68  1  0  0  0  0
 34 74  2  0  0  0  0
 35 69  1  0  0  0  0
 35 76  2  0  0  0  0
 36 51  1  0  0  0  0
 36 72  1  0  0  0  0
 36 77  2  0  0  0  0
 37 58  1  0  0  0  0
 37 59  1  0  0  0  0
 37 78  2  0  0  0  0
 38 60  1  0  0  0  0
 38 65  1  0  0  0  0
 38 79  2  0  0  0  0
 39 61  1  0  0  0  0
 39 73  1  0  0  0  0
 39 80  2  0  0  0  0
 40 66  1  0  0  0  0
 40 70  1  0  0  0  0
 40 81  2  0  0  0  0
 41 44  1  0  0  0  0
 42 51  1  0  0  0  0
 43 65  1  0  0  0  0
 44 46  1  0  0  0  0
 45 47  1  0  0  0  0
 45 48  1  0  0  0  0
 46 50  1  0  0  0  0
 47 52  1  0  0  0  0
 48 66  1  0  0  0  0
 49 52  1  0  0  0  0
 49 66  1  0  0  0  0
 50 72  1  0  0  0  0
 51 65  1  0  0  0  0
 52 64  1  0  0  0  0
 53 61  1  0  0  0  0
 54 62  1  0  0  0  0
 55 62  1  0  0  0  0
 56 62  1  0  0  0  0
 57 75  1  0  0  0  0
 58 71  1  0  0  0  0
 59 83  1  0  0  0  0
 60 62  1  0  0  0  0
 60 73  1  0  0  0  0
 61 75  1  0  0  0  0
 63 64  1  0  0  0  0
M  CHG  2  74   1  75   1
M  ISO  4  40 100  59 101  70 100  83 101
M  END
> <Batch ID>
0160

> <Smiles>
CNC(C)C(=O)NC(C(=O)N1Cc2cc([101O:1][101CH2:1]C(=O)CNc3cc([100NH:0][100C:0](=O)N4CCCC(n5nc(-c6ccc(Oc7ccc(F)cc7F)cc6)c(C(N)=O)c5N)C4)cc(C(=N)N)c3)ccc2CC1C(=O)NC1CCCc2ccccc21)C(C)(C)C

> <Shape>
0.219

> <Color>
0.171

> <Negative vol penalty>
0.000

$$$$

  -OEChem-04052303503D

 85 94  0     1  0  0  0  0  0999 V2000
  -28.7134  -32.7286   28.2112 C   0  0  0  0  0  0  0  0  0  0  0  0
  -28.4874  -31.6809   27.3242 C   0  0  0  0  0  0  0  0  0  0  0  0
  -23.0375   -9.6662   19.8759 C   0  0  0  0  0  0  0  0  0  0  0  0
  -24.5166   -9.3598   21.7615 C   0  0  0  0  0  0  0  0  0  0  0  0
  -27.7888  -33.7673   28.3114 C   0  0  0  0  0  0  0  0  0  0  0  0
  -27.3359  -31.6708   26.5378 C   0  0  0  0  0  0  0  0  0  0  0  0
  -28.2848  -30.4330   21.7199 C   0  0  0  0  0  0  0  0  0  0  0  0
  -21.9630   -9.2223   20.6466 C   0  0  0  0  0  0  0  0  0  0  0  0
  -23.4421   -8.9159   22.5323 C   0  0  0  0  0  0  0  0  0  0  0  0
  -28.4815  -29.0822   21.4364 C   0  0  0  0  0  0  0  0  0  0  0  0
  -21.6488   -6.0739   22.9041 C   0  0  0  0  0  0  0  0  0  0  0  0
  -21.8394   -4.9354   23.6870 C   0  0  0  0  0  0  0  0  0  0  0  0
  -26.2092  -28.9240   20.6423 C   0  0  0  0  0  0  0  0  0  0  0  0
  -21.3456   -6.2187   25.6736 C   0  0  0  0  0  0  0  0  0  0  0  0
  -29.8830  -19.4837   19.2527 C   0  0  0  0  0  0  0  0  0  0  0  0
  -24.3143   -9.7349   20.4334 C   0  0  0  0  0  0  0  0  0  0  0  0
  -25.9098   -9.6210   18.4461 C   0  0  0  0  0  0  0  0  0  0  0  0
  -26.6301  -33.7748   27.5189 C   0  0  0  0  0  0  0  0  0  0  0  0
  -27.0433  -31.0379   21.4764 C   0  0  0  0  0  0  0  0  0  0  0  0
  -26.3942  -32.7099   26.6285 C   0  0  0  0  0  0  0  0  0  0  0  0
  -26.0000  -30.2833   20.9211 C   0  0  0  0  0  0  0  0  0  0  0  0
  -22.1652   -8.8472   21.9748 C   0  0  0  0  0  0  0  0  0  0  0  0
  -27.4428  -28.3268   20.9002 C   0  0  0  0  0  0  0  0  0  0  0  0
  -21.3066   -7.2849   23.5059 C   0  0  0  0  0  0  0  0  0  0  0  0
  -21.6878   -5.0078   25.0717 C   0  0  0  0  0  0  0  0  0  0  0  0
  -21.1550   -7.3573   24.8906 C   0  0  0  0  0  0  0  0  0  0  0  0
  -25.4248  -10.1928   19.6376 C   0  0  0  0  0  0  0  0  0  0  0  0
  -29.2998  -20.6730   18.9038 C   0  0  0  0  0  0  0  0  0  0  0  0
  -28.8259  -18.5600   19.1829 C   0  0  0  0  0  0  0  0  0  0  0  0
  -26.9667  -10.4211   18.0866 C   0  0  0  0  0  0  0  0  0  0  0  0
  -28.8876  -25.0226   20.5296 C   0  0  0  0  0  0  0  0  0  0  0  0
  -29.6296  -24.3504   19.6320 C   0  0  0  0  0  0  0  0  0  0  0  0
  -25.4462   -8.4696   17.7283 C   0  0  0  0  0  0  0  0  0  0  0  0
  -29.8393  -22.0338   18.7752 C   0  0  0  0  0  0  0  0  0  0  0  0
  -24.8452  -32.4542   23.2837 C   0  0  0  0  0  0  0  0  0  0  0  0
  -23.4735  -33.1104   20.4183 C   0  0  0  0  0  0  0  0  0  0  0  0
  -23.1091  -32.2915   17.1254 C   0  0  0  0  0  0  0  0  0  0  0  0
  -27.9464  -16.2027   19.4165 C   0  0  0  0  0  0  0  0  0  0  0  0
  -25.6363  -34.8953   27.6965 C   0  0  0  0  0  0  0  0  0  0  0  0
  -26.8553  -32.5025   21.7627 C   0  0  0  0  0  0  0  0  0  0  0  0
  -24.6543  -30.8901   20.6222 C   0  0  0  0  0  0  0  0  0  0  0  0
  -27.9039  -24.1158   21.2103 C   0  0  0  0  0  0  0  0  0  0  0  0
  -24.6258  -34.9995   26.5571 C   0  0  0  0  0  0  0  0  0  0  0  0
  -29.9280  -13.1900   20.7283 C   0  0  0  0  0  0  0  0  0  0  0  0
  -24.0617  -33.6238   26.2163 C   0  0  0  0  0  0  0  0  0  0  0  0
  -29.3477  -12.0963   19.8348 C   0  0  0  0  0  0  0  0  0  0  0  0
  -28.1853  -22.7682   20.5596 C   0  0  0  0  0  0  0  0  0  0  0  0
  -29.7820  -14.5762   20.1134 C   0  0  0  0  0  0  0  0  0  0  0  0
  -27.4365  -13.7903   19.7430 C   0  0  0  0  0  0  0  0  0  0  0  0
  -25.1692  -32.6758   25.7407 C   0  0  1  0  0  0  0  0  0  0  0  0
  -25.3925  -32.8909   21.9542 C   0  0  1  0  0  0  0  0  0  0  0  0
  -28.0486  -12.5242   19.1236 C   0  0  2  0  0  0  0  0  0  0  0  0
  -30.7074  -24.9031   18.7612 C   0  0  0  0  0  0  0  0  0  0  0  0
  -21.8916  -32.9894   15.0450 C   0  0  0  0  0  0  0  0  0  0  0  0
  -20.9137  -31.8468   21.4955 C   0  0  0  0  0  0  0  0  0  0  0  0
  -20.0742  -31.7077   19.1409 C   0  0  0  0  0  0  0  0  0  0  0  0
  -20.5655  -33.9315   20.1587 C   0  0  0  0  0  0  0  0  0  0  0  0
  -25.6382  -32.8446   15.6913 C   0  0  0  0  0  0  0  0  0  0  0  0
  -28.9200  -26.4629   20.9069 C   0  0  0  0  0  0  0  0  0  1  0  0
  -22.4812  -32.4092   19.5225 C   0  0  1  0  0  0  0  0  0  0  0  0
  -23.1637  -33.1363   15.8653 C   0  0  2  0  0  0  0  0  0  0  0  0
  -21.0333  -32.4616   20.0867 C   0  0  0  0  0  0  0  0  0  0  0  0
  -26.1169  -11.2726   20.0103 N   0  0  0  0  0  0  0  0  0  0  0  0
  -27.6751  -19.1325   18.8187 N   0  0  0  0  0  0  0  0  0  0  0  0
  -27.0477  -11.3857   19.0475 N   0  0  0  0  0  0  0  0  0  0  0  0
  -29.2717  -23.0086   19.5928 N   0  0  0  0  0  0  0  0  0  0  0  0
  -24.5179  -32.3243   20.9255 N   0  0  0  0  0  0  0  0  0  0  0  0
  -28.3970  -14.8998   19.7413 N   0  0  0  0  0  0  0  0  0  0  0  0
  -27.8255  -10.3865   17.0457 N   0  0  0  0  0  0  0  0  0  0  0  0
  -25.9927   -7.2190   18.0469 N   0  0  0  0  0  0  0  0  0  0  0  0
  -28.9478  -17.1762   19.4645 N   0  0  0  0  0  0  0  0  0  0  0  0
  -25.5292  -32.9668   24.3694 N   0  0  0  0  0  0  0  0  0  0  0  0
  -22.6295  -33.0088   18.2009 N   0  0  0  0  0  0  0  0  0  0  0  0
  -24.3193  -32.7280   15.0176 N   0  3  0  0  0  0  0  0  0  0  0  0
  -24.5851   -8.5499   16.8197 O   0  0  0  0  0  0  0  0  0  0  0  0
  -30.7423  -22.1791   17.9556 O   0  0  0  0  0  0  0  0  0  0  0  0
  -23.8734  -31.7087   23.3216 O   0  0  0  0  0  0  0  0  0  0  0  0
  -23.3315  -34.3129   20.6535 O   0  0  0  0  0  0  0  0  0  0  0  0
  -23.4537  -31.1120   17.1520 O   0  0  0  0  0  0  0  0  0  0  0  0
  -26.7731  -16.4249   19.1101 O   0  0  0  0  0  0  0  0  0  0  0  0
  -27.9822  -20.4764   18.6425 O   0  0  0  0  0  0  0  0  0  0  0  0
  -21.1169   -8.4142   22.7272 O   0  0  0  0  0  0  0  0  0  0  0  0
  -27.6320  -27.0079   20.6232 O   0  0  0  0  0  0  0  0  0  1  0  0
  -21.8694   -3.9140   25.8233 F   0  0  0  0  0  0  0  0  0  0  0  0
  -20.8252   -8.5176   25.4743 F   0  0  0  0  0  0  0  0  0  0  0  0
  1  2  1  0  0  0  0
  1  5  2  0  0  0  0
  2  6  2  0  0  0  0
  3  8  2  0  0  0  0
  3 16  1  0  0  0  0
  4  9  1  0  0  0  0
  4 16  2  0  0  0  0
  5 18  1  0  0  0  0
  6 20  1  0  0  0  0
  7 10  2  0  0  0  0
  7 19  1  0  0  0  0
  8 22  1  0  0  0  0
  9 22  2  0  0  0  0
 10 23  1  0  0  0  0
 11 12  2  0  0  0  0
 11 24  1  0  0  0  0
 12 25  1  0  0  0  0
 13 21  1  0  0  0  0
 13 23  2  0  0  0  0
 14 25  2  0  0  0  0
 14 26  1  0  0  0  0
 15 28  2  0  0  0  0
 15 29  1  0  0  0  0
 16 27  1  0  0  0  0
 17 27  1  0  0  0  0
 17 30  2  0  0  0  0
 17 33  1  0  0  0  0
 18 20  2  0  0  0  0
 18 39  1  0  0  0  0
 19 21  2  0  0  0  0
 19 40  1  0  0  0  0
 20 50  1  0  0  0  0
 21 41  1  0  0  0  0
 22 82  1  0  0  0  0
 23 83  1  0  0  0  0
 24 26  2  0  0  0  0
 24 82  1  0  0  0  0
 25 84  1  0  0  0  0
 26 85  1  0  0  0  0
 27 63  2  0  0  0  0
 28 34  1  0  0  0  0
 28 81  1  0  0  0  0
 29 64  2  0  0  0  0
 29 71  1  0  0  0  0
 30 65  1  0  0  0  0
 30 69  1  0  0  0  0
 31 32  2  0  0  0  0
 31 42  1  0  0  0  0
 31 59  1  0  0  0  0
 32 53  1  0  0  0  0
 32 66  1  0  0  0  0
 33 70  1  0  0  0  0
 33 75  2  0  0  0  0
 34 66  1  0  0  0  0
 34 76  2  0  0  0  0
 35 51  1  0  0  0  0
 35 72  1  0  0  0  0
 35 77  2  0  0  0  0
 36 60  1  0  0  0  0
 36 67  1  0  0  0  0
 36 78  2  0  0  0  0
 37 61  1  0  0  0  0
 37 73  1  0  0  0  0
 37 79  2  0  0  0  0
 38 68  1  0  0  0  0
 38 71  1  0  0  0  0
 38 80  2  0  0  0  0
 39 43  1  0  0  0  0
 40 51  1  0  0  0  0
 41 67  1  0  0  0  0
 42 47  1  0  0  0  0
 43 45  1  0  0  0  0
 44 46  1  0  0  0  0
 44 48  1  0  0  0  0
 45 50  1  0  0  0  0
 46 52  1  0  0  0  0
 47 66  1  0  0  0  0
 48 68  1  0  0  0  0
 49 52  1  0  0  0  0
 49 68  1  0  0  0  0
 50 72  1  0  0  0  0
 51 67  1  0  0  0  0
 52 65  1  0  0  0  0
 54 61  1  0  0  0  0
 55 62  1  0  0  0  0
 56 62  1  0  0  0  0
 57 62  1  0  0  0  0
 58 74  1  0  0  0  0
 59 83  1  0  0  0  0
 60 62  1  0  0  0  0
 60 73  1  0  0  0  0
 61 74  1  0  0  0  0
 63 65  1  0  0  0  0
 64 81  1  0  0  0  0
M  CHG  1  74   1
M  ISO  4  38 100  59 101  71 100  83 101
M  END
> <Batch ID>
0160

> <Smiles>
CNC(C)C(=O)NC(C(=O)N1Cc2cc([101O:1][101CH2:1]C3=C(C)N(C(=O)c4cc([100NH:0][100C:0](=O)N5CCCC(n6nc(-c7ccc(Oc8ccc(F)cc8F)cc7)c(C(N)=O)c6N)C5)no4)CC3)ccc2CC1C(=O)NC1CCCc2ccccc21)C(C)(C)C

> <Shape>
0.287

> <Color>
0.071

> <Negative vol penalty>
0.000

$$$$

  -OEChem-04052303503D

 86 94  0     1  0  0  0  0  0999 V2000
  -27.0713  -12.5557   17.0195 C   0  0  0  0  0  0  0  0  0  0  0  0
  -26.2537  -13.6665   16.8370 C   0  0  0  0  0  0  0  0  0  0  0  0
  -29.1669  -25.4693   19.1958 C   0  0  0  0  0  0  0  0  0  0  0  0
  -27.6755  -24.2203   20.6286 C   0  0  0  0  0  0  0  0  0  0  0  0
  -27.0788  -11.8909   18.2450 C   0  0  0  0  0  0  0  0  0  0  0  0
  -25.4424  -14.1124   17.8797 C   0  0  0  0  0  0  0  0  0  0  0  0
  -23.9613  -19.9132   19.1697 C   0  0  0  0  0  0  0  0  0  0  0  0
  -30.2114  -24.6084   19.5325 C   0  0  0  0  0  0  0  0  0  0  0  0
  -28.7201  -23.3594   20.9653 C   0  0  0  0  0  0  0  0  0  0  0  0
  -22.8324  -20.6791   18.8824 C   0  0  0  0  0  0  0  0  0  0  0  0
  -30.9058  -20.6164   21.9226 C   0  0  0  0  0  0  0  0  0  0  0  0
  -30.6423  -19.2467   21.9276 C   0  0  0  0  0  0  0  0  0  0  0  0
  -21.9314  -20.1564   21.0582 C   0  0  0  0  0  0  0  0  0  0  0  0
  -30.0555  -19.3509   19.5863 C   0  0  0  0  0  0  0  0  0  0  0  0
  -27.8989  -25.2753   19.7439 C   0  0  0  0  0  0  0  0  0  0  0  0
  -19.3106  -27.4984   21.4814 C   0  0  0  0  0  0  0  0  0  0  0  0
  -25.9120  -26.0241   18.3300 C   0  0  0  0  0  0  0  0  0  0  0  0
  -26.2743  -12.3348   19.3064 C   0  0  0  0  0  0  0  0  0  0  0  0
  -24.0790  -19.2531   20.4013 C   0  0  0  0  0  0  0  0  0  0  0  0
  -25.4381  -13.4521   19.1202 C   0  0  0  0  0  0  0  0  0  0  0  0
  -23.0640  -19.3848   21.3597 C   0  0  0  0  0  0  0  0  0  0  0  0
  -18.5380  -26.4027   21.9349 C   0  0  0  0  0  0  0  0  0  0  0  0
  -29.9880  -23.5534   20.4172 C   0  0  0  0  0  0  0  0  0  0  0  0
  -21.8159  -20.7985   19.8255 C   0  0  0  0  0  0  0  0  0  0  0  0
  -30.7442  -21.3534   20.7494 C   0  0  0  0  0  0  0  0  0  0  0  0
  -30.2172  -18.6139   20.7595 C   0  0  0  0  0  0  0  0  0  0  0  0
  -30.3190  -20.7207   19.5813 C   0  0  0  0  0  0  0  0  0  0  0  0
  -26.8196  -26.1646   19.3969 C   0  0  0  0  0  0  0  0  0  0  0  0
  -19.6056  -28.2459   22.5977 C   0  0  0  0  0  0  0  0  0  0  0  0
  -18.4162  -26.5586   23.2961 C   0  0  0  0  0  0  0  0  0  0  0  0
  -25.0904  -27.1201   18.4316 C   0  0  0  0  0  0  0  0  0  0  0  0
  -19.7244  -27.8122   20.1448 C   0  0  0  0  0  0  0  0  0  0  0  0
  -25.8197  -24.9949   17.3361 C   0  0  0  0  0  0  0  0  0  0  0  0
  -24.3195  -16.2148   21.3040 C   0  0  0  0  0  0  0  0  0  0  0  0
  -24.7688  -17.5277   24.2361 C   0  0  0  0  0  0  0  0  0  0  0  0
  -19.3653  -23.4440   20.2053 C   0  0  0  0  0  0  0  0  0  0  0  0
  -24.2991  -20.1873   26.3224 C   0  0  0  0  0  0  0  0  0  0  0  0
  -22.6022  -30.4850   22.4317 C   0  0  0  0  0  0  0  0  0  0  0  0
  -26.2809  -11.5553   20.5975 C   0  0  0  0  0  0  0  0  0  0  0  0
  -25.3153  -18.4525   20.7063 C   0  0  0  0  0  0  0  0  0  0  0  0
  -23.1513  -18.7127   22.7048 C   0  0  0  0  0  0  0  0  0  0  0  0
  -25.6714  -12.3167   21.7718 C   0  0  0  0  0  0  0  0  0  0  0  0
  -25.4501  -31.5568   20.5831 C   0  0  0  0  0  0  0  0  0  0  0  0
  -24.3516  -12.9625   21.3619 C   0  0  0  0  0  0  0  0  0  0  0  0
  -26.0092  -30.2625   19.9896 C   0  0  0  0  0  0  0  0  0  0  0  0
  -24.8849  -31.3369   21.9846 C   0  0  0  0  0  0  0  0  0  0  0  0
  -24.4454  -28.9621   21.4937 C   0  0  0  0  0  0  0  0  0  0  0  0
  -24.5623  -13.9811   20.2352 C   0  0  1  0  0  0  0  0  0  0  0  0
  -25.0957  -17.4048   21.7932 C   0  0  1  0  0  0  0  0  0  0  0  0
  -24.9761  -29.1218   20.0587 C   0  0  2  0  0  0  0  0  0  0  0  0
  -17.7461  -25.7775   24.3465 C   0  0  0  0  0  0  0  0  0  0  0  0
  -19.9144  -29.2655   19.7790 C   0  0  0  0  0  0  0  0  0  0  0  0
  -24.5158  -21.5899   28.3920 C   0  0  0  0  0  0  0  0  0  0  0  0
  -22.5072  -15.7443   25.2432 C   0  0  0  0  0  0  0  0  0  0  0  0
  -22.3626  -17.1956   27.2782 C   0  0  0  0  0  0  0  0  0  0  0  0
  -24.4585  -15.9316   26.7962 C   0  0  0  0  0  0  0  0  0  0  0  0
  -26.7715  -21.4762   25.3301 C   0  0  0  0  0  0  0  0  0  0  0  0
  -17.9641  -25.2918   21.1038 C   0  0  0  0  0  0  0  0  0  0  0  0
  -20.3612  -29.4893   22.8135 C   0  0  0  0  0  0  0  0  0  0  0  0
  -20.0593  -22.1740   20.6492 C   0  0  0  0  0  0  0  0  0  1  0  0
  -23.8652  -17.9362   25.3744 C   0  0  1  0  0  0  0  0  0  0  0  0
  -25.2550  -20.9302   27.2382 C   0  0  2  0  0  0  0  0  0  0  0  0
  -23.2955  -16.7131   26.1470 C   0  0  0  0  0  0  0  0  0  0  0  0
  -26.5961  -27.2633   20.1228 N   0  0  0  0  0  0  0  0  0  0  0  0
  -25.5386  -27.8232   19.5109 N   0  0  0  0  0  0  0  0  0  0  0  0
  -24.3770  -17.9359   22.9532 N   0  0  0  0  0  0  0  0  0  0  0  0
  -23.9104  -30.2432   21.9810 N   0  0  0  0  0  0  0  0  0  0  0  0
  -24.0355  -27.5413   17.7021 N   0  0  0  0  0  0  0  0  0  0  0  0
  -26.7431  -23.9413   17.3775 N   0  0  0  0  0  0  0  0  0  0  0  0
  -25.1047  -15.2144   20.7637 N   0  0  0  0  0  0  0  0  0  0  0  0
  -18.7075  -24.0626   21.2568 N   0  0  0  0  0  0  0  0  0  0  0  0
  -24.6395  -18.8567   26.1999 N   0  0  0  0  0  0  0  0  0  0  0  0
  -21.7403  -29.3959   22.3890 N   0  0  0  0  0  0  0  0  0  0  0  0
  -25.9822  -21.9874   26.4802 N   0  3  0  0  0  0  0  0  0  0  0  0
  -19.9416  -26.9872   19.2386 O   0  0  0  0  0  0  0  0  0  0  0  0
  -24.9546  -25.0177   16.4280 O   0  0  0  0  0  0  0  0  0  0  0  0
  -23.0988  -16.2045   21.4103 O   0  0  0  0  0  0  0  0  0  0  0  0
  -25.7885  -16.8768   24.4771 O   0  0  0  0  0  0  0  0  0  0  0  0
  -19.3989  -23.8492   19.0466 O   0  0  0  0  0  0  0  0  0  0  0  0
  -23.3436  -20.7319   25.7738 O   0  0  0  0  0  0  0  0  0  0  0  0
  -22.2284  -31.5910   22.8367 O   0  0  0  0  0  0  0  0  0  0  0  0
  -19.0642  -27.6797   23.7081 O   0  0  0  0  0  0  0  0  0  0  0  0
  -31.0070  -22.7130   20.7458 O   0  0  0  0  0  0  0  0  0  0  0  0
  -20.7126  -21.5450   19.5474 O   0  0  0  0  0  0  0  0  0  1  0  0
  -29.9656  -17.2983   20.7641 F   0  0  0  0  0  0  0  0  0  0  0  0
  -30.1631  -21.4232   18.4508 F   0  0  0  0  0  0  0  0  0  0  0  0
  1  2  1  0  0  0  0
  1  5  2  0  0  0  0
  2  6  2  0  0  0  0
  3  8  2  0  0  0  0
  3 15  1  0  0  0  0
  4  9  1  0  0  0  0
  4 15  2  0  0  0  0
  5 18  1  0  0  0  0
  6 20  1  0  0  0  0
  7 10  2  0  0  0  0
  7 19  1  0  0  0  0
  8 23  1  0  0  0  0
  9 23  2  0  0  0  0
 10 24  1  0  0  0  0
 11 12  2  0  0  0  0
 11 25  1  0  0  0  0
 12 26  1  0  0  0  0
 13 21  1  0  0  0  0
 13 24  2  0  0  0  0
 14 26  2  0  0  0  0
 14 27  1  0  0  0  0
 15 28  1  0  0  0  0
 16 22  1  0  0  0  0
 16 29  2  0  0  0  0
 16 32  1  0  0  0  0
 17 28  1  0  0  0  0
 17 31  2  0  0  0  0
 17 33  1  0  0  0  0
 18 20  2  0  0  0  0
 18 39  1  0  0  0  0
 19 21  2  0  0  0  0
 19 40  1  0  0  0  0
 20 48  1  0  0  0  0
 21 41  1  0  0  0  0
 22 30  2  0  0  0  0
 22 58  1  0  0  0  0
 23 83  1  0  0  0  0
 24 84  1  0  0  0  0
 25 27  2  0  0  0  0
 25 83  1  0  0  0  0
 26 85  1  0  0  0  0
 27 86  1  0  0  0  0
 28 64  2  0  0  0  0
 29 59  1  0  0  0  0
 29 82  1  0  0  0  0
 30 51  1  0  0  0  0
 30 82  1  0  0  0  0
 31 65  1  0  0  0  0
 31 68  1  0  0  0  0
 32 52  1  0  0  0  0
 32 75  2  0  0  0  0
 33 69  1  0  0  0  0
 33 76  2  0  0  0  0
 34 49  1  0  0  0  0
 34 70  1  0  0  0  0
 34 77  2  0  0  0  0
 35 61  1  0  0  0  0
 35 66  1  0  0  0  0
 35 78  2  0  0  0  0
 36 60  1  0  0  0  0
 36 71  1  0  0  0  0
 36 79  2  0  0  0  0
 37 62  1  0  0  0  0
 37 72  1  0  0  0  0
 37 80  2  0  0  0  0
 38 67  1  0  0  0  0
 38 73  1  0  0  0  0
 38 81  2  0  0  0  0
 39 42  1  0  0  0  0
 40 49  1  0  0  0  0
 41 66  1  0  0  0  0
 42 44  1  0  0  0  0
 43 45  1  0  0  0  0
 43 46  1  0  0  0  0
 44 48  1  0  0  0  0
 45 50  1  0  0  0  0
 46 67  1  0  0  0  0
 47 50  1  0  0  0  0
 47 67  1  0  0  0  0
 48 70  1  0  0  0  0
 49 66  1  0  0  0  0
 50 65  1  0  0  0  0
 53 62  1  0  0  0  0
 54 63  1  0  0  0  0
 55 63  1  0  0  0  0
 56 63  1  0  0  0  0
 57 74  1  0  0  0  0
 58 71  1  0  0  0  0
 59 73  1  0  0  0  0
 60 84  1  0  0  0  0
 61 63  1  0  0  0  0
 61 72  1  0  0  0  0
 62 74  1  0  0  0  0
 64 65  1  0  0  0  0
M  CHG  1  74   1
M  ISO  4  38 100  60 101  73 100  84 101
M  END
> <Batch ID>
0160

> <Smiles>
CNC(C)C(=O)NC(C(=O)N1Cc2cc([101O:1][101CH2:1]C(=O)NCc3c(C)oc(C[100NH:0][100C:0](=O)N4CCCC(n5nc(-c6ccc(Oc7ccc(F)cc7F)cc6)c(C(N)=O)c5N)C4)c3C(C)=O)ccc2CC1C(=O)NC1CCCc2ccccc21)C(C)(C)C

> <Shape>
0.206

> <Color>
0.084

> <Negative vol penalty>
0.000

$$$$

  -OEChem-04052303503D

 87 95  0     1  0  0  0  0  0999 V2000
  -27.5510  -30.5421   28.4087 C   0  0  0  0  0  0  0  0  0  0  0  0
  -27.6443  -29.7078   27.2994 C   0  0  0  0  0  0  0  0  0  0  0  0
  -24.9552   -8.2885   21.5615 C   0  0  0  0  0  0  0  0  0  0  0  0
  -23.3933  -10.0485   21.0141 C   0  0  0  0  0  0  0  0  0  0  0  0
  -26.3522  -31.1971   28.6880 C   0  0  0  0  0  0  0  0  0  0  0  0
  -26.5386  -29.5271   26.4692 C   0  0  0  0  0  0  0  0  0  0  0  0
  -27.7374  -29.7759   21.5553 C   0  0  0  0  0  0  0  0  0  0  0  0
  -28.6592  -19.1548   22.5148 C   0  0  0  0  0  0  0  0  0  0  0  0
  -28.6814  -20.4531   22.0054 C   0  0  0  0  0  0  0  0  0  0  0  0
  -23.9044   -7.3727   21.6154 C   0  0  0  0  0  0  0  0  0  0  0  0
  -22.3425   -9.1328   21.0680 C   0  0  0  0  0  0  0  0  0  0  0  0
  -28.3373  -28.6522   20.9886 C   0  0  0  0  0  0  0  0  0  0  0  0
  -21.4693   -6.5018   23.7917 C   0  0  0  0  0  0  0  0  0  0  0  0
  -21.4406   -5.6120   24.8655 C   0  0  0  0  0  0  0  0  0  0  0  0
  -26.2116  -27.9944   20.0571 C   0  0  0  0  0  0  0  0  0  0  0  0
  -21.5598   -3.7524   23.3277 C   0  0  0  0  0  0  0  0  0  0  0  0
  -24.6996   -9.6264   21.2609 C   0  0  0  0  0  0  0  0  0  0  0  0
  -28.5957  -18.2737   20.2661 C   0  0  0  0  0  0  0  0  0  0  0  0
  -26.5605  -10.9119   20.0809 C   0  0  0  0  0  0  0  0  0  0  0  0
  -25.2342  -31.0319   27.8553 C   0  0  0  0  0  0  0  0  0  0  0  0
  -26.3655  -30.0119   21.3860 C   0  0  0  0  0  0  0  0  0  0  0  0
  -25.3234  -30.1795   26.7383 C   0  0  0  0  0  0  0  0  0  0  0  0
  -25.5971  -29.1232   20.6205 C   0  0  0  0  0  0  0  0  0  0  0  0
  -28.6179  -19.5720   19.7567 C   0  0  0  0  0  0  0  0  0  0  0  0
  -28.6164  -18.0651   21.6451 C   0  0  0  0  0  0  0  0  0  0  0  0
  -28.6608  -20.6618   20.6264 C   0  0  0  0  0  0  0  0  0  0  0  0
  -22.5980   -7.7949   21.3687 C   0  0  0  0  0  0  0  0  0  0  0  0
  -27.5739  -27.7597   20.2418 C   0  0  0  0  0  0  0  0  0  0  0  0
  -21.5432   -6.0169   22.4859 C   0  0  0  0  0  0  0  0  0  0  0  0
  -21.4858   -4.2373   24.6335 C   0  0  0  0  0  0  0  0  0  0  0  0
  -21.5885   -4.6422   22.2539 C   0  0  0  0  0  0  0  0  0  0  0  0
  -25.7846  -10.5729   21.2056 C   0  0  0  0  0  0  0  0  0  0  0  0
  -27.4506  -11.8481   20.5474 C   0  0  0  0  0  0  0  0  0  0  0  0
  -28.1929  -25.5116   20.4254 C   0  0  0  0  0  0  0  0  0  1  0  0
  -28.5527  -17.1343   19.3530 C   0  0  0  0  0  0  0  0  0  0  0  0
  -26.4834  -10.4242   18.7348 C   0  0  0  0  0  0  0  0  0  0  0  0
  -28.7407  -24.3744   19.9803 C   0  0  0  0  0  0  0  0  0  0  0  0
  -28.7286  -23.1653   20.8671 C   0  0  0  0  0  0  0  0  0  0  0  0
  -23.8699  -30.2365   23.3418 C   0  0  0  0  0  0  0  0  0  0  0  0
  -22.3113  -31.0806   20.6250 C   0  0  0  0  0  0  0  0  0  0  0  0
  -22.1591  -30.9666   17.2176 C   0  0  0  0  0  0  0  0  0  0  0  0
  -28.6125  -16.4003   23.5358 C   0  0  0  0  0  0  0  0  0  0  0  0
  -23.9458  -31.7237   28.2244 C   0  0  0  0  0  0  0  0  0  0  0  0
  -25.7387  -31.2428   21.9814 C   0  0  0  0  0  0  0  0  0  0  0  0
  -24.1246  -29.3419   20.3920 C   0  0  0  0  0  0  0  0  0  0  0  0
  -22.9323  -31.7726   27.0838 C   0  0  0  0  0  0  0  0  0  0  0  0
  -28.5336  -13.2948   25.2756 C   0  0  0  0  0  0  0  0  0  0  0  0
  -22.8156  -30.4069   26.4145 C   0  0  0  0  0  0  0  0  0  0  0  0
  -27.8752  -12.3377   24.2793 C   0  0  0  0  0  0  0  0  0  0  0  0
  -27.9239  -14.6938   25.2058 C   0  0  0  0  0  0  0  0  0  0  0  0
  -27.2340  -14.3340   22.8683 C   0  0  0  0  0  0  0  0  0  0  0  0
  -24.1534  -29.9775   25.8001 C   0  0  1  0  0  0  0  0  0  0  0  0
  -24.2312  -31.1116   22.1750 C   0  0  1  0  0  0  0  0  0  0  0  0
  -27.8589  -12.9293   22.8562 C   0  0  2  0  0  0  0  0  0  0  0  0
  -28.5962  -19.7988   18.2765 C   0  0  0  0  0  0  0  0  0  0  0  0
  -27.2017  -16.6302   18.9466 C   0  0  0  0  0  0  0  0  0  0  0  0
  -20.7483  -31.7166   15.2825 C   0  0  0  0  0  0  0  0  0  0  0  0
  -20.2878  -28.8848   21.2524 C   0  0  0  0  0  0  0  0  0  0  0  0
  -19.4905  -29.0393   18.8841 C   0  0  0  0  0  0  0  0  0  0  0  0
  -19.2877  -31.0117   20.3978 C   0  0  0  0  0  0  0  0  0  0  0  0
  -24.3668  -32.5780   16.0826 C   0  0  0  0  0  0  0  0  0  0  0  0
  -21.5687  -30.3348   19.5428 C   0  0  1  0  0  0  0  0  0  0  0  0
  -21.9270  -32.0527   16.1827 C   0  0  2  0  0  0  0  0  0  0  0  0
  -20.1860  -29.8122   20.0250 C   0  0  0  0  0  0  0  0  0  0  0  0
  -26.1499  -11.2394   22.3039 N   0  0  0  0  0  0  0  0  0  0  0  0
  -27.1652  -12.0065   21.8717 N   0  0  0  0  0  0  0  0  0  0  0  0
  -23.5566  -30.5566   20.9999 N   0  0  0  0  0  0  0  0  0  0  0  0
  -27.9464  -15.1914   23.8286 N   0  0  0  0  0  0  0  0  0  0  0  0
  -28.4419  -12.5429   19.9500 N   0  0  0  0  0  0  0  0  0  0  0  0
  -25.5102   -9.4638   18.4269 N   0  0  0  0  0  0  0  0  0  0  0  0
  -28.6839  -21.9884   20.1325 N   0  0  0  0  0  0  0  0  0  0  0  0
  -28.5953  -16.7563   22.1876 N   0  0  0  0  0  0  0  0  0  0  0  0
  -24.3810  -30.6703   24.5500 N   0  0  0  0  0  0  0  0  0  0  0  0
  -21.5005  -31.2370   18.3984 N   0  0  0  0  0  0  0  0  0  0  0  0
  -23.1369  -32.2221   15.3292 N   0  3  0  0  0  0  0  0  0  0  0  0
  -29.5419  -16.5611   18.9017 O   0  0  0  0  0  0  0  0  0  0  0  0
  -27.2653  -10.8161   17.8357 O   0  0  0  0  0  0  0  0  0  0  0  0
  -28.7566  -23.2791   22.0878 O   0  0  0  0  0  0  0  0  0  0  0  0
  -23.1773  -29.2421   23.1595 O   0  0  0  0  0  0  0  0  0  0  0  0
  -21.8084  -32.0950   21.1146 O   0  0  0  0  0  0  0  0  0  0  0  0
  -22.8522  -29.9754   16.9990 O   0  0  0  0  0  0  0  0  0  0  0  0
  -29.1814  -17.0565   24.4121 O   0  0  0  0  0  0  0  0  0  0  0  0
  -29.3183  -24.2678   18.7315 O   0  0  0  0  0  0  0  0  0  0  0  0
  -21.5725   -6.9016   21.4210 O   0  0  0  0  0  0  0  0  0  0  0  0
  -28.1569  -26.6618   19.6881 O   0  0  0  0  0  0  0  0  0  1  0  0
  -21.4598   -3.3830   25.6649 F   0  0  0  0  0  0  0  0  0  0  0  0
  -21.6607   -4.1704   21.0017 F   0  0  0  0  0  0  0  0  0  0  0  0
  1  2  1  0  0  0  0
  1  5  2  0  0  0  0
  2  6  2  0  0  0  0
  3 10  2  0  0  0  0
  3 17  1  0  0  0  0
  4 11  1  0  0  0  0
  4 17  2  0  0  0  0
  5 20  1  0  0  0  0
  6 22  1  0  0  0  0
  7 12  2  0  0  0  0
  7 21  1  0  0  0  0
  8  9  2  0  0  0  0
  8 25  1  0  0  0  0
  9 26  1  0  0  0  0
 10 27  1  0  0  0  0
 11 27  2  0  0  0  0
 12 28  1  0  0  0  0
 13 14  2  0  0  0  0
 13 29  1  0  0  0  0
 14 30  1  0  0  0  0
 15 23  1  0  0  0  0
 15 28  2  0  0  0  0
 16 30  2  0  0  0  0
 16 31  1  0  0  0  0
 17 32  1  0  0  0  0
 18 24  1  0  0  0  0
 18 25  2  0  0  0  0
 18 35  1  0  0  0  0
 19 32  1  0  0  0  0
 19 33  2  0  0  0  0
 19 36  1  0  0  0  0
 20 22  2  0  0  0  0
 20 43  1  0  0  0  0
 21 23  2  0  0  0  0
 21 44  1  0  0  0  0
 22 52  1  0  0  0  0
 23 45  1  0  0  0  0
 24 26  2  0  0  0  0
 24 55  1  0  0  0  0
 25 72  1  0  0  0  0
 26 71  1  0  0  0  0
 27 84  1  0  0  0  0
 28 85  1  0  0  0  0
 29 31  2  0  0  0  0
 29 84  1  0  0  0  0
 30 86  1  0  0  0  0
 31 87  1  0  0  0  0
 32 65  2  0  0  0  0
 33 66  1  0  0  0  0
 33 69  1  0  0  0  0
 34 37  2  0  0  0  0
 34 85  1  0  0  0  0
 35 56  1  0  0  0  0
 35 76  2  0  0  0  0
 36 70  1  0  0  0  0
 36 77  2  0  0  0  0
 37 38  1  0  0  0  0
 37 83  1  0  0  0  0
 38 71  1  0  0  0  0
 38 78  2  0  0  0  0
 39 53  1  0  0  0  0
 39 73  1  0  0  0  0
 39 79  2  0  0  0  0
 40 62  1  0  0  0  0
 40 67  1  0  0  0  0
 40 80  2  0  0  0  0
 41 63  1  0  0  0  0
 41 74  1  0  0  0  0
 41 81  2  0  0  0  0
 42 68  1  0  0  0  0
 42 72  1  0  0  0  0
 42 82  2  0  0  0  0
 43 46  1  0  0  0  0
 44 53  1  0  0  0  0
 45 67  1  0  0  0  0
 46 48  1  0  0  0  0
 47 49  1  0  0  0  0
 47 50  1  0  0  0  0
 48 52  1  0  0  0  0
 49 54  1  0  0  0  0
 50 68  1  0  0  0  0
 51 54  1  0  0  0  0
 51 68  1  0  0  0  0
 52 73  1  0  0  0  0
 53 67  1  0  0  0  0
 54 66  1  0  0  0  0
 57 63  1  0  0  0  0
 58 64  1  0  0  0  0
 59 64  1  0  0  0  0
 60 64  1  0  0  0  0
 61 75  1  0  0  0  0
 62 64  1  0  0  0  0
 62 74  1  0  0  0  0
 63 75  1  0  0  0  0
 65 66  1  0  0  0  0
M  CHG  1  75   1
M  ISO  4  34 101  42 100  72 100  85 101
M  END
> <Batch ID>
0160

> <Smiles>
CNC(C)C(=O)NC(C(=O)N1Cc2cc([101O:1][101CH2:1]C(=O)C(=O)Nc3ccc([100NH:0][100C:0](=O)N4CCCC(n5nc(-c6ccc(Oc7ccc(F)cc7F)cc6)c(C(N)=O)c5N)C4)c(C(C)=O)c3C)ccc2CC1C(=O)NC1CCCc2ccccc21)C(C)(C)C

> <Shape>
0.287

> <Color>
0.102

> <Negative vol penalty>
0.000

$$$$

  -OEChem-04052303503D

 85 94  0     1  0  0  0  0  0999 V2000
  -32.1480  -13.1603   21.2749 C   0  0  0  0  0  0  0  0  0  0  0  0
  -31.6783  -14.4567   21.0903 C   0  0  0  0  0  0  0  0  0  0  0  0
  -28.9048  -26.9372   19.3037 C   0  0  0  0  0  0  0  0  0  0  0  0
  -26.9344  -25.5605   19.0596 C   0  0  0  0  0  0  0  0  0  0  0  0
  -31.3620  -12.0742   20.8923 C   0  0  0  0  0  0  0  0  0  0  0  0
  -30.4226  -14.6678   20.5219 C   0  0  0  0  0  0  0  0  0  0  0  0
  -24.2856  -18.6352   23.2831 C   0  0  0  0  0  0  0  0  0  0  0  0
  -29.6983  -25.8807   18.8570 C   0  0  0  0  0  0  0  0  0  0  0  0
  -27.7280  -24.5040   18.6128 C   0  0  0  0  0  0  0  0  0  0  0  0
  -23.0810  -19.1745   23.7351 C   0  0  0  0  0  0  0  0  0  0  0  0
  -29.7475  -22.1573   19.9713 C   0  0  0  0  0  0  0  0  0  0  0  0
  -29.4976  -20.8908   20.4994 C   0  0  0  0  0  0  0  0  0  0  0  0
  -21.8530  -17.6407   22.3254 C   0  0  0  0  0  0  0  0  0  0  0  0
  -19.8731  -24.8382   22.8028 C   0  0  0  0  0  0  0  0  0  0  0  0
  -29.0224  -20.0596   18.2812 C   0  0  0  0  0  0  0  0  0  0  0  0
  -27.5228  -26.7771   19.4051 C   0  0  0  0  0  0  0  0  0  0  0  0
  -26.5730  -29.1415   19.2813 C   0  0  0  0  0  0  0  0  0  0  0  0
  -30.0920  -12.2718   20.3278 C   0  0  0  0  0  0  0  0  0  0  0  0
  -24.2781  -17.5849   22.3610 C   0  0  0  0  0  0  0  0  0  0  0  0
  -29.6194  -13.5833   20.1302 C   0  0  0  0  0  0  0  0  0  0  0  0
  -23.0562  -17.0881   21.8784 C   0  0  0  0  0  0  0  0  0  0  0  0
  -19.7049  -26.2631   22.8746 C   0  0  0  0  0  0  0  0  0  0  0  0
  -29.1100  -24.6641   18.5115 C   0  0  0  0  0  0  0  0  0  0  0  0
  -21.8678  -18.6786   23.2573 C   0  0  0  0  0  0  0  0  0  0  0  0
  -29.6348  -22.3751   18.5982 C   0  0  0  0  0  0  0  0  0  0  0  0
  -29.1351  -19.8419   19.6544 C   0  0  0  0  0  0  0  0  0  0  0  0
  -29.2723  -21.3263   17.7531 C   0  0  0  0  0  0  0  0  0  0  0  0
  -26.7026  -27.8680   19.8671 C   0  0  0  0  0  0  0  0  0  0  0  0
  -18.4170  -26.5867   23.2720 C   0  0  0  0  0  0  0  0  0  0  0  0
  -25.6843  -29.8037   20.0925 C   0  0  0  0  0  0  0  0  0  0  0  0
  -18.7341  -24.1461   23.1405 C   0  0  0  0  0  0  0  0  0  0  0  0
  -27.2000  -29.6779   18.1087 C   0  0  0  0  0  0  0  0  0  0  0  0
  -21.3960  -27.8215   23.8065 C   0  0  0  0  0  0  0  0  0  0  0  0
  -26.2857  -15.1664   20.3125 C   0  0  0  0  0  0  0  0  0  0  0  0
  -23.8703  -13.6208   21.4021 C   0  0  0  0  0  0  0  0  0  0  0  0
  -19.3603  -21.7171   22.9129 C   0  0  0  0  0  0  0  0  0  0  0  0
  -21.3120  -12.1810   23.1398 C   0  0  0  0  0  0  0  0  0  0  0  0
  -29.2984  -11.0677   19.8864 C   0  0  0  0  0  0  0  0  0  0  0  0
  -25.5525  -17.0147   21.8001 C   0  0  0  0  0  0  0  0  0  0  0  0
  -23.0972  -15.9808   20.8610 C   0  0  0  0  0  0  0  0  0  0  0  0
  -17.8249  -27.9468   23.4825 C   0  0  0  0  0  0  0  0  0  0  0  0
  -27.8230  -11.3689   19.6360 C   0  0  0  0  0  0  0  0  0  0  0  0
  -17.9720  -28.8444   22.2561 C   0  0  0  0  0  0  0  0  0  0  0  0
  -19.3900  -29.3744   22.0400 C   0  0  0  0  0  0  0  0  0  0  0  0
  -24.1404  -29.9810   24.6095 C   0  0  0  0  0  0  0  0  0  0  0  0
  -20.4039  -28.3338   21.5543 C   0  0  0  0  0  0  0  0  0  0  0  0
  -27.6710  -12.6387   18.8046 C   0  0  0  0  0  0  0  0  0  0  0  0
  -25.1094  -29.7781   23.4454 C   0  0  0  0  0  0  0  0  0  0  0  0
  -23.4057  -28.6898   24.9560 C   0  0  0  0  0  0  0  0  0  0  0  0
  -23.6541  -27.8672   22.6358 C   0  0  0  0  0  0  0  0  0  0  0  0
  -20.8004  -27.2379   22.5501 C   0  0  2  0  0  0  0  0  0  0  0  0
  -28.2522  -13.8524   19.5398 C   0  0  1  0  0  0  0  0  0  0  0  0
  -25.4670  -15.5028   21.5241 C   0  0  1  0  0  0  0  0  0  0  0  0
  -24.3946  -29.1548   22.2334 C   0  0  2  0  0  0  0  0  0  0  0  0
  -20.1620   -9.9779   23.4883 C   0  0  0  0  0  0  0  0  0  0  0  0
  -22.4872  -13.9195   18.6999 C   0  0  0  0  0  0  0  0  0  0  0  0
  -20.7384  -12.3152   19.4974 C   0  0  0  0  0  0  0  0  0  0  0  0
  -23.1117  -11.5731   19.2989 C   0  0  0  0  0  0  0  0  0  0  0  0
  -21.9736  -12.1602   26.0244 C   0  0  0  0  0  0  0  0  0  0  0  0
  -18.6759  -20.3681   23.1019 C   0  0  0  0  0  0  0  0  0  0  0  0
  -19.5888  -19.1880   22.8054 C   0  0  0  0  0  0  0  0  0  1  0  0
  -22.4579  -13.1496   21.1642 C   0  0  1  0  0  0  0  0  0  0  0  0
  -21.2502  -10.9189   23.9812 C   0  0  2  0  0  0  0  0  0  0  0  0
  -22.2043  -12.7632   19.6797 C   0  0  0  0  0  0  0  0  0  0  0  0
  -25.9560  -27.7273   20.9657 N   0  0  0  0  0  0  0  0  0  0  0  0
  -25.3489  -28.9211   21.0767 N   0  0  0  0  0  0  0  0  0  0  0  0
  -22.7589  -28.1173   23.7740 N   0  0  0  0  0  0  0  0  0  0  0  0
  -24.1166  -14.9893   21.2383 N   0  0  0  0  0  0  0  0  0  0  0  0
  -25.1649  -31.0492   20.0529 N   0  0  0  0  0  0  0  0  0  0  0  0
  -26.5569  -29.5161   16.8740 N   0  0  0  0  0  0  0  0  0  0  0  0
  -18.4777  -22.7555   23.1981 N   0  0  0  0  0  0  0  0  0  0  0  0
  -27.3381  -14.3074   20.5654 N   0  0  0  0  0  0  0  0  0  0  0  0
  -22.2241  -12.0656   22.1121 N   0  0  0  0  0  0  0  0  0  0  0  0
  -20.9686  -11.2586   25.4046 N   0  3  0  0  0  0  0  0  0  0  0  0
  -28.3058  -30.2683   18.1523 O   0  0  0  0  0  0  0  0  0  0  0  0
  -20.6695  -28.0108   24.7855 O   0  0  0  0  0  0  0  0  0  0  0  0
  -25.9847  -15.6488   19.2270 O   0  0  0  0  0  0  0  0  0  0  0  0
  -24.7349  -12.7990   21.7192 O   0  0  0  0  0  0  0  0  0  0  0  0
  -20.5300  -21.8113   22.5563 O   0  0  0  0  0  0  0  0  0  0  0  0
  -20.6177  -13.1689   23.3689 O   0  0  0  0  0  0  0  0  0  0  0  0
  -29.8840  -23.6330   18.0753 O   0  0  0  0  0  0  0  0  0  0  0  0
  -20.6954  -19.2066   23.7061 O   0  0  0  0  0  0  0  0  0  1  0  0
  -28.8967  -18.6253   20.1615 F   0  0  0  0  0  0  0  0  0  0  0  0
  -29.1636  -21.5291   16.4329 F   0  0  0  0  0  0  0  0  0  0  0  0
  -17.4542  -25.1948   23.5482 S   0  0  0  0  0  0  0  0  0  0  0  0
  1  2  1  0  0  0  0
  1  5  2  0  0  0  0
  2  6  2  0  0  0  0
  3  8  2  0  0  0  0
  3 16  1  0  0  0  0
  4  9  1  0  0  0  0
  4 16  2  0  0  0  0
  5 18  1  0  0  0  0
  6 20  1  0  0  0  0
  7 10  2  0  0  0  0
  7 19  1  0  0  0  0
  8 23  1  0  0  0  0
  9 23  2  0  0  0  0
 10 24  1  0  0  0  0
 11 12  2  0  0  0  0
 11 25  1  0  0  0  0
 12 26  1  0  0  0  0
 13 21  1  0  0  0  0
 13 24  2  0  0  0  0
 14 22  1  0  0  0  0
 14 31  2  0  0  0  0
 15 26  2  0  0  0  0
 15 27  1  0  0  0  0
 16 28  1  0  0  0  0
 17 28  1  0  0  0  0
 17 30  2  0  0  0  0
 17 32  1  0  0  0  0
 18 20  2  0  0  0  0
 18 38  1  0  0  0  0
 19 21  2  0  0  0  0
 19 39  1  0  0  0  0
 20 52  1  0  0  0  0
 21 40  1  0  0  0  0
 22 29  2  0  0  0  0
 22 51  1  0  0  0  0
 23 81  1  0  0  0  0
 24 82  1  0  0  0  0
 25 27  2  0  0  0  0
 25 81  1  0  0  0  0
 26 83  1  0  0  0  0
 27 84  1  0  0  0  0
 28 65  2  0  0  0  0
 29 41  1  0  0  0  0
 29 85  1  0  0  0  0
 30 66  1  0  0  0  0
 30 69  1  0  0  0  0
 31 71  1  0  0  0  0
 31 85  1  0  0  0  0
 32 70  1  0  0  0  0
 32 75  2  0  0  0  0
 33 51  1  0  0  0  0
 33 67  1  0  0  0  0
 33 76  2  0  0  0  0
 34 53  1  0  0  0  0
 34 72  1  0  0  0  0
 34 77  2  0  0  0  0
 35 62  1  0  0  0  0
 35 68  1  0  0  0  0
 35 78  2  0  0  0  0
 36 60  1  0  0  0  0
 36 71  1  0  0  0  0
 36 79  2  0  0  0  0
 37 63  1  0  0  0  0
 37 73  1  0  0  0  0
 37 80  2  0  0  0  0
 38 42  1  0  0  0  0
 39 53  1  0  0  0  0
 40 68  1  0  0  0  0
 41 43  1  0  0  0  0
 42 47  1  0  0  0  0
 43 44  1  0  0  0  0
 44 46  1  0  0  0  0
 45 48  1  0  0  0  0
 45 49  1  0  0  0  0
 46 51  1  0  0  0  0
 47 52  1  0  0  0  0
 48 54  1  0  0  0  0
 49 67  1  0  0  0  0
 50 54  1  0  0  0  0
 50 67  1  0  0  0  0
 52 72  1  0  0  0  0
 53 68  1  0  0  0  0
 54 66  1  0  0  0  0
 55 63  1  0  0  0  0
 56 64  1  0  0  0  0
 57 64  1  0  0  0  0
 58 64  1  0  0  0  0
 59 74  1  0  0  0  0
 60 61  1  0  0  0  0
 61 82  1  0  0  0  0
 62 64  1  0  0  0  0
 62 73  1  0  0  0  0
 63 74  1  0  0  0  0
 65 66  1  0  0  0  0
M  CHG  1  74   1
M  ISO  4  33 100  51 100  61 101  82 101
M  END
> <Batch ID>
0160

> <Smiles>
CNC(C)C(=O)NC(C(=O)N1Cc2cc([101O:1][101CH2:1]CC(=O)Nc3cc4c(s3)CCCC[100CH:0]4[100C:0](=O)N3CCCC(n4nc(-c5ccc(Oc6ccc(F)cc6F)cc5)c(C(N)=O)c4N)C3)ccc2CC1C(=O)NC1CCCc2ccccc21)C(C)(C)C

> <Shape>
0.264

> <Color>
0.067

> <Negative vol penalty>
0.000

$$$$

  -OEChem-04052303503D

 89 98  0     1  0  0  0  0  0999 V2000
  -23.7839  -32.5131   14.1210 C   0  0  0  0  0  0  0  0  0  0  0  0
  -24.7107  -31.7585   14.8331 C   0  0  0  0  0  0  0  0  0  0  0  0
  -22.7817  -11.4144   22.0611 C   0  0  0  0  0  0  0  0  0  0  0  0
  -24.3747   -9.6486   22.4870 C   0  0  0  0  0  0  0  0  0  0  0  0
  -23.1778  -33.6167   14.7198 C   0  0  0  0  0  0  0  0  0  0  0  0
  -25.0327  -32.1078   16.1441 C   0  0  0  0  0  0  0  0  0  0  0  0
  -25.1712  -28.1048   19.2428 C   0  0  0  0  0  0  0  0  0  0  0  0
  -22.0432  -11.0170   23.1757 C   0  0  0  0  0  0  0  0  0  0  0  0
  -23.6362   -9.2512   23.6017 C   0  0  0  0  0  0  0  0  0  0  0  0
  -26.3052  -27.2957   19.1874 C   0  0  0  0  0  0  0  0  0  0  0  0
  -20.8258   -7.4781   24.2252 C   0  0  0  0  0  0  0  0  0  0  0  0
  -20.5908   -6.1137   24.3941 C   0  0  0  0  0  0  0  0  0  0  0  0
  -27.1711  -28.3849   21.1580 C   0  0  0  0  0  0  0  0  0  0  0  0
  -30.5192  -17.5911   21.2754 C   0  0  0  0  0  0  0  0  0  0  0  0
  -28.1481  -17.9794   21.0223 C   0  0  0  0  0  0  0  0  0  0  0  0
  -21.7409   -6.1785   26.5178 C   0  0  0  0  0  0  0  0  0  0  0  0
  -23.9474  -10.7301   21.7167 C   0  0  0  0  0  0  0  0  0  0  0  0
  -29.5506  -19.6762   22.0177 C   0  0  0  0  0  0  0  0  0  0  0  0
  -24.2719  -11.1886   19.2283 C   0  0  0  0  0  0  0  0  0  0  0  0
  -23.4853  -33.9740   16.0421 C   0  0  0  0  0  0  0  0  0  0  0  0
  -25.0334  -29.0691   20.2515 C   0  0  0  0  0  0  0  0  0  0  0  0
  -24.4311  -33.2180   16.7607 C   0  0  0  0  0  0  0  0  0  0  0  0
  -26.0332  -29.2032   21.2254 C   0  0  0  0  0  0  0  0  0  0  0  0
  -30.6638  -18.8518   21.8546 C   0  0  0  0  0  0  0  0  0  0  0  0
  -29.2613  -17.1550   20.8592 C   0  0  0  0  0  0  0  0  0  0  0  0
  -22.4705   -9.9355   23.9460 C   0  0  0  0  0  0  0  0  0  0  0  0
  -27.3068  -27.4376   20.1434 C   0  0  0  0  0  0  0  0  0  0  0  0
  -21.5184   -8.1928   25.2026 C   0  0  0  0  0  0  0  0  0  0  0  0
  -21.0483   -5.4638   25.5404 C   0  0  0  0  0  0  0  0  0  0  0  0
  -28.2927  -19.2401   21.6016 C   0  0  0  0  0  0  0  0  0  0  0  0
  -21.9759   -7.5430   26.3489 C   0  0  0  0  0  0  0  0  0  0  0  0
  -24.7104  -11.1397   20.5652 C   0  0  0  0  0  0  0  0  0  0  0  0
  -25.3623  -11.6400   18.5256 C   0  0  0  0  0  0  0  0  0  0  0  0
  -29.6790  -21.0072   22.6240 C   0  0  0  0  0  0  0  0  0  0  0  0
  -22.9933  -10.8557   18.6716 C   0  0  0  0  0  0  0  0  0  0  0  0
  -24.7758  -32.2368   20.3063 C   0  0  0  0  0  0  0  0  0  0  0  0
  -24.2813  -31.7522   23.4753 C   0  0  0  0  0  0  0  0  0  0  0  0
  -24.1313  -30.6205   26.6915 C   0  0  0  0  0  0  0  0  0  0  0  0
  -30.1146  -14.9324   20.0356 C   0  0  0  0  0  0  0  0  0  0  0  0
  -22.8396  -35.2032   16.6308 C   0  0  0  0  0  0  0  0  0  0  0  0
  -23.7917  -29.9157   20.3129 C   0  0  0  0  0  0  0  0  0  0  0  0
  -25.9239  -30.2096   22.3406 C   0  0  0  0  0  0  0  0  0  0  0  0
  -22.9568  -35.2841   18.1507 C   0  0  0  0  0  0  0  0  0  0  0  0
  -30.1497  -11.6552   18.6443 C   0  0  0  0  0  0  0  0  0  0  0  0
  -24.3832  -34.9743   18.5934 C   0  0  0  0  0  0  0  0  0  0  0  0
  -28.7174  -11.1578   18.8519 C   0  0  0  0  0  0  0  0  0  0  0  0
  -29.1412  -22.9828   19.6269 C   0  0  0  0  0  0  0  0  0  0  0  0
  -29.1549  -24.4258   21.7078 C   0  0  0  0  0  0  0  0  0  0  0  0
  -30.6283  -12.5110   19.8157 C   0  0  0  0  0  0  0  0  0  0  0  0
  -30.1014  -22.0226   20.3262 C   0  0  0  0  0  0  0  0  0  0  0  0
  -30.1093  -23.4253   22.3579 C   0  0  0  0  0  0  0  0  0  0  0  0
  -28.3112  -13.1308   20.3781 C   0  0  0  0  0  0  0  0  0  0  0  0
  -24.7881  -33.5504   18.1932 C   0  0  1  0  0  0  0  0  0  0  0  0
  -23.9931  -31.2167   21.0837 C   0  0  1  0  0  0  0  0  0  0  0  0
  -27.7621  -12.3179   19.1943 C   0  0  2  0  0  0  0  0  0  0  0  0
  -29.2714  -24.4064   20.1798 C   0  0  0  0  0  0  0  0  0  0  0  0
  -32.0225  -19.2936   22.2916 C   0  0  0  0  0  0  0  0  0  0  0  0
  -23.8723  -31.4273   29.0536 C   0  0  0  0  0  0  0  0  0  0  0  0
  -27.1749  -32.7198   23.4596 C   0  0  0  0  0  0  0  0  0  0  0  0
  -27.1526  -32.6083   25.9607 C   0  0  0  0  0  0  0  0  0  0  0  0
  -25.6016  -34.1566   24.7691 C   0  0  0  0  0  0  0  0  0  0  0  0
  -21.6392  -29.0699   27.0706 C   0  0  0  0  0  0  0  0  0  0  0  0
  -28.2585  -25.3446   19.5358 C   0  0  0  0  0  0  0  0  0  1  0  0
  -25.1670  -31.6670   24.6948 C   0  0  1  0  0  0  0  0  0  0  0  0
  -23.1543  -30.9101   27.8167 C   0  0  2  0  0  0  0  0  0  0  0  0
  -26.2679  -32.7649   24.7055 C   0  0  0  0  0  0  0  0  0  0  0  0
  -25.9804  -11.5289   20.7058 N   0  0  0  0  0  0  0  0  0  0  0  0
  -26.3492  -11.8265   19.4482 N   0  0  0  0  0  0  0  0  0  0  0  0
  -29.9350  -22.0927   21.7827 N   0  0  0  0  0  0  0  0  0  0  0  0
  -24.6938  -31.0183   22.3541 N   0  0  0  0  0  0  0  0  0  0  0  0
  -29.6761  -13.5920   20.0796 N   0  0  0  0  0  0  0  0  0  0  0  0
  -25.5635  -11.8915   17.2146 N   0  0  0  0  0  0  0  0  0  0  0  0
  -22.7719   -9.5386   18.2469 N   0  0  0  0  0  0  0  0  0  0  0  0
  -29.1138  -15.8745   20.2706 N   0  0  0  0  0  0  0  0  0  0  0  0
  -24.2022  -32.5851   19.0984 N   0  0  0  0  0  0  0  0  0  0  0  0
  -24.2762  -31.7029   25.8496 N   0  0  0  0  0  0  0  0  0  0  0  0
  -22.4103  -29.6733   28.1878 N   0  3  0  0  0  0  0  0  0  0  0  0
  -29.5392  -21.0631   23.8448 O   0  0  0  0  0  0  0  0  0  0  0  0
  -22.0799  -11.7052   18.5391 O   0  0  0  0  0  0  0  0  0  0  0  0
  -25.8220  -32.6765   20.7688 O   0  0  0  0  0  0  0  0  0  0  0  0
  -23.2572  -32.4386   23.5184 O   0  0  0  0  0  0  0  0  0  0  0  0
  -24.7111  -29.5433   26.5735 O   0  0  0  0  0  0  0  0  0  0  0  0
  -31.2857  -15.2239   19.7795 O   0  0  0  0  0  0  0  0  0  0  0  0
  -21.7502   -9.5476   25.0338 O   0  0  0  0  0  0  0  0  0  0  0  0
  -28.4150  -26.6496   20.0914 O   0  0  0  0  0  0  0  0  0  1  0  0
  -20.8213   -4.1538   25.7032 F   0  0  0  0  0  0  0  0  0  0  0  0
  -27.2151  -20.0233   21.7526 F   0  0  0  0  0  0  0  0  0  0  0  0
  -22.6408   -8.2245   27.2919 F   0  0  0  0  0  0  0  0  0  0  0  0
  -30.5161  -24.8681   19.8516 F   0  0  0  0  0  0  0  0  0  0  0  0
  1  2  1  0  0  0  0
  1  5  2  0  0  0  0
  2  6  2  0  0  0  0
  3  8  2  0  0  0  0
  3 17  1  0  0  0  0
  4  9  1  0  0  0  0
  4 17  2  0  0  0  0
  5 20  1  0  0  0  0
  6 22  1  0  0  0  0
  7 10  2  0  0  0  0
  7 21  1  0  0  0  0
  8 26  1  0  0  0  0
  9 26  2  0  0  0  0
 10 27  1  0  0  0  0
 11 12  2  0  0  0  0
 11 28  1  0  0  0  0
 12 29  1  0  0  0  0
 13 23  1  0  0  0  0
 13 27  2  0  0  0  0
 14 24  2  0  0  0  0
 14 25  1  0  0  0  0
 15 25  2  0  0  0  0
 15 30  1  0  0  0  0
 16 29  2  0  0  0  0
 16 31  1  0  0  0  0
 17 32  1  0  0  0  0
 18 24  1  0  0  0  0
 18 30  2  0  0  0  0
 18 34  1  0  0  0  0
 19 32  1  0  0  0  0
 19 33  2  0  0  0  0
 19 35  1  0  0  0  0
 20 22  2  0  0  0  0
 20 40  1  0  0  0  0
 21 23  2  0  0  0  0
 21 41  1  0  0  0  0
 22 53  1  0  0  0  0
 23 42  1  0  0  0  0
 24 57  1  0  0  0  0
 25 74  1  0  0  0  0
 26 84  1  0  0  0  0
 27 85  1  0  0  0  0
 28 31  2  0  0  0  0
 28 84  1  0  0  0  0
 29 86  1  0  0  0  0
 30 87  1  0  0  0  0
 31 88  1  0  0  0  0
 32 67  2  0  0  0  0
 33 68  1  0  0  0  0
 33 72  1  0  0  0  0
 34 69  1  0  0  0  0
 34 78  2  0  0  0  0
 35 73  1  0  0  0  0
 35 79  2  0  0  0  0
 36 54  1  0  0  0  0
 36 75  1  0  0  0  0
 36 80  2  0  0  0  0
 37 64  1  0  0  0  0
 37 70  1  0  0  0  0
 37 81  2  0  0  0  0
 38 65  1  0  0  0  0
 38 76  1  0  0  0  0
 38 82  2  0  0  0  0
 39 71  1  0  0  0  0
 39 74  1  0  0  0  0
 39 83  2  0  0  0  0
 40 43  1  0  0  0  0
 41 54  1  0  0  0  0
 42 70  1  0  0  0  0
 43 45  1  0  0  0  0
 44 46  1  0  0  0  0
 44 49  1  0  0  0  0
 45 53  1  0  0  0  0
 46 55  1  0  0  0  0
 47 50  1  0  0  0  0
 47 56  1  0  0  0  0
 48 51  1  0  0  0  0
 48 56  1  0  0  0  0
 49 71  1  0  0  0  0
 50 69  1  0  0  0  0
 51 69  1  0  0  0  0
 52 55  1  0  0  0  0
 52 71  1  0  0  0  0
 53 75  1  0  0  0  0
 54 70  1  0  0  0  0
 55 68  1  0  0  0  0
 56 63  1  0  0  0  0
 56 89  1  0  0  0  0
 58 65  1  0  0  0  0
 59 66  1  0  0  0  0
 60 66  1  0  0  0  0
 61 66  1  0  0  0  0
 62 77  1  0  0  0  0
 63 85  1  0  0  0  0
 64 66  1  0  0  0  0
 64 76  1  0  0  0  0
 65 77  1  0  0  0  0
 67 68  1  0  0  0  0
M  CHG  1  77   1
M  ISO  4  39 100  63 101  74 100  85 101
M  END
> <Batch ID>
0160

> <Smiles>
CNC(C)C(=O)NC(C(=O)N1Cc2cc([101O:1][101CH2:1]C3(F)CCN(C(=O)c4c(C)cc([100NH:0][100C:0](=O)N5CCCC(n6nc(-c7ccc(Oc8ccc(F)cc8F)cc7)c(C(N)=O)c6N)C5)cc4F)CC3)ccc2CC1C(=O)NC1CCCc2ccccc21)C(C)(C)C

> <Shape>
0.293

> <Color>
0.124

> <Negative vol penalty>
0.000

$$$$

  -OEChem-04052303503D

 86 94  0     1  0  0  0  0  0999 V2000
  -25.7227  -34.7875   23.8407 C   0  0  0  0  0  0  0  0  0  0  0  0
  -26.4373  -33.5957   23.9065 C   0  0  0  0  0  0  0  0  0  0  0  0
  -24.6389   -9.0961   21.8977 C   0  0  0  0  0  0  0  0  0  0  0  0
  -23.0559  -10.0531   20.3436 C   0  0  0  0  0  0  0  0  0  0  0  0
  -24.3604  -34.7667   23.5447 C   0  0  0  0  0  0  0  0  0  0  0  0
  -25.7897  -32.3822   23.6774 C   0  0  0  0  0  0  0  0  0  0  0  0
  -28.4377  -29.3090   20.6462 C   0  0  0  0  0  0  0  0  0  0  0  0
  -23.5973   -8.4426   22.5562 C   0  0  0  0  0  0  0  0  0  0  0  0
  -22.0143   -9.3995   21.0021 C   0  0  0  0  0  0  0  0  0  0  0  0
  -29.5089  -28.6216   21.2152 C   0  0  0  0  0  0  0  0  0  0  0  0
  -21.7002   -5.6823   22.0924 C   0  0  0  0  0  0  0  0  0  0  0  0
  -21.8875   -4.3425   22.4319 C   0  0  0  0  0  0  0  0  0  0  0  0
  -27.7945  -20.8679   21.5635 C   0  0  0  0  0  0  0  0  0  0  0  0
  -28.1354  -26.6473   21.4014 C   0  0  0  0  0  0  0  0  0  0  0  0
  -28.9361  -22.5635   19.6650 C   0  0  0  0  0  0  0  0  0  0  0  0
  -21.5840   -4.8913   24.7651 C   0  0  0  0  0  0  0  0  0  0  0  0
  -24.3682   -9.9014   20.7914 C   0  0  0  0  0  0  0  0  0  0  0  0
  -27.6197  -20.6105   20.2038 C   0  0  0  0  0  0  0  0  0  0  0  0
  -26.2069  -10.0900   19.0333 C   0  0  0  0  0  0  0  0  0  0  0  0
  -23.6978  -33.5530   23.3024 C   0  0  0  0  0  0  0  0  0  0  0  0
  -27.2019  -28.6728   20.4603 C   0  0  0  0  0  0  0  0  0  0  0  0
  -24.4170  -32.3450   23.3792 C   0  0  0  0  0  0  0  0  0  0  0  0
  -27.0508  -27.3280   20.8275 C   0  0  0  0  0  0  0  0  0  0  0  0
  -29.1108  -22.8209   21.0248 C   0  0  0  0  0  0  0  0  0  0  0  0
  -22.2850   -8.5942   22.1084 C   0  0  0  0  0  0  0  0  0  0  0  0
  -29.3570  -27.2914   21.5955 C   0  0  0  0  0  0  0  0  0  0  0  0
  -21.4549   -6.6267   23.0893 C   0  0  0  0  0  0  0  0  0  0  0  0
  -21.8294   -3.9469   23.7682 C   0  0  0  0  0  0  0  0  0  0  0  0
  -28.5400  -21.9731   21.9740 C   0  0  0  0  0  0  0  0  0  0  0  0
  -28.1905  -21.4584   19.2546 C   0  0  0  0  0  0  0  0  0  0  0  0
  -21.3968   -6.2312   24.4256 C   0  0  0  0  0  0  0  0  0  0  0  0
  -25.4436  -10.5773   20.1111 C   0  0  0  0  0  0  0  0  0  0  0  0
  -27.0920  -11.1025   18.7540 C   0  0  0  0  0  0  0  0  0  0  0  0
  -26.8284  -19.4395   19.7719 C   0  0  0  0  0  0  0  0  0  0  0  0
  -26.1234   -8.8345   18.3460 C   0  0  0  0  0  0  0  0  0  0  0  0
  -24.2529  -29.1380   21.5514 C   0  0  0  0  0  0  0  0  0  0  0  0
  -23.5234  -26.7693   19.4586 C   0  0  0  0  0  0  0  0  0  0  0  0
  -24.5733  -24.0604   17.6680 C   0  0  0  0  0  0  0  0  0  0  0  0
  -26.6056  -16.9649   19.8313 C   0  0  0  0  0  0  0  0  0  0  0  0
  -22.2141  -33.5772   23.0327 C   0  0  0  0  0  0  0  0  0  0  0  0
  -26.0641  -29.4202   19.8206 C   0  0  0  0  0  0  0  0  0  0  0  0
  -25.7508  -26.5935   20.6305 C   0  0  0  0  0  0  0  0  0  0  0  0
  -21.6826  -32.2775   22.4340 C   0  0  0  0  0  0  0  0  0  0  0  0
  -29.4129  -14.7332   20.7782 C   0  0  0  0  0  0  0  0  0  0  0  0
  -22.2256  -31.0755   23.2002 C   0  0  0  0  0  0  0  0  0  0  0  0
  -28.7365  -13.3698   20.6876 C   0  0  0  0  0  0  0  0  0  0  0  0
  -28.4401  -15.8339   21.1992 C   0  0  0  0  0  0  0  0  0  0  0  0
  -26.5471  -14.5394   20.2417 C   0  0  0  0  0  0  0  0  0  0  0  0
  -23.7552  -31.0105   23.1125 C   0  0  1  0  0  0  0  0  0  0  0  0
  -24.6983  -28.8261   20.1507 C   0  0  1  0  0  0  0  0  0  0  0  0
  -27.5092  -13.4406   19.7678 C   0  0  2  0  0  0  0  0  0  0  0  0
  -23.7404  -22.3076   16.0770 C   0  0  0  0  0  0  0  0  0  0  0  0
  -22.1887  -25.3024   21.7774 C   0  0  0  0  0  0  0  0  0  0  0  0
  -22.2312  -23.2177   20.3917 C   0  0  0  0  0  0  0  0  0  0  0  0
  -20.9321  -25.2015   19.6175 C   0  0  0  0  0  0  0  0  0  0  0  0
  -32.3487  -25.2593   22.1264 C   0  0  0  0  0  0  0  0  0  0  0  0
  -31.9241  -26.9408   20.3200 C   0  0  0  0  0  0  0  0  0  0  0  0
  -26.4232  -24.9507   15.5363 C   0  0  0  0  0  0  0  0  0  0  0  0
  -30.4757  -24.8458   20.5127 C   0  0  0  0  0  0  0  0  0  0  0  0
  -23.4581  -25.2628   19.5295 C   0  0  1  0  0  0  0  0  0  0  0  0
  -24.3813  -23.6802   16.2110 C   0  0  2  0  0  0  0  0  0  0  0  0
  -22.2266  -24.7602   20.3346 C   0  0  0  0  0  0  0  0  0  0  0  0
  -31.2740  -25.9240   21.2619 C   0  0  0  0  0  0  0  0  0  1  0  0
  -25.8116  -11.8038   20.4908 N   0  0  0  0  0  0  0  0  0  0  0  0
  -26.8160  -12.0958   19.6469 N   0  0  0  0  0  0  0  0  0  0  0  0
  -24.6660  -27.3692   20.0068 N   0  0  0  0  0  0  0  0  0  0  0  0
  -27.2198  -15.8355   20.3806 N   0  0  0  0  0  0  0  0  0  0  0  0
  -28.0717  -11.2311   17.8342 N   0  0  0  0  0  0  0  0  0  0  0  0
  -25.1569   -7.9084   18.7614 N   0  0  0  0  0  0  0  0  0  0  0  0
  -29.8513  -23.9185   21.4296 N   0  0  0  0  0  0  0  0  0  0  0  0
  -27.2451  -18.2223   20.1540 N   0  0  0  0  0  0  0  0  0  0  0  0
  -24.1660  -30.4894   21.8263 N   0  0  0  0  0  0  0  0  0  0  0  0
  -23.5055  -24.7869   18.1512 N   0  0  0  0  0  0  0  0  0  0  0  0
  -25.7497  -19.6664   19.0227 N   0  3  0  0  0  0  0  0  0  0  0  0
  -25.6933  -23.6572   15.5044 N   0  3  0  0  0  0  0  0  0  0  0  0
  -26.8942   -8.5359   17.4025 O   0  0  0  0  0  0  0  0  0  0  0  0
  -24.0049  -28.2205   22.3250 O   0  0  0  0  0  0  0  0  0  0  0  0
  -22.5982  -27.3906   18.9298 O   0  0  0  0  0  0  0  0  0  0  0  0
  -25.5690  -23.7415   18.3141 O   0  0  0  0  0  0  0  0  0  0  0  0
  -25.5870  -16.9619   19.1485 O   0  0  0  0  0  0  0  0  0  0  0  0
  -21.2685   -7.9564   22.7506 O   0  0  0  0  0  0  0  0  0  0  0  0
  -30.4009  -26.6184   22.1517 O   0  0  0  0  0  0  0  0  0  1  0  0
  -22.0077   -2.6599   24.0940 F   0  0  0  0  0  0  0  0  0  0  0  0
  -28.7024  -22.2104   23.2834 F   0  0  0  0  0  0  0  0  0  0  0  0
  -28.0286  -21.2189   17.9456 F   0  0  0  0  0  0  0  0  0  0  0  0
  -21.1603   -7.1337   25.3876 F   0  0  0  0  0  0  0  0  0  0  0  0
  1  2  1  0  0  0  0
  1  5  2  0  0  0  0
  2  6  2  0  0  0  0
  3  8  2  0  0  0  0
  3 17  1  0  0  0  0
  4  9  1  0  0  0  0
  4 17  2  0  0  0  0
  5 20  1  0  0  0  0
  6 22  1  0  0  0  0
  7 10  2  0  0  0  0
  7 21  1  0  0  0  0
  8 25  1  0  0  0  0
  9 25  2  0  0  0  0
 10 26  1  0  0  0  0
 11 12  2  0  0  0  0
 11 27  1  0  0  0  0
 12 28  1  0  0  0  0
 13 18  2  0  0  0  0
 13 29  1  0  0  0  0
 14 23  1  0  0  0  0
 14 26  2  0  0  0  0
 15 24  1  0  0  0  0
 15 30  2  0  0  0  0
 16 28  2  0  0  0  0
 16 31  1  0  0  0  0
 17 32  1  0  0  0  0
 18 30  1  0  0  0  0
 18 34  1  0  0  0  0
 19 32  1  0  0  0  0
 19 33  2  0  0  0  0
 19 35  1  0  0  0  0
 20 22  2  0  0  0  0
 20 40  1  0  0  0  0
 21 23  2  0  0  0  0
 21 41  1  0  0  0  0
 22 49  1  0  0  0  0
 23 42  1  0  0  0  0
 24 29  2  0  0  0  0
 24 70  1  0  0  0  0
 25 81  1  0  0  0  0
 26 82  1  0  0  0  0
 27 31  2  0  0  0  0
 27 81  1  0  0  0  0
 28 83  1  0  0  0  0
 29 84  1  0  0  0  0
 30 85  1  0  0  0  0
 31 86  1  0  0  0  0
 32 64  2  0  0  0  0
 33 65  1  0  0  0  0
 33 68  1  0  0  0  0
 34 71  1  0  0  0  0
 34 74  2  0  0  0  0
 35 69  1  0  0  0  0
 35 76  2  0  0  0  0
 36 50  1  0  0  0  0
 36 72  1  0  0  0  0
 36 77  2  0  0  0  0
 37 60  1  0  0  0  0
 37 66  1  0  0  0  0
 37 78  2  0  0  0  0
 38 61  1  0  0  0  0
 38 73  1  0  0  0  0
 38 79  2  0  0  0  0
 39 67  1  0  0  0  0
 39 71  1  0  0  0  0
 39 80  2  0  0  0  0
 40 43  1  0  0  0  0
 41 50  1  0  0  0  0
 42 66  1  0  0  0  0
 43 45  1  0  0  0  0
 44 46  1  0  0  0  0
 44 47  1  0  0  0  0
 45 49  1  0  0  0  0
 46 51  1  0  0  0  0
 47 67  1  0  0  0  0
 48 51  1  0  0  0  0
 48 67  1  0  0  0  0
 49 72  1  0  0  0  0
 50 66  1  0  0  0  0
 51 65  1  0  0  0  0
 52 61  1  0  0  0  0
 53 62  1  0  0  0  0
 54 62  1  0  0  0  0
 55 62  1  0  0  0  0
 56 63  1  0  0  0  0
 57 63  1  0  0  0  0
 58 75  1  0  0  0  0
 59 63  1  0  0  0  0
 59 70  1  0  0  0  0
 60 62  1  0  0  0  0
 60 73  1  0  0  0  0
 61 75  1  0  0  0  0
 63 82  1  0  0  0  0
 64 65  1  0  0  0  0
M  CHG  2  74   1  75   1
M  ISO  4  39 100  63 101  71 100  82 101
M  END
> <Batch ID>
0160

> <Smiles>
CNC(C)C(=O)NC(C(=O)N1Cc2cc([101O:1][101C:1](C)(C)CNc3cc(F)c(C(=N)[100NH:0][100C:0](=O)N4CCCC(n5nc(-c6ccc(Oc7ccc(F)cc7F)cc6)c(C(N)=O)c5N)C4)cc3F)ccc2CC1C(=O)NC1CCCc2ccccc21)C(C)(C)C

> <Shape>
0.297

> <Color>
0.076

> <Negative vol penalty>
0.000

$$$$

  -OEChem-04052303503D

 85 94  0     1  0  0  0  0  0999 V2000
  -26.1824  -38.0568   20.4537 C   0  0  0  0  0  0  0  0  0  0  0  0
  -26.8573  -36.9910   21.0403 C   0  0  0  0  0  0  0  0  0  0  0  0
  -23.0321  -10.4054   20.7173 C   0  0  0  0  0  0  0  0  0  0  0  0
  -24.7046   -8.7537   21.2755 C   0  0  0  0  0  0  0  0  0  0  0  0
  -24.7902  -38.1114   20.5039 C   0  0  0  0  0  0  0  0  0  0  0  0
  -26.1402  -35.9796   21.6785 C   0  0  0  0  0  0  0  0  0  0  0  0
  -26.7127  -29.1204   19.5539 C   0  0  0  0  0  0  0  0  0  0  0  0
  -22.1811   -9.8706   21.6845 C   0  0  0  0  0  0  0  0  0  0  0  0
  -23.8536   -8.2189   22.2427 C   0  0  0  0  0  0  0  0  0  0  0  0
  -26.9291  -27.7584   19.3433 C   0  0  0  0  0  0  0  0  0  0  0  0
  -21.1602   -6.1775   22.3370 C   0  0  0  0  0  0  0  0  0  0  0  0
  -21.0314   -4.7897   22.3909 C   0  0  0  0  0  0  0  0  0  0  0  0
  -25.2602  -27.2246   21.0099 C   0  0  0  0  0  0  0  0  0  0  0  0
  -21.8528   -4.8017   24.6629 C   0  0  0  0  0  0  0  0  0  0  0  0
  -29.7002  -19.0188   20.3323 C   0  0  0  0  0  0  0  0  0  0  0  0
  -24.2939   -9.8469   20.5128 C   0  0  0  0  0  0  0  0  0  0  0  0
  -24.9289  -10.5040   18.1310 C   0  0  0  0  0  0  0  0  0  0  0  0
  -24.0552  -37.0952   21.1347 C   0  0  0  0  0  0  0  0  0  0  0  0
  -25.7570  -29.5401   20.4834 C   0  0  0  0  0  0  0  0  0  0  0  0
  -24.7368  -36.0213   21.7384 C   0  0  0  0  0  0  0  0  0  0  0  0
  -25.0301  -28.5874   21.2162 C   0  0  0  0  0  0  0  0  0  0  0  0
  -22.5919   -8.7774   22.4472 C   0  0  0  0  0  0  0  0  0  0  0  0
  -26.2048  -26.8129   20.0697 C   0  0  0  0  0  0  0  0  0  0  0  0
  -21.6353   -6.8775   23.4460 C   0  0  0  0  0  0  0  0  0  0  0  0
  -21.3777   -4.1018   23.5538 C   0  0  0  0  0  0  0  0  0  0  0  0
  -21.9816   -6.1896   24.6090 C   0  0  0  0  0  0  0  0  0  0  0  0
  -25.1731  -10.3986   19.5134 C   0  0  0  0  0  0  0  0  0  0  0  0
  -28.3352  -19.1795   20.4459 C   0  0  0  0  0  0  0  0  0  0  0  0
  -26.0622  -11.0931   17.6261 C   0  0  0  0  0  0  0  0  0  0  0  0
  -29.1111  -16.9083   20.2409 C   0  0  0  0  0  0  0  0  0  0  0  0
  -23.7803  -10.1051   17.3713 C   0  0  0  0  0  0  0  0  0  0  0  0
  -24.0131  -32.4201   22.1387 C   0  0  0  0  0  0  0  0  0  0  0  0
  -21.8832  -30.2790   21.6005 C   0  0  0  0  0  0  0  0  0  0  0  0
  -19.0063  -28.5672   20.9446 C   0  0  0  0  0  0  0  0  0  0  0  0
  -30.2206  -14.6579   20.0149 C   0  0  0  0  0  0  0  0  0  0  0  0
  -22.5539  -37.2218   21.2048 C   0  0  0  0  0  0  0  0  0  0  0  0
  -25.5343  -30.9967   20.7871 C   0  0  0  0  0  0  0  0  0  0  0  0
  -24.0370  -29.0852   22.2304 C   0  0  0  0  0  0  0  0  0  0  0  0
  -21.8494  -35.9188   21.5739 C   0  0  0  0  0  0  0  0  0  0  0  0
  -30.7604  -11.5006   18.4601 C   0  0  0  0  0  0  0  0  0  0  0  0
  -22.5424  -35.2545   22.7593 C   0  0  0  0  0  0  0  0  0  0  0  0
  -27.6613  -21.3679   19.3688 C   0  0  0  0  0  0  0  0  0  0  0  0
  -27.8517  -21.2004   21.8905 C   0  0  0  0  0  0  0  0  0  0  0  0
  -29.3656  -10.8718   18.4224 C   0  0  0  0  0  0  0  0  0  0  0  0
  -26.8199  -22.6384   19.5186 C   0  0  0  0  0  0  0  0  0  0  0  0
  -27.0076  -22.4691   22.0368 C   0  0  0  0  0  0  0  0  0  0  0  0
  -30.9836  -12.3094   19.7367 C   0  0  0  0  0  0  0  0  0  0  0  0
  -28.5622  -12.6921   19.9807 C   0  0  0  0  0  0  0  0  0  0  0  0
  -23.9929  -34.8924   22.4183 C   0  0  1  0  0  0  0  0  0  0  0  0
  -27.5147  -20.4482   20.5923 C   0  0  0  0  0  0  0  0  0  0  0  0
  -24.0665  -31.3281   21.1111 C   0  0  1  0  0  0  0  0  0  0  0  0
  -28.2672  -11.9210   18.6837 C   0  0  2  0  0  0  0  0  0  0  0  0
  -27.1332  -23.3962   20.8174 C   0  0  0  0  0  0  0  0  0  0  0  0
  -16.6553  -28.2758   21.7722 C   0  0  0  0  0  0  0  0  0  0  0  0
  -22.9134  -28.5864   23.9195 C   0  0  0  0  0  0  0  0  0  0  0  0
  -20.6276  -27.5826   24.1093 C   0  0  0  0  0  0  0  0  0  0  0  0
  -20.9475  -30.0296   24.4735 C   0  0  0  0  0  0  0  0  0  0  0  0
  -17.8641  -29.5117   18.3829 C   0  0  0  0  0  0  0  0  0  0  0  0
  -28.8398  -24.5917   21.9044 C   0  0  0  0  0  0  0  0  0  0  0  0
  -26.2115  -24.6085   20.9631 C   0  0  0  0  0  0  0  0  0  1  0  0
  -21.1203  -29.0920   22.1320 C   0  0  1  0  0  0  0  0  0  0  0  0
  -17.5661  -29.0293   20.8155 C   0  0  2  0  0  0  0  0  0  0  0  0
  -21.4166  -28.8213   23.6341 C   0  0  0  0  0  0  0  0  0  0  0  0
  -30.1470  -17.7171   20.2150 N   0  0  0  0  0  0  0  0  0  0  0  0
  -26.3678  -10.8819   19.8643 N   0  0  0  0  0  0  0  0  0  0  0  0
  -26.8845  -11.2966   18.6951 N   0  0  0  0  0  0  0  0  0  0  0  0
  -23.2800  -30.2193   21.6777 N   0  0  0  0  0  0  0  0  0  0  0  0
  -29.9069  -13.2858   19.9163 N   0  0  0  0  0  0  0  0  0  0  0  0
  -26.4257  -11.4518   16.3764 N   0  0  0  0  0  0  0  0  0  0  0  0
  -23.7459   -8.8069   16.8440 N   0  0  0  0  0  0  0  0  0  0  0  0
  -29.1130  -15.4942   20.1508 N   0  0  0  0  0  0  0  0  0  0  0  0
  -24.0375  -33.6951   21.6065 N   0  0  0  0  0  0  0  0  0  0  0  0
  -19.7143  -29.3448   21.8363 N   0  0  0  0  0  0  0  0  0  0  0  0
  -17.0739  -28.8087   19.4262 N   0  3  0  0  0  0  0  0  0  0  0  0
  -22.8204  -10.8823   17.1522 O   0  0  0  0  0  0  0  0  0  0  0  0
  -23.9527  -32.1287   23.3274 O   0  0  0  0  0  0  0  0  0  0  0  0
  -21.2601  -31.2369   21.1343 O   0  0  0  0  0  0  0  0  0  0  0  0
  -19.4572  -27.6096   20.3198 O   0  0  0  0  0  0  0  0  0  0  0  0
  -31.3840  -15.0636   19.9538 O   0  0  0  0  0  0  0  0  0  0  0  0
  -21.7619   -8.2554   23.3912 O   0  0  0  0  0  0  0  0  0  0  0  0
  -26.4179  -25.4849   19.8559 O   0  0  0  0  0  0  0  0  0  1  0  0
  -28.4778  -23.8779   20.7341 O   0  0  0  0  0  0  0  0  0  0  0  0
  -21.2525   -2.7692   23.6060 F   0  0  0  0  0  0  0  0  0  0  0  0
  -22.4375   -6.8567   25.6781 F   0  0  0  0  0  0  0  0  0  0  0  0
  -27.5699  -17.6453   20.4036 S   0  0  0  0  0  0  0  0  0  0  0  0
  1  2  1  0  0  0  0
  1  5  2  0  0  0  0
  2  6  2  0  0  0  0
  3  8  2  0  0  0  0
  3 16  1  0  0  0  0
  4  9  1  0  0  0  0
  4 16  2  0  0  0  0
  5 18  1  0  0  0  0
  6 20  1  0  0  0  0
  7 10  2  0  0  0  0
  7 19  1  0  0  0  0
  8 22  1  0  0  0  0
  9 22  2  0  0  0  0
 10 23  1  0  0  0  0
 11 12  2  0  0  0  0
 11 24  1  0  0  0  0
 12 25  1  0  0  0  0
 13 21  1  0  0  0  0
 13 23  2  0  0  0  0
 14 25  2  0  0  0  0
 14 26  1  0  0  0  0
 15 28  2  0  0  0  0
 15 64  1  0  0  0  0
 16 27  1  0  0  0  0
 17 27  1  0  0  0  0
 17 29  2  0  0  0  0
 17 31  1  0  0  0  0
 18 20  2  0  0  0  0
 18 36  1  0  0  0  0
 19 21  2  0  0  0  0
 19 37  1  0  0  0  0
 20 49  1  0  0  0  0
 21 38  1  0  0  0  0
 22 80  1  0  0  0  0
 23 81  1  0  0  0  0
 24 26  2  0  0  0  0
 24 80  1  0  0  0  0
 25 83  1  0  0  0  0
 26 84  1  0  0  0  0
 27 65  2  0  0  0  0
 28 50  1  0  0  0  0
 28 85  1  0  0  0  0
 29 66  1  0  0  0  0
 29 69  1  0  0  0  0
 30 64  2  0  0  0  0
 30 71  1  0  0  0  0
 30 85  1  0  0  0  0
 31 70  1  0  0  0  0
 31 75  2  0  0  0  0
 32 51  1  0  0  0  0
 32 72  1  0  0  0  0
 32 76  2  0  0  0  0
 33 61  1  0  0  0  0
 33 67  1  0  0  0  0
 33 77  2  0  0  0  0
 34 62  1  0  0  0  0
 34 73  1  0  0  0  0
 34 78  2  0  0  0  0
 35 68  1  0  0  0  0
 35 71  1  0  0  0  0
 35 79  2  0  0  0  0
 36 39  1  0  0  0  0
 37 51  1  0  0  0  0
 38 67  1  0  0  0  0
 39 41  1  0  0  0  0
 40 44  1  0  0  0  0
 40 47  1  0  0  0  0
 41 49  1  0  0  0  0
 42 45  1  0  0  0  0
 42 50  1  0  0  0  0
 43 46  1  0  0  0  0
 43 50  1  0  0  0  0
 44 52  1  0  0  0  0
 45 53  1  0  0  0  0
 46 53  1  0  0  0  0
 47 68  1  0  0  0  0
 48 52  1  0  0  0  0
 48 68  1  0  0  0  0
 49 72  1  0  0  0  0
 51 67  1  0  0  0  0
 52 66  1  0  0  0  0
 53 60  1  0  0  0  0
 53 82  1  0  0  0  0
 54 62  1  0  0  0  0
 55 63  1  0  0  0  0
 56 63  1  0  0  0  0
 57 63  1  0  0  0  0
 58 74  1  0  0  0  0
 59 82  1  0  0  0  0
 60 81  1  0  0  0  0
 61 63  1  0  0  0  0
 61 73  1  0  0  0  0
 62 74  1  0  0  0  0
 65 66  1  0  0  0  0
M  CHG  1  74   1
M  ISO  4  35 100  60 101  71 100  81 101
M  END
> <Batch ID>
0160

> <Smiles>
CNC(C)C(=O)NC(C(=O)N1Cc2cc([101O:1][101CH2:1]C3(OC)CCC(c4cnc([100NH:0][100C:0](=O)N5CCCC(n6nc(-c7ccc(Oc8ccc(F)cc8F)cc7)c(C(N)=O)c6N)C5)s4)CC3)ccc2CC1C(=O)NC1CCCc2ccccc21)C(C)(C)C

> <Shape>
0.296

> <Color>
0.132

> <Negative vol penalty>
0.000

$$$$

  -OEChem-04052303503D

 86 95  0     1  0  0  0  0  0999 V2000
  -27.3431  -37.0746   24.0383 C   0  0  0  0  0  0  0  0  0  0  0  0
  -27.5966  -35.7497   24.3784 C   0  0  0  0  0  0  0  0  0  0  0  0
  -23.9895   -9.2384   19.6620 C   0  0  0  0  0  0  0  0  0  0  0  0
  -24.0974   -9.8351   22.0007 C   0  0  0  0  0  0  0  0  0  0  0  0
  -26.0660  -37.4559   23.6291 C   0  0  0  0  0  0  0  0  0  0  0  0
  -26.5728  -34.8054   24.3105 C   0  0  0  0  0  0  0  0  0  0  0  0
  -27.1754  -28.9766   20.1209 C   0  0  0  0  0  0  0  0  0  0  0  0
  -22.9525   -8.3471   19.9373 C   0  0  0  0  0  0  0  0  0  0  0  0
  -23.0603   -8.9438   22.2759 C   0  0  0  0  0  0  0  0  0  0  0  0
  -27.3027  -27.7306   19.5065 C   0  0  0  0  0  0  0  0  0  0  0  0
  -22.6839   -5.6085   22.6823 C   0  0  0  0  0  0  0  0  0  0  0  0
  -22.8246   -4.7726   23.7901 C   0  0  0  0  0  0  0  0  0  0  0  0
  -25.0527  -27.1561   20.1815 C   0  0  0  0  0  0  0  0  0  0  0  0
  -20.8268   -5.7229   24.7609 C   0  0  0  0  0  0  0  0  0  0  0  0
  -24.2804  -17.1869   15.9399 C   0  0  0  0  0  0  0  0  0  0  0  0
  -24.5620   -9.9824   20.6938 C   0  0  0  0  0  0  0  0  0  0  0  0
  -26.8892  -10.5994   19.8507 C   0  0  0  0  0  0  0  0  0  0  0  0
  -25.0283  -36.5140   23.5470 C   0  0  0  0  0  0  0  0  0  0  0  0
  -25.9794  -29.3234   20.7555 C   0  0  0  0  0  0  0  0  0  0  0  0
  -25.2802  -35.1748   23.9012 C   0  0  0  0  0  0  0  0  0  0  0  0
  -24.9150  -28.4075   20.7879 C   0  0  0  0  0  0  0  0  0  0  0  0
  -22.4879   -8.1998   21.2442 C   0  0  0  0  0  0  0  0  0  0  0  0
  -26.2440  -26.8226   19.5370 C   0  0  0  0  0  0  0  0  0  0  0  0
  -21.6146   -6.5017   22.6139 C   0  0  0  0  0  0  0  0  0  0  0  0
  -21.8961   -4.8298   24.8294 C   0  0  0  0  0  0  0  0  0  0  0  0
  -20.6861   -6.5588   23.6532 C   0  0  0  0  0  0  0  0  0  0  0  0
  -25.6336  -10.9029   20.4102 C   0  0  0  0  0  0  0  0  0  0  0  0
  -24.7898  -17.7383   17.0968 C   0  0  0  0  0  0  0  0  0  0  0  0
  -27.5377  -11.8084   19.7861 C   0  0  0  0  0  0  0  0  0  0  0  0
  -24.6257  -19.5706   15.9027 C   0  0  0  0  0  0  0  0  0  0  0  0
  -27.4218   -9.3374   19.4271 C   0  0  0  0  0  0  0  0  0  0  0  0
  -24.0531  -31.9167   22.6634 C   0  0  0  0  0  0  0  0  0  0  0  0
  -22.0964  -30.6337   20.6796 C   0  0  0  0  0  0  0  0  0  0  0  0
  -19.5584  -29.9671   18.4998 C   0  0  0  0  0  0  0  0  0  0  0  0
  -25.6184  -17.4577   19.4592 C   0  0  0  0  0  0  0  0  0  0  0  0
  -23.6525  -36.9828   23.1447 C   0  0  0  0  0  0  0  0  0  0  0  0
  -25.8194  -30.6305   21.4834 C   0  0  0  0  0  0  0  0  0  0  0  0
  -23.6594  -28.8103   21.5119 C   0  0  0  0  0  0  0  0  0  0  0  0
  -22.7160  -35.8471   22.7403 C   0  0  0  0  0  0  0  0  0  0  0  0
  -27.7389  -16.0706   21.9605 C   0  0  0  0  0  0  0  0  0  0  0  0
  -22.7889  -34.7089   23.7532 C   0  0  0  0  0  0  0  0  0  0  0  0
  -27.5586  -14.5602   21.7919 C   0  0  0  0  0  0  0  0  0  0  0  0
  -24.6429  -23.3034   15.9397 C   0  0  0  0  0  0  0  0  0  0  0  0
  -26.7008  -21.9266   16.4444 C   0  0  0  0  0  0  0  0  0  0  0  0
  -25.1954  -24.4472   16.7953 C   0  0  0  0  0  0  0  0  0  0  0  0
  -27.2563  -23.0667   17.3020 C   0  0  0  0  0  0  0  0  0  0  0  0
  -26.4341  -16.8278   21.7204 C   0  0  0  0  0  0  0  0  0  0  0  0
  -25.5884  -15.0193   20.2771 C   0  0  0  0  0  0  0  0  0  0  0  0
  -24.2019  -34.1164   23.8166 C   0  0  1  0  0  0  0  0  0  0  0  0
  -24.3942  -31.2039   21.3879 C   0  0  1  0  0  0  0  0  0  0  0  0
  -26.8905  -14.2193   20.4454 C   0  0  2  0  0  0  0  0  0  0  0  0
  -25.1722  -21.9495   16.4151 C   0  0  0  0  0  0  0  0  0  0  0  0
  -26.7306  -24.4409   16.8565 C   0  0  0  0  0  0  0  0  0  0  0  0
  -17.0572  -30.0360   18.3083 C   0  0  0  0  0  0  0  0  0  0  0  0
  -21.8990  -28.1258   22.4045 C   0  0  0  0  0  0  0  0  0  0  0  0
  -19.6348  -27.7123   21.4193 C   0  0  0  0  0  0  0  0  0  0  0  0
  -20.0549  -29.7789   22.7517 C   0  0  0  0  0  0  0  0  0  0  0  0
  -19.6676  -31.8861   16.2493 C   0  0  0  0  0  0  0  0  0  0  0  0
  -28.6426  -24.7377   15.5230 C   0  0  0  0  0  0  0  0  0  0  0  0
  -27.2319  -25.5413   17.7934 C   0  0  0  0  0  0  0  0  0  1  0  0
  -21.0544  -29.5709   20.4388 C   0  0  1  0  0  0  0  0  0  0  0  0
  -18.3567  -30.7895   18.0708 C   0  0  2  0  0  0  0  0  0  0  0  0
  -20.6836  -28.7995   21.7368 C   0  0  0  0  0  0  0  0  0  0  0  0
  -25.4908  -12.2028   20.6819 N   0  0  0  0  0  0  0  0  0  0  0  0
  -24.9889  -19.1050   17.0772 N   0  0  0  0  0  0  0  0  0  0  0  0
  -26.6652  -12.7268   20.2915 N   0  0  0  0  0  0  0  0  0  0  0  0
  -23.3254  -30.2085   21.1985 N   0  0  0  0  0  0  0  0  0  0  0  0
  -25.8610  -16.4576   20.4245 N   0  0  0  0  0  0  0  0  0  0  0  0
  -28.7634  -12.1649   19.3470 N   0  0  0  0  0  0  0  0  0  0  0  0
  -28.1280   -8.5638   20.3583 N   0  0  0  0  0  0  0  0  0  0  0  0
  -25.1027  -16.9826   18.2539 N   0  0  0  0  0  0  0  0  0  0  0  0
  -24.6924  -20.9033   15.5381 N   0  0  0  0  0  0  0  0  0  0  0  0
  -24.4355  -33.2444   22.6855 N   0  0  0  0  0  0  0  0  0  0  0  0
  -19.9274  -30.2416   19.7997 N   0  0  0  0  0  0  0  0  0  0  0  0
  -18.4482  -31.1232   16.6213 N   0  3  0  0  0  0  0  0  0  0  0  0
  -27.2899   -8.9159   18.2530 O   0  0  0  0  0  0  0  0  0  0  0  0
  -23.4835  -31.3083   23.5618 O   0  0  0  0  0  0  0  0  0  0  0  0
  -21.8287  -31.8104   20.4210 O   0  0  0  0  0  0  0  0  0  0  0  0
  -20.1120  -29.1592   17.7573 O   0  0  0  0  0  0  0  0  0  0  0  0
  -25.8766  -18.6445   19.6754 O   0  0  0  0  0  0  0  0  0  0  0  0
  -21.4758   -7.3303   21.5131 O   0  0  0  0  0  0  0  0  0  0  0  0
  -26.3734  -25.6097   18.9312 O   0  0  0  0  0  0  0  0  0  1  0  0
  -27.2251  -24.7266   15.5448 O   0  0  0  0  0  0  0  0  0  0  0  0
  -22.0305   -4.0260   25.8924 F   0  0  0  0  0  0  0  0  0  0  0  0
  -19.6561   -7.4140   23.5926 F   0  0  0  0  0  0  0  0  0  0  0  0
  -24.0350  -18.4206   14.7741 S   0  0  0  0  0  0  0  0  0  0  0  0
  1  2  1  0  0  0  0
  1  5  2  0  0  0  0
  2  6  2  0  0  0  0
  3  8  2  0  0  0  0
  3 16  1  0  0  0  0
  4  9  1  0  0  0  0
  4 16  2  0  0  0  0
  5 18  1  0  0  0  0
  6 20  1  0  0  0  0
  7 10  2  0  0  0  0
  7 19  1  0  0  0  0
  8 22  1  0  0  0  0
  9 22  2  0  0  0  0
 10 23  1  0  0  0  0
 11 12  2  0  0  0  0
 11 24  1  0  0  0  0
 12 25  1  0  0  0  0
 13 21  1  0  0  0  0
 13 23  2  0  0  0  0
 14 25  2  0  0  0  0
 14 26  1  0  0  0  0
 15 28  2  0  0  0  0
 15 86  1  0  0  0  0
 16 27  1  0  0  0  0
 17 27  1  0  0  0  0
 17 29  2  0  0  0  0
 17 31  1  0  0  0  0
 18 20  2  0  0  0  0
 18 36  1  0  0  0  0
 19 21  2  0  0  0  0
 19 37  1  0  0  0  0
 20 49  1  0  0  0  0
 21 38  1  0  0  0  0
 22 81  1  0  0  0  0
 23 82  1  0  0  0  0
 24 26  2  0  0  0  0
 24 81  1  0  0  0  0
 25 84  1  0  0  0  0
 26 85  1  0  0  0  0
 27 64  2  0  0  0  0
 28 65  1  0  0  0  0
 28 71  1  0  0  0  0
 29 66  1  0  0  0  0
 29 69  1  0  0  0  0
 30 65  2  0  0  0  0
 30 72  1  0  0  0  0
 30 86  1  0  0  0  0
 31 70  1  0  0  0  0
 31 76  2  0  0  0  0
 32 50  1  0  0  0  0
 32 73  1  0  0  0  0
 32 77  2  0  0  0  0
 33 61  1  0  0  0  0
 33 67  1  0  0  0  0
 33 78  2  0  0  0  0
 34 62  1  0  0  0  0
 34 74  1  0  0  0  0
 34 79  2  0  0  0  0
 35 68  1  0  0  0  0
 35 71  1  0  0  0  0
 35 80  2  0  0  0  0
 36 39  1  0  0  0  0
 37 50  1  0  0  0  0
 38 67  1  0  0  0  0
 39 41  1  0  0  0  0
 40 42  1  0  0  0  0
 40 47  1  0  0  0  0
 41 49  1  0  0  0  0
 42 51  1  0  0  0  0
 43 45  1  0  0  0  0
 43 52  1  0  0  0  0
 44 46  1  0  0  0  0
 44 52  1  0  0  0  0
 45 53  1  0  0  0  0
 46 53  1  0  0  0  0
 47 68  1  0  0  0  0
 48 51  1  0  0  0  0
 48 68  1  0  0  0  0
 49 73  1  0  0  0  0
 50 67  1  0  0  0  0
 51 66  1  0  0  0  0
 52 72  1  0  0  0  0
 53 60  1  0  0  0  0
 53 83  1  0  0  0  0
 54 62  1  0  0  0  0
 55 63  1  0  0  0  0
 56 63  1  0  0  0  0
 57 63  1  0  0  0  0
 58 75  1  0  0  0  0
 59 83  1  0  0  0  0
 60 82  1  0  0  0  0
 61 63  1  0  0  0  0
 61 74  1  0  0  0  0
 62 75  1  0  0  0  0
 64 66  1  0  0  0  0
M  CHG  1  75   1
M  ISO  4  35 100  60 101  71 100  82 101
M  END
> <Batch ID>
0160

> <Smiles>
CNC(C)C(=O)NC(C(=O)N1Cc2cc([101O:1][101CH2:1]C3(OC)CCC(Nc4nc([100NH:0][100C:0](=O)N5CCCC(n6nc(-c7ccc(Oc8ccc(F)cc8F)cc7)c(C(N)=O)c6N)C5)cs4)CC3)ccc2CC1C(=O)NC1CCCc2ccccc21)C(C)(C)C

> <Shape>
0.271

> <Color>
0.103

> <Negative vol penalty>
0.000

$$$$

  -OEChem-04052303503D

 84 92  0     1  0  0  0  0  0999 V2000
  -30.1202  -33.1276   26.6058 C   0  0  0  0  0  0  0  0  0  0  0  0
  -30.1570  -32.4466   25.3932 C   0  0  0  0  0  0  0  0  0  0  0  0
  -24.6179   -8.8579   21.6885 C   0  0  0  0  0  0  0  0  0  0  0  0
  -23.5457  -10.7735   22.6976 C   0  0  0  0  0  0  0  0  0  0  0  0
  -29.2041  -32.7520   27.5874 C   0  0  0  0  0  0  0  0  0  0  0  0
  -29.2784  -31.3887   25.1621 C   0  0  0  0  0  0  0  0  0  0  0  0
  -26.6901  -29.8512   19.8289 C   0  0  0  0  0  0  0  0  0  0  0  0
  -23.9696   -8.0181   22.5940 C   0  0  0  0  0  0  0  0  0  0  0  0
  -22.8973   -9.9336   23.6030 C   0  0  0  0  0  0  0  0  0  0  0  0
  -27.0112  -28.8877   18.8737 C   0  0  0  0  0  0  0  0  0  0  0  0
  -20.8951   -6.6627   22.9727 C   0  0  0  0  0  0  0  0  0  0  0  0
  -20.3104   -5.4990   22.4733 C   0  0  0  0  0  0  0  0  0  0  0  0
  -25.4205  -27.3749   19.8739 C   0  0  0  0  0  0  0  0  0  0  0  0
  -26.8463  -18.6420   17.9624 C   0  0  0  0  0  0  0  0  0  0  0  0
  -21.7302   -4.1703   23.9071 C   0  0  0  0  0  0  0  0  0  0  0  0
  -28.8203  -19.2924   19.1186 C   0  0  0  0  0  0  0  0  0  0  0  0
  -24.4060  -10.2357   21.7403 C   0  0  0  0  0  0  0  0  0  0  0  0
  -24.6116  -11.5107   19.5404 C   0  0  0  0  0  0  0  0  0  0  0  0
  -28.3073  -31.6953   27.3644 C   0  0  0  0  0  0  0  0  0  0  0  0
  -25.7381  -29.5794   20.8220 C   0  0  0  0  0  0  0  0  0  0  0  0
  -28.3503  -30.9978   26.1421 C   0  0  0  0  0  0  0  0  0  0  0  0
  -25.0873  -28.3375   20.8389 C   0  0  0  0  0  0  0  0  0  0  0  0
  -27.9694  -18.2826   18.6991 C   0  0  0  0  0  0  0  0  0  0  0  0
  -23.1093   -8.5559   23.5512 C   0  0  0  0  0  0  0  0  0  0  0  0
  -26.3785  -27.6482   18.8979 C   0  0  0  0  0  0  0  0  0  0  0  0
  -21.8974   -6.5803   23.9393 C   0  0  0  0  0  0  0  0  0  0  0  0
  -20.7280   -4.2528   22.9405 C   0  0  0  0  0  0  0  0  0  0  0  0
  -26.6117  -19.9814   17.6718 C   0  0  0  0  0  0  0  0  0  0  0  0
  -22.3149   -5.3341   24.4065 C   0  0  0  0  0  0  0  0  0  0  0  0
  -25.0758  -11.1038   20.8056 C   0  0  0  0  0  0  0  0  0  0  0  0
  -27.5233  -20.9152   18.1374 C   0  0  0  0  0  0  0  0  0  0  0  0
  -25.6062  -12.3242   19.0550 C   0  0  0  0  0  0  0  0  0  0  0  0
  -23.3905  -11.1827   18.8644 C   0  0  0  0  0  0  0  0  0  0  0  0
  -27.4863  -24.6445   17.6836 C   0  0  0  0  0  0  0  0  0  0  0  0
  -28.0541  -23.3558   18.2000 C   0  0  0  0  0  0  0  0  0  0  0  0
  -25.7914  -29.4170   23.9960 C   0  0  0  0  0  0  0  0  0  0  0  0
  -22.5871  -29.0567   23.6425 C   0  0  0  0  0  0  0  0  0  0  0  0
  -19.9792  -28.1202   21.6504 C   0  0  0  0  0  0  0  0  0  0  0  0
  -29.3139  -16.4219   19.7365 C   0  0  0  0  0  0  0  0  0  0  0  0
  -27.3669  -31.2949   28.4736 C   0  0  0  0  0  0  0  0  0  0  0  0
  -25.3836  -30.6390   21.8289 C   0  0  0  0  0  0  0  0  0  0  0  0
  -24.0433  -28.0034   21.8718 C   0  0  0  0  0  0  0  0  0  0  0  0
  -26.2174  -30.4058   28.0063 C   0  0  0  0  0  0  0  0  0  0  0  0
  -30.3027  -13.1551   20.7502 C   0  0  0  0  0  0  0  0  0  0  0  0
  -26.7377  -29.2899   27.1057 C   0  0  0  0  0  0  0  0  0  0  0  0
  -28.9929  -12.3637   20.7509 C   0  0  0  0  0  0  0  0  0  0  0  0
  -30.0971  -14.5925   21.2248 C   0  0  0  0  0  0  0  0  0  0  0  0
  -27.7380  -14.5449   20.5168 C   0  0  0  0  0  0  0  0  0  0  0  0
  -27.3967  -29.8610   25.8444 C   0  0  1  0  0  0  0  0  0  0  0  0
  -24.7723  -30.0696   23.1054 C   0  0  1  0  0  0  0  0  0  0  0  0
  -27.8832  -13.1099   19.9845 C   0  0  2  0  0  0  0  0  0  0  0  0
  -27.3402  -24.7789   16.1956 C   0  0  0  0  0  0  0  0  0  0  0  0
  -17.4793  -27.9014   21.6512 C   0  0  0  0  0  0  0  0  0  0  0  0
  -22.8116  -26.5255   25.3315 C   0  0  0  0  0  0  0  0  0  0  0  0
  -20.5399  -25.8624   24.5142 C   0  0  0  0  0  0  0  0  0  0  0  0
  -20.8229  -27.9513   25.8480 C   0  0  0  0  0  0  0  0  0  0  0  0
  -19.6927  -30.0596   19.4333 C   0  0  0  0  0  0  0  0  0  0  0  0
  -21.6568  -27.8815   23.4623 C   0  0  1  0  0  0  0  0  0  0  0  0
  -18.6616  -28.8021   21.3291 C   0  0  2  0  0  0  0  0  0  0  0  0
  -21.4788  -27.0604   24.7706 C   0  0  0  0  0  0  0  0  0  0  0  0
  -28.6256  -20.6041   18.8558 N   0  0  0  0  0  0  0  0  0  0  0  0
  -26.2723  -11.6164   21.1052 N   0  0  0  0  0  0  0  0  0  0  0  0
  -27.1903  -25.5394   18.5710 N   0  0  0  0  0  0  0  0  0  1  0  0
  -26.5684  -12.3536   20.0212 N   0  0  0  0  0  0  0  0  0  0  0  0
  -23.7358  -29.0702   22.8387 N   0  0  0  0  0  0  0  0  0  0  0  0
  -29.0343  -15.2377   20.4510 N   0  0  0  0  0  0  0  0  0  0  0  0
  -25.7429  -13.0099   17.9002 N   0  0  0  0  0  0  0  0  0  0  0  0
  -22.4788  -10.3334   19.5061 N   0  0  0  0  0  0  0  0  0  0  0  0
  -28.2348  -16.9262   19.0114 N   0  0  0  0  0  0  0  0  0  0  0  0
  -27.2789  -22.2753   17.8374 N   0  0  0  0  0  0  0  0  0  0  0  0
  -26.3895  -30.2806   24.8937 N   0  0  0  0  0  0  0  0  0  0  0  0
  -20.4142  -28.4234   22.9232 N   0  0  0  0  0  0  0  0  0  0  0  0
  -18.6013  -29.1576   19.8831 N   0  3  0  0  0  0  0  0  0  0  0  0
  -23.1233  -11.6164   17.7181 O   0  0  0  0  0  0  0  0  0  0  0  0
  -29.0923  -23.4271   18.8357 O   0  0  0  0  0  0  0  0  0  0  0  0
  -26.0173  -28.2183   23.8785 O   0  0  0  0  0  0  0  0  0  0  0  0
  -22.3013  -29.9341   24.4611 O   0  0  0  0  0  0  0  0  0  0  0  0
  -20.5622  -27.3885   20.8534 O   0  0  0  0  0  0  0  0  0  0  0  0
  -30.4359  -16.9347   19.7440 O   0  0  0  0  0  0  0  0  0  0  0  0
  -22.4763   -7.7366   24.4348 O   0  0  0  0  0  0  0  0  0  0  0  0
  -26.6905  -26.7057   17.9671 O   0  0  0  0  0  0  0  0  0  1  0  0
  -20.1653   -3.1354   22.4619 F   0  0  0  0  0  0  0  0  0  0  0  0
  -25.5357  -20.3419   16.9610 F   0  0  0  0  0  0  0  0  0  0  0  0
  -23.2766   -5.2486   25.3360 F   0  0  0  0  0  0  0  0  0  0  0  0
  1  2  1  0  0  0  0
  1  5  2  0  0  0  0
  2  6  2  0  0  0  0
  3  8  2  0  0  0  0
  3 17  1  0  0  0  0
  4  9  1  0  0  0  0
  4 17  2  0  0  0  0
  5 19  1  0  0  0  0
  6 21  1  0  0  0  0
  7 10  2  0  0  0  0
  7 20  1  0  0  0  0
  8 24  1  0  0  0  0
  9 24  2  0  0  0  0
 10 25  1  0  0  0  0
 11 12  2  0  0  0  0
 11 26  1  0  0  0  0
 12 27  1  0  0  0  0
 13 22  1  0  0  0  0
 13 25  2  0  0  0  0
 14 23  2  0  0  0  0
 14 28  1  0  0  0  0
 15 27  2  0  0  0  0
 15 29  1  0  0  0  0
 16 23  1  0  0  0  0
 16 61  2  0  0  0  0
 17 30  1  0  0  0  0
 18 30  1  0  0  0  0
 18 32  2  0  0  0  0
 18 33  1  0  0  0  0
 19 21  2  0  0  0  0
 19 40  1  0  0  0  0
 20 22  2  0  0  0  0
 20 41  1  0  0  0  0
 21 49  1  0  0  0  0
 22 42  1  0  0  0  0
 23 69  1  0  0  0  0
 24 80  1  0  0  0  0
 25 81  1  0  0  0  0
 26 29  2  0  0  0  0
 26 80  1  0  0  0  0
 27 82  1  0  0  0  0
 28 31  2  0  0  0  0
 28 83  1  0  0  0  0
 29 84  1  0  0  0  0
 30 62  2  0  0  0  0
 31 61  1  0  0  0  0
 31 70  1  0  0  0  0
 32 64  1  0  0  0  0
 32 67  1  0  0  0  0
 33 68  1  0  0  0  0
 33 74  2  0  0  0  0
 34 35  1  0  0  0  0
 34 52  1  0  0  0  0
 34 63  2  0  0  0  0
 35 70  1  0  0  0  0
 35 75  2  0  0  0  0
 36 50  1  0  0  0  0
 36 71  1  0  0  0  0
 36 76  2  0  0  0  0
 37 58  1  0  0  0  0
 37 65  1  0  0  0  0
 37 77  2  0  0  0  0
 38 59  1  0  0  0  0
 38 72  1  0  0  0  0
 38 78  2  0  0  0  0
 39 66  1  0  0  0  0
 39 69  1  0  0  0  0
 39 79  2  0  0  0  0
 40 43  1  0  0  0  0
 41 50  1  0  0  0  0
 42 65  1  0  0  0  0
 43 45  1  0  0  0  0
 44 46  1  0  0  0  0
 44 47  1  0  0  0  0
 45 49  1  0  0  0  0
 46 51  1  0  0  0  0
 47 66  1  0  0  0  0
 48 51  1  0  0  0  0
 48 66  1  0  0  0  0
 49 71  1  0  0  0  0
 50 65  1  0  0  0  0
 51 64  1  0  0  0  0
 53 59  1  0  0  0  0
 54 60  1  0  0  0  0
 55 60  1  0  0  0  0
 56 60  1  0  0  0  0
 57 73  1  0  0  0  0
 58 60  1  0  0  0  0
 58 72  1  0  0  0  0
 59 73  1  0  0  0  0
 62 64  1  0  0  0  0
 63 81  1  0  0  0  0
M  CHG  1  73   1
M  ISO  4  39 100  63 101  69 100  81 101
M  END
> <Batch ID>
0160

> <Smiles>
CNC(C)C(=O)NC(C(=O)N1Cc2cc([101O:1][101N:1]=C(C)C(=O)Nc3ncc([100NH:0][100C:0](=O)N4CCCC(n5nc(-c6ccc(Oc7ccc(F)cc7F)cc6)c(C(N)=O)c5N)C4)cc3F)ccc2CC1C(=O)NC1CCCc2ccccc21)C(C)(C)C

> <Shape>
0.278

> <Color>
0.090

> <Negative vol penalty>
0.000

$$$$

  -OEChem-04052303503D

 82 91  0     1  0  0  0  0  0999 V2000
  -19.3775  -24.1030   23.1552 C   0  0  0  0  0  0  0  0  0  0  0  0
  -20.5407  -24.2999   22.4179 C   0  0  0  0  0  0  0  0  0  0  0  0
  -26.1959  -13.0096   21.4475 C   0  0  0  0  0  0  0  0  0  0  0  0
  -26.1224  -13.5450   19.0927 C   0  0  0  0  0  0  0  0  0  0  0  0
  -18.5761  -25.1922   23.4948 C   0  0  0  0  0  0  0  0  0  0  0  0
  -20.9026  -25.5861   22.0188 C   0  0  0  0  0  0  0  0  0  0  0  0
  -25.8193  -26.5410   22.7668 C   0  0  0  0  0  0  0  0  0  0  0  0
  -25.0163  -12.2766   21.3177 C   0  0  0  0  0  0  0  0  0  0  0  0
  -24.9428  -12.8120   18.9629 C   0  0  0  0  0  0  0  0  0  0  0  0
  -26.7188  -26.0093   21.8437 C   0  0  0  0  0  0  0  0  0  0  0  0
  -24.0907   -9.2252   20.1931 C   0  0  0  0  0  0  0  0  0  0  0  0
  -24.0351   -7.9727   20.8045 C   0  0  0  0  0  0  0  0  0  0  0  0
  -28.2374  -22.6924   17.8129 C   0  0  0  0  0  0  0  0  0  0  0  0
  -26.8491  -28.1529   20.7450 C   0  0  0  0  0  0  0  0  0  0  0  0
  -27.7165  -22.9670   15.4698 C   0  0  0  0  0  0  0  0  0  0  0  0
  -28.4521  -20.8208   16.3003 C   0  0  0  0  0  0  0  0  0  0  0  0
  -22.1638   -8.7093   22.1434 C   0  0  0  0  0  0  0  0  0  0  0  0
  -26.7489  -13.6438   20.3350 C   0  0  0  0  0  0  0  0  0  0  0  0
  -29.2841  -13.9271   20.3193 C   0  0  0  0  0  0  0  0  0  0  0  0
  -18.9334  -26.4935   23.1080 C   0  0  0  0  0  0  0  0  0  0  0  0
  -25.4189  -27.8820   22.6792 C   0  0  0  0  0  0  0  0  0  0  0  0
  -20.1045  -26.6935   22.3524 C   0  0  0  0  0  0  0  0  0  0  0  0
  -27.8186  -23.4993   16.7551 C   0  0  0  0  0  0  0  0  0  0  0  0
  -25.9464  -28.6998   21.6697 C   0  0  0  0  0  0  0  0  0  0  0  0
  -28.5542  -21.3531   17.5855 C   0  0  0  0  0  0  0  0  0  0  0  0
  -24.3897  -12.1778   20.0754 C   0  0  0  0  0  0  0  0  0  0  0  0
  -27.2316  -26.8145   20.8309 C   0  0  0  0  0  0  0  0  0  0  0  0
  -23.1828  -10.2198   20.5568 C   0  0  0  0  0  0  0  0  0  0  0  0
  -23.0717   -7.7148   21.7796 C   0  0  0  0  0  0  0  0  0  0  0  0
  -28.0332  -21.6277   15.2424 C   0  0  0  0  0  0  0  0  0  0  0  0
  -22.2194   -9.9618   21.5320 C   0  0  0  0  0  0  0  0  0  0  0  0
  -27.9672  -14.4016   20.4686 C   0  0  0  0  0  0  0  0  0  0  0  0
  -30.0734  -15.0285   20.5442 C   0  0  0  0  0  0  0  0  0  0  0  0
  -29.7521  -12.6088   20.0054 C   0  0  0  0  0  0  0  0  0  0  0  0
  -22.6482  -29.3702   22.2183 C   0  0  0  0  0  0  0  0  0  0  0  0
  -24.4234  -32.0238   22.7924 C   0  0  0  0  0  0  0  0  0  0  0  0
  -27.4966  -33.5078   22.8005 C   0  0  0  0  0  0  0  0  0  0  0  0
  -29.1349  -20.9041   19.9954 C   0  0  0  0  0  0  0  0  0  0  0  0
  -18.0107  -27.6340   23.4580 C   0  0  0  0  0  0  0  0  0  0  0  0
  -24.4684  -28.4474   23.6986 C   0  0  0  0  0  0  0  0  0  0  0  0
  -25.5640  -30.1512   21.5442 C   0  0  0  0  0  0  0  0  0  0  0  0
  -18.6605  -29.0082   23.3177 C   0  0  0  0  0  0  0  0  0  0  0  0
  -30.1242  -19.1721   22.9447 C   0  0  0  0  0  0  0  0  0  0  0  0
  -19.4133  -29.1102   21.9949 C   0  0  0  0  0  0  0  0  0  0  0  0
  -29.8088  -17.7083   22.6285 C   0  0  0  0  0  0  0  0  0  0  0  0
  -28.1694  -25.9950   16.1778 C   0  0  0  0  0  0  0  0  0  0  0  0
  -29.0810  -20.1178   22.3520 C   0  0  0  0  0  0  0  0  0  0  0  0
  -28.5165  -18.4815   20.5990 C   0  0  0  0  0  0  0  0  0  0  0  0
  -27.4819  -24.9232   16.9956 C   0  0  2  0  0  0  0  0  0  0  0  0
  -20.5436  -28.0764   21.9224 C   0  0  1  0  0  0  0  0  0  0  0  0
  -23.7341  -29.6907   23.2061 C   0  0  1  0  0  0  0  0  0  0  0  0
  -28.5168  -25.8307   17.6274 C   0  0  2  0  0  0  0  0  0  0  0  0
  -29.5746  -17.4954   21.1201 C   0  0  2  0  0  0  0  0  0  0  0  0
  -28.6261  -35.6961   23.2827 C   0  0  0  0  0  0  0  0  0  0  0  0
  -23.3759  -33.1430   20.1543 C   0  0  0  0  0  0  0  0  0  0  0  0
  -25.2163  -34.8389   20.2232 C   0  0  0  0  0  0  0  0  0  0  0  0
  -23.4873  -34.8035   22.0210 C   0  0  0  0  0  0  0  0  0  0  0  0
  -29.1578  -32.3119   24.9381 C   0  0  0  0  0  0  0  0  0  0  0  0
  -28.1016  -26.8633   18.6181 C   0  0  0  0  0  0  0  0  0  1  0  0
  -25.2309  -32.9744   21.9421 C   0  0  1  0  0  0  0  0  0  0  0  0
  -28.2069  -34.3475   23.8468 C   0  0  2  0  0  0  0  0  0  0  0  0
  -24.3335  -33.9121   21.0861 C   0  0  0  0  0  0  0  0  0  0  0  0
  -27.9185  -15.7029   20.7655 N   0  0  0  0  0  0  0  0  0  0  0  0
  -29.2147  -16.0556   20.8047 N   0  0  0  0  0  0  0  0  0  0  0  0
  -24.6267  -30.6559   22.5612 N   0  0  0  0  0  0  0  0  0  0  0  0
  -28.9155  -19.8609   20.9197 N   0  0  0  0  0  0  0  0  0  0  0  0
  -31.4113  -15.2088   20.5427 N   0  0  0  0  0  0  0  0  0  0  0  0
  -28.8063  -11.5941   19.8050 N   0  0  0  0  0  0  0  0  0  0  0  0
  -28.9798  -20.5333   18.6600 N   0  0  0  0  0  0  0  0  0  0  0  0
  -21.6794  -28.5136   22.7054 N   0  0  0  0  0  0  0  0  0  0  0  0
  -26.1290  -33.6752   22.8536 N   0  0  0  0  0  0  0  0  0  0  0  0
  -29.4258  -33.6433   24.3360 N   0  3  0  0  0  0  0  0  0  0  0  0
  -30.9734  -12.3349   19.9217 O   0  0  0  0  0  0  0  0  0  0  0  0
  -22.6856  -29.8647   21.0977 O   0  0  0  0  0  0  0  0  0  0  0  0
  -23.6463  -32.4780   23.6359 O   0  0  0  0  0  0  0  0  0  0  0  0
  -28.0953  -32.7792   22.0123 O   0  0  0  0  0  0  0  0  0  0  0  0
  -29.4647  -22.0356   20.3600 O   0  0  0  0  0  0  0  0  0  0  0  0
  -23.2388  -11.4624   19.9483 O   0  0  0  0  0  0  0  0  0  0  0  0
  -28.1092  -26.2978   19.9283 O   0  0  0  0  0  0  0  0  0  1  0  0
  -23.0174   -6.5115   22.3656 F   0  0  0  0  0  0  0  0  0  0  0  0
  -27.9357  -21.1168   14.0080 F   0  0  0  0  0  0  0  0  0  0  0  0
  -21.3438  -10.9130   21.8847 F   0  0  0  0  0  0  0  0  0  0  0  0
  1  2  1  0  0  0  0
  1  5  2  0  0  0  0
  2  6  2  0  0  0  0
  3  8  2  0  0  0  0
  3 18  1  0  0  0  0
  4  9  1  0  0  0  0
  4 18  2  0  0  0  0
  5 20  1  0  0  0  0
  6 22  1  0  0  0  0
  7 10  2  0  0  0  0
  7 21  1  0  0  0  0
  8 26  1  0  0  0  0
  9 26  2  0  0  0  0
 10 27  1  0  0  0  0
 11 12  2  0  0  0  0
 11 28  1  0  0  0  0
 12 29  1  0  0  0  0
 13 23  2  0  0  0  0
 13 25  1  0  0  0  0
 14 24  1  0  0  0  0
 14 27  2  0  0  0  0
 15 23  1  0  0  0  0
 15 30  2  0  0  0  0
 16 25  2  0  0  0  0
 16 30  1  0  0  0  0
 17 29  2  0  0  0  0
 17 31  1  0  0  0  0
 18 32  1  0  0  0  0
 19 32  1  0  0  0  0
 19 33  2  0  0  0  0
 19 34  1  0  0  0  0
 20 22  2  0  0  0  0
 20 39  1  0  0  0  0
 21 24  2  0  0  0  0
 21 40  1  0  0  0  0
 22 50  1  0  0  0  0
 23 49  1  0  0  0  0
 24 41  1  0  0  0  0
 25 69  1  0  0  0  0
 26 78  1  0  0  0  0
 27 79  1  0  0  0  0
 28 31  2  0  0  0  0
 28 78  1  0  0  0  0
 29 80  1  0  0  0  0
 30 81  1  0  0  0  0
 31 82  1  0  0  0  0
 32 63  2  0  0  0  0
 33 64  1  0  0  0  0
 33 67  1  0  0  0  0
 34 68  1  0  0  0  0
 34 73  2  0  0  0  0
 35 51  1  0  0  0  0
 35 70  1  0  0  0  0
 35 74  2  0  0  0  0
 36 60  1  0  0  0  0
 36 65  1  0  0  0  0
 36 75  2  0  0  0  0
 37 61  1  0  0  0  0
 37 71  1  0  0  0  0
 37 76  2  0  0  0  0
 38 66  1  0  0  0  0
 38 69  1  0  0  0  0
 38 77  2  0  0  0  0
 39 42  1  0  0  0  0
 40 51  1  0  0  0  0
 41 65  1  0  0  0  0
 42 44  1  0  0  0  0
 43 45  1  0  0  0  0
 43 47  1  0  0  0  0
 44 50  1  0  0  0  0
 45 53  1  0  0  0  0
 46 49  1  0  0  0  0
 46 52  1  0  0  0  0
 47 66  1  0  0  0  0
 48 53  1  0  0  0  0
 48 66  1  0  0  0  0
 49 52  1  0  0  0  0
 50 70  1  0  0  0  0
 51 65  1  0  0  0  0
 52 59  1  0  0  0  0
 53 64  1  0  0  0  0
 54 61  1  0  0  0  0
 55 62  1  0  0  0  0
 56 62  1  0  0  0  0
 57 62  1  0  0  0  0
 58 72  1  0  0  0  0
 59 79  1  0  0  0  0
 60 62  1  0  0  0  0
 60 71  1  0  0  0  0
 61 72  1  0  0  0  0
 63 64  1  0  0  0  0
M  CHG  1  72   1
M  ISO  4  38 100  59 101  69 100  79 101
M  END
> <Batch ID>
0160

> <Smiles>
CNC(C)C(=O)NC(C(=O)N1Cc2cc([101O:1][101CH2:1]C3CC3c3cc(F)cc([100NH:0][100C:0](=O)N4CCCC(n5nc(-c6ccc(Oc7ccc(F)cc7F)cc6)c(C(N)=O)c5N)C4)c3)ccc2CC1C(=O)NC1CCCc2ccccc21)C(C)(C)C

> <Shape>
0.302

> <Color>
0.111

> <Negative vol penalty>
0.000

$$$$

  -OEChem-04052303503D

 83 92  0     1  0  0  0  0  0999 V2000
  -16.1749  -26.0734   24.8132 C   0  0  0  0  0  0  0  0  0  0  0  0
  -17.1023  -25.6474   23.8677 C   0  0  0  0  0  0  0  0  0  0  0  0
  -22.9451  -10.1348   19.9430 C   0  0  0  0  0  0  0  0  0  0  0  0
  -24.5306   -9.2211   21.5206 C   0  0  0  0  0  0  0  0  0  0  0  0
  -16.0442  -27.4322   25.0968 C   0  0  0  0  0  0  0  0  0  0  0  0
  -17.8988  -26.5802   23.2044 C   0  0  0  0  0  0  0  0  0  0  0  0
  -22.7508  -25.1543   22.9415 C   0  0  0  0  0  0  0  0  0  0  0  0
  -21.8927   -9.6884   20.7421 C   0  0  0  0  0  0  0  0  0  0  0  0
  -23.4781   -8.7747   22.3197 C   0  0  0  0  0  0  0  0  0  0  0  0
  -23.0826  -24.1991   21.9816 C   0  0  0  0  0  0  0  0  0  0  0  0
  -21.2877   -6.1993   22.3447 C   0  0  0  0  0  0  0  0  0  0  0  0
  -21.3644   -4.9024   22.8522 C   0  0  0  0  0  0  0  0  0  0  0  0
  -23.9024  -25.9467   20.5348 C   0  0  0  0  0  0  0  0  0  0  0  0
  -21.2838   -5.7781   25.1024 C   0  0  0  0  0  0  0  0  0  0  0  0
  -28.4685  -18.7585   18.9855 C   0  0  0  0  0  0  0  0  0  0  0  0
  -24.2641   -9.9012   20.3322 C   0  0  0  0  0  0  0  0  0  0  0  0
  -25.6178  -10.0011   18.1723 C   0  0  0  0  0  0  0  0  0  0  0  0
  -16.8463  -28.3813   24.4437 C   0  0  0  0  0  0  0  0  0  0  0  0
  -22.9826  -26.5161   22.7003 C   0  0  0  0  0  0  0  0  0  0  0  0
  -17.7778  -27.9531   23.4786 C   0  0  0  0  0  0  0  0  0  0  0  0
  -23.5749  -26.9169   21.4943 C   0  0  0  0  0  0  0  0  0  0  0  0
  -22.1591   -9.0083   21.9305 C   0  0  0  0  0  0  0  0  0  0  0  0
  -23.6558  -24.5955   20.7768 C   0  0  0  0  0  0  0  0  0  0  0  0
  -21.2092   -7.2858   23.2160 C   0  0  0  0  0  0  0  0  0  0  0  0
  -21.3624   -4.6918   24.2310 C   0  0  0  0  0  0  0  0  0  0  0  0
  -21.2072   -7.0751   24.5949 C   0  0  0  0  0  0  0  0  0  0  0  0
  -25.3517  -10.3616   19.5069 C   0  0  0  0  0  0  0  0  0  0  0  0
  -26.7516  -10.7045   17.8462 C   0  0  0  0  0  0  0  0  0  0  0  0
  -27.6833  -17.6247   19.0017 C   0  0  0  0  0  0  0  0  0  0  0  0
  -26.6190  -19.6267   18.1881 C   0  0  0  0  0  0  0  0  0  0  0  0
  -24.3741  -22.8527   16.4982 C   0  0  0  0  0  0  0  0  0  0  0  0
  -24.8930  -22.9880   17.7302 C   0  0  0  0  0  0  0  0  0  0  0  0
  -24.9039   -9.1102   17.3049 C   0  0  0  0  0  0  0  0  0  0  0  0
  -21.1435  -29.0986   22.4724 C   0  0  0  0  0  0  0  0  0  0  0  0
  -23.9945  -30.6348   22.2878 C   0  0  0  0  0  0  0  0  0  0  0  0
  -27.3188  -30.4918   21.5292 C   0  0  0  0  0  0  0  0  0  0  0  0
  -29.1409  -15.7795   19.9055 C   0  0  0  0  0  0  0  0  0  0  0  0
  -16.6359  -29.8432   24.7493 C   0  0  0  0  0  0  0  0  0  0  0  0
  -22.6436  -27.5315   23.7569 C   0  0  0  0  0  0  0  0  0  0  0  0
  -23.8630  -28.3646   21.1949 C   0  0  0  0  0  0  0  0  0  0  0  0
  -24.6474  -21.7048   15.5740 C   0  0  0  0  0  0  0  0  0  0  0  0
  -17.7796  -30.7355   24.2741 C   0  0  0  0  0  0  0  0  0  0  0  0
  -25.7063  -20.7422   16.1061 C   0  0  0  0  0  0  0  0  0  0  0  0
  -30.6938  -12.5767   19.8179 C   0  0  0  0  0  0  0  0  0  0  0  0
  -18.1764  -30.3791   22.8450 C   0  0  0  0  0  0  0  0  0  0  0  0
  -29.5251  -11.6129   19.6006 C   0  0  0  0  0  0  0  0  0  0  0  0
  -30.3059  -13.7432   20.7248 C   0  0  0  0  0  0  0  0  0  0  0  0
  -27.9356  -13.5150   20.0933 C   0  0  0  0  0  0  0  0  0  0  0  0
  -18.6772  -28.9324   22.7560 C   0  0  1  0  0  0  0  0  0  0  0  0
  -25.6310  -20.6322   17.6336 C   0  0  2  0  0  0  0  0  0  0  0  0
  -22.4508  -28.9368   23.1951 C   0  0  1  0  0  0  0  0  0  0  0  0
  -28.2593  -12.3582   19.1338 C   0  0  2  0  0  0  0  0  0  0  0  0
  -29.3825  -31.9170   21.4419 C   0  0  0  0  0  0  0  0  0  0  0  0
  -22.9880  -31.9305   19.7153 C   0  0  0  0  0  0  0  0  0  0  0  0
  -25.3536  -32.5591   19.1887 C   0  0  0  0  0  0  0  0  0  0  0  0
  -24.2493  -33.4669   21.2329 C   0  0  0  0  0  0  0  0  0  0  0  0
  -28.7087  -28.8050   23.5246 C   0  0  0  0  0  0  0  0  0  0  0  0
  -24.5643  -24.1418   18.6263 C   0  0  0  0  0  0  0  0  0  1  0  0
  -24.9247  -31.0314   21.1668 C   0  0  1  0  0  0  0  0  0  0  0  0
  -28.5460  -30.9676   22.2856 C   0  0  2  0  0  0  0  0  0  0  0  0
  -24.3718  -32.2198   20.3305 C   0  0  0  0  0  0  0  0  0  0  0  0
  -27.8600  -19.9073   18.5189 N   0  0  0  0  0  0  0  0  0  0  0  0
  -26.2447  -11.2266   19.9952 N   0  0  0  0  0  0  0  0  0  0  0  0
  -27.0830  -11.4155   18.9619 N   0  0  0  0  0  0  0  0  0  0  0  0
  -23.5077  -29.3203   22.2570 N   0  0  0  0  0  0  0  0  0  0  0  0
  -29.1013  -14.4041   20.2180 N   0  0  0  0  0  0  0  0  0  0  0  0
  -27.4875  -10.7778   16.7168 N   0  0  0  0  0  0  0  0  0  0  0  0
  -25.2662   -7.7564   17.2929 N   0  0  0  0  0  0  0  0  0  0  0  0
  -27.9455  -16.2908   19.4012 N   0  0  0  0  0  0  0  0  0  0  0  0
  -20.0333  -28.8356   23.2520 N   0  0  0  0  0  0  0  0  0  0  0  0
  -26.2217  -31.2872   21.7838 N   0  0  0  0  0  0  0  0  0  0  0  0
  -25.8380  -22.0190   18.2035 N   0  3  0  0  0  0  0  0  0  0  0  0
  -29.3980  -29.8077   22.6724 N   0  3  0  0  0  0  0  0  0  0  0  0
  -23.9832   -9.5061   16.5505 O   0  0  0  0  0  0  0  0  0  0  0  0
  -21.1421  -29.4384   21.2950 O   0  0  0  0  0  0  0  0  0  0  0  0
  -23.7160  -31.4587   23.1626 O   0  0  0  0  0  0  0  0  0  0  0  0
  -27.3331  -29.5147   20.7839 O   0  0  0  0  0  0  0  0  0  0  0  0
  -30.1680  -16.4479   20.0474 O   0  0  0  0  0  0  0  0  0  0  0  0
  -21.1324   -8.5727   22.7106 O   0  0  0  0  0  0  0  0  0  0  0  0
  -23.9801  -23.6654   19.8379 O   0  0  0  0  0  0  0  0  0  1  0  0
  -21.4344   -3.4461   24.7182 F   0  0  0  0  0  0  0  0  0  0  0  0
  -21.1308   -8.1148   25.4370 F   0  0  0  0  0  0  0  0  0  0  0  0
  -26.1171  -18.0011   18.4128 S   0  0  0  0  0  0  0  0  0  0  0  0
  1  2  1  0  0  0  0
  1  5  2  0  0  0  0
  2  6  2  0  0  0  0
  3  8  2  0  0  0  0
  3 16  1  0  0  0  0
  4  9  1  0  0  0  0
  4 16  2  0  0  0  0
  5 18  1  0  0  0  0
  6 20  1  0  0  0  0
  7 10  2  0  0  0  0
  7 19  1  0  0  0  0
  8 22  1  0  0  0  0
  9 22  2  0  0  0  0
 10 23  1  0  0  0  0
 11 12  2  0  0  0  0
 11 24  1  0  0  0  0
 12 25  1  0  0  0  0
 13 21  1  0  0  0  0
 13 23  2  0  0  0  0
 14 25  2  0  0  0  0
 14 26  1  0  0  0  0
 15 29  2  0  0  0  0
 15 62  1  0  0  0  0
 16 27  1  0  0  0  0
 17 27  1  0  0  0  0
 17 28  2  0  0  0  0
 17 33  1  0  0  0  0
 18 20  2  0  0  0  0
 18 38  1  0  0  0  0
 19 21  2  0  0  0  0
 19 39  1  0  0  0  0
 20 49  1  0  0  0  0
 21 40  1  0  0  0  0
 22 79  1  0  0  0  0
 23 80  1  0  0  0  0
 24 26  2  0  0  0  0
 24 79  1  0  0  0  0
 25 81  1  0  0  0  0
 26 82  1  0  0  0  0
 27 63  2  0  0  0  0
 28 64  1  0  0  0  0
 28 67  1  0  0  0  0
 29 69  1  0  0  0  0
 29 83  1  0  0  0  0
 30 50  1  0  0  0  0
 30 62  2  0  0  0  0
 30 83  1  0  0  0  0
 31 32  2  0  0  0  0
 31 41  1  0  0  0  0
 32 58  1  0  0  0  0
 32 72  1  0  0  0  0
 33 68  1  0  0  0  0
 33 74  2  0  0  0  0
 34 51  1  0  0  0  0
 34 70  1  0  0  0  0
 34 75  2  0  0  0  0
 35 59  1  0  0  0  0
 35 65  1  0  0  0  0
 35 76  2  0  0  0  0
 36 60  1  0  0  0  0
 36 71  1  0  0  0  0
 36 77  2  0  0  0  0
 37 66  1  0  0  0  0
 37 69  1  0  0  0  0
 37 78  2  0  0  0  0
 38 42  1  0  0  0  0
 39 51  1  0  0  0  0
 40 65  1  0  0  0  0
 41 43  1  0  0  0  0
 42 45  1  0  0  0  0
 43 50  1  0  0  0  0
 44 46  1  0  0  0  0
 44 47  1  0  0  0  0
 45 49  1  0  0  0  0
 46 52  1  0  0  0  0
 47 66  1  0  0  0  0
 48 52  1  0  0  0  0
 48 66  1  0  0  0  0
 49 70  1  0  0  0  0
 50 72  1  0  0  0  0
 51 65  1  0  0  0  0
 52 64  1  0  0  0  0
 53 60  1  0  0  0  0
 54 61  1  0  0  0  0
 55 61  1  0  0  0  0
 56 61  1  0  0  0  0
 57 73  1  0  0  0  0
 58 80  1  0  0  0  0
 59 61  1  0  0  0  0
 59 71  1  0  0  0  0
 60 73  1  0  0  0  0
 63 64  1  0  0  0  0
M  CHG  2  72   1  73   1
M  ISO  4  37 100  58 101  69 100  80 101
M  END
> <Batch ID>
0160

> <Smiles>
CNC(C)C(=O)NC(C(=O)N1Cc2cc([101O:1][101CH2:1]C3=CCCC(c4ncc([100NH:0][100C:0](=O)N5CCCC(n6nc(-c7ccc(Oc8ccc(F)cc8F)cc7)c(C(N)=O)c6N)C5)s4)N3)ccc2CC1C(=O)NC1CCCc2ccccc21)C(C)(C)C

> <Shape>
0.261

> <Color>
0.080

> <Negative vol penalty>
0.000

$$$$

  -OEChem-04052303503D

 84 92  0     1  0  0  0  0  0999 V2000
  -29.5330  -31.8703   26.8171 C   0  0  0  0  0  0  0  0  0  0  0  0
  -29.2755  -31.3293   25.5616 C   0  0  0  0  0  0  0  0  0  0  0  0
  -26.5820  -12.5835   21.7783 C   0  0  0  0  0  0  0  0  0  0  0  0
  -25.8480  -14.0221   19.9814 C   0  0  0  0  0  0  0  0  0  0  0  0
  -28.8792  -31.3649   27.9401 C   0  0  0  0  0  0  0  0  0  0  0  0
  -28.3647  -30.2819   25.4284 C   0  0  0  0  0  0  0  0  0  0  0  0
  -25.2032  -30.9406   21.5277 C   0  0  0  0  0  0  0  0  0  0  0  0
  -25.3299  -11.9691   21.7979 C   0  0  0  0  0  0  0  0  0  0  0  0
  -24.5960  -13.4076   20.0009 C   0  0  0  0  0  0  0  0  0  0  0  0
  -25.6972  -30.6634   20.2538 C   0  0  0  0  0  0  0  0  0  0  0  0
  -23.6738   -9.6321   20.0011 C   0  0  0  0  0  0  0  0  0  0  0  0
  -23.6361   -8.2397   20.0739 C   0  0  0  0  0  0  0  0  0  0  0  0
  -24.5999  -28.5157   20.3022 C   0  0  0  0  0  0  0  0  0  0  0  0
  -22.4058   -8.3815   22.1483 C   0  0  0  0  0  0  0  0  0  0  0  0
  -29.7518  -23.0601   20.8229 C   0  0  0  0  0  0  0  0  0  0  0  0
  -26.8410  -13.6101   20.8701 C   0  0  0  0  0  0  0  0  0  0  0  0
  -29.2556  -13.8667   20.0882 C   0  0  0  0  0  0  0  0  0  0  0  0
  -27.9527  -30.3172   27.8193 C   0  0  0  0  0  0  0  0  0  0  0  0
  -24.4114  -30.0014   22.2040 C   0  0  0  0  0  0  0  0  0  0  0  0
  -27.6988  -29.7612   26.5510 C   0  0  0  0  0  0  0  0  0  0  0  0
  -24.0949  -28.7845   21.5835 C   0  0  0  0  0  0  0  0  0  0  0  0
  -24.3369  -12.3811   20.9091 C   0  0  0  0  0  0  0  0  0  0  0  0
  -25.3980  -29.4496   19.6420 C   0  0  0  0  0  0  0  0  0  0  0  0
  -23.0775  -10.3993   21.0019 C   0  0  0  0  0  0  0  0  0  0  0  0
  -23.0020   -7.6144   21.1475 C   0  0  0  0  0  0  0  0  0  0  0  0
  -22.4435   -9.7740   22.0755 C   0  0  0  0  0  0  0  0  0  0  0  0
  -29.4252  -23.9989   19.8020 C   0  0  0  0  0  0  0  0  0  0  0  0
  -28.1340  -14.2456   20.8499 C   0  0  0  0  0  0  0  0  0  0  0  0
  -28.7246  -23.4168   18.7687 C   0  0  0  0  0  0  0  0  0  0  0  0
  -30.2236  -14.7814   20.4239 C   0  0  0  0  0  0  0  0  0  0  0  0
  -29.2881  -21.7961   20.5309 C   0  0  0  0  0  0  0  0  0  0  0  0
  -29.4088  -12.7846   19.1600 C   0  0  0  0  0  0  0  0  0  0  0  0
  -28.2509  -24.1424   17.5730 C   0  0  0  0  0  0  0  0  0  0  0  0
  -24.6952  -28.3645   24.9139 C   0  0  0  0  0  0  0  0  0  0  0  0
  -21.6682  -27.4328   24.2127 C   0  0  0  0  0  0  0  0  0  0  0  0
  -19.2630  -26.9448   21.8412 C   0  0  0  0  0  0  0  0  0  0  0  0
  -30.0049  -20.3839   22.4901 C   0  0  0  0  0  0  0  0  0  0  0  0
  -27.3060  -29.7725   29.0682 C   0  0  0  0  0  0  0  0  0  0  0  0
  -23.8640  -30.3267   23.5667 C   0  0  0  0  0  0  0  0  0  0  0  0
  -23.2323  -27.7508   22.2587 C   0  0  0  0  0  0  0  0  0  0  0  0
  -26.0759  -28.9120   28.7915 C   0  0  0  0  0  0  0  0  0  0  0  0
  -31.6155  -17.6074   24.0310 C   0  0  0  0  0  0  0  0  0  0  0  0
  -26.3617  -27.9166   27.6715 C   0  0  0  0  0  0  0  0  0  0  0  0
  -31.0120  -16.3960   23.3165 C   0  0  0  0  0  0  0  0  0  0  0  0
  -30.5843  -18.7154   24.2380 C   0  0  0  0  0  0  0  0  0  0  0  0
  -29.2703  -17.9256   22.3096 C   0  0  0  0  0  0  0  0  0  0  0  0
  -26.6991  -28.6408   26.3626 C   0  0  1  0  0  0  0  0  0  0  0  0
  -23.4932  -29.0860   24.3733 C   0  0  1  0  0  0  0  0  0  0  0  0
  -30.2872  -16.8093   22.0206 C   0  0  2  0  0  0  0  0  0  0  0  0
  -16.9025  -26.1387   21.5664 C   0  0  0  0  0  0  0  0  0  0  0  0
  -28.5494  -28.3318   17.5588 C   0  0  0  0  0  0  0  0  0  0  0  0
  -22.6215  -24.5492   24.5052 C   0  0  0  0  0  0  0  0  0  0  0  0
  -20.5435  -23.8151   23.3173 C   0  0  0  0  0  0  0  0  0  0  0  0
  -20.3739  -25.0109   25.5000 C   0  0  0  0  0  0  0  0  0  0  0  0
  -18.3662  -29.5659   20.7997 C   0  0  0  0  0  0  0  0  0  0  0  0
  -27.4646  -26.2640   16.5846 C   0  0  0  0  0  0  0  0  0  0  0  0
  -26.1307  -27.8067   18.0864 C   0  0  0  0  0  0  0  0  0  1  0  0
  -21.0531  -26.2967   23.4318 C   0  0  1  0  0  0  0  0  0  0  0  0
  -17.7995  -27.3455   21.7935 C   0  0  2  0  0  0  0  0  0  0  0  0
  -27.2487  -27.7084   17.0420 C   0  0  1  0  0  0  0  0  0  0  0  0
  -21.1659  -24.9364   24.1764 C   0  0  0  0  0  0  0  0  0  0  0  0
  -28.3667  -15.3174   21.6122 N   0  0  0  0  0  0  0  0  0  0  0  0
  -29.6456  -15.6197   21.3313 N   0  0  0  0  0  0  0  0  0  0  0  0
  -22.7262  -28.1129   23.5930 N   0  0  0  0  0  0  0  0  0  0  0  0
  -29.9417  -19.0576   22.9673 N   0  0  0  0  0  0  0  0  0  0  0  0
  -31.5044  -14.9423   20.0287 N   0  0  0  0  0  0  0  0  0  0  0  0
  -28.3139  -11.9399   18.9320 N   0  0  0  0  0  0  0  0  0  0  0  0
  -28.1508  -23.4678   16.4276 N   0  0  0  0  0  0  0  0  0  0  0  0
  -29.3864  -20.5828   21.2562 N   0  0  0  0  0  0  0  0  0  0  0  0
  -25.4936  -29.1379   25.7347 N   0  0  0  0  0  0  0  0  0  0  0  0
  -19.6841  -26.7018   23.1315 N   0  0  0  0  0  0  0  0  0  0  0  0
  -27.9472  -25.4405   17.6950 N   0  3  0  0  0  0  0  0  0  0  0  0
  -17.5650  -28.3197   20.6903 N   0  3  0  0  0  0  0  0  0  0  0  0
  -30.4897  -12.5633   18.5632 O   0  0  0  0  0  0  0  0  0  0  0  0
  -24.8834  -27.1923   24.6100 O   0  0  0  0  0  0  0  0  0  0  0  0
  -21.2215  -27.7114   25.3283 O   0  0  0  0  0  0  0  0  0  0  0  0
  -19.9616  -26.8528   20.8343 O   0  0  0  0  0  0  0  0  0  0  0  0
  -30.5899  -21.2716   23.1160 O   0  0  0  0  0  0  0  0  0  0  0  0
  -23.1151  -11.7816   20.9278 O   0  0  0  0  0  0  0  0  0  0  0  0
  -25.8796  -29.1762   18.3989 O   0  0  0  0  0  0  0  0  0  1  0  0
  -22.9646   -6.2772   21.2165 F   0  0  0  0  0  0  0  0  0  0  0  0
  -21.8679  -10.5057   23.0394 F   0  0  0  0  0  0  0  0  0  0  0  0
  -29.7618  -25.2897   19.8490 F   0  0  0  0  0  0  0  0  0  0  0  0
  -28.4631  -21.7449   19.0313 S   0  0  0  0  0  0  0  0  0  0  0  0
  1  2  1  0  0  0  0
  1  5  2  0  0  0  0
  2  6  2  0  0  0  0
  3  8  2  0  0  0  0
  3 16  1  0  0  0  0
  4  9  1  0  0  0  0
  4 16  2  0  0  0  0
  5 18  1  0  0  0  0
  6 20  1  0  0  0  0
  7 10  2  0  0  0  0
  7 19  1  0  0  0  0
  8 22  1  0  0  0  0
  9 22  2  0  0  0  0
 10 23  1  0  0  0  0
 11 12  2  0  0  0  0
 11 24  1  0  0  0  0
 12 25  1  0  0  0  0
 13 21  1  0  0  0  0
 13 23  2  0  0  0  0
 14 25  2  0  0  0  0
 14 26  1  0  0  0  0
 15 27  1  0  0  0  0
 15 31  2  0  0  0  0
 16 28  1  0  0  0  0
 17 28  1  0  0  0  0
 17 30  2  0  0  0  0
 17 32  1  0  0  0  0
 18 20  2  0  0  0  0
 18 38  1  0  0  0  0
 19 21  2  0  0  0  0
 19 39  1  0  0  0  0
 20 47  1  0  0  0  0
 21 40  1  0  0  0  0
 22 79  1  0  0  0  0
 23 80  1  0  0  0  0
 24 26  2  0  0  0  0
 24 79  1  0  0  0  0
 25 81  1  0  0  0  0
 26 82  1  0  0  0  0
 27 29  2  0  0  0  0
 27 83  1  0  0  0  0
 28 62  2  0  0  0  0
 29 33  1  0  0  0  0
 29 84  1  0  0  0  0
 30 63  1  0  0  0  0
 30 66  1  0  0  0  0
 31 69  1  0  0  0  0
 31 84  1  0  0  0  0
 32 67  1  0  0  0  0
 32 74  2  0  0  0  0
 33 68  1  0  0  0  0
 33 72  2  0  0  0  0
 34 48  1  0  0  0  0
 34 70  1  0  0  0  0
 34 75  2  0  0  0  0
 35 58  1  0  0  0  0
 35 64  1  0  0  0  0
 35 76  2  0  0  0  0
 36 59  1  0  0  0  0
 36 71  1  0  0  0  0
 36 77  2  0  0  0  0
 37 65  1  0  0  0  0
 37 69  1  0  0  0  0
 37 78  2  0  0  0  0
 38 41  1  0  0  0  0
 39 48  1  0  0  0  0
 40 64  1  0  0  0  0
 41 43  1  0  0  0  0
 42 44  1  0  0  0  0
 42 45  1  0  0  0  0
 43 47  1  0  0  0  0
 44 49  1  0  0  0  0
 45 65  1  0  0  0  0
 46 49  1  0  0  0  0
 46 65  1  0  0  0  0
 47 70  1  0  0  0  0
 48 64  1  0  0  0  0
 49 63  1  0  0  0  0
 50 59  1  0  0  0  0
 51 60  1  0  0  0  0
 52 61  1  0  0  0  0
 53 61  1  0  0  0  0
 54 61  1  0  0  0  0
 55 73  1  0  0  0  0
 56 60  1  0  0  0  0
 56 72  1  0  0  0  0
 57 60  1  0  0  0  0
 57 80  1  0  0  0  0
 58 61  1  0  0  0  0
 58 71  1  0  0  0  0
 59 73  1  0  0  0  0
 62 63  1  0  0  0  0
M  CHG  2  72   1  73   1
M  ISO  4  37 100  57 101  69 100  80 101
M  END
> <Batch ID>
0160

> <Smiles>
CNC(C)C(=O)NC(C(=O)N1Cc2cc([101O:1][101CH2:1]C(C)CNC(=N)c3sc([100NH:0][100C:0](=O)N4CCCC(n5nc(-c6ccc(Oc7ccc(F)cc7F)cc6)c(C(N)=O)c5N)C4)cc3F)ccc2CC1C(=O)NC1CCCc2ccccc21)C(C)(C)C

> <Shape>
0.285

> <Color>
0.062

> <Negative vol penalty>
0.000

$$$$
