
  -OEChem-04052303533D

 84 92  0     1  0  0  0  0  0999 V2000
  -30.2075  -25.1331   17.3152 C   0  0  0  0  0  0  0  0  0  0  0  0
  -28.8217  -25.1399   17.4364 C   0  0  0  0  0  0  0  0  0  0  0  0
  -25.6638  -15.1576   18.9138 C   0  0  0  0  0  0  0  0  0  0  0  0
  -23.4935  -14.8725   19.9364 C   0  0  0  0  0  0  0  0  0  0  0  0
  -30.9993  -25.6234   18.3528 C   0  0  0  0  0  0  0  0  0  0  0  0
  -28.2267  -25.6359   18.5959 C   0  0  0  0  0  0  0  0  0  0  0  0
  -22.9242  -28.6728   19.0035 C   0  0  0  0  0  0  0  0  0  0  0  0
  -26.0935  -13.9636   19.4928 C   0  0  0  0  0  0  0  0  0  0  0  0
  -23.9232  -13.6784   20.5154 C   0  0  0  0  0  0  0  0  0  0  0  0
  -21.6341  -28.2664   19.3416 C   0  0  0  0  0  0  0  0  0  0  0  0
  -24.3879  -10.4719   19.5546 C   0  0  0  0  0  0  0  0  0  0  0  0
  -23.5286   -9.3752   19.4883 C   0  0  0  0  0  0  0  0  0  0  0  0
  -22.0103  -28.9834   21.6140 C   0  0  0  0  0  0  0  0  0  0  0  0
  -23.4724   -9.2734   21.9015 C   0  0  0  0  0  0  0  0  0  0  0  0
  -24.3638  -15.6121   19.1356 C   0  0  0  0  0  0  0  0  0  0  0  0
  -23.3058  -17.0092   17.2819 C   0  0  0  0  0  0  0  0  0  0  0  0
  -30.4135  -26.1345   19.5217 C   0  0  0  0  0  0  0  0  0  0  0  0
  -23.7722  -29.2284   19.9723 C   0  0  0  0  0  0  0  0  0  0  0  0
  -29.0114  -26.1321   19.6507 C   0  0  0  0  0  0  0  0  0  0  0  0
  -23.3098  -29.3984   21.2850 C   0  0  0  0  0  0  0  0  0  0  0  0
  -25.2232  -13.2240   20.2936 C   0  0  0  0  0  0  0  0  0  0  0  0
  -21.1780  -28.4190   20.6476 C   0  0  0  0  0  0  0  0  0  0  0  0
  -24.7896  -10.9693   20.7944 C   0  0  0  0  0  0  0  0  0  0  0  0
  -23.0708   -8.7760   20.6617 C   0  0  0  0  0  0  0  0  0  0  0  0
  -24.3318  -10.3700   21.9678 C   0  0  0  0  0  0  0  0  0  0  0  0
  -23.9195  -16.8457   18.5383 C   0  0  0  0  0  0  0  0  0  0  0  0
  -18.9385  -21.5602   22.4694 C   0  0  0  0  0  0  0  0  0  0  0  0
  -20.0326  -22.3335   22.1700 C   0  0  0  0  0  0  0  0  0  0  0  0
  -23.0807  -18.3605   17.1829 C   0  0  0  0  0  0  0  0  0  0  0  0
  -18.6067  -23.5835   23.0796 C   0  0  0  0  0  0  0  0  0  0  0  0
  -22.9692  -16.0273   16.2928 C   0  0  0  0  0  0  0  0  0  0  0  0
  -18.6347  -20.1840   22.2854 C   0  0  0  0  0  0  0  0  0  0  0  0
  -26.5744  -28.4147   21.2330 C   0  0  0  0  0  0  0  0  0  0  0  0
  -18.6224  -26.5260   22.3773 C   0  0  0  0  0  0  0  0  0  0  0  0
  -26.3149  -31.2997   22.6930 C   0  0  0  0  0  0  0  0  0  0  0  0
  -24.2907  -33.8109   23.8079 C   0  0  0  0  0  0  0  0  0  0  0  0
  -22.3477  -22.6848   21.2410 C   0  0  0  0  0  0  0  0  0  0  0  0
  -31.3119  -26.6100   20.6359 C   0  0  0  0  0  0  0  0  0  0  0  0
  -25.1517  -29.6864   19.5854 C   0  0  0  0  0  0  0  0  0  0  0  0
  -24.1738  -30.0081   22.3575 C   0  0  0  0  0  0  0  0  0  0  0  0
  -30.5919  -27.4635   21.6767 C   0  0  0  0  0  0  0  0  0  0  0  0
  -24.8172  -22.5654   18.6789 C   0  0  0  0  0  0  0  0  0  0  0  0
  -29.2741  -26.8112   22.0829 C   0  0  0  0  0  0  0  0  0  0  0  0
  -24.8071  -21.1013   18.2335 C   0  0  0  0  0  0  0  0  0  0  0  0
  -24.5968  -22.7018   20.1844 C   0  0  0  0  0  0  0  0  0  0  0  0
  -23.3957  -20.5521   20.2568 C   0  0  0  0  0  0  0  0  0  0  0  0
  -28.3281  -26.6848   20.8827 C   0  0  1  0  0  0  0  0  0  0  0  0
  -26.1091  -29.7664   20.7705 C   0  0  1  0  0  0  0  0  0  0  0  0
  -23.5492  -20.3674   18.7382 C   0  0  2  0  0  0  0  0  0  0  0  0
  -17.2876  -19.6684   22.7543 C   0  0  0  0  0  0  0  0  0  0  0  0
  -24.3648  -36.0210   24.9943 C   0  0  0  0  0  0  0  0  0  0  0  0
  -26.7677  -29.8587   25.3441 C   0  0  0  0  0  0  0  0  0  0  0  0
  -25.8997  -31.8926   26.5180 C   0  0  0  0  0  0  0  0  0  0  0  0
  -27.9647  -32.0437   25.1268 C   0  0  0  0  0  0  0  0  0  0  0  0
  -23.1156  -35.2262   21.4895 C   0  0  0  0  0  0  0  0  0  0  0  0
  -18.3218  -25.9692   23.7527 C   0  0  0  0  0  0  0  0  0  0  0  0
  -19.7110  -27.5801   22.3210 C   0  0  0  0  0  0  0  0  0  1  0  0
  -25.7203  -31.7917   23.9905 C   0  0  1  0  0  0  0  0  0  0  0  0
  -24.3729  -35.3181   23.6458 C   0  0  2  0  0  0  0  0  0  0  0  0
  -26.5722  -31.3833   25.2253 C   0  0  0  0  0  0  0  0  0  0  0  0
  -24.0746  -18.0009   19.1906 N   0  0  0  0  0  0  0  0  0  0  0  0
  -19.8139  -23.6291   22.5632 N   0  0  0  0  0  0  0  0  0  0  0  0
  -23.5551  -18.9032   18.3408 N   0  0  0  0  0  0  0  0  0  0  0  0
  -25.5169  -30.4344   21.9313 N   0  0  0  0  0  0  0  0  0  0  0  0
  -23.3853  -21.9853   20.5891 N   0  0  0  0  0  0  0  0  0  0  0  0
  -22.5254  -19.1256   16.2193 N   0  0  0  0  0  0  0  0  0  0  0  0
  -23.2703  -14.6839   16.5554 N   0  0  0  0  0  0  0  0  0  0  0  0
  -21.2322  -21.9065   21.5485 N   0  0  0  0  0  0  0  0  0  0  0  0
  -17.8600  -24.6092   23.6414 N   0  0  0  0  0  0  0  0  0  0  0  0
  -27.7098  -27.9601   20.5899 N   0  0  0  0  0  0  0  0  0  0  0  0
  -25.5415  -33.2315   23.8375 N   0  0  0  0  0  0  0  0  0  0  0  0
  -23.2167  -35.8171   22.8487 N   0  3  0  0  0  0  0  0  0  0  0  0
  -22.4328  -16.3342   15.2012 O   0  0  0  0  0  0  0  0  0  0  0  0
  -19.3829  -19.3244   21.7669 O   0  0  0  0  0  0  0  0  0  0  0  0
  -25.9504  -27.8282   22.1096 O   0  0  0  0  0  0  0  0  0  0  0  0
  -18.0289  -26.1555   21.3652 O   0  0  0  0  0  0  0  0  0  0  0  0
  -27.4429  -31.6752   22.3640 O   0  0  0  0  0  0  0  0  0  0  0  0
  -23.2237  -33.2084   23.9029 O   0  0  0  0  0  0  0  0  0  0  0  0
  -22.4306  -23.8917   21.4825 O   0  0  0  0  0  0  0  0  0  0  0  0
  -18.0080  -22.3612   23.0595 O   0  0  0  0  0  0  0  0  0  0  0  0
  -25.6421  -12.0587   20.8586 O   0  0  0  0  0  0  0  0  0  0  0  0
  -19.9194  -28.0226   20.9805 O   0  0  0  0  0  0  0  0  0  1  0  0
  -22.2443   -7.7238   20.5979 F   0  0  0  0  0  0  0  0  0  0  0  0
  -24.7132  -10.8442   23.1618 F   0  0  0  0  0  0  0  0  0  0  0  0
  1  2  1  0  0  0  0
  1  5  2  0  0  0  0
  2  6  2  0  0  0  0
  3  8  2  0  0  0  0
  3 15  1  0  0  0  0
  4  9  1  0  0  0  0
  4 15  2  0  0  0  0
  5 17  1  0  0  0  0
  6 19  1  0  0  0  0
  7 10  2  0  0  0  0
  7 18  1  0  0  0  0
  8 21  1  0  0  0  0
  9 21  2  0  0  0  0
 10 22  1  0  0  0  0
 11 12  2  0  0  0  0
 11 23  1  0  0  0  0
 12 24  1  0  0  0  0
 13 20  1  0  0  0  0
 13 22  2  0  0  0  0
 14 24  2  0  0  0  0
 14 25  1  0  0  0  0
 15 26  1  0  0  0  0
 16 26  1  0  0  0  0
 16 29  2  0  0  0  0
 16 31  1  0  0  0  0
 17 19  2  0  0  0  0
 17 38  1  0  0  0  0
 18 20  2  0  0  0  0
 18 39  1  0  0  0  0
 19 47  1  0  0  0  0
 20 40  1  0  0  0  0
 21 81  1  0  0  0  0
 22 82  1  0  0  0  0
 23 25  2  0  0  0  0
 23 81  1  0  0  0  0
 24 83  1  0  0  0  0
 25 84  1  0  0  0  0
 26 61  2  0  0  0  0
 27 28  2  0  0  0  0
 27 32  1  0  0  0  0
 27 80  1  0  0  0  0
 28 62  1  0  0  0  0
 28 68  1  0  0  0  0
 29 63  1  0  0  0  0
 29 66  1  0  0  0  0
 30 62  2  0  0  0  0
 30 69  1  0  0  0  0
 30 80  1  0  0  0  0
 31 67  1  0  0  0  0
 31 73  2  0  0  0  0
 32 50  1  0  0  0  0
 32 74  2  0  0  0  0
 33 48  1  0  0  0  0
 33 70  1  0  0  0  0
 33 75  2  0  0  0  0
 34 56  1  0  0  0  0
 34 57  1  0  0  0  0
 34 76  2  0  0  0  0
 35 58  1  0  0  0  0
 35 64  1  0  0  0  0
 35 77  2  0  0  0  0
 36 59  1  0  0  0  0
 36 71  1  0  0  0  0
 36 78  2  0  0  0  0
 37 65  1  0  0  0  0
 37 68  1  0  0  0  0
 37 79  2  0  0  0  0
 38 41  1  0  0  0  0
 39 48  1  0  0  0  0
 40 64  1  0  0  0  0
 41 43  1  0  0  0  0
 42 44  1  0  0  0  0
 42 45  1  0  0  0  0
 43 47  1  0  0  0  0
 44 49  1  0  0  0  0
 45 65  1  0  0  0  0
 46 49  1  0  0  0  0
 46 65  1  0  0  0  0
 47 70  1  0  0  0  0
 48 64  1  0  0  0  0
 49 63  1  0  0  0  0
 51 59  1  0  0  0  0
 52 60  1  0  0  0  0
 53 60  1  0  0  0  0
 54 60  1  0  0  0  0
 55 72  1  0  0  0  0
 56 69  1  0  0  0  0
 57 82  1  0  0  0  0
 58 60  1  0  0  0  0
 58 71  1  0  0  0  0
 59 72  1  0  0  0  0
 61 63  1  0  0  0  0
M  CHG  1  72   1
M  ISO  4  37 100  57 101  68 100  82 101
M  END
> <Batch ID>
0161

> <Smiles>
CNC(C)C(=O)NC(C(=O)N1Cc2cc([101O:1][101CH2:1]C(=O)CNc3nc([100NH:0][100C:0](=O)N4CCCC(n5nc(-c6ccc(Oc7ccc(F)cc7F)cc6)c(C(N)=O)c5N)C4)c(C(C)=O)o3)ccc2CC1C(=O)NC1CCCc2ccccc21)C(C)(C)C

> <Shape>
0.268

> <Color>
0.068

> <Negative vol penalty>
0.000

$$$$

  -OEChem-04052303533D

 86 94  0     1  0  0  0  0  0999 V2000
  -36.1269  -34.1263   19.5744 C   0  0  0  0  0  0  0  0  0  0  0  0
  -35.2939  -33.0186   19.6943 C   0  0  0  0  0  0  0  0  0  0  0  0
  -23.9751   -9.6365   21.5882 C   0  0  0  0  0  0  0  0  0  0  0  0
  -24.5186  -10.8051   23.6318 C   0  0  0  0  0  0  0  0  0  0  0  0
  -31.1008  -20.1833   21.1913 C   0  0  0  0  0  0  0  0  0  0  0  0
  -36.0363  -35.1682   20.4965 C   0  0  0  0  0  0  0  0  0  0  0  0
  -34.3705  -32.9515   20.7370 C   0  0  0  0  0  0  0  0  0  0  0  0
  -29.8101  -31.3795   19.1956 C   0  0  0  0  0  0  0  0  0  0  0  0
  -30.8207  -18.8826   20.7729 C   0  0  0  0  0  0  0  0  0  0  0  0
  -23.5138   -8.5504   22.3319 C   0  0  0  0  0  0  0  0  0  0  0  0
  -24.0572   -9.7189   24.3755 C   0  0  0  0  0  0  0  0  0  0  0  0
  -29.6490  -30.0124   18.9747 C   0  0  0  0  0  0  0  0  0  0  0  0
  -20.7357   -7.7237   24.0730 C   0  0  0  0  0  0  0  0  0  0  0  0
  -19.5234   -7.1470   23.6945 C   0  0  0  0  0  0  0  0  0  0  0  0
  -28.5863  -29.7955   21.1295 C   0  0  0  0  0  0  0  0  0  0  0  0
  -28.4555  -19.3169   21.0059 C   0  0  0  0  0  0  0  0  0  0  0  0
  -20.6431   -5.0393   23.3195 C   0  0  0  0  0  0  0  0  0  0  0  0
  -24.4776  -10.7639   22.2381 C   0  0  0  0  0  0  0  0  0  0  0  0
  -30.0583  -21.0509   21.5171 C   0  0  0  0  0  0  0  0  0  0  0  0
  -24.2081  -12.9967   21.0342 C   0  0  0  0  0  0  0  0  0  0  0  0
  -35.1048  -35.1183   21.5454 C   0  0  0  0  0  0  0  0  0  0  0  0
  -29.3696  -31.9640   20.3918 C   0  0  0  0  0  0  0  0  0  0  0  0
  -34.2684  -33.9931   21.6748 C   0  0  0  0  0  0  0  0  0  0  0  0
  -28.7407  -31.1707   21.3621 C   0  0  0  0  0  0  0  0  0  0  0  0
  -29.4981  -18.4494   20.6801 C   0  0  0  0  0  0  0  0  0  0  0  0
  -23.5548   -8.5916   23.7255 C   0  0  0  0  0  0  0  0  0  0  0  0
  -29.0396  -29.2197   19.9429 C   0  0  0  0  0  0  0  0  0  0  0  0
  -21.9018   -6.9583   24.0747 C   0  0  0  0  0  0  0  0  0  0  0  0
  -19.4771   -5.8048   23.3178 C   0  0  0  0  0  0  0  0  0  0  0  0
  -28.7356  -20.6177   21.4244 C   0  0  0  0  0  0  0  0  0  0  0  0
  -21.8555   -5.6160   23.6980 C   0  0  0  0  0  0  0  0  0  0  0  0
  -24.9549  -11.8859   21.4705 C   0  0  0  0  0  0  0  0  0  0  0  0
  -25.1131  -13.7720   20.3512 C   0  0  0  0  0  0  0  0  0  0  0  0
  -29.4731  -27.0192   20.6068 C   0  0  0  0  0  0  0  0  0  1  0  0
  -30.3582  -22.4277   21.9605 C   0  0  0  0  0  0  0  0  0  0  0  0
  -22.8205  -13.3005   21.2289 C   0  0  0  0  0  0  0  0  0  0  0  0
  -29.3837  -25.6893   20.4941 C   0  0  0  0  0  0  0  0  0  0  0  0
  -30.0680  -24.8478   21.5040 C   0  0  0  0  0  0  0  0  0  0  0  0
  -30.7803  -33.5007   22.7901 C   0  0  0  0  0  0  0  0  0  0  0  0
  -27.7254  -33.9519   23.7833 C   0  0  0  0  0  0  0  0  0  0  0  0
  -24.4782  -32.9030   23.7344 C   0  0  0  0  0  0  0  0  0  0  0  0
  -30.1312  -16.1411   19.8942 C   0  0  0  0  0  0  0  0  0  0  0  0
  -35.0763  -36.2471   22.5453 C   0  0  0  0  0  0  0  0  0  0  0  0
  -29.5267  -33.4448   20.6035 C   0  0  0  0  0  0  0  0  0  0  0  0
  -28.2320  -31.7531   22.6545 C   0  0  0  0  0  0  0  0  0  0  0  0
  -33.8135  -36.2695   23.4028 C   0  0  0  0  0  0  0  0  0  0  0  0
  -29.8325  -12.7571   18.8283 C   0  0  0  0  0  0  0  0  0  0  0  0
  -33.5010  -34.8725   23.9295 C   0  0  0  0  0  0  0  0  0  0  0  0
  -28.4755  -12.3202   19.3848 C   0  0  0  0  0  0  0  0  0  0  0  0
  -30.5627  -13.6963   19.7867 C   0  0  0  0  0  0  0  0  0  0  0  0
  -28.4298  -14.4273   20.7794 C   0  0  0  0  0  0  0  0  0  0  0  0
  -33.2370  -33.8950   22.7779 C   0  0  1  0  0  0  0  0  0  0  0  0
  -29.5036  -33.8437   22.0758 C   0  0  1  0  0  0  0  0  0  0  0  0
  -27.6284  -13.5319   19.8203 C   0  0  2  0  0  0  0  0  0  0  0  0
  -22.2167  -33.4512   24.6738 C   0  0  0  0  0  0  0  0  0  0  0  0
  -28.5552  -32.7635   26.4683 C   0  0  0  0  0  0  0  0  0  0  0  0
  -26.1288  -32.4581   27.0042 C   0  0  0  0  0  0  0  0  0  0  0  0
  -27.0427  -34.7486   26.6289 C   0  0  0  0  0  0  0  0  0  0  0  0
  -23.3410  -33.3576   21.0402 C   0  0  0  0  0  0  0  0  0  0  0  0
  -26.7623  -33.1880   24.6597 C   0  0  1  0  0  0  0  0  0  0  0  0
  -23.1793  -33.6573   23.5146 C   0  0  2  0  0  0  0  0  0  0  0  0
  -27.1335  -33.2779   26.1669 C   0  0  0  0  0  0  0  0  0  0  0  0
  -26.2355  -11.9463   21.0960 N   0  0  0  0  0  0  0  0  0  0  0  0
  -26.3006  -13.1043   20.4171 N   0  0  0  0  0  0  0  0  0  0  0  0
  -28.4145  -33.2049   22.8175 N   0  0  0  0  0  0  0  0  0  0  0  0
  -29.7007  -14.8225   20.1522 N   0  0  0  0  0  0  0  0  0  0  0  0
  -25.0010  -14.9528   19.7067 N   0  0  0  0  0  0  0  0  0  0  0  0
  -22.0339  -12.3957   21.9546 N   0  0  0  0  0  0  0  0  0  0  0  0
  -29.2142  -17.1279   20.2547 N   0  0  0  0  0  0  0  0  0  0  0  0
  -29.8714  -23.4449   21.2358 N   0  0  0  0  0  0  0  0  0  0  0  0
  -31.9055  -34.0893   22.2452 N   0  0  0  0  0  0  0  0  0  0  0  0
  -25.4314  -33.6935   24.3408 N   0  0  0  0  0  0  0  0  0  0  0  0
  -31.0960  -22.5787   23.0600 N   0  3  0  0  0  0  0  0  0  0  0  0
  -22.5154  -33.1920   22.2641 N   0  3  0  0  0  0  0  0  0  0  0  0
  -22.2901  -14.3355   20.7588 O   0  0  0  0  0  0  0  0  0  0  0  0
  -30.7208  -25.2525   22.4520 O   0  0  0  0  0  0  0  0  0  0  0  0
  -30.7468  -32.7583   23.7645 O   0  0  0  0  0  0  0  0  0  0  0  0
  -27.8560  -35.1678   23.9450 O   0  0  0  0  0  0  0  0  0  0  0  0
  -24.6307  -31.7289   23.4049 O   0  0  0  0  0  0  0  0  0  0  0  0
  -31.2208  -16.3764   19.3656 O   0  0  0  0  0  0  0  0  0  0  0  0
  -28.6858  -25.0657   19.4832 O   0  0  0  0  0  0  0  0  0  0  0  0
  -23.1044   -7.5321   24.4515 O   0  0  0  0  0  0  0  0  0  0  0  0
  -28.8817  -27.8849   19.7301 O   0  0  0  0  0  0  0  0  0  1  0  0
  -18.3125   -5.2507   22.9558 F   0  0  0  0  0  0  0  0  0  0  0  0
  -27.7271  -21.4435   21.7371 F   0  0  0  0  0  0  0  0  0  0  0  0
  -22.9722   -4.8753   23.6988 F   0  0  0  0  0  0  0  0  0  0  0  0
  1  2  1  0  0  0  0
  1  6  2  0  0  0  0
  2  7  2  0  0  0  0
  3 10  2  0  0  0  0
  3 18  1  0  0  0  0
  4 11  1  0  0  0  0
  4 18  2  0  0  0  0
  5  9  2  0  0  0  0
  5 19  1  0  0  0  0
  6 21  1  0  0  0  0
  7 23  1  0  0  0  0
  8 12  2  0  0  0  0
  8 22  1  0  0  0  0
  9 25  1  0  0  0  0
 10 26  1  0  0  0  0
 11 26  2  0  0  0  0
 12 27  1  0  0  0  0
 13 14  2  0  0  0  0
 13 28  1  0  0  0  0
 14 29  1  0  0  0  0
 15 24  1  0  0  0  0
 15 27  2  0  0  0  0
 16 25  2  0  0  0  0
 16 30  1  0  0  0  0
 17 29  2  0  0  0  0
 17 31  1  0  0  0  0
 18 32  1  0  0  0  0
 19 30  2  0  0  0  0
 19 35  1  0  0  0  0
 20 32  1  0  0  0  0
 20 33  2  0  0  0  0
 20 36  1  0  0  0  0
 21 23  2  0  0  0  0
 21 43  1  0  0  0  0
 22 24  2  0  0  0  0
 22 44  1  0  0  0  0
 23 52  1  0  0  0  0
 24 45  1  0  0  0  0
 25 69  1  0  0  0  0
 26 82  1  0  0  0  0
 27 83  1  0  0  0  0
 28 31  2  0  0  0  0
 28 82  1  0  0  0  0
 29 84  1  0  0  0  0
 30 85  1  0  0  0  0
 31 86  1  0  0  0  0
 32 63  2  0  0  0  0
 33 64  1  0  0  0  0
 33 67  1  0  0  0  0
 34 37  2  0  0  0  0
 34 83  1  0  0  0  0
 35 70  1  0  0  0  0
 35 73  2  0  0  0  0
 36 68  1  0  0  0  0
 36 75  2  0  0  0  0
 37 38  1  0  0  0  0
 37 81  1  0  0  0  0
 38 70  1  0  0  0  0
 38 76  2  0  0  0  0
 39 53  1  0  0  0  0
 39 71  1  0  0  0  0
 39 77  2  0  0  0  0
 40 60  1  0  0  0  0
 40 65  1  0  0  0  0
 40 78  2  0  0  0  0
 41 61  1  0  0  0  0
 41 72  1  0  0  0  0
 41 79  2  0  0  0  0
 42 66  1  0  0  0  0
 42 69  1  0  0  0  0
 42 80  2  0  0  0  0
 43 46  1  0  0  0  0
 44 53  1  0  0  0  0
 45 65  1  0  0  0  0
 46 48  1  0  0  0  0
 47 49  1  0  0  0  0
 47 50  1  0  0  0  0
 48 52  1  0  0  0  0
 49 54  1  0  0  0  0
 50 66  1  0  0  0  0
 51 54  1  0  0  0  0
 51 66  1  0  0  0  0
 52 71  1  0  0  0  0
 53 65  1  0  0  0  0
 54 64  1  0  0  0  0
 55 61  1  0  0  0  0
 56 62  1  0  0  0  0
 57 62  1  0  0  0  0
 58 62  1  0  0  0  0
 59 74  1  0  0  0  0
 60 62  1  0  0  0  0
 60 72  1  0  0  0  0
 61 74  1  0  0  0  0
 63 64  1  0  0  0  0
M  CHG  2  73   1  74   1
M  ISO  4  34 101  42 100  69 100  83 101
M  END
> <Batch ID>
0161

> <Smiles>
CNC(C)C(=O)NC(C(=O)N1Cc2cc([101O:1][101CH2:1]C(=O)C(=O)NC(=N)c3ccc([100NH:0][100C:0](=O)N4CCCC(n5nc(-c6ccc(Oc7ccc(F)cc7F)cc6)c(C(N)=O)c5N)C4)cc3F)ccc2CC1C(=O)NC1CCCc2ccccc21)C(C)(C)C

> <Shape>
0.248

> <Color>
0.124

> <Negative vol penalty>
0.000

$$$$

  -OEChem-04052303533D

 86 94  0     1  0  0  0  0  0999 V2000
  -19.5156  -33.9743   21.1783 C   0  0  0  0  0  0  0  0  0  0  0  0
  -20.7436  -33.4913   20.7377 C   0  0  0  0  0  0  0  0  0  0  0  0
  -24.6857  -11.3675   20.5329 C   0  0  0  0  0  0  0  0  0  0  0  0
  -25.1199  -12.1335   22.7827 C   0  0  0  0  0  0  0  0  0  0  0  0
  -18.9241  -33.4339   22.3193 C   0  0  0  0  0  0  0  0  0  0  0  0
  -21.3813  -32.4682   21.4385 C   0  0  0  0  0  0  0  0  0  0  0  0
  -24.8090  -27.9730   19.0828 C   0  0  0  0  0  0  0  0  0  0  0  0
  -24.7053  -10.0461   20.9790 C   0  0  0  0  0  0  0  0  0  0  0  0
  -25.1395  -10.8120   23.2289 C   0  0  0  0  0  0  0  0  0  0  0  0
  -26.1883  -27.8117   18.9591 C   0  0  0  0  0  0  0  0  0  0  0  0
  -24.2825   -6.4874   21.5890 C   0  0  0  0  0  0  0  0  0  0  0  0
  -23.2766   -5.6346   21.1346 C   0  0  0  0  0  0  0  0  0  0  0  0
  -26.2133  -26.5173   20.9946 C   0  0  0  0  0  0  0  0  0  0  0  0
  -27.6703  -21.1092   23.6943 C   0  0  0  0  0  0  0  0  0  0  0  0
  -21.6085   -7.0727   22.1278 C   0  0  0  0  0  0  0  0  0  0  0  0
  -24.8931  -12.4112   21.4348 C   0  0  0  0  0  0  0  0  0  0  0  0
  -23.7582  -14.6321   20.8986 C   0  0  0  0  0  0  0  0  0  0  0  0
  -19.5502  -32.3971   23.0290 C   0  0  0  0  0  0  0  0  0  0  0  0
  -24.1220  -27.4160   20.1709 C   0  0  0  0  0  0  0  0  0  0  0  0
  -20.7982  -31.9144   22.5909 C   0  0  0  0  0  0  0  0  0  0  0  0
  -24.8249  -26.6708   21.1283 C   0  0  0  0  0  0  0  0  0  0  0  0
  -28.1762  -22.3988   23.9843 C   0  0  0  0  0  0  0  0  0  0  0  0
  -24.9322   -9.7683   22.3269 C   0  0  0  0  0  0  0  0  0  0  0  0
  -26.8911  -27.0862   19.9166 C   0  0  0  0  0  0  0  0  0  0  0  0
  -23.9514   -7.6329   22.3129 C   0  0  0  0  0  0  0  0  0  0  0  0
  -21.9397   -5.9272   21.4039 C   0  0  0  0  0  0  0  0  0  0  0  0
  -22.6144   -7.9255   22.5822 C   0  0  0  0  0  0  0  0  0  0  0  0
  -24.8735  -13.7765   20.9745 C   0  0  0  0  0  0  0  0  0  0  0  0
  -24.2618  -15.8093   20.4015 C   0  0  0  0  0  0  0  0  0  0  0  0
  -28.3369  -20.6814   22.5697 C   0  0  0  0  0  0  0  0  0  0  0  0
  -29.1161  -22.6671   23.0165 C   0  0  0  0  0  0  0  0  0  0  0  0
  -22.3894  -14.3849   21.2465 C   0  0  0  0  0  0  0  0  0  0  0  0
  -31.2117  -25.3097   21.4875 C   0  0  0  0  0  0  0  0  0  0  0  0
  -30.3654  -26.0795   20.5098 C   0  0  0  0  0  0  0  0  0  0  0  0
  -22.4021  -28.5857   22.5746 C   0  0  0  0  0  0  0  0  0  0  0  0
  -21.8406  -25.4498   23.1854 C   0  0  0  0  0  0  0  0  0  0  0  0
  -22.8596  -22.2084   22.8668 C   0  0  0  0  0  0  0  0  0  0  0  0
  -28.9755  -19.1349   20.6864 C   0  0  0  0  0  0  0  0  0  0  0  0
  -18.8946  -31.8771   24.2838 C   0  0  0  0  0  0  0  0  0  0  0  0
  -22.6301  -27.5765   20.2756 C   0  0  0  0  0  0  0  0  0  0  0  0
  -24.1311  -26.0354   22.3045 C   0  0  0  0  0  0  0  0  0  0  0  0
  -19.4574  -30.5388   24.7554 C   0  0  0  0  0  0  0  0  0  0  0  0
  -28.3180  -17.0682   17.8627 C   0  0  0  0  0  0  0  0  0  0  0  0
  -20.9825  -30.5632   24.7324 C   0  0  0  0  0  0  0  0  0  0  0  0
  -27.2536  -16.0916   18.3682 C   0  0  0  0  0  0  0  0  0  0  0  0
  -29.3431  -17.4002   18.9456 C   0  0  0  0  0  0  0  0  0  0  0  0
  -27.7105  -16.8957   20.7202 C   0  0  0  0  0  0  0  0  0  0  0  0
  -21.5092  -30.7886   23.3100 C   0  0  1  0  0  0  0  0  0  0  0  0
  -22.1086  -27.4009   21.6984 C   0  0  1  0  0  0  0  0  0  0  0  0
  -26.6187  -16.5818   19.6843 C   0  0  2  0  0  0  0  0  0  0  0  0
  -27.7703  -23.2722   25.1013 C   0  0  0  0  0  0  0  0  0  0  0  0
  -22.2133  -19.8687   23.5034 C   0  0  0  0  0  0  0  0  0  0  0  0
  -22.8066  -25.9608   26.0343 C   0  0  0  0  0  0  0  0  0  0  0  0
  -23.0433  -23.4852   26.3236 C   0  0  0  0  0  0  0  0  0  0  0  0
  -20.8010  -24.4766   25.8632 C   0  0  0  0  0  0  0  0  0  0  0  0
  -22.6227  -21.3795   20.0356 C   0  0  0  0  0  0  0  0  0  0  0  0
  -33.9384  -25.9372   23.4949 C   0  0  0  0  0  0  0  0  0  0  0  0
  -30.8691  -23.8605   21.7019 C   0  0  0  0  0  0  0  0  0  0  0  0
  -28.8942  -26.1725   20.8160 C   0  0  0  0  0  0  0  0  0  1  0  0
  -22.5190  -24.3832   24.0107 C   0  0  1  0  0  0  0  0  0  0  0  0
  -22.1144  -20.9552   22.4440 C   0  0  2  0  0  0  0  0  0  0  0  0
  -22.3062  -24.5899   25.5369 C   0  0  0  0  0  0  0  0  0  0  0  0
  -26.0006  -14.3603   20.5587 N   0  0  0  0  0  0  0  0  0  0  0  0
  -32.1763  -25.9720   22.0435 N   0  0  0  0  0  0  0  0  0  0  0  0
  -25.5960  -15.5954   20.2167 N   0  0  0  0  0  0  0  0  0  0  0  0
  -22.6726  -26.2260   22.3661 N   0  0  0  0  0  0  0  0  0  0  0  0
  -28.6692  -17.8617   20.1611 N   0  0  0  0  0  0  0  0  0  0  0  0
  -23.6889  -16.9961   20.1088 N   0  0  0  0  0  0  0  0  0  0  0  0
  -22.0440  -13.1205   21.7428 N   0  0  0  0  0  0  0  0  0  0  0  0
  -28.2487  -19.4787   21.8257 N   0  0  0  0  0  0  0  0  0  0  0  0
  -29.9314  -23.7672   22.7909 N   0  0  0  0  0  0  0  0  0  0  0  0
  -21.4280  -29.5652   22.5412 N   0  0  0  0  0  0  0  0  0  0  0  0
  -22.0298  -23.1045   23.5069 N   0  0  0  0  0  0  0  0  0  0  0  0
  -22.6770  -20.4228   21.1708 N   0  3  0  0  0  0  0  0  0  0  0  0
  -21.4960  -15.2541   21.1054 O   0  0  0  0  0  0  0  0  0  0  0  0
  -30.9203  -26.5541   19.5300 O   0  0  0  0  0  0  0  0  0  0  0  0
  -23.4352  -28.6089   23.2333 O   0  0  0  0  0  0  0  0  0  0  0  0
  -20.6167  -25.5845   23.2595 O   0  0  0  0  0  0  0  0  0  0  0  0
  -24.0586  -22.3741   22.6540 O   0  0  0  0  0  0  0  0  0  0  0  0
  -29.8008  -19.8775   20.1484 O   0  0  0  0  0  0  0  0  0  0  0  0
  -29.2201  -21.6251   22.1503 O   0  0  0  0  0  0  0  0  0  0  0  0
  -24.9511   -8.4790   22.7626 O   0  0  0  0  0  0  0  0  0  0  0  0
  -28.2375  -26.9277   19.7987 O   0  0  0  0  0  0  0  0  0  1  0  0
  -32.9012  -25.1564   22.9212 O   0  0  0  0  0  0  0  0  0  0  0  0
  -20.9737   -5.1089   20.9662 F   0  0  0  0  0  0  0  0  0  0  0  0
  -22.2901   -9.0251   23.2762 F   0  0  0  0  0  0  0  0  0  0  0  0
  1  2  1  0  0  0  0
  1  5  2  0  0  0  0
  2  6  2  0  0  0  0
  3  8  2  0  0  0  0
  3 16  1  0  0  0  0
  4  9  1  0  0  0  0
  4 16  2  0  0  0  0
  5 18  1  0  0  0  0
  6 20  1  0  0  0  0
  7 10  2  0  0  0  0
  7 19  1  0  0  0  0
  8 23  1  0  0  0  0
  9 23  2  0  0  0  0
 10 24  1  0  0  0  0
 11 12  2  0  0  0  0
 11 25  1  0  0  0  0
 12 26  1  0  0  0  0
 13 21  1  0  0  0  0
 13 24  2  0  0  0  0
 14 22  1  0  0  0  0
 14 30  2  0  0  0  0
 15 26  2  0  0  0  0
 15 27  1  0  0  0  0
 16 28  1  0  0  0  0
 17 28  1  0  0  0  0
 17 29  2  0  0  0  0
 17 32  1  0  0  0  0
 18 20  2  0  0  0  0
 18 39  1  0  0  0  0
 19 21  2  0  0  0  0
 19 40  1  0  0  0  0
 20 48  1  0  0  0  0
 21 41  1  0  0  0  0
 22 31  2  0  0  0  0
 22 51  1  0  0  0  0
 23 82  1  0  0  0  0
 24 83  1  0  0  0  0
 25 27  2  0  0  0  0
 25 82  1  0  0  0  0
 26 85  1  0  0  0  0
 27 86  1  0  0  0  0
 28 63  2  0  0  0  0
 29 65  1  0  0  0  0
 29 68  1  0  0  0  0
 30 70  1  0  0  0  0
 30 81  1  0  0  0  0
 31 71  1  0  0  0  0
 31 81  1  0  0  0  0
 32 69  1  0  0  0  0
 32 75  2  0  0  0  0
 33 34  1  0  0  0  0
 33 58  1  0  0  0  0
 33 64  2  0  0  0  0
 34 59  1  0  0  0  0
 34 76  2  0  0  0  0
 35 49  1  0  0  0  0
 35 72  1  0  0  0  0
 35 77  2  0  0  0  0
 36 60  1  0  0  0  0
 36 66  1  0  0  0  0
 36 78  2  0  0  0  0
 37 61  1  0  0  0  0
 37 73  1  0  0  0  0
 37 79  2  0  0  0  0
 38 67  1  0  0  0  0
 38 70  1  0  0  0  0
 38 80  2  0  0  0  0
 39 42  1  0  0  0  0
 40 49  1  0  0  0  0
 41 66  1  0  0  0  0
 42 44  1  0  0  0  0
 43 45  1  0  0  0  0
 43 46  1  0  0  0  0
 44 48  1  0  0  0  0
 45 50  1  0  0  0  0
 46 67  1  0  0  0  0
 47 50  1  0  0  0  0
 47 67  1  0  0  0  0
 48 72  1  0  0  0  0
 49 66  1  0  0  0  0
 50 65  1  0  0  0  0
 52 61  1  0  0  0  0
 53 62  1  0  0  0  0
 54 62  1  0  0  0  0
 55 62  1  0  0  0  0
 56 74  1  0  0  0  0
 57 84  1  0  0  0  0
 58 71  1  0  0  0  0
 59 83  1  0  0  0  0
 60 62  1  0  0  0  0
 60 73  1  0  0  0  0
 61 74  1  0  0  0  0
 63 65  1  0  0  0  0
 64 84  1  0  0  0  0
M  CHG  1  74   1
M  ISO  4  38 100  59 101  70 100  83 101
M  END
> <Batch ID>
0161

> <Smiles>
CNC(C)C(=O)NC(C(=O)N1Cc2cc([101O:1][101CH2:1]C(=O)C(CNc3oc([100NH:0][100C:0](=O)N4CCCC(n5nc(-c6ccc(Oc7ccc(F)cc7F)cc6)c(C(N)=O)c5N)C4)cc3C)=NOC)ccc2CC1C(=O)NC1CCCc2ccccc21)C(C)(C)C

> <Shape>
0.212

> <Color>
0.101

> <Negative vol penalty>
0.000

$$$$

  -OEChem-04052303533D

 86 95  0     1  0  0  0  0  0999 V2000
  -18.7408  -29.1152   23.0871 C   0  0  0  0  0  0  0  0  0  0  0  0
  -20.1067  -28.8656   23.1722 C   0  0  0  0  0  0  0  0  0  0  0  0
  -31.6493  -23.8227   17.0961 C   0  0  0  0  0  0  0  0  0  0  0  0
  -26.2114  -14.2052   21.7636 C   0  0  0  0  0  0  0  0  0  0  0  0
  -24.9871  -15.4101   20.0646 C   0  0  0  0  0  0  0  0  0  0  0  0
  -17.8981  -28.1788   22.4895 C   0  0  0  0  0  0  0  0  0  0  0  0
  -20.6307  -27.6788   22.6608 C   0  0  0  0  0  0  0  0  0  0  0  0
  -24.8550  -28.4215   19.9684 C   0  0  0  0  0  0  0  0  0  0  0  0
  -25.1733  -13.2780   21.8542 C   0  0  0  0  0  0  0  0  0  0  0  0
  -23.9489  -14.4828   20.1552 C   0  0  0  0  0  0  0  0  0  0  0  0
  -26.0358  -28.6277   20.6803 C   0  0  0  0  0  0  0  0  0  0  0  0
  -23.0043  -10.3912   22.2747 C   0  0  0  0  0  0  0  0  0  0  0  0
  -23.3441   -9.0390   22.3141 C   0  0  0  0  0  0  0  0  0  0  0  0
  -32.0833  -25.0392   17.6111 C   0  0  0  0  0  0  0  0  0  0  0  0
  -30.8547  -22.9884   17.8745 C   0  0  0  0  0  0  0  0  0  0  0  0
  -26.6505  -26.3236   20.3162 C   0  0  0  0  0  0  0  0  0  0  0  0
  -24.4084   -9.2434   20.1548 C   0  0  0  0  0  0  0  0  0  0  0  0
  -26.1182  -15.2713   20.8689 C   0  0  0  0  0  0  0  0  0  0  0  0
  -28.3110  -16.1712   19.9257 C   0  0  0  0  0  0  0  0  0  0  0  0
  -18.4134  -26.9843   21.9619 C   0  0  0  0  0  0  0  0  0  0  0  0
  -24.5574  -27.1599   19.4334 C   0  0  0  0  0  0  0  0  0  0  0  0
  -19.7940  -26.7250   22.0569 C   0  0  0  0  0  0  0  0  0  0  0  0
  -25.4664  -26.1047   19.5957 C   0  0  0  0  0  0  0  0  0  0  0  0
  -24.0421  -13.4168   21.0500 C   0  0  0  0  0  0  0  0  0  0  0  0
  -26.9324  -27.5779   20.8568 C   0  0  0  0  0  0  0  0  0  0  0  0
  -23.3664  -11.1696   21.1752 C   0  0  0  0  0  0  0  0  0  0  0  0
  -24.0462   -8.4651   21.2543 C   0  0  0  0  0  0  0  0  0  0  0  0
  -24.0685  -10.5957   20.1154 C   0  0  0  0  0  0  0  0  0  0  0  0
  -27.1900  -16.2298   20.7753 C   0  0  0  0  0  0  0  0  0  0  0  0
  -31.6982  -25.3723   18.8997 C   0  0  0  0  0  0  0  0  0  0  0  0
  -30.5248  -23.4133   19.1514 C   0  0  0  0  0  0  0  0  0  0  0  0
  -29.0231  -17.3087   20.2180 C   0  0  0  0  0  0  0  0  0  0  0  0
  -28.6759  -15.1775   18.9587 C   0  0  0  0  0  0  0  0  0  0  0  0
  -30.5106  -27.7150   21.4612 C   0  0  0  0  0  0  0  0  0  0  0  0
  -22.2438  -25.0254   19.8745 C   0  0  0  0  0  0  0  0  0  0  0  0
  -23.7049  -23.5099   17.4065 C   0  0  0  0  0  0  0  0  0  0  0  0
  -26.5522  -23.0054   15.5941 C   0  0  0  0  0  0  0  0  0  0  0  0
  -29.2640  -22.7773   21.2376 C   0  0  0  0  0  0  0  0  0  0  0  0
  -17.4568  -25.9810   21.3676 C   0  0  0  0  0  0  0  0  0  0  0  0
  -23.2920  -26.9608   18.6451 C   0  0  0  0  0  0  0  0  0  0  0  0
  -25.2034  -24.7364   19.0238 C   0  0  0  0  0  0  0  0  0  0  0  0
  -18.1426  -24.9166   20.5150 C   0  0  0  0  0  0  0  0  0  0  0  0
  -28.4963  -20.6477   23.9857 C   0  0  0  0  0  0  0  0  0  0  0  0
  -19.3657  -24.3606   21.2372 C   0  0  0  0  0  0  0  0  0  0  0  0
  -28.1802  -19.3036   23.3256 C   0  0  0  0  0  0  0  0  0  0  0  0
  -33.1318  -27.7611   21.2107 C   0  0  0  0  0  0  0  0  0  0  0  0
  -27.9943  -21.8227   23.1485 C   0  0  0  0  0  0  0  0  0  0  0  0
  -28.1216  -20.4777   21.0884 C   0  0  0  0  0  0  0  0  0  0  0  0
  -20.4035  -25.4605   21.4916 C   0  0  1  0  0  0  0  0  0  0  0  0
  -32.1259  -26.7333   19.6074 C   0  0  1  0  0  0  0  0  0  0  0  0
  -31.8054  -26.9673   21.1234 C   0  0  2  0  0  0  0  0  0  0  0  0
  -22.8490  -25.5022   18.5845 C   0  0  1  0  0  0  0  0  0  0  0  0
  -28.6653  -19.2662   21.8631 C   0  0  2  0  0  0  0  0  0  0  0  0
  -33.6418  -26.9723   19.9712 C   0  0  0  0  0  0  0  0  0  0  0  0
  -34.4651  -25.7360   20.3442 C   0  0  0  0  0  0  0  0  0  0  0  0
  -34.3939  -27.8485   18.9711 C   0  0  0  0  0  0  0  0  0  0  0  0
  -27.4476  -21.6799   13.6604 C   0  0  0  0  0  0  0  0  0  0  0  0
  -23.8341  -21.0252   19.1727 C   0  0  0  0  0  0  0  0  0  0  0  0
  -25.5338  -20.0787   17.5968 C   0  0  0  0  0  0  0  0  0  0  0  0
  -23.2279  -20.5794   16.7877 C   0  0  0  0  0  0  0  0  0  0  0  0
  -27.1839  -25.4547   14.0576 C   0  0  0  0  0  0  0  0  0  0  0  0
  -29.2117  -26.9819   21.1818 C   0  0  0  0  0  0  0  0  0  1  0  0
  -24.8097  -22.4886   17.2826 C   0  0  1  0  0  0  0  0  0  0  0  0
  -26.8032  -22.9865   14.0970 C   0  0  2  0  0  0  0  0  0  0  0  0
  -24.3557  -21.0681   17.7225 C   0  0  0  0  0  0  0  0  0  0  0  0
  -27.1860  -17.3182   21.5494 N   0  0  0  0  0  0  0  0  0  0  0  0
  -30.9274  -24.5879   19.6859 N   0  0  0  0  0  0  0  0  0  0  0  0
  -28.3132  -17.9541   21.1874 N   0  0  0  0  0  0  0  0  0  0  0  0
  -23.9494  -24.5901   18.2663 N   0  0  0  0  0  0  0  0  0  0  0  0
  -28.4972  -21.7227   21.7766 N   0  0  0  0  0  0  0  0  0  0  0  0
  -30.1811  -17.8098   19.7379 N   0  0  0  0  0  0  0  0  0  0  0  0
  -27.8314  -14.0726   18.7848 N   0  0  0  0  0  0  0  0  0  0  0  0
  -29.7149  -22.5559   19.9367 N   0  0  0  0  0  0  0  0  0  0  0  0
  -21.1397  -25.7507   20.2799 N   0  0  0  0  0  0  0  0  0  0  0  0
  -25.2832  -22.5646   15.9047 N   0  0  0  0  0  0  0  0  0  0  0  0
  -27.7047  -24.1078   13.7088 N   0  3  0  0  0  0  0  0  0  0  0  0
  -29.7283  -15.2585   18.2809 O   0  0  0  0  0  0  0  0  0  0  0  0
  -30.5037  -28.8563   21.9367 O   0  0  0  0  0  0  0  0  0  0  0  0
  -22.7407  -24.0692   20.4579 O   0  0  0  0  0  0  0  0  0  0  0  0
  -22.6661  -23.3587   16.7587 O   0  0  0  0  0  0  0  0  0  0  0  0
  -27.3986  -23.3708   16.4068 O   0  0  0  0  0  0  0  0  0  0  0  0
  -29.5260  -23.7896   21.8922 O   0  0  0  0  0  0  0  0  0  0  0  0
  -23.0290  -12.5121   21.1379 O   0  0  0  0  0  0  0  0  0  0  0  0
  -28.0854  -27.7762   21.5519 O   0  0  0  0  0  0  0  0  0  1  0  0
  -24.3739   -7.1669   21.2930 F   0  0  0  0  0  0  0  0  0  0  0  0
  -24.4203  -11.3386   19.0570 F   0  0  0  0  0  0  0  0  0  0  0  0
  1  2  1  0  0  0  0
  1  6  2  0  0  0  0
  2  7  2  0  0  0  0
  3 14  2  0  0  0  0
  3 15  1  0  0  0  0
  4  9  2  0  0  0  0
  4 18  1  0  0  0  0
  5 10  1  0  0  0  0
  5 18  2  0  0  0  0
  6 20  1  0  0  0  0
  7 22  1  0  0  0  0
  8 11  2  0  0  0  0
  8 21  1  0  0  0  0
  9 24  1  0  0  0  0
 10 24  2  0  0  0  0
 11 25  1  0  0  0  0
 12 13  2  0  0  0  0
 12 26  1  0  0  0  0
 13 27  1  0  0  0  0
 14 30  1  0  0  0  0
 15 31  2  0  0  0  0
 16 23  1  0  0  0  0
 16 25  2  0  0  0  0
 17 27  2  0  0  0  0
 17 28  1  0  0  0  0
 18 29  1  0  0  0  0
 19 29  1  0  0  0  0
 19 32  2  0  0  0  0
 19 33  1  0  0  0  0
 20 22  2  0  0  0  0
 20 39  1  0  0  0  0
 21 23  2  0  0  0  0
 21 40  1  0  0  0  0
 22 49  1  0  0  0  0
 23 41  1  0  0  0  0
 24 83  1  0  0  0  0
 25 84  1  0  0  0  0
 26 28  2  0  0  0  0
 26 83  1  0  0  0  0
 27 85  1  0  0  0  0
 28 86  1  0  0  0  0
 29 66  2  0  0  0  0
 30 50  1  0  0  0  0
 30 67  2  0  0  0  0
 31 67  1  0  0  0  0
 31 73  1  0  0  0  0
 32 68  1  0  0  0  0
 32 71  1  0  0  0  0
 33 72  1  0  0  0  0
 33 77  2  0  0  0  0
 34 51  1  0  0  0  0
 34 62  1  0  0  0  0
 34 78  2  0  0  0  0
 35 52  1  0  0  0  0
 35 74  1  0  0  0  0
 35 79  2  0  0  0  0
 36 63  1  0  0  0  0
 36 69  1  0  0  0  0
 36 80  2  0  0  0  0
 37 64  1  0  0  0  0
 37 75  1  0  0  0  0
 37 81  2  0  0  0  0
 38 70  1  0  0  0  0
 38 73  1  0  0  0  0
 38 82  2  0  0  0  0
 39 42  1  0  0  0  0
 40 52  1  0  0  0  0
 41 69  1  0  0  0  0
 42 44  1  0  0  0  0
 43 45  1  0  0  0  0
 43 47  1  0  0  0  0
 44 49  1  0  0  0  0
 45 53  1  0  0  0  0
 46 51  1  0  0  0  0
 46 54  1  0  0  0  0
 47 70  1  0  0  0  0
 48 53  1  0  0  0  0
 48 70  1  0  0  0  0
 49 74  1  0  0  0  0
 50 51  1  0  0  0  0
 50 54  1  0  0  0  0
 52 69  1  0  0  0  0
 53 68  1  0  0  0  0
 54 55  1  0  0  0  0
 54 56  1  0  0  0  0
 57 64  1  0  0  0  0
 58 65  1  0  0  0  0
 59 65  1  0  0  0  0
 60 65  1  0  0  0  0
 61 76  1  0  0  0  0
 62 84  1  0  0  0  0
 63 65  1  0  0  0  0
 63 75  1  0  0  0  0
 64 76  1  0  0  0  0
 66 68  1  0  0  0  0
M  CHG  1  76   1
M  ISO  4  38 100  62 101  73 100  84 101
M  END
> <Batch ID>
0161

> <Smiles>
CNC(C)C(=O)NC(C(=O)N1Cc2cc([101O:1][101CH2:1]C(=O)C3CC(C)(C)C3c3cccc([100NH:0][100C:0](=O)N4CCCC(n5nc(-c6ccc(Oc7ccc(F)cc7F)cc6)c(C(N)=O)c5N)C4)n3)ccc2CC1C(=O)NC1CCCc2ccccc21)C(C)(C)C

> <Shape>
0.249

> <Color>
0.063

> <Negative vol penalty>
0.000

$$$$

  -OEChem-04052303533D

 87 96  0     1  0  0  0  0  0999 V2000
  -26.0687  -38.1357   24.9967 C   0  0  0  0  0  0  0  0  0  0  0  0
  -26.4719  -36.8569   25.3676 C   0  0  0  0  0  0  0  0  0  0  0  0
  -22.8262  -11.4868   22.3562 C   0  0  0  0  0  0  0  0  0  0  0  0
  -24.6261   -9.9288   22.7682 C   0  0  0  0  0  0  0  0  0  0  0  0
  -24.8506  -38.3193   24.3436 C   0  0  0  0  0  0  0  0  0  0  0  0
  -25.6567  -35.7610   25.0866 C   0  0  0  0  0  0  0  0  0  0  0  0
  -27.2923  -20.0921   20.5069 C   0  0  0  0  0  0  0  0  0  0  0  0
  -28.0495  -30.2989   21.0455 C   0  0  0  0  0  0  0  0  0  0  0  0
  -27.3210  -18.6976   20.5234 C   0  0  0  0  0  0  0  0  0  0  0  0
  -22.1723  -11.0346   23.5023 C   0  0  0  0  0  0  0  0  0  0  0  0
  -23.9723   -9.4765   23.9144 C   0  0  0  0  0  0  0  0  0  0  0  0
  -28.5043  -29.1188   20.4568 C   0  0  0  0  0  0  0  0  0  0  0  0
  -21.4075   -7.4058   24.6661 C   0  0  0  0  0  0  0  0  0  0  0  0
  -21.3384   -6.0280   24.8717 C   0  0  0  0  0  0  0  0  0  0  0  0
  -26.2966  -28.1532   20.6613 C   0  0  0  0  0  0  0  0  0  0  0  0
  -29.6711  -18.7394   19.9646 C   0  0  0  0  0  0  0  0  0  0  0  0
  -22.5353   -6.2788   26.9554 C   0  0  0  0  0  0  0  0  0  0  0  0
  -24.0531  -10.9339   21.9892 C   0  0  0  0  0  0  0  0  0  0  0  0
  -24.2482  -11.3644   19.4823 C   0  0  0  0  0  0  0  0  0  0  0  0
  -24.0245  -37.2240   24.0458 C   0  0  0  0  0  0  0  0  0  0  0  0
  -26.7111  -30.4163   21.4307 C   0  0  0  0  0  0  0  0  0  0  0  0
  -24.4258  -35.9303   24.4301 C   0  0  0  0  0  0  0  0  0  0  0  0
  -28.4530  -20.8102   20.2192 C   0  0  0  0  0  0  0  0  0  0  0  0
  -25.8323  -29.3373   21.2400 C   0  0  0  0  0  0  0  0  0  0  0  0
  -28.5104  -18.0213   20.2523 C   0  0  0  0  0  0  0  0  0  0  0  0
  -22.7454  -10.0295   24.2814 C   0  0  0  0  0  0  0  0  0  0  0  0
  -27.6301  -28.0485   20.2654 C   0  0  0  0  0  0  0  0  0  0  0  0
  -22.0406   -8.2202   25.6051 C   0  0  0  0  0  0  0  0  0  0  0  0
  -21.9023   -5.4644   26.0163 C   0  0  0  0  0  0  0  0  0  0  0  0
  -29.6424  -20.1338   19.9480 C   0  0  0  0  0  0  0  0  0  0  0  0
  -22.6045   -7.6567   26.7497 C   0  0  0  0  0  0  0  0  0  0  0  0
  -24.7287  -11.4002   20.8050 C   0  0  0  0  0  0  0  0  0  0  0  0
  -25.2572  -11.9215   18.7352 C   0  0  0  0  0  0  0  0  0  0  0  0
  -23.0012  -10.8718   18.9744 C   0  0  0  0  0  0  0  0  0  0  0  0
  -24.0365  -32.5719   22.9394 C   0  0  0  0  0  0  0  0  0  0  0  0
  -22.7532  -31.0723   20.5910 C   0  0  0  0  0  0  0  0  0  0  0  0
  -20.8423  -30.0931   17.9402 C   0  0  0  0  0  0  0  0  0  0  0  0
  -29.6356  -15.7793   20.0203 C   0  0  0  0  0  0  0  0  0  0  0  0
  -22.6949  -37.4773   23.3806 C   0  0  0  0  0  0  0  0  0  0  0  0
  -26.1920  -31.6463   22.1247 C   0  0  0  0  0  0  0  0  0  0  0  0
  -24.4094  -29.4962   21.7016 C   0  0  0  0  0  0  0  0  0  0  0  0
  -22.0626  -36.2217   22.7855 C   0  0  0  0  0  0  0  0  0  0  0  0
  -30.0116  -12.4945   18.6991 C   0  0  0  0  0  0  0  0  0  0  0  0
  -28.7499  -22.8933   18.8134 C   0  0  0  0  0  0  0  0  0  0  0  0
  -29.3375  -22.9315   21.2785 C   0  0  0  0  0  0  0  0  0  0  0  0
  -22.1278  -35.0679   23.7811 C   0  0  0  0  0  0  0  0  0  0  0  0
  -28.6538  -11.8398   18.9634 C   0  0  0  0  0  0  0  0  0  0  0  0
  -28.6987  -24.4236   18.8039 C   0  0  0  0  0  0  0  0  0  0  0  0
  -29.2823  -24.4613   21.2662 C   0  0  0  0  0  0  0  0  0  0  0  0
  -30.4214  -13.4291   19.8359 C   0  0  0  0  0  0  0  0  0  0  0  0
  -28.0655  -13.7899   20.4593 C   0  0  0  0  0  0  0  0  0  0  0  0
  -28.4179  -22.3277   20.2042 C   0  0  0  0  0  0  0  0  0  0  0  0
  -23.5807  -34.7137   24.1207 C   0  0  1  0  0  0  0  0  0  0  0  0
  -24.7369  -31.9811   21.7511 C   0  0  1  0  0  0  0  0  0  0  0  0
  -27.5803  -12.8895   19.3116 C   0  0  2  0  0  0  0  0  0  0  0  0
  -29.6012  -25.0446   19.8805 C   0  0  0  0  0  0  0  0  0  0  0  0
  -18.4525  -29.7580   17.2518 C   0  0  0  0  0  0  0  0  0  0  0  0
  -22.6506  -28.4933   22.2164 C   0  0  0  0  0  0  0  0  0  0  0  0
  -20.7270  -27.7565   20.7933 C   0  0  0  0  0  0  0  0  0  0  0  0
  -20.5207  -29.8040   22.2032 C   0  0  0  0  0  0  0  0  0  0  0  0
  -21.0628  -32.1001   15.7763 C   0  0  0  0  0  0  0  0  0  0  0  0
  -31.8549  -25.2847   20.5022 C   0  0  0  0  0  0  0  0  0  0  0  0
  -29.4524  -26.5672   19.8878 C   0  0  0  0  0  0  0  0  0  1  0  0
  -21.9745  -29.8642   20.1356 C   0  0  1  0  0  0  0  0  0  0  0  0
  -19.6261  -30.7246   17.2871 C   0  0  2  0  0  0  0  0  0  0  0  0
  -21.4932  -28.9864   21.3253 C   0  0  0  0  0  0  0  0  0  0  0  0
  -25.9482  -11.9374   20.8962 N   0  0  0  0  0  0  0  0  0  0  0  0
  -26.2425  -12.2442   19.6213 N   0  0  0  0  0  0  0  0  0  0  0  0
  -23.9107  -30.8327   21.3415 N   0  0  0  0  0  0  0  0  0  0  0  0
  -29.3579  -14.3987   20.1071 N   0  0  0  0  0  0  0  0  0  0  0  0
  -25.3888  -12.1617   17.4134 N   0  0  0  0  0  0  0  0  0  0  0  0
  -22.0776  -10.3317   19.8797 N   0  0  0  0  0  0  0  0  0  0  0  0
  -28.5391  -16.6047   20.2671 N   0  0  0  0  0  0  0  0  0  0  0  0
  -24.1760  -33.9421   23.0508 N   0  0  0  0  0  0  0  0  0  0  0  0
  -20.8974  -30.3676   19.2903 N   0  0  0  0  0  0  0  0  0  0  0  0
  -19.9418  -31.1317   15.8887 N   0  3  0  0  0  0  0  0  0  0  0  0
  -22.7212  -10.8944   17.7518 O   0  0  0  0  0  0  0  0  0  0  0  0
  -23.4136  -31.8396   23.6993 O   0  0  0  0  0  0  0  0  0  0  0  0
  -22.3455  -32.1992   20.2956 O   0  0  0  0  0  0  0  0  0  0  0  0
  -21.6597  -29.4203   17.3158 O   0  0  0  0  0  0  0  0  0  0  0  0
  -30.7566  -16.1981   19.7203 O   0  0  0  0  0  0  0  0  0  0  0  0
  -22.1077   -9.5881   25.4000 O   0  0  0  0  0  0  0  0  0  0  0  0
  -28.0797  -26.9010   19.6859 O   0  0  0  0  0  0  0  0  0  1  0  0
  -30.9589  -24.7406   19.5475 O   0  0  0  0  0  0  0  0  0  0  0  0
  -21.8345   -4.1414   26.2144 F   0  0  0  0  0  0  0  0  0  0  0  0
  -30.7628  -20.8151   19.6706 F   0  0  0  0  0  0  0  0  0  0  0  0
  -23.2129   -8.4341   27.6560 F   0  0  0  0  0  0  0  0  0  0  0  0
  1  2  1  0  0  0  0
  1  5  2  0  0  0  0
  2  6  2  0  0  0  0
  3 10  2  0  0  0  0
  3 18  1  0  0  0  0
  4 11  1  0  0  0  0
  4 18  2  0  0  0  0
  5 20  1  0  0  0  0
  6 22  1  0  0  0  0
  7  9  2  0  0  0  0
  7 23  1  0  0  0  0
  8 12  2  0  0  0  0
  8 21  1  0  0  0  0
  9 25  1  0  0  0  0
 10 26  1  0  0  0  0
 11 26  2  0  0  0  0
 12 27  1  0  0  0  0
 13 14  2  0  0  0  0
 13 28  1  0  0  0  0
 14 29  1  0  0  0  0
 15 24  1  0  0  0  0
 15 27  2  0  0  0  0
 16 25  2  0  0  0  0
 16 30  1  0  0  0  0
 17 29  2  0  0  0  0
 17 31  1  0  0  0  0
 18 32  1  0  0  0  0
 19 32  1  0  0  0  0
 19 33  2  0  0  0  0
 19 34  1  0  0  0  0
 20 22  2  0  0  0  0
 20 39  1  0  0  0  0
 21 24  2  0  0  0  0
 21 40  1  0  0  0  0
 22 53  1  0  0  0  0
 23 30  2  0  0  0  0
 23 52  1  0  0  0  0
 24 41  1  0  0  0  0
 25 73  1  0  0  0  0
 26 82  1  0  0  0  0
 27 83  1  0  0  0  0
 28 31  2  0  0  0  0
 28 82  1  0  0  0  0
 29 85  1  0  0  0  0
 30 86  1  0  0  0  0
 31 87  1  0  0  0  0
 32 67  2  0  0  0  0
 33 68  1  0  0  0  0
 33 71  1  0  0  0  0
 34 72  1  0  0  0  0
 34 77  2  0  0  0  0
 35 54  1  0  0  0  0
 35 74  1  0  0  0  0
 35 78  2  0  0  0  0
 36 64  1  0  0  0  0
 36 69  1  0  0  0  0
 36 79  2  0  0  0  0
 37 65  1  0  0  0  0
 37 75  1  0  0  0  0
 37 80  2  0  0  0  0
 38 70  1  0  0  0  0
 38 73  1  0  0  0  0
 38 81  2  0  0  0  0
 39 42  1  0  0  0  0
 40 54  1  0  0  0  0
 41 69  1  0  0  0  0
 42 46  1  0  0  0  0
 43 47  1  0  0  0  0
 43 50  1  0  0  0  0
 44 48  1  0  0  0  0
 44 52  1  0  0  0  0
 45 49  1  0  0  0  0
 45 52  1  0  0  0  0
 46 53  1  0  0  0  0
 47 55  1  0  0  0  0
 48 56  1  0  0  0  0
 49 56  1  0  0  0  0
 50 70  1  0  0  0  0
 51 55  1  0  0  0  0
 51 70  1  0  0  0  0
 53 74  1  0  0  0  0
 54 69  1  0  0  0  0
 55 68  1  0  0  0  0
 56 63  1  0  0  0  0
 56 84  1  0  0  0  0
 57 65  1  0  0  0  0
 58 66  1  0  0  0  0
 59 66  1  0  0  0  0
 60 66  1  0  0  0  0
 61 76  1  0  0  0  0
 62 84  1  0  0  0  0
 63 83  1  0  0  0  0
 64 66  1  0  0  0  0
 64 75  1  0  0  0  0
 65 76  1  0  0  0  0
 67 68  1  0  0  0  0
M  CHG  1  76   1
M  ISO  4  38 100  63 101  73 100  83 101
M  END
> <Batch ID>
0161

> <Smiles>
CNC(C)C(=O)NC(C(=O)N1Cc2cc([101O:1][101CH2:1]C3(OC)CCC(c4ccc([100NH:0][100C:0](=O)N5CCCC(n6nc(-c7ccc(Oc8ccc(F)cc8F)cc7)c(C(N)=O)c6N)C5)cc4F)CC3)ccc2CC1C(=O)NC1CCCc2ccccc21)C(C)(C)C

> <Shape>
0.331

> <Color>
0.098

> <Negative vol penalty>
0.000

$$$$

  -OEChem-04052303533D

 80 87  0     1  0  0  0  0  0999 V2000
  -26.1013  -37.5659   19.8462 C   0  0  0  0  0  0  0  0  0  0  0  0
  -26.6707  -36.3517   19.4761 C   0  0  0  0  0  0  0  0  0  0  0  0
  -26.1978  -13.2433   21.7724 C   0  0  0  0  0  0  0  0  0  0  0  0
  -26.0496  -13.2444   19.3610 C   0  0  0  0  0  0  0  0  0  0  0  0
  -25.5021  -37.7007   21.0979 C   0  0  0  0  0  0  0  0  0  0  0  0
  -26.6420  -35.2719   20.3579 C   0  0  0  0  0  0  0  0  0  0  0  0
  -26.0940  -29.3473   18.9070 C   0  0  0  0  0  0  0  0  0  0  0  0
  -24.9613  -12.6023   21.8482 C   0  0  0  0  0  0  0  0  0  0  0  0
  -24.8130  -12.6033   19.4367 C   0  0  0  0  0  0  0  0  0  0  0  0
  -27.0314  -28.3243   18.7711 C   0  0  0  0  0  0  0  0  0  0  0  0
  -23.6620   -9.4681   19.9526 C   0  0  0  0  0  0  0  0  0  0  0  0
  -23.4364   -8.3946   19.0911 C   0  0  0  0  0  0  0  0  0  0  0  0
  -26.5861  -27.6236   21.0361 C   0  0  0  0  0  0  0  0  0  0  0  0
  -21.5601   -9.5675   18.1210 C   0  0  0  0  0  0  0  0  0  0  0  0
  -26.7420  -13.5644   20.5288 C   0  0  0  0  0  0  0  0  0  0  0  0
  -29.2875  -13.6215   20.3715 C   0  0  0  0  0  0  0  0  0  0  0  0
  -25.4575  -36.6192   21.9917 C   0  0  0  0  0  0  0  0  0  0  0  0
  -25.4024  -29.5232   20.1142 C   0  0  0  0  0  0  0  0  0  0  0  0
  -26.0428  -35.3928   21.6233 C   0  0  0  0  0  0  0  0  0  0  0  0
  -25.6386  -28.6480   21.1839 C   0  0  0  0  0  0  0  0  0  0  0  0
  -24.2689  -12.2823   20.6803 C   0  0  0  0  0  0  0  0  0  0  0  0
  -27.2797  -27.4640   19.8367 C   0  0  0  0  0  0  0  0  0  0  0  0
  -22.8366  -10.5913   19.8984 C   0  0  0  0  0  0  0  0  0  0  0  0
  -22.3855   -8.4443   18.1752 C   0  0  0  0  0  0  0  0  0  0  0  0
  -21.7857  -10.6410   18.9826 C   0  0  0  0  0  0  0  0  0  0  0  0
  -28.0190  -14.2270   20.4499 C   0  0  0  0  0  0  0  0  0  0  0  0
  -30.1677  -14.6745   20.3170 C   0  0  0  0  0  0  0  0  0  0  0  0
  -29.6387  -12.2316   20.3497 C   0  0  0  0  0  0  0  0  0  0  0  0
  -25.2073  -31.8519   22.2689 C   0  0  0  0  0  0  0  0  0  0  0  0
  -22.9343  -29.9335   23.5636 C   0  0  0  0  0  0  0  0  0  0  0  0
  -29.5462  -22.6583   17.6184 C   0  0  0  0  0  0  0  0  0  0  0  0
  -21.6540  -26.7899   23.9167 C   0  0  0  0  0  0  0  0  0  0  0  0
  -29.2531  -20.2771   18.4217 C   0  0  0  0  0  0  0  0  0  0  0  0
  -24.8406  -36.8268   23.3522 C   0  0  0  0  0  0  0  0  0  0  0  0
  -24.3749  -30.6150   20.2358 C   0  0  0  0  0  0  0  0  0  0  0  0
  -24.9079  -28.7817   22.4941 C   0  0  0  0  0  0  0  0  0  0  0  0
  -24.5212  -35.5242   24.0813 C   0  0  0  0  0  0  0  0  0  0  0  0
  -30.7021  -19.2039   21.6724 C   0  0  0  0  0  0  0  0  0  0  0  0
  -25.7022  -34.5624   23.9982 C   0  0  0  0  0  0  0  0  0  0  0  0
  -30.2066  -17.7641   21.7418 C   0  0  0  0  0  0  0  0  0  0  0  0
  -29.7300  -20.1173   20.9263 C   0  0  0  0  0  0  0  0  0  0  0  0
  -28.8804  -18.1682   19.6369 C   0  0  0  0  0  0  0  0  0  0  0  0
  -26.0098  -34.1911   22.5425 C   0  0  1  0  0  0  0  0  0  0  0  0
  -24.1023  -31.0205   21.6810 C   0  0  1  0  0  0  0  0  0  0  0  0
  -29.8856  -17.2412   20.3348 C   0  0  2  0  0  0  0  0  0  0  0  0
  -27.6751  -22.4669   15.9963 C   0  0  0  0  0  0  0  0  0  0  0  0
  -19.8138  -25.5301   25.0674 C   0  0  0  0  0  0  0  0  0  0  0  0
  -24.4649  -30.1085   26.1974 C   0  0  0  0  0  0  0  0  0  0  0  0
  -23.1601  -28.1308   27.0065 C   0  0  0  0  0  0  0  0  0  0  0  0
  -21.9783  -30.2491   26.4244 C   0  0  0  0  0  0  0  0  0  0  0  0
  -30.9535  -26.3425   20.6787 C   0  0  0  0  0  0  0  0  0  0  0  0
  -31.6950  -26.2275   18.2926 C   0  0  0  0  0  0  0  0  0  0  0  0
  -20.4885  -25.9105   21.3423 C   0  0  0  0  0  0  0  0  0  0  0  0
  -29.1789  -22.3760   16.2041 C   0  0  0  0  0  0  0  0  0  0  0  0
  -30.2728  -24.3881   19.2871 C   0  0  0  0  0  0  0  0  0  0  0  0
  -29.2881  -26.6957   18.8207 C   0  0  0  0  0  0  0  0  0  1  0  0
  -22.9306  -28.8126   24.5747 C   0  0  1  0  0  0  0  0  0  0  0  0
  -20.2355  -26.2612   23.8023 C   0  0  2  0  0  0  0  0  0  0  0  0
  -23.1488  -29.3237   26.0268 C   0  0  0  0  0  0  0  0  0  0  0  0
  -30.5409  -25.9068   19.2589 C   0  0  0  0  0  0  0  0  0  0  0  0
  -28.0833  -15.5611   20.4461 N   0  0  0  0  0  0  0  0  0  0  0  0
  -29.4028  -15.8026   20.3646 N   0  0  0  0  0  0  0  0  0  0  0  0
  -23.9175  -29.8687   22.5661 N   0  0  0  0  0  0  0  0  0  0  0  0
  -29.3345  -19.5634   19.6236 N   0  0  0  0  0  0  0  0  0  0  0  0
  -31.5137  -14.7361   20.2335 N   0  0  0  0  0  0  0  0  0  0  0  0
  -28.6102  -11.2815   20.4132 N   0  0  0  0  0  0  0  0  0  0  0  0
  -25.0616  -33.2101   22.0599 N   0  0  0  0  0  0  0  0  0  0  0  0
  -29.5581  -21.6884   18.5418 N   0  0  0  0  0  0  0  0  0  0  0  0
  -21.6792  -28.0892   24.3776 N   0  0  0  0  0  0  0  0  0  0  0  0
  -29.8825  -23.9084   17.9576 N   0  3  0  0  0  0  0  0  0  0  0  0
  -20.1257  -25.3167   22.6548 N   0  3  0  0  0  0  0  0  0  0  0  0
  -30.8302  -11.8436   20.2926 O   0  0  0  0  0  0  0  0  0  0  0  0
  -26.1233  -31.3020   22.8690 O   0  0  0  0  0  0  0  0  0  0  0  0
  -22.0913  -30.8298   23.6512 O   0  0  0  0  0  0  0  0  0  0  0  0
  -22.6411  -26.1162   23.6296 O   0  0  0  0  0  0  0  0  0  0  0  0
  -28.9210  -19.7978   17.3437 O   0  0  0  0  0  0  0  0  0  0  0  0
  -23.0624  -11.6566   20.7539 O   0  0  0  0  0  0  0  0  0  0  0  0
  -28.2011  -26.4580   19.7060 O   0  0  0  0  0  0  0  0  0  1  0  0
  -22.1699   -7.4140   17.3469 F   0  0  0  0  0  0  0  0  0  0  0  0
  -20.9902  -11.7179   18.9250 F   0  0  0  0  0  0  0  0  0  0  0  0
  1  2  1  0  0  0  0
  1  5  2  0  0  0  0
  2  6  2  0  0  0  0
  3  8  2  0  0  0  0
  3 15  1  0  0  0  0
  4  9  1  0  0  0  0
  4 15  2  0  0  0  0
  5 17  1  0  0  0  0
  6 19  1  0  0  0  0
  7 10  2  0  0  0  0
  7 18  1  0  0  0  0
  8 21  1  0  0  0  0
  9 21  2  0  0  0  0
 10 22  1  0  0  0  0
 11 12  2  0  0  0  0
 11 23  1  0  0  0  0
 12 24  1  0  0  0  0
 13 20  1  0  0  0  0
 13 22  2  0  0  0  0
 14 24  2  0  0  0  0
 14 25  1  0  0  0  0
 15 26  1  0  0  0  0
 16 26  1  0  0  0  0
 16 27  2  0  0  0  0
 16 28  1  0  0  0  0
 17 19  2  0  0  0  0
 17 34  1  0  0  0  0
 18 20  2  0  0  0  0
 18 35  1  0  0  0  0
 19 43  1  0  0  0  0
 20 36  1  0  0  0  0
 21 77  1  0  0  0  0
 22 78  1  0  0  0  0
 23 25  2  0  0  0  0
 23 77  1  0  0  0  0
 24 79  1  0  0  0  0
 25 80  1  0  0  0  0
 26 61  2  0  0  0  0
 27 62  1  0  0  0  0
 27 65  1  0  0  0  0
 28 66  1  0  0  0  0
 28 72  2  0  0  0  0
 29 44  1  0  0  0  0
 29 67  1  0  0  0  0
 29 73  2  0  0  0  0
 30 57  1  0  0  0  0
 30 63  1  0  0  0  0
 30 74  2  0  0  0  0
 31 54  1  0  0  0  0
 31 68  1  0  0  0  0
 31 70  2  0  0  0  0
 32 58  1  0  0  0  0
 32 69  1  0  0  0  0
 32 75  2  0  0  0  0
 33 64  1  0  0  0  0
 33 68  1  0  0  0  0
 33 76  2  0  0  0  0
 34 37  1  0  0  0  0
 35 44  1  0  0  0  0
 36 63  1  0  0  0  0
 37 39  1  0  0  0  0
 38 40  1  0  0  0  0
 38 41  1  0  0  0  0
 39 43  1  0  0  0  0
 40 45  1  0  0  0  0
 41 64  1  0  0  0  0
 42 45  1  0  0  0  0
 42 64  1  0  0  0  0
 43 67  1  0  0  0  0
 44 63  1  0  0  0  0
 45 62  1  0  0  0  0
 46 54  1  0  0  0  0
 47 58  1  0  0  0  0
 48 59  1  0  0  0  0
 49 59  1  0  0  0  0
 50 59  1  0  0  0  0
 51 60  1  0  0  0  0
 52 60  1  0  0  0  0
 53 71  1  0  0  0  0
 55 60  1  0  0  0  0
 55 70  1  0  0  0  0
 56 60  1  0  0  0  0
 56 78  1  0  0  0  0
 57 59  1  0  0  0  0
 57 69  1  0  0  0  0
 58 71  1  0  0  0  0
 61 62  1  0  0  0  0
M  CHG  2  70   1  71   1
M  ISO  4  33 100  56 101  68 100  78 101
M  END
> <Batch ID>
0161

> <Smiles>
CCC(=NCC(C)(C)[101CH2:1][101O:1]c1ccc2c(c1)CN(C(=O)C(NC(=O)C(C)NC)C(C)(C)C)C(C(=O)NC1CCCc3ccccc31)C2)[100NH:0][100C:0](=O)N1CCCC(n2nc(-c3ccc(Oc4ccc(F)cc4F)cc3)c(C(N)=O)c2N)C1

> <Shape>
0.315

> <Color>
0.082

> <Negative vol penalty>
0.000

$$$$

  -OEChem-04052303533D

 82 90  0     1  0  0  0  0  0999 V2000
  -26.4997   -8.8050   23.0566 C   0  0  0  0  0  0  0  0  0  0  0  0
  -27.3610   -9.8561   22.7587 C   0  0  0  0  0  0  0  0  0  0  0  0
  -19.8553  -28.8234   23.6115 C   0  0  0  0  0  0  0  0  0  0  0  0
  -20.6003  -26.8132   22.4974 C   0  0  0  0  0  0  0  0  0  0  0  0
  -25.1677   -8.8597   22.6483 C   0  0  0  0  0  0  0  0  0  0  0  0
  -26.8911  -10.9621   22.0513 C   0  0  0  0  0  0  0  0  0  0  0  0
  -28.6326  -16.7915   22.7516 C   0  0  0  0  0  0  0  0  0  0  0  0
  -18.5508  -28.5772   23.1836 C   0  0  0  0  0  0  0  0  0  0  0  0
  -19.2957  -26.5669   22.0695 C   0  0  0  0  0  0  0  0  0  0  0  0
  -29.5334  -17.5920   22.0505 C   0  0  0  0  0  0  0  0  0  0  0  0
  -16.4406  -25.3193   23.3781 C   0  0  0  0  0  0  0  0  0  0  0  0
  -15.9532  -24.0186   23.5052 C   0  0  0  0  0  0  0  0  0  0  0  0
  -27.7135  -18.4832   20.7417 C   0  0  0  0  0  0  0  0  0  0  0  0
  -28.8949  -25.4943   19.1666 C   0  0  0  0  0  0  0  0  0  0  0  0
  -15.6110  -23.9132   21.1159 C   0  0  0  0  0  0  0  0  0  0  0  0
  -28.2323  -24.5630   17.1428 C   0  0  0  0  0  0  0  0  0  0  0  0
  -20.8801  -27.9415   23.2684 C   0  0  0  0  0  0  0  0  0  0  0  0
  -22.8285  -27.7558   24.9045 C   0  0  0  0  0  0  0  0  0  0  0  0
  -24.6788   -9.9713   21.9440 C   0  0  0  0  0  0  0  0  0  0  0  0
  -27.2645  -16.8228   22.4451 C   0  0  0  0  0  0  0  0  0  0  0  0
  -25.5516  -11.0311   21.6320 C   0  0  0  0  0  0  0  0  0  0  0  0
  -26.7970  -17.6840   21.4421 C   0  0  0  0  0  0  0  0  0  0  0  0
  -28.7113  -24.3024   18.4078 C   0  0  0  0  0  0  0  0  0  0  0  0
  -18.2710  -27.4489   22.4126 C   0  0  0  0  0  0  0  0  0  0  0  0
  -29.0743  -18.4359   21.0435 C   0  0  0  0  0  0  0  0  0  0  0  0
  -16.5132  -25.9170   22.1198 C   0  0  0  0  0  0  0  0  0  0  0  0
  -15.5384  -23.3155   22.3742 C   0  0  0  0  0  0  0  0  0  0  0  0
  -16.0984  -25.2139   20.9887 C   0  0  0  0  0  0  0  0  0  0  0  0
  -22.2280  -28.1957   23.7096 C   0  0  0  0  0  0  0  0  0  0  0  0
  -28.5494  -26.6206   18.4524 C   0  0  0  0  0  0  0  0  0  0  0  0
  -24.1060  -28.2575   24.8516 C   0  0  0  0  0  0  0  0  0  0  0  0
  -30.2087  -22.8119   19.2613 C   0  0  0  0  0  0  0  0  0  0  0  0
  -22.2806  -26.9644   25.9671 C   0  0  0  0  0  0  0  0  0  0  0  0
  -30.5772  -21.4653   19.7937 C   0  0  0  0  0  0  0  0  0  0  0  0
  -25.1546  -14.6962   21.3824 C   0  0  0  0  0  0  0  0  0  0  0  0
  -27.5880  -29.8901   20.2340 C   0  0  0  0  0  0  0  0  0  0  0  0
  -23.0461  -17.1035   21.9127 C   0  0  0  0  0  0  0  0  0  0  0  0
  -22.4971  -20.4569   22.2296 C   0  0  0  0  0  0  0  0  0  0  0  0
  -23.2430   -9.9641   21.4824 C   0  0  0  0  0  0  0  0  0  0  0  0
  -26.3023  -15.9729   23.2287 C   0  0  0  0  0  0  0  0  0  0  0  0
  -25.3356  -17.7698   21.0883 C   0  0  0  0  0  0  0  0  0  0  0  0
  -22.7310  -11.3397   21.0632 C   0  0  0  0  0  0  0  0  0  0  0  0
  -26.6410  -31.8860   23.0552 C   0  0  0  0  0  0  0  0  0  0  0  0
  -23.7439  -12.0331   20.1576 C   0  0  0  0  0  0  0  0  0  0  0  0
  -25.4389  -31.1412   23.6346 C   0  0  0  0  0  0  0  0  0  0  0  0
  -26.6786  -31.7871   21.5334 C   0  0  0  0  0  0  0  0  0  0  0  0
  -25.4521  -29.6391   21.5928 C   0  0  0  0  0  0  0  0  0  0  0  0
  -25.0731  -12.2590   20.8881 C   0  0  1  0  0  0  0  0  0  0  0  0
  -24.9978  -15.7058   22.4841 C   0  0  1  0  0  0  0  0  0  0  0  0
  -25.3933  -29.6880   23.1299 C   0  0  2  0  0  0  0  0  0  0  0  0
  -20.6635  -22.1243   22.6228 C   0  0  0  0  0  0  0  0  0  0  0  0
  -22.1113  -16.7519   19.0295 C   0  0  0  0  0  0  0  0  0  0  0  0
  -21.0079  -18.9937   19.1873 C   0  0  0  0  0  0  0  0  0  0  0  0
  -20.2742  -17.1365   20.6822 C   0  0  0  0  0  0  0  0  0  0  0  0
  -23.7550  -21.4250   24.7274 C   0  0  0  0  0  0  0  0  0  0  0  0
  -28.5972  -28.0346   18.8835 C   0  0  0  0  0  0  0  0  0  0  0  0
  -29.4598  -20.4605   19.8568 C   0  0  0  0  0  0  0  0  0  1  0  0
  -27.4532  -28.4440   19.8279 C   0  0  0  0  0  0  0  0  0  0  0  0
  -22.5058  -18.2511   21.0942 C   0  0  1  0  0  0  0  0  0  0  0  0
  -21.7345  -21.2590   23.2685 C   0  0  2  0  0  0  0  0  0  0  0  0
  -21.5026  -17.7805   20.0034 C   0  0  0  0  0  0  0  0  0  0  0  0
  -23.0559  -28.9212   22.9531 N   0  0  0  0  0  0  0  0  0  0  0  0
  -28.9893  -23.0168   18.9016 N   0  0  0  0  0  0  0  0  0  0  0  0
  -24.1896  -28.9411   23.6744 N   0  0  0  0  0  0  0  0  0  0  0  0
  -24.4349  -16.9145   21.8787 N   0  0  0  0  0  0  0  0  0  0  0  0
  -26.6108  -30.3924   21.0935 N   0  0  0  0  0  0  0  0  0  0  0  0
  -25.1547  -28.1764   25.6978 N   0  0  0  0  0  0  0  0  0  0  0  0
  -20.9518  -26.5316   25.8611 N   0  0  0  0  0  0  0  0  0  0  0  0
  -24.9700  -13.3881   21.7876 N   0  0  0  0  0  0  0  0  0  0  0  0
  -21.9484  -19.2051   22.0468 N   0  0  0  0  0  0  0  0  0  0  0  0
  -22.6642  -22.1465   24.0227 N   0  3  0  0  0  0  0  0  0  0  0  0
  -22.9445  -26.6642   26.9882 O   0  0  0  0  0  0  0  0  0  0  0  0
  -31.7371  -21.2712   20.1213 O   0  0  0  0  0  0  0  0  0  0  0  0
  -25.4218  -15.0760   20.2483 O   0  0  0  0  0  0  0  0  0  0  0  0
  -28.5358  -30.5509   19.8014 O   0  0  0  0  0  0  0  0  0  0  0  0
  -22.2653  -16.4050   22.5640 O   0  0  0  0  0  0  0  0  0  0  0  0
  -23.4791  -20.8980   21.6365 O   0  0  0  0  0  0  0  0  0  0  0  0
  -16.9981  -27.2081   21.9951 O   0  0  0  0  0  0  0  0  0  0  0  0
  -29.9515  -19.2179   20.3572 O   0  0  0  0  0  0  0  0  0  1  0  0
  -15.0718  -22.0659   22.4963 F   0  0  0  0  0  0  0  0  0  0  0  0
  -16.1669  -25.7825   19.7772 F   0  0  0  0  0  0  0  0  0  0  0  0
  -28.0059  -26.2389   16.8741 S   0  0  0  0  0  0  0  0  0  0  0  0
  1  2  1  0  0  0  0
  1  5  2  0  0  0  0
  2  6  2  0  0  0  0
  3  8  2  0  0  0  0
  3 17  1  0  0  0  0
  4  9  1  0  0  0  0
  4 17  2  0  0  0  0
  5 19  1  0  0  0  0
  6 21  1  0  0  0  0
  7 10  2  0  0  0  0
  7 20  1  0  0  0  0
  8 24  1  0  0  0  0
  9 24  2  0  0  0  0
 10 25  1  0  0  0  0
 11 12  2  0  0  0  0
 11 26  1  0  0  0  0
 12 27  1  0  0  0  0
 13 22  1  0  0  0  0
 13 25  2  0  0  0  0
 14 23  1  0  0  0  0
 14 30  2  0  0  0  0
 15 27  2  0  0  0  0
 15 28  1  0  0  0  0
 16 23  2  0  0  0  0
 16 82  1  0  0  0  0
 17 29  1  0  0  0  0
 18 29  1  0  0  0  0
 18 31  2  0  0  0  0
 18 33  1  0  0  0  0
 19 21  2  0  0  0  0
 19 39  1  0  0  0  0
 20 22  2  0  0  0  0
 20 40  1  0  0  0  0
 21 48  1  0  0  0  0
 22 41  1  0  0  0  0
 23 63  1  0  0  0  0
 24 78  1  0  0  0  0
 25 79  1  0  0  0  0
 26 28  2  0  0  0  0
 26 78  1  0  0  0  0
 27 80  1  0  0  0  0
 28 81  1  0  0  0  0
 29 62  2  0  0  0  0
 30 56  1  0  0  0  0
 30 82  1  0  0  0  0
 31 64  1  0  0  0  0
 31 67  1  0  0  0  0
 32 34  1  0  0  0  0
 32 63  2  0  0  0  0
 33 68  1  0  0  0  0
 33 72  2  0  0  0  0
 34 57  1  0  0  0  0
 34 73  2  0  0  0  0
 35 49  1  0  0  0  0
 35 69  1  0  0  0  0
 35 74  2  0  0  0  0
 36 58  1  0  0  0  0
 36 66  1  0  0  0  0
 36 75  2  0  0  0  0
 37 59  1  0  0  0  0
 37 65  1  0  0  0  0
 37 76  2  0  0  0  0
 38 60  1  0  0  0  0
 38 70  1  0  0  0  0
 38 77  2  0  0  0  0
 39 42  1  0  0  0  0
 40 49  1  0  0  0  0
 41 65  1  0  0  0  0
 42 44  1  0  0  0  0
 43 45  1  0  0  0  0
 43 46  1  0  0  0  0
 44 48  1  0  0  0  0
 45 50  1  0  0  0  0
 46 66  1  0  0  0  0
 47 50  1  0  0  0  0
 47 66  1  0  0  0  0
 48 69  1  0  0  0  0
 49 65  1  0  0  0  0
 50 64  1  0  0  0  0
 51 60  1  0  0  0  0
 52 61  1  0  0  0  0
 53 61  1  0  0  0  0
 54 61  1  0  0  0  0
 55 71  1  0  0  0  0
 56 58  1  0  0  0  0
 57 79  1  0  0  0  0
 59 61  1  0  0  0  0
 59 70  1  0  0  0  0
 60 71  1  0  0  0  0
 62 64  1  0  0  0  0
M  CHG  1  71   1
M  ISO  4  36 100  57 101  58 100  79 101
M  END
> <Batch ID>
0161

> <Smiles>
CNC(C)C(=O)NC(C(=O)N1Cc2cc([101O:1][101CH2:1]C(=O)CNc3csc(C=[100CH:0][100C:0](=O)N4CCCC(n5nc(-c6ccc(Oc7ccc(F)cc7F)cc6)c(C(N)=O)c5N)C4)c3)ccc2CC1C(=O)NC1CCCc2ccccc21)C(C)(C)C

> <Shape>
0.214

> <Color>
0.076

> <Negative vol penalty>
0.000

$$$$

  -OEChem-04052303533D

 83 92  0     1  0  0  0  0  0999 V2000
  -27.5659  -34.6184   22.6154 C   0  0  0  0  0  0  0  0  0  0  0  0
  -27.8027  -33.2479   22.5815 C   0  0  0  0  0  0  0  0  0  0  0  0
  -24.1064  -11.7283   24.0037 C   0  0  0  0  0  0  0  0  0  0  0  0
  -24.0480  -14.1430   23.9472 C   0  0  0  0  0  0  0  0  0  0  0  0
  -26.3060  -35.0983   22.9707 C   0  0  0  0  0  0  0  0  0  0  0  0
  -26.7800  -32.3566   22.9040 C   0  0  0  0  0  0  0  0  0  0  0  0
  -26.4885  -28.4785   19.6605 C   0  0  0  0  0  0  0  0  0  0  0  0
  -23.5803  -11.7458   25.2954 C   0  0  0  0  0  0  0  0  0  0  0  0
  -23.5218  -14.1605   25.2389 C   0  0  0  0  0  0  0  0  0  0  0  0
  -27.4202  -27.4522   19.8098 C   0  0  0  0  0  0  0  0  0  0  0  0
  -20.5182  -13.6763   26.7100 C   0  0  0  0  0  0  0  0  0  0  0  0
  -19.4435  -14.5299   26.9589 C   0  0  0  0  0  0  0  0  0  0  0  0
  -25.7678  -26.1284   20.9658 C   0  0  0  0  0  0  0  0  0  0  0  0
  -20.7485  -15.6852   28.6320 C   0  0  0  0  0  0  0  0  0  0  0  0
  -31.7474  -17.8362   18.9781 C   0  0  0  0  0  0  0  0  0  0  0  0
  -24.3403  -12.9269   23.3296 C   0  0  0  0  0  0  0  0  0  0  0  0
  -24.1665  -12.8640   20.7853 C   0  0  0  0  0  0  0  0  0  0  0  0
  -25.2646  -34.2122   23.2883 C   0  0  0  0  0  0  0  0  0  0  0  0
  -25.1905  -28.3416   20.1732 C   0  0  0  0  0  0  0  0  0  0  0  0
  -25.5054  -32.8252   23.2651 C   0  0  0  0  0  0  0  0  0  0  0  0
  -24.8207  -27.1534   20.8195 C   0  0  0  0  0  0  0  0  0  0  0  0
  -23.2880  -12.9619   25.9130 C   0  0  0  0  0  0  0  0  0  0  0  0
  -27.0608  -26.2780   20.4650 C   0  0  0  0  0  0  0  0  0  0  0  0
  -21.7080  -13.8271   27.4222 C   0  0  0  0  0  0  0  0  0  0  0  0
  -19.5586  -15.5343   27.9198 C   0  0  0  0  0  0  0  0  0  0  0  0
  -21.8232  -14.8315   28.3831 C   0  0  0  0  0  0  0  0  0  0  0  0
  -24.8843  -12.9095   21.9955 C   0  0  0  0  0  0  0  0  0  0  0  0
  -25.1350  -12.8655   19.8114 C   0  0  0  0  0  0  0  0  0  0  0  0
  -30.5835  -17.3748   19.5411 C   0  0  0  0  0  0  0  0  0  0  0  0
  -30.5408  -19.5083   19.3921 C   0  0  0  0  0  0  0  0  0  0  0  0
  -29.2917  -23.0200   18.3550 C   0  0  0  0  0  0  0  0  0  0  0  0
  -29.4109  -23.7192   19.4969 C   0  0  0  0  0  0  0  0  0  0  0  0
  -22.7509  -12.8241   20.5615 C   0  0  0  0  0  0  0  0  0  0  0  0
  -23.4675  -29.8798   22.3571 C   0  0  0  0  0  0  0  0  0  0  0  0
  -21.1055  -27.9184   21.3099 C   0  0  0  0  0  0  0  0  0  0  0  0
  -20.2318  -24.9876   19.7955 C   0  0  0  0  0  0  0  0  0  0  0  0
  -30.7639  -14.8646   19.6551 C   0  0  0  0  0  0  0  0  0  0  0  0
  -23.9329  -34.7792   23.7122 C   0  0  0  0  0  0  0  0  0  0  0  0
  -24.1891  -29.4473   19.9805 C   0  0  0  0  0  0  0  0  0  0  0  0
  -23.4339  -26.9487   21.3702 C   0  0  0  0  0  0  0  0  0  0  0  0
  -29.6875  -21.5785   18.2127 C   0  0  0  0  0  0  0  0  0  0  0  0
  -29.9949  -23.1130   20.7486 C   0  0  0  0  0  0  0  0  0  0  0  0
  -22.7975  -33.7595   23.6764 C   0  0  0  0  0  0  0  0  0  0  0  0
  -30.7200  -21.7844   20.5082 C   0  0  0  0  0  0  0  0  0  0  0  0
  -29.6694  -11.5333   19.0374 C   0  0  0  0  0  0  0  0  0  0  0  0
  -23.2323  -32.4531   24.3331 C   0  0  0  0  0  0  0  0  0  0  0  0
  -28.2505  -11.5058   19.6103 C   0  0  0  0  0  0  0  0  0  0  0  0
  -30.6056  -12.3952   19.8826 C   0  0  0  0  0  0  0  0  0  0  0  0
  -28.7107  -13.7328   20.7129 C   0  0  0  0  0  0  0  0  0  0  0  0
  -24.4145  -31.8260   23.5843 C   0  0  1  0  0  0  0  0  0  0  0  0
  -29.9118  -20.8781   19.5666 C   0  0  2  0  0  0  0  0  0  0  0  0
  -23.0498  -29.4050   20.9941 C   0  0  1  0  0  0  0  0  0  0  0  0
  -27.7156  -12.9297   19.8594 C   0  0  2  0  0  0  0  0  0  0  0  0
  -18.2247  -23.6439   19.1148 C   0  0  0  0  0  0  0  0  0  0  0  0
  -20.6833  -27.0826   24.2139 C   0  0  0  0  0  0  0  0  0  0  0  0
  -19.3839  -25.1099   23.3843 C   0  0  0  0  0  0  0  0  0  0  0  0
  -18.5769  -27.4220   22.9092 C   0  0  0  0  0  0  0  0  0  0  0  0
  -20.9822  -25.0998   16.9348 C   0  0  0  0  0  0  0  0  0  0  0  0
  -28.9670  -25.1484   19.6010 C   0  0  0  0  0  0  0  0  0  1  0  0
  -20.6102  -26.5439   21.6899 C   0  0  1  0  0  0  0  0  0  0  0  0
  -19.2460  -24.6841   18.6817 C   0  0  2  0  0  0  0  0  0  0  0  0
  -19.8404  -26.5440   23.0408 C   0  0  0  0  0  0  0  0  0  0  0  0
  -31.7141  -19.2041   18.8849 N   0  0  0  0  0  0  0  0  0  0  0  0
  -26.2067  -12.9377   21.8099 N   0  0  0  0  0  0  0  0  0  0  0  0
  -26.3276  -12.9097   20.4717 N   0  0  0  0  0  0  0  0  0  0  0  0
  -22.4925  -28.0613   21.1623 N   0  0  0  0  0  0  0  0  0  0  0  0
  -30.0357  -13.7307   20.0733 N   0  0  0  0  0  0  0  0  0  0  0  0
  -25.0743  -12.8332   18.4632 N   0  0  0  0  0  0  0  0  0  0  0  0
  -21.8982  -12.8288   21.6738 N   0  0  0  0  0  0  0  0  0  0  0  0
  -30.1076  -16.0782   19.8577 N   0  0  0  0  0  0  0  0  0  0  0  0
  -23.9581  -31.1714   22.3770 N   0  0  0  0  0  0  0  0  0  0  0  0
  -19.8274  -26.0642   20.5561 N   0  0  0  0  0  0  0  0  0  0  0  0
  -19.9631  -24.1675   17.4817 N   0  3  0  0  0  0  0  0  0  0  0  0
  -22.2571  -12.7689   19.4097 O   0  0  0  0  0  0  0  0  0  0  0  0
  -23.3519  -29.1303   23.3197 O   0  0  0  0  0  0  0  0  0  0  0  0
  -20.2913  -28.8299   21.1430 O   0  0  0  0  0  0  0  0  0  0  0  0
  -21.2561  -24.3326   19.9752 O   0  0  0  0  0  0  0  0  0  0  0  0
  -31.8754  -14.7645   19.1293 O   0  0  0  0  0  0  0  0  0  0  0  0
  -29.7942  -18.4510   19.8133 O   0  0  0  0  0  0  0  0  0  0  0  0
  -22.7744  -12.9793   27.1734 O   0  0  0  0  0  0  0  0  0  0  0  0
  -27.9685  -25.2750   20.6127 O   0  0  0  0  0  0  0  0  0  1  0  0
  -18.5270  -16.3550   28.1576 F   0  0  0  0  0  0  0  0  0  0  0  0
  -22.9642  -14.9820   29.0696 F   0  0  0  0  0  0  0  0  0  0  0  0
  1  2  1  0  0  0  0
  1  5  2  0  0  0  0
  2  6  2  0  0  0  0
  3  8  2  0  0  0  0
  3 16  1  0  0  0  0
  4  9  1  0  0  0  0
  4 16  2  0  0  0  0
  5 18  1  0  0  0  0
  6 20  1  0  0  0  0
  7 10  2  0  0  0  0
  7 19  1  0  0  0  0
  8 22  1  0  0  0  0
  9 22  2  0  0  0  0
 10 23  1  0  0  0  0
 11 12  2  0  0  0  0
 11 24  1  0  0  0  0
 12 25  1  0  0  0  0
 13 21  1  0  0  0  0
 13 23  2  0  0  0  0
 14 25  2  0  0  0  0
 14 26  1  0  0  0  0
 15 29  2  0  0  0  0
 15 63  1  0  0  0  0
 16 27  1  0  0  0  0
 17 27  1  0  0  0  0
 17 28  2  0  0  0  0
 17 33  1  0  0  0  0
 18 20  2  0  0  0  0
 18 38  1  0  0  0  0
 19 21  2  0  0  0  0
 19 39  1  0  0  0  0
 20 50  1  0  0  0  0
 21 40  1  0  0  0  0
 22 80  1  0  0  0  0
 23 81  1  0  0  0  0
 24 26  2  0  0  0  0
 24 80  1  0  0  0  0
 25 82  1  0  0  0  0
 26 83  1  0  0  0  0
 27 64  2  0  0  0  0
 28 65  1  0  0  0  0
 28 68  1  0  0  0  0
 29 70  1  0  0  0  0
 29 79  1  0  0  0  0
 30 51  1  0  0  0  0
 30 63  2  0  0  0  0
 30 79  1  0  0  0  0
 31 32  2  0  0  0  0
 31 41  1  0  0  0  0
 32 42  1  0  0  0  0
 32 59  1  0  0  0  0
 33 69  1  0  0  0  0
 33 74  2  0  0  0  0
 34 52  1  0  0  0  0
 34 71  1  0  0  0  0
 34 75  2  0  0  0  0
 35 60  1  0  0  0  0
 35 66  1  0  0  0  0
 35 76  2  0  0  0  0
 36 61  1  0  0  0  0
 36 72  1  0  0  0  0
 36 77  2  0  0  0  0
 37 67  1  0  0  0  0
 37 70  1  0  0  0  0
 37 78  2  0  0  0  0
 38 43  1  0  0  0  0
 39 52  1  0  0  0  0
 40 66  1  0  0  0  0
 41 51  1  0  0  0  0
 42 44  1  0  0  0  0
 43 46  1  0  0  0  0
 44 51  1  0  0  0  0
 45 47  1  0  0  0  0
 45 48  1  0  0  0  0
 46 50  1  0  0  0  0
 47 53  1  0  0  0  0
 48 67  1  0  0  0  0
 49 53  1  0  0  0  0
 49 67  1  0  0  0  0
 50 71  1  0  0  0  0
 52 66  1  0  0  0  0
 53 65  1  0  0  0  0
 54 61  1  0  0  0  0
 55 62  1  0  0  0  0
 56 62  1  0  0  0  0
 57 62  1  0  0  0  0
 58 73  1  0  0  0  0
 59 81  1  0  0  0  0
 60 62  1  0  0  0  0
 60 72  1  0  0  0  0
 61 73  1  0  0  0  0
 64 65  1  0  0  0  0
M  CHG  1  73   1
M  ISO  4  37 100  59 101  70 100  81 101
M  END
> <Batch ID>
0161

> <Smiles>
CNC(C)C(=O)NC(C(=O)N1Cc2cc([101O:1][101CH2:1]C3=CCC(c4ncc([100NH:0][100C:0](=O)N5CCCC(n6nc(-c7ccc(Oc8ccc(F)cc8F)cc7)c(C(N)=O)c6N)C5)o4)CC3)ccc2CC1C(=O)NC1CCCc2ccccc21)C(C)(C)C

> <Shape>
0.272

> <Color>
0.087

> <Negative vol penalty>
0.000

$$$$

  -OEChem-04052303533D

 88 96  0     1  0  0  0  0  0999 V2000
  -25.8273  -37.3236   27.2058 C   0  0  0  0  0  0  0  0  0  0  0  0
  -25.0718  -36.2041   27.5397 C   0  0  0  0  0  0  0  0  0  0  0  0
  -24.4375   -9.4404   21.7399 C   0  0  0  0  0  0  0  0  0  0  0  0
  -22.7290  -10.3100   20.2696 C   0  0  0  0  0  0  0  0  0  0  0  0
  -26.2105  -37.5350   25.8820 C   0  0  0  0  0  0  0  0  0  0  0  0
  -24.6982  -35.2959   26.5497 C   0  0  0  0  0  0  0  0  0  0  0  0
  -23.4753  -28.3074   25.5587 C   0  0  0  0  0  0  0  0  0  0  0  0
  -23.7049   -8.2637   21.8953 C   0  0  0  0  0  0  0  0  0  0  0  0
  -21.9964   -9.1333   20.4249 C   0  0  0  0  0  0  0  0  0  0  0  0
  -22.5018  -27.4450   25.0566 C   0  0  0  0  0  0  0  0  0  0  0  0
  -21.0202   -7.2165   23.6617 C   0  0  0  0  0  0  0  0  0  0  0  0
  -20.8836   -6.7045   24.9519 C   0  0  0  0  0  0  0  0  0  0  0  0
  -23.2881  -27.8713   22.8162 C   0  0  0  0  0  0  0  0  0  0  0  0
  -20.8917  -18.6943   20.0875 C   0  0  0  0  0  0  0  0  0  0  0  0
  -21.9743   -4.6636   24.2576 C   0  0  0  0  0  0  0  0  0  0  0  0
  -23.9496  -10.4636   20.9271 C   0  0  0  0  0  0  0  0  0  0  0  0
  -25.6832  -11.9503   19.7905 C   0  0  0  0  0  0  0  0  0  0  0  0
  -25.8496  -36.6239   24.8769 C   0  0  0  0  0  0  0  0  0  0  0  0
  -24.3570  -28.9679   24.6910 C   0  0  0  0  0  0  0  0  0  0  0  0
  -25.0758  -35.4961   25.2110 C   0  0  0  0  0  0  0  0  0  0  0  0
  -24.2736  -28.7397   23.3100 C   0  0  0  0  0  0  0  0  0  0  0  0
  -20.3263  -19.9891   20.0038 C   0  0  0  0  0  0  0  0  0  0  0  0
  -22.4843   -8.1101   21.2378 C   0  0  0  0  0  0  0  0  0  0  0  0
  -22.4062  -27.2290   23.6850 C   0  0  0  0  0  0  0  0  0  0  0  0
  -21.6337   -6.4519   22.6693 C   0  0  0  0  0  0  0  0  0  0  0  0
  -21.3606   -5.4281   25.2499 C   0  0  0  0  0  0  0  0  0  0  0  0
  -22.1108   -5.1755   22.9673 C   0  0  0  0  0  0  0  0  0  0  0  0
  -24.7056  -11.6796   20.7666 C   0  0  0  0  0  0  0  0  0  0  0  0
  -26.0974  -13.2307   20.0651 C   0  0  0  0  0  0  0  0  0  0  0  0
  -21.7742  -18.7302   21.1419 C   0  0  0  0  0  0  0  0  0  0  0  0
  -20.9035  -20.7239   21.0133 C   0  0  0  0  0  0  0  0  0  0  0  0
  -21.7772  -25.0673   23.0509 C   0  0  0  0  0  0  0  0  0  1  0  0
  -26.1730  -11.1187   18.7302 C   0  0  0  0  0  0  0  0  0  0  0  0
  -20.9218  -24.1534   22.5771 C   0  0  0  0  0  0  0  0  0  0  0  0
  -21.3709  -22.7274   22.4616 C   0  0  0  0  0  0  0  0  0  0  0  0
  -24.9582  -32.0099   23.9922 C   0  0  0  0  0  0  0  0  0  0  0  0
  -27.3591  -30.7248   22.2296 C   0  0  0  0  0  0  0  0  0  0  0  0
  -28.5968  -28.0212   20.5548 C   0  0  0  0  0  0  0  0  0  0  0  0
  -23.4878  -17.8720   22.7770 C   0  0  0  0  0  0  0  0  0  0  0  0
  -26.2469  -36.9196   23.4524 C   0  0  0  0  0  0  0  0  0  0  0  0
  -25.4189  -29.8744   25.2505 C   0  0  0  0  0  0  0  0  0  0  0  0
  -25.2093  -29.4087   22.3378 C   0  0  0  0  0  0  0  0  0  0  0  0
  -26.1283  -35.7136   22.5241 C   0  0  0  0  0  0  0  0  0  0  0  0
  -26.5579  -16.3201   23.6953 C   0  0  0  0  0  0  0  0  0  0  0  0
  -24.7937  -35.0061   22.7360 C   0  0  0  0  0  0  0  0  0  0  0  0
  -26.5230  -14.9812   22.9548 C   0  0  0  0  0  0  0  0  0  0  0  0
  -25.1737  -16.7262   24.1982 C   0  0  0  0  0  0  0  0  0  0  0  0
  -24.0842  -15.3934   22.4359 C   0  0  0  0  0  0  0  0  0  0  0  0
  -24.6721  -34.4752   24.1694 C   0  0  1  0  0  0  0  0  0  0  0  0
  -25.9316  -30.8915   24.2356 C   0  0  1  0  0  0  0  0  0  0  0  0
  -25.4440  -14.9738   21.8542 C   0  0  2  0  0  0  0  0  0  0  0  0
  -30.5648  -27.2857   19.1824 C   0  0  0  0  0  0  0  0  0  0  0  0
  -17.1714  -19.3566   16.1419 C   0  0  0  0  0  0  0  0  0  0  0  0
  -16.5962  -20.8067   18.1089 C   0  0  0  0  0  0  0  0  0  0  0  0
  -18.3884  -21.5099   16.5154 C   0  0  0  0  0  0  0  0  0  0  0  0
  -26.2786  -32.2918   19.8448 C   0  0  0  0  0  0  0  0  0  0  0  0
  -27.6445  -30.8210   18.3484 C   0  0  0  0  0  0  0  0  0  0  0  0
  -28.7721  -32.2710   20.0362 C   0  0  0  0  0  0  0  0  0  0  0  0
  -29.3082  -25.9051   22.4977 C   0  0  0  0  0  0  0  0  0  0  0  0
  -18.8246  -19.5864   18.0524 C   0  0  0  0  0  0  0  0  0  0  0  0
  -27.4965  -30.2299   20.8100 C   0  0  1  0  0  0  0  0  0  0  0  0
  -29.9638  -27.3615   20.5774 C   0  0  2  0  0  0  0  0  0  0  0  0
  -17.7405  -20.3004   17.2145 C   0  0  0  0  0  0  0  0  0  0  0  0
  -27.5289  -31.3922   19.7778 C   0  0  0  0  0  0  0  0  0  0  0  0
  -24.5105  -12.7056   21.5993 N   0  0  0  0  0  0  0  0  0  0  0  0
  -25.3713  -13.6334   21.1472 N   0  0  0  0  0  0  0  0  0  0  0  0
  -26.2265  -30.2910   22.9331 N   0  0  0  0  0  0  0  0  0  0  0  0
  -24.2048  -16.7006   23.1003 N   0  0  0  0  0  0  0  0  0  0  0  0
  -27.0083  -14.0402   19.4843 N   0  0  0  0  0  0  0  0  0  0  0  0
  -25.6388   -9.8305   18.5903 N   0  0  0  0  0  0  0  0  0  0  0  0
  -19.4078  -20.4127   19.1118 N   0  0  0  0  0  0  0  0  0  0  0  0
  -20.7330  -22.0695   21.4189 N   0  0  0  0  0  0  0  0  0  0  0  0
  -22.6192  -17.7360   21.6945 N   0  0  0  0  0  0  0  0  0  0  0  0
  -25.4429  -33.2603   24.3255 N   0  0  0  0  0  0  0  0  0  0  0  0
  -28.6803  -29.3776   20.7877 N   0  0  0  0  0  0  0  0  0  0  0  0
  -29.8623  -25.9777   21.1212 N   0  3  0  0  0  0  0  0  0  0  0  0
  -27.0699  -11.5005   17.9407 O   0  0  0  0  0  0  0  0  0  0  0  0
  -22.2061  -22.2656   23.2317 O   0  0  0  0  0  0  0  0  0  0  0  0
  -23.8499  -31.7573   23.5343 O   0  0  0  0  0  0  0  0  0  0  0  0
  -28.2284  -31.4632   22.6994 O   0  0  0  0  0  0  0  0  0  0  0  0
  -27.5590  -27.3963   20.3473 O   0  0  0  0  0  0  0  0  0  0  0  0
  -23.6537  -18.9261   23.3961 O   0  0  0  0  0  0  0  0  0  0  0  0
  -21.7872  -19.9638   21.7117 O   0  0  0  0  0  0  0  0  0  0  0  0
  -19.6359  -24.4710   22.1895 O   0  0  0  0  0  0  0  0  0  0  0  0
  -21.7693   -6.9619   21.3890 O   0  0  0  0  0  0  0  0  0  0  0  0
  -21.4564  -26.3882   23.1922 O   0  0  0  0  0  0  0  0  0  1  0  0
  -21.2308   -4.9373   26.4894 F   0  0  0  0  0  0  0  0  0  0  0  0
  -22.7022   -4.4368   22.0184 F   0  0  0  0  0  0  0  0  0  0  0  0
  1  2  1  0  0  0  0
  1  5  2  0  0  0  0
  2  6  2  0  0  0  0
  3  8  2  0  0  0  0
  3 16  1  0  0  0  0
  4  9  1  0  0  0  0
  4 16  2  0  0  0  0
  5 18  1  0  0  0  0
  6 20  1  0  0  0  0
  7 10  2  0  0  0  0
  7 19  1  0  0  0  0
  8 23  1  0  0  0  0
  9 23  2  0  0  0  0
 10 24  1  0  0  0  0
 11 12  2  0  0  0  0
 11 25  1  0  0  0  0
 12 26  1  0  0  0  0
 13 21  1  0  0  0  0
 13 24  2  0  0  0  0
 14 22  1  0  0  0  0
 14 30  2  0  0  0  0
 15 26  2  0  0  0  0
 15 27  1  0  0  0  0
 16 28  1  0  0  0  0
 17 28  1  0  0  0  0
 17 29  2  0  0  0  0
 17 33  1  0  0  0  0
 18 20  2  0  0  0  0
 18 40  1  0  0  0  0
 19 21  2  0  0  0  0
 19 41  1  0  0  0  0
 20 49  1  0  0  0  0
 21 42  1  0  0  0  0
 22 31  2  0  0  0  0
 22 71  1  0  0  0  0
 23 85  1  0  0  0  0
 24 86  1  0  0  0  0
 25 27  2  0  0  0  0
 25 85  1  0  0  0  0
 26 87  1  0  0  0  0
 27 88  1  0  0  0  0
 28 65  2  0  0  0  0
 29 66  1  0  0  0  0
 29 69  1  0  0  0  0
 30 73  1  0  0  0  0
 30 83  1  0  0  0  0
 31 72  1  0  0  0  0
 31 83  1  0  0  0  0
 32 34  2  0  0  0  0
 32 86  1  0  0  0  0
 33 70  1  0  0  0  0
 33 77  2  0  0  0  0
 34 35  1  0  0  0  0
 34 84  1  0  0  0  0
 35 72  1  0  0  0  0
 35 78  2  0  0  0  0
 36 50  1  0  0  0  0
 36 74  1  0  0  0  0
 36 79  2  0  0  0  0
 37 61  1  0  0  0  0
 37 67  1  0  0  0  0
 37 80  2  0  0  0  0
 38 62  1  0  0  0  0
 38 75  1  0  0  0  0
 38 81  2  0  0  0  0
 39 68  1  0  0  0  0
 39 73  1  0  0  0  0
 39 82  2  0  0  0  0
 40 43  1  0  0  0  0
 41 50  1  0  0  0  0
 42 67  1  0  0  0  0
 43 45  1  0  0  0  0
 44 46  1  0  0  0  0
 44 47  1  0  0  0  0
 45 49  1  0  0  0  0
 46 51  1  0  0  0  0
 47 68  1  0  0  0  0
 48 51  1  0  0  0  0
 48 68  1  0  0  0  0
 49 74  1  0  0  0  0
 50 67  1  0  0  0  0
 51 66  1  0  0  0  0
 52 62  1  0  0  0  0
 53 63  1  0  0  0  0
 54 63  1  0  0  0  0
 55 63  1  0  0  0  0
 56 64  1  0  0  0  0
 57 64  1  0  0  0  0
 58 64  1  0  0  0  0
 59 76  1  0  0  0  0
 60 63  1  0  0  0  0
 60 71  1  0  0  0  0
 61 64  1  0  0  0  0
 61 75  1  0  0  0  0
 62 76  1  0  0  0  0
 65 66  1  0  0  0  0
M  CHG  1  76   1
M  ISO  4  32 101  39 100  73 100  86 101
M  END
> <Batch ID>
0161

> <Smiles>
CNC(C)C(=O)NC(C(=O)N1Cc2cc([101O:1][101CH2:1]C(=O)C(=O)Nc3oc([100NH:0][100C:0](=O)N4CCCC(n5nc(-c6ccc(Oc7ccc(F)cc7F)cc6)c(C(N)=O)c5N)C4)cc3NCC(C)(C)C)ccc2CC1C(=O)NC1CCCc2ccccc21)C(C)(C)C

> <Shape>
0.256

> <Color>
0.095

> <Negative vol penalty>
0.000

$$$$

  -OEChem-04052303533D

 87 95  0     1  0  0  0  0  0999 V2000
  -17.1649  -30.0326   23.4093 C   0  0  0  0  0  0  0  0  0  0  0  0
  -18.4624  -30.3052   22.9879 C   0  0  0  0  0  0  0  0  0  0  0  0
  -26.0989  -13.0061   21.6884 C   0  0  0  0  0  0  0  0  0  0  0  0
  -25.9015  -13.7577   19.4008 C   0  0  0  0  0  0  0  0  0  0  0  0
  -16.8526  -28.7794   23.9345 C   0  0  0  0  0  0  0  0  0  0  0  0
  -19.4487  -29.3250   23.0925 C   0  0  0  0  0  0  0  0  0  0  0  0
  -24.1161  -28.3732   19.2434 C   0  0  0  0  0  0  0  0  0  0  0  0
  -24.8994  -12.3056   21.5619 C   0  0  0  0  0  0  0  0  0  0  0  0
  -24.7020  -13.0572   19.2742 C   0  0  0  0  0  0  0  0  0  0  0  0
  -25.4577  -28.7502   19.2847 C   0  0  0  0  0  0  0  0  0  0  0  0
  -23.8501   -9.3850   20.2197 C   0  0  0  0  0  0  0  0  0  0  0  0
  -23.8046   -8.0824   20.7163 C   0  0  0  0  0  0  0  0  0  0  0  0
  -26.0269  -26.6001   20.2184 C   0  0  0  0  0  0  0  0  0  0  0  0
  -28.7610  -21.4941   17.0195 C   0  0  0  0  0  0  0  0  0  0  0  0
  -22.0280   -8.7195   22.2246 C   0  0  0  0  0  0  0  0  0  0  0  0
  -26.6000  -13.7322   20.6079 C   0  0  0  0  0  0  0  0  0  0  0  0
  -29.1353  -13.9786   20.4692 C   0  0  0  0  0  0  0  0  0  0  0  0
  -17.8332  -27.7802   24.0367 C   0  0  0  0  0  0  0  0  0  0  0  0
  -23.7177  -27.1087   19.7003 C   0  0  0  0  0  0  0  0  0  0  0  0
  -19.1495  -28.0577   23.6208 C   0  0  0  0  0  0  0  0  0  0  0  0
  -24.6800  -26.2085   20.1796 C   0  0  0  0  0  0  0  0  0  0  0  0
  -29.0199  -22.7615   16.4452 C   0  0  0  0  0  0  0  0  0  0  0  0
  -24.2009  -12.3311   20.3548 C   0  0  0  0  0  0  0  0  0  0  0  0
  -26.4130  -27.8647   19.7749 C   0  0  0  0  0  0  0  0  0  0  0  0
  -22.9846  -10.3549   20.7255 C   0  0  0  0  0  0  0  0  0  0  0  0
  -22.8936   -7.7496   21.7188 C   0  0  0  0  0  0  0  0  0  0  0  0
  -22.0736  -10.0222   21.7279 C   0  0  0  0  0  0  0  0  0  0  0  0
  -27.8387  -14.4565   20.7383 C   0  0  0  0  0  0  0  0  0  0  0  0
  -29.3715  -23.5882   17.4868 C   0  0  0  0  0  0  0  0  0  0  0  0
  -29.9580  -15.0428   20.7469 C   0  0  0  0  0  0  0  0  0  0  0  0
  -28.9731  -21.6366   18.3710 C   0  0  0  0  0  0  0  0  0  0  0  0
  -29.5581  -12.6881   20.0092 C   0  0  0  0  0  0  0  0  0  0  0  0
  -29.7488  -25.0113   17.5272 C   0  0  0  0  0  0  0  0  0  0  0  0
  -21.8112  -26.0588   22.0170 C   0  0  0  0  0  0  0  0  0  0  0  0
  -29.9508  -27.7233   19.0164 C   0  0  0  0  0  0  0  0  0  0  0  0
  -22.4079  -23.1706   20.6663 C   0  0  0  0  0  0  0  0  0  0  0  0
  -24.4776  -21.2323   18.7674 C   0  0  0  0  0  0  0  0  0  0  0  0
  -29.1072  -20.9571   20.7932 C   0  0  0  0  0  0  0  0  0  0  0  0
  -17.4591  -26.4564   24.6549 C   0  0  0  0  0  0  0  0  0  0  0  0
  -22.2701  -26.7073   19.6243 C   0  0  0  0  0  0  0  0  0  0  0  0
  -24.3068  -24.8318   20.6631 C   0  0  0  0  0  0  0  0  0  0  0  0
  -18.4747  -25.3492   24.3846 C   0  0  0  0  0  0  0  0  0  0  0  0
  -30.2289  -18.9458   23.5086 C   0  0  0  0  0  0  0  0  0  0  0  0
  -19.8926  -25.8524   24.6358 C   0  0  0  0  0  0  0  0  0  0  0  0
  -29.8668  -17.5222   23.0791 C   0  0  0  0  0  0  0  0  0  0  0  0
  -29.1727  -19.9574   23.0672 C   0  0  0  0  0  0  0  0  0  0  0  0
  -28.4761  -18.4985   21.2083 C   0  0  0  0  0  0  0  0  0  0  0  0
  -20.2411  -27.0123   23.6952 C   0  0  1  0  0  0  0  0  0  0  0  0
  -21.9092  -25.5863   20.5940 C   0  0  1  0  0  0  0  0  0  0  0  0
  -29.5424  -17.4530   21.5740 C   0  0  2  0  0  0  0  0  0  0  0  0
  -24.7184  -18.9018   17.8683 C   0  0  0  0  0  0  0  0  0  0  0  0
  -32.0353  -26.7644   19.9674 C   0  0  0  0  0  0  0  0  0  0  0  0
  -31.8769  -27.2210   17.4985 C   0  0  0  0  0  0  0  0  0  0  0  0
  -23.2659  -22.1965   23.4276 C   0  0  0  0  0  0  0  0  0  0  0  0
  -24.3644  -20.2389   22.3190 C   0  0  0  0  0  0  0  0  0  0  0  0
  -21.8984  -20.5593   22.1223 C   0  0  0  0  0  0  0  0  0  0  0  0
  -28.5547  -22.1655   14.0674 C   0  0  0  0  0  0  0  0  0  0  0  0
  -24.4138  -22.1823   15.9652 C   0  0  0  0  0  0  0  0  0  0  0  0
  -28.6920  -27.1917   19.6801 C   0  0  0  0  0  0  0  0  0  1  0  0
  -23.4532  -22.0978   20.8544 C   0  0  1  0  0  0  0  0  0  0  0  0
  -24.1977  -20.3050   17.5985 C   0  0  2  0  0  0  0  0  0  0  0  0
  -31.1162  -26.7560   18.7421 C   0  0  0  0  0  0  0  0  0  0  0  0
  -23.2526  -21.2997   22.1736 C   0  0  0  0  0  0  0  0  0  0  0  0
  -27.8331  -15.7254   21.1551 N   0  0  0  0  0  0  0  0  0  0  0  0
  -29.1363  -16.0539   21.1501 N   0  0  0  0  0  0  0  0  0  0  0  0
  -22.8779  -24.4883   20.5745 N   0  0  0  0  0  0  0  0  0  0  0  0
  -28.9203  -19.8363   21.6297 N   0  0  0  0  0  0  0  0  0  0  0  0
  -31.2969  -15.2028   20.6832 N   0  0  0  0  0  0  0  0  0  0  0  0
  -28.5823  -11.7103   19.7729 N   0  0  0  0  0  0  0  0  0  0  0  0
  -28.9356  -23.0880   15.1394 N   0  0  0  0  0  0  0  0  0  0  0  0
  -28.8684  -20.7136   19.4410 N   0  0  0  0  0  0  0  0  0  0  0  0
  -30.6221  -25.4141   18.5214 N   0  0  0  0  0  0  0  0  0  0  0  0
  -20.5562  -26.5140   22.3735 N   0  0  0  0  0  0  0  0  0  0  0  0
  -23.4180  -21.2775   19.6485 N   0  0  0  0  0  0  0  0  0  0  0  0
  -24.8510  -20.8190   16.3616 N   0  3  0  0  0  0  0  0  0  0  0  0
  -30.7669  -12.4053   19.8291 O   0  0  0  0  0  0  0  0  0  0  0  0
  -22.8007  -26.0125   22.7385 O   0  0  0  0  0  0  0  0  0  0  0  0
  -30.0578  -28.9235   18.7467 O   0  0  0  0  0  0  0  0  0  0  0  0
  -21.2187  -22.8504   20.5960 O   0  0  0  0  0  0  0  0  0  0  0  0
  -25.5323  -21.8514   18.8887 O   0  0  0  0  0  0  0  0  0  0  0  0
  -29.4799  -22.0451   21.2396 O   0  0  0  0  0  0  0  0  0  0  0  0
  -29.3456  -22.9101   18.6641 O   0  0  0  0  0  0  0  0  0  0  0  0
  -23.0305  -11.6475   20.2308 O   0  0  0  0  0  0  0  0  0  0  0  0
  -27.7231  -28.2304   19.8168 O   0  0  0  0  0  0  0  0  0  1  0  0
  -22.8489   -6.4983   22.1946 F   0  0  0  0  0  0  0  0  0  0  0  0
  -21.2388  -10.9494   22.2170 F   0  0  0  0  0  0  0  0  0  0  0  0
  -29.1413  -26.1123   16.4146 S   0  0  0  0  0  0  0  0  0  0  0  0
  1  2  1  0  0  0  0
  1  5  2  0  0  0  0
  2  6  2  0  0  0  0
  3  8  2  0  0  0  0
  3 16  1  0  0  0  0
  4  9  1  0  0  0  0
  4 16  2  0  0  0  0
  5 18  1  0  0  0  0
  6 20  1  0  0  0  0
  7 10  2  0  0  0  0
  7 19  1  0  0  0  0
  8 23  1  0  0  0  0
  9 23  2  0  0  0  0
 10 24  1  0  0  0  0
 11 12  2  0  0  0  0
 11 25  1  0  0  0  0
 12 26  1  0  0  0  0
 13 21  1  0  0  0  0
 13 24  2  0  0  0  0
 14 22  1  0  0  0  0
 14 31  2  0  0  0  0
 15 26  2  0  0  0  0
 15 27  1  0  0  0  0
 16 28  1  0  0  0  0
 17 28  1  0  0  0  0
 17 30  2  0  0  0  0
 17 32  1  0  0  0  0
 18 20  2  0  0  0  0
 18 39  1  0  0  0  0
 19 21  2  0  0  0  0
 19 40  1  0  0  0  0
 20 48  1  0  0  0  0
 21 41  1  0  0  0  0
 22 29  2  0  0  0  0
 22 70  1  0  0  0  0
 23 83  1  0  0  0  0
 24 84  1  0  0  0  0
 25 27  2  0  0  0  0
 25 83  1  0  0  0  0
 26 85  1  0  0  0  0
 27 86  1  0  0  0  0
 28 64  2  0  0  0  0
 29 33  1  0  0  0  0
 29 82  1  0  0  0  0
 30 65  1  0  0  0  0
 30 68  1  0  0  0  0
 31 71  1  0  0  0  0
 31 82  1  0  0  0  0
 32 69  1  0  0  0  0
 32 76  2  0  0  0  0
 33 72  1  0  0  0  0
 33 87  2  0  0  0  0
 34 49  1  0  0  0  0
 34 73  1  0  0  0  0
 34 77  2  0  0  0  0
 35 59  1  0  0  0  0
 35 62  1  0  0  0  0
 35 78  2  0  0  0  0
 36 60  1  0  0  0  0
 36 66  1  0  0  0  0
 36 79  2  0  0  0  0
 37 61  1  0  0  0  0
 37 74  1  0  0  0  0
 37 80  2  0  0  0  0
 38 67  1  0  0  0  0
 38 71  1  0  0  0  0
 38 81  2  0  0  0  0
 39 42  1  0  0  0  0
 40 49  1  0  0  0  0
 41 66  1  0  0  0  0
 42 44  1  0  0  0  0
 43 45  1  0  0  0  0
 43 46  1  0  0  0  0
 44 48  1  0  0  0  0
 45 50  1  0  0  0  0
 46 67  1  0  0  0  0
 47 50  1  0  0  0  0
 47 67  1  0  0  0  0
 48 73  1  0  0  0  0
 49 66  1  0  0  0  0
 50 65  1  0  0  0  0
 51 61  1  0  0  0  0
 52 62  1  0  0  0  0
 53 62  1  0  0  0  0
 54 63  1  0  0  0  0
 55 63  1  0  0  0  0
 56 63  1  0  0  0  0
 57 70  1  0  0  0  0
 58 75  1  0  0  0  0
 59 84  1  0  0  0  0
 60 63  1  0  0  0  0
 60 74  1  0  0  0  0
 61 75  1  0  0  0  0
 62 72  1  0  0  0  0
 64 65  1  0  0  0  0
M  CHG  1  75   1
M  ISO  4  38 100  59 101  71 100  84 101
M  END
> <Batch ID>
0161

> <Smiles>
CNc1cc([100NH:0][100C:0](=O)N2CCCC(n3nc(-c4ccc(Oc5ccc(F)cc5F)cc4)c(C(N)=O)c3N)C2)oc1C(=S)NC(C)(C)C(=O)[101CH2:1][101O:1]c1ccc2c(c1)CN(C(=O)C(NC(=O)C(C)NC)C(C)(C)C)C(C(=O)NC1CCCc3ccccc31)C2

> <Shape>
0.284

> <Color>
0.074

> <Negative vol penalty>
0.000

$$$$

  -OEChem-04052303533D

 86 94  0     1  0  0  0  0  0999 V2000
  -30.5487  -19.2202   23.5329 C   0  0  0  0  0  0  0  0  0  0  0  0
  -29.2108  -19.3665   23.1808 C   0  0  0  0  0  0  0  0  0  0  0  0
  -30.8854  -24.2520   21.0742 C   0  0  0  0  0  0  0  0  0  0  0  0
  -31.2474  -26.6374   21.2013 C   0  0  0  0  0  0  0  0  0  0  0  0
  -31.3001  -18.1767   22.9940 C   0  0  0  0  0  0  0  0  0  0  0  0
  -28.6237  -18.4700   22.2886 C   0  0  0  0  0  0  0  0  0  0  0  0
  -24.0497  -16.9238   23.8160 C   0  0  0  0  0  0  0  0  0  0  0  0
  -31.9833  -24.0409   21.9082 C   0  0  0  0  0  0  0  0  0  0  0  0
  -32.3453  -26.4263   22.0354 C   0  0  0  0  0  0  0  0  0  0  0  0
  -22.9839  -17.8017   23.6238 C   0  0  0  0  0  0  0  0  0  0  0  0
  -32.6697  -24.2144   25.2145 C   0  0  0  0  0  0  0  0  0  0  0  0
  -32.5259  -23.2977   26.2559 C   0  0  0  0  0  0  0  0  0  0  0  0
  -22.3337  -16.5716   21.6532 C   0  0  0  0  0  0  0  0  0  0  0  0
  -34.3278  -21.9744   25.3399 C   0  0  0  0  0  0  0  0  0  0  0  0
  -30.5175  -25.5502   20.7207 C   0  0  0  0  0  0  0  0  0  0  0  0
  -29.2124  -25.2973   18.5434 C   0  0  0  0  0  0  0  0  0  0  0  0
  -30.7193  -17.2611   22.1023 C   0  0  0  0  0  0  0  0  0  0  0  0
  -24.2724  -15.8679   22.9205 C   0  0  0  0  0  0  0  0  0  0  0  0
  -29.3684  -17.4140   21.7363 C   0  0  0  0  0  0  0  0  0  0  0  0
  -23.4016  -15.6801   21.8377 C   0  0  0  0  0  0  0  0  0  0  0  0
  -32.7133  -25.1281   22.3888 C   0  0  0  0  0  0  0  0  0  0  0  0
  -22.1274  -17.6274   22.5407 C   0  0  0  0  0  0  0  0  0  0  0  0
  -33.6425  -24.0111   24.2357 C   0  0  0  0  0  0  0  0  0  0  0  0
  -33.3550  -22.1777   26.3187 C   0  0  0  0  0  0  0  0  0  0  0  0
  -34.4716  -22.8911   24.2985 C   0  0  0  0  0  0  0  0  0  0  0  0
  -29.3837  -25.7689   19.8587 C   0  0  0  0  0  0  0  0  0  0  0  0
  -27.9804  -25.7729   18.1659 C   0  0  0  0  0  0  0  0  0  0  0  0
  -18.9218  -26.6454   21.8900 C   0  0  0  0  0  0  0  0  0  0  0  0
  -19.8264  -24.5945   21.7963 C   0  0  0  0  0  0  0  0  0  0  0  0
  -30.0886  -24.5006   17.7351 C   0  0  0  0  0  0  0  0  0  0  0  0
  -19.7676  -23.1460   21.4321 C   0  0  0  0  0  0  0  0  0  0  0  0
  -26.6357  -15.0520   20.9576 C   0  0  0  0  0  0  0  0  0  0  0  0
  -24.8388  -12.3852   20.5314 C   0  0  0  0  0  0  0  0  0  0  0  0
  -23.1805   -9.5626   19.5671 C   0  0  0  0  0  0  0  0  0  0  0  0
  -23.2973  -27.4408   21.5629 C   0  0  0  0  0  0  0  0  0  0  0  0
  -31.5842  -16.1772   21.5092 C   0  0  0  0  0  0  0  0  0  0  0  0
  -25.4108  -14.9136   23.1568 C   0  0  0  0  0  0  0  0  0  0  0  0
  -23.5853  -14.5501   20.8590 C   0  0  0  0  0  0  0  0  0  0  0  0
  -20.0199  -27.4941   21.3010 C   0  0  0  0  0  0  0  0  0  0  0  0
  -30.7869  -15.0483   20.8608 C   0  0  0  0  0  0  0  0  0  0  0  0
  -25.9235  -29.6882   19.8804 C   0  0  0  0  0  0  0  0  0  0  0  0
  -29.6843  -15.6155   19.9724 C   0  0  0  0  0  0  0  0  0  0  0  0
  -26.2629  -28.6526   18.8126 C   0  0  0  0  0  0  0  0  0  0  0  0
  -24.5840  -29.3740   20.5394 C   0  0  0  0  0  0  0  0  0  0  0  0
  -19.3881  -28.8705   23.9851 C   0  0  0  0  0  0  0  0  0  0  0  0
  -25.6302  -27.1220   20.7773 C   0  0  0  0  0  0  0  0  0  0  0  0
  -18.0957  -28.5665   23.2354 C   0  0  0  0  0  0  0  0  0  0  0  0
  -28.6892  -16.4470   20.7909 C   0  0  1  0  0  0  0  0  0  0  0  0
  -25.8472  -14.1794   21.8928 C   0  0  1  0  0  0  0  0  0  0  0  0
  -26.1796  -27.2043   19.3421 C   0  0  2  0  0  0  0  0  0  0  0  0
  -21.0098  -27.9809   22.3673 C   0  0  2  0  0  0  0  0  0  0  0  0
  -23.0524   -7.8953   17.6960 C   0  0  0  0  0  0  0  0  0  0  0  0
  -23.3255  -14.4154   18.8291 C   0  0  0  0  0  0  0  0  0  0  0  0
  -22.4281  -12.5087   17.4772 C   0  0  0  0  0  0  0  0  0  0  0  0
  -24.8846  -12.9369   17.5495 C   0  0  0  0  0  0  0  0  0  0  0  0
  -23.9301   -7.3257   21.3541 C   0  0  0  0  0  0  0  0  0  0  0  0
  -20.5675  -22.2188   22.3145 C   0  0  0  0  0  0  0  0  0  0  0  0
  -20.4609  -20.7552   21.8983 C   0  0  0  0  0  0  0  0  0  0  0  0
  -21.2575  -19.8249   22.8056 C   0  0  0  0  0  0  0  0  0  1  0  0
  -23.7325  -11.9811   19.5870 C   0  0  1  0  0  0  0  0  0  0  0  0
  -23.6818   -8.2305   19.0393 C   0  0  2  0  0  0  0  0  0  0  0  0
  -23.5886  -12.9615   18.3888 C   0  0  0  0  0  0  0  0  0  0  0  0
  -28.3438  -26.4889   20.2879 N   0  0  0  0  0  0  0  0  0  0  0  0
  -18.8077  -25.3339   21.5336 N   0  0  0  0  0  0  0  0  0  0  0  0
  -27.5073  -26.4734   19.2362 N   0  0  0  0  0  0  0  0  0  0  0  0
  -24.7166  -13.6475   21.1293 N   0  0  0  0  0  0  0  0  0  0  0  0
  -24.4511  -27.9716   20.9542 N   0  0  0  0  0  0  0  0  0  0  0  0
  -20.5366  -29.1434   23.1204 N   0  0  1  0  0  0  0  0  0  0  0  0
  -18.1060  -27.1781   22.7271 N   0  3  0  0  0  0  0  0  0  0  0  0
  -27.2666  -25.6560   17.0261 N   0  0  0  0  0  0  0  0  0  0  0  0
  -31.0257  -25.1531   16.9225 N   0  0  0  0  0  0  0  0  0  0  0  0
  -27.7835  -15.5817   21.5157 N   0  0  0  0  0  0  0  0  0  0  0  0
  -24.0092  -10.6018   19.2005 N   0  0  0  0  0  0  0  0  0  0  0  0
  -22.2641  -28.3546   21.7542 N   0  0  0  0  0  0  0  0  0  0  0  0
  -23.3544   -7.1372   19.9976 N   0  3  0  0  0  0  0  0  0  0  0  0
  -30.0308  -23.2476   17.7212 O   0  0  0  0  0  0  0  0  0  0  0  0
  -19.1264  -22.8307   20.4421 O   0  0  0  0  0  0  0  0  0  0  0  0
  -26.2333  -15.2302   19.8139 O   0  0  0  0  0  0  0  0  0  0  0  0
  -25.7732  -11.6065   20.7367 O   0  0  0  0  0  0  0  0  0  0  0  0
  -22.1542   -9.6710   20.2346 O   0  0  0  0  0  0  0  0  0  0  0  0
  -23.1986  -26.2591   21.9070 O   0  0  0  0  0  0  0  0  0  0  0  0
  -33.7845  -24.9225   23.2029 O   0  0  0  0  0  0  0  0  0  0  0  0
  -21.0866  -18.4833   22.3504 O   0  0  0  0  0  0  0  0  0  1  0  0
  -33.2178  -21.2983   27.3197 F   0  0  0  0  0  0  0  0  0  0  0  0
  -35.4088  -22.6911   23.3617 F   0  0  0  0  0  0  0  0  0  0  0  0
  -20.2977  -30.2244   22.3038 F   0  0  0  0  0  0  0  0  0  0  0  0
  1  2  1  0  0  0  0
  1  5  2  0  0  0  0
  2  6  2  0  0  0  0
  3  8  2  0  0  0  0
  3 15  1  0  0  0  0
  4  9  1  0  0  0  0
  4 15  2  0  0  0  0
  5 17  1  0  0  0  0
  6 19  1  0  0  0  0
  7 10  2  0  0  0  0
  7 18  1  0  0  0  0
  8 21  1  0  0  0  0
  9 21  2  0  0  0  0
 10 22  1  0  0  0  0
 11 12  2  0  0  0  0
 11 23  1  0  0  0  0
 12 24  1  0  0  0  0
 13 20  1  0  0  0  0
 13 22  2  0  0  0  0
 14 24  2  0  0  0  0
 14 25  1  0  0  0  0
 15 26  1  0  0  0  0
 16 26  1  0  0  0  0
 16 27  2  0  0  0  0
 16 30  1  0  0  0  0
 17 19  2  0  0  0  0
 17 36  1  0  0  0  0
 18 20  2  0  0  0  0
 18 37  1  0  0  0  0
 19 48  1  0  0  0  0
 20 38  1  0  0  0  0
 21 82  1  0  0  0  0
 22 83  1  0  0  0  0
 23 25  2  0  0  0  0
 23 82  1  0  0  0  0
 24 84  1  0  0  0  0
 25 85  1  0  0  0  0
 26 63  2  0  0  0  0
 27 65  1  0  0  0  0
 27 70  1  0  0  0  0
 28 39  1  0  0  0  0
 28 64  1  0  0  0  0
 28 69  2  0  0  0  0
 29 31  1  0  0  0  0
 29 64  2  0  0  0  0
 30 71  1  0  0  0  0
 30 76  2  0  0  0  0
 31 57  1  0  0  0  0
 31 77  2  0  0  0  0
 32 49  1  0  0  0  0
 32 72  1  0  0  0  0
 32 78  2  0  0  0  0
 33 60  1  0  0  0  0
 33 66  1  0  0  0  0
 33 79  2  0  0  0  0
 34 61  1  0  0  0  0
 34 73  1  0  0  0  0
 34 80  2  0  0  0  0
 35 67  1  0  0  0  0
 35 74  1  0  0  0  0
 35 81  2  0  0  0  0
 36 40  1  0  0  0  0
 37 49  1  0  0  0  0
 38 66  1  0  0  0  0
 39 51  1  0  0  0  0
 40 42  1  0  0  0  0
 41 43  1  0  0  0  0
 41 44  1  0  0  0  0
 42 48  1  0  0  0  0
 43 50  1  0  0  0  0
 44 67  1  0  0  0  0
 45 47  1  0  0  0  0
 45 68  1  0  0  0  0
 46 50  1  0  0  0  0
 46 67  1  0  0  0  0
 47 69  1  0  0  0  0
 48 72  1  0  0  0  0
 49 66  1  0  0  0  0
 50 65  1  0  0  0  0
 51 68  1  0  0  0  0
 51 74  1  0  0  0  0
 52 61  1  0  0  0  0
 53 62  1  0  0  0  0
 54 62  1  0  0  0  0
 55 62  1  0  0  0  0
 56 75  1  0  0  0  0
 57 58  1  0  0  0  0
 58 59  1  0  0  0  0
 59 83  1  0  0  0  0
 60 62  1  0  0  0  0
 60 73  1  0  0  0  0
 61 75  1  0  0  0  0
 63 65  1  0  0  0  0
 68 86  1  0  0  0  0
M  CHG  2  69   1  75   1
M  ISO  4  35 100  59 101  74 100  83 101
M  END
> <Batch ID>
0161

> <Smiles>
CNC(C)C(=O)NC(C(=O)N1Cc2cc([101O:1][101CH2:1]CCC(=O)CNC3=NCCN(F)C([100NH:0][100C:0](=O)N4CCCC(n5nc(-c6ccc(Oc7ccc(F)cc7F)cc6)c(C(N)=O)c5N)C4)=C3)ccc2CC1C(=O)NC1CCCc2ccccc21)C(C)(C)C

> <Shape>
0.225

> <Color>
0.074

> <Negative vol penalty>
0.000

$$$$

  -OEChem-04052303533D

 85 94  0     1  0  0  0  0  0999 V2000
  -26.4981  -35.1767   23.4514 C   0  0  0  0  0  0  0  0  0  0  0  0
  -26.9438  -33.8759   23.2402 C   0  0  0  0  0  0  0  0  0  0  0  0
  -27.1571   -9.9682   19.8990 C   0  0  0  0  0  0  0  0  0  0  0  0
  -28.6551  -11.8582   19.7540 C   0  0  0  0  0  0  0  0  0  0  0  0
  -25.1795  -35.4058   23.8423 C   0  0  0  0  0  0  0  0  0  0  0  0
  -26.0714  -32.8032   23.4210 C   0  0  0  0  0  0  0  0  0  0  0  0
  -26.3793  -29.3980   19.6854 C   0  0  0  0  0  0  0  0  0  0  0  0
  -28.1999   -9.1142   19.5403 C   0  0  0  0  0  0  0  0  0  0  0  0
  -29.6979  -11.0042   19.3953 C   0  0  0  0  0  0  0  0  0  0  0  0
  -27.4586  -28.5159   19.7153 C   0  0  0  0  0  0  0  0  0  0  0  0
  -30.7499   -9.3859   16.6195 C   0  0  0  0  0  0  0  0  0  0  0  0
  -31.5671   -9.7716   15.5569 C   0  0  0  0  0  0  0  0  0  0  0  0
  -26.0318  -26.8113   20.6521 C   0  0  0  0  0  0  0  0  0  0  0  0
  -26.6180  -20.6313   18.1025 C   0  0  0  0  0  0  0  0  0  0  0  0
  -33.4858   -9.7508   17.0249 C   0  0  0  0  0  0  0  0  0  0  0  0
  -27.7897  -19.7601   19.9799 C   0  0  0  0  0  0  0  0  0  0  0  0
  -27.3847  -11.3403   20.0059 C   0  0  0  0  0  0  0  0  0  0  0  0
  -25.5550  -12.1939   21.5652 C   0  0  0  0  0  0  0  0  0  0  0  0
  -24.2878  -34.3360   24.0185 C   0  0  0  0  0  0  0  0  0  0  0  0
  -25.1186  -28.9961   20.1496 C   0  0  0  0  0  0  0  0  0  0  0  0
  -24.7400  -33.0181   23.8159 C   0  0  0  0  0  0  0  0  0  0  0  0
  -24.9375  -27.6893   20.6247 C   0  0  0  0  0  0  0  0  0  0  0  0
  -26.7471  -19.6455   19.0745 C   0  0  0  0  0  0  0  0  0  0  0  0
  -29.4703   -9.6321   19.2884 C   0  0  0  0  0  0  0  0  0  0  0  0
  -27.2856  -27.2233   20.2014 C   0  0  0  0  0  0  0  0  0  0  0  0
  -31.3007   -9.1827   17.8848 C   0  0  0  0  0  0  0  0  0  0  0  0
  -32.9350   -9.9540   15.7596 C   0  0  0  0  0  0  0  0  0  0  0  0
  -27.5226  -21.6866   18.0660 C   0  0  0  0  0  0  0  0  0  0  0  0
  -32.6686   -9.3651   18.0875 C   0  0  0  0  0  0  0  0  0  0  0  0
  -26.3077  -12.2230   20.3759 C   0  0  0  0  0  0  0  0  0  0  0  0
  -28.5303  -21.7100   19.0167 C   0  0  0  0  0  0  0  0  0  0  0  0
  -24.6632  -13.2299   21.4326 C   0  0  0  0  0  0  0  0  0  0  0  0
  -29.9386  -25.1692   18.9643 C   0  0  0  0  0  0  0  0  0  0  0  0
  -25.6534  -11.3094   22.6893 C   0  0  0  0  0  0  0  0  0  0  0  0
  -23.1808  -29.9443   22.4841 C   0  0  0  0  0  0  0  0  0  0  0  0
  -21.1492  -27.8030   21.1388 C   0  0  0  0  0  0  0  0  0  0  0  0
  -21.3681  -24.4835   19.7424 C   0  0  0  0  0  0  0  0  0  0  0  0
  -24.7520  -18.3171   18.2992 C   0  0  0  0  0  0  0  0  0  0  0  0
  -22.8849  -34.6300   24.4877 C   0  0  0  0  0  0  0  0  0  0  0  0
  -23.9582  -29.9510   20.0858 C   0  0  0  0  0  0  0  0  0  0  0  0
  -23.5995  -27.2023   21.1157 C   0  0  0  0  0  0  0  0  0  0  0  0
  -29.0122  -24.0803   18.4698 C   0  0  0  0  0  0  0  0  0  0  0  0
  -21.9207  -33.4625   24.2941 C   0  0  0  0  0  0  0  0  0  0  0  0
  -22.3049  -15.7382   18.1037 C   0  0  0  0  0  0  0  0  0  0  0  0
  -22.5528  -32.1619   24.7797 C   0  0  0  0  0  0  0  0  0  0  0  0
  -22.9829  -14.5432   18.7778 C   0  0  0  0  0  0  0  0  0  0  0  0
  -31.7027  -23.6723   18.7987 C   0  0  0  0  0  0  0  0  0  0  0  0
  -23.2974  -16.5710   17.2942 C   0  0  0  0  0  0  0  0  0  0  0  0
  -30.8125  -22.6012   19.4130 C   0  0  0  0  0  0  0  0  0  0  0  0
  -25.1676  -15.8117   18.7067 C   0  0  0  0  0  0  0  0  0  0  0  0
  -23.8169  -31.8298   23.9777 C   0  0  1  0  0  0  0  0  0  0  0  0
  -22.8401  -29.5987   21.0620 C   0  0  1  0  0  0  0  0  0  0  0  0
  -24.2203  -14.9797   19.5865 C   0  0  2  0  0  0  0  0  0  0  0  0
  -19.9549  -23.3466   18.0081 C   0  0  0  0  0  0  0  0  0  0  0  0
  -19.5946  -26.7225   23.5316 C   0  0  0  0  0  0  0  0  0  0  0  0
  -19.3611  -24.5495   22.3102 C   0  0  0  0  0  0  0  0  0  0  0  0
  -18.3621  -26.6274   21.3576 C   0  0  0  0  0  0  0  0  0  0  0  0
  -23.7230  -23.8710   18.0576 C   0  0  0  0  0  0  0  0  0  0  0  0
  -29.3425  -26.5256   19.2327 C   0  0  0  0  0  0  0  0  0  1  0  0
  -20.8726  -26.3304   21.3228 C   0  0  1  0  0  0  0  0  0  0  0  0
  -21.2459  -24.1038   18.2777 C   0  0  2  0  0  0  0  0  0  0  0  0
  -19.5733  -26.0685   22.1356 C   0  0  0  0  0  0  0  0  0  0  0  0
  -28.6878  -20.7706   19.9761 N   0  0  0  0  0  0  0  0  0  0  0  0
  -25.9270  -13.2001   19.5486 N   0  0  0  0  0  0  0  0  0  0  0  0
  -31.2095  -25.0089   19.1223 N   0  0  0  0  0  0  0  0  0  0  0  0
  -24.9253  -13.7945   20.2190 N   0  0  0  0  0  0  0  0  0  0  0  0
  -29.4310  -22.7740   18.9698 N   0  0  3  0  0  0  0  0  0  0  0  0
  -22.4973  -28.1753   21.0390 N   0  0  0  0  0  0  0  0  0  0  0  0
  -24.4410  -16.9518   18.1261 N   0  0  0  0  0  0  0  0  0  0  0  0
  -23.6880  -13.7040   22.2368 N   0  0  0  0  0  0  0  0  0  0  0  0
  -26.5075  -11.6610   23.7434 N   0  0  0  0  0  0  0  0  0  0  0  0
  -25.8401  -18.5588   19.1373 N   0  0  0  0  0  0  0  0  0  0  0  0
  -23.4660  -31.2814   22.6852 N   0  0  0  0  0  0  0  0  0  0  0  0
  -20.8693  -25.7456   19.9862 N   0  0  0  0  0  0  0  0  0  0  0  0
  -22.3907  -23.2417   17.8687 N   0  3  0  0  0  0  0  0  0  0  0  0
  -25.0156  -10.2309   22.7496 O   0  0  0  0  0  0  0  0  0  0  0  0
  -23.1833  -29.0634   23.3360 O   0  0  0  0  0  0  0  0  0  0  0  0
  -20.2038  -28.5930   21.0785 O   0  0  0  0  0  0  0  0  0  0  0  0
  -21.8539  -23.7338   20.5865 O   0  0  0  0  0  0  0  0  0  0  0  0
  -24.0844  -19.2074   17.7666 O   0  0  0  0  0  0  0  0  0  0  0  0
  -30.4882   -8.7990   18.9386 O   0  0  0  0  0  0  0  0  0  0  0  0
  -28.3375  -26.3605   20.2322 O   0  0  0  0  0  0  0  0  0  1  0  0
  -33.7199  -10.3229   14.7388 F   0  0  0  0  0  0  0  0  0  0  0  0
  -27.4104  -22.6433   17.1358 F   0  0  0  0  0  0  0  0  0  0  0  0
  -33.2037   -9.1703   19.3006 F   0  0  0  0  0  0  0  0  0  0  0  0
  1  2  1  0  0  0  0
  1  5  2  0  0  0  0
  2  6  2  0  0  0  0
  3  8  2  0  0  0  0
  3 17  1  0  0  0  0
  4  9  1  0  0  0  0
  4 17  2  0  0  0  0
  5 19  1  0  0  0  0
  6 21  1  0  0  0  0
  7 10  2  0  0  0  0
  7 20  1  0  0  0  0
  8 24  1  0  0  0  0
  9 24  2  0  0  0  0
 10 25  1  0  0  0  0
 11 12  2  0  0  0  0
 11 26  1  0  0  0  0
 12 27  1  0  0  0  0
 13 22  1  0  0  0  0
 13 25  2  0  0  0  0
 14 23  2  0  0  0  0
 14 28  1  0  0  0  0
 15 27  2  0  0  0  0
 15 29  1  0  0  0  0
 16 23  1  0  0  0  0
 16 63  2  0  0  0  0
 17 30  1  0  0  0  0
 18 30  1  0  0  0  0
 18 32  2  0  0  0  0
 18 34  1  0  0  0  0
 19 21  2  0  0  0  0
 19 39  1  0  0  0  0
 20 22  2  0  0  0  0
 20 40  1  0  0  0  0
 21 51  1  0  0  0  0
 22 41  1  0  0  0  0
 23 72  1  0  0  0  0
 24 81  1  0  0  0  0
 25 82  1  0  0  0  0
 26 29  2  0  0  0  0
 26 81  1  0  0  0  0
 27 83  1  0  0  0  0
 28 31  2  0  0  0  0
 28 84  1  0  0  0  0
 29 85  1  0  0  0  0
 30 64  2  0  0  0  0
 31 63  1  0  0  0  0
 31 67  1  0  0  0  0
 32 66  1  0  0  0  0
 32 70  1  0  0  0  0
 33 42  1  0  0  0  0
 33 59  1  0  0  0  0
 33 65  2  0  0  0  0
 34 71  1  0  0  0  0
 34 76  2  0  0  0  0
 35 52  1  0  0  0  0
 35 73  1  0  0  0  0
 35 77  2  0  0  0  0
 36 60  1  0  0  0  0
 36 68  1  0  0  0  0
 36 78  2  0  0  0  0
 37 61  1  0  0  0  0
 37 74  1  0  0  0  0
 37 79  2  0  0  0  0
 38 69  1  0  0  0  0
 38 72  1  0  0  0  0
 38 80  2  0  0  0  0
 39 43  1  0  0  0  0
 40 52  1  0  0  0  0
 41 68  1  0  0  0  0
 42 67  1  0  0  0  0
 43 45  1  0  0  0  0
 44 46  1  0  0  0  0
 44 48  1  0  0  0  0
 45 51  1  0  0  0  0
 46 53  1  0  0  0  0
 47 49  1  0  0  0  0
 47 65  1  0  0  0  0
 48 69  1  0  0  0  0
 49 67  1  0  0  0  0
 50 53  1  0  0  0  0
 50 69  1  0  0  0  0
 51 73  1  0  0  0  0
 52 68  1  0  0  0  0
 53 66  1  0  0  0  0
 54 61  1  0  0  0  0
 55 62  1  0  0  0  0
 56 62  1  0  0  0  0
 57 62  1  0  0  0  0
 58 75  1  0  0  0  0
 59 82  1  0  0  0  0
 60 62  1  0  0  0  0
 60 74  1  0  0  0  0
 61 75  1  0  0  0  0
 64 66  1  0  0  0  0
M  CHG  1  75   1
M  ISO  4  38 100  59 101  72 100  82 101
M  END
> <Batch ID>
0161

> <Smiles>
CNC(C)C(=O)NC(C(=O)N1Cc2cc([101O:1][101CH2:1]C3=NCCN(c4ncc([100NH:0][100C:0](=O)N5CCCC(n6nc(-c7ccc(Oc8ccc(F)cc8F)cc7)c(C(N)=O)c6N)C5)cc4F)C3)ccc2CC1C(=O)NC1CCCc2ccccc21)C(C)(C)C

> <Shape>
0.251

> <Color>
0.094

> <Negative vol penalty>
0.000

$$$$

  -OEChem-04052303533D

 85 94  0     1  0  0  0  0  0999 V2000
  -27.1755  -22.7783   11.0859 C   0  0  0  0  0  0  0  0  0  0  0  0
  -28.3475  -22.5137   11.7854 C   0  0  0  0  0  0  0  0  0  0  0  0
  -32.6592  -17.4571   23.5728 C   0  0  0  0  0  0  0  0  0  0  0  0
  -23.0366   -9.9460   19.9450 C   0  0  0  0  0  0  0  0  0  0  0  0
  -23.7786   -9.9332   22.2442 C   0  0  0  0  0  0  0  0  0  0  0  0
  -26.6524  -24.0696   11.0730 C   0  0  0  0  0  0  0  0  0  0  0  0
  -28.9903  -23.5376   12.4820 C   0  0  0  0  0  0  0  0  0  0  0  0
  -31.8640  -18.3280   24.3177 C   0  0  0  0  0  0  0  0  0  0  0  0
  -30.4151  -26.2877   20.1189 C   0  0  0  0  0  0  0  0  0  0  0  0
  -32.0698  -16.5832   22.6593 C   0  0  0  0  0  0  0  0  0  0  0  0
  -22.2793   -8.7990   20.1830 C   0  0  0  0  0  0  0  0  0  0  0  0
  -23.0213   -8.7863   22.4822 C   0  0  0  0  0  0  0  0  0  0  0  0
  -30.2635  -26.0020   21.4759 C   0  0  0  0  0  0  0  0  0  0  0  0
  -21.5686   -5.6491   23.6037 C   0  0  0  0  0  0  0  0  0  0  0  0
  -22.1667   -4.6152   24.3241 C   0  0  0  0  0  0  0  0  0  0  0  0
  -29.8900  -17.4510   23.2355 C   0  0  0  0  0  0  0  0  0  0  0  0
  -28.5586  -24.3688   20.9526 C   0  0  0  0  0  0  0  0  0  0  0  0
  -23.8821   -4.4293   22.6329 C   0  0  0  0  0  0  0  0  0  0  0  0
  -23.7863  -10.5131   20.9756 C   0  0  0  0  0  0  0  0  0  0  0  0
  -24.1542  -13.0353   20.8718 C   0  0  0  0  0  0  0  0  0  0  0  0
  -30.4794  -18.3249   24.1491 C   0  0  0  0  0  0  0  0  0  0  0  0
  -27.2965  -25.1119   11.7599 C   0  0  0  0  0  0  0  0  0  0  0  0
  -29.6490  -25.6032   19.1713 C   0  0  0  0  0  0  0  0  0  0  0  0
  -28.4651  -24.8423   12.5009 C   0  0  0  0  0  0  0  0  0  0  0  0
  -28.7150  -24.6418   19.5911 C   0  0  0  0  0  0  0  0  0  0  0  0
  -30.6852  -16.5801   22.4906 C   0  0  0  0  0  0  0  0  0  0  0  0
  -22.2716   -8.2192   21.4516 C   0  0  0  0  0  0  0  0  0  0  0  0
  -29.3374  -25.0451   21.8917 C   0  0  0  0  0  0  0  0  0  0  0  0
  -22.1272   -6.0731   22.3979 C   0  0  0  0  0  0  0  0  0  0  0  0
  -23.3234   -4.0053   23.8387 C   0  0  0  0  0  0  0  0  0  0  0  0
  -23.2839   -5.4632   21.9125 C   0  0  0  0  0  0  0  0  0  0  0  0
  -24.5692  -11.6975   20.7302 C   0  0  0  0  0  0  0  0  0  0  0  0
  -25.2566  -13.7757   20.5210 C   0  0  0  0  0  0  0  0  0  0  0  0
  -22.8857  -13.5616   21.2836 C   0  0  0  0  0  0  0  0  0  0  0  0
  -28.8330  -25.0867   15.5459 C   0  0  0  0  0  0  0  0  0  0  0  0
  -28.8575  -22.3138   16.8576 C   0  0  0  0  0  0  0  0  0  0  0  0
  -29.3954  -19.4225   18.5864 C   0  0  0  0  0  0  0  0  0  0  0  0
  -30.7314  -14.7656   20.7438 C   0  0  0  0  0  0  0  0  0  0  0  0
  -26.6825  -26.4890   11.7190 C   0  0  0  0  0  0  0  0  0  0  0  0
  -29.7351  -25.9223   17.7035 C   0  0  0  0  0  0  0  0  0  0  0  0
  -27.8879  -23.9551   18.5387 C   0  0  0  0  0  0  0  0  0  0  0  0
  -27.6633  -27.5891   12.1112 C   0  0  0  0  0  0  0  0  0  0  0  0
  -28.9128  -20.0319   27.2699 C   0  0  0  0  0  0  0  0  0  0  0  0
  -29.6115  -12.3755   18.3540 C   0  0  0  0  0  0  0  0  0  0  0  0
  -28.3633  -27.2222   13.4112 C   0  0  0  0  0  0  0  0  0  0  0  0
  -29.7836  -19.0656   26.4696 C   0  0  0  0  0  0  0  0  0  0  0  0
  -28.1657  -12.0961   18.7708 C   0  0  0  0  0  0  0  0  0  0  0  0
  -29.1676  -21.4819   26.8672 C   0  0  0  0  0  0  0  0  0  0  0  0
  -30.5194  -12.5888   19.5639 C   0  0  0  0  0  0  0  0  0  0  0  0
  -28.6091  -13.3251   20.9342 C   0  0  0  0  0  0  0  0  0  0  0  0
  -29.1982  -25.9467   13.2407 C   0  0  1  0  0  0  0  0  0  0  0  0
  -29.6171  -19.2700   24.9575 C   0  0  1  0  0  0  0  0  0  0  0  0
  -29.5443  -24.6870   16.8052 C   0  0  1  0  0  0  0  0  0  0  0  0
  -27.6438  -13.1678   19.7479 C   0  0  2  0  0  0  0  0  0  0  0  0
  -28.9958  -21.6880   25.3632 C   0  0  1  0  0  0  0  0  0  0  0  0
  -29.3456  -16.9281   18.3170 C   0  0  0  0  0  0  0  0  0  0  0  0
  -25.8100  -22.3657   16.9744 C   0  0  0  0  0  0  0  0  0  0  0  0
  -25.8657  -19.9566   17.6538 C   0  0  0  0  0  0  0  0  0  0  0  0
  -26.7660  -20.6451   15.4316 C   0  0  0  0  0  0  0  0  0  0  0  0
  -32.2756  -19.1800   19.2223 C   0  0  0  0  0  0  0  0  0  0  0  0
  -29.3691  -23.0989   24.9321 C   0  0  0  0  0  0  0  0  0  0  0  0
  -28.7984  -23.4425   23.5646 C   0  0  0  0  0  0  0  0  0  1  0  0
  -28.0588  -21.2235   17.5260 C   0  0  1  0  0  0  0  0  0  0  0  0
  -30.2030  -18.1822   18.2489 C   0  0  2  0  0  0  0  0  0  0  0  0
  -26.6391  -21.0674   16.9116 C   0  0  0  0  0  0  0  0  0  0  0  0
  -25.8363  -11.5912   20.3213 N   0  0  0  0  0  0  0  0  0  0  0  0
  -26.2269  -12.8716   20.2028 N   0  0  0  0  0  0  0  0  0  0  0  0
  -28.7322  -23.6043   17.3860 N   0  0  0  0  0  0  0  0  0  0  0  0
  -29.9639  -13.6206   20.4425 N   0  0  0  0  0  0  0  0  0  0  0  0
  -25.4808  -15.1053   20.4567 N   0  0  0  0  0  0  0  0  0  0  0  0
  -21.8621  -12.6608   21.6081 N   0  0  0  0  0  0  0  0  0  0  0  0
  -30.0869  -15.6927   21.5620 N   0  0  0  0  0  0  0  0  0  0  0  0
  -29.6738  -25.5170   14.5373 N   0  0  0  0  0  0  0  0  0  0  0  0
  -28.8762  -20.0171   17.4558 N   0  0  0  0  0  0  0  0  0  0  0  0
  -29.8885  -20.7208   24.6398 N   0  3  0  0  0  0  0  0  0  0  0  0
  -31.3380  -18.0279   19.2024 N   0  3  0  0  0  0  0  0  0  0  0  0
  -22.6613  -14.7942   21.3456 O   0  0  0  0  0  0  0  0  0  0  0  0
  -27.6112  -25.0095   15.4916 O   0  0  0  0  0  0  0  0  0  0  0  0
  -29.5697  -22.0327   15.8895 O   0  0  0  0  0  0  0  0  0  0  0  0
  -29.2375  -19.8217   19.7380 O   0  0  0  0  0  0  0  0  0  0  0  0
  -31.8657  -14.9254   20.2858 O   0  0  0  0  0  0  0  0  0  0  0  0
  -21.5326   -7.1002   21.6843 O   0  0  0  0  0  0  0  0  0  0  0  0
  -29.1977  -24.7678   23.2178 O   0  0  0  0  0  0  0  0  0  1  0  0
  -23.8986   -3.0135   24.5314 F   0  0  0  0  0  0  0  0  0  0  0  0
  -23.8258   -5.8669   20.7553 F   0  0  0  0  0  0  0  0  0  0  0  0
  1  2  1  0  0  0  0
  1  6  2  0  0  0  0
  2  7  2  0  0  0  0
  3  8  2  0  0  0  0
  3 10  1  0  0  0  0
  4 11  2  0  0  0  0
  4 19  1  0  0  0  0
  5 12  1  0  0  0  0
  5 19  2  0  0  0  0
  6 22  1  0  0  0  0
  7 24  1  0  0  0  0
  8 21  1  0  0  0  0
  9 13  2  0  0  0  0
  9 23  1  0  0  0  0
 10 26  2  0  0  0  0
 11 27  1  0  0  0  0
 12 27  2  0  0  0  0
 13 28  1  0  0  0  0
 14 15  2  0  0  0  0
 14 29  1  0  0  0  0
 15 30  1  0  0  0  0
 16 21  2  0  0  0  0
 16 26  1  0  0  0  0
 17 25  1  0  0  0  0
 17 28  2  0  0  0  0
 18 30  2  0  0  0  0
 18 31  1  0  0  0  0
 19 32  1  0  0  0  0
 20 32  1  0  0  0  0
 20 33  2  0  0  0  0
 20 34  1  0  0  0  0
 21 52  1  0  0  0  0
 22 24  2  0  0  0  0
 22 39  1  0  0  0  0
 23 25  2  0  0  0  0
 23 40  1  0  0  0  0
 24 51  1  0  0  0  0
 25 41  1  0  0  0  0
 26 72  1  0  0  0  0
 27 82  1  0  0  0  0
 28 83  1  0  0  0  0
 29 31  2  0  0  0  0
 29 82  1  0  0  0  0
 30 84  1  0  0  0  0
 31 85  1  0  0  0  0
 32 66  2  0  0  0  0
 33 67  1  0  0  0  0
 33 70  1  0  0  0  0
 34 71  1  0  0  0  0
 34 77  2  0  0  0  0
 35 53  1  0  0  0  0
 35 73  1  0  0  0  0
 35 78  2  0  0  0  0
 36 63  1  0  0  0  0
 36 68  1  0  0  0  0
 36 79  2  0  0  0  0
 37 64  1  0  0  0  0
 37 74  1  0  0  0  0
 37 80  2  0  0  0  0
 38 69  1  0  0  0  0
 38 72  1  0  0  0  0
 38 81  2  0  0  0  0
 39 42  1  0  0  0  0
 40 53  1  0  0  0  0
 41 68  1  0  0  0  0
 42 45  1  0  0  0  0
 43 46  1  0  0  0  0
 43 48  1  0  0  0  0
 44 47  1  0  0  0  0
 44 49  1  0  0  0  0
 45 51  1  0  0  0  0
 46 52  1  0  0  0  0
 47 54  1  0  0  0  0
 48 55  1  0  0  0  0
 49 69  1  0  0  0  0
 50 54  1  0  0  0  0
 50 69  1  0  0  0  0
 51 73  1  0  0  0  0
 52 75  1  0  0  0  0
 53 68  1  0  0  0  0
 54 67  1  0  0  0  0
 55 61  1  0  0  0  0
 55 75  1  0  0  0  0
 56 64  1  0  0  0  0
 57 65  1  0  0  0  0
 58 65  1  0  0  0  0
 59 65  1  0  0  0  0
 60 76  1  0  0  0  0
 61 62  1  0  0  0  0
 62 83  1  0  0  0  0
 63 65  1  0  0  0  0
 63 74  1  0  0  0  0
 64 76  1  0  0  0  0
 66 67  1  0  0  0  0
M  CHG  2  75   1  76   1
M  ISO  4  38 100  62 101  72 100  83 101
M  END
> <Batch ID>
0161

> <Smiles>
CNC(C)C(=O)NC(C(=O)N1Cc2cc([101O:1][101CH2:1]CC3CCCC(c4cccc([100NH:0][100C:0](=O)N5CCCC(n6nc(-c7ccc(Oc8ccc(F)cc8F)cc7)c(C(N)=O)c6N)C5)c4)N3)ccc2CC1C(=O)NC1CCCc2ccccc21)C(C)(C)C

> <Shape>
0.243

> <Color>
0.209

> <Negative vol penalty>
0.000

$$$$

  -OEChem-04052303533D

 83 91  0     1  0  0  0  0  0999 V2000
  -22.0991  -10.9765   20.2694 C   0  0  0  0  0  0  0  0  0  0  0  0
  -21.6721  -12.2825   20.4874 C   0  0  0  0  0  0  0  0  0  0  0  0
  -28.8803  -23.0356   24.1610 C   0  0  0  0  0  0  0  0  0  0  0  0
  -26.6899  -22.5302   23.2757 C   0  0  0  0  0  0  0  0  0  0  0  0
  -23.4551  -10.6638   20.3570 C   0  0  0  0  0  0  0  0  0  0  0  0
  -22.6008  -13.2764   20.7941 C   0  0  0  0  0  0  0  0  0  0  0  0
  -22.3798  -19.1637   19.1219 C   0  0  0  0  0  0  0  0  0  0  0  0
  -28.8846  -21.8197   24.8445 C   0  0  0  0  0  0  0  0  0  0  0  0
  -26.6942  -21.3143   23.9591 C   0  0  0  0  0  0  0  0  0  0  0  0
  -21.9603  -20.3134   19.7897 C   0  0  0  0  0  0  0  0  0  0  0  0
  -25.9737  -18.2389   25.7571 C   0  0  0  0  0  0  0  0  0  0  0  0
  -24.8148  -17.8771   26.4439 C   0  0  0  0  0  0  0  0  0  0  0  0
  -24.2419  -20.7685   20.4271 C   0  0  0  0  0  0  0  0  0  0  0  0
  -24.9996  -19.8658   27.8033 C   0  0  0  0  0  0  0  0  0  0  0  0
  -27.7829  -23.3909   23.3766 C   0  0  0  0  0  0  0  0  0  0  0  0
  -28.2481  -24.8914   21.3667 C   0  0  0  0  0  0  0  0  0  0  0  0
  -24.4018  -11.6564   20.6555 C   0  0  0  0  0  0  0  0  0  0  0  0
  -23.7345  -18.8013   19.1109 C   0  0  0  0  0  0  0  0  0  0  0  0
  -23.9705  -12.9765   20.8871 C   0  0  0  0  0  0  0  0  0  0  0  0
  -24.6764  -19.6151   19.7563 C   0  0  0  0  0  0  0  0  0  0  0  0
  -27.7916  -20.9590   24.7435 C   0  0  0  0  0  0  0  0  0  0  0  0
  -22.8910  -21.1144   20.4449 C   0  0  0  0  0  0  0  0  0  0  0  0
  -26.6456  -19.4141   26.0934 C   0  0  0  0  0  0  0  0  0  0  0  0
  -24.3277  -18.6905   27.4669 C   0  0  0  0  0  0  0  0  0  0  0  0
  -26.1585  -20.2276   27.1165 C   0  0  0  0  0  0  0  0  0  0  0  0
  -27.7776  -24.6470   22.6708 C   0  0  0  0  0  0  0  0  0  0  0  0
  -28.0199  -26.2306   21.1646 C   0  0  0  0  0  0  0  0  0  0  0  0
  -18.5987  -27.6600   22.8903 C   0  0  0  0  0  0  0  0  0  0  0  0
  -19.6559  -28.5170   23.3585 C   0  0  0  0  0  0  0  0  0  0  0  0
  -18.8702  -26.6580   22.0447 C   0  0  0  0  0  0  0  0  0  0  0  0
  -20.9116  -28.3006   22.9386 C   0  0  0  0  0  0  0  0  0  0  0  0
  -21.2012  -27.1651   21.9823 C   0  0  0  0  0  0  0  0  0  0  0  0
  -21.9330  -29.2167   23.4624 C   0  0  0  0  0  0  0  0  0  0  0  0
  -28.8386  -23.9885   20.4224 C   0  0  0  0  0  0  0  0  0  0  0  0
  -25.3981  -16.3080   20.1687 C   0  0  0  0  0  0  0  0  0  0  0  0
  -21.0200  -24.1430   21.4023 C   0  0  0  0  0  0  0  0  0  0  0  0
  -27.8471  -17.7892   18.6421 C   0  0  0  0  0  0  0  0  0  0  0  0
  -29.1734  -20.6900   17.4283 C   0  0  0  0  0  0  0  0  0  0  0  0
  -24.0752  -30.0183   23.6738 C   0  0  0  0  0  0  0  0  0  0  0  0
  -25.8515  -11.2611   20.7859 C   0  0  0  0  0  0  0  0  0  0  0  0
  -24.1744  -17.5725   18.3633 C   0  0  0  0  0  0  0  0  0  0  0  0
  -26.1450  -19.2810   19.7570 C   0  0  0  0  0  0  0  0  0  0  0  0
  -26.8121  -12.4468   20.7466 C   0  0  0  0  0  0  0  0  0  0  0  0
  -27.6678  -30.3758   23.5092 C   0  0  0  0  0  0  0  0  0  0  0  0
  -26.3168  -13.5655   21.6577 C   0  0  0  0  0  0  0  0  0  0  0  0
  -28.1440  -28.9582   23.1946 C   0  0  0  0  0  0  0  0  0  0  0  0
  -26.4340  -30.3651   24.4062 C   0  0  0  0  0  0  0  0  0  0  0  0
  -25.7720  -28.1361   23.5421 C   0  0  0  0  0  0  0  0  0  0  0  0
  -24.9502  -14.0873   21.1977 C   0  0  1  0  0  0  0  0  0  0  0  0
  -25.5109  -17.0225   18.8518 C   0  0  1  0  0  0  0  0  0  0  0  0
  -26.9999  -28.1074   22.6154 C   0  0  2  0  0  0  0  0  0  0  0  0
  -31.2066  -21.5916   16.2661 C   0  0  0  0  0  0  0  0  0  0  0  0
  -29.4121  -17.6229   21.2560 C   0  0  0  0  0  0  0  0  0  0  0  0
  -30.9928  -19.3335   20.3375 C   0  0  0  0  0  0  0  0  0  0  0  0
  -30.7523  -17.1243   19.2042 C   0  0  0  0  0  0  0  0  0  0  0  0
  -27.5841  -21.5976   15.1025 C   0  0  0  0  0  0  0  0  0  0  0  0
  -20.3706  -25.2752   20.6504 C   0  0  0  0  0  0  0  0  0  0  0  0
  -21.3317  -22.9046   20.5858 C   0  0  0  0  0  0  0  0  0  1  0  0
  -28.8827  -18.8172   19.0291 C   0  0  1  0  0  0  0  0  0  0  0  0
  -29.8060  -21.0257   16.0898 C   0  0  2  0  0  0  0  0  0  0  0  0
  -29.9821  -18.2300   19.9585 C   0  0  0  0  0  0  0  0  0  0  0  0
  -27.2877  -25.7432   23.2560 N   0  0  0  0  0  0  0  0  0  0  0  0
  -23.1774  -29.1155   23.1351 N   0  0  0  0  0  0  0  0  0  0  0  0
  -27.4492  -26.6893   22.3153 N   0  0  0  0  0  0  0  0  0  0  0  0
  -20.1632  -26.3818   21.5691 N   0  0  0  0  0  0  0  0  0  0  0  0
  -26.5249  -18.0659   19.0176 N   0  0  0  0  0  0  0  0  0  0  0  0
  -25.3798  -29.5191   23.8447 N   0  0  0  0  0  0  0  0  0  0  0  0
  -28.2539  -27.0489   20.1167 N   0  0  0  0  0  0  0  0  0  0  0  0
  -28.9997  -22.6462   20.7921 N   0  0  0  0  0  0  0  0  0  0  0  0
  -25.1018  -14.9630   20.0556 N   0  0  0  0  0  0  0  0  0  0  0  0
  -29.3910  -19.3747   17.7804 N   0  0  0  0  0  0  0  0  0  0  0  0
  -22.4607  -26.9877   21.5903 N   0  3  0  0  0  0  0  0  0  0  0  0
  -28.9803  -22.0323   15.3646 N   0  3  0  0  0  0  0  0  0  0  0  0
  -29.2274  -24.3644   19.2905 O   0  0  0  0  0  0  0  0  0  0  0  0
  -25.5687  -16.9304   21.2104 O   0  0  0  0  0  0  0  0  0  0  0  0
  -21.2834  -24.2111   22.6021 O   0  0  0  0  0  0  0  0  0  0  0  0
  -28.1973  -16.7814   18.0229 O   0  0  0  0  0  0  0  0  0  0  0  0
  -28.5519  -21.5132   18.0965 O   0  0  0  0  0  0  0  0  0  0  0  0
  -23.7821  -31.1742   23.9892 O   0  0  0  0  0  0  0  0  0  0  0  0
  -27.7955  -19.7723   25.4101 O   0  0  0  0  0  0  0  0  0  0  0  0
  -22.4841  -22.2368   21.0981 O   0  0  0  0  0  0  0  0  0  1  0  0
  -23.2140  -18.3438   28.1254 F   0  0  0  0  0  0  0  0  0  0  0  0
  -26.7990  -21.3584   27.4433 F   0  0  0  0  0  0  0  0  0  0  0  0
  1  2  1  0  0  0  0
  1  5  2  0  0  0  0
  2  6  2  0  0  0  0
  3  8  2  0  0  0  0
  3 15  1  0  0  0  0
  4  9  1  0  0  0  0
  4 15  2  0  0  0  0
  5 17  1  0  0  0  0
  6 19  1  0  0  0  0
  7 10  2  0  0  0  0
  7 18  1  0  0  0  0
  8 21  1  0  0  0  0
  9 21  2  0  0  0  0
 10 22  1  0  0  0  0
 11 12  2  0  0  0  0
 11 23  1  0  0  0  0
 12 24  1  0  0  0  0
 13 20  1  0  0  0  0
 13 22  2  0  0  0  0
 14 24  2  0  0  0  0
 14 25  1  0  0  0  0
 15 26  1  0  0  0  0
 16 26  1  0  0  0  0
 16 27  2  0  0  0  0
 16 34  1  0  0  0  0
 17 19  2  0  0  0  0
 17 40  1  0  0  0  0
 18 20  2  0  0  0  0
 18 41  1  0  0  0  0
 19 49  1  0  0  0  0
 20 42  1  0  0  0  0
 21 80  1  0  0  0  0
 22 81  1  0  0  0  0
 23 25  2  0  0  0  0
 23 80  1  0  0  0  0
 24 82  1  0  0  0  0
 25 83  1  0  0  0  0
 26 62  2  0  0  0  0
 27 64  1  0  0  0  0
 27 68  1  0  0  0  0
 28 29  1  0  0  0  0
 28 30  2  0  0  0  0
 29 31  2  0  0  0  0
 30 65  1  0  0  0  0
 31 32  1  0  0  0  0
 31 33  1  0  0  0  0
 32 65  1  0  0  0  0
 32 72  2  0  0  0  0
 33 63  2  0  0  0  0
 34 69  1  0  0  0  0
 34 74  2  0  0  0  0
 35 50  1  0  0  0  0
 35 70  1  0  0  0  0
 35 75  2  0  0  0  0
 36 57  1  0  0  0  0
 36 58  1  0  0  0  0
 36 76  2  0  0  0  0
 37 59  1  0  0  0  0
 37 66  1  0  0  0  0
 37 77  2  0  0  0  0
 38 60  1  0  0  0  0
 38 71  1  0  0  0  0
 38 78  2  0  0  0  0
 39 63  1  0  0  0  0
 39 67  1  0  0  0  0
 39 79  2  0  0  0  0
 40 43  1  0  0  0  0
 41 50  1  0  0  0  0
 42 66  1  0  0  0  0
 43 45  1  0  0  0  0
 44 46  1  0  0  0  0
 44 47  1  0  0  0  0
 45 49  1  0  0  0  0
 46 51  1  0  0  0  0
 47 67  1  0  0  0  0
 48 51  1  0  0  0  0
 48 67  1  0  0  0  0
 49 70  1  0  0  0  0
 50 66  1  0  0  0  0
 51 64  1  0  0  0  0
 52 60  1  0  0  0  0
 53 61  1  0  0  0  0
 54 61  1  0  0  0  0
 55 61  1  0  0  0  0
 56 73  1  0  0  0  0
 57 65  1  0  0  0  0
 58 81  1  0  0  0  0
 59 61  1  0  0  0  0
 59 71  1  0  0  0  0
 60 73  1  0  0  0  0
 62 64  1  0  0  0  0
M  CHG  2  72   1  73   1
M  ISO  4  39 100  58 101  63 100  81 101
M  END
> <Batch ID>
0161

> <Smiles>
CNC(C)C(=O)NC(C(=O)N1Cc2cc([101O:1][101CH2:1]C(=O)Cn3cccc(C=[100N:0][100C:0](=O)N4CCCC(n5nc(-c6ccc(Oc7ccc(F)cc7F)cc6)c(C(N)=O)c5N)C4)c3=N)ccc2CC1C(=O)NC1CCCc2ccccc21)C(C)(C)C

> <Shape>
0.202

> <Color>
0.090

> <Negative vol penalty>
0.000

$$$$

  -OEChem-04052303533D

 85 93  0     1  0  0  0  0  0999 V2000
  -26.7487  -37.8895   18.9112 C   0  0  0  0  0  0  0  0  0  0  0  0
  -27.3442  -36.6399   18.7729 C   0  0  0  0  0  0  0  0  0  0  0  0
  -23.3802   -9.5239   22.9456 C   0  0  0  0  0  0  0  0  0  0  0  0
  -23.4484   -9.9459   20.5678 C   0  0  0  0  0  0  0  0  0  0  0  0
  -25.8831  -38.1340   19.9765 C   0  0  0  0  0  0  0  0  0  0  0  0
  -27.0752  -35.6342   19.7006 C   0  0  0  0  0  0  0  0  0  0  0  0
  -26.6642  -29.6238   18.5994 C   0  0  0  0  0  0  0  0  0  0  0  0
  -22.6394   -8.3641   22.7186 C   0  0  0  0  0  0  0  0  0  0  0  0
  -22.7075   -8.7860   20.3407 C   0  0  0  0  0  0  0  0  0  0  0  0
  -27.5706  -28.5767   18.7597 C   0  0  0  0  0  0  0  0  0  0  0  0
  -23.2277   -5.1887   21.7168 C   0  0  0  0  0  0  0  0  0  0  0  0
  -23.5996   -4.0361   22.4087 C   0  0  0  0  0  0  0  0  0  0  0  0
  -26.5921  -28.0660   20.9047 C   0  0  0  0  0  0  0  0  0  0  0  0
  -21.4129   -3.9447   23.4319 C   0  0  0  0  0  0  0  0  0  0  0  0
  -23.7847  -10.3148   21.8702 C   0  0  0  0  0  0  0  0  0  0  0  0
  -25.9512  -11.6291   22.1646 C   0  0  0  0  0  0  0  0  0  0  0  0
  -25.5958  -37.1278   20.9123 C   0  0  0  0  0  0  0  0  0  0  0  0
  -25.7204  -29.9073   19.5971 C   0  0  0  0  0  0  0  0  0  0  0  0
  -26.2059  -35.8658   20.7802 C   0  0  0  0  0  0  0  0  0  0  0  0
  -25.6731  -29.1157   20.7535 C   0  0  0  0  0  0  0  0  0  0  0  0
  -22.3030   -7.9951   21.4162 C   0  0  0  0  0  0  0  0  0  0  0  0
  -27.5366  -27.7995   19.9138 C   0  0  0  0  0  0  0  0  0  0  0  0
  -21.9484   -5.7194   21.8825 C   0  0  0  0  0  0  0  0  0  0  0  0
  -22.6922   -3.4141   23.2662 C   0  0  0  0  0  0  0  0  0  0  0  0
  -21.0410   -5.0973   22.7400 C   0  0  0  0  0  0  0  0  0  0  0  0
  -24.5495  -11.5134   22.1041 C   0  0  0  0  0  0  0  0  0  0  0  0
  -29.4403  -19.7356   19.5214 C   0  0  0  0  0  0  0  0  0  0  0  0
  -28.5805  -20.6856   20.0316 C   0  0  0  0  0  0  0  0  0  0  0  0
  -26.1756  -12.9623   22.4068 C   0  0  0  0  0  0  0  0  0  0  0  0
  -27.3638  -18.9011   20.4125 C   0  0  0  0  0  0  0  0  0  0  0  0
  -27.9225  -25.5137   20.2253 C   0  0  0  0  0  0  0  0  0  1  0  0
  -26.9602  -10.6215   22.0152 C   0  0  0  0  0  0  0  0  0  0  0  0
  -28.6993  -24.4360   20.3888 C   0  0  0  0  0  0  0  0  0  0  0  0
  -28.0544  -23.0916   20.5464 C   0  0  0  0  0  0  0  0  0  0  0  0
  -25.1186  -32.4028   21.4717 C   0  0  0  0  0  0  0  0  0  0  0  0
  -22.5421  -30.6340   22.3408 C   0  0  0  0  0  0  0  0  0  0  0  0
  -21.1035  -27.5516   22.6163 C   0  0  0  0  0  0  0  0  0  0  0  0
  -25.1209  -18.3383   21.4121 C   0  0  0  0  0  0  0  0  0  0  0  0
  -24.6906  -37.4537   22.0738 C   0  0  0  0  0  0  0  0  0  0  0  0
  -24.7321  -31.0234   19.3971 C   0  0  0  0  0  0  0  0  0  0  0  0
  -24.6662  -29.3660   21.8452 C   0  0  0  0  0  0  0  0  0  0  0  0
  -24.1659  -36.2190   22.8021 C   0  0  0  0  0  0  0  0  0  0  0  0
  -22.9701  -16.6602   23.7002 C   0  0  0  0  0  0  0  0  0  0  0  0
  -25.2993  -35.2328   23.0656 C   0  0  0  0  0  0  0  0  0  0  0  0
  -23.3046  -15.1811   23.4939 C   0  0  0  0  0  0  0  0  0  0  0  0
  -23.0192  -17.4410   22.3881 C   0  0  0  0  0  0  0  0  0  0  0  0
  -24.6013  -15.8193   21.4207 C   0  0  0  0  0  0  0  0  0  0  0  0
  -25.9198  -34.7417   21.7521 C   0  0  1  0  0  0  0  0  0  0  0  0
  -24.1493  -31.5472   20.7061 C   0  0  1  0  0  0  0  0  0  0  0  0
  -24.6283  -15.0046   22.7242 C   0  0  2  0  0  0  0  0  0  0  0  0
  -31.8222  -20.4803   19.8762 C   0  0  0  0  0  0  0  0  0  0  0  0
  -30.7491  -20.7264   17.6084 C   0  0  0  0  0  0  0  0  0  0  0  0
  -19.0044  -26.4201   23.3980 C   0  0  0  0  0  0  0  0  0  0  0  0
  -23.4317  -30.9902   25.2376 C   0  0  0  0  0  0  0  0  0  0  0  0
  -21.9062  -29.1066   25.8646 C   0  0  0  0  0  0  0  0  0  0  0  0
  -20.9661  -31.1927   24.8711 C   0  0  0  0  0  0  0  0  0  0  0  0
  -20.5301  -26.4915   19.9133 C   0  0  0  0  0  0  0  0  0  0  0  0
  -30.7748  -19.8869   18.9063 C   0  0  0  0  0  0  0  0  0  0  0  0
  -22.2661  -29.5972   23.4027 C   0  0  1  0  0  0  0  0  0  0  0  0
  -19.7314  -27.0409   22.2152 C   0  0  2  0  0  0  0  0  0  0  0  0
  -22.1629  -30.2179   24.8245 C   0  0  0  0  0  0  0  0  0  0  0  0
  -23.9272  -12.6800   22.2928 N   0  0  0  0  0  0  0  0  0  0  0  0
  -27.3890  -20.2090   20.5426 N   0  0  0  0  0  0  0  0  0  0  0  0
  -24.9426  -13.5415   22.4743 N   0  0  0  0  0  0  0  0  0  0  0  0
  -23.7252  -30.4727   21.6059 N   0  0  0  0  0  0  0  0  0  0  0  0
  -24.3034  -17.2294   21.7167 N   0  0  0  0  0  0  0  0  0  0  0  0
  -27.3052  -13.6839   22.5665 N   0  0  0  0  0  0  0  0  0  0  0  0
  -26.5559   -9.3021   21.7703 N   0  0  0  0  0  0  0  0  0  0  0  0
  -28.8587  -22.0736   20.0526 N   0  0  0  0  0  0  0  0  0  0  0  0
  -26.3324  -18.0117   20.8037 N   0  0  0  0  0  0  0  0  0  0  0  0
  -25.0734  -33.7424   21.1359 N   0  0  0  0  0  0  0  0  0  0  0  0
  -21.0685  -28.8827   22.9743 N   0  0  0  0  0  0  0  0  0  0  0  0
  -19.8545  -26.0104   21.1458 N   0  3  0  0  0  0  0  0  0  0  0  0
  -28.1837  -10.8805   22.1128 O   0  0  0  0  0  0  0  0  0  0  0  0
  -26.9463  -22.9807   21.0599 O   0  0  0  0  0  0  0  0  0  0  0  0
  -25.8521  -31.8860   22.3064 O   0  0  0  0  0  0  0  0  0  0  0  0
  -21.7340  -31.5493   22.1648 O   0  0  0  0  0  0  0  0  0  0  0  0
  -22.1054  -26.8398   22.6160 O   0  0  0  0  0  0  0  0  0  0  0  0
  -24.7841  -19.4905   21.6966 O   0  0  0  0  0  0  0  0  0  0  0  0
  -30.0770  -24.5116   20.4172 O   0  0  0  0  0  0  0  0  0  0  0  0
  -21.5803   -6.8633   21.1942 O   0  0  0  0  0  0  0  0  0  0  0  0
  -28.4206  -26.7772   20.0731 O   0  0  0  0  0  0  0  0  0  1  0  0
  -23.0490   -2.3063   23.9294 F   0  0  0  0  0  0  0  0  0  0  0  0
  -19.8101   -5.6018   22.9023 F   0  0  0  0  0  0  0  0  0  0  0  0
  -28.7398  -18.1787   19.6846 S   0  0  0  0  0  0  0  0  0  0  0  0
  1  2  1  0  0  0  0
  1  5  2  0  0  0  0
  2  6  2  0  0  0  0
  3  8  2  0  0  0  0
  3 15  1  0  0  0  0
  4  9  1  0  0  0  0
  4 15  2  0  0  0  0
  5 17  1  0  0  0  0
  6 19  1  0  0  0  0
  7 10  2  0  0  0  0
  7 18  1  0  0  0  0
  8 21  1  0  0  0  0
  9 21  2  0  0  0  0
 10 22  1  0  0  0  0
 11 12  2  0  0  0  0
 11 23  1  0  0  0  0
 12 24  1  0  0  0  0
 13 20  1  0  0  0  0
 13 22  2  0  0  0  0
 14 24  2  0  0  0  0
 14 25  1  0  0  0  0
 15 26  1  0  0  0  0
 16 26  1  0  0  0  0
 16 29  2  0  0  0  0
 16 32  1  0  0  0  0
 17 19  2  0  0  0  0
 17 39  1  0  0  0  0
 18 20  2  0  0  0  0
 18 40  1  0  0  0  0
 19 48  1  0  0  0  0
 20 41  1  0  0  0  0
 21 81  1  0  0  0  0
 22 82  1  0  0  0  0
 23 25  2  0  0  0  0
 23 81  1  0  0  0  0
 24 83  1  0  0  0  0
 25 84  1  0  0  0  0
 26 62  2  0  0  0  0
 27 28  2  0  0  0  0
 27 58  1  0  0  0  0
 27 85  1  0  0  0  0
 28 63  1  0  0  0  0
 28 69  1  0  0  0  0
 29 64  1  0  0  0  0
 29 67  1  0  0  0  0
 30 63  2  0  0  0  0
 30 70  1  0  0  0  0
 30 85  1  0  0  0  0
 31 33  2  0  0  0  0
 31 82  1  0  0  0  0
 32 68  1  0  0  0  0
 32 74  2  0  0  0  0
 33 34  1  0  0  0  0
 33 80  1  0  0  0  0
 34 69  1  0  0  0  0
 34 75  2  0  0  0  0
 35 49  1  0  0  0  0
 35 71  1  0  0  0  0
 35 76  2  0  0  0  0
 36 59  1  0  0  0  0
 36 65  1  0  0  0  0
 36 77  2  0  0  0  0
 37 60  1  0  0  0  0
 37 72  1  0  0  0  0
 37 78  2  0  0  0  0
 38 66  1  0  0  0  0
 38 70  1  0  0  0  0
 38 79  2  0  0  0  0
 39 42  1  0  0  0  0
 40 49  1  0  0  0  0
 41 65  1  0  0  0  0
 42 44  1  0  0  0  0
 43 45  1  0  0  0  0
 43 46  1  0  0  0  0
 44 48  1  0  0  0  0
 45 50  1  0  0  0  0
 46 66  1  0  0  0  0
 47 50  1  0  0  0  0
 47 66  1  0  0  0  0
 48 71  1  0  0  0  0
 49 65  1  0  0  0  0
 50 64  1  0  0  0  0
 51 58  1  0  0  0  0
 52 58  1  0  0  0  0
 53 60  1  0  0  0  0
 54 61  1  0  0  0  0
 55 61  1  0  0  0  0
 56 61  1  0  0  0  0
 57 73  1  0  0  0  0
 59 61  1  0  0  0  0
 59 72  1  0  0  0  0
 60 73  1  0  0  0  0
 62 64  1  0  0  0  0
M  CHG  1  73   1
M  ISO  4  31 101  38 100  70 100  82 101
M  END
> <Batch ID>
0161

> <Smiles>
CNC(C)C(=O)NC(C(=O)N1Cc2cc([101O:1][101CH2:1]C(=O)C(=O)Nc3nc([100NH:0][100C:0](=O)N4CCCC(n5nc(-c6ccc(Oc7ccc(F)cc7F)cc6)c(C(N)=O)c5N)C4)sc3C(C)C)ccc2CC1C(=O)NC1CCCc2ccccc21)C(C)(C)C

> <Shape>
0.271

> <Color>
0.088

> <Negative vol penalty>
0.000

$$$$

  -OEChem-04052303533D

 88 96  0     1  0  0  0  0  0999 V2000
  -37.9897  -28.8327   22.1595 C   0  0  0  0  0  0  0  0  0  0  0  0
  -37.4154  -28.1110   23.2010 C   0  0  0  0  0  0  0  0  0  0  0  0
  -23.1173   -9.8514   19.9390 C   0  0  0  0  0  0  0  0  0  0  0  0
  -23.8676   -9.8819   22.2353 C   0  0  0  0  0  0  0  0  0  0  0  0
  -37.2029  -29.2554   21.0889 C   0  0  0  0  0  0  0  0  0  0  0  0
  -36.0535  -27.8126   23.1730 C   0  0  0  0  0  0  0  0  0  0  0  0
  -33.3516  -22.7417   25.2923 C   0  0  0  0  0  0  0  0  0  0  0  0
  -22.3929   -8.6864   20.1911 C   0  0  0  0  0  0  0  0  0  0  0  0
  -23.1432   -8.7169   22.4875 C   0  0  0  0  0  0  0  0  0  0  0  0
  -32.6849  -22.4623   26.4845 C   0  0  0  0  0  0  0  0  0  0  0  0
  -19.9272   -7.8647   23.0807 C   0  0  0  0  0  0  0  0  0  0  0  0
  -19.1663   -7.8166   24.2487 C   0  0  0  0  0  0  0  0  0  0  0  0
  -31.7286  -18.5145   24.1954 C   0  0  0  0  0  0  0  0  0  0  0  0
  -30.5761  -22.9158   25.4043 C   0  0  0  0  0  0  0  0  0  0  0  0
  -31.9733  -16.7608   22.5517 C   0  0  0  0  0  0  0  0  0  0  0  0
  -20.4388   -5.9047   24.9988 C   0  0  0  0  0  0  0  0  0  0  0  0
  -23.8547  -10.4492   20.9610 C   0  0  0  0  0  0  0  0  0  0  0  0
  -30.3439  -18.4730   24.0336 C   0  0  0  0  0  0  0  0  0  0  0  0
  -24.1523  -12.9794   20.8311 C   0  0  0  0  0  0  0  0  0  0  0  0
  -35.8327  -28.9536   21.0431 C   0  0  0  0  0  0  0  0  0  0  0  0
  -32.6352  -23.1214   24.1482 C   0  0  0  0  0  0  0  0  0  0  0  0
  -35.2474  -28.2328   22.1014 C   0  0  0  0  0  0  0  0  0  0  0  0
  -31.2359  -23.1969   24.1982 C   0  0  0  0  0  0  0  0  0  0  0  0
  -32.5434  -17.6584   23.4544 C   0  0  0  0  0  0  0  0  0  0  0  0
  -30.5885  -16.7193   22.3899 C   0  0  0  0  0  0  0  0  0  0  0  0
  -22.4058   -8.1191   21.4654 C   0  0  0  0  0  0  0  0  0  0  0  0
  -31.2972  -22.5522   26.5414 C   0  0  0  0  0  0  0  0  0  0  0  0
  -20.9439   -6.9328   22.8716 C   0  0  0  0  0  0  0  0  0  0  0  0
  -19.4221   -6.8366   25.2078 C   0  0  0  0  0  0  0  0  0  0  0  0
  -21.1997   -5.9528   23.8307 C   0  0  0  0  0  0  0  0  0  0  0  0
  -29.7737  -17.5754   23.1308 C   0  0  0  0  0  0  0  0  0  0  0  0
  -24.6036  -11.6523   20.7010 C   0  0  0  0  0  0  0  0  0  0  0  0
  -25.2325  -13.7465   20.4688 C   0  0  0  0  0  0  0  0  0  0  0  0
  -29.4839  -19.3806   24.8191 C   0  0  0  0  0  0  0  0  0  0  0  0
  -22.8712  -13.4745   21.2426 C   0  0  0  0  0  0  0  0  0  0  0  0
  -32.5517  -25.7145   22.3117 C   0  0  0  0  0  0  0  0  0  0  0  0
  -31.4808  -21.1011   29.6116 C   0  0  0  0  0  0  0  0  0  0  0  0
  -30.5823  -23.8875   20.4936 C   0  0  0  0  0  0  0  0  0  0  0  0
  -28.4139  -21.2582   20.3155 C   0  0  0  0  0  0  0  0  0  0  0  0
  -30.6786  -14.8895   20.6607 C   0  0  0  0  0  0  0  0  0  0  0  0
  -35.0133  -29.4727   19.8881 C   0  0  0  0  0  0  0  0  0  0  0  0
  -33.3673  -23.3934   22.8627 C   0  0  0  0  0  0  0  0  0  0  0  0
  -30.4189  -23.5805   22.9925 C   0  0  0  0  0  0  0  0  0  0  0  0
  -33.6536  -28.7924   19.7517 C   0  0  0  0  0  0  0  0  0  0  0  0
  -29.6167  -12.4459   18.2988 C   0  0  0  0  0  0  0  0  0  0  0  0
  -32.9601  -28.7087   21.1077 C   0  0  0  0  0  0  0  0  0  0  0  0
  -28.1807  -12.1308   18.7239 C   0  0  0  0  0  0  0  0  0  0  0  0
  -30.5227  -12.6962   19.5031 C   0  0  0  0  0  0  0  0  0  0  0  0
  -28.5976  -13.3929   20.8734 C   0  0  0  0  0  0  0  0  0  0  0  0
  -33.7787  -27.8682   22.0951 C   0  0  1  0  0  0  0  0  0  0  0  0
  -32.5750  -24.2702   21.8979 C   0  0  1  0  0  0  0  0  0  0  0  0
  -27.6328  -13.1972   19.6925 C   0  0  2  0  0  0  0  0  0  0  0  0
  -32.4061  -19.9866   30.0291 C   0  0  0  0  0  0  0  0  0  0  0  0
  -26.8925  -19.5618   19.2643 C   0  0  0  0  0  0  0  0  0  0  0  0
  -28.5474  -26.1564   20.6403 C   0  0  0  0  0  0  0  0  0  0  0  0
  -26.7973  -24.5437   19.8626 C   0  0  0  0  0  0  0  0  0  0  0  0
  -28.7429  -25.0741   18.3942 C   0  0  0  0  0  0  0  0  0  0  0  0
  -30.6473  -19.3732   19.8488 C   0  0  0  0  0  0  0  0  0  0  0  0
  -29.4357  -20.3053   28.3758 C   0  0  0  0  0  0  0  0  0  0  0  0
  -28.7196  -20.1431   27.0398 C   0  0  0  0  0  0  0  0  0  0  0  0
  -30.8071  -20.9726   28.2504 C   0  0  1  0  0  0  0  0  0  1  0  0
  -29.0937  -23.6404   20.4469 C   0  0  1  0  0  0  0  0  0  0  0  0
  -28.3128  -20.1003   19.3390 C   0  0  2  0  0  0  0  0  0  0  0  0
  -28.3106  -24.8483   19.8594 C   0  0  0  0  0  0  0  0  0  0  0  0
  -25.8717  -11.5771   20.2883 N   0  0  0  0  0  0  0  0  0  0  0  0
  -26.2263  -12.8665   20.1557 N   0  0  0  0  0  0  0  0  0  0  0  0
  -31.1811  -23.8429   21.7605 N   0  0  0  0  0  0  0  0  0  0  0  0
  -29.9420  -13.7208   20.3736 N   0  0  0  0  0  0  0  0  0  0  0  0
  -33.9438  -17.7005   23.6180 N   0  0  0  0  0  0  0  0  0  0  0  0
  -25.4196  -15.0812   20.3907 N   0  0  0  0  0  0  0  0  0  0  0  0
  -28.7068  -20.2386   24.1580 N   0  0  0  0  0  0  0  0  0  0  0  0
  -21.8741  -12.5491   21.5799 N   0  0  0  0  0  0  0  0  0  0  0  0
  -30.0116  -15.8066   21.4723 N   0  0  0  0  0  0  0  0  0  0  0  0
  -33.6081  -26.4575   21.8205 N   0  0  0  0  0  0  0  0  0  0  0  0
  -28.9097  -22.3941   19.7112 N   0  0  0  0  0  0  0  0  0  0  0  0
  -29.5262  -19.3014   26.1555 N   0  3  0  0  0  0  0  0  0  0  0  0
  -29.2149  -18.9901   19.7567 N   0  3  0  0  0  0  0  0  0  0  0  0
  -22.6130  -14.7010   21.2935 O   0  0  0  0  0  0  0  0  0  0  0  0
  -31.6419  -26.1247   23.0228 O   0  0  0  0  0  0  0  0  0  0  0  0
  -31.2879  -22.0680   30.3491 O   0  0  0  0  0  0  0  0  0  0  0  0
  -31.1924  -24.1047   19.4437 O   0  0  0  0  0  0  0  0  0  0  0  0
  -28.0825  -21.1654   21.4954 O   0  0  0  0  0  0  0  0  0  0  0  0
  -31.8064  -15.0761   20.1968 O   0  0  0  0  0  0  0  0  0  0  0  0
  -21.6989   -6.9825   21.7118 O   0  0  0  0  0  0  0  0  0  0  0  0
  -30.6440  -22.2807   27.7039 O   0  0  0  0  0  0  0  0  0  1  0  0
  -18.6924   -6.7914   26.3301 F   0  0  0  0  0  0  0  0  0  0  0  0
  -22.1758   -5.0556   23.6360 F   0  0  0  0  0  0  0  0  0  0  0  0
  -28.4415  -17.5368   22.9763 F   0  0  0  0  0  0  0  0  0  0  0  0
  1  2  1  0  0  0  0
  1  5  2  0  0  0  0
  2  6  2  0  0  0  0
  3  8  2  0  0  0  0
  3 17  1  0  0  0  0
  4  9  1  0  0  0  0
  4 17  2  0  0  0  0
  5 20  1  0  0  0  0
  6 22  1  0  0  0  0
  7 10  2  0  0  0  0
  7 21  1  0  0  0  0
  8 26  1  0  0  0  0
  9 26  2  0  0  0  0
 10 27  1  0  0  0  0
 11 12  2  0  0  0  0
 11 28  1  0  0  0  0
 12 29  1  0  0  0  0
 13 18  1  0  0  0  0
 13 24  2  0  0  0  0
 14 23  1  0  0  0  0
 14 27  2  0  0  0  0
 15 24  1  0  0  0  0
 15 25  2  0  0  0  0
 16 29  2  0  0  0  0
 16 30  1  0  0  0  0
 17 32  1  0  0  0  0
 18 31  2  0  0  0  0
 18 34  1  0  0  0  0
 19 32  1  0  0  0  0
 19 33  2  0  0  0  0
 19 35  1  0  0  0  0
 20 22  2  0  0  0  0
 20 41  1  0  0  0  0
 21 23  2  0  0  0  0
 21 42  1  0  0  0  0
 22 50  1  0  0  0  0
 23 43  1  0  0  0  0
 24 69  1  0  0  0  0
 25 31  1  0  0  0  0
 25 73  1  0  0  0  0
 26 84  1  0  0  0  0
 27 85  1  0  0  0  0
 28 30  2  0  0  0  0
 28 84  1  0  0  0  0
 29 86  1  0  0  0  0
 30 87  1  0  0  0  0
 31 88  1  0  0  0  0
 32 65  2  0  0  0  0
 33 66  1  0  0  0  0
 33 70  1  0  0  0  0
 34 71  1  0  0  0  0
 34 76  2  0  0  0  0
 35 72  1  0  0  0  0
 35 78  2  0  0  0  0
 36 51  1  0  0  0  0
 36 74  1  0  0  0  0
 36 79  2  0  0  0  0
 37 53  1  0  0  0  0
 37 61  1  0  0  0  0
 37 80  2  0  0  0  0
 38 62  1  0  0  0  0
 38 67  1  0  0  0  0
 38 81  2  0  0  0  0
 39 63  1  0  0  0  0
 39 75  1  0  0  0  0
 39 82  2  0  0  0  0
 40 68  1  0  0  0  0
 40 73  1  0  0  0  0
 40 83  2  0  0  0  0
 41 44  1  0  0  0  0
 42 51  1  0  0  0  0
 43 67  1  0  0  0  0
 44 46  1  0  0  0  0
 45 47  1  0  0  0  0
 45 48  1  0  0  0  0
 46 50  1  0  0  0  0
 47 52  1  0  0  0  0
 48 68  1  0  0  0  0
 49 52  1  0  0  0  0
 49 68  1  0  0  0  0
 50 74  1  0  0  0  0
 51 67  1  0  0  0  0
 52 66  1  0  0  0  0
 54 63  1  0  0  0  0
 55 64  1  0  0  0  0
 56 64  1  0  0  0  0
 57 64  1  0  0  0  0
 58 77  1  0  0  0  0
 59 60  1  0  0  0  0
 59 61  1  0  0  0  0
 60 76  1  0  0  0  0
 61 85  1  0  0  0  0
 62 64  1  0  0  0  0
 62 75  1  0  0  0  0
 63 77  1  0  0  0  0
 65 66  1  0  0  0  0
M  CHG  2  76   1  77   1
M  ISO  4  40 100  61 101  73 100  85 101
M  END
> <Batch ID>
0161

> <Smiles>
CNC(C)C(=O)NC(C(=O)N1Cc2cc([101O:1][101CH:1](CCNC(=N)c3cc(N)cc([100NH:0][100C:0](=O)N4CCCC(n5nc(-c6ccc(Oc7ccc(F)cc7F)cc6)c(C(N)=O)c5N)C4)c3F)C(C)=O)ccc2CC1C(=O)NC1CCCc2ccccc21)C(C)(C)C

> <Shape>
0.238

> <Color>
0.180

> <Negative vol penalty>
0.000

$$$$

  -OEChem-04052303533D

 88 96  0     1  0  0  0  0  0999 V2000
  -21.5804  -21.1503   21.9420 C   0  0  0  0  0  0  0  0  0  0  0  0
  -22.2230  -22.0606   21.1091 C   0  0  0  0  0  0  0  0  0  0  0  0
  -25.8305  -13.5517   21.4202 C   0  0  0  0  0  0  0  0  0  0  0  0
  -26.5633  -13.4571   19.1199 C   0  0  0  0  0  0  0  0  0  0  0  0
  -20.5041  -21.5638   22.7260 C   0  0  0  0  0  0  0  0  0  0  0  0
  -21.7889  -23.3848   21.0588 C   0  0  0  0  0  0  0  0  0  0  0  0
  -25.6214  -26.6920   21.2001 C   0  0  0  0  0  0  0  0  0  0  0  0
  -24.7759  -12.6898   21.1197 C   0  0  0  0  0  0  0  0  0  0  0  0
  -25.5086  -12.5950   18.8195 C   0  0  0  0  0  0  0  0  0  0  0  0
  -26.3362  -26.8891   20.0194 C   0  0  0  0  0  0  0  0  0  0  0  0
  -24.3286   -9.3723   20.6432 C   0  0  0  0  0  0  0  0  0  0  0  0
  -24.0814   -8.3189   21.5235 C   0  0  0  0  0  0  0  0  0  0  0  0
  -25.0906  -28.9140   19.6103 C   0  0  0  0  0  0  0  0  0  0  0  0
  -29.6237  -19.9816   15.3488 C   0  0  0  0  0  0  0  0  0  0  0  0
  -28.8823  -22.1447   16.1287 C   0  0  0  0  0  0  0  0  0  0  0  0
  -21.8556   -9.1715   21.9186 C   0  0  0  0  0  0  0  0  0  0  0  0
  -26.7242  -13.9354   20.4203 C   0  0  0  0  0  0  0  0  0  0  0  0
  -29.1957  -21.7551   13.7650 C   0  0  0  0  0  0  0  0  0  0  0  0
  -29.1073  -14.4711   21.1565 C   0  0  0  0  0  0  0  0  0  0  0  0
  -20.0629  -22.8960   22.6926 C   0  0  0  0  0  0  0  0  0  0  0  0
  -24.6266  -27.6003   21.5898 C   0  0  0  0  0  0  0  0  0  0  0  0
  -20.7049  -23.8162   21.8421 C   0  0  0  0  0  0  0  0  0  0  0  0
  -24.3664  -28.7276   20.7977 C   0  0  0  0  0  0  0  0  0  0  0  0
  -29.2721  -20.8325   16.3966 C   0  0  0  0  0  0  0  0  0  0  0  0
  -29.5855  -20.4429   14.0330 C   0  0  0  0  0  0  0  0  0  0  0  0
  -28.8441  -22.6061   14.8128 C   0  0  0  0  0  0  0  0  0  0  0  0
  -24.6149  -12.2114   19.8194 C   0  0  0  0  0  0  0  0  0  0  0  0
  -26.0689  -27.9987   19.2229 C   0  0  0  0  0  0  0  0  0  0  0  0
  -23.3394  -10.3253   20.4007 C   0  0  0  0  0  0  0  0  0  0  0  0
  -22.8449   -8.2185   22.1612 C   0  0  0  0  0  0  0  0  0  0  0  0
  -22.1029  -10.2249   21.0384 C   0  0  0  0  0  0  0  0  0  0  0  0
  -27.8136  -14.8263   20.7299 C   0  0  0  0  0  0  0  0  0  0  0  0
  -29.7583  -15.6702   21.3136 C   0  0  0  0  0  0  0  0  0  0  0  0
  -29.1499  -22.2375   12.3867 C   0  0  0  0  0  0  0  0  0  0  0  0
  -29.6702  -13.1732   21.3897 C   0  0  0  0  0  0  0  0  0  0  0  0
  -27.7130  -26.1670   14.9863 C   0  0  0  0  0  0  0  0  0  0  0  0
  -27.2781  -27.2926   15.9044 C   0  0  0  0  0  0  0  0  0  0  0  0
  -21.4915  -27.4185   22.0821 C   0  0  0  0  0  0  0  0  0  0  0  0
  -21.8700  -30.4711   23.1122 C   0  0  0  0  0  0  0  0  0  0  0  0
  -23.7040  -33.3481   23.0360 C   0  0  0  0  0  0  0  0  0  0  0  0
  -28.9958  -21.0778   18.8886 C   0  0  0  0  0  0  0  0  0  0  0  0
  -18.8652  -23.2851   23.5226 C   0  0  0  0  0  0  0  0  0  0  0  0
  -23.8829  -27.3877   22.8799 C   0  0  0  0  0  0  0  0  0  0  0  0
  -23.3226  -29.7431   21.1820 C   0  0  0  0  0  0  0  0  0  0  0  0
  -18.7056  -24.7938   23.6919 C   0  0  0  0  0  0  0  0  0  0  0  0
  -28.9331  -20.2709   22.3559 C   0  0  0  0  0  0  0  0  0  0  0  0
  -18.8766  -25.5024   22.3519 C   0  0  0  0  0  0  0  0  0  0  0  0
  -28.7627  -18.7501   22.3712 C   0  0  0  0  0  0  0  0  0  0  0  0
  -28.1456  -20.9184   21.2182 C   0  0  0  0  0  0  0  0  0  0  0  0
  -28.2365  -18.8386   19.9009 C   0  0  0  0  0  0  0  0  0  0  0  0
  -20.2792  -25.2670   21.7785 C   0  0  1  0  0  0  0  0  0  0  0  0
  -22.5359  -28.1029   22.9179 C   0  0  1  0  0  0  0  0  0  0  0  0
  -29.0630  -18.1355   20.9900 C   0  0  2  0  0  0  0  0  0  0  0  0
  -27.8611  -22.0680   11.6421 C   0  0  0  0  0  0  0  0  0  0  0  0
  -23.7427  -35.6844   23.9512 C   0  0  0  0  0  0  0  0  0  0  0  0
  -19.6712  -31.2719   21.1541 C   0  0  0  0  0  0  0  0  0  0  0  0
  -20.4053  -33.6517   21.4112 C   0  0  0  0  0  0  0  0  0  0  0  0
  -19.5411  -32.3947   23.3850 C   0  0  0  0  0  0  0  0  0  0  0  0
  -26.2937  -32.8968   24.3956 C   0  0  0  0  0  0  0  0  0  0  0  0
  -28.0792  -24.8440   15.6078 C   0  0  0  0  0  0  0  0  0  0  0  0
  -27.2305  -27.0290   17.3881 C   0  0  0  0  0  0  0  0  0  1  0  0
  -21.8263  -31.8323   22.4609 C   0  0  1  0  0  0  0  0  0  0  0  0
  -24.2092  -34.2503   24.1474 C   0  0  2  0  0  0  0  0  0  0  0  0
  -20.3794  -32.2677   22.0943 C   0  0  0  0  0  0  0  0  0  0  0  0
  -27.6505  -16.1477   20.6231 N   0  0  0  0  0  0  0  0  0  0  0  0
  -28.8503  -16.6333   20.9848 N   0  0  0  0  0  0  0  0  0  0  0  0
  -22.6179  -29.4878   22.4492 N   0  0  0  0  0  0  0  0  0  0  0  0
  -28.4848  -20.2883   19.9404 N   0  0  0  0  0  0  0  0  0  0  0  0
  -29.9451  -19.5629   12.9875 N   0  0  0  0  0  0  0  0  0  0  0  0
  -31.0132  -15.9842   21.6997 N   0  0  0  0  0  0  0  0  0  0  0  0
  -28.8626  -12.0471   21.1796 N   0  0  0  0  0  0  0  0  0  0  0  0
  -29.3127  -20.3641   17.7333 N   0  0  0  0  0  0  0  0  0  0  0  0
  -28.4539  -23.9145   14.5708 N   0  0  0  0  0  0  0  0  0  0  0  0
  -21.2471  -26.1088   22.4487 N   0  0  0  0  0  0  0  0  0  0  0  0
  -22.5115  -32.7429   23.3718 N   0  0  0  0  0  0  0  0  0  0  0  0
  -25.6990  -34.2418   24.1847 N   0  3  0  0  0  0  0  0  0  0  0  0
  -30.0912  -22.7650   11.7982 O   0  0  0  0  0  0  0  0  0  0  0  0
  -30.8491  -13.0174   21.7888 O   0  0  0  0  0  0  0  0  0  0  0  0
  -27.7405  -26.4070   13.7858 O   0  0  0  0  0  0  0  0  0  0  0  0
  -26.9847  -28.3621   15.3856 O   0  0  0  0  0  0  0  0  0  0  0  0
  -20.9467  -28.0337   21.1730 O   0  0  0  0  0  0  0  0  0  0  0  0
  -21.2688  -30.2890   24.1738 O   0  0  0  0  0  0  0  0  0  0  0  0
  -24.3051  -33.1984   21.9745 O   0  0  0  0  0  0  0  0  0  0  0  0
  -29.1670  -22.2932   19.0136 O   0  0  0  0  0  0  0  0  0  0  0  0
  -23.5861  -11.3701   19.5259 O   0  0  0  0  0  0  0  0  0  0  0  0
  -26.7647  -28.1930   18.0696 O   0  0  0  0  0  0  0  0  0  1  0  0
  -22.6071   -7.2060   23.0053 F   0  0  0  0  0  0  0  0  0  0  0  0
  -21.1482  -11.1368   20.8084 F   0  0  0  0  0  0  0  0  0  0  0  0
  1  2  1  0  0  0  0
  1  5  2  0  0  0  0
  2  6  2  0  0  0  0
  3  8  2  0  0  0  0
  3 17  1  0  0  0  0
  4  9  1  0  0  0  0
  4 17  2  0  0  0  0
  5 20  1  0  0  0  0
  6 22  1  0  0  0  0
  7 10  2  0  0  0  0
  7 21  1  0  0  0  0
  8 27  1  0  0  0  0
  9 27  2  0  0  0  0
 10 28  1  0  0  0  0
 11 12  2  0  0  0  0
 11 29  1  0  0  0  0
 12 30  1  0  0  0  0
 13 23  1  0  0  0  0
 13 28  2  0  0  0  0
 14 24  1  0  0  0  0
 14 25  2  0  0  0  0
 15 24  2  0  0  0  0
 15 26  1  0  0  0  0
 16 30  2  0  0  0  0
 16 31  1  0  0  0  0
 17 32  1  0  0  0  0
 18 25  1  0  0  0  0
 18 26  2  0  0  0  0
 18 34  1  0  0  0  0
 19 32  1  0  0  0  0
 19 33  2  0  0  0  0
 19 35  1  0  0  0  0
 20 22  2  0  0  0  0
 20 42  1  0  0  0  0
 21 23  2  0  0  0  0
 21 43  1  0  0  0  0
 22 51  1  0  0  0  0
 23 44  1  0  0  0  0
 24 72  1  0  0  0  0
 25 69  1  0  0  0  0
 26 73  1  0  0  0  0
 27 85  1  0  0  0  0
 28 86  1  0  0  0  0
 29 31  2  0  0  0  0
 29 85  1  0  0  0  0
 30 87  1  0  0  0  0
 31 88  1  0  0  0  0
 32 65  2  0  0  0  0
 33 66  1  0  0  0  0
 33 70  1  0  0  0  0
 34 54  1  0  0  0  0
 34 77  2  0  0  0  0
 35 71  1  0  0  0  0
 35 78  2  0  0  0  0
 36 37  1  0  0  0  0
 36 60  1  0  0  0  0
 36 79  2  0  0  0  0
 37 61  1  0  0  0  0
 37 80  2  0  0  0  0
 38 52  1  0  0  0  0
 38 74  1  0  0  0  0
 38 81  2  0  0  0  0
 39 62  1  0  0  0  0
 39 67  1  0  0  0  0
 39 82  2  0  0  0  0
 40 63  1  0  0  0  0
 40 75  1  0  0  0  0
 40 83  2  0  0  0  0
 41 68  1  0  0  0  0
 41 72  1  0  0  0  0
 41 84  2  0  0  0  0
 42 45  1  0  0  0  0
 43 52  1  0  0  0  0
 44 67  1  0  0  0  0
 45 47  1  0  0  0  0
 46 48  1  0  0  0  0
 46 49  1  0  0  0  0
 47 51  1  0  0  0  0
 48 53  1  0  0  0  0
 49 68  1  0  0  0  0
 50 53  1  0  0  0  0
 50 68  1  0  0  0  0
 51 74  1  0  0  0  0
 52 67  1  0  0  0  0
 53 66  1  0  0  0  0
 55 63  1  0  0  0  0
 56 64  1  0  0  0  0
 57 64  1  0  0  0  0
 58 64  1  0  0  0  0
 59 76  1  0  0  0  0
 60 73  1  0  0  0  0
 61 86  1  0  0  0  0
 62 64  1  0  0  0  0
 62 75  1  0  0  0  0
 63 76  1  0  0  0  0
 65 66  1  0  0  0  0
M  CHG  1  76   1
M  ISO  4  41 100  61 101  72 100  86 101
M  END
> <Batch ID>
0161

> <Smiles>
CNC(C)C(=O)NC(C(=O)N1Cc2cc([101O:1][101CH2:1]C(=O)C(=O)CNc3cc([100NH:0][100C:0](=O)N4CCCC(n5nc(-c6ccc(Oc7ccc(F)cc7F)cc6)c(C(N)=O)c5N)C4)cc(N)c3C(C)=O)ccc2CC1C(=O)NC1CCCc2ccccc21)C(C)(C)C

> <Shape>
0.250

> <Color>
0.061

> <Negative vol penalty>
0.000

$$$$

  -OEChem-04052303533D

 86 94  0     1  0  0  0  0  0999 V2000
  -31.8975  -34.4917   15.8805 C   0  0  0  0  0  0  0  0  0  0  0  0
  -31.5097  -33.1968   16.2093 C   0  0  0  0  0  0  0  0  0  0  0  0
  -24.4254   -9.3039   22.2199 C   0  0  0  0  0  0  0  0  0  0  0  0
  -24.3701   -8.8316   19.8512 C   0  0  0  0  0  0  0  0  0  0  0  0
  -31.8261  -35.5037   16.8370 C   0  0  0  0  0  0  0  0  0  0  0  0
  -31.0511  -32.9128   17.4952 C   0  0  0  0  0  0  0  0  0  0  0  0
  -26.8961  -30.0179   17.4809 C   0  0  0  0  0  0  0  0  0  0  0  0
  -23.2800   -8.5288   22.4012 C   0  0  0  0  0  0  0  0  0  0  0  0
  -23.2247   -8.0565   20.0324 C   0  0  0  0  0  0  0  0  0  0  0  0
  -27.0710  -28.6541   17.2499 C   0  0  0  0  0  0  0  0  0  0  0  0
  -22.5027   -5.2452   22.6170 C   0  0  0  0  0  0  0  0  0  0  0  0
  -22.4892   -4.3485   23.6853 C   0  0  0  0  0  0  0  0  0  0  0  0
  -30.1612  -20.4028   20.4269 C   0  0  0  0  0  0  0  0  0  0  0  0
  -32.3175  -20.0166   21.4458 C   0  0  0  0  0  0  0  0  0  0  0  0
  -26.9042  -28.2373   19.6200 C   0  0  0  0  0  0  0  0  0  0  0  0
  -31.7741  -22.1968   20.5578 C   0  0  0  0  0  0  0  0  0  0  0  0
  -20.5657   -5.4801   24.6109 C   0  0  0  0  0  0  0  0  0  0  0  0
  -24.9704   -9.4554   20.9449 C   0  0  0  0  0  0  0  0  0  0  0  0
  -31.0611  -19.5473   21.0625 C   0  0  0  0  0  0  0  0  0  0  0  0
  -27.4914   -9.8225   20.8120 C   0  0  0  0  0  0  0  0  0  0  0  0
  -31.3573  -35.2339   18.1325 C   0  0  0  0  0  0  0  0  0  0  0  0
  -26.7346  -30.5036   18.7864 C   0  0  0  0  0  0  0  0  0  0  0  0
  -30.9746  -33.9218   18.4703 C   0  0  0  0  0  0  0  0  0  0  0  0
  -26.7249  -29.6074   19.8647 C   0  0  0  0  0  0  0  0  0  0  0  0
  -30.5177  -21.7275   20.1745 C   0  0  0  0  0  0  0  0  0  0  0  0
  -32.6740  -21.3414   21.1934 C   0  0  0  0  0  0  0  0  0  0  0  0
  -22.6796   -7.9051   21.3075 C   0  0  0  0  0  0  0  0  0  0  0  0
  -27.0780  -27.7640   18.3197 C   0  0  0  0  0  0  0  0  0  0  0  0
  -21.5478   -6.2595   22.5457 C   0  0  0  0  0  0  0  0  0  0  0  0
  -21.5207   -4.4659   24.6823 C   0  0  0  0  0  0  0  0  0  0  0  0
  -20.5793   -6.3769   23.5426 C   0  0  0  0  0  0  0  0  0  0  0  0
  -26.1533  -10.2564   20.7569 C   0  0  0  0  0  0  0  0  0  0  0  0
  -28.2298  -10.9546   20.5681 C   0  0  0  0  0  0  0  0  0  0  0  0
  -30.6898  -18.1657   21.3250 C   0  0  0  0  0  0  0  0  0  0  0  0
  -29.4277  -17.6879   21.3643 C   0  0  0  0  0  0  0  0  0  0  0  0
  -28.3233  -25.8163   18.6754 C   0  0  0  0  0  0  0  0  0  1  0  0
  -28.0196   -8.5131   21.0611 C   0  0  0  0  0  0  0  0  0  0  0  0
  -28.5879  -24.5130   18.5239 C   0  0  0  0  0  0  0  0  0  0  0  0
  -29.2131  -16.2520   21.6343 C   0  0  0  0  0  0  0  0  0  0  0  0
  -29.7924  -23.9316   19.2018 C   0  0  0  0  0  0  0  0  0  0  0  0
  -28.3629  -32.4912   20.6578 C   0  0  0  0  0  0  0  0  0  0  0  0
  -25.8269  -32.0826   22.6388 C   0  0  0  0  0  0  0  0  0  0  0  0
  -23.2003  -30.1367   23.6191 C   0  0  0  0  0  0  0  0  0  0  0  0
  -31.3426  -36.3504   19.1463 C   0  0  0  0  0  0  0  0  0  0  0  0
  -26.5202  -31.9745   19.0165 C   0  0  0  0  0  0  0  0  0  0  0  0
  -26.5351  -30.0758   21.2835 C   0  0  0  0  0  0  0  0  0  0  0  0
  -30.4917  -36.0451   20.3763 C   0  0  0  0  0  0  0  0  0  0  0  0
  -26.8403  -15.5203   18.9387 C   0  0  0  0  0  0  0  0  0  0  0  0
  -30.7906  -34.6431   20.8976 C   0  0  0  0  0  0  0  0  0  0  0  0
  -26.5269  -14.0520   19.2139 C   0  0  0  0  0  0  0  0  0  0  0  0
  -27.0837  -16.3042   20.2274 C   0  0  0  0  0  0  0  0  0  0  0  0
  -27.8202  -14.2356   21.3758 C   0  0  0  0  0  0  0  0  0  0  0  0
  -30.4484  -33.5794   19.8473 C   0  0  1  0  0  0  0  0  0  0  0  0
  -26.8793  -32.4165   20.4318 C   0  0  1  0  0  0  0  0  0  0  0  0
  -27.6181  -13.4176   20.0907 C   0  0  1  0  0  0  0  0  0  0  0  0
  -21.3298  -30.0483   25.2897 C   0  0  0  0  0  0  0  0  0  0  0  0
  -27.8151  -31.3097   24.8204 C   0  0  0  0  0  0  0  0  0  0  0  0
  -25.9070  -30.3390   26.1185 C   0  0  0  0  0  0  0  0  0  0  0  0
  -25.9410  -32.7765   25.5890 C   0  0  0  0  0  0  0  0  0  0  0  0
  -34.1870  -23.1780   21.9439 C   0  0  0  0  0  0  0  0  0  0  0  0
  -21.1446  -30.1185   21.4901 C   0  0  0  0  0  0  0  0  0  0  0  0
  -25.4775  -31.1133   23.7421 C   0  0  1  0  0  0  0  0  0  0  0  0
  -21.7444  -30.4712   23.8890 C   0  0  2  0  0  0  0  0  0  0  0  0
  -26.2907  -31.3757   25.0411 C   0  0  0  0  0  0  0  0  0  0  0  0
  -26.0449  -11.5623   20.4985 N   0  0  0  0  0  0  0  0  0  0  0  0
  -27.3243  -11.9588   20.3892 N   0  0  0  0  0  0  0  0  0  0  0  0
  -28.0888  -15.6464   21.0759 N   0  0  0  0  0  0  0  0  0  0  0  0
  -26.3356  -31.5241   21.4576 N   0  0  0  0  0  0  0  0  0  0  0  0
  -29.5587  -11.1792   20.4916 N   0  0  0  0  0  0  0  0  0  0  0  0
  -27.1208   -7.4628   21.2923 N   0  0  0  0  0  0  0  0  0  0  0  0
  -29.6041  -22.5961   19.5301 N   0  0  0  0  0  0  0  0  0  0  0  0
  -33.9443  -21.8161   21.5811 N   0  0  0  0  0  0  0  0  0  0  0  0
  -29.0194  -33.3551   19.8022 N   0  0  0  0  0  0  0  0  0  0  0  0
  -24.0313  -31.1963   23.9155 N   0  0  0  0  0  0  0  0  0  0  0  0
  -20.8630  -29.7769   22.9082 N   0  3  0  0  0  0  0  0  0  0  0  0
  -29.2526   -8.2845   21.0946 O   0  0  0  0  0  0  0  0  0  0  0  0
  -30.0410  -15.6767   22.3430 O   0  0  0  0  0  0  0  0  0  0  0  0
  -30.7899  -24.6144   19.4085 O   0  0  0  0  0  0  0  0  0  0  0  0
  -28.8738  -31.8163   21.5438 O   0  0  0  0  0  0  0  0  0  0  0  0
  -25.6482  -33.2903   22.8157 O   0  0  0  0  0  0  0  0  0  0  0  0
  -23.5644  -29.0433   23.1919 O   0  0  0  0  0  0  0  0  0  0  0  0
  -27.7926  -23.6773   17.7664 O   0  0  0  0  0  0  0  0  0  0  0  0
  -21.5621   -7.1485   21.4841 O   0  0  0  0  0  0  0  0  0  0  0  0
  -27.2492  -26.4324   18.0971 O   0  0  0  0  0  0  0  0  0  1  0  0
  -21.5069   -3.6037   25.7073 F   0  0  0  0  0  0  0  0  0  0  0  0
  -19.6586   -7.3485   23.4789 F   0  0  0  0  0  0  0  0  0  0  0  0
  1  2  1  0  0  0  0
  1  5  2  0  0  0  0
  2  6  2  0  0  0  0
  3  8  2  0  0  0  0
  3 18  1  0  0  0  0
  4  9  1  0  0  0  0
  4 18  2  0  0  0  0
  5 21  1  0  0  0  0
  6 23  1  0  0  0  0
  7 10  2  0  0  0  0
  7 22  1  0  0  0  0
  8 27  1  0  0  0  0
  9 27  2  0  0  0  0
 10 28  1  0  0  0  0
 11 12  2  0  0  0  0
 11 29  1  0  0  0  0
 12 30  1  0  0  0  0
 13 19  1  0  0  0  0
 13 25  2  0  0  0  0
 14 19  2  0  0  0  0
 14 26  1  0  0  0  0
 15 24  1  0  0  0  0
 15 28  2  0  0  0  0
 16 25  1  0  0  0  0
 16 26  2  0  0  0  0
 17 30  2  0  0  0  0
 17 31  1  0  0  0  0
 18 32  1  0  0  0  0
 19 34  1  0  0  0  0
 20 32  1  0  0  0  0
 20 33  2  0  0  0  0
 20 37  1  0  0  0  0
 21 23  2  0  0  0  0
 21 44  1  0  0  0  0
 22 24  2  0  0  0  0
 22 45  1  0  0  0  0
 23 53  1  0  0  0  0
 24 46  1  0  0  0  0
 25 71  1  0  0  0  0
 26 72  1  0  0  0  0
 27 83  1  0  0  0  0
 28 84  1  0  0  0  0
 29 31  2  0  0  0  0
 29 83  1  0  0  0  0
 30 85  1  0  0  0  0
 31 86  1  0  0  0  0
 32 65  2  0  0  0  0
 33 66  1  0  0  0  0
 33 69  1  0  0  0  0
 34 35  2  0  0  0  0
 35 39  1  0  0  0  0
 36 38  2  0  0  0  0
 36 84  1  0  0  0  0
 37 70  1  0  0  0  0
 37 76  2  0  0  0  0
 38 40  1  0  0  0  0
 38 82  1  0  0  0  0
 39 67  1  0  0  0  0
 39 77  2  0  0  0  0
 40 71  1  0  0  0  0
 40 78  2  0  0  0  0
 41 54  1  0  0  0  0
 41 73  1  0  0  0  0
 41 79  2  0  0  0  0
 42 62  1  0  0  0  0
 42 68  1  0  0  0  0
 42 80  2  0  0  0  0
 43 63  1  0  0  0  0
 43 74  1  0  0  0  0
 43 81  2  0  0  0  0
 44 47  1  0  0  0  0
 45 54  1  0  0  0  0
 46 68  1  0  0  0  0
 47 49  1  0  0  0  0
 48 50  1  0  0  0  0
 48 51  1  0  0  0  0
 49 53  1  0  0  0  0
 50 55  1  0  0  0  0
 51 67  1  0  0  0  0
 52 55  1  0  0  0  0
 52 67  1  0  0  0  0
 53 73  1  0  0  0  0
 54 68  1  0  0  0  0
 55 66  1  0  0  0  0
 56 63  1  0  0  0  0
 57 64  1  0  0  0  0
 58 64  1  0  0  0  0
 59 64  1  0  0  0  0
 60 72  1  0  0  0  0
 61 75  1  0  0  0  0
 62 64  1  0  0  0  0
 62 74  1  0  0  0  0
 63 75  1  0  0  0  0
 65 66  1  0  0  0  0
M  CHG  1  75   1
M  ISO  4  35 100  36 101  39 100  84 101
M  END
> <Batch ID>
0161

> <Smiles>
CNc1cc(C=[100CH:0][100C:0](=O)N2CCCC(n3nc(-c4ccc(Oc5ccc(F)cc5F)cc4)c(C(N)=O)c3N)C2)cc(NC(=O)C(=O)[101CH2:1][101O:1]c2ccc3c(c2)CN(C(=O)C(NC(=O)C(C)NC)C(C)(C)C)C(C(=O)NC2CCCc4ccccc42)C3)c1

> <Shape>
0.260

> <Color>
0.126

> <Negative vol penalty>
0.000

$$$$

  -OEChem-04052303533D

 84 92  0     1  0  0  0  0  0999 V2000
  -19.0514  -28.7542   18.8920 C   0  0  0  0  0  0  0  0  0  0  0  0
  -20.4349  -28.7675   19.0376 C   0  0  0  0  0  0  0  0  0  0  0  0
  -23.2596  -15.9402   25.5589 C   0  0  0  0  0  0  0  0  0  0  0  0
  -22.7016  -17.9915   24.4107 C   0  0  0  0  0  0  0  0  0  0  0  0
  -18.2384  -28.4851   19.9923 C   0  0  0  0  0  0  0  0  0  0  0  0
  -21.0062  -28.5129   20.2838 C   0  0  0  0  0  0  0  0  0  0  0  0
  -24.9372  -25.3325   20.0054 C   0  0  0  0  0  0  0  0  0  0  0  0
  -22.4243  -16.3042   26.6150 C   0  0  0  0  0  0  0  0  0  0  0  0
  -21.8663  -18.3554   25.4668 C   0  0  0  0  0  0  0  0  0  0  0  0
  -26.1511  -25.8577   19.5643 C   0  0  0  0  0  0  0  0  0  0  0  0
  -22.1965  -19.6556   28.5703 C   0  0  0  0  0  0  0  0  0  0  0  0
  -22.2776  -20.9670   29.0385 C   0  0  0  0  0  0  0  0  0  0  0  0
  -26.9094  -26.0083   21.8494 C   0  0  0  0  0  0  0  0  0  0  0  0
  -30.5532  -21.5031   19.4878 C   0  0  0  0  0  0  0  0  0  0  0  0
  -19.9487  -21.3062   28.4924 C   0  0  0  0  0  0  0  0  0  0  0  0
  -23.3983  -16.7839   24.4567 C   0  0  0  0  0  0  0  0  0  0  0  0
  -23.9105  -15.6716   22.2188 C   0  0  0  0  0  0  0  0  0  0  0  0
  -18.8004  -28.2175   21.2506 C   0  0  0  0  0  0  0  0  0  0  0  0
  -24.6958  -25.1512   21.3748 C   0  0  0  0  0  0  0  0  0  0  0  0
  -20.2000  -28.2412   21.4023 C   0  0  0  0  0  0  0  0  0  0  0  0
  -25.6926  -25.4783   22.3051 C   0  0  0  0  0  0  0  0  0  0  0  0
  -29.3084  -21.0535   19.9893 C   0  0  0  0  0  0  0  0  0  0  0  0
  -21.7276  -17.5117   26.5690 C   0  0  0  0  0  0  0  0  0  0  0  0
  -27.1363  -26.1983   20.4865 C   0  0  0  0  0  0  0  0  0  0  0  0
  -20.9914  -19.1695   28.0630 C   0  0  0  0  0  0  0  0  0  0  0  0
  -21.1538  -21.7923   28.9996 C   0  0  0  0  0  0  0  0  0  0  0  0
  -19.8676  -19.9947   28.0241 C   0  0  0  0  0  0  0  0  0  0  0  0
  -24.2615  -16.4088   23.3657 C   0  0  0  0  0  0  0  0  0  0  0  0
  -28.3698  -21.9565   19.5470 C   0  0  0  0  0  0  0  0  0  0  0  0
  -25.0755  -15.5852   21.4965 C   0  0  0  0  0  0  0  0  0  0  0  0
  -30.2865  -22.6487   18.7746 C   0  0  0  0  0  0  0  0  0  0  0  0
  -22.6446  -15.1149   21.8403 C   0  0  0  0  0  0  0  0  0  0  0  0
  -22.5936  -26.3156   23.4554 C   0  0  0  0  0  0  0  0  0  0  0  0
  -30.2969  -26.2976   18.7264 C   0  0  0  0  0  0  0  0  0  0  0  0
  -23.9681  -24.1633   25.4556 C   0  0  0  0  0  0  0  0  0  0  0  0
  -26.6947  -22.2664   26.2393 C   0  0  0  0  0  0  0  0  0  0  0  0
  -29.9867  -18.9798   21.2487 C   0  0  0  0  0  0  0  0  0  0  0  0
  -17.8796  -27.9785   22.4209 C   0  0  0  0  0  0  0  0  0  0  0  0
  -23.3914  -24.5587   21.8328 C   0  0  0  0  0  0  0  0  0  0  0  0
  -25.4908  -25.2841   23.7850 C   0  0  0  0  0  0  0  0  0  0  0  0
  -18.5756  -27.3494   23.6250 C   0  0  0  0  0  0  0  0  0  0  0  0
  -29.8314  -15.5153   22.0547 C   0  0  0  0  0  0  0  0  0  0  0  0
  -19.8905  -28.0658   23.9160 C   0  0  0  0  0  0  0  0  0  0  0  0
  -28.3524  -15.2828   22.3721 C   0  0  0  0  0  0  0  0  0  0  0  0
  -30.3079  -16.8824   22.5420 C   0  0  0  0  0  0  0  0  0  0  0  0
  -28.0211  -17.7881   22.4027 C   0  0  0  0  0  0  0  0  0  0  0  0
  -20.8580  -27.9454   22.7325 C   0  0  1  0  0  0  0  0  0  0  0  0
  -23.0577  -24.8970   23.2825 C   0  0  1  0  0  0  0  0  0  0  0  0
  -27.4787  -16.4505   21.8733 C   0  0  2  0  0  0  0  0  0  0  0  0
  -26.9124  -22.0657   19.7131 C   0  0  0  0  0  0  0  0  0  0  0  0
  -28.0705  -20.5590   27.4596 C   0  0  0  0  0  0  0  0  0  0  0  0
  -24.4247  -26.4604   27.4113 C   0  0  0  0  0  0  0  0  0  0  0  0
  -26.0629  -25.0082   28.6261 C   0  0  0  0  0  0  0  0  0  0  0  0
  -23.6692  -24.3240   28.4694 C   0  0  0  0  0  0  0  0  0  0  0  0
  -25.7507  -20.0801   24.4821 C   0  0  0  0  0  0  0  0  0  0  0  0
  -28.7820  -26.2987   18.7726 C   0  0  0  0  0  0  0  0  0  1  0  0
  -30.6358  -24.4180   17.0504 C   0  0  0  0  0  0  0  0  0  0  0  0
  -30.9494  -25.8577   17.4287 C   0  0  2  0  0  0  0  0  0  0  0  0
  -25.1345  -24.1873   26.4136 C   0  0  1  0  0  0  0  0  0  0  0  0
  -26.8283  -20.8021   26.6166 C   0  0  2  0  0  0  0  0  0  0  0  0
  -24.8262  -25.0006   27.7024 C   0  0  0  0  0  0  0  0  0  0  0  0
  -25.5487  -16.7651   23.3757 N   0  0  0  0  0  0  0  0  0  0  0  0
  -26.0168  -16.2496   22.2263 N   0  0  0  0  0  0  0  0  0  0  0  0
  -24.1962  -24.7074   24.1836 N   0  0  0  0  0  0  0  0  0  0  0  0
  -29.4354  -17.9398   22.0266 N   0  0  0  0  0  0  0  0  0  0  0  0
  -25.3763  -15.0063   20.3146 N   0  0  0  0  0  0  0  0  0  0  0  0
  -21.5514  -15.2968   22.6982 N   0  0  0  0  0  0  0  0  0  0  0  0
  -29.0559  -19.9098   20.7867 N   0  0  0  0  0  0  0  0  0  0  0  0
  -31.1103  -23.5107   18.0694 N   0  0  0  0  0  0  0  0  0  0  0  0
  -21.4726  -26.6352   22.7133 N   0  0  0  0  0  0  0  0  0  0  0  0
  -25.4913  -22.7939   26.6574 N   0  0  0  0  0  0  0  0  0  0  0  0
  -26.9187  -19.9578   25.3920 N   0  3  0  0  0  0  0  0  0  0  0  0
  -22.4915  -14.4610   20.7808 O   0  0  0  0  0  0  0  0  0  0  0  0
  -23.2063  -27.0643   24.2075 O   0  0  0  0  0  0  0  0  0  0  0  0
  -30.9784  -26.6588   19.6861 O   0  0  0  0  0  0  0  0  0  0  0  0
  -22.8963  -23.6733   25.8199 O   0  0  0  0  0  0  0  0  0  0  0  0
  -27.5719  -22.8819   25.6373 O   0  0  0  0  0  0  0  0  0  0  0  0
  -31.1914  -19.0261   20.9872 O   0  0  0  0  0  0  0  0  0  0  0  0
  -28.9578  -22.9318   18.8057 O   0  0  0  0  0  0  0  0  0  0  0  0
  -20.9123  -17.8670   27.5993 O   0  0  0  0  0  0  0  0  0  0  0  0
  -28.3217  -26.7117   20.0587 O   0  0  0  0  0  0  0  0  0  1  0  0
  -21.2315  -23.0511   29.4507 F   0  0  0  0  0  0  0  0  0  0  0  0
  -18.7069  -19.5330   27.5390 F   0  0  0  0  0  0  0  0  0  0  0  0
  -32.3051  -25.9936   17.5073 F   0  0  0  0  0  0  0  0  0  0  0  0
  1  2  1  0  0  0  0
  1  5  2  0  0  0  0
  2  6  2  0  0  0  0
  3  8  2  0  0  0  0
  3 16  1  0  0  0  0
  4  9  1  0  0  0  0
  4 16  2  0  0  0  0
  5 18  1  0  0  0  0
  6 20  1  0  0  0  0
  7 10  2  0  0  0  0
  7 19  1  0  0  0  0
  8 23  1  0  0  0  0
  9 23  2  0  0  0  0
 10 24  1  0  0  0  0
 11 12  2  0  0  0  0
 11 25  1  0  0  0  0
 12 26  1  0  0  0  0
 13 21  1  0  0  0  0
 13 24  2  0  0  0  0
 14 22  1  0  0  0  0
 14 31  2  0  0  0  0
 15 26  2  0  0  0  0
 15 27  1  0  0  0  0
 16 28  1  0  0  0  0
 17 28  1  0  0  0  0
 17 30  2  0  0  0  0
 17 32  1  0  0  0  0
 18 20  2  0  0  0  0
 18 38  1  0  0  0  0
 19 21  2  0  0  0  0
 19 39  1  0  0  0  0
 20 47  1  0  0  0  0
 21 40  1  0  0  0  0
 22 29  2  0  0  0  0
 22 68  1  0  0  0  0
 23 80  1  0  0  0  0
 24 81  1  0  0  0  0
 25 27  2  0  0  0  0
 25 80  1  0  0  0  0
 26 82  1  0  0  0  0
 27 83  1  0  0  0  0
 28 62  2  0  0  0  0
 29 50  1  0  0  0  0
 29 79  1  0  0  0  0
 30 63  1  0  0  0  0
 30 66  1  0  0  0  0
 31 69  1  0  0  0  0
 31 79  1  0  0  0  0
 32 67  1  0  0  0  0
 32 73  2  0  0  0  0
 33 48  1  0  0  0  0
 33 70  1  0  0  0  0
 33 74  2  0  0  0  0
 34 56  1  0  0  0  0
 34 58  1  0  0  0  0
 34 75  2  0  0  0  0
 35 59  1  0  0  0  0
 35 64  1  0  0  0  0
 35 76  2  0  0  0  0
 36 60  1  0  0  0  0
 36 71  1  0  0  0  0
 36 77  2  0  0  0  0
 37 65  1  0  0  0  0
 37 68  1  0  0  0  0
 37 78  2  0  0  0  0
 38 41  1  0  0  0  0
 39 48  1  0  0  0  0
 40 64  1  0  0  0  0
 41 43  1  0  0  0  0
 42 44  1  0  0  0  0
 42 45  1  0  0  0  0
 43 47  1  0  0  0  0
 44 49  1  0  0  0  0
 45 65  1  0  0  0  0
 46 49  1  0  0  0  0
 46 65  1  0  0  0  0
 47 70  1  0  0  0  0
 48 64  1  0  0  0  0
 49 63  1  0  0  0  0
 51 60  1  0  0  0  0
 52 61  1  0  0  0  0
 53 61  1  0  0  0  0
 54 61  1  0  0  0  0
 55 72  1  0  0  0  0
 56 81  1  0  0  0  0
 57 58  1  0  0  0  0
 57 69  1  0  0  0  0
 58 84  1  0  0  0  0
 59 61  1  0  0  0  0
 59 71  1  0  0  0  0
 60 72  1  0  0  0  0
 62 63  1  0  0  0  0
M  CHG  1  72   1
M  ISO  4  37 100  56 101  68 100  81 101
M  END
> <Batch ID>
0161

> <Smiles>
CNC(C)C(=O)NC(C(=O)N1Cc2cc([101O:1][101CH2:1]C(=O)C(F)CNc3cc([100NH:0][100C:0](=O)N4CCCC(n5nc(-c6ccc(Oc7ccc(F)cc7F)cc6)c(C(N)=O)c5N)C4)c(C)o3)ccc2CC1C(=O)NC1CCCc2ccccc21)C(C)(C)C

> <Shape>
0.155

> <Color>
0.117

> <Negative vol penalty>
0.000

$$$$

  -OEChem-04052303533D

 87 95  0     1  0  0  0  0  0999 V2000
  -26.8380  -24.1473   17.1133 C   0  0  0  0  0  0  0  0  0  0  0  0
  -25.7185  -24.5514   17.8335 C   0  0  0  0  0  0  0  0  0  0  0  0
  -26.7817  -12.7284   20.8601 C   0  0  0  0  0  0  0  0  0  0  0  0
  -25.8676  -13.8117   18.9036 C   0  0  0  0  0  0  0  0  0  0  0  0
  -22.8120  -22.4541   18.3396 C   0  0  0  0  0  0  0  0  0  0  0  0
  -28.1129  -24.5042   17.5506 C   0  0  0  0  0  0  0  0  0  0  0  0
  -25.8732  -25.3117   18.9921 C   0  0  0  0  0  0  0  0  0  0  0  0
  -22.6341  -29.1981   19.2126 C   0  0  0  0  0  0  0  0  0  0  0  0
  -22.0048  -23.2947   19.1061 C   0  0  0  0  0  0  0  0  0  0  0  0
  -26.0744  -11.5675   20.5479 C   0  0  0  0  0  0  0  0  0  0  0  0
  -25.1604  -12.6507   18.5912 C   0  0  0  0  0  0  0  0  0  0  0  0
  -21.3211  -28.9124   19.5842 C   0  0  0  0  0  0  0  0  0  0  0  0
  -22.9070  -10.4255   20.8438 C   0  0  0  0  0  0  0  0  0  0  0  0
  -22.2318   -9.7803   21.8800 C   0  0  0  0  0  0  0  0  0  0  0  0
  -21.7986  -29.6632   21.8263 C   0  0  0  0  0  0  0  0  0  0  0  0
  -23.2043  -22.6318   21.0959 C   0  0  0  0  0  0  0  0  0  0  0  0
  -23.5503   -7.7916   21.5007 C   0  0  0  0  0  0  0  0  0  0  0  0
  -26.6783  -13.8505   20.0380 C   0  0  0  0  0  0  0  0  0  0  0  0
  -23.8152  -21.7023   18.9512 C   0  0  0  0  0  0  0  0  0  0  0  0
  -28.7082  -15.3926   19.9425 C   0  0  0  0  0  0  0  0  0  0  0  0
  -28.2829  -25.2774   18.7098 C   0  0  0  0  0  0  0  0  0  0  0  0
  -23.5438  -29.7092   20.1494 C   0  0  0  0  0  0  0  0  0  0  0  0
  -27.1517  -25.6781   19.4461 C   0  0  0  0  0  0  0  0  0  0  0  0
  -23.1219  -29.9571   21.4635 C   0  0  0  0  0  0  0  0  0  0  0  0
  -22.2010  -23.3836   20.4843 C   0  0  0  0  0  0  0  0  0  0  0  0
  -24.0113  -21.7912   20.3294 C   0  0  0  0  0  0  0  0  0  0  0  0
  -25.2637  -11.5286   19.4134 C   0  0  0  0  0  0  0  0  0  0  0  0
  -20.9039  -29.1422   20.8919 C   0  0  0  0  0  0  0  0  0  0  0  0
  -23.9037   -9.7537   20.1361 C   0  0  0  0  0  0  0  0  0  0  0  0
  -22.5535   -8.4634   22.2084 C   0  0  0  0  0  0  0  0  0  0  0  0
  -24.2254   -8.4368   20.4646 C   0  0  0  0  0  0  0  0  0  0  0  0
  -27.4082  -15.0503   20.3604 C   0  0  0  0  0  0  0  0  0  0  0  0
  -28.9401  -16.6204   20.5128 C   0  0  0  0  0  0  0  0  0  0  0  0
  -24.6406  -20.8335   18.1214 C   0  0  0  0  0  0  0  0  0  0  0  0
  -29.6242  -14.6659   19.1127 C   0  0  0  0  0  0  0  0  0  0  0  0
  -26.2910  -28.7004   21.3898 C   0  0  0  0  0  0  0  0  0  0  0  0
  -26.3017  -31.6397   22.7619 C   0  0  0  0  0  0  0  0  0  0  0  0
  -20.3397  -25.0468   20.8184 C   0  0  0  0  0  0  0  0  0  0  0  0
  -24.5163  -34.3451   23.8295 C   0  0  0  0  0  0  0  0  0  0  0  0
  -25.3330  -21.0233   22.3318 C   0  0  0  0  0  0  0  0  0  0  0  0
  -29.6831  -25.5986   19.1693 C   0  0  0  0  0  0  0  0  0  0  0  0
  -24.9493  -30.0373   19.7260 C   0  0  0  0  0  0  0  0  0  0  0  0
  -24.0539  -30.5237   22.5021 C   0  0  0  0  0  0  0  0  0  0  0  0
  -29.7430  -26.7226   20.2004 C   0  0  0  0  0  0  0  0  0  0  0  0
  -27.7244  -19.2761   24.3081 C   0  0  0  0  0  0  0  0  0  0  0  0
  -28.6923  -26.5083   21.2854 C   0  0  0  0  0  0  0  0  0  0  0  0
  -28.0376  -18.0283   23.4791 C   0  0  0  0  0  0  0  0  0  0  0  0
  -26.2526  -19.6718   24.2034 C   0  0  0  0  0  0  0  0  0  0  0  0
  -26.0602  -18.5780   22.0044 C   0  0  0  0  0  0  0  0  0  0  0  0
  -27.2775  -26.5247   20.6941 C   0  0  1  0  0  0  0  0  0  0  0  0
  -25.9320  -30.0720   20.8924 C   0  0  1  0  0  0  0  0  0  0  0  0
  -27.5446  -18.1784   22.0265 C   0  0  2  0  0  0  0  0  0  0  0  0
  -24.0121  -20.2564   16.8882 C   0  0  0  0  0  0  0  0  0  0  0  0
  -24.7976  -36.5758   24.9441 C   0  0  0  0  0  0  0  0  0  0  0  0
  -17.7497  -28.3618   19.8446 C   0  0  0  0  0  0  0  0  0  0  0  0
  -26.6818  -30.2461   25.4495 C   0  0  0  0  0  0  0  0  0  0  0  0
  -26.0095  -32.3805   26.5725 C   0  0  0  0  0  0  0  0  0  0  0  0
  -28.0534  -32.3149   25.1439 C   0  0  0  0  0  0  0  0  0  0  0  0
  -23.4206  -35.7839   21.4868 C   0  0  0  0  0  0  0  0  0  0  0  0
  -19.7174  -25.8047   21.9848 C   0  0  0  0  0  0  0  0  0  0  0  0
  -18.5602  -26.7212   21.5784 C   0  0  0  0  0  0  0  0  0  0  0  0
  -25.7748  -32.2189   24.0526 C   0  0  1  0  0  0  0  0  0  0  0  0
  -24.7214  -35.8344   23.6185 C   0  0  2  0  0  0  0  0  0  0  0  0
  -18.9674  -27.8003   20.5675 C   0  0  2  0  0  0  0  0  0  1  0  0
  -26.6126  -31.7776   25.2858 C   0  0  0  0  0  0  0  0  0  0  0  0
  -26.8532  -15.9849   21.1366 N   0  0  0  0  0  0  0  0  0  0  0  0
  -27.8091  -16.9267   21.2109 N   0  0  0  0  0  0  0  0  0  0  0  0
  -25.4198  -30.8222   22.0409 N   0  0  0  0  0  0  0  0  0  0  0  0
  -25.8578  -19.7997   22.7989 N   0  0  0  0  0  0  0  0  0  0  0  0
  -29.9990  -17.4570   20.4804 N   0  0  0  0  0  0  0  0  0  0  0  0
  -29.2258  -13.4198   18.6098 N   0  0  0  0  0  0  0  0  0  0  0  0
  -21.3814  -24.2365   21.2613 N   0  0  0  0  0  0  0  0  0  0  0  0
  -25.0238  -21.0365   20.9721 N   0  0  0  0  0  0  0  0  0  0  0  0
  -26.8561  -27.8836   20.4291 N   0  0  0  0  0  0  0  0  0  0  0  0
  -25.7145  -33.6634   23.8571 N   0  0  0  0  0  0  0  0  0  0  0  0
  -23.5964  -36.4049   22.8249 N   0  3  0  0  0  0  0  0  0  0  0  0
  -25.8108  -20.5364   18.3613 O   0  0  0  0  0  0  0  0  0  0  0  0
  -30.7685  -15.1009   18.8392 O   0  0  0  0  0  0  0  0  0  0  0  0
  -26.0729  -28.4055   22.5590 O   0  0  0  0  0  0  0  0  0  0  0  0
  -27.4508  -31.9086   22.4030 O   0  0  0  0  0  0  0  0  0  0  0  0
  -19.9207  -25.1583   19.6710 O   0  0  0  0  0  0  0  0  0  0  0  0
  -23.4046  -33.8379   23.9607 O   0  0  0  0  0  0  0  0  0  0  0  0
  -25.1954  -21.9970   23.0768 O   0  0  0  0  0  0  0  0  0  0  0  0
  -24.5736  -10.3958   19.1082 O   0  0  0  0  0  0  0  0  0  0  0  0
  -19.6231  -28.8635   21.2574 O   0  0  0  0  0  0  0  0  0  1  0  0
  -21.9061   -7.8445   23.2044 F   0  0  0  0  0  0  0  0  0  0  0  0
  -25.1828   -7.7866   19.7890 F   0  0  0  0  0  0  0  0  0  0  0  0
  1  2  1  0  0  0  0
  1  6  2  0  0  0  0
  2  7  2  0  0  0  0
  3 10  2  0  0  0  0
  3 18  1  0  0  0  0
  4 11  1  0  0  0  0
  4 18  2  0  0  0  0
  5  9  2  0  0  0  0
  5 19  1  0  0  0  0
  6 21  1  0  0  0  0
  7 23  1  0  0  0  0
  8 12  2  0  0  0  0
  8 22  1  0  0  0  0
  9 25  1  0  0  0  0
 10 27  1  0  0  0  0
 11 27  2  0  0  0  0
 12 28  1  0  0  0  0
 13 14  2  0  0  0  0
 13 29  1  0  0  0  0
 14 30  1  0  0  0  0
 15 24  1  0  0  0  0
 15 28  2  0  0  0  0
 16 25  2  0  0  0  0
 16 26  1  0  0  0  0
 17 30  2  0  0  0  0
 17 31  1  0  0  0  0
 18 32  1  0  0  0  0
 19 26  2  0  0  0  0
 19 34  1  0  0  0  0
 20 32  1  0  0  0  0
 20 33  2  0  0  0  0
 20 35  1  0  0  0  0
 21 23  2  0  0  0  0
 21 41  1  0  0  0  0
 22 24  2  0  0  0  0
 22 42  1  0  0  0  0
 23 50  1  0  0  0  0
 24 43  1  0  0  0  0
 25 72  1  0  0  0  0
 26 73  1  0  0  0  0
 27 84  1  0  0  0  0
 28 85  1  0  0  0  0
 29 31  2  0  0  0  0
 29 84  1  0  0  0  0
 30 86  1  0  0  0  0
 31 87  1  0  0  0  0
 32 66  2  0  0  0  0
 33 67  1  0  0  0  0
 33 70  1  0  0  0  0
 34 53  1  0  0  0  0
 34 77  2  0  0  0  0
 35 71  1  0  0  0  0
 35 78  2  0  0  0  0
 36 51  1  0  0  0  0
 36 74  1  0  0  0  0
 36 79  2  0  0  0  0
 37 62  1  0  0  0  0
 37 68  1  0  0  0  0
 37 80  2  0  0  0  0
 38 60  1  0  0  0  0
 38 72  1  0  0  0  0
 38 81  2  0  0  0  0
 39 63  1  0  0  0  0
 39 75  1  0  0  0  0
 39 82  2  0  0  0  0
 40 69  1  0  0  0  0
 40 73  1  0  0  0  0
 40 83  2  0  0  0  0
 41 44  1  0  0  0  0
 42 51  1  0  0  0  0
 43 68  1  0  0  0  0
 44 46  1  0  0  0  0
 45 47  1  0  0  0  0
 45 48  1  0  0  0  0
 46 50  1  0  0  0  0
 47 52  1  0  0  0  0
 48 69  1  0  0  0  0
 49 52  1  0  0  0  0
 49 69  1  0  0  0  0
 50 74  1  0  0  0  0
 51 68  1  0  0  0  0
 52 67  1  0  0  0  0
 54 63  1  0  0  0  0
 55 64  1  0  0  0  0
 56 65  1  0  0  0  0
 57 65  1  0  0  0  0
 58 65  1  0  0  0  0
 59 76  1  0  0  0  0
 60 61  1  0  0  0  0
 61 64  1  0  0  0  0
 62 65  1  0  0  0  0
 62 75  1  0  0  0  0
 63 76  1  0  0  0  0
 64 85  1  0  0  0  0
 66 67  1  0  0  0  0
M  CHG  1  76   1
M  ISO  4  40 100  64 101  73 100  85 101
M  END
> <Batch ID>
0161

> <Smiles>
CNC(C)C(=O)NC(C(=O)N1Cc2cc([101O:1][101CH:1](C)CCC(=O)Nc3ccc(C(C)=O)c([100NH:0][100C:0](=O)N4CCCC(n5nc(-c6ccc(Oc7ccc(F)cc7F)cc6)c(C(N)=O)c5N)C4)c3)ccc2CC1C(=O)NC1CCCc2ccccc21)C(C)(C)C

> <Shape>
0.290

> <Color>
0.088

> <Negative vol penalty>
0.000

$$$$

  -OEChem-04052303533D

 88 96  0     1  0  0  0  0  0999 V2000
  -31.0568  -23.5115   15.9450 C   0  0  0  0  0  0  0  0  0  0  0  0
  -30.0231  -24.4400   15.8966 C   0  0  0  0  0  0  0  0  0  0  0  0
  -26.9907  -15.2184   21.0028 C   0  0  0  0  0  0  0  0  0  0  0  0
  -25.1754  -15.1123   19.4120 C   0  0  0  0  0  0  0  0  0  0  0  0
  -31.3828  -22.8996   17.1535 C   0  0  0  0  0  0  0  0  0  0  0  0
  -29.3230  -24.7657   17.0588 C   0  0  0  0  0  0  0  0  0  0  0  0
  -24.4922  -28.3850   17.8900 C   0  0  0  0  0  0  0  0  0  0  0  0
  -26.9214  -13.8359   21.1742 C   0  0  0  0  0  0  0  0  0  0  0  0
  -25.1061  -13.7297   19.5833 C   0  0  0  0  0  0  0  0  0  0  0  0
  -23.1040  -28.2586   17.9162 C   0  0  0  0  0  0  0  0  0  0  0  0
  -24.2110  -10.2188   19.8706 C   0  0  0  0  0  0  0  0  0  0  0  0
  -22.9479   -9.6468   20.0217 C   0  0  0  0  0  0  0  0  0  0  0  0
  -23.1702  -28.0972   20.3222 C   0  0  0  0  0  0  0  0  0  0  0  0
  -22.5775  -10.9867   21.9977 C   0  0  0  0  0  0  0  0  0  0  0  0
  -18.6494  -21.7539   18.1717 C   0  0  0  0  0  0  0  0  0  0  0  0
  -26.1177  -15.8566   20.1218 C   0  0  0  0  0  0  0  0  0  0  0  0
  -17.9607  -22.8724   18.5948 C   0  0  0  0  0  0  0  0  0  0  0  0
  -26.9686  -17.9877   19.0072 C   0  0  0  0  0  0  0  0  0  0  0  0
  -30.6776  -23.2092   18.3282 C   0  0  0  0  0  0  0  0  0  0  0  0
  -25.2320  -28.3575   19.0809 C   0  0  0  0  0  0  0  0  0  0  0  0
  -29.6528  -24.1767   18.2928 C   0  0  0  0  0  0  0  0  0  0  0  0
  -24.5674  -28.2261   20.3086 C   0  0  0  0  0  0  0  0  0  0  0  0
  -25.9792  -13.0915   20.4644 C   0  0  0  0  0  0  0  0  0  0  0  0
  -22.4430  -28.1118   19.1322 C   0  0  0  0  0  0  0  0  0  0  0  0
  -24.6574  -11.1748   20.7830 C   0  0  0  0  0  0  0  0  0  0  0  0
  -22.1311  -10.0307   21.0852 C   0  0  0  0  0  0  0  0  0  0  0  0
  -23.8407  -11.5587   21.8466 C   0  0  0  0  0  0  0  0  0  0  0  0
  -26.1884  -17.2849   19.9448 C   0  0  0  0  0  0  0  0  0  0  0  0
  -18.4836  -23.5129   19.6996 C   0  0  0  0  0  0  0  0  0  0  0  0
  -26.6823  -19.3098   19.2445 C   0  0  0  0  0  0  0  0  0  0  0  0
  -20.1739  -21.9996   19.8397 C   0  0  0  0  0  0  0  0  0  0  0  0
  -16.7649  -23.3123   17.8941 C   0  0  0  0  0  0  0  0  0  0  0  0
  -27.8715  -17.4898   18.0109 C   0  0  0  0  0  0  0  0  0  0  0  0
  -27.4860  -26.4628   20.2781 C   0  0  0  0  0  0  0  0  0  0  0  0
  -17.1192  -25.9862   22.9588 C   0  0  0  0  0  0  0  0  0  0  0  0
  -19.2256  -26.5740   19.7948 C   0  0  0  0  0  0  0  0  0  0  0  0
  -27.5743  -28.7014   22.6240 C   0  0  0  0  0  0  0  0  0  0  0  0
  -25.9625  -31.1860   24.3199 C   0  0  0  0  0  0  0  0  0  0  0  0
  -21.9605  -22.1028   21.6128 C   0  0  0  0  0  0  0  0  0  0  0  0
  -31.0773  -22.5228   19.6105 C   0  0  0  0  0  0  0  0  0  0  0  0
  -26.7265  -28.5220   19.0376 C   0  0  0  0  0  0  0  0  0  0  0  0
  -25.3137  -28.2109   21.6167 C   0  0  0  0  0  0  0  0  0  0  0  0
  -29.9991  -22.5988   20.6866 C   0  0  0  0  0  0  0  0  0  0  0  0
  -25.3296  -22.2777   22.7511 C   0  0  0  0  0  0  0  0  0  0  0  0
  -29.5129  -24.0327   20.8349 C   0  0  0  0  0  0  0  0  0  0  0  0
  -26.0046  -21.0847   22.0705 C   0  0  0  0  0  0  0  0  0  0  0  0
  -23.8948  -21.9567   23.1659 C   0  0  0  0  0  0  0  0  0  0  0  0
  -23.7171  -20.2347   21.4132 C   0  0  0  0  0  0  0  0  0  0  0  0
  -28.8572  -24.5240   19.5381 C   0  0  1  0  0  0  0  0  0  0  0  0
  -27.4251  -27.9641   20.2738 C   0  0  1  0  0  0  0  0  0  0  0  0
  -25.1426  -20.5309   20.9191 C   0  0  2  0  0  0  0  0  0  0  0  0
  -16.1855  -26.8129   23.8048 C   0  0  0  0  0  0  0  0  0  0  0  0
  -26.2776  -32.8057   26.2106 C   0  0  0  0  0  0  0  0  0  0  0  0
  -27.1717  -26.4364   24.6283 C   0  0  0  0  0  0  0  0  0  0  0  0
  -26.5504  -28.1548   26.3398 C   0  0  0  0  0  0  0  0  0  0  0  0
  -28.8322  -28.1691   25.3319 C   0  0  0  0  0  0  0  0  0  0  0  0
  -25.6032  -33.5189   22.5346 C   0  0  0  0  0  0  0  0  0  0  0  0
  -17.5110  -26.5852   21.6166 C   0  0  0  0  0  0  0  0  0  0  0  0
  -20.5284  -27.2211   20.2263 C   0  0  0  0  0  0  0  0  0  1  0  0
  -18.5134  -25.7305   20.8428 C   0  0  1  0  0  0  0  0  0  0  0  0
  -26.8561  -28.9037   23.9363 C   0  0  1  0  0  0  0  0  0  0  0  0
  -26.3994  -32.5863   24.7106 C   0  0  2  0  0  0  0  0  0  0  0  0
  -27.3384  -27.9143   25.0345 C   0  0  0  0  0  0  0  0  0  0  0  0
  -19.7636  -21.2877   18.7728 N   0  0  0  0  0  0  0  0  0  0  0  0
  -25.4611  -18.0936   20.7200 N   0  0  0  0  0  0  0  0  0  0  0  0
  -19.5925  -23.1023   20.3492 N   0  0  0  0  0  0  0  0  0  0  0  0
  -16.2782  -22.7019   16.8545 N   0  0  0  0  0  0  0  0  0  0  0  0
  -25.7832  -19.3183   20.2700 N   0  0  0  0  0  0  0  0  0  0  0  0
  -26.7744  -28.3687   21.5216 N   0  0  0  0  0  0  0  0  0  0  0  0
  -23.1371  -21.4413   22.0235 N   0  0  0  0  0  0  0  0  0  0  0  0
  -27.1145  -20.4544   18.6739 N   0  0  0  0  0  0  0  0  0  0  0  0
  -28.0486  -16.1038   17.9024 N   0  0  0  0  0  0  0  0  0  0  0  0
  -17.8364  -24.6408   20.1721 N   0  0  0  0  0  0  0  0  0  0  0  0
  -21.3432  -21.5410   20.4957 N   0  0  0  0  0  0  0  0  0  0  0  0
  -28.6002  -25.9431   19.6473 N   0  0  0  0  0  0  0  0  0  0  0  0
  -27.0271  -30.3105   24.2827 N   0  0  0  0  0  0  0  0  0  0  0  0
  -25.5594  -33.6034   24.0172 N   0  3  0  0  0  0  0  0  0  0  0  0
  -28.5149  -18.2523   17.2505 O   0  0  0  0  0  0  0  0  0  0  0  0
  -26.5893  -25.8233   20.8154 O   0  0  0  0  0  0  0  0  0  0  0  0
  -17.5319  -24.8966   23.3527 O   0  0  0  0  0  0  0  0  0  0  0  0
  -18.7654  -26.7409   18.6650 O   0  0  0  0  0  0  0  0  0  0  0  0
  -28.7990  -28.8408   22.5771 O   0  0  0  0  0  0  0  0  0  0  0  0
  -24.7932  -30.8967   24.0760 O   0  0  0  0  0  0  0  0  0  0  0  0
  -21.5470  -23.1107   22.1916 O   0  0  0  0  0  0  0  0  0  0  0  0
  -25.9114  -11.7424   20.6312 O   0  0  0  0  0  0  0  0  0  0  0  0
  -21.0881  -27.9875   19.1606 O   0  0  0  0  0  0  0  0  0  1  0  0
  -20.9176   -9.4824   21.2293 F   0  0  0  0  0  0  0  0  0  0  0  0
  -24.2636  -12.4775   22.7257 F   0  0  0  0  0  0  0  0  0  0  0  0
  1  2  1  0  0  0  0
  1  5  2  0  0  0  0
  2  6  2  0  0  0  0
  3  8  2  0  0  0  0
  3 16  1  0  0  0  0
  4  9  1  0  0  0  0
  4 16  2  0  0  0  0
  5 19  1  0  0  0  0
  6 21  1  0  0  0  0
  7 10  2  0  0  0  0
  7 20  1  0  0  0  0
  8 23  1  0  0  0  0
  9 23  2  0  0  0  0
 10 24  1  0  0  0  0
 11 12  2  0  0  0  0
 11 25  1  0  0  0  0
 12 26  1  0  0  0  0
 13 22  1  0  0  0  0
 13 24  2  0  0  0  0
 14 26  2  0  0  0  0
 14 27  1  0  0  0  0
 15 17  1  0  0  0  0
 15 64  2  0  0  0  0
 16 28  1  0  0  0  0
 17 29  2  0  0  0  0
 17 32  1  0  0  0  0
 18 28  1  0  0  0  0
 18 30  2  0  0  0  0
 18 33  1  0  0  0  0
 19 21  2  0  0  0  0
 19 40  1  0  0  0  0
 20 22  2  0  0  0  0
 20 41  1  0  0  0  0
 21 49  1  0  0  0  0
 22 42  1  0  0  0  0
 23 85  1  0  0  0  0
 24 86  1  0  0  0  0
 25 27  2  0  0  0  0
 25 85  1  0  0  0  0
 26 87  1  0  0  0  0
 27 88  1  0  0  0  0
 28 65  2  0  0  0  0
 29 66  1  0  0  0  0
 29 73  1  0  0  0  0
 30 68  1  0  0  0  0
 30 71  1  0  0  0  0
 31 64  1  0  0  0  0
 31 66  2  0  0  0  0
 31 74  1  0  0  0  0
 32 67  2  0  0  0  0
 33 72  1  0  0  0  0
 33 78  2  0  0  0  0
 34 50  1  0  0  0  0
 34 75  1  0  0  0  0
 34 79  2  0  0  0  0
 35 52  1  0  0  0  0
 35 58  1  0  0  0  0
 35 80  2  0  0  0  0
 36 59  1  0  0  0  0
 36 60  1  0  0  0  0
 36 81  2  0  0  0  0
 37 61  1  0  0  0  0
 37 69  1  0  0  0  0
 37 82  2  0  0  0  0
 38 62  1  0  0  0  0
 38 76  1  0  0  0  0
 38 83  2  0  0  0  0
 39 70  1  0  0  0  0
 39 74  1  0  0  0  0
 39 84  2  0  0  0  0
 40 43  1  0  0  0  0
 41 50  1  0  0  0  0
 42 69  1  0  0  0  0
 43 45  1  0  0  0  0
 44 46  1  0  0  0  0
 44 47  1  0  0  0  0
 45 49  1  0  0  0  0
 46 51  1  0  0  0  0
 47 70  1  0  0  0  0
 48 51  1  0  0  0  0
 48 70  1  0  0  0  0
 49 75  1  0  0  0  0
 50 69  1  0  0  0  0
 51 68  1  0  0  0  0
 53 62  1  0  0  0  0
 54 63  1  0  0  0  0
 55 63  1  0  0  0  0
 56 63  1  0  0  0  0
 57 77  1  0  0  0  0
 58 60  1  0  0  0  0
 59 86  1  0  0  0  0
 60 73  1  0  0  0  0
 61 63  1  0  0  0  0
 61 76  1  0  0  0  0
 62 77  1  0  0  0  0
 65 68  1  0  0  0  0
M  CHG  1  77   1
M  ISO  4  39 100  59 101  74 100  86 101
M  END
> <Batch ID>
0161

> <Smiles>
CNC(C)C(=O)NC(C(=O)N1Cc2cc([101O:1][101CH2:1]C(=O)C(CC(C)=O)Nc3nc([100NH:0][100C:0](=O)N4CCCC(n5nc(-c6ccc(Oc7ccc(F)cc7F)cc6)c(C(N)=O)c5N)C4)ncc3C=N)ccc2CC1C(=O)NC1CCCc2ccccc21)C(C)(C)C

> <Shape>
0.228

> <Color>
0.053

> <Negative vol penalty>
0.000

$$$$

  -OEChem-04052303533D

 86 94  0     1  0  0  0  0  0999 V2000
  -29.0240  -38.1113   22.1997 C   0  0  0  0  0  0  0  0  0  0  0  0
  -29.3914  -36.8342   21.7881 C   0  0  0  0  0  0  0  0  0  0  0  0
  -23.7496   -9.7432   22.3909 C   0  0  0  0  0  0  0  0  0  0  0  0
  -24.5573  -11.3872   23.9663 C   0  0  0  0  0  0  0  0  0  0  0  0
  -28.0167  -38.2734   23.1500 C   0  0  0  0  0  0  0  0  0  0  0  0
  -28.7524  -35.7183   22.3274 C   0  0  0  0  0  0  0  0  0  0  0  0
  -27.4659  -30.4657   19.4534 C   0  0  0  0  0  0  0  0  0  0  0  0
  -23.2791   -8.9626   23.4467 C   0  0  0  0  0  0  0  0  0  0  0  0
  -24.0867  -10.6066   25.0222 C   0  0  0  0  0  0  0  0  0  0  0  0
  -28.1075  -29.2281   19.4292 C   0  0  0  0  0  0  0  0  0  0  0  0
  -20.6153   -8.9340   25.5291 C   0  0  0  0  0  0  0  0  0  0  0  0
  -19.3353   -8.3918   25.4141 C   0  0  0  0  0  0  0  0  0  0  0  0
  -26.6262  -28.4331   21.1592 C   0  0  0  0  0  0  0  0  0  0  0  0
  -28.8509  -18.3848   18.7281 C   0  0  0  0  0  0  0  0  0  0  0  0
  -31.1480  -17.6792   18.4782 C   0  0  0  0  0  0  0  0  0  0  0  0
  -30.6141  -20.0320   18.6067 C   0  0  0  0  0  0  0  0  0  0  0  0
  -20.2610   -6.1677   25.5970 C   0  0  0  0  0  0  0  0  0  0  0  0
  -24.3888  -10.9555   22.6507 C   0  0  0  0  0  0  0  0  0  0  0  0
  -24.1755  -12.7689   20.8692 C   0  0  0  0  0  0  0  0  0  0  0  0
  -27.3584  -37.1593   23.6941 C   0  0  0  0  0  0  0  0  0  0  0  0
  -26.4049  -30.7001   20.3398 C   0  0  0  0  0  0  0  0  0  0  0  0
  -27.7363  -35.8656   23.2869 C   0  0  0  0  0  0  0  0  0  0  0  0
  -25.9711  -29.6737   21.1909 C   0  0  0  0  0  0  0  0  0  0  0  0
  -29.7945  -17.3654   18.6020 C   0  0  0  0  0  0  0  0  0  0  0  0
  -29.2607  -19.7181   18.7305 C   0  0  0  0  0  0  0  0  0  0  0  0
  -23.4476   -9.3942   24.7623 C   0  0  0  0  0  0  0  0  0  0  0  0
  -27.6896  -28.2125   20.2842 C   0  0  0  0  0  0  0  0  0  0  0  0
  -21.7182   -8.0930   25.6780 C   0  0  0  0  0  0  0  0  0  0  0  0
  -19.1581   -7.0087   25.4481 C   0  0  0  0  0  0  0  0  0  0  0  0
  -31.5578  -19.0125   18.4806 C   0  0  0  0  0  0  0  0  0  0  0  0
  -21.5410   -6.7099   25.7120 C   0  0  0  0  0  0  0  0  0  0  0  0
  -24.8757  -11.7621   21.5605 C   0  0  0  0  0  0  0  0  0  0  0  0
  -25.0696  -13.2280   19.9330 C   0  0  0  0  0  0  0  0  0  0  0  0
  -22.8367  -13.2465   21.0565 C   0  0  0  0  0  0  0  0  0  0  0  0
  -27.5204  -24.4582   19.0608 C   0  0  0  0  0  0  0  0  0  0  0  0
  -27.3961  -22.9477   19.0184 C   0  0  0  0  0  0  0  0  0  0  0  0
  -25.9024  -32.7018   22.7573 C   0  0  0  0  0  0  0  0  0  0  0  0
  -22.9177  -31.4340   22.6762 C   0  0  0  0  0  0  0  0  0  0  0  0
  -20.9041  -28.8168   21.8146 C   0  0  0  0  0  0  0  0  0  0  0  0
  -30.1854  -14.8795   18.4825 C   0  0  0  0  0  0  0  0  0  0  0  0
  -26.3083  -37.3825   24.7534 C   0  0  0  0  0  0  0  0  0  0  0  0
  -25.7058  -32.0319   20.3348 C   0  0  0  0  0  0  0  0  0  0  0  0
  -24.8238  -29.8680   22.1470 C   0  0  0  0  0  0  0  0  0  0  0  0
  -25.4226  -36.1638   24.9993 C   0  0  0  0  0  0  0  0  0  0  0  0
  -29.5475  -11.3767   18.4691 C   0  0  0  0  0  0  0  0  0  0  0  0
  -26.2720  -34.9029   25.1239 C   0  0  0  0  0  0  0  0  0  0  0  0
  -28.2176  -11.2475   19.2153 C   0  0  0  0  0  0  0  0  0  0  0  0
  -30.4268  -12.4755   19.0633 C   0  0  0  0  0  0  0  0  0  0  0  0
  -28.4501  -13.6585   19.9363 C   0  0  0  0  0  0  0  0  0  0  0  0
  -27.0495  -34.6315   23.8304 C   0  0  1  0  0  0  0  0  0  0  0  0
  -24.9715  -32.3262   21.6392 C   0  0  1  0  0  0  0  0  0  0  0  0
  -27.5032  -12.6081   19.3333 C   0  0  2  0  0  0  0  0  0  0  0  0
  -18.5149  -28.0551   21.9092 C   0  0  0  0  0  0  0  0  0  0  0  0
  -23.2353  -30.8151   25.6470 C   0  0  0  0  0  0  0  0  0  0  0  0
  -21.2887  -29.2520   25.4582 C   0  0  0  0  0  0  0  0  0  0  0  0
  -20.9820  -31.6844   24.9976 C   0  0  0  0  0  0  0  0  0  0  0  0
  -20.7186  -28.6513   18.8655 C   0  0  0  0  0  0  0  0  0  0  0  0
  -28.9045  -25.0643   18.9627 C   0  0  0  0  0  0  0  0  0  0  0  0
  -28.6560  -22.1349   18.8680 C   0  0  0  0  0  0  0  0  0  0  0  0
  -28.8780  -26.5856   19.0206 C   0  0  0  0  0  0  0  0  0  1  0  0
  -22.2383  -30.2562   23.3320 C   0  0  1  0  0  0  0  0  0  0  0  0
  -19.5749  -28.7668   21.0830 C   0  0  2  0  0  0  0  0  0  0  0  0
  -21.9590  -30.4986   24.8422 C   0  0  0  0  0  0  0  0  0  0  0  0
  -26.1187  -11.5910   21.1025 N   0  0  0  0  0  0  0  0  0  0  0  0
  -26.2066  -12.4965   20.1133 N   0  0  0  0  0  0  0  0  0  0  0  0
  -24.1765  -31.1898   22.1091 N   0  0  0  0  0  0  0  0  0  0  0  0
  -29.6851  -13.7360   19.1404 N   0  0  0  0  0  0  0  0  0  0  0  0
  -24.9863  -14.1819   18.9815 N   0  0  0  0  0  0  0  0  0  0  0  0
  -22.0545  -12.6646   22.0634 N   0  0  0  0  0  0  0  0  0  0  0  0
  -29.3785  -16.0109   18.5989 N   0  0  0  0  0  0  0  0  0  0  0  0
  -28.3229  -20.7319   18.8558 N   0  0  0  0  0  0  0  0  0  0  0  0
  -26.1788  -34.0538   22.8291 N   0  0  0  0  0  0  0  0  0  0  0  0
  -21.0443  -29.9809   22.5402 N   0  0  0  0  0  0  0  0  0  0  0  0
  -19.7236  -28.0455   19.7874 N   0  3  0  0  0  0  0  0  0  0  0  0
  -22.3429  -14.1508   20.3409 O   0  0  0  0  0  0  0  0  0  0  0  0
  -26.4842  -25.0996   19.1782 O   0  0  0  0  0  0  0  0  0  0  0  0
  -26.2677  -22.4796   19.1048 O   0  0  0  0  0  0  0  0  0  0  0  0
  -26.3365  -31.8298   23.5008 O   0  0  0  0  0  0  0  0  0  0  0  0
  -22.3492  -32.5286   22.6611 O   0  0  0  0  0  0  0  0  0  0  0  0
  -21.7334  -27.9119   21.7518 O   0  0  0  0  0  0  0  0  0  0  0  0
  -31.2375  -14.8497   17.8389 O   0  0  0  0  0  0  0  0  0  0  0  0
  -22.9883   -8.6329   25.7928 O   0  0  0  0  0  0  0  0  0  0  0  0
  -28.3145  -27.0039   20.2631 O   0  0  0  0  0  0  0  0  0  1  0  0
  -17.9287   -6.4883   25.3392 F   0  0  0  0  0  0  0  0  0  0  0  0
  -32.8574  -19.3142   18.3612 F   0  0  0  0  0  0  0  0  0  0  0  0
  -22.5966   -5.8969   25.8560 F   0  0  0  0  0  0  0  0  0  0  0  0
  1  2  1  0  0  0  0
  1  5  2  0  0  0  0
  2  6  2  0  0  0  0
  3  8  2  0  0  0  0
  3 18  1  0  0  0  0
  4  9  1  0  0  0  0
  4 18  2  0  0  0  0
  5 20  1  0  0  0  0
  6 22  1  0  0  0  0
  7 10  2  0  0  0  0
  7 21  1  0  0  0  0
  8 26  1  0  0  0  0
  9 26  2  0  0  0  0
 10 27  1  0  0  0  0
 11 12  2  0  0  0  0
 11 28  1  0  0  0  0
 12 29  1  0  0  0  0
 13 23  1  0  0  0  0
 13 27  2  0  0  0  0
 14 24  1  0  0  0  0
 14 25  2  0  0  0  0
 15 24  2  0  0  0  0
 15 30  1  0  0  0  0
 16 25  1  0  0  0  0
 16 30  2  0  0  0  0
 17 29  2  0  0  0  0
 17 31  1  0  0  0  0
 18 32  1  0  0  0  0
 19 32  1  0  0  0  0
 19 33  2  0  0  0  0
 19 34  1  0  0  0  0
 20 22  2  0  0  0  0
 20 41  1  0  0  0  0
 21 23  2  0  0  0  0
 21 42  1  0  0  0  0
 22 50  1  0  0  0  0
 23 43  1  0  0  0  0
 24 70  1  0  0  0  0
 25 71  1  0  0  0  0
 26 82  1  0  0  0  0
 27 83  1  0  0  0  0
 28 31  2  0  0  0  0
 28 82  1  0  0  0  0
 29 84  1  0  0  0  0
 30 85  1  0  0  0  0
 31 86  1  0  0  0  0
 32 64  2  0  0  0  0
 33 65  1  0  0  0  0
 33 68  1  0  0  0  0
 34 69  1  0  0  0  0
 34 75  2  0  0  0  0
 35 36  1  0  0  0  0
 35 58  1  0  0  0  0
 35 76  2  0  0  0  0
 36 59  1  0  0  0  0
 36 77  2  0  0  0  0
 37 51  1  0  0  0  0
 37 72  1  0  0  0  0
 37 78  2  0  0  0  0
 38 61  1  0  0  0  0
 38 66  1  0  0  0  0
 38 79  2  0  0  0  0
 39 62  1  0  0  0  0
 39 73  1  0  0  0  0
 39 80  2  0  0  0  0
 40 67  1  0  0  0  0
 40 70  1  0  0  0  0
 40 81  2  0  0  0  0
 41 44  1  0  0  0  0
 42 51  1  0  0  0  0
 43 66  1  0  0  0  0
 44 46  1  0  0  0  0
 45 47  1  0  0  0  0
 45 48  1  0  0  0  0
 46 50  1  0  0  0  0
 47 52  1  0  0  0  0
 48 67  1  0  0  0  0
 49 52  1  0  0  0  0
 49 67  1  0  0  0  0
 50 72  1  0  0  0  0
 51 66  1  0  0  0  0
 52 65  1  0  0  0  0
 53 62  1  0  0  0  0
 54 63  1  0  0  0  0
 55 63  1  0  0  0  0
 56 63  1  0  0  0  0
 57 74  1  0  0  0  0
 58 60  1  0  0  0  0
 59 71  1  0  0  0  0
 60 83  1  0  0  0  0
 61 63  1  0  0  0  0
 61 73  1  0  0  0  0
 62 74  1  0  0  0  0
 64 65  1  0  0  0  0
M  CHG  1  74   1
M  ISO  4  40 100  60 101  70 100  83 101
M  END
> <Batch ID>
0161

> <Smiles>
CNC(C)C(=O)NC(C(=O)N1Cc2cc([101O:1][101CH2:1]CC(=O)C(=O)CNc3cc(F)cc([100NH:0][100C:0](=O)N4CCCC(n5nc(-c6ccc(Oc7ccc(F)cc7F)cc6)c(C(N)=O)c5N)C4)c3)ccc2CC1C(=O)NC1CCCc2ccccc21)C(C)(C)C

> <Shape>
0.294

> <Color>
0.124

> <Negative vol penalty>
0.000

$$$$

  -OEChem-04052303533D

 87 95  0     1  0  0  0  0  0999 V2000
  -31.2420  -21.9983   36.3256 C   0  0  0  0  0  0  0  0  0  0  0  0
  -30.5621  -22.0818   35.1148 C   0  0  0  0  0  0  0  0  0  0  0  0
  -23.0002   -9.8941   19.9810 C   0  0  0  0  0  0  0  0  0  0  0  0
  -23.7252   -9.9448   22.2851 C   0  0  0  0  0  0  0  0  0  0  0  0
  -32.5658  -21.5614   36.3518 C   0  0  0  0  0  0  0  0  0  0  0  0
  -31.2060  -21.7294   33.9292 C   0  0  0  0  0  0  0  0  0  0  0  0
  -28.3154  -18.8486   30.9307 C   0  0  0  0  0  0  0  0  0  0  0  0
  -22.2334   -8.7598   20.2472 C   0  0  0  0  0  0  0  0  0  0  0  0
  -22.9584   -8.8104   22.5513 C   0  0  0  0  0  0  0  0  0  0  0  0
  -27.3238  -19.4929   30.1922 C   0  0  0  0  0  0  0  0  0  0  0  0
  -23.2020   -5.4715   22.0792 C   0  0  0  0  0  0  0  0  0  0  0  0
  -23.7893   -4.4541   22.8312 C   0  0  0  0  0  0  0  0  0  0  0  0
  -28.7483  -19.4417   28.2461 C   0  0  0  0  0  0  0  0  0  0  0  0
  -29.8002  -17.7093   22.6972 C   0  0  0  0  0  0  0  0  0  0  0  0
  -22.0653   -4.6973   24.5063 C   0  0  0  0  0  0  0  0  0  0  0  0
  -32.3552  -18.4385   21.9748 C   0  0  0  0  0  0  0  0  0  0  0  0
  -23.7462  -10.4866   20.9999 C   0  0  0  0  0  0  0  0  0  0  0  0
  -31.6052  -19.3036   22.7588 C   0  0  0  0  0  0  0  0  0  0  0  0
  -24.1320  -13.0021   20.8241 C   0  0  0  0  0  0  0  0  0  0  0  0
  -33.2232  -21.1943   35.1670 C   0  0  0  0  0  0  0  0  0  0  0  0
  -29.5372  -18.5052   30.3342 C   0  0  0  0  0  0  0  0  0  0  0  0
  -32.5402  -21.2885   33.9393 C   0  0  0  0  0  0  0  0  0  0  0  0
  -29.7528  -18.7908   28.9785 C   0  0  0  0  0  0  0  0  0  0  0  0
  -30.3145  -18.9309   23.1214 C   0  0  0  0  0  0  0  0  0  0  0  0
  -22.2125   -8.2179   21.5323 C   0  0  0  0  0  0  0  0  0  0  0  0
  -27.5413  -19.7921   28.8505 C   0  0  0  0  0  0  0  0  0  0  0  0
  -22.0464   -6.1018   22.5407 C   0  0  0  0  0  0  0  0  0  0  0  0
  -23.2209   -4.0669   24.0448 C   0  0  0  0  0  0  0  0  0  0  0  0
  -21.4781   -5.7147   23.7543 C   0  0  0  0  0  0  0  0  0  0  0  0
  -24.5389  -11.6580   20.7254 C   0  0  0  0  0  0  0  0  0  0  0  0
  -25.2420  -13.7245   20.4599 C   0  0  0  0  0  0  0  0  0  0  0  0
  -30.5959  -16.8847   21.9147 C   0  0  0  0  0  0  0  0  0  0  0  0
  -32.1902  -20.5697   23.1760 C   0  0  0  0  0  0  0  0  0  0  0  0
  -22.8642  -13.5488   21.2106 C   0  0  0  0  0  0  0  0  0  0  0  0
  -27.5579  -20.9608   24.5217 C   0  0  0  0  0  0  0  0  0  0  0  0
  -27.4251  -21.1142   26.0094 C   0  0  0  0  0  0  0  0  0  0  0  0
  -32.5748  -19.3041   30.8226 C   0  0  0  0  0  0  0  0  0  0  0  0
  -33.1271  -17.0372   28.5691 C   0  0  0  0  0  0  0  0  0  0  0  0
  -31.9487  -15.2396   25.9182 C   0  0  0  0  0  0  0  0  0  0  0  0
  -30.7217  -14.6843   20.6944 C   0  0  0  0  0  0  0  0  0  0  0  0
  -34.6695  -20.7731   35.2398 C   0  0  0  0  0  0  0  0  0  0  0  0
  -30.5864  -17.7865   31.1375 C   0  0  0  0  0  0  0  0  0  0  0  0
  -31.0392  -18.4250   28.2858 C   0  0  0  0  0  0  0  0  0  0  0  0
  -35.1608  -20.0616   33.9818 C   0  0  0  0  0  0  0  0  0  0  0  0
  -29.6030  -12.2319   18.3682 C   0  0  0  0  0  0  0  0  0  0  0  0
  -34.7253  -20.8225   32.7336 C   0  0  0  0  0  0  0  0  0  0  0  0
  -28.1523  -11.9745   18.7822 C   0  0  0  0  0  0  0  0  0  0  0  0
  -30.5035  -12.4750   19.5780 C   0  0  0  0  0  0  0  0  0  0  0  0
  -28.5882  -13.2642   20.9115 C   0  0  0  0  0  0  0  0  0  0  0  0
  -33.1966  -20.8916   32.6348 C   0  0  1  0  0  0  0  0  0  0  0  0
  -31.9908  -17.9442   30.5630 C   0  0  1  0  0  0  0  0  0  0  0  0
  -27.6306  -13.0781   19.7232 C   0  0  2  0  0  0  0  0  0  0  0  0
  -25.0793  -20.2768   26.2752 C   0  0  0  0  0  0  0  0  0  0  0  0
  -32.6444  -13.4896   24.2596 C   0  0  0  0  0  0  0  0  0  0  0  0
  -34.7270  -19.1325   27.0329 C   0  0  0  0  0  0  0  0  0  0  0  0
  -34.5804  -17.6618   25.0121 C   0  0  0  0  0  0  0  0  0  0  0  0
  -35.7513  -16.8511   27.0601 C   0  0  0  0  0  0  0  0  0  0  0  0
  -29.8676  -13.3566   26.8573 C   0  0  0  0  0  0  0  0  0  0  0  0
  -28.0917  -19.6691   23.9817 C   0  0  0  0  0  0  0  0  0  0  0  0
  -26.5212  -20.1378   26.7301 C   0  0  2  0  0  0  0  0  0  1  0  0
  -33.2294  -17.0296   27.0629 C   0  0  1  0  0  0  0  0  0  0  0  0
  -31.9939  -13.7542   25.6086 C   0  0  2  0  0  0  0  0  0  0  0  0
  -34.5485  -17.6775   26.5553 C   0  0  0  0  0  0  0  0  0  0  0  0
  -25.8082  -11.5313   20.3294 N   0  0  0  0  0  0  0  0  0  0  0  0
  -33.3917  -20.9432   22.8523 N   0  0  0  0  0  0  0  0  0  0  0  0
  -27.1936  -21.9531   23.7808 N   0  0  0  0  0  0  0  0  0  0  0  0
  -26.2085  -12.8050   20.1759 N   0  0  0  0  0  0  0  0  0  0  0  0
  -31.8354  -17.2682   21.5800 N   0  3  0  0  0  0  0  0  0  0  0  0
  -32.0368  -17.7291   29.1153 N   0  0  0  0  0  0  0  0  0  0  0  0
  -29.9486  -13.5360   20.4214 N   0  0  0  0  0  0  0  0  0  0  0  0
  -25.4758  -15.0501   20.3579 N   0  0  0  0  0  0  0  0  0  0  0  0
  -21.8322  -12.6648   21.5540 N   0  0  0  0  0  0  0  0  0  0  0  0
  -29.5258  -19.7628   23.9045 N   0  0  0  0  0  0  0  0  0  0  0  0
  -30.0775  -15.6396   21.4799 N   0  0  0  0  0  0  0  0  0  0  0  0
  -32.6633  -19.6320   32.1621 N   0  0  0  0  0  0  0  0  0  0  0  0
  -33.0467  -15.6428   26.6484 N   0  0  0  0  0  0  0  0  0  0  0  0
  -30.6156  -13.1878   25.5849 N   0  3  0  0  0  0  0  0  0  0  0  0
  -22.6477  -14.7841   21.2344 O   0  0  0  0  0  0  0  0  0  0  0  0
  -28.0648  -22.0126   26.5373 O   0  0  0  0  0  0  0  0  0  0  0  0
  -32.9209  -20.0034   29.8777 O   0  0  0  0  0  0  0  0  0  0  0  0
  -33.9790  -16.4448   29.2361 O   0  0  0  0  0  0  0  0  0  0  0  0
  -31.0330  -15.9701   25.5461 O   0  0  0  0  0  0  0  0  0  0  0  0
  -31.8604  -14.8230   20.2404 O   0  0  0  0  0  0  0  0  0  0  0  0
  -21.4641   -7.1112   21.7925 O   0  0  0  0  0  0  0  0  0  0  0  0
  -26.5753  -20.4216   28.1276 O   0  0  0  0  0  0  0  0  0  1  0  0
  -23.7841   -3.0889   24.7662 F   0  0  0  0  0  0  0  0  0  0  0  0
  -20.3673   -6.3158   24.2022 F   0  0  0  0  0  0  0  0  0  0  0  0
  1  2  1  0  0  0  0
  1  5  2  0  0  0  0
  2  6  2  0  0  0  0
  3  8  2  0  0  0  0
  3 17  1  0  0  0  0
  4  9  1  0  0  0  0
  4 17  2  0  0  0  0
  5 20  1  0  0  0  0
  6 22  1  0  0  0  0
  7 10  2  0  0  0  0
  7 21  1  0  0  0  0
  8 25  1  0  0  0  0
  9 25  2  0  0  0  0
 10 26  1  0  0  0  0
 11 12  2  0  0  0  0
 11 27  1  0  0  0  0
 12 28  1  0  0  0  0
 13 23  1  0  0  0  0
 13 26  2  0  0  0  0
 14 24  1  0  0  0  0
 14 32  2  0  0  0  0
 15 28  2  0  0  0  0
 15 29  1  0  0  0  0
 16 18  1  0  0  0  0
 16 68  2  0  0  0  0
 17 30  1  0  0  0  0
 18 24  2  0  0  0  0
 18 33  1  0  0  0  0
 19 30  1  0  0  0  0
 19 31  2  0  0  0  0
 19 34  1  0  0  0  0
 20 22  2  0  0  0  0
 20 41  1  0  0  0  0
 21 23  2  0  0  0  0
 21 42  1  0  0  0  0
 22 50  1  0  0  0  0
 23 43  1  0  0  0  0
 24 73  1  0  0  0  0
 25 84  1  0  0  0  0
 26 85  1  0  0  0  0
 27 29  2  0  0  0  0
 27 84  1  0  0  0  0
 28 86  1  0  0  0  0
 29 87  1  0  0  0  0
 30 64  2  0  0  0  0
 31 67  1  0  0  0  0
 31 71  1  0  0  0  0
 32 68  1  0  0  0  0
 32 74  1  0  0  0  0
 33 65  2  0  0  0  0
 34 72  1  0  0  0  0
 34 78  2  0  0  0  0
 35 36  1  0  0  0  0
 35 59  1  0  0  0  0
 35 66  2  0  0  0  0
 36 60  1  0  0  0  0
 36 79  2  0  0  0  0
 37 51  1  0  0  0  0
 37 75  1  0  0  0  0
 37 80  2  0  0  0  0
 38 61  1  0  0  0  0
 38 69  1  0  0  0  0
 38 81  2  0  0  0  0
 39 62  1  0  0  0  0
 39 76  1  0  0  0  0
 39 82  2  0  0  0  0
 40 70  1  0  0  0  0
 40 74  1  0  0  0  0
 40 83  2  0  0  0  0
 41 44  1  0  0  0  0
 42 51  1  0  0  0  0
 43 69  1  0  0  0  0
 44 46  1  0  0  0  0
 45 47  1  0  0  0  0
 45 48  1  0  0  0  0
 46 50  1  0  0  0  0
 47 52  1  0  0  0  0
 48 70  1  0  0  0  0
 49 52  1  0  0  0  0
 49 70  1  0  0  0  0
 50 75  1  0  0  0  0
 51 69  1  0  0  0  0
 52 67  1  0  0  0  0
 53 60  1  0  0  0  0
 54 62  1  0  0  0  0
 55 63  1  0  0  0  0
 56 63  1  0  0  0  0
 57 63  1  0  0  0  0
 58 77  1  0  0  0  0
 59 73  1  0  0  0  0
 60 85  1  0  0  0  0
 61 63  1  0  0  0  0
 61 76  1  0  0  0  0
 62 77  1  0  0  0  0
 64 67  1  0  0  0  0
M  CHG  2  68   1  77   1
M  ISO  4  40 100  60 101  74 100  85 101
M  END
> <Batch ID>
0161

> <Smiles>
CNC(C)C(=O)NC(C(=O)N1Cc2cc([101O:1][101CH:1](C)C(=O)C(=N)CNc3cc([100NH:0][100C:0](=O)N4CCCC(n5nc(-c6ccc(Oc7ccc(F)cc7F)cc6)c(C(N)=O)c5N)C4)ncc3C=N)ccc2CC1C(=O)NC1CCCc2ccccc21)C(C)(C)C

> <Shape>
0.173

> <Color>
0.178

> <Negative vol penalty>
0.000

$$$$

  -OEChem-04052303533D

 82 90  0     1  0  0  0  0  0999 V2000
  -18.0466  -21.5087   16.4715 C   0  0  0  0  0  0  0  0  0  0  0  0
  -18.8345  -20.4356   16.8752 C   0  0  0  0  0  0  0  0  0  0  0  0
  -27.7990  -23.6698   20.8382 C   0  0  0  0  0  0  0  0  0  0  0  0
  -28.6048  -23.4216   18.5740 C   0  0  0  0  0  0  0  0  0  0  0  0
  -18.1192  -22.7216   17.1553 C   0  0  0  0  0  0  0  0  0  0  0  0
  -19.6964  -20.5751   17.9625 C   0  0  0  0  0  0  0  0  0  0  0  0
  -19.4922  -16.6236   21.1230 C   0  0  0  0  0  0  0  0  0  0  0  0
  -27.8593  -25.0572   20.7075 C   0  0  0  0  0  0  0  0  0  0  0  0
  -28.6650  -24.8090   18.4434 C   0  0  0  0  0  0  0  0  0  0  0  0
  -20.1719  -15.4676   20.7418 C   0  0  0  0  0  0  0  0  0  0  0  0
  -26.0047  -27.5096   19.3005 C   0  0  0  0  0  0  0  0  0  0  0  0
  -24.9181  -28.2520   19.7627 C   0  0  0  0  0  0  0  0  0  0  0  0
  -29.7773  -11.7996   19.9508 C   0  0  0  0  0  0  0  0  0  0  0  0
  -28.5260  -11.3443   20.4307 C   0  0  0  0  0  0  0  0  0  0  0  0
  -21.9975  -16.0674   22.2000 C   0  0  0  0  0  0  0  0  0  0  0  0
  -26.3679  -29.4113   21.3090 C   0  0  0  0  0  0  0  0  0  0  0  0
  -28.1719  -22.8520   19.7714 C   0  0  0  0  0  0  0  0  0  0  0  0
  -27.0173  -20.5831   19.6084 C   0  0  0  0  0  0  0  0  0  0  0  0
  -18.9753  -22.8731   18.2575 C   0  0  0  0  0  0  0  0  0  0  0  0
  -20.0658  -17.5172   22.0389 C   0  0  0  0  0  0  0  0  0  0  0  0
  -19.7815  -21.7916   18.6609 C   0  0  0  0  0  0  0  0  0  0  0  0
  -21.3219  -17.2327   22.5931 C   0  0  0  0  0  0  0  0  0  0  0  0
  -28.2922  -25.6268   19.5101 C   0  0  0  0  0  0  0  0  0  0  0  0
  -21.4260  -15.1908   21.2780 C   0  0  0  0  0  0  0  0  0  0  0  0
  -27.2730  -27.7179   19.8426 C   0  0  0  0  0  0  0  0  0  0  0  0
  -25.0997  -29.2029   20.7669 C   0  0  0  0  0  0  0  0  0  0  0  0
  -27.4545  -28.6688   20.8469 C   0  0  0  0  0  0  0  0  0  0  0  0
  -28.1104  -21.4187   19.9060 C   0  0  0  0  0  0  0  0  0  0  0  0
  -29.5000  -12.8113   19.0611 C   0  0  0  0  0  0  0  0  0  0  0  0
  -27.5734  -12.1105   19.8003 C   0  0  0  0  0  0  0  0  0  0  0  0
  -27.4618  -19.3177   19.9044 C   0  0  0  0  0  0  0  0  0  0  0  0
  -25.5621  -13.1798   19.7404 C   0  0  0  0  0  0  0  0  0  0  0  0
  -25.7164  -20.9205   19.1089 C   0  0  0  0  0  0  0  0  0  0  0  0
  -24.0729  -13.2034   19.8602 C   0  0  0  0  0  0  0  0  0  0  0  0
  -20.9775  -20.5605   21.9330 C   0  0  0  0  0  0  0  0  0  0  0  0
  -21.4881  -20.1123   25.1049 C   0  0  0  0  0  0  0  0  0  0  0  0
  -22.1190  -17.9387   27.6591 C   0  0  0  0  0  0  0  0  0  0  0  0
  -31.4061  -15.3745   19.7061 C   0  0  0  0  0  0  0  0  0  0  0  0
  -19.0543  -24.2178   18.9358 C   0  0  0  0  0  0  0  0  0  0  0  0
  -19.3080  -18.7464   22.4601 C   0  0  0  0  0  0  0  0  0  0  0  0
  -21.9725  -18.1496   23.5955 C   0  0  0  0  0  0  0  0  0  0  0  0
  -19.7171  -24.1687   20.3101 C   0  0  0  0  0  0  0  0  0  0  0  0
  -31.6249  -17.7737   22.3276 C   0  0  0  0  0  0  0  0  0  0  0  0
  -21.0010  -23.3469   20.2545 C   0  0  0  0  0  0  0  0  0  0  0  0
  -30.6450  -18.8692   21.9036 C   0  0  0  0  0  0  0  0  0  0  0  0
  -32.3507  -17.1702   21.1272 C   0  0  0  0  0  0  0  0  0  0  0  0
  -30.4880  -17.7719   19.6298 C   0  0  0  0  0  0  0  0  0  0  0  0
  -20.7105  -21.8963   19.8509 C   0  0  1  0  0  0  0  0  0  0  0  0
  -20.2113  -19.8460   23.0101 C   0  0  1  0  0  0  0  0  0  0  0  0
  -29.6911  -18.3721   20.8008 C   0  0  2  0  0  0  0  0  0  0  0  0
  -22.5231  -17.8725   30.1349 C   0  0  0  0  0  0  0  0  0  0  0  0
  -24.3246  -21.1478   24.6671 C   0  0  0  0  0  0  0  0  0  0  0  0
  -24.9458  -20.1824   26.8920 C   0  0  0  0  0  0  0  0  0  0  0  0
  -23.2208  -21.9789   26.7517 C   0  0  0  0  0  0  0  0  0  0  0  0
  -19.7338  -16.2484   28.1204 C   0  0  0  0  0  0  0  0  0  0  0  0
  -30.3461  -13.6819   18.2328 C   0  0  0  0  0  0  0  0  0  0  0  0
  -23.5178  -14.1184   20.9170 C   0  0  0  0  0  0  0  0  0  1  0  0
  -22.6541  -19.6506   25.9453 C   0  0  1  0  0  0  0  0  0  0  0  0
  -21.4834  -17.7822   29.0288 C   0  0  2  0  0  0  0  0  0  0  0  0
  -23.7752  -20.7234   26.0437 C   0  0  0  0  0  0  0  0  0  0  0  0
  -29.1696  -20.7413   20.3567 N   0  0  0  0  0  0  0  0  0  0  0  0
  -26.1747  -12.0622   19.9246 N   0  0  0  0  0  0  0  0  0  0  0  0
  -28.7441  -19.4666   20.3446 N   0  0  0  0  0  0  0  0  0  0  0  0
  -21.1946  -19.3418   23.9708 N   0  0  0  0  0  0  0  0  0  0  0  0
  -31.3894  -16.7170   20.1190 N   0  0  0  0  0  0  0  0  0  0  0  0
  -26.8770  -18.1033   19.8287 N   0  0  0  0  0  0  0  0  0  0  0  0
  -25.4257  -22.2685   18.8585 N   0  0  0  0  0  0  0  0  0  0  0  0
  -20.1791  -21.1557   20.9750 N   0  0  0  0  0  0  0  0  0  0  0  0
  -22.0962  -19.2496   27.2323 N   0  0  0  0  0  0  0  0  0  0  0  0
  -30.4577  -15.0268   18.7520 N   0  0  0  0  0  0  0  0  0  0  0  0
  -20.7983  -16.4629   29.1343 N   0  3  0  0  0  0  0  0  0  0  0  0
  -24.8321  -20.0540   18.9067 O   0  0  0  0  0  0  0  0  0  0  0  0
  -23.4210  -12.5048   19.1003 O   0  0  0  0  0  0  0  0  0  0  0  0
  -22.2023  -20.5722   21.9693 O   0  0  0  0  0  0  0  0  0  0  0  0
  -20.8564  -21.1154   25.4461 O   0  0  0  0  0  0  0  0  0  0  0  0
  -22.5919  -16.9932   27.0323 O   0  0  0  0  0  0  0  0  0  0  0  0
  -32.2034  -14.5458   20.1584 O   0  0  0  0  0  0  0  0  0  0  0  0
  -28.1589  -13.0072   18.9638 O   0  0  0  0  0  0  0  0  0  0  0  0
  -28.3509  -26.9806   19.3822 O   0  0  0  0  0  0  0  0  0  0  0  0
  -22.0919  -14.0634   20.9072 O   0  0  0  0  0  0  0  0  0  1  0  0
  -24.0564  -29.9169   21.2096 F   0  0  0  0  0  0  0  0  0  0  0  0
  -28.6708  -28.8743   21.3707 F   0  0  0  0  0  0  0  0  0  0  0  0
  1  2  1  0  0  0  0
  1  5  2  0  0  0  0
  2  6  2  0  0  0  0
  3  8  2  0  0  0  0
  3 17  1  0  0  0  0
  4  9  1  0  0  0  0
  4 17  2  0  0  0  0
  5 19  1  0  0  0  0
  6 21  1  0  0  0  0
  7 10  2  0  0  0  0
  7 20  1  0  0  0  0
  8 23  1  0  0  0  0
  9 23  2  0  0  0  0
 10 24  1  0  0  0  0
 11 12  2  0  0  0  0
 11 25  1  0  0  0  0
 12 26  1  0  0  0  0
 13 14  1  0  0  0  0
 13 29  2  0  0  0  0
 14 30  2  0  0  0  0
 15 22  1  0  0  0  0
 15 24  2  0  0  0  0
 16 26  2  0  0  0  0
 16 27  1  0  0  0  0
 17 28  1  0  0  0  0
 18 28  1  0  0  0  0
 18 31  2  0  0  0  0
 18 33  1  0  0  0  0
 19 21  2  0  0  0  0
 19 39  1  0  0  0  0
 20 22  2  0  0  0  0
 20 40  1  0  0  0  0
 21 48  1  0  0  0  0
 22 41  1  0  0  0  0
 23 79  1  0  0  0  0
 24 80  1  0  0  0  0
 25 27  2  0  0  0  0
 25 79  1  0  0  0  0
 26 81  1  0  0  0  0
 27 82  1  0  0  0  0
 28 61  2  0  0  0  0
 29 56  1  0  0  0  0
 29 78  1  0  0  0  0
 30 62  1  0  0  0  0
 30 78  1  0  0  0  0
 31 63  1  0  0  0  0
 31 66  1  0  0  0  0
 32 34  1  0  0  0  0
 32 62  2  0  0  0  0
 33 67  1  0  0  0  0
 33 72  2  0  0  0  0
 34 57  1  0  0  0  0
 34 73  2  0  0  0  0
 35 49  1  0  0  0  0
 35 68  1  0  0  0  0
 35 74  2  0  0  0  0
 36 58  1  0  0  0  0
 36 64  1  0  0  0  0
 36 75  2  0  0  0  0
 37 59  1  0  0  0  0
 37 69  1  0  0  0  0
 37 76  2  0  0  0  0
 38 65  1  0  0  0  0
 38 70  1  0  0  0  0
 38 77  2  0  0  0  0
 39 42  1  0  0  0  0
 40 49  1  0  0  0  0
 41 64  1  0  0  0  0
 42 44  1  0  0  0  0
 43 45  1  0  0  0  0
 43 46  1  0  0  0  0
 44 48  1  0  0  0  0
 45 50  1  0  0  0  0
 46 65  1  0  0  0  0
 47 50  1  0  0  0  0
 47 65  1  0  0  0  0
 48 68  1  0  0  0  0
 49 64  1  0  0  0  0
 50 63  1  0  0  0  0
 51 59  1  0  0  0  0
 52 60  1  0  0  0  0
 53 60  1  0  0  0  0
 54 60  1  0  0  0  0
 55 71  1  0  0  0  0
 56 70  1  0  0  0  0
 57 80  1  0  0  0  0
 58 60  1  0  0  0  0
 58 69  1  0  0  0  0
 59 71  1  0  0  0  0
 61 63  1  0  0  0  0
M  CHG  1  71   1
M  ISO  4  38 100  57 101  70 100  80 101
M  END
> <Batch ID>
0161

> <Smiles>
CNC(C)C(=O)NC(C(=O)N1Cc2cc([101O:1][101CH2:1]C(=O)CNc3ccc(C=[100N:0][100C:0](=O)N4CCCC(n5nc(-c6ccc(Oc7ccc(F)cc7F)cc6)c(C(N)=O)c5N)C4)o3)ccc2CC1C(=O)NC1CCCc2ccccc21)C(C)(C)C

> <Shape>
0.184

> <Color>
0.095

> <Negative vol penalty>
0.000

$$$$

  -OEChem-04052303533D

 84 92  0     1  0  0  0  0  0999 V2000
  -25.7476  -35.4042   14.1314 C   0  0  0  0  0  0  0  0  0  0  0  0
  -26.5228  -34.3416   14.5848 C   0  0  0  0  0  0  0  0  0  0  0  0
  -23.1117  -10.0180   19.8927 C   0  0  0  0  0  0  0  0  0  0  0  0
  -24.3775   -9.7243   21.9295 C   0  0  0  0  0  0  0  0  0  0  0  0
  -24.8208  -36.0028   14.9838 C   0  0  0  0  0  0  0  0  0  0  0  0
  -26.3723  -33.8778   15.8912 C   0  0  0  0  0  0  0  0  0  0  0  0
  -26.8769  -28.0884   17.8233 C   0  0  0  0  0  0  0  0  0  0  0  0
  -22.6077   -8.7236   20.0191 C   0  0  0  0  0  0  0  0  0  0  0  0
  -23.8734   -8.4298   22.0560 C   0  0  0  0  0  0  0  0  0  0  0  0
  -27.9201  -27.3890   18.4285 C   0  0  0  0  0  0  0  0  0  0  0  0
  -21.0113   -6.9635   23.0945 C   0  0  0  0  0  0  0  0  0  0  0  0
  -20.5605   -6.5653   24.3530 C   0  0  0  0  0  0  0  0  0  0  0  0
  -26.9557  -27.8361   20.5940 C   0  0  0  0  0  0  0  0  0  0  0  0
  -30.8958  -18.6681   21.5723 C   0  0  0  0  0  0  0  0  0  0  0  0
  -22.1871   -4.7789   24.3703 C   0  0  0  0  0  0  0  0  0  0  0  0
  -23.9966  -10.5184   20.8478 C   0  0  0  0  0  0  0  0  0  0  0  0
  -23.9602  -13.0395   21.2351 C   0  0  0  0  0  0  0  0  0  0  0  0
  -24.6520  -35.5398   16.2982 C   0  0  0  0  0  0  0  0  0  0  0  0
  -25.8693  -28.6771   18.6009 C   0  0  0  0  0  0  0  0  0  0  0  0
  -25.4433  -34.4717   16.7623 C   0  0  0  0  0  0  0  0  0  0  0  0
  -25.8993  -28.5402   19.9961 C   0  0  0  0  0  0  0  0  0  0  0  0
  -30.9660  -19.7730   22.4692 C   0  0  0  0  0  0  0  0  0  0  0  0
  -22.9886   -7.9295   21.1008 C   0  0  0  0  0  0  0  0  0  0  0  0
  -27.9613  -27.2653   19.8142 C   0  0  0  0  0  0  0  0  0  0  0  0
  -22.0499   -6.2693   22.4738 C   0  0  0  0  0  0  0  0  0  0  0  0
  -21.1484   -5.4730   24.9909 C   0  0  0  0  0  0  0  0  0  0  0  0
  -22.6378   -5.1771   23.1117 C   0  0  0  0  0  0  0  0  0  0  0  0
  -24.5181  -11.8552   20.7174 C   0  0  0  0  0  0  0  0  0  0  0  0
  -29.9844  -19.7194   23.4342 C   0  0  0  0  0  0  0  0  0  0  0  0
  -24.8272  -14.0288   20.8400 C   0  0  0  0  0  0  0  0  0  0  0  0
  -29.8632  -17.8118   21.8862 C   0  0  0  0  0  0  0  0  0  0  0  0
  -31.2694  -22.3100   20.5220 C   0  0  0  0  0  0  0  0  0  0  0  0
  -22.7652  -13.2285   22.0044 C   0  0  0  0  0  0  0  0  0  0  0  0
  -24.8490  -31.6503   19.0730 C   0  0  0  0  0  0  0  0  0  0  0  0
  -22.5297  -30.1669   20.7885 C   0  0  0  0  0  0  0  0  0  0  0  0
  -30.1026  -24.4663   20.5997 C   0  0  0  0  0  0  0  0  0  0  0  0
  -21.5466  -27.4249   22.5666 C   0  0  0  0  0  0  0  0  0  0  0  0
  -29.9932  -15.9891   20.1521 C   0  0  0  0  0  0  0  0  0  0  0  0
  -23.6710  -36.2495   17.1975 C   0  0  0  0  0  0  0  0  0  0  0  0
  -24.7363  -29.4053   17.9312 C   0  0  0  0  0  0  0  0  0  0  0  0
  -24.8310  -29.1363   20.8746 C   0  0  0  0  0  0  0  0  0  0  0  0
  -23.3076  -35.4551   18.4494 C   0  0  0  0  0  0  0  0  0  0  0  0
  -28.6903  -13.9109   17.5713 C   0  0  0  0  0  0  0  0  0  0  0  0
  -24.5630  -34.8905   19.1065 C   0  0  0  0  0  0  0  0  0  0  0  0
  -27.4428  -13.2882   18.2023 C   0  0  0  0  0  0  0  0  0  0  0  0
  -29.8213  -14.0673   18.5862 C   0  0  0  0  0  0  0  0  0  0  0  0
  -28.2098  -14.1593   20.4473 C   0  0  0  0  0  0  0  0  0  0  0  0
  -25.2916  -33.9241   18.1649 C   0  0  1  0  0  0  0  0  0  0  0  0
  -24.0404  -30.4033   18.8517 C   0  0  1  0  0  0  0  0  0  0  0  0
  -27.0213  -14.0416   19.4791 C   0  0  2  0  0  0  0  0  0  0  0  0
  -29.7165  -20.6656   24.5410 C   0  0  0  0  0  0  0  0  0  0  0  0
  -19.6096  -26.5196   23.8804 C   0  0  0  0  0  0  0  0  0  0  0  0
  -23.2614  -31.9930   23.1209 C   0  0  0  0  0  0  0  0  0  0  0  0
  -22.0062  -30.4448   24.6360 C   0  0  0  0  0  0  0  0  0  0  0  0
  -20.8062  -31.6387   22.8038 C   0  0  0  0  0  0  0  0  0  0  0  0
  -21.2236  -25.1279   20.7285 C   0  0  0  0  0  0  0  0  0  0  0  0
  -31.9926  -20.8605   22.3645 C   0  0  0  0  0  0  0  0  0  0  0  0
  -29.5654  -25.5159   19.6646 C   0  0  0  0  0  0  0  0  0  1  0  0
  -22.3725  -29.7395   22.2278 C   0  0  1  0  0  0  0  0  0  0  0  0
  -20.2774  -26.5935   22.5161 C   0  0  2  0  0  0  0  0  0  0  0  0
  -22.1329  -30.9443   23.1810 C   0  0  0  0  0  0  0  0  0  0  0  0
  -25.6516  -12.0704   20.0446 N   0  0  0  0  0  0  0  0  0  0  0  0
  -25.8131  -13.4014   20.1367 N   0  0  0  0  0  0  0  0  0  0  0  0
  -23.7475  -29.8443   20.1730 N   0  0  0  0  0  0  0  0  0  0  0  0
  -29.3497  -14.7939   19.7670 N   0  0  0  0  0  0  0  0  0  0  0  0
  -24.8348  -15.3654   21.0289 N   0  0  0  0  0  0  0  0  0  0  0  0
  -21.9907  -12.1045   22.3227 N   0  0  0  0  0  0  0  0  0  0  0  0
  -29.4368  -16.6090   21.2705 N   0  0  0  0  0  0  0  0  0  0  0  0
  -30.7223  -23.3594   19.9164 N   0  0  0  0  0  0  0  0  0  0  0  0
  -24.6206  -32.6421   18.1383 N   0  0  0  0  0  0  0  0  0  0  0  0
  -21.3064  -28.7438   22.2438 N   0  0  0  0  0  0  0  0  0  0  0  0
  -31.3600  -22.0643   21.8250 N   0  3  0  0  0  0  0  0  0  0  0  0
  -20.5846  -25.2060   22.0674 N   0  3  0  0  0  0  0  0  0  0  0  0
  -22.3864  -14.3625   22.3840 O   0  0  0  0  0  0  0  0  0  0  0  0
  -25.6217  -31.7088   20.0223 O   0  0  0  0  0  0  0  0  0  0  0  0
  -21.6034  -30.7587   20.2288 O   0  0  0  0  0  0  0  0  0  0  0  0
  -30.0412  -24.5072   21.8202 O   0  0  0  0  0  0  0  0  0  0  0  0
  -22.6409  -26.9524   22.8663 O   0  0  0  0  0  0  0  0  0  0  0  0
  -30.9491  -16.4445   19.5190 O   0  0  0  0  0  0  0  0  0  0  0  0
  -22.4968   -6.6664   21.2247 O   0  0  0  0  0  0  0  0  0  0  0  0
  -28.9788  -26.5838   20.4075 O   0  0  0  0  0  0  0  0  0  1  0  0
  -20.7165   -5.0917   26.2001 F   0  0  0  0  0  0  0  0  0  0  0  0
  -23.6367   -4.5070   22.5210 F   0  0  0  0  0  0  0  0  0  0  0  0
  -28.9839  -18.3410   23.2569 S   0  0  0  0  0  0  0  0  0  0  0  0
  1  2  1  0  0  0  0
  1  5  2  0  0  0  0
  2  6  2  0  0  0  0
  3  8  2  0  0  0  0
  3 16  1  0  0  0  0
  4  9  1  0  0  0  0
  4 16  2  0  0  0  0
  5 18  1  0  0  0  0
  6 20  1  0  0  0  0
  7 10  2  0  0  0  0
  7 19  1  0  0  0  0
  8 23  1  0  0  0  0
  9 23  2  0  0  0  0
 10 24  1  0  0  0  0
 11 12  2  0  0  0  0
 11 25  1  0  0  0  0
 12 26  1  0  0  0  0
 13 21  1  0  0  0  0
 13 24  2  0  0  0  0
 14 22  1  0  0  0  0
 14 31  2  0  0  0  0
 15 26  2  0  0  0  0
 15 27  1  0  0  0  0
 16 28  1  0  0  0  0
 17 28  1  0  0  0  0
 17 30  2  0  0  0  0
 17 33  1  0  0  0  0
 18 20  2  0  0  0  0
 18 39  1  0  0  0  0
 19 21  2  0  0  0  0
 19 40  1  0  0  0  0
 20 48  1  0  0  0  0
 21 41  1  0  0  0  0
 22 29  2  0  0  0  0
 22 57  1  0  0  0  0
 23 80  1  0  0  0  0
 24 81  1  0  0  0  0
 25 27  2  0  0  0  0
 25 80  1  0  0  0  0
 26 82  1  0  0  0  0
 27 83  1  0  0  0  0
 28 62  2  0  0  0  0
 29 51  1  0  0  0  0
 29 84  1  0  0  0  0
 30 63  1  0  0  0  0
 30 66  1  0  0  0  0
 31 68  1  0  0  0  0
 31 84  1  0  0  0  0
 32 69  1  0  0  0  0
 32 72  2  0  0  0  0
 33 67  1  0  0  0  0
 33 74  2  0  0  0  0
 34 49  1  0  0  0  0
 34 70  1  0  0  0  0
 34 75  2  0  0  0  0
 35 59  1  0  0  0  0
 35 64  1  0  0  0  0
 35 76  2  0  0  0  0
 36 58  1  0  0  0  0
 36 69  1  0  0  0  0
 36 77  2  0  0  0  0
 37 60  1  0  0  0  0
 37 71  1  0  0  0  0
 37 78  2  0  0  0  0
 38 65  1  0  0  0  0
 38 68  1  0  0  0  0
 38 79  2  0  0  0  0
 39 42  1  0  0  0  0
 40 49  1  0  0  0  0
 41 64  1  0  0  0  0
 42 44  1  0  0  0  0
 43 45  1  0  0  0  0
 43 46  1  0  0  0  0
 44 48  1  0  0  0  0
 45 50  1  0  0  0  0
 46 65  1  0  0  0  0
 47 50  1  0  0  0  0
 47 65  1  0  0  0  0
 48 70  1  0  0  0  0
 49 64  1  0  0  0  0
 50 63  1  0  0  0  0
 52 60  1  0  0  0  0
 53 61  1  0  0  0  0
 54 61  1  0  0  0  0
 55 61  1  0  0  0  0
 56 73  1  0  0  0  0
 57 72  1  0  0  0  0
 58 81  1  0  0  0  0
 59 61  1  0  0  0  0
 59 71  1  0  0  0  0
 60 73  1  0  0  0  0
 62 63  1  0  0  0  0
M  CHG  2  72   1  73   1
M  ISO  4  38 100  58 101  68 100  81 101
M  END
> <Batch ID>
0161

> <Smiles>
CNC(C)C(=O)NC(C(=O)N1Cc2cc([101O:1][101CH2:1]C(=O)NC=NCc3cc([100NH:0][100C:0](=O)N4CCCC(n5nc(-c6ccc(Oc7ccc(F)cc7F)cc6)c(C(N)=O)c5N)C4)sc3C)ccc2CC1C(=O)NC1CCCc2ccccc21)C(C)(C)C

> <Shape>
0.300

> <Color>
0.134

> <Negative vol penalty>
0.000

$$$$

  -OEChem-04052303533D

 85 93  0     1  0  0  0  0  0999 V2000
  -19.5017  -14.0637   17.4037 C   0  0  0  0  0  0  0  0  0  0  0  0
  -20.2583  -15.2278   17.4915 C   0  0  0  0  0  0  0  0  0  0  0  0
  -19.4788  -24.2730   19.9804 C   0  0  0  0  0  0  0  0  0  0  0  0
  -21.0690  -23.4622   21.6086 C   0  0  0  0  0  0  0  0  0  0  0  0
  -19.8548  -12.9455   18.1579 C   0  0  0  0  0  0  0  0  0  0  0  0
  -21.3681  -15.2747   18.3346 C   0  0  0  0  0  0  0  0  0  0  0  0
  -26.5922  -18.3240   17.3774 C   0  0  0  0  0  0  0  0  0  0  0  0
  -18.9953  -22.9762   19.8068 C   0  0  0  0  0  0  0  0  0  0  0  0
  -20.5855  -22.1654   21.4351 C   0  0  0  0  0  0  0  0  0  0  0  0
  -27.0560  -19.5568   17.8346 C   0  0  0  0  0  0  0  0  0  0  0  0
  -17.9310  -20.3409   22.4576 C   0  0  0  0  0  0  0  0  0  0  0  0
  -17.6972  -19.5794   23.6026 C   0  0  0  0  0  0  0  0  0  0  0  0
  -28.2444  -18.4430   19.6140 C   0  0  0  0  0  0  0  0  0  0  0  0
  -19.2919  -17.9349   22.8347 C   0  0  0  0  0  0  0  0  0  0  0  0
  -20.5157  -24.5160   20.8812 C   0  0  0  0  0  0  0  0  0  0  0  0
  -20.5612  -26.8162   21.9834 C   0  0  0  0  0  0  0  0  0  0  0  0
  -20.9751  -12.9756   19.0034 C   0  0  0  0  0  0  0  0  0  0  0  0
  -26.9428  -17.1404   18.0428 C   0  0  0  0  0  0  0  0  0  0  0  0
  -21.7357  -14.1563   19.1019 C   0  0  0  0  0  0  0  0  0  0  0  0
  -27.7859  -17.1963   19.1618 C   0  0  0  0  0  0  0  0  0  0  0  0
  -19.5486  -21.9224   20.5341 C   0  0  0  0  0  0  0  0  0  0  0  0
  -27.8799  -19.6167   18.9547 C   0  0  0  0  0  0  0  0  0  0  0  0
  -18.8453  -19.8994   21.5010 C   0  0  0  0  0  0  0  0  0  0  0  0
  -18.3776  -18.3765   23.7912 C   0  0  0  0  0  0  0  0  0  0  0  0
  -19.5257  -18.6964   21.6896 C   0  0  0  0  0  0  0  0  0  0  0  0
  -21.0159  -25.8553   21.0606 C   0  0  0  0  0  0  0  0  0  0  0  0
  -21.3551  -27.9136   21.7558 C   0  0  0  0  0  0  0  0  0  0  0  0
  -29.4224  -26.7687   20.5406 C   0  0  0  0  0  0  0  0  0  0  0  0
  -31.2663  -26.1628   19.4138 C   0  0  0  0  0  0  0  0  0  0  0  0
  -29.8502  -24.5963   20.1738 C   0  0  0  0  0  0  0  0  0  0  0  0
  -19.5147  -26.7249   22.9593 C   0  0  0  0  0  0  0  0  0  0  0  0
  -25.3327  -14.8626   19.5668 C   0  0  0  0  0  0  0  0  0  0  0  0
  -29.4187  -20.5382   21.5432 C   0  0  0  0  0  0  0  0  0  0  0  0
  -28.2437  -13.4378   19.7029 C   0  0  0  0  0  0  0  0  0  0  0  0
  -31.6394  -13.7748   19.6537 C   0  0  0  0  0  0  0  0  0  0  0  0
  -26.8474  -28.5678   19.4629 C   0  0  0  0  0  0  0  0  0  0  0  0
  -21.2899  -11.7574   19.8349 C   0  0  0  0  0  0  0  0  0  0  0  0
  -26.4559  -15.8163   17.5211 C   0  0  0  0  0  0  0  0  0  0  0  0
  -28.2079  -15.9529   19.8995 C   0  0  0  0  0  0  0  0  0  0  0  0
  -22.6996  -11.7675   20.4207 C   0  0  0  0  0  0  0  0  0  0  0  0
  -23.8445  -30.0805   18.2919 C   0  0  0  0  0  0  0  0  0  0  0  0
  -23.0103  -13.1260   21.0409 C   0  0  0  0  0  0  0  0  0  0  0  0
  -22.7381  -29.2559   18.9520 C   0  0  0  0  0  0  0  0  0  0  0  0
  -25.0376  -29.2120   17.8990 C   0  0  0  0  0  0  0  0  0  0  0  0
  -24.4886  -27.5695   19.6524 C   0  0  0  0  0  0  0  0  0  0  0  0
  -22.9610  -14.2382   19.9863 C   0  0  1  0  0  0  0  0  0  0  0  0
  -26.4578  -14.7193   18.5813 C   0  0  1  0  0  0  0  0  0  0  0  0
  -23.2876  -28.4109   20.1171 C   0  0  2  0  0  0  0  0  0  0  0  0
  -30.6665  -20.4351   22.3825 C   0  0  0  0  0  0  0  0  0  0  0  0
  -33.7546  -12.4352   19.8237 C   0  0  0  0  0  0  0  0  0  0  0  0
  -27.8461  -13.1974   22.7186 C   0  0  0  0  0  0  0  0  0  0  0  0
  -30.3003  -12.7530   22.9365 C   0  0  0  0  0  0  0  0  0  0  0  0
  -28.8612  -11.1842   21.6364 C   0  0  0  0  0  0  0  0  0  0  0  0
  -32.5058  -14.5820   16.9414 C   0  0  0  0  0  0  0  0  0  0  0  0
  -28.5505  -27.8343   21.1123 C   0  0  0  0  0  0  0  0  0  0  0  0
  -30.2835  -22.1691   19.7908 C   0  0  0  0  0  0  0  0  0  0  0  0
  -29.6016  -20.8313   20.0576 C   0  0  2  0  0  0  0  0  0  1  0  0
  -29.3999  -13.4589   20.6733 C   0  0  1  0  0  0  0  0  0  0  0  0
  -32.7147  -13.0278   18.8855 C   0  0  2  0  0  0  0  0  0  0  0  0
  -29.0925  -12.6722   21.9786 C   0  0  0  0  0  0  0  0  0  0  0  0
  -22.0207  -26.3030   20.3030 N   0  0  0  0  0  0  0  0  0  0  0  0
  -30.5320  -27.1751   19.9025 N   0  0  0  0  0  0  0  0  0  0  0  0
  -29.0178  -25.5002   20.7151 N   0  0  0  0  0  0  0  0  0  0  0  0
  -30.9892  -24.8525   19.5105 N   0  0  0  0  0  0  0  0  0  0  0  0
  -22.2038  -27.5574   20.7494 N   0  0  0  0  0  0  0  0  0  0  0  0
  -27.7007  -14.6827   19.3546 N   0  0  0  0  0  0  0  0  0  0  0  0
  -25.5116  -28.4377   19.0486 N   0  0  0  0  0  0  0  0  0  0  0  0
  -21.4029  -29.1390   22.3203 N   0  0  0  0  0  0  0  0  0  0  0  0
  -32.4510  -26.5121   18.7296 N   0  0  0  0  0  0  0  0  0  0  0  0
  -18.7982  -25.5246   23.0603 N   0  0  0  0  0  0  0  0  0  0  0  0
  -29.4982  -23.2646   20.3141 N   0  0  0  0  0  0  0  0  0  0  0  0
  -24.1659  -14.2284   19.1848 N   0  0  0  0  0  0  0  0  0  0  0  0
  -30.5593  -12.9660   19.9375 N   0  0  0  0  0  0  0  0  0  0  0  0
  -27.2128  -27.8035   20.5643 N   0  0  0  0  0  0  0  0  0  0  0  0
  -33.4064  -13.9461   17.9372 N   0  3  0  0  0  0  0  0  0  0  0  0
  -19.2127  -27.6849   23.7080 O   0  0  0  0  0  0  0  0  0  0  0  0
  -25.5104  -15.5000   20.5982 O   0  0  0  0  0  0  0  0  0  0  0  0
  -28.3054  -20.3815   22.0454 O   0  0  0  0  0  0  0  0  0  0  0  0
  -27.8418  -12.3571   19.2645 O   0  0  0  0  0  0  0  0  0  0  0  0
  -31.7483  -14.9565   19.9735 O   0  0  0  0  0  0  0  0  0  0  0  0
  -27.6533  -29.3141   18.8967 O   0  0  0  0  0  0  0  0  0  0  0  0
  -19.0769  -20.6569   20.3652 O   0  0  0  0  0  0  0  0  0  0  0  0
  -28.3334  -20.8187   19.4034 O   0  0  0  0  0  0  0  0  0  1  0  0
  -18.1541  -17.6461   24.8915 F   0  0  0  0  0  0  0  0  0  0  0  0
  -20.4061  -18.2677   20.7748 F   0  0  0  0  0  0  0  0  0  0  0  0
  1  2  1  0  0  0  0
  1  5  2  0  0  0  0
  2  6  2  0  0  0  0
  3  8  2  0  0  0  0
  3 15  1  0  0  0  0
  4  9  1  0  0  0  0
  4 15  2  0  0  0  0
  5 17  1  0  0  0  0
  6 19  1  0  0  0  0
  7 10  2  0  0  0  0
  7 18  1  0  0  0  0
  8 21  1  0  0  0  0
  9 21  2  0  0  0  0
 10 22  1  0  0  0  0
 11 12  2  0  0  0  0
 11 23  1  0  0  0  0
 12 24  1  0  0  0  0
 13 20  1  0  0  0  0
 13 22  2  0  0  0  0
 14 24  2  0  0  0  0
 14 25  1  0  0  0  0
 15 26  1  0  0  0  0
 16 26  1  0  0  0  0
 16 27  2  0  0  0  0
 16 31  1  0  0  0  0
 17 19  2  0  0  0  0
 17 37  1  0  0  0  0
 18 20  2  0  0  0  0
 18 38  1  0  0  0  0
 19 46  1  0  0  0  0
 20 39  1  0  0  0  0
 21 82  1  0  0  0  0
 22 83  1  0  0  0  0
 23 25  2  0  0  0  0
 23 82  1  0  0  0  0
 24 84  1  0  0  0  0
 25 85  1  0  0  0  0
 26 61  2  0  0  0  0
 27 65  1  0  0  0  0
 27 68  1  0  0  0  0
 28 55  1  0  0  0  0
 28 62  2  0  0  0  0
 28 63  1  0  0  0  0
 29 62  1  0  0  0  0
 29 64  2  0  0  0  0
 29 69  1  0  0  0  0
 30 63  2  0  0  0  0
 30 64  1  0  0  0  0
 30 71  1  0  0  0  0
 31 70  1  0  0  0  0
 31 76  2  0  0  0  0
 32 47  1  0  0  0  0
 32 72  1  0  0  0  0
 32 77  2  0  0  0  0
 33 49  1  0  0  0  0
 33 57  1  0  0  0  0
 33 78  2  0  0  0  0
 34 58  1  0  0  0  0
 34 66  1  0  0  0  0
 34 79  2  0  0  0  0
 35 59  1  0  0  0  0
 35 73  1  0  0  0  0
 35 80  2  0  0  0  0
 36 67  1  0  0  0  0
 36 74  1  0  0  0  0
 36 81  2  0  0  0  0
 37 40  1  0  0  0  0
 38 47  1  0  0  0  0
 39 66  1  0  0  0  0
 40 42  1  0  0  0  0
 41 43  1  0  0  0  0
 41 44  1  0  0  0  0
 42 46  1  0  0  0  0
 43 48  1  0  0  0  0
 44 67  1  0  0  0  0
 45 48  1  0  0  0  0
 45 67  1  0  0  0  0
 46 72  1  0  0  0  0
 47 66  1  0  0  0  0
 48 65  1  0  0  0  0
 50 59  1  0  0  0  0
 51 60  1  0  0  0  0
 52 60  1  0  0  0  0
 53 60  1  0  0  0  0
 54 75  1  0  0  0  0
 55 74  1  0  0  0  0
 56 57  1  0  0  0  0
 56 71  1  0  0  0  0
 57 83  1  0  0  0  0
 58 60  1  0  0  0  0
 58 73  1  0  0  0  0
 59 75  1  0  0  0  0
 61 65  1  0  0  0  0
M  CHG  1  75   1
M  ISO  4  36 100  57 101  74 100  83 101
M  END
> <Batch ID>
0161

> <Smiles>
CNC(C)C(=O)NC(C(=O)N1Cc2cc([101O:1][101CH:1](CNc3nc(N)nc(C[100NH:0][100C:0](=O)N4CCCC(n5nc(-c6ccc(Oc7ccc(F)cc7F)cc6)c(C(N)=O)c5N)C4)n3)C(C)=O)ccc2CC1C(=O)NC1CCCc2ccccc21)C(C)(C)C

> <Shape>
0.239

> <Color>
0.068

> <Negative vol penalty>
0.000

$$$$

  -OEChem-04052303533D

 84 93  0     1  0  0  0  0  0999 V2000
  -28.1693  -37.1228   24.5073 C   0  0  0  0  0  0  0  0  0  0  0  0
  -28.6739  -35.9291   24.0015 C   0  0  0  0  0  0  0  0  0  0  0  0
  -24.2722   -9.6698   22.0299 C   0  0  0  0  0  0  0  0  0  0  0  0
  -25.0436  -11.2590   23.6782 C   0  0  0  0  0  0  0  0  0  0  0  0
  -26.8827  -37.1630   25.0431 C   0  0  0  0  0  0  0  0  0  0  0  0
  -27.8925  -34.7745   24.0321 C   0  0  0  0  0  0  0  0  0  0  0  0
  -30.1728  -20.3204   18.3133 C   0  0  0  0  0  0  0  0  0  0  0  0
  -27.7964  -30.2827   19.8704 C   0  0  0  0  0  0  0  0  0  0  0  0
  -29.9312  -18.9503   18.2124 C   0  0  0  0  0  0  0  0  0  0  0  0
  -24.0567   -8.7295   23.0374 C   0  0  0  0  0  0  0  0  0  0  0  0
  -24.8280  -10.3187   24.6856 C   0  0  0  0  0  0  0  0  0  0  0  0
  -28.4141  -29.0337   19.8239 C   0  0  0  0  0  0  0  0  0  0  0  0
  -21.7185   -8.0984   25.3969 C   0  0  0  0  0  0  0  0  0  0  0  0
  -20.5220   -7.3819   25.3697 C   0  0  0  0  0  0  0  0  0  0  0  0
  -27.8597  -20.6845   18.9082 C   0  0  0  0  0  0  0  0  0  0  0  0
  -26.4103  -28.0168   20.7012 C   0  0  0  0  0  0  0  0  0  0  0  0
  -21.7628   -5.3167   25.1903 C   0  0  0  0  0  0  0  0  0  0  0  0
  -24.7657  -10.9346   22.3503 C   0  0  0  0  0  0  0  0  0  0  0  0
  -24.0717  -12.8566   20.8232 C   0  0  0  0  0  0  0  0  0  0  0  0
  -29.1371  -21.1875   18.6613 C   0  0  0  0  0  0  0  0  0  0  0  0
  -26.0816  -36.0105   25.0716 C   0  0  0  0  0  0  0  0  0  0  0  0
  -26.4825  -30.4098   20.3437 C   0  0  0  0  0  0  0  0  0  0  0  0
  -26.5946  -34.7990   24.5700 C   0  0  0  0  0  0  0  0  0  0  0  0
  -25.7773  -29.2682   20.7503 C   0  0  0  0  0  0  0  0  0  0  0  0
  -28.6538  -18.4473   18.4593 C   0  0  0  0  0  0  0  0  0  0  0  0
  -27.6180  -19.3144   18.8072 C   0  0  0  0  0  0  0  0  0  0  0  0
  -24.3346   -9.0539   24.3652 C   0  0  0  0  0  0  0  0  0  0  0  0
  -27.7221  -27.9009   20.2421 C   0  0  0  0  0  0  0  0  0  0  0  0
  -22.9372   -7.4240   25.3207 C   0  0  0  0  0  0  0  0  0  0  0  0
  -20.5442   -5.9911   25.2665 C   0  0  0  0  0  0  0  0  0  0  0  0
  -22.9593   -6.0332   25.2174 C   0  0  0  0  0  0  0  0  0  0  0  0
  -24.9891  -11.9061   21.3100 C   0  0  0  0  0  0  0  0  0  0  0  0
  -24.7632  -13.5333   19.8484 C   0  0  0  0  0  0  0  0  0  0  0  0
  -28.2836  -24.5203   19.2642 C   0  0  0  0  0  0  0  0  0  0  0  0
  -22.7158  -13.1055   21.2171 C   0  0  0  0  0  0  0  0  0  0  0  0
  -25.1116  -31.9295   22.7757 C   0  0  0  0  0  0  0  0  0  0  0  0
  -22.3756  -30.9043   21.3666 C   0  0  0  0  0  0  0  0  0  0  0  0
  -20.8417  -28.6464   19.3182 C   0  0  0  0  0  0  0  0  0  0  0  0
  -29.3664  -16.0725   18.0135 C   0  0  0  0  0  0  0  0  0  0  0  0
  -24.7148  -36.0921   25.7038 C   0  0  0  0  0  0  0  0  0  0  0  0
  -25.8211  -31.7606   20.3624 C   0  0  0  0  0  0  0  0  0  0  0  0
  -24.3579  -29.3481   21.2477 C   0  0  0  0  0  0  0  0  0  0  0  0
  -28.8664  -24.8181   17.9186 C   0  0  0  0  0  0  0  0  0  0  0  0
  -23.8121  -34.9107   25.3574 C   0  0  0  0  0  0  0  0  0  0  0  0
  -29.1435  -23.4067   17.4558 C   0  0  0  0  0  0  0  0  0  0  0  0
  -29.2238  -12.5309   17.6756 C   0  0  0  0  0  0  0  0  0  0  0  0
  -24.5690  -33.5960   25.5163 C   0  0  0  0  0  0  0  0  0  0  0  0
  -28.0339  -12.1308   18.5510 C   0  0  0  0  0  0  0  0  0  0  0  0
  -30.0125  -13.6885   18.2853 C   0  0  0  0  0  0  0  0  0  0  0  0
  -28.0224  -14.4691   19.5098 C   0  0  0  0  0  0  0  0  0  0  0  0
  -29.3993  -22.6706   18.7705 C   0  0  1  0  0  0  0  0  0  0  0  0
  -25.7683  -33.5312   24.5629 C   0  0  1  0  0  0  0  0  0  0  0  0
  -24.6578  -31.8427   21.3460 C   0  0  1  0  0  0  0  0  0  0  0  0
  -27.1595  -13.3498   18.9048 C   0  0  2  0  0  0  0  0  0  0  0  0
  -18.5907  -28.0423   18.3877 C   0  0  0  0  0  0  0  0  0  0  0  0
  -21.5903  -29.6970   24.0565 C   0  0  0  0  0  0  0  0  0  0  0  0
  -19.8627  -28.3345   22.8619 C   0  0  0  0  0  0  0  0  0  0  0  0
  -19.7227  -30.8250   22.8342 C   0  0  0  0  0  0  0  0  0  0  0  0
  -21.7493  -29.0732   16.5338 C   0  0  0  0  0  0  0  0  0  0  0  0
  -27.4796  -25.5486   19.9889 C   0  0  0  0  0  0  0  0  0  1  0  0
  -21.5146  -29.6691   21.4759 C   0  0  1  0  0  0  0  0  0  0  0  0
  -19.8727  -28.8293   18.1640 C   0  0  2  0  0  0  0  0  0  0  0  0
  -20.7000  -29.6298   22.7996 C   0  0  0  0  0  0  0  0  0  0  0  0
  -26.1730  -11.9701   20.6950 N   0  0  0  0  0  0  0  0  0  0  0  0
  -28.5381  -23.3524   19.7723 N   0  0  0  0  0  0  0  0  0  0  0  0
  -26.0043  -12.9688   19.8117 N   0  0  0  0  0  0  0  0  0  0  0  0
  -23.7568  -30.6921   21.2530 N   0  0  0  0  0  0  0  0  0  0  0  0
  -29.1199  -14.8087   18.5905 N   0  0  0  0  0  0  0  0  0  0  0  0
  -26.3166  -18.8264   19.0614 N   0  0  0  0  0  0  0  0  0  0  0  0
  -24.4246  -14.5501   19.0275 N   0  0  0  0  0  0  0  0  0  0  0  0
  -22.1605  -12.3182   22.2350 N   0  0  0  0  0  0  0  0  0  0  0  0
  -28.4327  -17.0520   18.3503 N   0  0  0  0  0  0  0  0  0  0  0  0
  -25.3297  -33.2199   23.2194 N   0  0  0  0  0  0  0  0  0  0  0  0
  -20.6956  -29.6343   20.2691 N   0  0  0  0  0  0  0  0  0  0  0  0
  -20.4918  -28.3668   16.8897 N   0  3  0  0  0  0  0  0  0  0  0  0
  -22.0121  -13.9887   20.6710 O   0  0  0  0  0  0  0  0  0  0  0  0
  -25.2519  -30.9020   23.4285 O   0  0  0  0  0  0  0  0  0  0  0  0
  -21.8416  -32.0163   21.3742 O   0  0  0  0  0  0  0  0  0  0  0  0
  -21.6450  -27.7179   19.3728 O   0  0  0  0  0  0  0  0  0  0  0  0
  -30.3190  -16.2642   17.2534 O   0  0  0  0  0  0  0  0  0  0  0  0
  -24.1242   -8.1367   25.3486 O   0  0  0  0  0  0  0  0  0  0  0  0
  -28.3229  -26.6806   20.1983 O   0  0  0  0  0  0  0  0  0  1  0  0
  -19.3952   -5.3031   25.2419 F   0  0  0  0  0  0  0  0  0  0  0  0
  -24.1270   -5.3797   25.1451 F   0  0  0  0  0  0  0  0  0  0  0  0
  1  2  1  0  0  0  0
  1  5  2  0  0  0  0
  2  6  2  0  0  0  0
  3 10  2  0  0  0  0
  3 18  1  0  0  0  0
  4 11  1  0  0  0  0
  4 18  2  0  0  0  0
  5 21  1  0  0  0  0
  6 23  1  0  0  0  0
  7  9  2  0  0  0  0
  7 20  1  0  0  0  0
  8 12  2  0  0  0  0
  8 22  1  0  0  0  0
  9 25  1  0  0  0  0
 10 27  1  0  0  0  0
 11 27  2  0  0  0  0
 12 28  1  0  0  0  0
 13 14  2  0  0  0  0
 13 29  1  0  0  0  0
 14 30  1  0  0  0  0
 15 20  2  0  0  0  0
 15 26  1  0  0  0  0
 16 24  1  0  0  0  0
 16 28  2  0  0  0  0
 17 30  2  0  0  0  0
 17 31  1  0  0  0  0
 18 32  1  0  0  0  0
 19 32  1  0  0  0  0
 19 33  2  0  0  0  0
 19 35  1  0  0  0  0
 20 51  1  0  0  0  0
 21 23  2  0  0  0  0
 21 40  1  0  0  0  0
 22 24  2  0  0  0  0
 22 41  1  0  0  0  0
 23 52  1  0  0  0  0
 24 42  1  0  0  0  0
 25 26  2  0  0  0  0
 25 72  1  0  0  0  0
 26 69  1  0  0  0  0
 27 81  1  0  0  0  0
 28 82  1  0  0  0  0
 29 31  2  0  0  0  0
 29 81  1  0  0  0  0
 30 83  1  0  0  0  0
 31 84  1  0  0  0  0
 32 64  2  0  0  0  0
 33 66  1  0  0  0  0
 33 70  1  0  0  0  0
 34 43  1  0  0  0  0
 34 60  1  0  0  0  0
 34 65  2  0  0  0  0
 35 71  1  0  0  0  0
 35 76  2  0  0  0  0
 36 53  1  0  0  0  0
 36 73  1  0  0  0  0
 36 77  2  0  0  0  0
 37 61  1  0  0  0  0
 37 67  1  0  0  0  0
 37 78  2  0  0  0  0
 38 62  1  0  0  0  0
 38 74  1  0  0  0  0
 38 79  2  0  0  0  0
 39 68  1  0  0  0  0
 39 72  1  0  0  0  0
 39 80  2  0  0  0  0
 40 44  1  0  0  0  0
 41 53  1  0  0  0  0
 42 67  1  0  0  0  0
 43 45  1  0  0  0  0
 44 47  1  0  0  0  0
 45 51  1  0  0  0  0
 46 48  1  0  0  0  0
 46 49  1  0  0  0  0
 47 52  1  0  0  0  0
 48 54  1  0  0  0  0
 49 68  1  0  0  0  0
 50 54  1  0  0  0  0
 50 68  1  0  0  0  0
 51 65  1  0  0  0  0
 52 73  1  0  0  0  0
 53 67  1  0  0  0  0
 54 66  1  0  0  0  0
 55 62  1  0  0  0  0
 56 63  1  0  0  0  0
 57 63  1  0  0  0  0
 58 63  1  0  0  0  0
 59 75  1  0  0  0  0
 60 82  1  0  0  0  0
 61 63  1  0  0  0  0
 61 74  1  0  0  0  0
 62 75  1  0  0  0  0
 64 66  1  0  0  0  0
M  CHG  1  75   1
M  ISO  4  39 100  60 101  72 100  82 101
M  END
> <Batch ID>
0161

> <Smiles>
CNC(C)C(=O)NC(C(=O)N1Cc2cc([101O:1][101CH2:1]C3=NC(c4ccc([100NH:0][100C:0](=O)N5CCCC(n6nc(-c7ccc(Oc8ccc(F)cc8F)cc7)c(C(N)=O)c6N)C5)c(N)c4)CC3)ccc2CC1C(=O)NC1CCCc2ccccc21)C(C)(C)C

> <Shape>
0.325

> <Color>
0.111

> <Negative vol penalty>
0.000

$$$$

  -OEChem-04052303533D

 87 96  0     1  0  0  0  0  0999 V2000
  -26.7125  -38.1935   24.4642 C   0  0  0  0  0  0  0  0  0  0  0  0
  -27.4233  -37.3965   23.5725 C   0  0  0  0  0  0  0  0  0  0  0  0
  -24.1639   -8.6159   20.8511 C   0  0  0  0  0  0  0  0  0  0  0  0
  -23.0865  -10.7463   21.2223 C   0  0  0  0  0  0  0  0  0  0  0  0
  -29.3902  -19.1658   19.1057 C   0  0  0  0  0  0  0  0  0  0  0  0
  -25.9116  -37.6021   25.4403 C   0  0  0  0  0  0  0  0  0  0  0  0
  -27.3343  -36.0074   23.6571 C   0  0  0  0  0  0  0  0  0  0  0  0
  -27.4388  -30.1454   19.5410 C   0  0  0  0  0  0  0  0  0  0  0  0
  -29.5482  -17.8404   19.5107 C   0  0  0  0  0  0  0  0  0  0  0  0
  -23.3061   -8.0209   21.7762 C   0  0  0  0  0  0  0  0  0  0  0  0
  -22.2287  -10.1513   22.1474 C   0  0  0  0  0  0  0  0  0  0  0  0
  -28.0843  -28.9141   19.4365 C   0  0  0  0  0  0  0  0  0  0  0  0
  -20.1163   -6.9022   21.8548 C   0  0  0  0  0  0  0  0  0  0  0  0
  -19.5374   -5.6809   21.5099 C   0  0  0  0  0  0  0  0  0  0  0  0
  -27.1120  -19.1397   19.9096 C   0  0  0  0  0  0  0  0  0  0  0  0
  -26.6073  -28.0043   21.1128 C   0  0  0  0  0  0  0  0  0  0  0  0
  -20.5816   -4.6448   23.4265 C   0  0  0  0  0  0  0  0  0  0  0  0
  -24.0541   -9.9786   20.5742 C   0  0  0  0  0  0  0  0  0  0  0  0
  -28.1720  -19.8154   19.3053 C   0  0  0  0  0  0  0  0  0  0  0  0
  -24.7337  -10.7312   18.2334 C   0  0  0  0  0  0  0  0  0  0  0  0
  -25.8053  -36.2052   25.5307 C   0  0  0  0  0  0  0  0  0  0  0  0
  -26.3780  -30.3188   20.4416 C   0  0  0  0  0  0  0  0  0  0  0  0
  -26.5323  -35.3968   24.6362 C   0  0  0  0  0  0  0  0  0  0  0  0
  -25.9483  -29.2381   21.2250 C   0  0  0  0  0  0  0  0  0  0  0  0
  -28.4882  -17.1646   20.1151 C   0  0  0  0  0  0  0  0  0  0  0  0
  -22.3385   -8.7886   22.4243 C   0  0  0  0  0  0  0  0  0  0  0  0
  -27.6705  -27.8441   20.2246 C   0  0  0  0  0  0  0  0  0  0  0  0
  -20.9279   -6.9948   22.9855 C   0  0  0  0  0  0  0  0  0  0  0  0
  -19.7701   -4.5522   22.2958 C   0  0  0  0  0  0  0  0  0  0  0  0
  -27.2700  -17.8143   20.3146 C   0  0  0  0  0  0  0  0  0  0  0  0
  -21.1605   -5.8662   23.7713 C   0  0  0  0  0  0  0  0  0  0  0  0
  -24.9403  -10.5940   19.6191 C   0  0  0  0  0  0  0  0  0  0  0  0
  -25.8572  -11.3791   17.7812 C   0  0  0  0  0  0  0  0  0  0  0  0
  -28.1800  -23.6003   19.4575 C   0  0  0  0  0  0  0  0  0  0  0  0
  -28.0041  -21.2159   18.8778 C   0  0  0  0  0  0  0  0  0  0  0  0
  -23.6253  -10.3106   17.4270 C   0  0  0  0  0  0  0  0  0  0  0  0
  -25.8715  -32.1587   22.9837 C   0  0  0  0  0  0  0  0  0  0  0  0
  -22.8908  -30.8890   22.8233 C   0  0  0  0  0  0  0  0  0  0  0  0
  -20.8847  -28.3264   21.7962 C   0  0  0  0  0  0  0  0  0  0  0  0
  -29.7960  -15.0304   20.4002 C   0  0  0  0  0  0  0  0  0  0  0  0
  -24.9641  -35.6111   26.6326 C   0  0  0  0  0  0  0  0  0  0  0  0
  -25.6747  -31.6459   20.5232 C   0  0  0  0  0  0  0  0  0  0  0  0
  -24.8013  -29.3667   22.1927 C   0  0  0  0  0  0  0  0  0  0  0  0
  -24.6302  -34.1373   26.4167 C   0  0  0  0  0  0  0  0  0  0  0  0
  -30.5081  -11.9447   18.7729 C   0  0  0  0  0  0  0  0  0  0  0  0
  -25.8779  -33.3618   26.0060 C   0  0  0  0  0  0  0  0  0  0  0  0
  -29.1414  -11.2633   18.6737 C   0  0  0  0  0  0  0  0  0  0  0  0
  -28.4671  -23.2693   21.7801 C   0  0  0  0  0  0  0  0  0  0  0  0
  -30.6603  -12.7230   20.0786 C   0  0  0  0  0  0  0  0  0  0  0  0
  -28.7813  -21.9487   21.0869 C   0  0  0  0  0  0  0  0  0  0  0  0
  -28.2193  -13.0033   20.2578 C   0  0  0  0  0  0  0  0  0  0  0  0
  -26.4422  -33.8868   24.6803 C   0  0  1  0  0  0  0  0  0  0  0  0
  -28.6365  -24.3379   20.6933 C   0  0  2  0  0  0  0  0  0  0  0  0
  -24.9407  -31.8530   21.8445 C   0  0  1  0  0  0  0  0  0  0  0  0
  -27.9946  -12.2604   18.9306 C   0  0  2  0  0  0  0  0  0  0  0  0
  -18.4980  -27.5524   21.8435 C   0  0  0  0  0  0  0  0  0  0  0  0
  -23.2134  -30.0808   25.7478 C   0  0  0  0  0  0  0  0  0  0  0  0
  -21.2716  -28.5268   25.4601 C   0  0  0  0  0  0  0  0  0  0  0  0
  -20.9567  -30.9828   25.1576 C   0  0  0  0  0  0  0  0  0  0  0  0
  -20.6967  -28.3510   18.8427 C   0  0  0  0  0  0  0  0  0  0  0  0
  -27.8234  -25.5884   20.9624 C   0  0  0  0  0  0  0  0  0  1  0  0
  -22.2158  -29.6692   23.4023 C   0  0  1  0  0  0  0  0  0  0  0  0
  -19.5549  -28.3194   21.0640 C   0  0  2  0  0  0  0  0  0  0  0  0
  -21.9373  -29.8127   24.9252 C   0  0  0  0  0  0  0  0  0  0  0  0
  -26.1036  -11.1128   20.0209 N   0  0  0  0  0  0  0  0  0  0  0  0
  -26.6382  -11.5823   18.8808 N   0  0  0  0  0  0  0  0  0  0  0  0
  -28.2904  -22.1909   19.7221 N   0  0  0  0  0  0  0  0  0  0  0  0
  -24.1498  -30.6860   22.2406 N   0  0  0  0  0  0  0  0  0  0  0  0
  -29.5405  -13.6507   20.2525 N   0  0  0  0  0  0  0  0  0  0  0  0
  -26.2434  -11.7890   16.5544 N   0  0  0  0  0  0  0  0  0  0  0  0
  -22.5535   -9.6588   18.0521 N   0  0  0  0  0  0  0  0  0  0  0  0
  -28.6522  -15.8184   20.5254 N   0  0  0  0  0  0  0  0  0  0  0  0
  -25.6600  -33.3932   23.5673 N   0  0  0  0  0  0  0  0  0  0  0  0
  -21.0219  -29.4416   22.5953 N   0  0  0  0  0  0  0  0  0  0  0  0
  -27.5689  -21.4761   17.6485 N   0  3  0  0  0  0  0  0  0  0  0  0
  -19.7045  -27.6837   19.7244 N   0  3  0  0  0  0  0  0  0  0  0  0
  -27.8137  -24.0590   18.3905 O   0  0  0  0  0  0  0  0  0  0  0  0
  -23.5939  -10.4924   16.1862 O   0  0  0  0  0  0  0  0  0  0  0  0
  -26.7179  -31.3348   23.3101 O   0  0  0  0  0  0  0  0  0  0  0  0
  -22.3188  -31.9805   22.8794 O   0  0  0  0  0  0  0  0  0  0  0  0
  -21.7168  -27.4301   21.6745 O   0  0  0  0  0  0  0  0  0  0  0  0
  -30.9436  -15.4830   20.3872 O   0  0  0  0  0  0  0  0  0  0  0  0
  -21.5012   -8.2083   23.3269 O   0  0  0  0  0  0  0  0  0  0  0  0
  -28.2993  -26.6414   20.1250 O   0  0  0  0  0  0  0  0  0  1  0  0
  -19.2129   -3.3798   21.9654 F   0  0  0  0  0  0  0  0  0  0  0  0
  -26.2440  -17.1741   20.8932 F   0  0  0  0  0  0  0  0  0  0  0  0
  -21.9383   -5.9493   24.8594 F   0  0  0  0  0  0  0  0  0  0  0  0
  1  2  1  0  0  0  0
  1  6  2  0  0  0  0
  2  7  2  0  0  0  0
  3 10  2  0  0  0  0
  3 18  1  0  0  0  0
  4 11  1  0  0  0  0
  4 18  2  0  0  0  0
  5  9  2  0  0  0  0
  5 19  1  0  0  0  0
  6 21  1  0  0  0  0
  7 23  1  0  0  0  0
  8 12  2  0  0  0  0
  8 22  1  0  0  0  0
  9 25  1  0  0  0  0
 10 26  1  0  0  0  0
 11 26  2  0  0  0  0
 12 27  1  0  0  0  0
 13 14  2  0  0  0  0
 13 28  1  0  0  0  0
 14 29  1  0  0  0  0
 15 19  2  0  0  0  0
 15 30  1  0  0  0  0
 16 24  1  0  0  0  0
 16 27  2  0  0  0  0
 17 29  2  0  0  0  0
 17 31  1  0  0  0  0
 18 32  1  0  0  0  0
 19 35  1  0  0  0  0
 20 32  1  0  0  0  0
 20 33  2  0  0  0  0
 20 36  1  0  0  0  0
 21 23  2  0  0  0  0
 21 41  1  0  0  0  0
 22 24  2  0  0  0  0
 22 42  1  0  0  0  0
 23 52  1  0  0  0  0
 24 43  1  0  0  0  0
 25 30  2  0  0  0  0
 25 72  1  0  0  0  0
 26 83  1  0  0  0  0
 27 84  1  0  0  0  0
 28 31  2  0  0  0  0
 28 83  1  0  0  0  0
 29 85  1  0  0  0  0
 30 86  1  0  0  0  0
 31 87  1  0  0  0  0
 32 65  2  0  0  0  0
 33 66  1  0  0  0  0
 33 70  1  0  0  0  0
 34 53  1  0  0  0  0
 34 67  1  0  0  0  0
 34 77  2  0  0  0  0
 35 67  1  0  0  0  0
 35 75  2  0  0  0  0
 36 71  1  0  0  0  0
 36 78  2  0  0  0  0
 37 54  1  0  0  0  0
 37 73  1  0  0  0  0
 37 79  2  0  0  0  0
 38 62  1  0  0  0  0
 38 68  1  0  0  0  0
 38 80  2  0  0  0  0
 39 63  1  0  0  0  0
 39 74  1  0  0  0  0
 39 81  2  0  0  0  0
 40 69  1  0  0  0  0
 40 72  1  0  0  0  0
 40 82  2  0  0  0  0
 41 44  1  0  0  0  0
 42 54  1  0  0  0  0
 43 68  1  0  0  0  0
 44 46  1  0  0  0  0
 45 47  1  0  0  0  0
 45 49  1  0  0  0  0
 46 52  1  0  0  0  0
 47 55  1  0  0  0  0
 48 50  1  0  0  0  0
 48 53  1  0  0  0  0
 49 69  1  0  0  0  0
 50 67  1  0  0  0  0
 51 55  1  0  0  0  0
 51 69  1  0  0  0  0
 52 73  1  0  0  0  0
 53 61  1  0  0  0  0
 54 68  1  0  0  0  0
 55 66  1  0  0  0  0
 56 63  1  0  0  0  0
 57 64  1  0  0  0  0
 58 64  1  0  0  0  0
 59 64  1  0  0  0  0
 60 76  1  0  0  0  0
 61 84  1  0  0  0  0
 62 64  1  0  0  0  0
 62 74  1  0  0  0  0
 63 76  1  0  0  0  0
 65 66  1  0  0  0  0
M  CHG  2  75   1  76   1
M  ISO  4  40 100  61 101  72 100  84 101
M  END
> <Batch ID>
0161

> <Smiles>
CNC(C)C(=O)NC(C(=O)N1Cc2cc([101O:1][101CH2:1]C3CCN(C(=N)c4ccc([100NH:0][100C:0](=O)N5CCCC(n6nc(-c7ccc(Oc8ccc(F)cc8F)cc7)c(C(N)=O)c6N)C5)c(F)c4)C3=O)ccc2CC1C(=O)NC1CCCc2ccccc21)C(C)(C)C

> <Shape>
0.349

> <Color>
0.111

> <Negative vol penalty>
0.000

$$$$

  -OEChem-04052303533D

 83 91  0     1  0  0  0  0  0999 V2000
  -26.4345  -37.8843   21.9739 C   0  0  0  0  0  0  0  0  0  0  0  0
  -27.1628  -36.7423   21.6560 C   0  0  0  0  0  0  0  0  0  0  0  0
  -24.8891  -10.4330   23.5338 C   0  0  0  0  0  0  0  0  0  0  0  0
  -24.3596  -12.7351   24.0407 C   0  0  0  0  0  0  0  0  0  0  0  0
  -25.2999  -37.7847   22.7780 C   0  0  0  0  0  0  0  0  0  0  0  0
  -26.7574  -35.5002   22.1431 C   0  0  0  0  0  0  0  0  0  0  0  0
  -27.2307  -30.0974   19.2984 C   0  0  0  0  0  0  0  0  0  0  0  0
  -24.5897  -10.0746   24.8481 C   0  0  0  0  0  0  0  0  0  0  0  0
  -24.0601  -12.3767   25.3551 C   0  0  0  0  0  0  0  0  0  0  0  0
  -28.1595  -29.0626   19.3991 C   0  0  0  0  0  0  0  0  0  0  0  0
  -21.8226   -9.4996   26.7043 C   0  0  0  0  0  0  0  0  0  0  0  0
  -21.0419   -8.3611   26.9040 C   0  0  0  0  0  0  0  0  0  0  0  0
  -26.7053  -27.9159   20.9449 C   0  0  0  0  0  0  0  0  0  0  0  0
  -30.4142  -18.7268   19.0821 C   0  0  0  0  0  0  0  0  0  0  0  0
  -22.8338   -7.3551   28.1745 C   0  0  0  0  0  0  0  0  0  0  0  0
  -28.4215  -19.0077   20.3497 C   0  0  0  0  0  0  0  0  0  0  0  0
  -24.7742  -11.7632   23.1301 C   0  0  0  0  0  0  0  0  0  0  0  0
  -24.1988  -12.1717   20.6786 C   0  0  0  0  0  0  0  0  0  0  0  0
  -24.8749  -36.5394   23.2672 C   0  0  0  0  0  0  0  0  0  0  0  0
  -26.0351  -30.0544   20.0299 C   0  0  0  0  0  0  0  0  0  0  0  0
  -25.6167  -35.3840   22.9556 C   0  0  0  0  0  0  0  0  0  0  0  0
  -25.7618  -28.9503   20.8498 C   0  0  0  0  0  0  0  0  0  0  0  0
  -29.3356  -18.1569   19.7493 C   0  0  0  0  0  0  0  0  0  0  0  0
  -30.5439  -20.1104   19.0363 C   0  0  0  0  0  0  0  0  0  0  0  0
  -24.1751  -11.0465   25.7587 C   0  0  0  0  0  0  0  0  0  0  0  0
  -27.8982  -27.9730   20.2247 C   0  0  0  0  0  0  0  0  0  0  0  0
  -23.1090   -9.5658   27.2397 C   0  0  0  0  0  0  0  0  0  0  0  0
  -21.5474   -7.2889   27.6391 C   0  0  0  0  0  0  0  0  0  0  0  0
  -23.6145   -8.4936   27.9748 C   0  0  0  0  0  0  0  0  0  0  0  0
  -25.0839  -12.1341   21.7727 C   0  0  0  0  0  0  0  0  0  0  0  0
  -29.5756  -20.8737   19.6684 C   0  0  0  0  0  0  0  0  0  0  0  0
  -24.9751  -12.5836   19.6230 C   0  0  0  0  0  0  0  0  0  0  0  0
  -22.8001  -11.8620   20.6216 C   0  0  0  0  0  0  0  0  0  0  0  0
  -24.7243  -31.8601   22.2938 C   0  0  0  0  0  0  0  0  0  0  0  0
  -29.1952  -24.5918   20.0050 C   0  0  0  0  0  0  0  0  0  0  0  0
  -22.1925  -29.8784   21.8632 C   0  0  0  0  0  0  0  0  0  0  0  0
  -21.0356  -26.8382   20.8310 C   0  0  0  0  0  0  0  0  0  0  0  0
  -30.0110  -15.7795   19.2616 C   0  0  0  0  0  0  0  0  0  0  0  0
  -23.6691  -36.4880   24.1717 C   0  0  0  0  0  0  0  0  0  0  0  0
  -25.0316  -31.1660   19.8896 C   0  0  0  0  0  0  0  0  0  0  0  0
  -24.4840  -28.8465   21.6402 C   0  0  0  0  0  0  0  0  0  0  0  0
  -23.0926  -35.0844   24.3390 C   0  0  0  0  0  0  0  0  0  0  0  0
  -29.4902  -12.4796   18.0300 C   0  0  0  0  0  0  0  0  0  0  0  0
  -24.2063  -34.0793   24.6151 C   0  0  0  0  0  0  0  0  0  0  0  0
  -28.2172  -12.0222   18.7459 C   0  0  0  0  0  0  0  0  0  0  0  0
  -30.3697  -13.3426   18.9331 C   0  0  0  0  0  0  0  0  0  0  0  0
  -28.4164  -14.0300   20.2677 C   0  0  0  0  0  0  0  0  0  0  0  0
  -25.1946  -34.0155   23.4444 C   0  0  1  0  0  0  0  0  0  0  0  0
  -24.0775  -31.2629   21.0761 C   0  0  1  0  0  0  0  0  0  0  0  0
  -27.4673  -13.2116   19.3772 C   0  0  2  0  0  0  0  0  0  0  0  0
  -18.9239  -25.4966   20.6362 C   0  0  0  0  0  0  0  0  0  0  0  0
  -22.2505  -29.3554   24.8687 C   0  0  0  0  0  0  0  0  0  0  0  0
  -20.8024  -27.3509   24.4774 C   0  0  0  0  0  0  0  0  0  0  0  0
  -19.9605  -29.6272   23.9012 C   0  0  0  0  0  0  0  0  0  0  0  0
  -21.2980  -26.6358   17.8900 C   0  0  0  0  0  0  0  0  0  0  0  0
  -28.7599  -23.1611   20.2411 C   0  0  0  0  0  0  0  0  0  0  0  0
  -28.2923  -25.6572   20.5957 C   0  0  0  0  0  0  0  0  0  1  0  0
  -21.7481  -28.5660   22.4624 C   0  0  1  0  0  0  0  0  0  0  0  0
  -19.8730  -26.4547   19.9334 C   0  0  2  0  0  0  0  0  0  0  0  0
  -21.2154  -28.7274   23.9142 C   0  0  0  0  0  0  0  0  0  0  0  0
  -28.5140  -20.3562   20.3264 N   0  0  0  0  0  0  0  0  0  0  0  0
  -26.3273  -12.4933   21.4426 N   0  0  0  0  0  0  0  0  0  0  0  0
  -26.2291  -12.7605   20.1291 N   0  0  0  0  0  0  0  0  0  0  0  0
  -23.5371  -29.9616   21.4745 N   0  0  0  0  0  0  0  0  0  0  0  0
  -29.5932  -14.4516   19.4917 N   0  0  0  0  0  0  0  0  0  0  0  0
  -31.6347  -20.6896   18.3612 N   0  0  0  0  0  0  0  0  0  0  0  0
  -24.7004  -12.8080   18.3204 N   0  0  0  0  0  0  0  0  0  0  0  0
  -22.1576  -11.4543   21.7986 N   0  0  0  0  0  0  0  0  0  0  0  0
  -29.1763  -16.7505   19.8140 N   0  0  0  0  0  0  0  0  0  0  0  0
  -29.6959  -22.2553   19.6259 N   0  0  0  0  0  0  0  0  0  0  0  0
  -24.6403  -33.2379   22.3569 N   0  0  0  0  0  0  0  0  0  0  0  0
  -20.7798  -27.9987   21.5302 N   0  0  0  0  0  0  0  0  0  0  0  0
  -20.3716  -25.7965   18.6927 N   0  3  0  0  0  0  0  0  0  0  0  0
  -22.1432  -11.9287   19.5550 O   0  0  0  0  0  0  0  0  0  0  0  0
  -25.2587  -31.1251   23.1159 O   0  0  0  0  0  0  0  0  0  0  0  0
  -30.2122  -24.8826   19.3766 O   0  0  0  0  0  0  0  0  0  0  0  0
  -21.3750  -30.7936   21.7379 O   0  0  0  0  0  0  0  0  0  0  0  0
  -22.0661  -26.1727   20.9072 O   0  0  0  0  0  0  0  0  0  0  0  0
  -31.0189  -16.0370   18.5985 O   0  0  0  0  0  0  0  0  0  0  0  0
  -23.8826  -10.6971   27.0413 O   0  0  0  0  0  0  0  0  0  0  0  0
  -28.8033  -26.9618   20.3253 O   0  0  0  0  0  0  0  0  0  1  0  0
  -20.7970   -6.1963   27.8320 F   0  0  0  0  0  0  0  0  0  0  0  0
  -24.8491   -8.5519   28.4926 F   0  0  0  0  0  0  0  0  0  0  0  0
  1  2  1  0  0  0  0
  1  5  2  0  0  0  0
  2  6  2  0  0  0  0
  3  8  2  0  0  0  0
  3 17  1  0  0  0  0
  4  9  1  0  0  0  0
  4 17  2  0  0  0  0
  5 19  1  0  0  0  0
  6 21  1  0  0  0  0
  7 10  2  0  0  0  0
  7 20  1  0  0  0  0
  8 25  1  0  0  0  0
  9 25  2  0  0  0  0
 10 26  1  0  0  0  0
 11 12  2  0  0  0  0
 11 27  1  0  0  0  0
 12 28  1  0  0  0  0
 13 22  1  0  0  0  0
 13 26  2  0  0  0  0
 14 23  2  0  0  0  0
 14 24  1  0  0  0  0
 15 28  2  0  0  0  0
 15 29  1  0  0  0  0
 16 23  1  0  0  0  0
 16 61  2  0  0  0  0
 17 30  1  0  0  0  0
 18 30  1  0  0  0  0
 18 32  2  0  0  0  0
 18 33  1  0  0  0  0
 19 21  2  0  0  0  0
 19 39  1  0  0  0  0
 20 22  2  0  0  0  0
 20 40  1  0  0  0  0
 21 48  1  0  0  0  0
 22 41  1  0  0  0  0
 23 69  1  0  0  0  0
 24 31  2  0  0  0  0
 24 66  1  0  0  0  0
 25 80  1  0  0  0  0
 26 81  1  0  0  0  0
 27 29  2  0  0  0  0
 27 80  1  0  0  0  0
 28 82  1  0  0  0  0
 29 83  1  0  0  0  0
 30 62  2  0  0  0  0
 31 61  1  0  0  0  0
 31 70  1  0  0  0  0
 32 63  1  0  0  0  0
 32 67  1  0  0  0  0
 33 68  1  0  0  0  0
 33 74  2  0  0  0  0
 34 49  1  0  0  0  0
 34 71  1  0  0  0  0
 34 75  2  0  0  0  0
 35 56  1  0  0  0  0
 35 57  1  0  0  0  0
 35 76  2  0  0  0  0
 36 58  1  0  0  0  0
 36 64  1  0  0  0  0
 36 77  2  0  0  0  0
 37 59  1  0  0  0  0
 37 72  1  0  0  0  0
 37 78  2  0  0  0  0
 38 65  1  0  0  0  0
 38 69  1  0  0  0  0
 38 79  2  0  0  0  0
 39 42  1  0  0  0  0
 40 49  1  0  0  0  0
 41 64  1  0  0  0  0
 42 44  1  0  0  0  0
 43 45  1  0  0  0  0
 43 46  1  0  0  0  0
 44 48  1  0  0  0  0
 45 50  1  0  0  0  0
 46 65  1  0  0  0  0
 47 50  1  0  0  0  0
 47 65  1  0  0  0  0
 48 71  1  0  0  0  0
 49 64  1  0  0  0  0
 50 63  1  0  0  0  0
 51 59  1  0  0  0  0
 52 60  1  0  0  0  0
 53 60  1  0  0  0  0
 54 60  1  0  0  0  0
 55 73  1  0  0  0  0
 56 70  1  0  0  0  0
 57 81  1  0  0  0  0
 58 60  1  0  0  0  0
 58 72  1  0  0  0  0
 59 73  1  0  0  0  0
 62 63  1  0  0  0  0
M  CHG  1  73   1
M  ISO  4  38 100  57 101  69 100  81 101
M  END
> <Batch ID>
0161

> <Smiles>
CNC(C)C(=O)NC(C(=O)N1Cc2cc([101O:1][101CH2:1]C(=O)CNc3ncc([100NH:0][100C:0](=O)N4CCCC(n5nc(-c6ccc(Oc7ccc(F)cc7F)cc6)c(C(N)=O)c5N)C4)cc3N)ccc2CC1C(=O)NC1CCCc2ccccc21)C(C)(C)C

> <Shape>
0.306

> <Color>
0.092

> <Negative vol penalty>
0.000

$$$$

  -OEChem-04052303533D

 82 90  0     1  0  0  0  0  0999 V2000
  -37.4843  -33.6310   28.1327 C   0  0  0  0  0  0  0  0  0  0  0  0
  -37.1090  -32.3090   27.9158 C   0  0  0  0  0  0  0  0  0  0  0  0
  -23.0198   -9.8349   19.9904 C   0  0  0  0  0  0  0  0  0  0  0  0
  -23.7005   -9.9588   22.3052 C   0  0  0  0  0  0  0  0  0  0  0  0
  -36.5113  -34.6000   28.3740 C   0  0  0  0  0  0  0  0  0  0  0  0
  -35.7604  -31.9552   27.9411 C   0  0  0  0  0  0  0  0  0  0  0  0
  -33.0098  -27.6858   24.5187 C   0  0  0  0  0  0  0  0  0  0  0  0
  -22.2564   -8.7028   20.2755 C   0  0  0  0  0  0  0  0  0  0  0  0
  -22.9371   -8.8267   22.5903 C   0  0  0  0  0  0  0  0  0  0  0  0
  -32.6512  -26.3637   24.7778 C   0  0  0  0  0  0  0  0  0  0  0  0
  -23.2142   -5.4774   22.2214 C   0  0  0  0  0  0  0  0  0  0  0  0
  -23.7945   -4.4871   23.0140 C   0  0  0  0  0  0  0  0  0  0  0  0
  -30.4207  -27.0861   25.3452 C   0  0  0  0  0  0  0  0  0  0  0  0
  -22.0373   -4.7657   24.6486 C   0  0  0  0  0  0  0  0  0  0  0  0
  -31.8286  -18.8252   22.2425 C   0  0  0  0  0  0  0  0  0  0  0  0
  -23.7419  -10.4629   21.0053 C   0  0  0  0  0  0  0  0  0  0  0  0
  -24.1126  -12.9751   20.7627 C   0  0  0  0  0  0  0  0  0  0  0  0
  -35.1495  -34.2596   28.3927 C   0  0  0  0  0  0  0  0  0  0  0  0
  -32.0780  -28.7210   24.6817 C   0  0  0  0  0  0  0  0  0  0  0  0
  -34.7684  -32.9203   28.1842 C   0  0  0  0  0  0  0  0  0  0  0  0
  -30.7692  -28.4203   25.0851 C   0  0  0  0  0  0  0  0  0  0  0  0
  -22.2150   -8.1987   21.5754 C   0  0  0  0  0  0  0  0  0  0  0  0
  -31.3573  -26.0640   25.1939 C   0  0  0  0  0  0  0  0  0  0  0  0
  -22.0454   -6.1118   22.6424 C   0  0  0  0  0  0  0  0  0  0  0  0
  -23.2061   -4.1313   24.2276 C   0  0  0  0  0  0  0  0  0  0  0  0
  -21.4570   -5.7560   23.8560 C   0  0  0  0  0  0  0  0  0  0  0  0
  -31.7505  -17.5330   21.6472 C   0  0  0  0  0  0  0  0  0  0  0  0
  -24.5311  -11.6320   20.7113 C   0  0  0  0  0  0  0  0  0  0  0  0
  -25.2239  -13.6952   20.3982 C   0  0  0  0  0  0  0  0  0  0  0  0
  -30.6608  -19.1693   22.8871 C   0  0  0  0  0  0  0  0  0  0  0  0
  -30.5259  -16.9387   21.8597 C   0  0  0  0  0  0  0  0  0  0  0  0
  -22.8336  -13.5228   21.1091 C   0  0  0  0  0  0  0  0  0  0  0  0
  -31.8882  -31.2971   26.5341 C   0  0  0  0  0  0  0  0  0  0  0  0
  -30.7687  -22.5629   24.4854 C   0  0  0  0  0  0  0  0  0  0  0  0
  -29.2608  -31.9176   24.7358 C   0  0  0  0  0  0  0  0  0  0  0  0
  -26.7634  -30.7163   22.7442 C   0  0  0  0  0  0  0  0  0  0  0  0
  -30.6909  -14.7047   20.7072 C   0  0  0  0  0  0  0  0  0  0  0  0
  -34.1371  -35.3331   28.7045 C   0  0  0  0  0  0  0  0  0  0  0  0
  -32.4729  -30.1390   24.3724 C   0  0  0  0  0  0  0  0  0  0  0  0
  -29.7257  -29.4929   25.2556 C   0  0  0  0  0  0  0  0  0  0  0  0
  -32.7059  -34.9441   28.3432 C   0  0  0  0  0  0  0  0  0  0  0  0
  -29.6346  -12.1765   18.4335 C   0  0  0  0  0  0  0  0  0  0  0  0
  -32.3941  -33.5358   28.8395 C   0  0  0  0  0  0  0  0  0  0  0  0
  -28.1783  -11.9199   18.8276 C   0  0  0  0  0  0  0  0  0  0  0  0
  -30.5102  -12.4620   19.6524 C   0  0  0  0  0  0  0  0  0  0  0  0
  -28.5642  -13.2747   20.9259 C   0  0  0  0  0  0  0  0  0  0  0  0
  -33.3141  -32.5018   28.1792 C   0  0  1  0  0  0  0  0  0  0  0  0
  -31.5892  -31.1705   25.0671 C   0  0  1  0  0  0  0  0  0  0  0  0
  -27.6307  -13.0464   19.7258 C   0  0  2  0  0  0  0  0  0  0  0  0
  -24.7440  -31.4592   21.4529 C   0  0  0  0  0  0  0  0  0  0  0  0
  -27.6925  -32.1742   27.3406 C   0  0  0  0  0  0  0  0  0  0  0  0
  -25.5825  -31.9638   26.0096 C   0  0  0  0  0  0  0  0  0  0  0  0
  -27.1227  -33.8843   25.6070 C   0  0  0  0  0  0  0  0  0  0  0  0
  -27.9147  -29.7833   20.1824 C   0  0  0  0  0  0  0  0  0  0  0  0
  -31.3694  -21.4226   23.6911 C   0  0  0  0  0  0  0  0  0  0  0  0
  -31.6752  -23.7589   24.7026 C   0  0  0  0  0  0  0  0  0  1  0  0
  -27.7940  -31.5734   24.8317 C   0  0  1  0  0  0  0  0  0  0  0  0
  -26.2378  -31.1798   21.3976 C   0  0  2  0  0  0  0  0  0  0  0  0
  -27.0679  -32.3787   25.9460 C   0  0  0  0  0  0  0  0  0  0  0  0
  -25.8085  -11.5037   20.3430 N   0  0  0  0  0  0  0  0  0  0  0  0
  -26.2023  -12.7755   20.1596 N   0  0  0  0  0  0  0  0  0  0  0  0
  -30.1622  -30.8647   24.9470 N   0  0  0  0  0  0  0  0  0  0  0  0
  -29.9317  -13.5428   20.4536 N   0  0  0  0  0  0  0  0  0  0  0  0
  -25.4498  -15.0191   20.2617 N   0  0  0  0  0  0  0  0  0  0  0  0
  -21.8018  -12.6412   21.4589 N   0  0  0  0  0  0  0  0  0  0  0  0
  -30.0251  -15.6774   21.4521 N   0  0  0  0  0  0  0  0  0  0  0  0
  -30.4113  -20.3544   23.5644 N   0  0  0  0  0  0  0  0  0  0  0  0
  -32.8725  -32.2208   26.8300 N   0  0  0  0  0  0  0  0  0  0  0  0
  -27.2407  -31.7690   23.4960 N   0  0  0  0  0  0  0  0  0  0  0  0
  -26.4832  -30.1390   20.3596 N   0  3  0  0  0  0  0  0  0  0  0  0
  -22.6077  -14.7566   21.0924 O   0  0  0  0  0  0  0  0  0  0  0  0
  -31.2706  -30.6089   27.3382 O   0  0  0  0  0  0  0  0  0  0  0  0
  -29.6220  -22.5321   24.9305 O   0  0  0  0  0  0  0  0  0  0  0  0
  -29.5943  -33.0764   24.4759 O   0  0  0  0  0  0  0  0  0  0  0  0
  -26.7482  -29.5387   23.0956 O   0  0  0  0  0  0  0  0  0  0  0  0
  -31.8370  -14.8390   20.2708 O   0  0  0  0  0  0  0  0  0  0  0  0
  -21.4701   -7.0942   21.8540 O   0  0  0  0  0  0  0  0  0  0  0  0
  -31.0049  -24.7744   25.4480 O   0  0  0  0  0  0  0  0  0  1  0  0
  -23.7626   -3.1792   24.9879 F   0  0  0  0  0  0  0  0  0  0  0  0
  -20.3335   -6.3611   24.2651 F   0  0  0  0  0  0  0  0  0  0  0  0
  -32.7501  -16.9704   20.9650 F   0  0  0  0  0  0  0  0  0  0  0  0
  -29.4770  -17.9373   22.7733 S   0  0  0  0  0  0  0  0  0  0  0  0
  1  2  1  0  0  0  0
  1  5  2  0  0  0  0
  2  6  2  0  0  0  0
  3  8  2  0  0  0  0
  3 16  1  0  0  0  0
  4  9  1  0  0  0  0
  4 16  2  0  0  0  0
  5 18  1  0  0  0  0
  6 20  1  0  0  0  0
  7 10  2  0  0  0  0
  7 19  1  0  0  0  0
  8 22  1  0  0  0  0
  9 22  2  0  0  0  0
 10 23  1  0  0  0  0
 11 12  2  0  0  0  0
 11 24  1  0  0  0  0
 12 25  1  0  0  0  0
 13 21  1  0  0  0  0
 13 23  2  0  0  0  0
 14 25  2  0  0  0  0
 14 26  1  0  0  0  0
 15 27  1  0  0  0  0
 15 30  2  0  0  0  0
 16 28  1  0  0  0  0
 17 28  1  0  0  0  0
 17 29  2  0  0  0  0
 17 32  1  0  0  0  0
 18 20  2  0  0  0  0
 18 38  1  0  0  0  0
 19 21  2  0  0  0  0
 19 39  1  0  0  0  0
 20 47  1  0  0  0  0
 21 40  1  0  0  0  0
 22 77  1  0  0  0  0
 23 78  1  0  0  0  0
 24 26  2  0  0  0  0
 24 77  1  0  0  0  0
 25 79  1  0  0  0  0
 26 80  1  0  0  0  0
 27 31  2  0  0  0  0
 27 81  1  0  0  0  0
 28 60  2  0  0  0  0
 29 61  1  0  0  0  0
 29 64  1  0  0  0  0
 30 67  1  0  0  0  0
 30 82  1  0  0  0  0
 31 66  1  0  0  0  0
 31 82  1  0  0  0  0
 32 65  1  0  0  0  0
 32 71  2  0  0  0  0
 33 48  1  0  0  0  0
 33 68  1  0  0  0  0
 33 72  2  0  0  0  0
 34 55  1  0  0  0  0
 34 56  1  0  0  0  0
 34 73  2  0  0  0  0
 35 57  1  0  0  0  0
 35 62  1  0  0  0  0
 35 74  2  0  0  0  0
 36 58  1  0  0  0  0
 36 69  1  0  0  0  0
 36 75  2  0  0  0  0
 37 63  1  0  0  0  0
 37 66  1  0  0  0  0
 37 76  2  0  0  0  0
 38 41  1  0  0  0  0
 39 48  1  0  0  0  0
 40 62  1  0  0  0  0
 41 43  1  0  0  0  0
 42 44  1  0  0  0  0
 42 45  1  0  0  0  0
 43 47  1  0  0  0  0
 44 49  1  0  0  0  0
 45 63  1  0  0  0  0
 46 49  1  0  0  0  0
 46 63  1  0  0  0  0
 47 68  1  0  0  0  0
 48 62  1  0  0  0  0
 49 61  1  0  0  0  0
 50 58  1  0  0  0  0
 51 59  1  0  0  0  0
 52 59  1  0  0  0  0
 53 59  1  0  0  0  0
 54 70  1  0  0  0  0
 55 67  1  0  0  0  0
 56 78  1  0  0  0  0
 57 59  1  0  0  0  0
 57 69  1  0  0  0  0
 58 70  1  0  0  0  0
 60 61  1  0  0  0  0
M  CHG  1  70   1
M  ISO  4  37 100  56 101  66 100  78 101
M  END
> <Batch ID>
0161

> <Smiles>
CNC(C)C(=O)NC(C(=O)N1Cc2cc([101O:1][101CH2:1]C(=O)CNc3cc(F)c([100NH:0][100C:0](=O)N4CCCC(n5nc(-c6ccc(Oc7ccc(F)cc7F)cc6)c(C(N)=O)c5N)C4)s3)ccc2CC1C(=O)NC1CCCc2ccccc21)C(C)(C)C

> <Shape>
0.256

> <Color>
0.199

> <Negative vol penalty>
0.000

$$$$

  -OEChem-04052303533D

 86 94  0     1  0  0  0  0  0999 V2000
  -28.9464  -37.4306   24.0630 C   0  0  0  0  0  0  0  0  0  0  0  0
  -28.9226  -36.3186   23.2274 C   0  0  0  0  0  0  0  0  0  0  0  0
  -24.1602   -8.8950   21.6125 C   0  0  0  0  0  0  0  0  0  0  0  0
  -23.4554  -11.0340   22.4872 C   0  0  0  0  0  0  0  0  0  0  0  0
  -28.2776  -37.3966   25.2859 C   0  0  0  0  0  0  0  0  0  0  0  0
  -28.2308  -35.1715   23.6146 C   0  0  0  0  0  0  0  0  0  0  0  0
  -25.1862  -31.3026   19.9721 C   0  0  0  0  0  0  0  0  0  0  0  0
  -23.5027   -8.2500   22.6599 C   0  0  0  0  0  0  0  0  0  0  0  0
  -22.7977  -10.3889   23.5346 C   0  0  0  0  0  0  0  0  0  0  0  0
  -25.5303  -30.0719   19.4147 C   0  0  0  0  0  0  0  0  0  0  0  0
  -20.3316   -7.3862   23.4542 C   0  0  0  0  0  0  0  0  0  0  0  0
  -19.5522   -6.2722   23.1422 C   0  0  0  0  0  0  0  0  0  0  0  0
  -24.4207  -28.9439   21.2356 C   0  0  0  0  0  0  0  0  0  0  0  0
  -20.9238   -4.9074   24.5889 C   0  0  0  0  0  0  0  0  0  0  0  0
  -27.9662  -19.1963   21.0632 C   0  0  0  0  0  0  0  0  0  0  0  0
  -30.0060  -17.7806   19.9317 C   0  0  0  0  0  0  0  0  0  0  0  0
  -24.1367  -10.2871   21.5262 C   0  0  0  0  0  0  0  0  0  0  0  0
  -24.2836  -11.2933   19.1866 C   0  0  0  0  0  0  0  0  0  0  0  0
  -27.5692  -36.2519   25.6841 C   0  0  0  0  0  0  0  0  0  0  0  0
  -24.4650  -31.3634   21.1732 C   0  0  0  0  0  0  0  0  0  0  0  0
  -27.5530  -35.1217   24.8446 C   0  0  0  0  0  0  0  0  0  0  0  0
  -24.0665  -30.1767   21.8048 C   0  0  0  0  0  0  0  0  0  0  0  0
  -29.0834  -17.0965   20.7067 C   0  0  0  0  0  0  0  0  0  0  0  0
  -22.8214   -8.9969   23.6209 C   0  0  0  0  0  0  0  0  0  0  0  0
  -25.1500  -28.8923   20.0480 C   0  0  0  0  0  0  0  0  0  0  0  0
  -21.4071   -7.2607   24.3336 C   0  0  0  0  0  0  0  0  0  0  0  0
  -19.8483   -5.0328   23.7095 C   0  0  0  0  0  0  0  0  0  0  0  0
  -21.7032   -6.0213   24.9009 C   0  0  0  0  0  0  0  0  0  0  0  0
  -28.0471  -17.8252   21.2797 C   0  0  0  0  0  0  0  0  0  0  0  0
  -24.8162  -10.9540   20.4448 C   0  0  0  0  0  0  0  0  0  0  0  0
  -28.9389  -19.7864   20.2724 C   0  0  0  0  0  0  0  0  0  0  0  0
  -25.3217  -11.9057   18.5280 C   0  0  0  0  0  0  0  0  0  0  0  0
  -22.9680  -11.0745   18.6603 C   0  0  0  0  0  0  0  0  0  0  0  0
  -25.0337  -32.5307   24.0745 C   0  0  0  0  0  0  0  0  0  0  0  0
  -28.0008  -23.4208   20.1939 C   0  0  0  0  0  0  0  0  0  0  0  0
  -26.6892  -25.6150   19.8514 C   0  0  0  0  0  0  0  0  0  0  0  0
  -21.9364  -31.7132   24.5851 C   0  0  0  0  0  0  0  0  0  0  0  0
  -19.2737  -29.7633   23.7167 C   0  0  0  0  0  0  0  0  0  0  0  0
  -30.1747  -14.8469   20.3995 C   0  0  0  0  0  0  0  0  0  0  0  0
  -26.9010  -36.2455   27.0361 C   0  0  0  0  0  0  0  0  0  0  0  0
  -24.0786  -32.6988   21.7474 C   0  0  0  0  0  0  0  0  0  0  0  0
  -23.2737  -30.1875   23.0854 C   0  0  0  0  0  0  0  0  0  0  0  0
  -25.8788  -35.1244   27.2050 C   0  0  0  0  0  0  0  0  0  0  0  0
  -30.1055  -11.9630   18.3124 C   0  0  0  0  0  0  0  0  0  0  0  0
  -26.4528  -33.7998   26.7122 C   0  0  0  0  0  0  0  0  0  0  0  0
  -28.6908  -11.4113   18.5032 C   0  0  0  0  0  0  0  0  0  0  0  0
  -30.6676  -12.5431   19.6091 C   0  0  0  0  0  0  0  0  0  0  0  0
  -28.3975  -12.9884   20.4561 C   0  0  0  0  0  0  0  0  0  0  0  0
  -26.7929  -33.8676   25.2185 C   0  0  1  0  0  0  0  0  0  0  0  0
  -23.7868  -32.6439   23.2438 C   0  0  1  0  0  0  0  0  0  0  0  0
  -27.7642  -12.4520   19.1620 C   0  0  2  0  0  0  0  0  0  0  0  0
  -16.8881  -29.2959   24.3396 C   0  0  0  0  0  0  0  0  0  0  0  0
  -22.8834  -30.1438   27.0244 C   0  0  0  0  0  0  0  0  0  0  0  0
  -20.6763  -28.9618   27.0339 C   0  0  0  0  0  0  0  0  0  0  0  0
  -20.7678  -31.4320   27.3696 C   0  0  0  0  0  0  0  0  0  0  0  0
  -18.2954  -30.5729   21.0434 C   0  0  0  0  0  0  0  0  0  0  0  0
  -26.9705  -24.4033   20.7174 C   0  0  0  0  0  0  0  0  0  0  0  0
  -27.8031  -21.9804   20.6218 C   0  0  0  0  0  0  0  0  0  0  0  0
  -25.6836  -26.6032   20.4101 C   0  0  0  0  0  0  0  0  0  1  0  0
  -21.2241  -30.4753   25.0743 C   0  0  1  0  0  0  0  0  0  0  0  0
  -17.8189  -30.1055   23.4503 C   0  0  2  0  0  0  0  0  0  0  0  0
  -21.4045  -30.2527   26.6025 C   0  0  0  0  0  0  0  0  0  0  0  0
  -29.9603  -19.1115   19.6989 N   0  0  0  0  0  0  0  0  0  0  0  0
  -26.0936  -11.3203   20.5797 N   0  0  0  0  0  0  0  0  0  0  0  0
  -26.3723  -11.8960   19.3978 N   0  0  0  0  0  0  0  0  0  0  0  0
  -22.9255  -31.5180   23.6108 N   0  0  0  0  0  0  0  0  0  0  0  0
  -29.7383  -13.5243   20.1735 N   0  0  0  0  0  0  0  0  0  0  0  0
  -25.4293  -12.4460   17.2956 N   0  0  0  0  0  0  0  0  0  0  0  0
  -22.0227  -10.4308   19.4705 N   0  0  0  0  0  0  0  0  0  0  0  0
  -29.1946  -15.6984   20.9083 N   0  0  0  0  0  0  0  0  0  0  0  0
  -28.8446  -21.1550   20.0652 N   0  0  0  0  0  0  0  0  0  0  0  0
  -25.5916  -33.7466   24.4206 N   0  0  0  0  0  0  0  0  0  0  0  0
  -19.8348  -30.6092   24.6498 N   0  0  0  0  0  0  0  0  0  0  0  0
  -17.4727  -29.8246   22.0283 N   0  3  0  0  0  0  0  0  0  0  0  0
  -22.6452  -11.4243   17.4997 O   0  0  0  0  0  0  0  0  0  0  0  0
  -25.4575  -31.4222   24.3801 O   0  0  0  0  0  0  0  0  0  0  0  0
  -28.9544  -23.7759   19.5026 O   0  0  0  0  0  0  0  0  0  0  0  0
  -27.2087  -25.7775   18.7486 O   0  0  0  0  0  0  0  0  0  0  0  0
  -21.6217  -32.8136   25.0453 O   0  0  0  0  0  0  0  0  0  0  0  0
  -19.8532  -28.8357   23.1561 O   0  0  0  0  0  0  0  0  0  0  0  0
  -31.3250  -15.2050   20.1339 O   0  0  0  0  0  0  0  0  0  0  0  0
  -22.1794   -8.3677   24.6430 O   0  0  0  0  0  0  0  0  0  0  0  0
  -25.4851  -27.6896   19.5065 O   0  0  0  0  0  0  0  0  0  1  0  0
  -19.0989   -3.9635   23.4109 F   0  0  0  0  0  0  0  0  0  0  0  0
  -22.7345   -5.8948   25.7473 F   0  0  0  0  0  0  0  0  0  0  0  0
  -27.1248  -17.2178   22.0395 F   0  0  0  0  0  0  0  0  0  0  0  0
  1  2  1  0  0  0  0
  1  5  2  0  0  0  0
  2  6  2  0  0  0  0
  3  8  2  0  0  0  0
  3 17  1  0  0  0  0
  4  9  1  0  0  0  0
  4 17  2  0  0  0  0
  5 19  1  0  0  0  0
  6 21  1  0  0  0  0
  7 10  2  0  0  0  0
  7 20  1  0  0  0  0
  8 24  1  0  0  0  0
  9 24  2  0  0  0  0
 10 25  1  0  0  0  0
 11 12  2  0  0  0  0
 11 26  1  0  0  0  0
 12 27  1  0  0  0  0
 13 22  1  0  0  0  0
 13 25  2  0  0  0  0
 14 27  2  0  0  0  0
 14 28  1  0  0  0  0
 15 29  2  0  0  0  0
 15 31  1  0  0  0  0
 16 23  2  0  0  0  0
 16 63  1  0  0  0  0
 17 30  1  0  0  0  0
 18 30  1  0  0  0  0
 18 32  2  0  0  0  0
 18 33  1  0  0  0  0
 19 21  2  0  0  0  0
 19 40  1  0  0  0  0
 20 22  2  0  0  0  0
 20 41  1  0  0  0  0
 21 49  1  0  0  0  0
 22 42  1  0  0  0  0
 23 29  1  0  0  0  0
 23 70  1  0  0  0  0
 24 82  1  0  0  0  0
 25 83  1  0  0  0  0
 26 28  2  0  0  0  0
 26 82  1  0  0  0  0
 27 84  1  0  0  0  0
 28 85  1  0  0  0  0
 29 86  1  0  0  0  0
 30 64  2  0  0  0  0
 31 63  2  0  0  0  0
 31 71  1  0  0  0  0
 32 65  1  0  0  0  0
 32 68  1  0  0  0  0
 33 69  1  0  0  0  0
 33 75  2  0  0  0  0
 34 50  1  0  0  0  0
 34 72  1  0  0  0  0
 34 76  2  0  0  0  0
 35 57  1  0  0  0  0
 35 58  1  0  0  0  0
 35 77  2  0  0  0  0
 36 57  1  0  0  0  0
 36 59  1  0  0  0  0
 36 78  2  0  0  0  0
 37 60  1  0  0  0  0
 37 66  1  0  0  0  0
 37 79  2  0  0  0  0
 38 61  1  0  0  0  0
 38 73  1  0  0  0  0
 38 80  2  0  0  0  0
 39 67  1  0  0  0  0
 39 70  1  0  0  0  0
 39 81  2  0  0  0  0
 40 43  1  0  0  0  0
 41 50  1  0  0  0  0
 42 66  1  0  0  0  0
 43 45  1  0  0  0  0
 44 46  1  0  0  0  0
 44 47  1  0  0  0  0
 45 49  1  0  0  0  0
 46 51  1  0  0  0  0
 47 67  1  0  0  0  0
 48 51  1  0  0  0  0
 48 67  1  0  0  0  0
 49 72  1  0  0  0  0
 50 66  1  0  0  0  0
 51 65  1  0  0  0  0
 52 61  1  0  0  0  0
 53 62  1  0  0  0  0
 54 62  1  0  0  0  0
 55 62  1  0  0  0  0
 56 74  1  0  0  0  0
 58 71  1  0  0  0  0
 59 83  1  0  0  0  0
 60 62  1  0  0  0  0
 60 73  1  0  0  0  0
 61 74  1  0  0  0  0
 64 65  1  0  0  0  0
M  CHG  1  74   1
M  ISO  4  39 100  59 101  70 100  83 101
M  END
> <Batch ID>
0161

> <Smiles>
CNC(C)C(=O)NC(C(=O)N1Cc2cc([101O:1][101CH2:1]C(=O)CC(=O)CNc3cc(F)c([100NH:0][100C:0](=O)N4CCCC(n5nc(-c6ccc(Oc7ccc(F)cc7F)cc6)c(C(N)=O)c5N)C4)cn3)ccc2CC1C(=O)NC1CCCc2ccccc21)C(C)(C)C

> <Shape>
0.330

> <Color>
0.094

> <Negative vol penalty>
0.000

$$$$

  -OEChem-04052303533D

 82 90  0     1  0  0  0  0  0999 V2000
  -19.9195  -25.3357   25.1684 C   0  0  0  0  0  0  0  0  0  0  0  0
  -20.8552  -25.1964   24.1483 C   0  0  0  0  0  0  0  0  0  0  0  0
  -23.0337  -10.3761   21.9209 C   0  0  0  0  0  0  0  0  0  0  0  0
  -23.6686  -11.7912   23.7733 C   0  0  0  0  0  0  0  0  0  0  0  0
  -19.0799  -26.4485   25.1954 C   0  0  0  0  0  0  0  0  0  0  0  0
  -20.9510  -26.1693   23.1540 C   0  0  0  0  0  0  0  0  0  0  0  0
  -25.7463  -27.4345   22.1295 C   0  0  0  0  0  0  0  0  0  0  0  0
  -22.2452   -9.6081   22.7777 C   0  0  0  0  0  0  0  0  0  0  0  0
  -22.8801  -11.0232   24.6302 C   0  0  0  0  0  0  0  0  0  0  0  0
  -26.4797  -26.5573   21.3318 C   0  0  0  0  0  0  0  0  0  0  0  0
  -22.7073   -7.1654   25.0677 C   0  0  0  0  0  0  0  0  0  0  0  0
  -22.7957   -5.7777   24.9590 C   0  0  0  0  0  0  0  0  0  0  0  0
  -26.0863  -27.9758   19.4207 C   0  0  0  0  0  0  0  0  0  0  0  0
  -20.4393   -5.6684   24.4371 C   0  0  0  0  0  0  0  0  0  0  0  0
  -29.9551  -19.3082   18.8396 C   0  0  0  0  0  0  0  0  0  0  0  0
  -23.7454  -11.4676   22.4187 C   0  0  0  0  0  0  0  0  0  0  0  0
  -24.1643  -13.3966   20.8028 C   0  0  0  0  0  0  0  0  0  0  0  0
  -19.1720  -27.4403   24.2063 C   0  0  0  0  0  0  0  0  0  0  0  0
  -25.1672  -28.5852   21.5756 C   0  0  0  0  0  0  0  0  0  0  0  0
  -20.1109  -27.2957   23.1671 C   0  0  0  0  0  0  0  0  0  0  0  0
  -25.3482  -28.8673   20.2141 C   0  0  0  0  0  0  0  0  0  0  0  0
  -22.1684   -9.9317   24.1323 C   0  0  0  0  0  0  0  0  0  0  0  0
  -26.6474  -26.8263   19.9766 C   0  0  0  0  0  0  0  0  0  0  0  0
  -21.4849   -7.8048   24.8611 C   0  0  0  0  0  0  0  0  0  0  0  0
  -21.6617   -5.0291   24.6437 C   0  0  0  0  0  0  0  0  0  0  0  0
  -20.3509   -7.0562   24.5458 C   0  0  0  0  0  0  0  0  0  0  0  0
  -24.5606  -12.2609   21.5342 C   0  0  0  0  0  0  0  0  0  0  0  0
  -30.5943  -18.5964   19.8694 C   0  0  0  0  0  0  0  0  0  0  0  0
  -29.6412  -20.5087   19.4196 C   0  0  0  0  0  0  0  0  0  0  0  0
  -25.2951  -13.7795   20.1238 C   0  0  0  0  0  0  0  0  0  0  0  0
  -29.3315  -22.7655   19.3628 C   0  0  0  0  0  0  0  0  0  0  0  0
  -22.8880  -14.0473   20.7426 C   0  0  0  0  0  0  0  0  0  0  0  0
  -28.6767  -23.9973   18.8278 C   0  0  0  0  0  0  0  0  0  0  0  0
  -22.1953  -29.6624   21.2417 C   0  0  0  0  0  0  0  0  0  0  0  0
  -30.8009  -14.7668   20.0975 C   0  0  0  0  0  0  0  0  0  0  0  0
  -23.6969  -32.3163   20.1351 C   0  0  0  0  0  0  0  0  0  0  0  0
  -26.4782  -33.6911   18.7135 C   0  0  0  0  0  0  0  0  0  0  0  0
  -18.2109  -28.6017   24.2511 C   0  0  0  0  0  0  0  0  0  0  0  0
  -24.4015  -29.5353   22.4552 C   0  0  0  0  0  0  0  0  0  0  0  0
  -24.7639  -30.0997   19.5751 C   0  0  0  0  0  0  0  0  0  0  0  0
  -18.6309  -29.7744   23.3687 C   0  0  0  0  0  0  0  0  0  0  0  0
  -29.7081  -11.4140   19.4620 C   0  0  0  0  0  0  0  0  0  0  0  0
  -19.0524  -29.2798   21.9886 C   0  0  0  0  0  0  0  0  0  0  0  0
  -28.2479  -11.4208   19.9125 C   0  0  0  0  0  0  0  0  0  0  0  0
  -30.5678  -12.3172   20.3407 C   0  0  0  0  0  0  0  0  0  0  0  0
  -28.6132  -13.7336   20.8834 C   0  0  0  0  0  0  0  0  0  0  0  0
  -20.2620  -28.3421   22.0843 C   0  0  1  0  0  0  0  0  0  0  0  0
  -23.4226  -30.4109   21.6790 C   0  0  1  0  0  0  0  0  0  0  0  0
  -27.7041  -12.8577   20.0032 C   0  0  2  0  0  0  0  0  0  0  0  0
  -27.3951  -35.8786   17.8940 C   0  0  0  0  0  0  0  0  0  0  0  0
  -21.9557  -32.1079   17.6381 C   0  0  0  0  0  0  0  0  0  0  0  0
  -23.5317  -33.6804   16.4928 C   0  0  0  0  0  0  0  0  0  0  0  0
  -22.2633  -34.4337   18.5043 C   0  0  0  0  0  0  0  0  0  0  0  0
  -28.7114  -33.6146   20.6540 C   0  0  0  0  0  0  0  0  0  0  0  0
  -31.1492  -17.2346   19.8141 C   0  0  0  0  0  0  0  0  0  0  0  0
  -27.9126  -24.8179   19.8302 C   0  0  0  0  0  0  0  0  0  1  0  0
  -30.1511  -16.1238   20.1986 C   0  0  0  0  0  0  0  0  0  0  0  0
  -24.1667  -32.7930   18.7820 C   0  0  1  0  0  0  0  0  0  0  0  0
  -27.2885  -34.9235   19.0727 C   0  0  2  0  0  0  0  0  0  0  0  0
  -22.9888  -33.2294   17.8656 C   0  0  0  0  0  0  0  0  0  0  0  0
  -25.8429  -11.9430   21.3382 N   0  0  0  0  0  0  0  0  0  0  0  0
  -30.6710  -19.3015   21.0015 N   0  0  0  0  0  0  0  0  0  0  0  0
  -28.9899  -21.6258   18.8702 N   0  0  0  0  0  0  0  0  0  0  0  0
  -26.2622  -12.8846   20.4758 N   0  0  0  0  0  0  0  0  0  0  0  0
  -24.0182  -30.9946   20.4754 N   0  0  0  0  0  0  0  0  0  0  0  0
  -30.0058  -13.6667   20.4193 N   0  0  0  0  0  0  0  0  0  0  0  0
  -25.5466  -14.7910   19.2659 N   0  0  0  0  0  0  0  0  0  0  0  0
  -21.8342  -13.5229   21.5033 N   0  0  0  0  0  0  0  0  0  0  0  0
  -21.4771  -29.1031   22.2813 N   0  0  0  0  0  0  0  0  0  0  0  0
  -25.1464  -33.8435   19.0368 N   0  0  0  0  0  0  0  0  0  0  0  0
  -28.6657  -34.5348   19.4886 N   0  3  0  0  0  0  0  0  0  0  0  0
  -22.6838  -15.0538   20.0224 O   0  0  0  0  0  0  0  0  0  0  0  0
  -28.8141  -24.2565   17.6427 O   0  0  0  0  0  0  0  0  0  0  0  0
  -21.9196  -29.5983   20.0494 O   0  0  0  0  0  0  0  0  0  0  0  0
  -31.9793  -14.6887   19.7402 O   0  0  0  0  0  0  0  0  0  0  0  0
  -23.0741  -33.0904   20.8663 O   0  0  0  0  0  0  0  0  0  0  0  0
  -26.9761  -32.6945   18.1945 O   0  0  0  0  0  0  0  0  0  0  0  0
  -30.0634  -20.5169   20.7099 O   0  0  0  0  0  0  0  0  0  0  0  0
  -21.3989   -9.1827   24.9686 O   0  0  0  0  0  0  0  0  0  0  0  0
  -27.3622  -25.9714   19.1956 O   0  0  0  0  0  0  0  0  0  1  0  0
  -21.7471   -3.6966   24.5378 F   0  0  0  0  0  0  0  0  0  0  0  0
  -19.1740   -7.6649   24.3451 F   0  0  0  0  0  0  0  0  0  0  0  0
  1  2  1  0  0  0  0
  1  5  2  0  0  0  0
  2  6  2  0  0  0  0
  3  8  2  0  0  0  0
  3 16  1  0  0  0  0
  4  9  1  0  0  0  0
  4 16  2  0  0  0  0
  5 18  1  0  0  0  0
  6 20  1  0  0  0  0
  7 10  2  0  0  0  0
  7 19  1  0  0  0  0
  8 22  1  0  0  0  0
  9 22  2  0  0  0  0
 10 23  1  0  0  0  0
 11 12  2  0  0  0  0
 11 24  1  0  0  0  0
 12 25  1  0  0  0  0
 13 21  1  0  0  0  0
 13 23  2  0  0  0  0
 14 25  2  0  0  0  0
 14 26  1  0  0  0  0
 15 28  1  0  0  0  0
 15 29  2  0  0  0  0
 16 27  1  0  0  0  0
 17 27  1  0  0  0  0
 17 30  2  0  0  0  0
 17 32  1  0  0  0  0
 18 20  2  0  0  0  0
 18 38  1  0  0  0  0
 19 21  2  0  0  0  0
 19 39  1  0  0  0  0
 20 47  1  0  0  0  0
 21 40  1  0  0  0  0
 22 79  1  0  0  0  0
 23 80  1  0  0  0  0
 24 26  2  0  0  0  0
 24 79  1  0  0  0  0
 25 81  1  0  0  0  0
 26 82  1  0  0  0  0
 27 61  2  0  0  0  0
 28 55  1  0  0  0  0
 28 62  2  0  0  0  0
 29 63  1  0  0  0  0
 29 78  1  0  0  0  0
 30 64  1  0  0  0  0
 30 67  1  0  0  0  0
 31 33  1  0  0  0  0
 31 63  2  0  0  0  0
 32 68  1  0  0  0  0
 32 72  2  0  0  0  0
 33 56  1  0  0  0  0
 33 73  2  0  0  0  0
 34 48  1  0  0  0  0
 34 69  1  0  0  0  0
 34 74  2  0  0  0  0
 35 57  1  0  0  0  0
 35 66  1  0  0  0  0
 35 75  2  0  0  0  0
 36 58  1  0  0  0  0
 36 65  1  0  0  0  0
 36 76  2  0  0  0  0
 37 59  1  0  0  0  0
 37 70  1  0  0  0  0
 37 77  2  0  0  0  0
 38 41  1  0  0  0  0
 39 48  1  0  0  0  0
 40 65  1  0  0  0  0
 41 43  1  0  0  0  0
 42 44  1  0  0  0  0
 42 45  1  0  0  0  0
 43 47  1  0  0  0  0
 44 49  1  0  0  0  0
 45 66  1  0  0  0  0
 46 49  1  0  0  0  0
 46 66  1  0  0  0  0
 47 69  1  0  0  0  0
 48 65  1  0  0  0  0
 49 64  1  0  0  0  0
 50 59  1  0  0  0  0
 51 60  1  0  0  0  0
 52 60  1  0  0  0  0
 53 60  1  0  0  0  0
 54 71  1  0  0  0  0
 55 57  1  0  0  0  0
 56 80  1  0  0  0  0
 58 60  1  0  0  0  0
 58 70  1  0  0  0  0
 59 71  1  0  0  0  0
 61 64  1  0  0  0  0
 62 78  1  0  0  0  0
M  CHG  1  71   1
M  ISO  4  35 100  56 101  57 100  80 101
M  END
> <Batch ID>
0161

> <Smiles>
CNC(C)C(=O)NC(C(=O)N1Cc2cc([101O:1][101CH2:1]C(=O)CNc3cc(C=[100CH:0][100C:0](=O)N4CCCC(n5nc(-c6ccc(Oc7ccc(F)cc7F)cc6)c(C(N)=O)c5N)C4)no3)ccc2CC1C(=O)NC1CCCc2ccccc21)C(C)(C)C

> <Shape>
0.282

> <Color>
0.155

> <Negative vol penalty>
0.000

$$$$

  -OEChem-04052303533D

 86 94  0     1  0  0  0  0  0999 V2000
  -27.3794  -31.3205   27.7901 C   0  0  0  0  0  0  0  0  0  0  0  0
  -27.5066  -30.2917   26.8623 C   0  0  0  0  0  0  0  0  0  0  0  0
  -22.8836  -10.2599   21.0337 C   0  0  0  0  0  0  0  0  0  0  0  0
  -23.7277  -10.8404   23.2217 C   0  0  0  0  0  0  0  0  0  0  0  0
  -26.1362  -31.9139   28.0053 C   0  0  0  0  0  0  0  0  0  0  0  0
  -26.3903  -29.8549   26.1499 C   0  0  0  0  0  0  0  0  0  0  0  0
  -27.3598  -29.2142   21.2210 C   0  0  0  0  0  0  0  0  0  0  0  0
  -22.0827   -9.2711   21.6049 C   0  0  0  0  0  0  0  0  0  0  0  0
  -22.9268   -9.8515   23.7930 C   0  0  0  0  0  0  0  0  0  0  0  0
  -28.0404  -28.0549   20.8514 C   0  0  0  0  0  0  0  0  0  0  0  0
  -19.6819   -9.4664   24.6549 C   0  0  0  0  0  0  0  0  0  0  0  0
  -18.9682   -9.7977   25.8066 C   0  0  0  0  0  0  0  0  0  0  0  0
  -31.9451  -19.5868   20.9653 C   0  0  0  0  0  0  0  0  0  0  0  0
  -30.1123  -18.0985   21.4238 C   0  0  0  0  0  0  0  0  0  0  0  0
  -25.9507  -27.0454   20.1930 C   0  0  0  0  0  0  0  0  0  0  0  0
  -20.1196   -8.0555   27.0215 C   0  0  0  0  0  0  0  0  0  0  0  0
  -23.7061  -11.0446   21.8421 C   0  0  0  0  0  0  0  0  0  0  0  0
  -30.6752  -19.3683   21.4877 C   0  0  0  0  0  0  0  0  0  0  0  0
  -24.1918  -13.4127   21.0274 C   0  0  0  0  0  0  0  0  0  0  0  0
  -25.0060  -31.4907   27.2882 C   0  0  0  0  0  0  0  0  0  0  0  0
  -25.9660  -29.2940   21.0893 C   0  0  0  0  0  0  0  0  0  0  0  0
  -25.1305  -30.4423   26.3567 C   0  0  0  0  0  0  0  0  0  0  0  0
  -25.2552  -28.2078   20.5593 C   0  0  0  0  0  0  0  0  0  0  0  0
  -22.1043   -9.0669   22.9846 C   0  0  0  0  0  0  0  0  0  0  0  0
  -27.3355  -26.9692   20.3400 C   0  0  0  0  0  0  0  0  0  0  0  0
  -20.6144   -8.4295   24.6865 C   0  0  0  0  0  0  0  0  0  0  0  0
  -19.1870   -9.0924   26.9898 C   0  0  0  0  0  0  0  0  0  0  0  0
  -20.8333   -7.7241   25.8697 C   0  0  0  0  0  0  0  0  0  0  0  0
  -24.5341  -12.0659   21.2525 C   0  0  0  0  0  0  0  0  0  0  0  0
  -32.6054  -18.5109   20.3942 C   0  0  0  0  0  0  0  0  0  0  0  0
  -30.8546  -17.0893   20.8320 C   0  0  0  0  0  0  0  0  0  0  0  0
  -25.3120  -13.9599   20.4510 C   0  0  0  0  0  0  0  0  0  0  0  0
  -28.1722  -24.8646   20.9241 C   0  0  0  0  0  0  0  0  0  1  0  0
  -29.9270  -20.4809   22.1078 C   0  0  0  0  0  0  0  0  0  0  0  0
  -22.9706  -14.1071   21.3138 C   0  0  0  0  0  0  0  0  0  0  0  0
  -28.8066  -23.7125   20.6799 C   0  0  0  0  0  0  0  0  0  0  0  0
  -28.9380  -22.7316   21.7830 C   0  0  0  0  0  0  0  0  0  0  0  0
  -23.5416  -29.6932   23.1060 C   0  0  0  0  0  0  0  0  0  0  0  0
  -21.8011  -29.8397   20.3726 C   0  0  0  0  0  0  0  0  0  0  0  0
  -21.5225  -29.0322   17.0685 C   0  0  0  0  0  0  0  0  0  0  0  0
  -30.8331  -14.6446   20.2242 C   0  0  0  0  0  0  0  0  0  0  0  0
  -23.6738  -32.1303   27.5894 C   0  0  0  0  0  0  0  0  0  0  0  0
  -25.2498  -30.5614   21.4676 C   0  0  0  0  0  0  0  0  0  0  0  0
  -23.7604  -28.2502   20.3790 C   0  0  0  0  0  0  0  0  0  0  0  0
  -22.6149  -31.8631   26.5227 C   0  0  0  0  0  0  0  0  0  0  0  0
  -29.4904  -11.7573   18.6312 C   0  0  0  0  0  0  0  0  0  0  0  0
  -22.6014  -30.3860   26.1421 C   0  0  0  0  0  0  0  0  0  0  0  0
  -28.0531  -11.6910   19.1527 C   0  0  0  0  0  0  0  0  0  0  0  0
  -30.4617  -12.2429   19.7057 C   0  0  0  0  0  0  0  0  0  0  0  0
  -28.6538  -13.4424   20.8728 C   0  0  0  0  0  0  0  0  0  0  0  0
  -23.9479  -29.9575   25.5465 C   0  0  1  0  0  0  0  0  0  0  0  0
  -23.7706  -30.3441   21.7712 C   0  0  1  0  0  0  0  0  0  0  0  0
  -27.6291  -13.0205   19.8071 C   0  0  2  0  0  0  0  0  0  0  0  0
  -19.9695  -29.2561   15.1100 C   0  0  0  0  0  0  0  0  0  0  0  0
  -20.0225  -27.6503   21.5357 C   0  0  0  0  0  0  0  0  0  0  0  0
  -19.1187  -27.2584   19.2340 C   0  0  0  0  0  0  0  0  0  0  0  0
  -18.7911  -29.4698   20.3409 C   0  0  0  0  0  0  0  0  0  0  0  0
  -23.5193  -30.5651   15.5123 C   0  0  0  0  0  0  0  0  0  0  0  0
  -21.0895  -28.8316   19.5030 C   0  0  1  0  0  0  0  0  0  0  0  0
  -21.1465  -29.8650   15.8562 C   0  0  2  0  0  0  0  0  0  0  0  0
  -19.7834  -28.3007   20.1585 C   0  0  0  0  0  0  0  0  0  0  0  0
  -25.7745  -11.7751   20.8516 N   0  0  0  0  0  0  0  0  0  0  0  0
  -32.0910  -17.2633   20.3138 N   0  0  0  0  0  0  0  0  0  0  0  0
  -26.2216  -12.9469   20.3688 N   0  0  0  0  0  0  0  0  0  0  0  0
  -23.1047  -29.5093   20.7693 N   0  0  0  0  0  0  0  0  0  0  0  0
  -29.9977  -13.5088   20.2777 N   0  0  0  0  0  0  0  0  0  0  0  0
  -33.8985  -18.7490   19.8662 N   0  0  0  0  0  0  0  0  0  0  0  0
  -25.5979  -15.2039   20.0115 N   0  0  0  0  0  0  0  0  0  0  0  0
  -21.9200  -13.3942   21.9074 N   0  0  0  0  0  0  0  0  0  0  0  0
  -30.2726  -15.7988   20.7702 N   0  0  0  0  0  0  0  0  0  0  0  0
  -29.6445  -21.5511   21.3518 N   0  0  0  0  0  0  0  0  0  0  0  0
  -24.0578  -30.4024   24.1737 N   0  0  0  0  0  0  0  0  0  0  0  0
  -20.8895  -29.4769   18.2099 N   0  0  0  0  0  0  0  0  0  0  0  0
  -29.5736  -20.3543   23.3865 N   0  3  0  0  0  0  0  0  0  0  0  0
  -22.2993  -29.9620   14.9167 N   0  3  0  0  0  0  0  0  0  0  0  0
  -22.8098  -15.3198   21.0361 O   0  0  0  0  0  0  0  0  0  0  0  0
  -28.5166  -22.8692   22.9197 O   0  0  0  0  0  0  0  0  0  0  0  0
  -22.9398  -28.6272   23.1631 O   0  0  0  0  0  0  0  0  0  0  0  0
  -21.2244  -30.8852   20.6824 O   0  0  0  0  0  0  0  0  0  0  0  0
  -22.2971  -28.0799   17.0082 O   0  0  0  0  0  0  0  0  0  0  0  0
  -31.9520  -14.6034   19.7061 O   0  0  0  0  0  0  0  0  0  0  0  0
  -29.3435  -23.3957   19.4515 O   0  0  0  0  0  0  0  0  0  0  0  0
  -21.3228   -8.1022   23.5424 O   0  0  0  0  0  0  0  0  0  0  0  0
  -27.9972  -25.8362   19.9791 O   0  0  0  0  0  0  0  0  0  1  0  0
  -18.5027   -9.4117   28.0961 F   0  0  0  0  0  0  0  0  0  0  0  0
  -21.7287   -6.7277   25.9065 F   0  0  0  0  0  0  0  0  0  0  0  0
  1  2  1  0  0  0  0
  1  5  2  0  0  0  0
  2  6  2  0  0  0  0
  3  8  2  0  0  0  0
  3 17  1  0  0  0  0
  4  9  1  0  0  0  0
  4 17  2  0  0  0  0
  5 20  1  0  0  0  0
  6 22  1  0  0  0  0
  7 10  2  0  0  0  0
  7 21  1  0  0  0  0
  8 24  1  0  0  0  0
  9 24  2  0  0  0  0
 10 25  1  0  0  0  0
 11 12  2  0  0  0  0
 11 26  1  0  0  0  0
 12 27  1  0  0  0  0
 13 18  1  0  0  0  0
 13 30  2  0  0  0  0
 14 18  2  0  0  0  0
 14 31  1  0  0  0  0
 15 23  1  0  0  0  0
 15 25  2  0  0  0  0
 16 27  2  0  0  0  0
 16 28  1  0  0  0  0
 17 29  1  0  0  0  0
 18 34  1  0  0  0  0
 19 29  1  0  0  0  0
 19 32  2  0  0  0  0
 19 35  1  0  0  0  0
 20 22  2  0  0  0  0
 20 42  1  0  0  0  0
 21 23  2  0  0  0  0
 21 43  1  0  0  0  0
 22 51  1  0  0  0  0
 23 44  1  0  0  0  0
 24 83  1  0  0  0  0
 25 84  1  0  0  0  0
 26 28  2  0  0  0  0
 26 83  1  0  0  0  0
 27 85  1  0  0  0  0
 28 86  1  0  0  0  0
 29 62  2  0  0  0  0
 30 63  1  0  0  0  0
 30 67  1  0  0  0  0
 31 63  2  0  0  0  0
 31 70  1  0  0  0  0
 32 64  1  0  0  0  0
 32 68  1  0  0  0  0
 33 36  2  0  0  0  0
 33 84  1  0  0  0  0
 34 71  1  0  0  0  0
 34 74  2  0  0  0  0
 35 69  1  0  0  0  0
 35 76  2  0  0  0  0
 36 37  1  0  0  0  0
 36 82  1  0  0  0  0
 37 71  1  0  0  0  0
 37 77  2  0  0  0  0
 38 52  1  0  0  0  0
 38 72  1  0  0  0  0
 38 78  2  0  0  0  0
 39 59  1  0  0  0  0
 39 65  1  0  0  0  0
 39 79  2  0  0  0  0
 40 60  1  0  0  0  0
 40 73  1  0  0  0  0
 40 80  2  0  0  0  0
 41 66  1  0  0  0  0
 41 70  1  0  0  0  0
 41 81  2  0  0  0  0
 42 45  1  0  0  0  0
 43 52  1  0  0  0  0
 44 65  1  0  0  0  0
 45 47  1  0  0  0  0
 46 48  1  0  0  0  0
 46 49  1  0  0  0  0
 47 51  1  0  0  0  0
 48 53  1  0  0  0  0
 49 66  1  0  0  0  0
 50 53  1  0  0  0  0
 50 66  1  0  0  0  0
 51 72  1  0  0  0  0
 52 65  1  0  0  0  0
 53 64  1  0  0  0  0
 54 60  1  0  0  0  0
 55 61  1  0  0  0  0
 56 61  1  0  0  0  0
 57 61  1  0  0  0  0
 58 75  1  0  0  0  0
 59 61  1  0  0  0  0
 59 73  1  0  0  0  0
 60 75  1  0  0  0  0
 62 64  1  0  0  0  0
M  CHG  2  74   1  75   1
M  ISO  4  33 101  41 100  70 100  84 101
M  END
> <Batch ID>
0161

> <Smiles>
CNC(C)C(=O)NC(C(=O)N1Cc2cc([101O:1][101CH2:1]C(=O)C(=O)NC(=N)c3cc(N)nc([100NH:0][100C:0](=O)N4CCCC(n5nc(-c6ccc(Oc7ccc(F)cc7F)cc6)c(C(N)=O)c5N)C4)c3)ccc2CC1C(=O)NC1CCCc2ccccc21)C(C)(C)C

> <Shape>
0.291

> <Color>
0.166

> <Negative vol penalty>
0.000

$$$$

  -OEChem-04052303533D

 83 91  0     1  0  0  0  0  0999 V2000
  -26.3611  -24.2121   16.9638 C   0  0  0  0  0  0  0  0  0  0  0  0
  -25.2414  -24.7359   17.6021 C   0  0  0  0  0  0  0  0  0  0  0  0
  -28.2554  -15.8555   22.1542 C   0  0  0  0  0  0  0  0  0  0  0  0
  -26.3329  -16.3128   20.7644 C   0  0  0  0  0  0  0  0  0  0  0  0
  -27.6273  -24.3944   17.5183 C   0  0  0  0  0  0  0  0  0  0  0  0
  -25.3872  -25.4414   18.7960 C   0  0  0  0  0  0  0  0  0  0  0  0
  -22.6456  -29.6983   18.8841 C   0  0  0  0  0  0  0  0  0  0  0  0
  -28.2405  -14.5246   21.7370 C   0  0  0  0  0  0  0  0  0  0  0  0
  -26.3179  -14.9819   20.3471 C   0  0  0  0  0  0  0  0  0  0  0  0
  -21.2800  -29.5711   19.1344 C   0  0  0  0  0  0  0  0  0  0  0  0
  -28.0034  -13.0423   18.1522 C   0  0  0  0  0  0  0  0  0  0  0  0
  -27.8311  -12.7935   16.7906 C   0  0  0  0  0  0  0  0  0  0  0  0
  -20.9363  -25.7737   23.2992 C   0  0  0  0  0  0  0  0  0  0  0  0
  -21.5414  -24.9369   24.2670 C   0  0  0  0  0  0  0  0  0  0  0  0
  -21.6491  -30.1994   21.4340 C   0  0  0  0  0  0  0  0  0  0  0  0
  -25.8220  -11.5415   17.2736 C   0  0  0  0  0  0  0  0  0  0  0  0
  -27.3016  -16.7496   21.6679 C   0  0  0  0  0  0  0  0  0  0  0  0
  -28.0045  -19.1961   21.4993 C   0  0  0  0  0  0  0  0  0  0  0  0
  -27.7896  -25.1108   18.7146 C   0  0  0  0  0  0  0  0  0  0  0  0
  -23.5262  -30.0671   19.9113 C   0  0  0  0  0  0  0  0  0  0  0  0
  -26.6566  -25.6323   19.3678 C   0  0  0  0  0  0  0  0  0  0  0  0
  -23.0251  -30.3331   21.1936 C   0  0  0  0  0  0  0  0  0  0  0  0
  -27.2717  -14.0878   20.8335 C   0  0  0  0  0  0  0  0  0  0  0  0
  -20.7819  -29.8188   20.4102 C   0  0  0  0  0  0  0  0  0  0  0  0
  -27.0850  -12.5407   19.0745 C   0  0  0  0  0  0  0  0  0  0  0  0
  -26.7405  -12.0431   16.3513 C   0  0  0  0  0  0  0  0  0  0  0  0
  -25.9943  -11.7903   18.6352 C   0  0  0  0  0  0  0  0  0  0  0  0
  -27.3162  -18.1244   22.0990 C   0  0  0  0  0  0  0  0  0  0  0  0
  -21.3209  -25.2809   22.0739 C   0  0  0  0  0  0  0  0  0  0  0  0
  -27.6965  -20.2825   22.2812 C   0  0  0  0  0  0  0  0  0  0  0  0
  -22.2525  -23.9922   23.5642 C   0  0  0  0  0  0  0  0  0  0  0  0
  -28.8467  -19.2084   20.3390 C   0  0  0  0  0  0  0  0  0  0  0  0
  -20.9217  -25.8474   20.7701 C   0  0  0  0  0  0  0  0  0  0  0  0
  -26.0092  -28.6894   21.3397 C   0  0  0  0  0  0  0  0  0  0  0  0
  -26.2627  -31.5686   22.8120 C   0  0  0  0  0  0  0  0  0  0  0  0
  -24.7386  -34.4499   23.8230 C   0  0  0  0  0  0  0  0  0  0  0  0
  -23.3164  -22.5195   25.3094 C   0  0  0  0  0  0  0  0  0  0  0  0
  -29.1732  -25.2414   19.3005 C   0  0  0  0  0  0  0  0  0  0  0  0
  -24.9930  -30.2260   19.6186 C   0  0  0  0  0  0  0  0  0  0  0  0
  -23.9257  -30.7517   22.3259 C   0  0  0  0  0  0  0  0  0  0  0  0
  -29.2812  -26.3228   20.3725 C   0  0  0  0  0  0  0  0  0  0  0  0
  -26.0503  -20.8920   26.9074 C   0  0  0  0  0  0  0  0  0  0  0  0
  -28.1215  -26.2155   21.3577 C   0  0  0  0  0  0  0  0  0  0  0  0
  -26.7240  -20.1166   25.7729 C   0  0  0  0  0  0  0  0  0  0  0  0
  -24.5300  -20.9071   26.7593 C   0  0  0  0  0  0  0  0  0  0  0  0
  -24.7113  -20.5974   24.3220 C   0  0  0  0  0  0  0  0  0  0  0  0
  -26.7765  -26.4248   20.6514 C   0  0  1  0  0  0  0  0  0  0  0  0
  -25.8670  -30.1073   20.8633 C   0  0  1  0  0  0  0  0  0  0  0  0
  -26.2471  -20.6095   24.3926 C   0  0  2  0  0  0  0  0  0  0  0  0
  -25.1947  -36.5988   25.0361 C   0  0  0  0  0  0  0  0  0  0  0  0
  -26.2321  -30.0715   25.4705 C   0  0  0  0  0  0  0  0  0  0  0  0
  -25.7329  -32.2447   26.6090 C   0  0  0  0  0  0  0  0  0  0  0  0
  -27.8699  -31.9579   25.3544 C   0  0  0  0  0  0  0  0  0  0  0  0
  -18.2153  -29.4535   18.6268 C   0  0  0  0  0  0  0  0  0  0  0  0
  -17.5513  -28.2396   20.7161 C   0  0  0  0  0  0  0  0  0  0  0  0
  -24.0374  -36.0735   21.4499 C   0  0  0  0  0  0  0  0  0  0  0  0
  -19.6607  -27.5727   19.5331 C   0  0  0  0  0  0  0  0  0  0  0  0
  -25.7008  -32.1772   24.0741 C   0  0  1  0  0  0  0  0  0  0  0  0
  -25.1435  -35.9063   23.6831 C   0  0  2  0  0  0  0  0  0  0  0  0
  -26.3669  -31.6031   25.3564 C   0  0  0  0  0  0  0  0  0  0  0  0
  -18.7304  -28.7402   19.8776 C   0  0  0  0  0  0  0  0  0  1  0  0
  -26.6234  -18.4962   23.1787 N   0  0  0  0  0  0  0  0  0  0  0  0
  -26.8749  -19.8137   23.2637 N   0  0  0  0  0  0  0  0  0  0  0  0
  -25.3530  -30.8871   21.9912 N   0  0  0  0  0  0  0  0  0  0  0  0
  -24.1522  -21.3891   25.4290 N   0  0  0  0  0  0  0  0  0  0  0  0
  -28.0513  -21.5834   22.2174 N   0  0  0  0  0  0  0  0  0  0  0  0
  -29.0570  -18.0044   19.6532 N   0  0  0  0  0  0  0  0  0  0  0  0
  -21.3758  -25.2585   19.6637 N   0  0  0  0  0  0  0  0  0  0  0  0
  -23.0518  -22.9046   23.9955 N   0  0  0  0  0  0  0  0  0  0  0  0
  -26.5508  -27.8322   20.4009 N   0  0  0  0  0  0  0  0  0  0  0  0
  -25.8365  -33.6222   23.9261 N   0  0  0  0  0  0  0  0  0  0  0  0
  -20.1271  -26.9234   20.7624 N   0  3  0  0  0  0  0  0  0  0  0  0
  -24.1711  -36.6337   22.8193 N   0  3  0  0  0  0  0  0  0  0  0  0
  -29.4097  -20.2530   19.9324 O   0  0  0  0  0  0  0  0  0  0  0  0
  -25.6552  -28.3951   22.4754 O   0  0  0  0  0  0  0  0  0  0  0  0
  -27.4632  -31.6995   22.5600 O   0  0  0  0  0  0  0  0  0  0  0  0
  -23.5656  -34.0837   23.8427 O   0  0  0  0  0  0  0  0  0  0  0  0
  -22.8905  -23.1193   26.2998 O   0  0  0  0  0  0  0  0  0  0  0  0
  -22.1233  -24.1949   22.2267 O   0  0  0  0  0  0  0  0  0  0  0  0
  -27.2570  -12.7892   20.4260 O   0  0  0  0  0  0  0  0  0  0  0  0
  -19.4495  -29.6947   20.6574 O   0  0  0  0  0  0  0  0  0  1  0  0
  -26.5743  -11.8056   15.0435 F   0  0  0  0  0  0  0  0  0  0  0  0
  -25.1081  -11.3068   19.5164 F   0  0  0  0  0  0  0  0  0  0  0  0
  1  2  1  0  0  0  0
  1  5  2  0  0  0  0
  2  6  2  0  0  0  0
  3  8  2  0  0  0  0
  3 17  1  0  0  0  0
  4  9  1  0  0  0  0
  4 17  2  0  0  0  0
  5 19  1  0  0  0  0
  6 21  1  0  0  0  0
  7 10  2  0  0  0  0
  7 20  1  0  0  0  0
  8 23  1  0  0  0  0
  9 23  2  0  0  0  0
 10 24  1  0  0  0  0
 11 12  2  0  0  0  0
 11 25  1  0  0  0  0
 12 26  1  0  0  0  0
 13 14  1  0  0  0  0
 13 29  2  0  0  0  0
 14 31  2  0  0  0  0
 15 22  1  0  0  0  0
 15 24  2  0  0  0  0
 16 26  2  0  0  0  0
 16 27  1  0  0  0  0
 17 28  1  0  0  0  0
 18 28  1  0  0  0  0
 18 30  2  0  0  0  0
 18 32  1  0  0  0  0
 19 21  2  0  0  0  0
 19 38  1  0  0  0  0
 20 22  2  0  0  0  0
 20 39  1  0  0  0  0
 21 47  1  0  0  0  0
 22 40  1  0  0  0  0
 23 80  1  0  0  0  0
 24 81  1  0  0  0  0
 25 27  2  0  0  0  0
 25 80  1  0  0  0  0
 26 82  1  0  0  0  0
 27 83  1  0  0  0  0
 28 62  2  0  0  0  0
 29 33  1  0  0  0  0
 29 79  1  0  0  0  0
 30 63  1  0  0  0  0
 30 66  1  0  0  0  0
 31 69  1  0  0  0  0
 31 79  1  0  0  0  0
 32 67  1  0  0  0  0
 32 74  2  0  0  0  0
 33 68  1  0  0  0  0
 33 72  2  0  0  0  0
 34 48  1  0  0  0  0
 34 70  1  0  0  0  0
 34 75  2  0  0  0  0
 35 58  1  0  0  0  0
 35 64  1  0  0  0  0
 35 76  2  0  0  0  0
 36 59  1  0  0  0  0
 36 71  1  0  0  0  0
 36 77  2  0  0  0  0
 37 65  1  0  0  0  0
 37 69  1  0  0  0  0
 37 78  2  0  0  0  0
 38 41  1  0  0  0  0
 39 48  1  0  0  0  0
 40 64  1  0  0  0  0
 41 43  1  0  0  0  0
 42 44  1  0  0  0  0
 42 45  1  0  0  0  0
 43 47  1  0  0  0  0
 44 49  1  0  0  0  0
 45 65  1  0  0  0  0
 46 49  1  0  0  0  0
 46 65  1  0  0  0  0
 47 70  1  0  0  0  0
 48 64  1  0  0  0  0
 49 63  1  0  0  0  0
 50 59  1  0  0  0  0
 51 60  1  0  0  0  0
 52 60  1  0  0  0  0
 53 60  1  0  0  0  0
 54 61  1  0  0  0  0
 55 61  1  0  0  0  0
 56 73  1  0  0  0  0
 57 61  1  0  0  0  0
 57 72  1  0  0  0  0
 58 60  1  0  0  0  0
 58 71  1  0  0  0  0
 59 73  1  0  0  0  0
 61 81  1  0  0  0  0
 62 63  1  0  0  0  0
M  CHG  2  72   1  73   1
M  ISO  4  37 100  61 101  69 100  81 101
M  END
> <Batch ID>
0161

> <Smiles>
CNC(C)C(=O)NC(C(=O)N1Cc2cc([101O:1][101C:1](C)(C)CNC(=N)c3ccc([100NH:0][100C:0](=O)N4CCCC(n5nc(-c6ccc(Oc7ccc(F)cc7F)cc6)c(C(N)=O)c5N)C4)o3)ccc2CC1C(=O)NC1CCCc2ccccc21)C(C)(C)C

> <Shape>
0.263

> <Color>
0.065

> <Negative vol penalty>
0.000

$$$$

  -OEChem-04052303533D

 84 92  0     1  0  0  0  0  0999 V2000
  -27.7305  -23.4690   18.3433 C   0  0  0  0  0  0  0  0  0  0  0  0
  -26.5566  -23.8608   18.9788 C   0  0  0  0  0  0  0  0  0  0  0  0
  -26.0154  -13.6532   19.5340 C   0  0  0  0  0  0  0  0  0  0  0  0
  -24.6847  -13.6546   21.5505 C   0  0  0  0  0  0  0  0  0  0  0  0
  -28.9534  -23.9999   18.7513 C   0  0  0  0  0  0  0  0  0  0  0  0
  -26.6051  -24.7832   20.0235 C   0  0  0  0  0  0  0  0  0  0  0  0
  -23.0237  -28.3428   19.6403 C   0  0  0  0  0  0  0  0  0  0  0  0
  -26.0471  -12.2589   19.5559 C   0  0  0  0  0  0  0  0  0  0  0  0
  -24.7164  -12.2603   21.5724 C   0  0  0  0  0  0  0  0  0  0  0  0
  -21.7305  -27.9887   20.0226 C   0  0  0  0  0  0  0  0  0  0  0  0
  -23.1479   -9.7099   20.0052 C   0  0  0  0  0  0  0  0  0  0  0  0
  -21.9518   -9.0400   20.2628 C   0  0  0  0  0  0  0  0  0  0  0  0
  -22.0665  -29.0797   22.1477 C   0  0  0  0  0  0  0  0  0  0  0  0
  -22.9432   -8.0212   22.2163 C   0  0  0  0  0  0  0  0  0  0  0  0
  -25.3342  -14.3511   20.5314 C   0  0  0  0  0  0  0  0  0  0  0  0
  -24.3462  -16.6106   19.8789 C   0  0  0  0  0  0  0  0  0  0  0  0
  -29.0159  -24.9365   19.7951 C   0  0  0  0  0  0  0  0  0  0  0  0
  -23.8532  -29.0598   20.5145 C   0  0  0  0  0  0  0  0  0  0  0  0
  -27.8302  -25.3261   20.4468 C   0  0  0  0  0  0  0  0  0  0  0  0
  -23.3689  -29.4439   21.7731 C   0  0  0  0  0  0  0  0  0  0  0  0
  -25.3976  -11.5624   20.5751 C   0  0  0  0  0  0  0  0  0  0  0  0
  -21.2528  -28.3546   21.2775 C   0  0  0  0  0  0  0  0  0  0  0  0
  -24.2416   -9.5354   20.8532 C   0  0  0  0  0  0  0  0  0  0  0  0
  -21.8495   -8.1957   21.3683 C   0  0  0  0  0  0  0  0  0  0  0  0
  -24.1392   -8.6911   21.9587 C   0  0  0  0  0  0  0  0  0  0  0  0
  -25.3016  -15.7914   20.5096 C   0  0  0  0  0  0  0  0  0  0  0  0
  -24.0853  -25.2551   24.2017 C   0  0  0  0  0  0  0  0  0  0  0  0
  -24.7591  -17.8919   20.1514 C   0  0  0  0  0  0  0  0  0  0  0  0
  -22.8414  -24.8034   23.8137 C   0  0  0  0  0  0  0  0  0  0  0  0
  -24.6273  -23.1912   23.6952 C   0  0  0  0  0  0  0  0  0  0  0  0
  -23.1890  -16.2460   19.1150 C   0  0  0  0  0  0  0  0  0  0  0  0
  -19.2560  -25.8401   23.3909 C   0  0  0  0  0  0  0  0  0  0  0  0
  -20.3909  -24.8637   23.3320 C   0  0  0  0  0  0  0  0  0  0  0  0
  -26.6391  -28.4912   21.9355 C   0  0  0  0  0  0  0  0  0  0  0  0
  -26.3410  -31.5781   22.8865 C   0  0  0  0  0  0  0  0  0  0  0  0
  -24.2860  -34.2247   23.5339 C   0  0  0  0  0  0  0  0  0  0  0  0
  -26.6870  -21.7408   23.6831 C   0  0  0  0  0  0  0  0  0  0  0  0
  -30.3660  -25.4470   20.2325 C   0  0  0  0  0  0  0  0  0  0  0  0
  -25.2362  -29.4572   20.0768 C   0  0  0  0  0  0  0  0  0  0  0  0
  -24.2124  -30.2316   22.7408 C   0  0  0  0  0  0  0  0  0  0  0  0
  -30.2914  -26.7017   21.0987 C   0  0  0  0  0  0  0  0  0  0  0  0
  -29.0849  -19.6050   22.1450 C   0  0  0  0  0  0  0  0  0  0  0  0
  -29.2302  -26.5400   22.1824 C   0  0  0  0  0  0  0  0  0  0  0  0
  -28.2358  -18.4898   21.5305 C   0  0  0  0  0  0  0  0  0  0  0  0
  -28.5203  -20.0751   23.4844 C   0  0  0  0  0  0  0  0  0  0  0  0
  -26.2551  -19.3477   22.8450 C   0  0  0  0  0  0  0  0  0  0  0  0
  -27.8393  -26.3430   21.5675 C   0  0  1  0  0  0  0  0  0  0  0  0
  -26.1741  -29.7425   21.2458 C   0  0  1  0  0  0  0  0  0  0  0  0
  -26.7478  -18.8862   21.4638 C   0  0  2  0  0  0  0  0  0  0  0  0
  -24.4070  -26.6177   24.6736 C   0  0  0  0  0  0  0  0  0  0  0  0
  -24.3294  -36.6030   24.3335 C   0  0  0  0  0  0  0  0  0  0  0  0
  -26.7590  -30.6058   25.7483 C   0  0  0  0  0  0  0  0  0  0  0  0
  -25.8616  -32.8009   26.5512 C   0  0  0  0  0  0  0  0  0  0  0  0
  -27.9477  -32.7328   25.1851 C   0  0  0  0  0  0  0  0  0  0  0  0
  -23.1406  -35.2216   20.9936 C   0  0  0  0  0  0  0  0  0  0  0  0
  -18.5214  -26.1595   22.1152 C   0  0  0  0  0  0  0  0  0  0  0  0
  -19.4564  -26.8056   21.1052 C   0  0  0  0  0  0  0  0  0  1  0  0
  -25.7231  -32.2761   24.0740 C   0  0  1  0  0  0  0  0  0  0  0  0
  -24.3627  -35.6839   23.1223 C   0  0  2  0  0  0  0  0  0  0  0  0
  -26.5574  -32.0874   25.3724 C   0  0  0  0  0  0  0  0  0  0  0  0
  -26.2500  -16.4933   21.1356 N   0  0  0  0  0  0  0  0  0  0  0  0
  -25.1106  -24.3320   24.1348 N   0  0  0  0  0  0  0  0  0  0  0  0
  -18.9884  -26.3827   24.5310 N   0  0  0  0  0  0  0  0  0  0  0  0
  -25.8927  -17.7671   20.8994 N   0  0  0  0  0  0  0  0  0  0  0  0
  -25.5599  -30.5910   22.2690 N   0  0  0  0  0  0  0  0  0  0  0  0
  -27.1085  -20.4378   23.3433 N   0  0  0  0  0  0  0  0  0  0  0  0
  -24.2594  -19.1019   19.8217 N   0  0  0  0  0  0  0  0  0  0  0  0
  -22.9111  -14.8846   18.9317 N   0  0  0  0  0  0  0  0  0  0  0  0
  -21.5769  -25.4324   23.7429 N   0  0  0  0  0  0  0  0  0  0  0  0
  -25.3287  -21.9796   23.4767 N   0  0  0  0  0  0  0  0  0  0  0  0
  -27.3059  -27.6076   21.1084 N   0  0  0  0  0  0  0  0  0  0  0  0
  -25.5392  -33.6684   23.6789 N   0  0  0  0  0  0  0  0  0  0  0  0
  -23.2168  -36.0329   22.2358 N   0  3  0  0  0  0  0  0  0  0  0  0
  -22.4331  -17.1021   18.5960 O   0  0  0  0  0  0  0  0  0  0  0  0
  -20.1313  -23.7419   22.9299 O   0  0  0  0  0  0  0  0  0  0  0  0
  -26.4112  -28.3394   23.1299 O   0  0  0  0  0  0  0  0  0  0  0  0
  -27.4721  -31.9020   22.5159 O   0  0  0  0  0  0  0  0  0  0  0  0
  -23.2208  -33.6382   23.7128 O   0  0  0  0  0  0  0  0  0  0  0  0
  -27.4783  -22.5911   24.0988 O   0  0  0  0  0  0  0  0  0  0  0  0
  -25.4281  -10.2018   20.5966 O   0  0  0  0  0  0  0  0  0  0  0  0
  -19.9912  -28.0097   21.6535 O   0  0  0  0  0  0  0  0  0  1  0  0
  -20.7004   -7.5536   21.6164 F   0  0  0  0  0  0  0  0  0  0  0  0
  -25.1862   -8.5203   22.7776 F   0  0  0  0  0  0  0  0  0  0  0  0
  -22.9482  -23.1579   23.3422 S   0  0  0  0  0  0  0  0  0  0  0  0
  1  2  1  0  0  0  0
  1  5  2  0  0  0  0
  2  6  2  0  0  0  0
  3  8  2  0  0  0  0
  3 15  1  0  0  0  0
  4  9  1  0  0  0  0
  4 15  2  0  0  0  0
  5 17  1  0  0  0  0
  6 19  1  0  0  0  0
  7 10  2  0  0  0  0
  7 18  1  0  0  0  0
  8 21  1  0  0  0  0
  9 21  2  0  0  0  0
 10 22  1  0  0  0  0
 11 12  2  0  0  0  0
 11 23  1  0  0  0  0
 12 24  1  0  0  0  0
 13 20  1  0  0  0  0
 13 22  2  0  0  0  0
 14 24  2  0  0  0  0
 14 25  1  0  0  0  0
 15 26  1  0  0  0  0
 16 26  1  0  0  0  0
 16 28  2  0  0  0  0
 16 31  1  0  0  0  0
 17 19  2  0  0  0  0
 17 38  1  0  0  0  0
 18 20  2  0  0  0  0
 18 39  1  0  0  0  0
 19 47  1  0  0  0  0
 20 40  1  0  0  0  0
 21 80  1  0  0  0  0
 22 81  1  0  0  0  0
 23 25  2  0  0  0  0
 23 80  1  0  0  0  0
 24 82  1  0  0  0  0
 25 83  1  0  0  0  0
 26 61  2  0  0  0  0
 27 29  2  0  0  0  0
 27 50  1  0  0  0  0
 27 62  1  0  0  0  0
 28 64  1  0  0  0  0
 28 67  1  0  0  0  0
 29 69  1  0  0  0  0
 29 84  1  0  0  0  0
 30 62  2  0  0  0  0
 30 70  1  0  0  0  0
 30 84  1  0  0  0  0
 31 68  1  0  0  0  0
 31 74  2  0  0  0  0
 32 33  1  0  0  0  0
 32 56  1  0  0  0  0
 32 63  2  0  0  0  0
 33 69  1  0  0  0  0
 33 75  2  0  0  0  0
 34 48  1  0  0  0  0
 34 71  1  0  0  0  0
 34 76  2  0  0  0  0
 35 58  1  0  0  0  0
 35 65  1  0  0  0  0
 35 77  2  0  0  0  0
 36 59  1  0  0  0  0
 36 72  1  0  0  0  0
 36 78  2  0  0  0  0
 37 66  1  0  0  0  0
 37 70  1  0  0  0  0
 37 79  2  0  0  0  0
 38 41  1  0  0  0  0
 39 48  1  0  0  0  0
 40 65  1  0  0  0  0
 41 43  1  0  0  0  0
 42 44  1  0  0  0  0
 42 45  1  0  0  0  0
 43 47  1  0  0  0  0
 44 49  1  0  0  0  0
 45 66  1  0  0  0  0
 46 49  1  0  0  0  0
 46 66  1  0  0  0  0
 47 71  1  0  0  0  0
 48 65  1  0  0  0  0
 49 64  1  0  0  0  0
 51 59  1  0  0  0  0
 52 60  1  0  0  0  0
 53 60  1  0  0  0  0
 54 60  1  0  0  0  0
 55 73  1  0  0  0  0
 56 57  1  0  0  0  0
 57 81  1  0  0  0  0
 58 60  1  0  0  0  0
 58 72  1  0  0  0  0
 59 73  1  0  0  0  0
 61 64  1  0  0  0  0
M  CHG  1  73   1
M  ISO  4  37 100  57 101  70 100  81 101
M  END
> <Batch ID>
0161

> <Smiles>
CNC(C)C(=O)NC(C(=O)N1Cc2cc([101O:1][101CH2:1]CC(=N)C(=O)Nc3sc([100NH:0][100C:0](=O)N4CCCC(n5nc(-c6ccc(Oc7ccc(F)cc7F)cc6)c(C(N)=O)c5N)C4)nc3C)ccc2CC1C(=O)NC1CCCc2ccccc21)C(C)(C)C

> <Shape>
0.285

> <Color>
0.073

> <Negative vol penalty>
0.000

$$$$

  -OEChem-04052303533D

 86 94  0     1  0  0  0  0  0999 V2000
  -27.1764  -36.7780   23.3657 C   0  0  0  0  0  0  0  0  0  0  0  0
  -27.7034  -35.5096   23.1447 C   0  0  0  0  0  0  0  0  0  0  0  0
  -24.5509   -9.1187   21.6563 C   0  0  0  0  0  0  0  0  0  0  0  0
  -23.6408  -10.7307   23.2088 C   0  0  0  0  0  0  0  0  0  0  0  0
  -25.8784  -36.9166   23.8555 C   0  0  0  0  0  0  0  0  0  0  0  0
  -26.9330  -34.3790   23.4144 C   0  0  0  0  0  0  0  0  0  0  0  0
  -27.2120  -30.9143   19.7316 C   0  0  0  0  0  0  0  0  0  0  0  0
  -24.1666   -8.0823   22.5071 C   0  0  0  0  0  0  0  0  0  0  0  0
  -23.2565   -9.6943   24.0596 C   0  0  0  0  0  0  0  0  0  0  0  0
  -28.3552  -30.1171   19.6927 C   0  0  0  0  0  0  0  0  0  0  0  0
  -23.1030   -4.9931   24.1011 C   0  0  0  0  0  0  0  0  0  0  0  0
  -22.4824   -3.8819   23.5304 C   0  0  0  0  0  0  0  0  0  0  0  0
  -27.6507  -20.1327   18.9508 C   0  0  0  0  0  0  0  0  0  0  0  0
  -27.1410  -28.3337   20.7718 C   0  0  0  0  0  0  0  0  0  0  0  0
  -20.7084   -5.2978   22.7026 C   0  0  0  0  0  0  0  0  0  0  0  0
  -25.5969  -21.0222   18.3240 C   0  0  0  0  0  0  0  0  0  0  0  0
  -24.2880  -10.4429   22.0072 C   0  0  0  0  0  0  0  0  0  0  0  0
  -26.9530  -21.2496   18.4069 C   0  0  0  0  0  0  0  0  0  0  0  0
  -23.9273  -12.0868   20.0902 C   0  0  0  0  0  0  0  0  0  0  0  0
  -25.0882  -35.7874   24.1221 C   0  0  0  0  0  0  0  0  0  0  0  0
  -26.0259  -30.4302   20.3018 C   0  0  0  0  0  0  0  0  0  0  0  0
  -25.6237  -34.5027   23.9094 C   0  0  0  0  0  0  0  0  0  0  0  0
  -25.9835  -29.1258   20.8145 C   0  0  0  0  0  0  0  0  0  0  0  0
  -23.5194   -8.3701   23.7087 C   0  0  0  0  0  0  0  0  0  0  0  0
  -28.3207  -28.8277   20.2154 C   0  0  0  0  0  0  0  0  0  0  0  0
  -22.5263   -6.2567   23.9726 C   0  0  0  0  0  0  0  0  0  0  0  0
  -21.2851   -4.0343   22.8312 C   0  0  0  0  0  0  0  0  0  0  0  0
  -21.3290   -6.4091   23.2734 C   0  0  0  0  0  0  0  0  0  0  0  0
  -24.6852  -11.5139   21.1290 C   0  0  0  0  0  0  0  0  0  0  0  0
  -24.7448  -13.0568   19.5635 C   0  0  0  0  0  0  0  0  0  0  0  0
  -26.8012  -19.0941   19.2631 C   0  0  0  0  0  0  0  0  0  0  0  0
  -27.5781  -22.5296   17.9675 C   0  0  0  0  0  0  0  0  0  0  0  0
  -22.6029  -11.7705   19.6414 C   0  0  0  0  0  0  0  0  0  0  0  0
  -30.4071  -26.0050   19.3791 C   0  0  0  0  0  0  0  0  0  0  0  0
  -30.3631  -24.5155   19.2020 C   0  0  0  0  0  0  0  0  0  0  0  0
  -24.2076  -31.2878   22.7640 C   0  0  0  0  0  0  0  0  0  0  0  0
  -22.2490  -28.9664   21.6249 C   0  0  0  0  0  0  0  0  0  0  0  0
  -21.9076  -26.0969   19.8094 C   0  0  0  0  0  0  0  0  0  0  0  0
  -28.3023  -17.2945   20.1873 C   0  0  0  0  0  0  0  0  0  0  0  0
  -23.7074  -35.9864   24.6953 C   0  0  0  0  0  0  0  0  0  0  0  0
  -24.7939  -31.2931   20.3120 C   0  0  0  0  0  0  0  0  0  0  0  0
  -24.7292  -28.5517   21.4191 C   0  0  0  0  0  0  0  0  0  0  0  0
  -22.8240  -34.7451   24.6009 C   0  0  0  0  0  0  0  0  0  0  0  0
  -29.6558  -14.0049   20.3414 C   0  0  0  0  0  0  0  0  0  0  0  0
  -23.5903  -33.5084   25.0596 C   0  0  0  0  0  0  0  0  0  0  0  0
  -28.4209  -13.1107   20.4746 C   0  0  0  0  0  0  0  0  0  0  0  0
  -29.4917  -15.3162   21.1077 C   0  0  0  0  0  0  0  0  0  0  0  0
  -27.0389  -15.1785   20.9233 C   0  0  0  0  0  0  0  0  0  0  0  0
  -24.8103  -33.2527   24.1664 C   0  0  1  0  0  0  0  0  0  0  0  0
  -23.7853  -30.8820   21.3803 C   0  0  1  0  0  0  0  0  0  0  0  0
  -27.1310  -13.8739   20.1150 C   0  0  2  0  0  0  0  0  0  0  0  0
  -29.7811  -22.3409   16.7892 C   0  0  0  0  0  0  0  0  0  0  0  0
  -20.1911  -24.4139   19.0893 C   0  0  0  0  0  0  0  0  0  0  0  0
  -22.2777  -27.7445   24.4207 C   0  0  0  0  0  0  0  0  0  0  0  0
  -21.3734  -25.6304   23.4302 C   0  0  0  0  0  0  0  0  0  0  0  0
  -20.0414  -27.7356   23.3011 C   0  0  0  0  0  0  0  0  0  0  0  0
  -22.3600  -26.6887   16.9451 C   0  0  0  0  0  0  0  0  0  0  0  0
  -29.2383  -26.6373   20.0890 C   0  0  0  0  0  0  0  0  0  1  0  0
  -29.0858  -22.7074   18.0899 C   0  0  1  0  0  0  0  0  0  0  0  0
  -22.1019  -27.4821   21.8582 C   0  0  1  0  0  0  0  0  0  0  0  0
  -20.9178  -25.7003   18.7289 C   0  0  2  0  0  0  0  0  0  0  0  0
  -21.4729  -27.1594   23.2430 C   0  0  0  0  0  0  0  0  0  0  0  0
  -25.8915  -12.0732   21.2562 N   0  0  0  0  0  0  0  0  0  0  0  0
  -25.8978  -13.0076   20.2903 N   0  0  0  0  0  0  0  0  0  0  0  0
  -23.5526  -29.4366   21.4115 N   0  0  0  0  0  0  0  0  0  0  0  0
  -28.2507  -15.9858   20.7122 N   0  0  0  0  0  0  0  0  0  0  0  0
  -24.5826  -13.9385   18.5541 N   0  0  0  0  0  0  0  0  0  0  0  0
  -21.9032  -10.7462   20.2938 N   0  0  0  0  0  0  0  0  0  0  0  0
  -27.0636  -17.8161   19.8159 N   0  0  0  0  0  0  0  0  0  0  0  0
  -29.3079  -24.0946   18.4258 N   0  0  0  0  0  0  0  0  0  0  0  0
  -24.4035  -32.6471   22.9165 N   0  0  0  0  0  0  0  0  0  0  0  0
  -21.3462  -26.9635   20.7232 N   0  0  0  0  0  0  0  0  0  0  0  0
  -21.6218  -25.4947   17.4316 N   0  3  0  0  0  0  0  0  0  0  0  0
  -26.8586  -23.4091   17.4955 O   0  0  0  0  0  0  0  0  0  0  0  0
  -22.0622  -12.3672   18.6796 O   0  0  0  0  0  0  0  0  0  0  0  0
  -31.3907  -26.5947   18.9574 O   0  0  0  0  0  0  0  0  0  0  0  0
  -31.2498  -23.8546   19.7193 O   0  0  0  0  0  0  0  0  0  0  0  0
  -24.3441  -30.4312   23.6296 O   0  0  0  0  0  0  0  0  0  0  0  0
  -21.2437  -29.6811   21.6247 O   0  0  0  0  0  0  0  0  0  0  0  0
  -23.0621  -25.6768   19.8417 O   0  0  0  0  0  0  0  0  0  0  0  0
  -29.3701  -17.8970   20.0503 O   0  0  0  0  0  0  0  0  0  0  0  0
  -23.1441   -7.3590   24.5391 O   0  0  0  0  0  0  0  0  0  0  0  0
  -29.4352  -28.0478   20.1793 O   0  0  0  0  0  0  0  0  0  1  0  0
  -20.6901   -2.9673   22.2819 F   0  0  0  0  0  0  0  0  0  0  0  0
  -20.7708   -7.6206   23.1456 F   0  0  0  0  0  0  0  0  0  0  0  0
  -25.1698  -19.4674   18.9005 S   0  0  0  0  0  0  0  0  0  0  0  0
  1  2  1  0  0  0  0
  1  5  2  0  0  0  0
  2  6  2  0  0  0  0
  3  8  2  0  0  0  0
  3 17  1  0  0  0  0
  4  9  1  0  0  0  0
  4 17  2  0  0  0  0
  5 20  1  0  0  0  0
  6 22  1  0  0  0  0
  7 10  2  0  0  0  0
  7 21  1  0  0  0  0
  8 24  1  0  0  0  0
  9 24  2  0  0  0  0
 10 25  1  0  0  0  0
 11 12  2  0  0  0  0
 11 26  1  0  0  0  0
 12 27  1  0  0  0  0
 13 18  1  0  0  0  0
 13 31  2  0  0  0  0
 14 23  1  0  0  0  0
 14 25  2  0  0  0  0
 15 27  2  0  0  0  0
 15 28  1  0  0  0  0
 16 18  2  0  0  0  0
 16 86  1  0  0  0  0
 17 29  1  0  0  0  0
 18 32  1  0  0  0  0
 19 29  1  0  0  0  0
 19 30  2  0  0  0  0
 19 33  1  0  0  0  0
 20 22  2  0  0  0  0
 20 40  1  0  0  0  0
 21 23  2  0  0  0  0
 21 41  1  0  0  0  0
 22 49  1  0  0  0  0
 23 42  1  0  0  0  0
 24 82  1  0  0  0  0
 25 83  1  0  0  0  0
 26 28  2  0  0  0  0
 26 82  1  0  0  0  0
 27 84  1  0  0  0  0
 28 85  1  0  0  0  0
 29 63  2  0  0  0  0
 30 64  1  0  0  0  0
 30 67  1  0  0  0  0
 31 69  1  0  0  0  0
 31 86  1  0  0  0  0
 32 59  1  0  0  0  0
 32 74  2  0  0  0  0
 33 68  1  0  0  0  0
 33 75  2  0  0  0  0
 34 35  1  0  0  0  0
 34 58  1  0  0  0  0
 34 76  2  0  0  0  0
 35 70  1  0  0  0  0
 35 77  2  0  0  0  0
 36 50  1  0  0  0  0
 36 71  1  0  0  0  0
 36 78  2  0  0  0  0
 37 60  1  0  0  0  0
 37 65  1  0  0  0  0
 37 79  2  0  0  0  0
 38 61  1  0  0  0  0
 38 72  1  0  0  0  0
 38 80  2  0  0  0  0
 39 66  1  0  0  0  0
 39 69  1  0  0  0  0
 39 81  2  0  0  0  0
 40 43  1  0  0  0  0
 41 50  1  0  0  0  0
 42 65  1  0  0  0  0
 43 45  1  0  0  0  0
 44 46  1  0  0  0  0
 44 47  1  0  0  0  0
 45 49  1  0  0  0  0
 46 51  1  0  0  0  0
 47 66  1  0  0  0  0
 48 51  1  0  0  0  0
 48 66  1  0  0  0  0
 49 71  1  0  0  0  0
 50 65  1  0  0  0  0
 51 64  1  0  0  0  0
 52 59  1  0  0  0  0
 53 61  1  0  0  0  0
 54 62  1  0  0  0  0
 55 62  1  0  0  0  0
 56 62  1  0  0  0  0
 57 73  1  0  0  0  0
 58 83  1  0  0  0  0
 59 70  1  0  0  0  0
 60 62  1  0  0  0  0
 60 72  1  0  0  0  0
 61 73  1  0  0  0  0
 63 64  1  0  0  0  0
M  CHG  1  73   1
M  ISO  4  39 100  58 101  69 100  83 101
M  END
> <Batch ID>
0161

> <Smiles>
CNC(C)C(=O)NC(C(=O)N1Cc2cc([101O:1][101CH2:1]C(=O)C(=O)NC(C)C(=O)c3csc([100NH:0][100C:0](=O)N4CCCC(n5nc(-c6ccc(Oc7ccc(F)cc7F)cc6)c(C(N)=O)c5N)C4)c3)ccc2CC1C(=O)NC1CCCc2ccccc21)C(C)(C)C

> <Shape>
0.346

> <Color>
0.074

> <Negative vol penalty>
0.000

$$$$

  -OEChem-04052303533D

 90 98  0     1  0  0  0  0  0999 V2000
  -18.6862  -15.4931   19.3111 C   0  0  0  0  0  0  0  0  0  0  0  0
  -19.9840  -15.9134   19.5842 C   0  0  0  0  0  0  0  0  0  0  0  0
  -22.4500  -30.9072   22.3264 C   0  0  0  0  0  0  0  0  0  0  0  0
  -23.5625  -28.9766   23.2602 C   0  0  0  0  0  0  0  0  0  0  0  0
  -18.1465  -14.4082   20.0006 C   0  0  0  0  0  0  0  0  0  0  0  0
  -20.7424  -15.2495   20.5477 C   0  0  0  0  0  0  0  0  0  0  0  0
  -25.4832  -14.3525   19.0096 C   0  0  0  0  0  0  0  0  0  0  0  0
  -21.3266  -30.6380   23.1080 C   0  0  0  0  0  0  0  0  0  0  0  0
  -22.4390  -28.7073   24.0419 C   0  0  0  0  0  0  0  0  0  0  0  0
  -26.3787  -15.4202   19.0508 C   0  0  0  0  0  0  0  0  0  0  0  0
  -18.0296  -30.2511   24.5926 C   0  0  0  0  0  0  0  0  0  0  0  0
  -16.7785  -30.3272   23.9806 C   0  0  0  0  0  0  0  0  0  0  0  0
  -27.2836  -14.5735   21.1205 C   0  0  0  0  0  0  0  0  0  0  0  0
  -17.4355  -28.6012   22.4229 C   0  0  0  0  0  0  0  0  0  0  0  0
  -23.5680  -30.0765   22.4024 C   0  0  0  0  0  0  0  0  0  0  0  0
  -25.8323  -31.1565   21.9400 C   0  0  0  0  0  0  0  0  0  0  0  0
  -18.9020  -13.7246   20.9662 C   0  0  0  0  0  0  0  0  0  0  0  0
  -25.4738  -13.3916   20.0309 C   0  0  0  0  0  0  0  0  0  0  0  0
  -20.2118  -14.1551   21.2517 C   0  0  0  0  0  0  0  0  0  0  0  0
  -26.3887  -13.4932   21.0886 C   0  0  0  0  0  0  0  0  0  0  0  0
  -21.3211  -29.5381   23.9658 C   0  0  0  0  0  0  0  0  0  0  0  0
  -27.2772  -15.5325   20.1078 C   0  0  0  0  0  0  0  0  0  0  0  0
  -18.9837  -29.3501   24.1197 C   0  0  0  0  0  0  0  0  0  0  0  0
  -16.4814  -29.5022   22.8958 C   0  0  0  0  0  0  0  0  0  0  0  0
  -18.6866  -28.5251   23.0349 C   0  0  0  0  0  0  0  0  0  0  0  0
  -24.7286  -30.3538   21.5948 C   0  0  0  0  0  0  0  0  0  0  0  0
  -28.9018  -24.4006   18.5957 C   0  0  0  0  0  0  0  0  0  0  0  0
  -26.6556  -31.0988   20.8421 C   0  0  0  0  0  0  0  0  0  0  0  0
  -29.5704  -24.9630   19.6629 C   0  0  0  0  0  0  0  0  0  0  0  0
  -28.9175  -22.6597   19.9293 C   0  0  0  0  0  0  0  0  0  0  0  0
  -26.0905  -31.8888   23.1453 C   0  0  0  0  0  0  0  0  0  0  0  0
  -31.1957  -27.9556   20.7787 C   0  0  0  0  0  0  0  0  0  0  0  0
  -30.1043  -27.0090   20.8300 C   0  0  0  0  0  0  0  0  0  0  0  0
  -23.3404  -12.4213   22.1782 C   0  0  0  0  0  0  0  0  0  0  0  0
  -28.3857  -18.9847   20.2346 C   0  0  0  0  0  0  0  0  0  0  0  0
  -25.5951  -10.1827   22.8320 C   0  0  0  0  0  0  0  0  0  0  0  0
  -28.8829   -9.2714   22.7480 C   0  0  0  0  0  0  0  0  0  0  0  0
  -27.3448  -27.0661   16.4702 C   0  0  0  0  0  0  0  0  0  0  0  0
  -18.2591  -12.5869   21.7192 C   0  0  0  0  0  0  0  0  0  0  0  0
  -24.5195  -12.2312   19.9579 C   0  0  0  0  0  0  0  0  0  0  0  0
  -26.4328  -12.4769   22.1993 C   0  0  0  0  0  0  0  0  0  0  0  0
  -19.2603  -11.7030   22.4586 C   0  0  0  0  0  0  0  0  0  0  0  0
  -26.5311  -30.5120   16.0954 C   0  0  0  0  0  0  0  0  0  0  0  0
  -20.2636  -12.5589   23.2253 C   0  0  0  0  0  0  0  0  0  0  0  0
  -26.0765  -30.9346   17.4935 C   0  0  0  0  0  0  0  0  0  0  0  0
  -26.0948  -29.0859   15.7671 C   0  0  0  0  0  0  0  0  0  0  0  0
  -26.0393  -28.4944   18.1589 C   0  0  0  0  0  0  0  0  0  0  0  0
  -21.0746  -13.4451   22.2722 C   0  0  1  0  0  0  0  0  0  0  0  0
  -24.2508  -11.5923   21.3170 C   0  0  1  0  0  0  0  0  0  0  0  0
  -26.5043  -29.9056   18.5572 C   0  0  2  0  0  0  0  0  0  0  0  0
  -31.0711  -29.2499   21.5357 C   0  0  0  0  0  0  0  0  0  0  0  0
  -27.2191  -26.8549   23.1104 C   0  0  0  0  0  0  0  0  0  0  0  0
  -30.4249   -7.3983   23.3892 C   0  0  0  0  0  0  0  0  0  0  0  0
  -25.4296  -11.0496   25.7528 C   0  0  0  0  0  0  0  0  0  0  0  0
  -27.5969   -9.8626   26.1554 C   0  0  0  0  0  0  0  0  0  0  0  0
  -25.5940   -8.5784   25.4058 C   0  0  0  0  0  0  0  0  0  0  0  0
  -29.7083   -8.8346   19.9396 C   0  0  0  0  0  0  0  0  0  0  0  0
  -28.5596  -25.0797   17.3292 C   0  0  0  0  0  0  0  0  0  0  0  0
  -28.0259  -20.3435   19.6721 C   0  0  0  0  0  0  0  0  0  0  0  0
  -27.7332  -17.7991   19.5506 C   0  0  0  0  0  0  0  0  0  1  0  0
  -28.1854  -26.1326   22.1962 C   0  0  0  0  0  0  0  0  0  0  0  0
  -26.7772  -10.0972   23.7671 C   0  0  1  0  0  0  0  0  0  0  0  0
  -29.5628   -7.9947   22.2874 C   0  0  2  0  0  0  0  0  0  0  0  0
  -26.3475   -9.9173   25.2505 C   0  0  0  0  0  0  0  0  0  0  0  0
  -24.8375  -29.8250   20.3731 N   0  0  0  0  0  0  0  0  0  0  0  0
  -28.5270  -23.0798   18.7465 N   0  0  0  0  0  0  0  0  0  0  0  0
  -32.2776  -27.6552   20.1373 N   0  0  0  0  0  0  0  0  0  0  0  0
  -26.0195  -30.2965   19.9410 N   0  0  0  0  0  0  0  0  0  0  0  0
  -25.4756  -11.3641   22.0864 N   0  0  0  0  0  0  0  0  0  0  0  0
  -26.5329  -28.1596   16.8139 N   0  0  0  0  0  0  0  0  0  0  0  0
  -27.8542  -31.6565   20.5692 N   0  0  0  0  0  0  0  0  0  0  0  0
  -25.1396  -31.8393   24.1738 N   0  0  0  0  0  0  0  0  0  0  0  0
  -30.0581  -26.3271   19.7324 N   0  0  0  0  0  0  0  0  0  0  0  0
  -28.7044  -21.3764   20.4123 N   0  0  0  0  0  0  0  0  0  0  0  0
  -22.1038  -12.6696   21.6137 N   0  0  0  0  0  0  0  0  0  0  0  0
  -27.6250   -9.0254   23.2563 N   0  0  0  0  0  0  0  0  0  0  0  0
  -27.7204  -26.2412   17.5233 N   0  0  0  0  0  0  0  0  0  0  0  0
  -29.3392  -27.0008   21.9274 N   0  3  0  0  0  0  0  0  0  0  0  0
  -30.4308   -8.2669   21.1069 N   0  3  0  0  0  0  0  0  0  0  0  0
  -27.1258  -32.5802   23.2992 O   0  0  0  0  0  0  0  0  0  0  0  0
  -23.7304  -12.8059   23.2744 O   0  0  0  0  0  0  0  0  0  0  0  0
  -29.1551  -18.8401   21.1837 O   0  0  0  0  0  0  0  0  0  0  0  0
  -24.8108   -9.2333   22.7603 O   0  0  0  0  0  0  0  0  0  0  0  0
  -29.4159  -10.3760   22.6684 O   0  0  0  0  0  0  0  0  0  0  0  0
  -27.7125  -26.8446   15.3114 O   0  0  0  0  0  0  0  0  0  0  0  0
  -20.2251  -29.2752   24.7288 O   0  0  0  0  0  0  0  0  0  0  0  0
  -28.1519  -16.5740   20.1508 O   0  0  0  0  0  0  0  0  0  1  0  0
  -15.2794  -29.5743   22.3092 F   0  0  0  0  0  0  0  0  0  0  0  0
  -19.5987  -27.6567   22.5769 F   0  0  0  0  0  0  0  0  0  0  0  0
  -29.7406  -23.8005   20.9122 S   0  0  0  0  0  0  0  0  0  0  0  0
  1  2  1  0  0  0  0
  1  5  2  0  0  0  0
  2  6  2  0  0  0  0
  3  8  2  0  0  0  0
  3 15  1  0  0  0  0
  4  9  1  0  0  0  0
  4 15  2  0  0  0  0
  5 17  1  0  0  0  0
  6 19  1  0  0  0  0
  7 10  2  0  0  0  0
  7 18  1  0  0  0  0
  8 21  1  0  0  0  0
  9 21  2  0  0  0  0
 10 22  1  0  0  0  0
 11 12  2  0  0  0  0
 11 23  1  0  0  0  0
 12 24  1  0  0  0  0
 13 20  1  0  0  0  0
 13 22  2  0  0  0  0
 14 24  2  0  0  0  0
 14 25  1  0  0  0  0
 15 26  1  0  0  0  0
 16 26  1  0  0  0  0
 16 28  2  0  0  0  0
 16 31  1  0  0  0  0
 17 19  2  0  0  0  0
 17 39  1  0  0  0  0
 18 20  2  0  0  0  0
 18 40  1  0  0  0  0
 19 48  1  0  0  0  0
 20 41  1  0  0  0  0
 21 86  1  0  0  0  0
 22 87  1  0  0  0  0
 23 25  2  0  0  0  0
 23 86  1  0  0  0  0
 24 88  1  0  0  0  0
 25 89  1  0  0  0  0
 26 65  2  0  0  0  0
 27 29  2  0  0  0  0
 27 58  1  0  0  0  0
 27 66  1  0  0  0  0
 28 68  1  0  0  0  0
 28 71  1  0  0  0  0
 29 73  1  0  0  0  0
 29 90  1  0  0  0  0
 30 66  2  0  0  0  0
 30 74  1  0  0  0  0
 30 90  1  0  0  0  0
 31 72  1  0  0  0  0
 31 80  2  0  0  0  0
 32 33  1  0  0  0  0
 32 51  1  0  0  0  0
 32 67  2  0  0  0  0
 33 73  1  0  0  0  0
 33 78  2  0  0  0  0
 34 49  1  0  0  0  0
 34 75  1  0  0  0  0
 34 81  2  0  0  0  0
 35 59  1  0  0  0  0
 35 60  1  0  0  0  0
 35 82  2  0  0  0  0
 36 62  1  0  0  0  0
 36 69  1  0  0  0  0
 36 83  2  0  0  0  0
 37 63  1  0  0  0  0
 37 76  1  0  0  0  0
 37 84  2  0  0  0  0
 38 70  1  0  0  0  0
 38 77  1  0  0  0  0
 38 85  2  0  0  0  0
 39 42  1  0  0  0  0
 40 49  1  0  0  0  0
 41 69  1  0  0  0  0
 42 44  1  0  0  0  0
 43 45  1  0  0  0  0
 43 46  1  0  0  0  0
 44 48  1  0  0  0  0
 45 50  1  0  0  0  0
 46 70  1  0  0  0  0
 47 50  1  0  0  0  0
 47 70  1  0  0  0  0
 48 75  1  0  0  0  0
 49 69  1  0  0  0  0
 50 68  1  0  0  0  0
 52 61  1  0  0  0  0
 53 63  1  0  0  0  0
 54 64  1  0  0  0  0
 55 64  1  0  0  0  0
 56 64  1  0  0  0  0
 57 79  1  0  0  0  0
 58 77  1  0  0  0  0
 59 74  1  0  0  0  0
 60 87  1  0  0  0  0
 61 78  1  0  0  0  0
 62 64  1  0  0  0  0
 62 76  1  0  0  0  0
 63 79  1  0  0  0  0
 65 68  1  0  0  0  0
M  CHG  2  78   1  79   1
M  ISO  4  38 100  60 101  77 100  87 101
M  END
> <Batch ID>
0161

> <Smiles>
CCN=C(Nc1sc(NCC(=O)[101CH2:1][101O:1]c2ccc3c(c2)CN(C(=O)C(NC(=O)C(C)NC)C(C)(C)C)C(C(=O)NC2CCCc4ccccc42)C3)nc1C[100NH:0][100C:0](=O)N1CCCC(n2nc(-c3ccc(Oc4ccc(F)cc4F)cc3)c(C(N)=O)c2N)C1)C(C)=N

> <Shape>
0.269

> <Color>
0.066

> <Negative vol penalty>
0.000

$$$$

  -OEChem-04052303533D

 85 93  0     1  0  0  0  0  0999 V2000
  -25.6162  -35.6264   21.1692 C   0  0  0  0  0  0  0  0  0  0  0  0
  -26.2423  -34.3840   21.1715 C   0  0  0  0  0  0  0  0  0  0  0  0
  -25.2172   -9.0483   20.4853 C   0  0  0  0  0  0  0  0  0  0  0  0
  -26.1489   -9.8252   22.5747 C   0  0  0  0  0  0  0  0  0  0  0  0
  -24.4057  -35.7969   21.8397 C   0  0  0  0  0  0  0  0  0  0  0  0
  -25.6587  -33.3117   21.8453 C   0  0  0  0  0  0  0  0  0  0  0  0
  -25.7395  -29.0365   19.1322 C   0  0  0  0  0  0  0  0  0  0  0  0
  -25.2486  -19.5214   22.5860 C   0  0  0  0  0  0  0  0  0  0  0  0
  -25.2033  -20.6580   23.3932 C   0  0  0  0  0  0  0  0  0  0  0  0
  -25.5448   -7.7362   20.8270 C   0  0  0  0  0  0  0  0  0  0  0  0
  -26.4765   -8.5131   22.9164 C   0  0  0  0  0  0  0  0  0  0  0  0
  -26.9450  -28.3382   19.0799 C   0  0  0  0  0  0  0  0  0  0  0  0
  -24.3022   -5.2936   22.8075 C   0  0  0  0  0  0  0  0  0  0  0  0
  -23.3378   -4.3084   22.5958 C   0  0  0  0  0  0  0  0  0  0  0  0
  -26.1300  -26.8169   20.7653 C   0  0  0  0  0  0  0  0  0  0  0  0
  -27.2552  -20.3527   21.5279 C   0  0  0  0  0  0  0  0  0  0  0  0
  -24.8435   -3.1560   21.0986 C   0  0  0  0  0  0  0  0  0  0  0  0
  -25.5192  -10.0928   21.3591 C   0  0  0  0  0  0  0  0  0  0  0  0
  -23.9809  -12.1266   21.2899 C   0  0  0  0  0  0  0  0  0  0  0  0
  -23.8022  -34.7237   22.5140 C   0  0  0  0  0  0  0  0  0  0  0  0
  -24.7225  -28.6361   20.0107 C   0  0  0  0  0  0  0  0  0  0  0  0
  -24.4397  -33.4684   22.5266 C   0  0  0  0  0  0  0  0  0  0  0  0
  -24.9114  -27.5102   20.8249 C   0  0  0  0  0  0  0  0  0  0  0  0
  -26.2745  -19.3687   21.6533 C   0  0  0  0  0  0  0  0  0  0  0  0
  -26.1840  -21.6420   23.2678 C   0  0  0  0  0  0  0  0  0  0  0  0
  -27.2099  -21.4893   22.3351 C   0  0  0  0  0  0  0  0  0  0  0  0
  -26.1745   -7.4686   22.0426 C   0  0  0  0  0  0  0  0  0  0  0  0
  -27.1416  -27.2300   19.8986 C   0  0  0  0  0  0  0  0  0  0  0  0
  -25.5374   -5.2100   22.1646 C   0  0  0  0  0  0  0  0  0  0  0  0
  -23.6084   -3.2396   21.7414 C   0  0  0  0  0  0  0  0  0  0  0  0
  -25.8080   -4.1412   21.3102 C   0  0  0  0  0  0  0  0  0  0  0  0
  -25.1815  -11.4484   21.0064 C   0  0  0  0  0  0  0  0  0  0  0  0
  -24.1563  -13.3764   20.7479 C   0  0  0  0  0  0  0  0  0  0  0  0
  -22.8116  -11.6679   21.9813 C   0  0  0  0  0  0  0  0  0  0  0  0
  -30.1319  -23.5936   21.3843 C   0  0  0  0  0  0  0  0  0  0  0  0
  -29.8131  -24.8021   20.5420 C   0  0  0  0  0  0  0  0  0  0  0  0
  -23.2348  -29.9757   22.4797 C   0  0  0  0  0  0  0  0  0  0  0  0
  -21.3970  -27.3075   22.3203 C   0  0  0  0  0  0  0  0  0  0  0  0
  -21.0995  -24.0480   21.3539 C   0  0  0  0  0  0  0  0  0  0  0  0
  -27.2687  -17.9069   19.8586 C   0  0  0  0  0  0  0  0  0  0  0  0
  -22.5170  -34.9684   23.2644 C   0  0  0  0  0  0  0  0  0  0  0  0
  -23.4177  -29.3839   20.0359 C   0  0  0  0  0  0  0  0  0  0  0  0
  -23.8434  -27.0273   21.7707 C   0  0  0  0  0  0  0  0  0  0  0  0
  -21.7772  -33.6869   23.6393 C   0  0  0  0  0  0  0  0  0  0  0  0
  -27.7497  -15.1511   17.6559 C   0  0  0  0  0  0  0  0  0  0  0  0
  -22.7428  -32.6685   24.2372 C   0  0  0  0  0  0  0  0  0  0  0  0
  -27.0257  -13.9979   18.3546 C   0  0  0  0  0  0  0  0  0  0  0  0
  -28.4415  -16.0754   18.6563 C   0  0  0  0  0  0  0  0  0  0  0  0
  -26.8547  -15.4330   20.4278 C   0  0  0  0  0  0  0  0  0  0  0  0
  -23.8256  -32.2748   23.2254 C   0  0  1  0  0  0  0  0  0  0  0  0
  -22.6461  -29.1957   21.3384 C   0  0  1  0  0  0  0  0  0  0  0  0
  -26.0882  -14.5114   19.4651 C   0  0  2  0  0  0  0  0  0  0  0  0
  -19.4932  -22.1204   21.3934 C   0  0  0  0  0  0  0  0  0  0  0  0
  -22.0106  -26.8599   25.2755 C   0  0  0  0  0  0  0  0  0  0  0  0
  -21.2067  -24.5033   25.0138 C   0  0  0  0  0  0  0  0  0  0  0  0
  -19.6401  -26.4045   24.6216 C   0  0  0  0  0  0  0  0  0  0  0  0
  -21.0185  -23.9044   18.3989 C   0  0  0  0  0  0  0  0  0  0  0  0
  -29.2815  -22.3637   21.2535 C   0  0  0  0  0  0  0  0  0  0  0  0
  -28.4510  -25.4210   20.7165 C   0  0  0  0  0  0  0  0  0  1  0  0
  -21.4591  -25.9285   22.9315 C   0  0  1  0  0  0  0  0  0  0  0  0
  -20.0016  -23.3161   20.6032 C   0  0  2  0  0  0  0  0  0  0  0  0
  -21.1002  -25.9341   24.4443 C   0  0  0  0  0  0  0  0  0  0  0  0
  -26.0551  -12.2046   20.3363 N   0  0  0  0  0  0  0  0  0  0  0  0
  -31.1344  -23.6815   22.1938 N   0  0  0  0  0  0  0  0  0  0  0  0
  -25.4027  -13.3709   20.1940 N   0  0  0  0  0  0  0  0  0  0  0  0
  -22.5876  -27.7956   21.7634 N   0  0  0  0  0  0  0  0  0  0  0  0
  -27.4914  -16.5256   19.6758 N   0  0  0  0  0  0  0  0  0  0  0  0
  -26.1189  -22.7853   24.0953 N   0  0  0  0  0  0  0  0  0  0  0  0
  -23.3645  -14.4685   20.6957 N   0  0  0  0  0  0  0  0  0  0  0  0
  -22.7985  -10.3559   22.4742 N   0  0  0  0  0  0  0  0  0  0  0  0
  -26.3201  -18.2139   20.8335 N   0  0  0  0  0  0  0  0  0  0  0  0
  -28.1954  -22.4565   22.1943 N   0  0  0  0  0  0  0  0  0  0  0  0
  -23.2963  -31.3382   22.2574 N   0  0  0  0  0  0  0  0  0  0  0  0
  -20.5960  -25.0812   22.1157 N   0  0  0  0  0  0  0  0  0  0  0  0
  -20.5084  -22.8297   19.2888 N   0  3  0  0  0  0  0  0  0  0  0  0
  -21.8019  -12.3944   22.1426 O   0  0  0  0  0  0  0  0  0  0  0  0
  -30.6668  -25.1895   19.7570 O   0  0  0  0  0  0  0  0  0  0  0  0
  -23.6044  -29.3854   23.4879 O   0  0  0  0  0  0  0  0  0  0  0  0
  -20.3297  -27.9258   22.3301 O   0  0  0  0  0  0  0  0  0  0  0  0
  -22.2847  -23.7322   21.2755 O   0  0  0  0  0  0  0  0  0  0  0  0
  -27.8551  -18.7541   19.1801 O   0  0  0  0  0  0  0  0  0  0  0  0
  -26.4942   -6.1885   22.3765 O   0  0  0  0  0  0  0  0  0  0  0  0
  -28.3176  -26.5470   19.8501 O   0  0  0  0  0  0  0  0  0  1  0  0
  -22.6827   -2.2928   21.5394 F   0  0  0  0  0  0  0  0  0  0  0  0
  -26.9932   -4.0549   20.6908 F   0  0  0  0  0  0  0  0  0  0  0  0
  1  2  1  0  0  0  0
  1  5  2  0  0  0  0
  2  6  2  0  0  0  0
  3 10  2  0  0  0  0
  3 18  1  0  0  0  0
  4 11  1  0  0  0  0
  4 18  2  0  0  0  0
  5 20  1  0  0  0  0
  6 22  1  0  0  0  0
  7 12  2  0  0  0  0
  7 21  1  0  0  0  0
  8  9  2  0  0  0  0
  8 24  1  0  0  0  0
  9 25  1  0  0  0  0
 10 27  1  0  0  0  0
 11 27  2  0  0  0  0
 12 28  1  0  0  0  0
 13 14  2  0  0  0  0
 13 29  1  0  0  0  0
 14 30  1  0  0  0  0
 15 23  1  0  0  0  0
 15 28  2  0  0  0  0
 16 24  2  0  0  0  0
 16 26  1  0  0  0  0
 17 30  2  0  0  0  0
 17 31  1  0  0  0  0
 18 32  1  0  0  0  0
 19 32  1  0  0  0  0
 19 33  2  0  0  0  0
 19 34  1  0  0  0  0
 20 22  2  0  0  0  0
 20 41  1  0  0  0  0
 21 23  2  0  0  0  0
 21 42  1  0  0  0  0
 22 50  1  0  0  0  0
 23 43  1  0  0  0  0
 24 71  1  0  0  0  0
 25 26  2  0  0  0  0
 25 68  1  0  0  0  0
 26 72  1  0  0  0  0
 27 82  1  0  0  0  0
 28 83  1  0  0  0  0
 29 31  2  0  0  0  0
 29 82  1  0  0  0  0
 30 84  1  0  0  0  0
 31 85  1  0  0  0  0
 32 63  2  0  0  0  0
 33 65  1  0  0  0  0
 33 69  1  0  0  0  0
 34 70  1  0  0  0  0
 34 76  2  0  0  0  0
 35 36  1  0  0  0  0
 35 58  1  0  0  0  0
 35 64  2  0  0  0  0
 36 59  1  0  0  0  0
 36 77  2  0  0  0  0
 37 51  1  0  0  0  0
 37 73  1  0  0  0  0
 37 78  2  0  0  0  0
 38 60  1  0  0  0  0
 38 66  1  0  0  0  0
 38 79  2  0  0  0  0
 39 61  1  0  0  0  0
 39 74  1  0  0  0  0
 39 80  2  0  0  0  0
 40 67  1  0  0  0  0
 40 71  1  0  0  0  0
 40 81  2  0  0  0  0
 41 44  1  0  0  0  0
 42 51  1  0  0  0  0
 43 66  1  0  0  0  0
 44 46  1  0  0  0  0
 45 47  1  0  0  0  0
 45 48  1  0  0  0  0
 46 50  1  0  0  0  0
 47 52  1  0  0  0  0
 48 67  1  0  0  0  0
 49 52  1  0  0  0  0
 49 67  1  0  0  0  0
 50 73  1  0  0  0  0
 51 66  1  0  0  0  0
 52 65  1  0  0  0  0
 53 61  1  0  0  0  0
 54 62  1  0  0  0  0
 55 62  1  0  0  0  0
 56 62  1  0  0  0  0
 57 75  1  0  0  0  0
 58 72  1  0  0  0  0
 59 83  1  0  0  0  0
 60 62  1  0  0  0  0
 60 74  1  0  0  0  0
 61 75  1  0  0  0  0
 63 65  1  0  0  0  0
M  CHG  1  75   1
M  ISO  4  40 100  59 101  71 100  83 101
M  END
> <Batch ID>
0161

> <Smiles>
CNC(C)C(=O)NC(C(=O)N1Cc2cc([101O:1][101CH2:1]C(=O)C(=N)CNc3cc([100NH:0][100C:0](=O)N4CCCC(n5nc(-c6ccc(Oc7ccc(F)cc7F)cc6)c(C(N)=O)c5N)C4)ccc3N)ccc2CC1C(=O)NC1CCCc2ccccc21)C(C)(C)C

> <Shape>
0.212

> <Color>
0.098

> <Negative vol penalty>
0.000

$$$$

  -OEChem-04052303533D

 89 97  0     1  0  0  0  0  0999 V2000
  -29.7168  -33.1873   24.8516 C   0  0  0  0  0  0  0  0  0  0  0  0
  -29.9900  -31.8876   24.4372 C   0  0  0  0  0  0  0  0  0  0  0  0
  -19.8199  -16.0030   21.9715 C   0  0  0  0  0  0  0  0  0  0  0  0
  -21.3470  -17.8433   21.6279 C   0  0  0  0  0  0  0  0  0  0  0  0
  -28.3956  -33.6144   24.9772 C   0  0  0  0  0  0  0  0  0  0  0  0
  -28.9420  -31.0140   24.1491 C   0  0  0  0  0  0  0  0  0  0  0  0
  -28.8558  -26.6612   19.8421 C   0  0  0  0  0  0  0  0  0  0  0  0
  -19.0945  -16.7743   22.8794 C   0  0  0  0  0  0  0  0  0  0  0  0
  -20.6216  -18.6147   22.5359 C   0  0  0  0  0  0  0  0  0  0  0  0
  -29.0742  -25.2852   19.8946 C   0  0  0  0  0  0  0  0  0  0  0  0
  -18.9629  -21.1919   24.4916 C   0  0  0  0  0  0  0  0  0  0  0  0
  -18.6766  -22.5109   24.1397 C   0  0  0  0  0  0  0  0  0  0  0  0
  -29.4235  -16.5140   20.0527 C   0  0  0  0  0  0  0  0  0  0  0  0
  -26.6951  -24.9197   20.0541 C   0  0  0  0  0  0  0  0  0  0  0  0
  -17.4707  -21.7307   22.1969 C   0  0  0  0  0  0  0  0  0  0  0  0
  -30.4842  -14.4017   20.3172 C   0  0  0  0  0  0  0  0  0  0  0  0
  -20.9462  -16.5374   21.3458 C   0  0  0  0  0  0  0  0  0  0  0  0
  -30.6757  -17.0832   19.8493 C   0  0  0  0  0  0  0  0  0  0  0  0
  -21.4942  -15.6493   19.0180 C   0  0  0  0  0  0  0  0  0  0  0  0
  -27.3310  -32.7486   24.6813 C   0  0  0  0  0  0  0  0  0  0  0  0
  -27.5538  -27.1781   19.9063 C   0  0  0  0  0  0  0  0  0  0  0  0
  -27.6053  -31.4296   24.2722 C   0  0  0  0  0  0  0  0  0  0  0  0
  -26.4627  -26.3024   19.9997 C   0  0  0  0  0  0  0  0  0  0  0  0
  -29.3173  -15.1484   20.2917 C   0  0  0  0  0  0  0  0  0  0  0  0
  -19.4954  -18.0802   23.1616 C   0  0  0  0  0  0  0  0  0  0  0  0
  -27.9940  -24.4143   20.0035 C   0  0  0  0  0  0  0  0  0  0  0  0
  -18.5032  -20.1423   23.6962 C   0  0  0  0  0  0  0  0  0  0  0  0
  -17.9305  -22.7803   22.9924 C   0  0  0  0  0  0  0  0  0  0  0  0
  -17.7571  -20.4117   22.5489 C   0  0  0  0  0  0  0  0  0  0  0  0
  -21.6962  -15.7409   20.4082 C   0  0  0  0  0  0  0  0  0  0  0  0
  -31.7818  -16.2499   19.8948 C   0  0  0  0  0  0  0  0  0  0  0  0
  -22.4582  -14.7703   18.5882 C   0  0  0  0  0  0  0  0  0  0  0  0
  -30.8161  -18.5309   19.5942 C   0  0  0  0  0  0  0  0  0  0  0  0
  -20.5223  -16.3006   18.1893 C   0  0  0  0  0  0  0  0  0  0  0  0
  -25.9937  -29.0842   21.9154 C   0  0  0  0  0  0  0  0  0  0  0  0
  -29.1126  -21.1419   18.9079 C   0  0  0  0  0  0  0  0  0  0  0  0
  -23.6526  -28.8773   19.6796 C   0  0  0  0  0  0  0  0  0  0  0  0
  -22.2476  -27.1260   17.1094 C   0  0  0  0  0  0  0  0  0  0  0  0
  -27.7995  -13.1910   20.7517 C   0  0  0  0  0  0  0  0  0  0  0  0
  -25.9189  -33.2409   24.8774 C   0  0  0  0  0  0  0  0  0  0  0  0
  -27.3333  -28.6636   19.8215 C   0  0  0  0  0  0  0  0  0  0  0  0
  -25.0441  -26.8058   20.0516 C   0  0  0  0  0  0  0  0  0  0  0  0
  -24.8694  -32.3694   24.1925 C   0  0  0  0  0  0  0  0  0  0  0  0
  -25.0499  -11.0305   20.0819 C   0  0  0  0  0  0  0  0  0  0  0  0
  -25.1321  -30.8941   24.4775 C   0  0  0  0  0  0  0  0  0  0  0  0
  -23.8605  -11.9854   19.9570 C   0  0  0  0  0  0  0  0  0  0  0  0
  -26.0349  -11.4888   21.1559 C   0  0  0  0  0  0  0  0  0  0  0  0
  -25.3121  -13.8295   20.8948 C   0  0  0  0  0  0  0  0  0  0  0  0
  -26.4959  -30.4601   23.9267 C   0  0  1  0  0  0  0  0  0  0  0  0
  -25.9979  -29.1041   20.4130 C   0  0  1  0  0  0  0  0  0  0  0  0
  -24.3253  -13.4444   19.7806 C   0  0  2  0  0  0  0  0  0  0  0  0
  -20.3194  -27.1893   15.5047 C   0  0  0  0  0  0  0  0  0  0  0  0
  -21.7663  -28.0106   21.9158 C   0  0  0  0  0  0  0  0  0  0  0  0
  -20.1779  -27.1900   20.1632 C   0  0  0  0  0  0  0  0  0  0  0  0
  -20.7701  -29.6108   20.2722 C   0  0  0  0  0  0  0  0  0  0  0  0
  -24.0514  -27.2087   14.7645 C   0  0  0  0  0  0  0  0  0  0  0  0
  -29.3508  -22.5661   19.3720 C   0  0  0  0  0  0  0  0  0  1  0  0
  -30.2566  -20.4719   18.1741 C   0  0  2  0  0  0  0  0  0  0  0  0
  -22.4851  -27.9516   19.4367 C   0  0  1  0  0  0  0  0  0  0  0  0
  -21.7763  -27.5606   15.7334 C   0  0  2  0  0  0  0  0  0  0  0  0
  -21.3265  -28.1810   20.4480 C   0  0  0  0  0  0  0  0  0  0  0  0
  -30.1278  -20.6128   16.6766 C   0  0  0  0  0  0  0  0  0  0  0  0
  -31.7181  -14.9192   20.1242 N   0  0  0  0  0  0  0  0  0  0  0  0
  -22.7088  -14.9807   20.8333 N   0  0  0  0  0  0  0  0  0  0  0  0
  -23.1517  -14.4029   19.7036 N   0  0  0  0  0  0  0  0  0  0  0  0
  -24.8805  -28.2668   19.9718 N   0  0  0  0  0  0  0  0  0  0  0  0
  -26.4342  -12.8783   20.9217 N   0  0  0  0  0  0  0  0  0  0  0  0
  -22.7716  -14.2835   17.3687 N   0  0  0  0  0  0  0  0  0  0  0  0
  -19.6061  -17.1725   18.7931 N   0  0  0  0  0  0  0  0  0  0  0  0
  -28.0556  -14.5390   20.5027 N   0  0  0  0  0  0  0  0  0  0  0  0
  -30.2065  -19.0548   18.5204 N   0  0  0  0  0  0  0  0  0  0  0  0
  -26.4232  -30.2629   22.4949 N   0  0  0  0  0  0  0  0  0  0  0  0
  -22.1039  -28.1330   18.0402 N   0  0  0  0  0  0  0  0  0  0  0  0
  -31.5471  -19.2509   20.4453 N   0  3  0  0  0  0  0  0  0  0  0  0
  -22.5989  -26.9100   14.6747 N   0  3  0  0  0  0  0  0  0  0  0  0
  -20.4573  -16.1021   16.9524 O   0  0  0  0  0  0  0  0  0  0  0  0
  -25.6265  -28.0748   22.5052 O   0  0  0  0  0  0  0  0  0  0  0  0
  -28.0403  -20.5703   19.1072 O   0  0  0  0  0  0  0  0  0  0  0  0
  -23.4830  -30.0968   19.6055 O   0  0  0  0  0  0  0  0  0  0  0  0
  -22.6949  -26.0040   17.3367 O   0  0  0  0  0  0  0  0  0  0  0  0
  -28.6745  -12.3224   20.7947 O   0  0  0  0  0  0  0  0  0  0  0  0
  -18.7876  -18.8333   24.0474 O   0  0  0  0  0  0  0  0  0  0  0  0
  -28.2045  -23.0709   20.0557 O   0  0  0  0  0  0  0  0  0  1  0  0
  -17.6543  -24.0469   22.6554 F   0  0  0  0  0  0  0  0  0  0  0  0
  -17.3117  -19.4075   21.7814 F   0  0  0  0  0  0  0  0  0  0  0  0
  -33.0014  -16.7779   19.7015 F   0  0  0  0  0  0  0  0  0  0  0  0
  -31.1144  -19.9521   16.0331 F   0  0  0  0  0  0  0  0  0  0  0  0
  -30.1744  -21.9056   16.2897 F   0  0  0  0  0  0  0  0  0  0  0  0
  -28.9540  -20.0973   16.2469 F   0  0  0  0  0  0  0  0  0  0  0  0
  1  2  1  0  0  0  0
  1  5  2  0  0  0  0
  2  6  2  0  0  0  0
  3  8  2  0  0  0  0
  3 17  1  0  0  0  0
  4  9  1  0  0  0  0
  4 17  2  0  0  0  0
  5 20  1  0  0  0  0
  6 22  1  0  0  0  0
  7 10  2  0  0  0  0
  7 21  1  0  0  0  0
  8 25  1  0  0  0  0
  9 25  2  0  0  0  0
 10 26  1  0  0  0  0
 11 12  2  0  0  0  0
 11 27  1  0  0  0  0
 12 28  1  0  0  0  0
 13 18  1  0  0  0  0
 13 24  2  0  0  0  0
 14 23  1  0  0  0  0
 14 26  2  0  0  0  0
 15 28  2  0  0  0  0
 15 29  1  0  0  0  0
 16 24  1  0  0  0  0
 16 63  2  0  0  0  0
 17 30  1  0  0  0  0
 18 31  2  0  0  0  0
 18 33  1  0  0  0  0
 19 30  1  0  0  0  0
 19 32  2  0  0  0  0
 19 34  1  0  0  0  0
 20 22  2  0  0  0  0
 20 40  1  0  0  0  0
 21 23  2  0  0  0  0
 21 41  1  0  0  0  0
 22 49  1  0  0  0  0
 23 42  1  0  0  0  0
 24 70  1  0  0  0  0
 25 82  1  0  0  0  0
 26 83  1  0  0  0  0
 27 29  2  0  0  0  0
 27 82  1  0  0  0  0
 28 84  1  0  0  0  0
 29 85  1  0  0  0  0
 30 64  2  0  0  0  0
 31 63  1  0  0  0  0
 31 86  1  0  0  0  0
 32 65  1  0  0  0  0
 32 68  1  0  0  0  0
 33 71  1  0  0  0  0
 33 74  2  0  0  0  0
 34 69  1  0  0  0  0
 34 76  2  0  0  0  0
 35 50  1  0  0  0  0
 35 72  1  0  0  0  0
 35 77  2  0  0  0  0
 36 57  1  0  0  0  0
 36 58  1  0  0  0  0
 36 78  2  0  0  0  0
 37 59  1  0  0  0  0
 37 66  1  0  0  0  0
 37 79  2  0  0  0  0
 38 60  1  0  0  0  0
 38 73  1  0  0  0  0
 38 80  2  0  0  0  0
 39 67  1  0  0  0  0
 39 70  1  0  0  0  0
 39 81  2  0  0  0  0
 40 43  1  0  0  0  0
 41 50  1  0  0  0  0
 42 66  1  0  0  0  0
 43 45  1  0  0  0  0
 44 46  1  0  0  0  0
 44 47  1  0  0  0  0
 45 49  1  0  0  0  0
 46 51  1  0  0  0  0
 47 67  1  0  0  0  0
 48 51  1  0  0  0  0
 48 67  1  0  0  0  0
 49 72  1  0  0  0  0
 50 66  1  0  0  0  0
 51 65  1  0  0  0  0
 52 60  1  0  0  0  0
 53 61  1  0  0  0  0
 54 61  1  0  0  0  0
 55 61  1  0  0  0  0
 56 75  1  0  0  0  0
 57 83  1  0  0  0  0
 58 62  1  0  0  0  0
 58 71  1  0  0  0  0
 59 61  1  0  0  0  0
 59 73  1  0  0  0  0
 60 75  1  0  0  0  0
 62 87  1  0  0  0  0
 62 88  1  0  0  0  0
 62 89  1  0  0  0  0
 64 65  1  0  0  0  0
M  CHG  2  74   1  75   1
M  ISO  4  39 100  57 101  70 100  83 101
M  END
> <Batch ID>
0161

> <Smiles>
CNC(C)C(=O)NC(C(=O)N1Cc2cc([101O:1][101CH2:1]C(=O)C(NC(=N)c3cc([100NH:0][100C:0](=O)N4CCCC(n5nc(-c6ccc(Oc7ccc(F)cc7F)cc6)c(C(N)=O)c5N)C4)cnc3F)C(F)(F)F)ccc2CC1C(=O)NC1CCCc2ccccc21)C(C)(C)C

> <Shape>
0.224

> <Color>
0.064

> <Negative vol penalty>
0.000

$$$$

  -OEChem-04052303533D

 89 97  0     1  0  0  0  0  0999 V2000
  -26.5157  -33.7670   26.3977 C   0  0  0  0  0  0  0  0  0  0  0  0
  -26.8785  -32.5605   25.8077 C   0  0  0  0  0  0  0  0  0  0  0  0
  -24.5683   -9.3930   21.8097 C   0  0  0  0  0  0  0  0  0  0  0  0
  -23.0538  -10.4044   20.2222 C   0  0  0  0  0  0  0  0  0  0  0  0
  -25.1719  -34.1327   26.4646 C   0  0  0  0  0  0  0  0  0  0  0  0
  -25.8975  -31.7185   25.2851 C   0  0  0  0  0  0  0  0  0  0  0  0
  -27.1395  -29.8792   20.7333 C   0  0  0  0  0  0  0  0  0  0  0  0
  -23.6738   -8.3383   21.9913 C   0  0  0  0  0  0  0  0  0  0  0  0
  -22.1592   -9.3496   20.4037 C   0  0  0  0  0  0  0  0  0  0  0  0
  -28.0518  -28.8254   20.6996 C   0  0  0  0  0  0  0  0  0  0  0  0
  -22.7872   -5.5145   20.3562 C   0  0  0  0  0  0  0  0  0  0  0  0
  -23.3050   -4.2194   20.3639 C   0  0  0  0  0  0  0  0  0  0  0  0
  -26.2317  -27.2665   20.4230 C   0  0  0  0  0  0  0  0  0  0  0  0
  -28.5735  -20.8926   17.1925 C   0  0  0  0  0  0  0  0  0  0  0  0
  -22.4690   -3.8984   22.6078 C   0  0  0  0  0  0  0  0  0  0  0  0
  -24.2583  -10.4261   20.9253 C   0  0  0  0  0  0  0  0  0  0  0  0
  -26.2233  -11.5951   19.7940 C   0  0  0  0  0  0  0  0  0  0  0  0
  -24.1748  -33.2992   25.9340 C   0  0  0  0  0  0  0  0  0  0  0  0
  -25.7634  -29.6331   20.6228 C   0  0  0  0  0  0  0  0  0  0  0  0
  -24.5390  -32.0727   25.3462 C   0  0  0  0  0  0  0  0  0  0  0  0
  -25.3042  -28.3192   20.4530 C   0  0  0  0  0  0  0  0  0  0  0  0
  -28.2740  -19.6302   16.6925 C   0  0  0  0  0  0  0  0  0  0  0  0
  -27.6677  -18.6882   17.5162 C   0  0  0  0  0  0  0  0  0  0  0  0
  -22.4692   -8.3166   21.2883 C   0  0  0  0  0  0  0  0  0  0  0  0
  -27.5978  -27.5186   20.5474 C   0  0  0  0  0  0  0  0  0  0  0  0
  -22.1103   -6.0017   21.4744 C   0  0  0  0  0  0  0  0  0  0  0  0
  -23.1458   -3.4113   21.4896 C   0  0  0  0  0  0  0  0  0  0  0  0
  -21.9512   -5.1936   22.6001 C   0  0  0  0  0  0  0  0  0  0  0  0
  -25.1817  -11.5161   20.7377 C   0  0  0  0  0  0  0  0  0  0  0  0
  -28.2491  -21.1611   18.5125 C   0  0  0  0  0  0  0  0  0  0  0  0
  -27.3841  -19.0553   18.8218 C   0  0  0  0  0  0  0  0  0  0  0  0
  -26.8011  -12.8201   20.0220 C   0  0  0  0  0  0  0  0  0  0  0  0
  -28.6485  -20.1621   14.2904 C   0  0  0  0  0  0  0  0  0  0  0  0
  -26.6320  -10.6460   18.8001 C   0  0  0  0  0  0  0  0  0  0  0  0
  -28.9602  -19.8077   13.0325 C   0  0  0  0  0  0  0  0  0  0  0  0
  -29.3635  -24.6908   19.1891 C   0  0  0  0  0  0  0  0  0  0  0  0
  -29.1554  -23.4818   18.3237 C   0  0  0  0  0  0  0  0  0  0  0  0
  -23.2427  -30.1032   22.5013 C   0  0  0  0  0  0  0  0  0  0  0  0
  -21.6002  -29.0910   19.8936 C   0  0  0  0  0  0  0  0  0  0  0  0
  -21.6001  -27.3165   16.9785 C   0  0  0  0  0  0  0  0  0  0  0  0
  -26.4027  -18.2852   21.0104 C   0  0  0  0  0  0  0  0  0  0  0  0
  -22.7316  -33.7151   26.0720 C   0  0  0  0  0  0  0  0  0  0  0  0
  -24.7942  -30.7832   20.6341 C   0  0  0  0  0  0  0  0  0  0  0  0
  -23.8385  -28.0036   20.3096 C   0  0  0  0  0  0  0  0  0  0  0  0
  -21.7844  -32.9401   25.1597 C   0  0  0  0  0  0  0  0  0  0  0  0
  -26.1629  -16.1079   23.8174 C   0  0  0  0  0  0  0  0  0  0  0  0
  -22.0817  -31.4455   25.2276 C   0  0  0  0  0  0  0  0  0  0  0  0
  -25.9720  -14.7257   23.1888 C   0  0  0  0  0  0  0  0  0  0  0  0
  -25.4396  -17.1959   23.0256 C   0  0  0  0  0  0  0  0  0  0  0  0
  -25.5662  -15.8534   20.9638 C   0  0  0  0  0  0  0  0  0  0  0  0
  -23.5060  -31.1439   24.7460 C   0  0  1  0  0  0  0  0  0  0  0  0
  -23.3800  -30.3690   21.0288 C   0  0  1  0  0  0  0  0  0  0  0  0
  -26.3301  -14.7340   21.6897 C   0  0  2  0  0  0  0  0  0  0  0  0
  -28.9854  -20.8413   11.9384 C   0  0  0  0  0  0  0  0  0  0  0  0
  -29.3038  -18.4151   12.5816 C   0  0  0  0  0  0  0  0  0  0  0  0
  -20.0999  -26.6406   15.0838 C   0  0  0  0  0  0  0  0  0  0  0  0
  -20.2620  -27.0230   21.6943 C   0  0  0  0  0  0  0  0  0  0  0  0
  -19.5329  -25.8027   19.6333 C   0  0  0  0  0  0  0  0  0  0  0  0
  -18.7294  -28.1264   20.0548 C   0  0  0  0  0  0  0  0  0  0  0  0
  -23.2974  -28.7004   14.9877 C   0  0  0  0  0  0  0  0  0  0  0  0
  -28.1241  -25.3428   19.7444 C   0  0  0  0  0  0  0  0  0  1  0  0
  -21.1358  -27.7509   19.3764 C   0  0  1  0  0  0  0  0  0  0  0  0
  -21.1044  -27.6657   15.5868 C   0  0  2  0  0  0  0  0  0  0  0  0
  -19.9426  -27.1812   20.1943 C   0  0  0  0  0  0  0  0  0  0  0  0
  -25.1002  -12.6043   21.5080 N   0  0  0  0  0  0  0  0  0  0  0  0
  -27.6600  -20.2718   19.3430 N   0  0  0  0  0  0  0  0  0  0  0  0
  -26.0980  -13.3785   21.0487 N   0  0  0  0  0  0  0  0  0  0  0  0
  -22.9297  -29.1617   20.3332 N   0  0  0  0  0  0  0  0  0  0  0  0
  -25.8315  -17.1457   21.6153 N   0  0  0  0  0  0  0  0  0  0  0  0
  -27.3549  -17.4017   17.0311 N   0  0  0  0  0  0  0  0  0  0  0  0
  -27.8369  -13.4633   19.4425 N   0  0  0  0  0  0  0  0  0  0  0  0
  -25.9294   -9.4373   18.7015 N   0  0  0  0  0  0  0  0  0  0  0  0
  -28.5931  -19.3283   15.3503 N   0  0  0  0  0  0  0  0  0  0  0  0
  -28.5588  -22.4476   19.0121 N   0  0  0  0  0  0  0  0  0  0  0  0
  -26.7653  -18.1087   19.6755 N   0  0  0  0  0  0  0  0  0  0  0  0
  -23.5695  -31.1819   23.3006 N   0  0  0  0  0  0  0  0  0  0  0  0
  -20.8529  -27.9368   17.9573 N   0  0  0  0  0  0  0  0  0  0  0  0
  -22.2445  -27.7159   14.6283 N   0  3  0  0  0  0  0  0  0  0  0  0
  -27.6022  -10.8564   18.0333 O   0  0  0  0  0  0  0  0  0  0  0  0
  -30.5116  -25.0698   19.3645 O   0  0  0  0  0  0  0  0  0  0  0  0
  -29.5510  -23.5594   17.1723 O   0  0  0  0  0  0  0  0  0  0  0  0
  -22.8667  -29.0014   22.8839 O   0  0  0  0  0  0  0  0  0  0  0  0
  -20.8145  -30.0419   19.9005 O   0  0  0  0  0  0  0  0  0  0  0  0
  -22.5525  -26.5655   17.1774 O   0  0  0  0  0  0  0  0  0  0  0  0
  -26.5837  -19.3314   21.6386 O   0  0  0  0  0  0  0  0  0  0  0  0
  -21.5962   -7.2874   21.4650 O   0  0  0  0  0  0  0  0  0  0  0  0
  -28.4860  -26.4881   20.5149 O   0  0  0  0  0  0  0  0  0  1  0  0
  -23.6418   -2.1670   21.4962 F   0  0  0  0  0  0  0  0  0  0  0  0
  -21.3009   -5.6556   23.6769 F   0  0  0  0  0  0  0  0  0  0  0  0
  1  2  1  0  0  0  0
  1  5  2  0  0  0  0
  2  6  2  0  0  0  0
  3  8  2  0  0  0  0
  3 16  1  0  0  0  0
  4  9  1  0  0  0  0
  4 16  2  0  0  0  0
  5 18  1  0  0  0  0
  6 20  1  0  0  0  0
  7 10  2  0  0  0  0
  7 19  1  0  0  0  0
  8 24  1  0  0  0  0
  9 24  2  0  0  0  0
 10 25  1  0  0  0  0
 11 12  2  0  0  0  0
 11 26  1  0  0  0  0
 12 27  1  0  0  0  0
 13 21  1  0  0  0  0
 13 25  2  0  0  0  0
 14 22  2  0  0  0  0
 14 30  1  0  0  0  0
 15 27  2  0  0  0  0
 15 28  1  0  0  0  0
 16 29  1  0  0  0  0
 17 29  1  0  0  0  0
 17 32  2  0  0  0  0
 17 34  1  0  0  0  0
 18 20  2  0  0  0  0
 18 42  1  0  0  0  0
 19 21  2  0  0  0  0
 19 43  1  0  0  0  0
 20 51  1  0  0  0  0
 21 44  1  0  0  0  0
 22 23  1  0  0  0  0
 22 73  1  0  0  0  0
 23 31  2  0  0  0  0
 23 70  1  0  0  0  0
 24 86  1  0  0  0  0
 25 87  1  0  0  0  0
 26 28  2  0  0  0  0
 26 86  1  0  0  0  0
 27 88  1  0  0  0  0
 28 89  1  0  0  0  0
 29 65  2  0  0  0  0
 30 66  2  0  0  0  0
 30 74  1  0  0  0  0
 31 66  1  0  0  0  0
 31 75  1  0  0  0  0
 32 67  1  0  0  0  0
 32 71  1  0  0  0  0
 33 35  2  0  0  0  0
 33 73  1  0  0  0  0
 34 72  1  0  0  0  0
 34 79  2  0  0  0  0
 35 54  1  0  0  0  0
 35 55  1  0  0  0  0
 36 37  1  0  0  0  0
 36 61  1  0  0  0  0
 36 80  2  0  0  0  0
 37 74  1  0  0  0  0
 37 81  2  0  0  0  0
 38 52  1  0  0  0  0
 38 76  1  0  0  0  0
 38 82  2  0  0  0  0
 39 62  1  0  0  0  0
 39 68  1  0  0  0  0
 39 83  2  0  0  0  0
 40 63  1  0  0  0  0
 40 77  1  0  0  0  0
 40 84  2  0  0  0  0
 41 69  1  0  0  0  0
 41 75  1  0  0  0  0
 41 85  2  0  0  0  0
 42 45  1  0  0  0  0
 43 52  1  0  0  0  0
 44 68  1  0  0  0  0
 45 47  1  0  0  0  0
 46 48  1  0  0  0  0
 46 49  1  0  0  0  0
 47 51  1  0  0  0  0
 48 53  1  0  0  0  0
 49 69  1  0  0  0  0
 50 53  1  0  0  0  0
 50 69  1  0  0  0  0
 51 76  1  0  0  0  0
 52 68  1  0  0  0  0
 53 67  1  0  0  0  0
 56 63  1  0  0  0  0
 57 64  1  0  0  0  0
 58 64  1  0  0  0  0
 59 64  1  0  0  0  0
 60 78  1  0  0  0  0
 61 87  1  0  0  0  0
 62 64  1  0  0  0  0
 62 77  1  0  0  0  0
 63 78  1  0  0  0  0
 65 67  1  0  0  0  0
M  CHG  1  78   1
M  ISO  4  41 100  61 101  75 100  87 101
M  END
> <Batch ID>
0161

> <Smiles>
CNC(C)C(=O)NC(C(=O)N1Cc2cc([101O:1][101CH2:1]C(=O)C(=O)Nc3cc(NC=C(C)C)c(N)c([100NH:0][100C:0](=O)N4CCCC(n5nc(-c6ccc(Oc7ccc(F)cc7F)cc6)c(C(N)=O)c5N)C4)n3)ccc2CC1C(=O)NC1CCCc2ccccc21)C(C)(C)C

> <Shape>
0.288

> <Color>
0.101

> <Negative vol penalty>
0.000

$$$$

  -OEChem-04052303533D

 90 98  0     1  0  0  0  0  0999 V2000
  -29.9006  -32.3721   25.1386 C   0  0  0  0  0  0  0  0  0  0  0  0
  -29.6190  -31.1868   24.4669 C   0  0  0  0  0  0  0  0  0  0  0  0
  -18.2636  -16.5684   24.8782 C   0  0  0  0  0  0  0  0  0  0  0  0
  -19.9344  -18.2690   24.4865 C   0  0  0  0  0  0  0  0  0  0  0  0
  -28.8701  -33.0916   25.7422 C   0  0  0  0  0  0  0  0  0  0  0  0
  -28.3068  -30.7197   24.3994 C   0  0  0  0  0  0  0  0  0  0  0  0
  -27.0466  -29.1302   19.7594 C   0  0  0  0  0  0  0  0  0  0  0  0
  -17.9945  -17.1211   26.1303 C   0  0  0  0  0  0  0  0  0  0  0  0
  -19.6653  -18.8218   25.7385 C   0  0  0  0  0  0  0  0  0  0  0  0
  -27.5065  -27.8729   19.3703 C   0  0  0  0  0  0  0  0  0  0  0  0
  -17.3164  -20.8160   27.1264 C   0  0  0  0  0  0  0  0  0  0  0  0
  -17.1868  -22.2025   27.2068 C   0  0  0  0  0  0  0  0  0  0  0  0
  -27.6686  -14.3508   20.6632 C   0  0  0  0  0  0  0  0  0  0  0  0
  -29.2195  -16.2009   20.7545 C   0  0  0  0  0  0  0  0  0  0  0  0
  -25.3443  -26.9315   19.8779 C   0  0  0  0  0  0  0  0  0  0  0  0
  -26.8503  -16.6205   20.5364 C   0  0  0  0  0  0  0  0  0  0  0  0
  -19.0346  -22.2851   28.7612 C   0  0  0  0  0  0  0  0  0  0  0  0
  -19.2335  -17.1423   24.0563 C   0  0  0  0  0  0  0  0  0  0  0  0
  -28.9753  -14.8276   20.7663 C   0  0  0  0  0  0  0  0  0  0  0  0
  -18.8956  -16.8958   21.5398 C   0  0  0  0  0  0  0  0  0  0  0  0
  -27.5434  -32.6381   25.6739 C   0  0  0  0  0  0  0  0  0  0  0  0
  -25.7332  -29.2959   20.2217 C   0  0  0  0  0  0  0  0  0  0  0  0
  -27.2579  -31.4331   25.0039 C   0  0  0  0  0  0  0  0  0  0  0  0
  -24.8694  -28.1924   20.2698 C   0  0  0  0  0  0  0  0  0  0  0  0
  -26.6060  -15.2472   20.5482 C   0  0  0  0  0  0  0  0  0  0  0  0
  -28.1570  -17.0973   20.6395 C   0  0  0  0  0  0  0  0  0  0  0  0
  -18.6954  -18.2478   26.5605 C   0  0  0  0  0  0  0  0  0  0  0  0
  -26.6562  -26.7728   19.4322 C   0  0  0  0  0  0  0  0  0  0  0  0
  -18.3051  -20.1640   27.8635 C   0  0  0  0  0  0  0  0  0  0  0  0
  -18.0459  -22.9370   28.0241 C   0  0  0  0  0  0  0  0  0  0  0  0
  -19.1641  -20.8986   28.6809 C   0  0  0  0  0  0  0  0  0  0  0  0
  -19.5123  -16.5715   22.7630 C   0  0  0  0  0  0  0  0  0  0  0  0
  -19.5094  -16.0819   20.6194 C   0  0  0  0  0  0  0  0  0  0  0  0
  -30.0833  -13.8932   20.8867 C   0  0  0  0  0  0  0  0  0  0  0  0
  -17.8605  -17.8478   21.2605 C   0  0  0  0  0  0  0  0  0  0  0  0
  -31.5106  -14.3761   21.0002 C   0  0  0  0  0  0  0  0  0  0  0  0
  -24.4209  -30.2423   22.9578 C   0  0  0  0  0  0  0  0  0  0  0  0
  -27.9801  -20.8459   20.5303 C   0  0  0  0  0  0  0  0  0  0  0  0
  -27.5082  -23.2642   19.7678 C   0  0  0  0  0  0  0  0  0  0  0  0
  -21.6663  -30.0346   21.2575 C   0  0  0  0  0  0  0  0  0  0  0  0
  -19.9872  -28.6724   18.6171 C   0  0  0  0  0  0  0  0  0  0  0  0
  -24.8623  -13.4323   20.4407 C   0  0  0  0  0  0  0  0  0  0  0  0
  -26.4697  -33.4255   26.3823 C   0  0  0  0  0  0  0  0  0  0  0  0
  -25.2442  -30.6636   20.6125 C   0  0  0  0  0  0  0  0  0  0  0  0
  -23.4441  -28.3209   20.7396 C   0  0  0  0  0  0  0  0  0  0  0  0
  -25.0546  -33.0567   25.9443 C   0  0  0  0  0  0  0  0  0  0  0  0
  -21.6872  -11.8336   20.2404 C   0  0  0  0  0  0  0  0  0  0  0  0
  -24.8863  -31.5412   25.9037 C   0  0  0  0  0  0  0  0  0  0  0  0
  -20.7123  -12.8988   20.7475 C   0  0  0  0  0  0  0  0  0  0  0  0
  -23.0123  -11.8701   20.9996 C   0  0  0  0  0  0  0  0  0  0  0  0
  -22.6912  -14.2494   21.5517 C   0  0  0  0  0  0  0  0  0  0  0  0
  -25.8438  -30.9068   24.8878 C   0  0  1  0  0  0  0  0  0  0  0  0
  -24.0444  -30.6229   21.5539 C   0  0  1  0  0  0  0  0  0  0  0  0
  -21.3660  -14.2943   20.7735 C   0  0  2  0  0  0  0  0  0  0  0  0
  -32.0507  -14.6305   22.3718 C   0  0  0  0  0  0  0  0  0  0  0  0
  -17.7371  -28.6646   17.5059 C   0  0  0  0  0  0  0  0  0  0  0  0
  -20.5813  -28.2382   23.4724 C   0  0  0  0  0  0  0  0  0  0  0  0
  -18.7712  -27.5132   21.9021 C   0  0  0  0  0  0  0  0  0  0  0  0
  -18.9426  -29.9062   22.5853 C   0  0  0  0  0  0  0  0  0  0  0  0
  -21.1022  -29.7371   16.0908 C   0  0  0  0  0  0  0  0  0  0  0  0
  -26.9968  -21.9958   20.4211 C   0  0  0  0  0  0  0  0  0  0  0  0
  -27.3661  -19.4604   20.5132 C   0  0  0  0  0  0  0  0  0  0  0  0
  -26.5213  -24.4137   19.7018 C   0  0  0  0  0  0  0  0  0  1  0  0
  -20.6540  -28.9468   20.9907 C   0  0  1  0  0  0  0  0  0  0  0  0
  -19.1176  -29.3015   17.5435 C   0  0  2  0  0  0  0  0  0  0  0  0
  -19.7647  -28.6480   22.2306 C   0  0  0  0  0  0  0  0  0  0  0  0
  -20.4461  -15.6251   22.6347 N   0  0  0  0  0  0  0  0  0  0  0  0
  -29.9323  -12.5950   20.9060 N   0  0  0  0  0  0  0  0  0  0  0  0
  -32.1886  -14.5226   19.9123 N   0  0  0  0  0  0  0  0  0  0  0  0
  -20.4207  -15.3478   21.3200 N   0  0  0  0  0  0  0  0  0  0  0  0
  -23.0149  -29.6778   21.1168 N   0  0  0  0  0  0  0  0  0  0  0  0
  -23.5748  -13.2221   20.9783 N   0  0  0  0  0  0  0  0  0  0  0  0
  -19.3531  -15.9296   19.2872 N   0  0  0  0  0  0  0  0  0  0  0  0
  -17.3415  -18.6013   22.3223 N   0  0  0  0  0  0  0  0  0  0  0  0
  -25.2784  -14.7632   20.4442 N   0  0  0  0  0  0  0  0  0  0  0  0
  -28.3996  -18.4634   20.6280 N   0  0  0  0  0  0  0  0  0  0  0  0
  -25.3448  -31.0881   23.5414 N   0  0  0  0  0  0  0  0  0  0  0  0
  -19.9092  -29.3636   19.8076 N   0  0  0  0  0  0  0  0  0  0  0  0
  -19.7482  -29.1363   16.2034 N   0  3  0  0  0  0  0  0  0  0  0  0
  -17.3978  -18.0134   20.1064 O   0  0  0  0  0  0  0  0  0  0  0  0
  -23.9099  -29.2553   23.4739 O   0  0  0  0  0  0  0  0  0  0  0  0
  -29.1894  -21.0270   20.6643 O   0  0  0  0  0  0  0  0  0  0  0  0
  -28.6360  -23.3541   19.2854 O   0  0  0  0  0  0  0  0  0  0  0  0
  -21.2747  -31.1613   21.5719 O   0  0  0  0  0  0  0  0  0  0  0  0
  -20.6647  -27.6660   18.4203 O   0  0  0  0  0  0  0  0  0  0  0  0
  -25.5343  -12.5039   19.9840 O   0  0  0  0  0  0  0  0  0  0  0  0
  -18.4329  -18.7876   27.7821 O   0  0  0  0  0  0  0  0  0  0  0  0
  -27.1028  -25.5443   19.0537 O   0  0  0  0  0  0  0  0  0  1  0  0
  -17.9223  -24.2686   28.1000 F   0  0  0  0  0  0  0  0  0  0  0  0
  -20.1166  -20.2780   29.3904 F   0  0  0  0  0  0  0  0  0  0  0  0
  1  2  1  0  0  0  0
  1  5  2  0  0  0  0
  2  6  2  0  0  0  0
  3  8  2  0  0  0  0
  3 18  1  0  0  0  0
  4  9  1  0  0  0  0
  4 18  2  0  0  0  0
  5 21  1  0  0  0  0
  6 23  1  0  0  0  0
  7 10  2  0  0  0  0
  7 22  1  0  0  0  0
  8 27  1  0  0  0  0
  9 27  2  0  0  0  0
 10 28  1  0  0  0  0
 11 12  2  0  0  0  0
 11 29  1  0  0  0  0
 12 30  1  0  0  0  0
 13 19  2  0  0  0  0
 13 25  1  0  0  0  0
 14 19  1  0  0  0  0
 14 26  2  0  0  0  0
 15 24  1  0  0  0  0
 15 28  2  0  0  0  0
 16 25  2  0  0  0  0
 16 26  1  0  0  0  0
 17 30  2  0  0  0  0
 17 31  1  0  0  0  0
 18 32  1  0  0  0  0
 19 34  1  0  0  0  0
 20 32  1  0  0  0  0
 20 33  2  0  0  0  0
 20 35  1  0  0  0  0
 21 23  2  0  0  0  0
 21 43  1  0  0  0  0
 22 24  2  0  0  0  0
 22 44  1  0  0  0  0
 23 52  1  0  0  0  0
 24 45  1  0  0  0  0
 25 75  1  0  0  0  0
 26 76  1  0  0  0  0
 27 87  1  0  0  0  0
 28 88  1  0  0  0  0
 29 31  2  0  0  0  0
 29 87  1  0  0  0  0
 30 89  1  0  0  0  0
 31 90  1  0  0  0  0
 32 67  2  0  0  0  0
 33 70  1  0  0  0  0
 33 73  1  0  0  0  0
 34 36  1  0  0  0  0
 34 68  2  0  0  0  0
 35 74  1  0  0  0  0
 35 80  2  0  0  0  0
 36 55  1  0  0  0  0
 36 69  2  0  0  0  0
 37 53  1  0  0  0  0
 37 77  1  0  0  0  0
 37 81  2  0  0  0  0
 38 61  1  0  0  0  0
 38 62  1  0  0  0  0
 38 82  2  0  0  0  0
 39 61  1  0  0  0  0
 39 63  1  0  0  0  0
 39 83  2  0  0  0  0
 40 64  1  0  0  0  0
 40 71  1  0  0  0  0
 40 84  2  0  0  0  0
 41 65  1  0  0  0  0
 41 78  1  0  0  0  0
 41 85  2  0  0  0  0
 42 72  1  0  0  0  0
 42 75  1  0  0  0  0
 42 86  2  0  0  0  0
 43 46  1  0  0  0  0
 44 53  1  0  0  0  0
 45 71  1  0  0  0  0
 46 48  1  0  0  0  0
 47 49  1  0  0  0  0
 47 50  1  0  0  0  0
 48 52  1  0  0  0  0
 49 54  1  0  0  0  0
 50 72  1  0  0  0  0
 51 54  1  0  0  0  0
 51 72  1  0  0  0  0
 52 77  1  0  0  0  0
 53 71  1  0  0  0  0
 54 70  1  0  0  0  0
 56 65  1  0  0  0  0
 57 66  1  0  0  0  0
 58 66  1  0  0  0  0
 59 66  1  0  0  0  0
 60 79  1  0  0  0  0
 62 76  1  0  0  0  0
 63 88  1  0  0  0  0
 64 66  1  0  0  0  0
 64 78  1  0  0  0  0
 65 79  1  0  0  0  0
 67 70  1  0  0  0  0
M  CHG  1  79   1
M  ISO  4  42 100  63 101  75 100  88 101
M  END
> <Batch ID>
0161

> <Smiles>
CNC(C)C(=O)NC(C(=O)N1Cc2cc([101O:1][101CH2:1]C(=O)CC(=O)CNc3cc([100NH:0][100C:0](=O)N4CCCC(n5nc(-c6ccc(Oc7ccc(F)cc7F)cc6)c(C(N)=O)c5N)C4)cc(C(=N)C(C)=N)c3)ccc2CC1C(=O)NC1CCCc2ccccc21)C(C)(C)C

> <Shape>
0.264

> <Color>
0.089

> <Negative vol penalty>
0.000

$$$$

  -OEChem-04052303533D

 86 94  0     1  0  0  0  0  0999 V2000
  -29.6993  -35.1438   25.4713 C   0  0  0  0  0  0  0  0  0  0  0  0
  -29.4394  -33.9300   24.8432 C   0  0  0  0  0  0  0  0  0  0  0  0
  -30.2786  -22.3427   24.2685 C   0  0  0  0  0  0  0  0  0  0  0  0
  -24.1419   -9.6475   22.1923 C   0  0  0  0  0  0  0  0  0  0  0  0
  -22.8657  -10.2950   20.2457 C   0  0  0  0  0  0  0  0  0  0  0  0
  -30.0653  -20.9933   23.9871 C   0  0  0  0  0  0  0  0  0  0  0  0
  -28.6591  -35.8559   26.0670 C   0  0  0  0  0  0  0  0  0  0  0  0
  -28.1392  -33.4270   24.8114 C   0  0  0  0  0  0  0  0  0  0  0  0
  -26.8536  -31.6527   20.2459 C   0  0  0  0  0  0  0  0  0  0  0  0
  -29.7944  -23.3212   23.4003 C   0  0  0  0  0  0  0  0  0  0  0  0
  -23.2046   -8.6543   22.4765 C   0  0  0  0  0  0  0  0  0  0  0  0
  -21.9284   -9.3018   20.5298 C   0  0  0  0  0  0  0  0  0  0  0  0
  -27.3409  -30.3955   19.8910 C   0  0  0  0  0  0  0  0  0  0  0  0
  -22.4580   -5.5456   21.3758 C   0  0  0  0  0  0  0  0  0  0  0  0
  -22.9370   -4.2827   21.7237 C   0  0  0  0  0  0  0  0  0  0  0  0
  -25.2120  -29.4157   20.4626 C   0  0  0  0  0  0  0  0  0  0  0  0
  -21.8173   -4.4460   23.8584 C   0  0  0  0  0  0  0  0  0  0  0  0
  -23.9724  -10.4678   21.0770 C   0  0  0  0  0  0  0  0  0  0  0  0
  -29.3678  -20.6224   22.8375 C   0  0  0  0  0  0  0  0  0  0  0  0
  -26.0937  -11.3719   19.9859 C   0  0  0  0  0  0  0  0  0  0  0  0
  -27.3440  -35.3661   26.0341 C   0  0  0  0  0  0  0  0  0  0  0  0
  -25.5431  -31.7994   20.7229 C   0  0  0  0  0  0  0  0  0  0  0  0
  -27.0807  -34.1326   25.4084 C   0  0  0  0  0  0  0  0  0  0  0  0
  -24.7096  -30.6761   20.8205 C   0  0  0  0  0  0  0  0  0  0  0  0
  -28.8836  -21.6009   21.9692 C   0  0  0  0  0  0  0  0  0  0  0  0
  -29.0969  -22.9503   22.2507 C   0  0  0  0  0  0  0  0  0  0  0  0
  -22.0979   -8.4815   21.6452 C   0  0  0  0  0  0  0  0  0  0  0  0
  -26.5210  -29.2764   20.0021 C   0  0  0  0  0  0  0  0  0  0  0  0
  -21.6586   -6.2589   22.2692 C   0  0  0  0  0  0  0  0  0  0  0  0
  -22.6166   -3.7328   22.9650 C   0  0  0  0  0  0  0  0  0  0  0  0
  -21.3383   -5.7090   23.5105 C   0  0  0  0  0  0  0  0  0  0  0  0
  -24.9400  -11.4943   20.7832 C   0  0  0  0  0  0  0  0  0  0  0  0
  -26.6697  -12.6183   20.0219 C   0  0  0  0  0  0  0  0  0  0  0  0
  -29.1633  -19.2036   22.5746 C   0  0  0  0  0  0  0  0  0  0  0  0
  -28.4888  -18.3514   23.3727 C   0  0  0  0  0  0  0  0  0  0  0  0
  -27.6024  -27.2979   20.6241 C   0  0  0  0  0  0  0  0  0  1  0  0
  -26.5995  -10.2334   19.2762 C   0  0  0  0  0  0  0  0  0  0  0  0
  -28.1037  -26.0779   20.3962 C   0  0  0  0  0  0  0  0  0  0  0  0
  -28.3591  -16.9388   22.9620 C   0  0  0  0  0  0  0  0  0  0  0  0
  -28.7514  -25.3349   21.5261 C   0  0  0  0  0  0  0  0  0  0  0  0
  -24.2466  -32.8015   23.4466 C   0  0  0  0  0  0  0  0  0  0  0  0
  -21.4738  -32.4661   21.7969 C   0  0  0  0  0  0  0  0  0  0  0  0
  -19.7928  -30.9741   19.2288 C   0  0  0  0  0  0  0  0  0  0  0  0
  -26.2603  -36.1484   26.7330 C   0  0  0  0  0  0  0  0  0  0  0  0
  -25.0240  -33.1662   21.0763 C   0  0  0  0  0  0  0  0  0  0  0  0
  -23.2885  -30.7830   21.3078 C   0  0  0  0  0  0  0  0  0  0  0  0
  -24.8492  -35.7287   26.3293 C   0  0  0  0  0  0  0  0  0  0  0  0
  -24.9095  -17.0255   21.7272 C   0  0  0  0  0  0  0  0  0  0  0  0
  -24.7205  -34.2088   26.3409 C   0  0  0  0  0  0  0  0  0  0  0  0
  -24.6956  -15.5620   21.3503 C   0  0  0  0  0  0  0  0  0  0  0  0
  -25.8174  -17.1750   22.9470 C   0  0  0  0  0  0  0  0  0  0  0  0
  -26.9149  -15.0154   22.4256 C   0  0  0  0  0  0  0  0  0  0  0  0
  -25.6795  -33.5662   25.3315 C   0  0  1  0  0  0  0  0  0  0  0  0
  -23.8396  -33.1255   22.0370 C   0  0  1  0  0  0  0  0  0  0  0  0
  -26.0425  -14.8433   21.1724 C   0  0  1  0  0  0  0  0  0  0  0  0
  -26.6303  -21.4070   20.8868 C   0  0  0  0  0  0  0  0  0  0  0  0
  -17.5277  -30.8712   18.1535 C   0  0  0  0  0  0  0  0  0  0  0  0
  -20.4693  -30.7164   24.0859 C   0  0  0  0  0  0  0  0  0  0  0  0
  -18.6562  -29.8931   22.5685 C   0  0  0  0  0  0  0  0  0  0  0  0
  -18.7742  -32.3110   23.1704 C   0  0  0  0  0  0  0  0  0  0  0  0
  -20.8421  -31.9833   16.6521 C   0  0  0  0  0  0  0  0  0  0  0  0
  -28.1335  -21.2099   20.7324 C   0  0  0  0  0  0  0  0  0  0  0  0
  -20.4868  -31.3442   21.5816 C   0  0  1  0  0  0  0  0  0  0  0  0
  -18.8912  -31.5447   18.1489 C   0  0  2  0  0  0  0  0  0  0  0  0
  -19.6240  -31.0636   22.8442 C   0  0  0  0  0  0  0  0  0  0  0  0
  -24.7905  -12.7215   21.2889 N   0  0  0  0  0  0  0  0  0  0  0  0
  -25.8578  -13.3816   20.8082 N   0  0  0  0  0  0  0  0  0  0  0  0
  -27.0744  -16.4310   22.7768 N   0  0  0  0  0  0  0  0  0  0  0  0
  -22.8291  -32.1400   21.6471 N   0  0  0  0  0  0  0  0  0  0  0  0
  -27.7865  -13.1247   19.4573 N   0  0  0  0  0  0  0  0  0  0  0  0
  -25.8838   -9.0304   19.3462 N   0  0  0  0  0  0  0  0  0  0  0  0
  -28.6159  -23.9607   21.3835 N   0  0  0  0  0  0  0  0  0  0  0  0
  -25.1562  -33.6898   23.9879 N   0  0  0  0  0  0  0  0  0  0  0  0
  -19.7140  -31.7022   20.3972 N   0  0  0  0  0  0  0  0  0  0  0  0
  -19.5063  -31.3515   16.8053 N   0  3  0  0  0  0  0  0  0  0  0  0
  -27.6636  -10.2770   18.6134 O   0  0  0  0  0  0  0  0  0  0  0  0
  -29.3976  -16.2925   22.8124 O   0  0  0  0  0  0  0  0  0  0  0  0
  -29.3157  -25.9359   22.4339 O   0  0  0  0  0  0  0  0  0  0  0  0
  -23.7694  -31.8192   24.0026 O   0  0  0  0  0  0  0  0  0  0  0  0
  -21.0571  -33.5920   22.0803 O   0  0  0  0  0  0  0  0  0  0  0  0
  -20.4938  -29.9798   19.0546 O   0  0  0  0  0  0  0  0  0  0  0  0
  -28.0473  -25.4718   19.1576 O   0  0  0  0  0  0  0  0  0  0  0  0
  -21.1832   -7.5123   21.9220 O   0  0  0  0  0  0  0  0  0  0  0  0
  -26.9943  -28.0480   19.6570 O   0  0  0  0  0  0  0  0  0  1  0  0
  -23.0754   -2.5193   23.2983 F   0  0  0  0  0  0  0  0  0  0  0  0
  -20.5698   -6.3890   24.3725 F   0  0  0  0  0  0  0  0  0  0  0  0
  1  2  1  0  0  0  0
  1  7  2  0  0  0  0
  2  8  2  0  0  0  0
  3  6  1  0  0  0  0
  3 10  2  0  0  0  0
  4 11  2  0  0  0  0
  4 18  1  0  0  0  0
  5 12  1  0  0  0  0
  5 18  2  0  0  0  0
  6 19  2  0  0  0  0
  7 21  1  0  0  0  0
  8 23  1  0  0  0  0
  9 13  2  0  0  0  0
  9 22  1  0  0  0  0
 10 26  1  0  0  0  0
 11 27  1  0  0  0  0
 12 27  2  0  0  0  0
 13 28  1  0  0  0  0
 14 15  2  0  0  0  0
 14 29  1  0  0  0  0
 15 30  1  0  0  0  0
 16 24  1  0  0  0  0
 16 28  2  0  0  0  0
 17 30  2  0  0  0  0
 17 31  1  0  0  0  0
 18 32  1  0  0  0  0
 19 25  1  0  0  0  0
 19 34  1  0  0  0  0
 20 32  1  0  0  0  0
 20 33  2  0  0  0  0
 20 37  1  0  0  0  0
 21 23  2  0  0  0  0
 21 44  1  0  0  0  0
 22 24  2  0  0  0  0
 22 45  1  0  0  0  0
 23 53  1  0  0  0  0
 24 46  1  0  0  0  0
 25 26  2  0  0  0  0
 25 62  1  0  0  0  0
 26 72  1  0  0  0  0
 27 83  1  0  0  0  0
 28 84  1  0  0  0  0
 29 31  2  0  0  0  0
 29 83  1  0  0  0  0
 30 85  1  0  0  0  0
 31 86  1  0  0  0  0
 32 66  2  0  0  0  0
 33 67  1  0  0  0  0
 33 70  1  0  0  0  0
 34 35  2  0  0  0  0
 35 39  1  0  0  0  0
 36 38  2  0  0  0  0
 36 84  1  0  0  0  0
 37 71  1  0  0  0  0
 37 76  2  0  0  0  0
 38 40  1  0  0  0  0
 38 82  1  0  0  0  0
 39 68  1  0  0  0  0
 39 77  2  0  0  0  0
 40 72  1  0  0  0  0
 40 78  2  0  0  0  0
 41 54  1  0  0  0  0
 41 73  1  0  0  0  0
 41 79  2  0  0  0  0
 42 63  1  0  0  0  0
 42 69  1  0  0  0  0
 42 80  2  0  0  0  0
 43 64  1  0  0  0  0
 43 74  1  0  0  0  0
 43 81  2  0  0  0  0
 44 47  1  0  0  0  0
 45 54  1  0  0  0  0
 46 69  1  0  0  0  0
 47 49  1  0  0  0  0
 48 50  1  0  0  0  0
 48 51  1  0  0  0  0
 49 53  1  0  0  0  0
 50 55  1  0  0  0  0
 51 68  1  0  0  0  0
 52 55  1  0  0  0  0
 52 68  1  0  0  0  0
 53 73  1  0  0  0  0
 54 69  1  0  0  0  0
 55 67  1  0  0  0  0
 56 62  1  0  0  0  0
 57 64  1  0  0  0  0
 58 65  1  0  0  0  0
 59 65  1  0  0  0  0
 60 65  1  0  0  0  0
 61 75  1  0  0  0  0
 63 65  1  0  0  0  0
 63 74  1  0  0  0  0
 64 75  1  0  0  0  0
 66 67  1  0  0  0  0
M  CHG  1  75   1
M  ISO  4  35 100  36 101  39 100  84 101
M  END
> <Batch ID>
0161

> <Smiles>
CCc1c(C=[100CH:0][100C:0](=O)N2CCCC(n3nc(-c4ccc(Oc5ccc(F)cc5F)cc4)c(C(N)=O)c3N)C2)cccc1NC(=O)C(=O)[101CH2:1][101O:1]c1ccc2c(c1)CN(C(=O)C(NC(=O)C(C)NC)C(C)(C)C)C(C(=O)NC1CCCc3ccccc31)C2

> <Shape>
0.260

> <Color>
0.079

> <Negative vol penalty>
0.000

$$$$

  -OEChem-04052303533D

 84 92  0     1  0  0  0  0  0999 V2000
  -18.2613  -26.5510   23.2251 C   0  0  0  0  0  0  0  0  0  0  0  0
  -19.6028  -26.1827   23.2086 C   0  0  0  0  0  0  0  0  0  0  0  0
  -24.6001   -9.4240   21.2604 C   0  0  0  0  0  0  0  0  0  0  0  0
  -24.9060  -10.4218   23.4393 C   0  0  0  0  0  0  0  0  0  0  0  0
  -17.8632  -27.7556   22.6470 C   0  0  0  0  0  0  0  0  0  0  0  0
  -20.5468  -27.0184   22.6129 C   0  0  0  0  0  0  0  0  0  0  0  0
  -26.3389  -27.8921   24.4000 C   0  0  0  0  0  0  0  0  0  0  0  0
  -24.3604   -8.1877   21.8601 C   0  0  0  0  0  0  0  0  0  0  0  0
  -24.6663   -9.1855   24.0391 C   0  0  0  0  0  0  0  0  0  0  0  0
  -27.5480  -27.3572   23.9574 C   0  0  0  0  0  0  0  0  0  0  0  0
  -23.3118   -4.8455   22.8324 C   0  0  0  0  0  0  0  0  0  0  0  0
  -22.2377   -4.0923   22.3587 C   0  0  0  0  0  0  0  0  0  0  0  0
  -27.8815  -29.2895   22.5523 C   0  0  0  0  0  0  0  0  0  0  0  0
  -26.9748  -19.8652   21.4627 C   0  0  0  0  0  0  0  0  0  0  0  0
  -20.7233   -5.8789   22.9519 C   0  0  0  0  0  0  0  0  0  0  0  0
  -29.0494  -21.4326   20.5566 C   0  0  0  0  0  0  0  0  0  0  0  0
  -24.8730  -10.5411   22.0500 C   0  0  0  0  0  0  0  0  0  0  0  0
  -24.1715  -12.8072   21.1117 C   0  0  0  0  0  0  0  0  0  0  0  0
  -18.8042  -28.6110   22.0524 C   0  0  0  0  0  0  0  0  0  0  0  0
  -25.8861  -29.1267   23.9130 C   0  0  0  0  0  0  0  0  0  0  0  0
  -20.1607  -28.2350   22.0251 C   0  0  0  0  0  0  0  0  0  0  0  0
  -26.6677  -29.8391   22.9923 C   0  0  0  0  0  0  0  0  0  0  0  0
  -27.9016  -22.0475   21.0363 C   0  0  0  0  0  0  0  0  0  0  0  0
  -26.8558  -21.2514   21.4931 C   0  0  0  0  0  0  0  0  0  0  0  0
  -24.3935   -8.0685   23.2495 C   0  0  0  0  0  0  0  0  0  0  0  0
  -28.3181  -28.0545   23.0312 C   0  0  0  0  0  0  0  0  0  0  0  0
  -23.0918   -6.1154   23.3659 C   0  0  0  0  0  0  0  0  0  0  0  0
  -20.9434   -4.6090   22.4184 C   0  0  0  0  0  0  0  0  0  0  0  0
  -21.7975   -6.6321   23.4256 C   0  0  0  0  0  0  0  0  0  0  0  0
  -25.1212  -11.8183   21.4310 C   0  0  0  0  0  0  0  0  0  0  0  0
  -24.9071  -13.8197   20.5458 C   0  0  0  0  0  0  0  0  0  0  0  0
  -28.1460  -19.3055   20.9721 C   0  0  0  0  0  0  0  0  0  0  0  0
  -28.2433  -24.0257   22.1293 C   0  0  0  0  0  0  0  0  0  0  0  0
  -22.7514  -12.8103   21.3092 C   0  0  0  0  0  0  0  0  0  0  0  0
  -23.3459  -30.0925   22.2643 C   0  0  0  0  0  0  0  0  0  0  0  0
  -24.5761  -33.0377   22.8427 C   0  0  0  0  0  0  0  0  0  0  0  0
  -27.3127  -34.9428   23.5695 C   0  0  0  0  0  0  0  0  0  0  0  0
  -29.3650  -17.1552   20.4859 C   0  0  0  0  0  0  0  0  0  0  0  0
  -18.3196  -29.8808   21.3985 C   0  0  0  0  0  0  0  0  0  0  0  0
  -24.5926  -29.7026   24.4206 C   0  0  0  0  0  0  0  0  0  0  0  0
  -26.2359  -31.1778   22.4539 C   0  0  0  0  0  0  0  0  0  0  0  0
  -19.4343  -30.8856   21.1188 C   0  0  0  0  0  0  0  0  0  0  0  0
  -29.7328  -13.9305   19.0219 C   0  0  0  0  0  0  0  0  0  0  0  0
  -20.6304  -30.1907   20.4758 C   0  0  0  0  0  0  0  0  0  0  0  0
  -28.4877  -13.1749   19.4919 C   0  0  0  0  0  0  0  0  0  0  0  0
  -30.2660  -14.8716   20.1008 C   0  0  0  0  0  0  0  0  0  0  0  0
  -28.0320  -15.0501   21.1238 C   0  0  0  0  0  0  0  0  0  0  0  0
  -21.2180  -29.1263   21.4104 C   0  0  1  0  0  0  0  0  0  0  0  0
  -23.9805  -30.7265   23.4697 C   0  0  1  0  0  0  0  0  0  0  0  0
  -27.4204  -14.1379   20.0479 C   0  0  2  0  0  0  0  0  0  0  0  0
  -28.0127  -37.3235   23.9433 C   0  0  0  0  0  0  0  0  0  0  0  0
  -24.4433  -33.5461   19.8370 C   0  0  0  0  0  0  0  0  0  0  0  0
  -25.9927  -35.4849   20.1670 C   0  0  0  0  0  0  0  0  0  0  0  0
  -23.7478  -35.4854   21.2548 C   0  0  0  0  0  0  0  0  0  0  0  0
  -30.5713  -25.7482   21.4258 C   0  0  0  0  0  0  0  0  0  0  0  0
  -30.1628  -25.6237   23.8985 C   0  0  0  0  0  0  0  0  0  0  0  0
  -28.2009  -34.3696   26.3338 C   0  0  0  0  0  0  0  0  0  0  0  0
  -28.2174  -25.5281   22.2560 C   0  0  0  0  0  0  0  0  0  0  0  0
  -25.5511  -33.9470   22.1344 C   0  0  1  0  0  0  0  0  0  0  0  0
  -27.5339  -36.0372   24.5981 C   0  0  2  0  0  0  0  0  0  0  0  0
  -24.9412  -34.5897   20.8568 C   0  0  0  0  0  0  0  0  0  0  0  0
  -29.6061  -26.1120   22.5586 C   0  0  0  0  0  0  0  0  0  1  0  0
  -26.3652  -12.1706   21.0956 N   0  0  0  0  0  0  0  0  0  0  0  0
  -27.8201  -23.4500   21.0516 N   0  0  0  0  0  0  0  0  0  0  0  0
  -26.2021  -13.3922   20.5596 N   0  0  0  0  0  0  0  0  0  0  0  0
  -29.1376  -20.0956   20.5385 N   0  3  0  0  0  0  0  0  0  0  0  0
  -24.9606  -31.6960   22.9760 N   0  0  0  0  0  0  0  0  0  0  0  0
  -29.2008  -15.7568   20.5768 N   0  0  0  0  0  0  0  0  0  0  0  0
  -25.6690  -21.8322   21.9914 N   0  0  0  0  0  0  0  0  0  0  0  0
  -24.5659  -15.0250   20.0425 N   0  0  0  0  0  0  0  0  0  0  0  0
  -22.1572  -11.6895   21.9051 N   0  0  0  0  0  0  0  0  0  0  0  0
  -28.2731  -17.8947   20.9392 N   0  0  0  0  0  0  0  0  0  0  0  0
  -22.0198  -29.7473   22.4428 N   0  0  0  0  0  0  0  0  0  0  0  0
  -26.0063  -34.9118   23.1296 N   0  0  0  0  0  0  0  0  0  0  0  0
  -28.5539  -35.6105   25.5973 N   0  3  0  0  0  0  0  0  0  0  0  0
  -22.0287  -13.7715   20.9525 O   0  0  0  0  0  0  0  0  0  0  0  0
  -24.0097  -29.9300   21.2472 O   0  0  0  0  0  0  0  0  0  0  0  0
  -23.5157  -33.5024   23.2684 O   0  0  0  0  0  0  0  0  0  0  0  0
  -28.2101  -34.1931   23.1911 O   0  0  0  0  0  0  0  0  0  0  0  0
  -30.3873  -17.6592   20.0137 O   0  0  0  0  0  0  0  0  0  0  0  0
  -24.1594   -6.8623   23.8351 O   0  0  0  0  0  0  0  0  0  0  0  0
  -29.4982  -27.5344   22.5971 O   0  0  0  0  0  0  0  0  0  1  0  0
  -19.9122   -3.8862   21.9620 F   0  0  0  0  0  0  0  0  0  0  0  0
  -21.5800   -7.8520   23.9360 F   0  0  0  0  0  0  0  0  0  0  0  0
  1  2  1  0  0  0  0
  1  5  2  0  0  0  0
  2  6  2  0  0  0  0
  3  8  2  0  0  0  0
  3 17  1  0  0  0  0
  4  9  1  0  0  0  0
  4 17  2  0  0  0  0
  5 19  1  0  0  0  0
  6 21  1  0  0  0  0
  7 10  2  0  0  0  0
  7 20  1  0  0  0  0
  8 25  1  0  0  0  0
  9 25  2  0  0  0  0
 10 26  1  0  0  0  0
 11 12  2  0  0  0  0
 11 27  1  0  0  0  0
 12 28  1  0  0  0  0
 13 22  1  0  0  0  0
 13 26  2  0  0  0  0
 14 24  1  0  0  0  0
 14 32  2  0  0  0  0
 15 28  2  0  0  0  0
 15 29  1  0  0  0  0
 16 23  1  0  0  0  0
 16 66  2  0  0  0  0
 17 30  1  0  0  0  0
 18 30  1  0  0  0  0
 18 31  2  0  0  0  0
 18 34  1  0  0  0  0
 19 21  2  0  0  0  0
 19 39  1  0  0  0  0
 20 22  2  0  0  0  0
 20 40  1  0  0  0  0
 21 48  1  0  0  0  0
 22 41  1  0  0  0  0
 23 24  2  0  0  0  0
 23 64  1  0  0  0  0
 24 69  1  0  0  0  0
 25 81  1  0  0  0  0
 26 82  1  0  0  0  0
 27 29  2  0  0  0  0
 27 81  1  0  0  0  0
 28 83  1  0  0  0  0
 29 84  1  0  0  0  0
 30 63  2  0  0  0  0
 31 65  1  0  0  0  0
 31 70  1  0  0  0  0
 32 66  1  0  0  0  0
 32 72  1  0  0  0  0
 33 58  1  0  0  0  0
 33 64  2  0  0  0  0
 34 71  1  0  0  0  0
 34 76  2  0  0  0  0
 35 49  1  0  0  0  0
 35 73  1  0  0  0  0
 35 77  2  0  0  0  0
 36 59  1  0  0  0  0
 36 67  1  0  0  0  0
 36 78  2  0  0  0  0
 37 60  1  0  0  0  0
 37 74  1  0  0  0  0
 37 79  2  0  0  0  0
 38 68  1  0  0  0  0
 38 72  1  0  0  0  0
 38 80  2  0  0  0  0
 39 42  1  0  0  0  0
 40 49  1  0  0  0  0
 41 67  1  0  0  0  0
 42 44  1  0  0  0  0
 43 45  1  0  0  0  0
 43 46  1  0  0  0  0
 44 48  1  0  0  0  0
 45 50  1  0  0  0  0
 46 68  1  0  0  0  0
 47 50  1  0  0  0  0
 47 68  1  0  0  0  0
 48 73  1  0  0  0  0
 49 67  1  0  0  0  0
 50 65  1  0  0  0  0
 51 60  1  0  0  0  0
 52 61  1  0  0  0  0
 53 61  1  0  0  0  0
 54 61  1  0  0  0  0
 55 62  1  0  0  0  0
 56 62  1  0  0  0  0
 57 75  1  0  0  0  0
 58 62  1  0  0  0  0
 59 61  1  0  0  0  0
 59 74  1  0  0  0  0
 60 75  1  0  0  0  0
 62 82  1  0  0  0  0
 63 65  1  0  0  0  0
M  CHG  2  66   1  75   1
M  ISO  4  38 100  62 101  72 100  82 101
M  END
> <Batch ID>
0161

> <Smiles>
CNC(C)C(=O)NC(C(=O)N1Cc2cc([101O:1][101C:1](C)(C)C=CNc3cnc([100NH:0][100C:0](=O)N4CCCC(n5nc(-c6ccc(Oc7ccc(F)cc7F)cc6)c(C(N)=O)c5N)C4)cc3N)ccc2CC1C(=O)NC1CCCc2ccccc21)C(C)(C)C

> <Shape>
0.327

> <Color>
0.118

> <Negative vol penalty>
0.000

$$$$

  -OEChem-04052303533D

 84 92  0     1  0  0  0  0  0999 V2000
  -20.2586  -31.0403   22.7421 C   0  0  0  0  0  0  0  0  0  0  0  0
  -21.5358  -30.5005   22.6284 C   0  0  0  0  0  0  0  0  0  0  0  0
  -32.6094  -22.1506   17.3598 C   0  0  0  0  0  0  0  0  0  0  0  0
  -25.6732  -13.5033   21.8703 C   0  0  0  0  0  0  0  0  0  0  0  0
  -25.3615  -14.3233   19.6191 C   0  0  0  0  0  0  0  0  0  0  0  0
  -32.4184  -23.5286   17.2586 C   0  0  0  0  0  0  0  0  0  0  0  0
  -19.1475  -30.1987   22.7716 C   0  0  0  0  0  0  0  0  0  0  0  0
  -21.7026  -29.1186   22.5452 C   0  0  0  0  0  0  0  0  0  0  0  0
  -25.0076  -27.7736   18.9518 C   0  0  0  0  0  0  0  0  0  0  0  0
  -31.9034  -21.4167   18.3131 C   0  0  0  0  0  0  0  0  0  0  0  0
  -24.6179  -12.6091   21.6907 C   0  0  0  0  0  0  0  0  0  0  0  0
  -24.3062  -13.4289   19.4395 C   0  0  0  0  0  0  0  0  0  0  0  0
  -26.3627  -27.9120   19.2490 C   0  0  0  0  0  0  0  0  0  0  0  0
  -24.1130   -9.6208   20.1914 C   0  0  0  0  0  0  0  0  0  0  0  0
  -24.2959   -8.3071   20.6232 C   0  0  0  0  0  0  0  0  0  0  0  0
  -30.8155  -23.4390   19.0641 C   0  0  0  0  0  0  0  0  0  0  0  0
  -26.4916  -25.5520   19.7317 C   0  0  0  0  0  0  0  0  0  0  0  0
  -22.4240   -8.5427   22.1324 C   0  0  0  0  0  0  0  0  0  0  0  0
  -26.0450  -14.3605   20.8345 C   0  0  0  0  0  0  0  0  0  0  0  0
  -31.5215  -24.1728   18.1108 C   0  0  0  0  0  0  0  0  0  0  0  0
  -28.4972  -15.0582   20.7481 C   0  0  0  0  0  0  0  0  0  0  0  0
  -19.3001  -28.8063   22.6790 C   0  0  0  0  0  0  0  0  0  0  0  0
  -24.3808  -26.5233   19.0530 C   0  0  0  0  0  0  0  0  0  0  0  0
  -20.5925  -28.2575   22.5748 C   0  0  0  0  0  0  0  0  0  0  0  0
  -25.1290  -25.3999   19.4328 C   0  0  0  0  0  0  0  0  0  0  0  0
  -31.0064  -22.0609   19.1652 C   0  0  0  0  0  0  0  0  0  0  0  0
  -23.9345  -12.5718   20.4753 C   0  0  0  0  0  0  0  0  0  0  0  0
  -27.1042  -26.8017   19.6419 C   0  0  0  0  0  0  0  0  0  0  0  0
  -23.0856  -10.3954   20.7300 C   0  0  0  0  0  0  0  0  0  0  0  0
  -23.4514   -7.7681   21.5937 C   0  0  0  0  0  0  0  0  0  0  0  0
  -22.2411   -9.8563   21.7005 C   0  0  0  0  0  0  0  0  0  0  0  0
  -27.1346  -15.2849   21.0196 C   0  0  0  0  0  0  0  0  0  0  0  0
  -29.1161  -16.2356   21.0903 C   0  0  0  0  0  0  0  0  0  0  0  0
  -31.3182  -25.6315   18.0041 C   0  0  0  0  0  0  0  0  0  0  0  0
  -29.1455  -13.8879   20.2326 C   0  0  0  0  0  0  0  0  0  0  0  0
  -22.0082  -25.3388   20.8056 C   0  0  0  0  0  0  0  0  0  0  0  0
  -30.4547  -28.1541   20.1664 C   0  0  0  0  0  0  0  0  0  0  0  0
  -22.4341  -22.7351   18.9184 C   0  0  0  0  0  0  0  0  0  0  0  0
  -24.5125  -20.9234   16.9072 C   0  0  0  0  0  0  0  0  0  0  0  0
  -29.3624  -21.7981   21.0558 C   0  0  0  0  0  0  0  0  0  0  0  0
  -18.0723  -27.9343   22.7627 C   0  0  0  0  0  0  0  0  0  0  0  0
  -22.9244  -26.3857   18.7031 C   0  0  0  0  0  0  0  0  0  0  0  0
  -24.5080  -24.0317   19.5373 C   0  0  0  0  0  0  0  0  0  0  0  0
  -18.3096  -26.5016   22.2922 C   0  0  0  0  0  0  0  0  0  0  0  0
  -27.3583  -20.2792   23.5765 C   0  0  0  0  0  0  0  0  0  0  0  0
  -19.5938  -25.9460   22.8995 C   0  0  0  0  0  0  0  0  0  0  0  0
  -27.2335  -18.8258   23.1137 C   0  0  0  0  0  0  0  0  0  0  0  0
  -27.3443  -21.2526   22.3992 C   0  0  0  0  0  0  0  0  0  0  0  0
  -28.1989  -19.5109   20.8808 C   0  0  0  0  0  0  0  0  0  0  0  0
  -20.8125  -26.7649   22.4572 C   0  0  1  0  0  0  0  0  0  0  0  0
  -22.2707  -25.1616   19.3369 C   0  0  1  0  0  0  0  0  0  0  0  0
  -28.2736  -18.4892   22.0271 C   0  0  2  0  0  0  0  0  0  0  0  0
  -24.5901  -18.8219   15.5378 C   0  0  0  0  0  0  0  0  0  0  0  0
  -22.7054  -21.0850   21.4706 C   0  0  0  0  0  0  0  0  0  0  0  0
  -23.7043  -19.2480   20.0937 C   0  0  0  0  0  0  0  0  0  0  0  0
  -21.3642  -19.9964   19.6621 C   0  0  0  0  0  0  0  0  0  0  0  0
  -25.0218  -22.4304   14.4115 C   0  0  0  0  0  0  0  0  0  0  0  0
  -31.4459  -27.8491   19.0826 C   0  0  0  0  0  0  0  0  0  0  0  0
  -28.9904  -28.2398   19.8152 C   0  0  0  0  0  0  0  0  0  1  0  0
  -23.2880  -21.4921   18.9885 C   0  0  1  0  0  0  0  0  0  0  0  0
  -24.3056  -20.3158   15.5315 C   0  0  2  0  0  0  0  0  0  0  0  0
  -22.7770  -20.4814   20.0537 C   0  0  0  0  0  0  0  0  0  0  0  0
  -26.9010  -16.5100   21.4976 N   0  0  0  0  0  0  0  0  0  0  0  0
  -30.8669  -28.3322   21.3793 N   0  0  0  0  0  0  0  0  0  0  0  0
  -28.1252  -17.0636   21.5293 N   0  0  0  0  0  0  0  0  0  0  0  0
  -23.0795  -23.9496   19.1909 N   0  0  0  0  0  0  0  0  0  0  0  0
  -28.3580  -20.8736   21.4124 N   0  0  0  0  0  0  0  0  0  0  0  0
  -30.4057  -16.6330   21.0558 N   0  0  0  0  0  0  0  0  0  0  0  0
  -28.3604  -12.7661   19.9335 N   0  0  0  0  0  0  0  0  0  0  0  0
  -30.2897  -21.3147   20.1333 N   0  0  0  0  0  0  0  0  0  0  0  0
  -31.5891  -26.4031   19.0719 N   0  0  0  0  0  0  0  0  0  0  0  0
  -21.1938  -26.4140   21.1059 N   0  0  0  0  0  0  0  0  0  0  0  0
  -23.3403  -20.9559   17.6327 N   0  0  0  0  0  0  0  0  0  0  0  0
  -30.8701  -26.1205   16.8477 N   0  3  0  0  0  0  0  0  0  0  0  0
  -25.2096  -20.9622   14.5385 N   0  3  0  0  0  0  0  0  0  0  0  0
  -30.3865  -13.8328   20.0582 O   0  0  0  0  0  0  0  0  0  0  0  0
  -22.5064  -24.5571   21.6071 O   0  0  0  0  0  0  0  0  0  0  0  0
  -21.2402  -22.6329   18.6256 O   0  0  0  0  0  0  0  0  0  0  0  0
  -25.6054  -21.3253   17.3004 O   0  0  0  0  0  0  0  0  0  0  0  0
  -29.4132  -22.9255   21.5542 O   0  0  0  0  0  0  0  0  0  0  0  0
  -22.9048  -11.6991   20.2997 O   0  0  0  0  0  0  0  0  0  0  0  0
  -28.4269  -26.9341   19.9332 O   0  0  0  0  0  0  0  0  0  1  0  0
  -23.6262   -6.5061   22.0072 F   0  0  0  0  0  0  0  0  0  0  0  0
  -21.2516  -10.5952   22.2208 F   0  0  0  0  0  0  0  0  0  0  0  0
  1  2  1  0  0  0  0
  1  7  2  0  0  0  0
  2  8  2  0  0  0  0
  3  6  2  0  0  0  0
  3 10  1  0  0  0  0
  4 11  2  0  0  0  0
  4 19  1  0  0  0  0
  5 12  1  0  0  0  0
  5 19  2  0  0  0  0
  6 20  1  0  0  0  0
  7 22  1  0  0  0  0
  8 24  1  0  0  0  0
  9 13  2  0  0  0  0
  9 23  1  0  0  0  0
 10 26  2  0  0  0  0
 11 27  1  0  0  0  0
 12 27  2  0  0  0  0
 13 28  1  0  0  0  0
 14 15  2  0  0  0  0
 14 29  1  0  0  0  0
 15 30  1  0  0  0  0
 16 20  2  0  0  0  0
 16 26  1  0  0  0  0
 17 25  1  0  0  0  0
 17 28  2  0  0  0  0
 18 30  2  0  0  0  0
 18 31  1  0  0  0  0
 19 32  1  0  0  0  0
 20 34  1  0  0  0  0
 21 32  1  0  0  0  0
 21 33  2  0  0  0  0
 21 35  1  0  0  0  0
 22 24  2  0  0  0  0
 22 41  1  0  0  0  0
 23 25  2  0  0  0  0
 23 42  1  0  0  0  0
 24 50  1  0  0  0  0
 25 43  1  0  0  0  0
 26 70  1  0  0  0  0
 27 81  1  0  0  0  0
 28 82  1  0  0  0  0
 29 31  2  0  0  0  0
 29 81  1  0  0  0  0
 30 83  1  0  0  0  0
 31 84  1  0  0  0  0
 32 63  2  0  0  0  0
 33 65  1  0  0  0  0
 33 68  1  0  0  0  0
 34 71  1  0  0  0  0
 34 74  2  0  0  0  0
 35 69  1  0  0  0  0
 35 76  2  0  0  0  0
 36 51  1  0  0  0  0
 36 72  1  0  0  0  0
 36 77  2  0  0  0  0
 37 58  1  0  0  0  0
 37 59  1  0  0  0  0
 37 64  2  0  0  0  0
 38 60  1  0  0  0  0
 38 66  1  0  0  0  0
 38 78  2  0  0  0  0
 39 61  1  0  0  0  0
 39 73  1  0  0  0  0
 39 79  2  0  0  0  0
 40 67  1  0  0  0  0
 40 70  1  0  0  0  0
 40 80  2  0  0  0  0
 41 44  1  0  0  0  0
 42 51  1  0  0  0  0
 43 66  1  0  0  0  0
 44 46  1  0  0  0  0
 45 47  1  0  0  0  0
 45 48  1  0  0  0  0
 46 50  1  0  0  0  0
 47 52  1  0  0  0  0
 48 67  1  0  0  0  0
 49 52  1  0  0  0  0
 49 67  1  0  0  0  0
 50 72  1  0  0  0  0
 51 66  1  0  0  0  0
 52 65  1  0  0  0  0
 53 61  1  0  0  0  0
 54 62  1  0  0  0  0
 55 62  1  0  0  0  0
 56 62  1  0  0  0  0
 57 75  1  0  0  0  0
 58 71  1  0  0  0  0
 59 82  1  0  0  0  0
 60 62  1  0  0  0  0
 60 73  1  0  0  0  0
 61 75  1  0  0  0  0
 63 65  1  0  0  0  0
M  CHG  2  74   1  75   1
M  ISO  4  40 100  59 101  70 100  82 101
M  END
> <Batch ID>
0161

> <Smiles>
CNC(C)C(=O)NC(C(=O)N1Cc2cc([101O:1][101CH2:1]C(=N)CNC(=N)c3cccc([100NH:0][100C:0](=O)N4CCCC(n5nc(-c6ccc(Oc7ccc(F)cc7F)cc6)c(C(N)=O)c5N)C4)c3)ccc2CC1C(=O)NC1CCCc2ccccc21)C(C)(C)C

> <Shape>
0.262

> <Color>
0.064

> <Negative vol penalty>
0.000

$$$$

  -OEChem-04052303533D

 88 96  0     1  0  0  0  0  0999 V2000
  -30.9612  -32.8086   25.2234 C   0  0  0  0  0  0  0  0  0  0  0  0
  -30.6231  -31.7528   24.3828 C   0  0  0  0  0  0  0  0  0  0  0  0
  -23.7970   -9.4475   20.2702 C   0  0  0  0  0  0  0  0  0  0  0  0
  -24.2665   -9.9624   22.5835 C   0  0  0  0  0  0  0  0  0  0  0  0
  -30.0161  -33.3217   26.1108 C   0  0  0  0  0  0  0  0  0  0  0  0
  -29.3400  -31.2089   24.4300 C   0  0  0  0  0  0  0  0  0  0  0  0
  -27.3899  -30.4292   19.8220 C   0  0  0  0  0  0  0  0  0  0  0  0
  -23.3156   -8.1937   20.6469 C   0  0  0  0  0  0  0  0  0  0  0  0
  -23.7851   -8.7086   22.9603 C   0  0  0  0  0  0  0  0  0  0  0  0
  -27.8326  -29.3059   19.1249 C   0  0  0  0  0  0  0  0  0  0  0  0
  -20.7809   -7.2349   23.4326 C   0  0  0  0  0  0  0  0  0  0  0  0
  -19.9244   -7.1748   24.5319 C   0  0  0  0  0  0  0  0  0  0  0  0
  -25.8297  -28.1251   19.7675 C   0  0  0  0  0  0  0  0  0  0  0  0
  -27.9050  -19.0811   21.8334 C   0  0  0  0  0  0  0  0  0  0  0  0
  -21.4863   -5.7247   25.6696 C   0  0  0  0  0  0  0  0  0  0  0  0
  -29.6996  -19.0506   20.2728 C   0  0  0  0  0  0  0  0  0  0  0  0
  -24.2725  -10.3318   21.2385 C   0  0  0  0  0  0  0  0  0  0  0  0
  -24.0340  -12.8210   20.7337 C   0  0  0  0  0  0  0  0  0  0  0  0
  -28.7179  -32.7902   26.1620 C   0  0  0  0  0  0  0  0  0  0  0  0
  -26.1667  -30.4052   20.5073 C   0  0  0  0  0  0  0  0  0  0  0  0
  -28.3772  -31.7145   25.3199 C   0  0  0  0  0  0  0  0  0  0  0  0
  -25.3724  -29.2503   20.4703 C   0  0  0  0  0  0  0  0  0  0  0  0
  -27.7714  -20.4465   21.6068 C   0  0  0  0  0  0  0  0  0  0  0  0
  -28.8850  -18.3626   21.1577 C   0  0  0  0  0  0  0  0  0  0  0  0
  -23.3096   -7.8243   21.9920 C   0  0  0  0  0  0  0  0  0  0  0  0
  -27.0539  -28.1527   19.1000 C   0  0  0  0  0  0  0  0  0  0  0  0
  -21.9901   -6.5398   23.4518 C   0  0  0  0  0  0  0  0  0  0  0  0
  -20.2771   -6.4197   25.6504 C   0  0  0  0  0  0  0  0  0  0  0  0
  -22.3428   -5.7847   24.5703 C   0  0  0  0  0  0  0  0  0  0  0  0
  -24.7705  -11.6269   20.8498 C   0  0  0  0  0  0  0  0  0  0  0  0
  -28.6359  -21.0412   20.7020 C   0  0  0  0  0  0  0  0  0  0  0  0
  -24.9580  -13.7572   20.3386 C   0  0  0  0  0  0  0  0  0  0  0  0
  -22.6394  -13.0624   20.9626 C   0  0  0  0  0  0  0  0  0  0  0  0
  -25.2920  -30.7184   23.5471 C   0  0  0  0  0  0  0  0  0  0  0  0
  -28.7078  -24.5534   19.3707 C   0  0  0  0  0  0  0  0  0  0  0  0
  -22.3029  -30.6262   22.2906 C   0  0  0  0  0  0  0  0  0  0  0  0
  -20.2658  -29.6616   19.7280 C   0  0  0  0  0  0  0  0  0  0  0  0
  -29.9784  -16.1275   20.7640 C   0  0  0  0  0  0  0  0  0  0  0  0
  -27.7449  -33.3468   27.1710 C   0  0  0  0  0  0  0  0  0  0  0  0
  -25.6907  -31.6342   21.2323 C   0  0  0  0  0  0  0  0  0  0  0  0
  -24.0420  -29.1800   21.1728 C   0  0  0  0  0  0  0  0  0  0  0  0
  -26.2939  -32.9610   26.8951 C   0  0  0  0  0  0  0  0  0  0  0  0
  -29.7302  -13.2064   18.7434 C   0  0  0  0  0  0  0  0  0  0  0  0
  -26.1878  -31.4718   26.5822 C   0  0  0  0  0  0  0  0  0  0  0  0
  -28.3571  -12.6333   19.1017 C   0  0  0  0  0  0  0  0  0  0  0  0
  -30.4238  -13.8191   19.9588 C   0  0  0  0  0  0  0  0  0  0  0  0
  -28.2556  -14.2392   21.0505 C   0  0  0  0  0  0  0  0  0  0  0  0
  -26.9881  -31.1139   25.3241 C   0  0  1  0  0  0  0  0  0  0  0  0
  -24.6689  -31.3265   22.3225 C   0  0  1  0  0  0  0  0  0  0  0  0
  -27.4907  -13.6689   19.8449 C   0  0  2  0  0  0  0  0  0  0  0  0
  -17.8637  -29.6927   19.0024 C   0  0  0  0  0  0  0  0  0  0  0  0
  -27.1500  -20.2822   24.6358 C   0  0  0  0  0  0  0  0  0  0  0  0
  -28.3602  -22.3510   23.9438 C   0  0  0  0  0  0  0  0  0  0  0  0
  -25.9032  -22.4338   24.4363 C   0  0  0  0  0  0  0  0  0  0  0  0
  -21.6849  -28.3687   24.2480 C   0  0  0  0  0  0  0  0  0  0  0  0
  -19.6705  -27.8170   22.8675 C   0  0  0  0  0  0  0  0  0  0  0  0
  -19.8490  -30.0448   23.9754 C   0  0  0  0  0  0  0  0  0  0  0  0
  -20.8932  -31.2635   17.3199 C   0  0  0  0  0  0  0  0  0  0  0  0
  -26.7199  -21.2140   22.3334 C   0  0  0  0  0  0  0  0  0  0  0  0
  -29.1935  -25.3765   18.1849 C   0  0  0  0  0  0  0  0  0  0  0  0
  -29.0192  -23.0717   19.3035 C   0  0  0  0  0  0  0  0  0  0  0  0
  -28.8946  -26.8613   18.3255 C   0  0  0  0  0  0  0  0  0  1  0  0
  -21.3089  -29.5346   21.9753 C   0  0  1  0  0  0  0  0  0  0  0  0
  -19.2016  -30.4138   18.9494 C   0  0  2  0  0  0  0  0  0  0  0  0
  -27.0305  -21.5872   23.8203 C   0  0  0  0  0  0  0  0  0  0  0  0
  -20.6542  -28.9416   23.2548 C   0  0  0  0  0  0  0  0  0  0  0  0
  -29.5999  -20.3761   20.0267 N   0  0  0  0  0  0  0  0  0  0  0  0
  -26.0627  -11.7870   20.5524 N   0  0  0  0  0  0  0  0  0  0  0  0
  -26.1455  -13.0928   20.2454 N   0  0  0  0  0  0  0  0  0  0  0  0
  -23.6231  -30.4053   21.8733 N   0  0  0  0  0  0  0  0  0  0  0  0
  -29.5452  -14.7936   20.6095 N   0  0  0  0  0  0  0  0  0  0  0  0
  -24.8625  -15.0758   20.0653 N   0  0  0  0  0  0  0  0  0  0  0  0
  -21.8327  -11.9890   21.3645 N   0  0  0  0  0  0  0  0  0  0  0  0
  -29.0456  -16.9704   21.3672 N   0  0  0  0  0  0  0  0  0  0  0  0
  -28.5066  -22.4032   20.4728 N   0  0  0  0  0  0  0  0  0  0  0  0
  -26.2628  -31.5068   24.1350 N   0  0  0  0  0  0  0  0  0  0  0  0
  -20.3585  -30.1088   21.0291 N   0  0  0  0  0  0  0  0  0  0  0  0
  -19.6050  -30.5515   17.5213 N   0  3  0  0  0  0  0  0  0  0  0  0
  -22.1206  -14.1927   20.7992 O   0  0  0  0  0  0  0  0  0  0  0  0
  -24.9187  -29.6162   23.9311 O   0  0  0  0  0  0  0  0  0  0  0  0
  -28.1027  -25.0571   20.3160 O   0  0  0  0  0  0  0  0  0  0  0  0
  -21.9205  -31.6408   22.8788 O   0  0  0  0  0  0  0  0  0  0  0  0
  -20.9442  -28.7644   19.2328 O   0  0  0  0  0  0  0  0  0  0  0  0
  -31.0841  -16.5011   20.3642 O   0  0  0  0  0  0  0  0  0  0  0  0
  -22.8397   -6.6011   22.3600 O   0  0  0  0  0  0  0  0  0  0  0  0
  -27.4840  -27.0546   18.4209 O   0  0  0  0  0  0  0  0  0  1  0  0
  -19.4552   -6.3633   26.7065 F   0  0  0  0  0  0  0  0  0  0  0  0
  -23.5038   -5.1158   24.5951 F   0  0  0  0  0  0  0  0  0  0  0  0
  1  2  1  0  0  0  0
  1  5  2  0  0  0  0
  2  6  2  0  0  0  0
  3  8  2  0  0  0  0
  3 17  1  0  0  0  0
  4  9  1  0  0  0  0
  4 17  2  0  0  0  0
  5 19  1  0  0  0  0
  6 21  1  0  0  0  0
  7 10  2  0  0  0  0
  7 20  1  0  0  0  0
  8 25  1  0  0  0  0
  9 25  2  0  0  0  0
 10 26  1  0  0  0  0
 11 12  2  0  0  0  0
 11 27  1  0  0  0  0
 12 28  1  0  0  0  0
 13 22  1  0  0  0  0
 13 26  2  0  0  0  0
 14 23  1  0  0  0  0
 14 24  2  0  0  0  0
 15 28  2  0  0  0  0
 15 29  1  0  0  0  0
 16 24  1  0  0  0  0
 16 67  2  0  0  0  0
 17 30  1  0  0  0  0
 18 30  1  0  0  0  0
 18 32  2  0  0  0  0
 18 33  1  0  0  0  0
 19 21  2  0  0  0  0
 19 39  1  0  0  0  0
 20 22  2  0  0  0  0
 20 40  1  0  0  0  0
 21 48  1  0  0  0  0
 22 41  1  0  0  0  0
 23 31  2  0  0  0  0
 23 59  1  0  0  0  0
 24 74  1  0  0  0  0
 25 85  1  0  0  0  0
 26 86  1  0  0  0  0
 27 29  2  0  0  0  0
 27 85  1  0  0  0  0
 28 87  1  0  0  0  0
 29 88  1  0  0  0  0
 30 68  2  0  0  0  0
 31 67  1  0  0  0  0
 31 75  1  0  0  0  0
 32 69  1  0  0  0  0
 32 72  1  0  0  0  0
 33 73  1  0  0  0  0
 33 79  2  0  0  0  0
 34 49  1  0  0  0  0
 34 76  1  0  0  0  0
 34 80  2  0  0  0  0
 35 60  1  0  0  0  0
 35 61  1  0  0  0  0
 35 81  2  0  0  0  0
 36 63  1  0  0  0  0
 36 70  1  0  0  0  0
 36 82  2  0  0  0  0
 37 64  1  0  0  0  0
 37 77  1  0  0  0  0
 37 83  2  0  0  0  0
 38 71  1  0  0  0  0
 38 74  1  0  0  0  0
 38 84  2  0  0  0  0
 39 42  1  0  0  0  0
 40 49  1  0  0  0  0
 41 70  1  0  0  0  0
 42 44  1  0  0  0  0
 43 45  1  0  0  0  0
 43 46  1  0  0  0  0
 44 48  1  0  0  0  0
 45 50  1  0  0  0  0
 46 71  1  0  0  0  0
 47 50  1  0  0  0  0
 47 71  1  0  0  0  0
 48 76  1  0  0  0  0
 49 70  1  0  0  0  0
 50 69  1  0  0  0  0
 51 64  1  0  0  0  0
 52 65  1  0  0  0  0
 53 65  1  0  0  0  0
 54 65  1  0  0  0  0
 55 66  1  0  0  0  0
 56 66  1  0  0  0  0
 57 66  1  0  0  0  0
 58 78  1  0  0  0  0
 59 65  1  0  0  0  0
 60 62  1  0  0  0  0
 61 75  1  0  0  0  0
 62 86  1  0  0  0  0
 63 66  1  0  0  0  0
 63 77  1  0  0  0  0
 64 78  1  0  0  0  0
 68 69  1  0  0  0  0
M  CHG  1  78   1
M  ISO  4  38 100  62 101  74 100  86 101
M  END
> <Batch ID>
0161

> <Smiles>
CNC(C)C(=O)NC(C(=O)N1Cc2cc([101O:1][101CH2:1]CC(=O)CNc3ncc([100NH:0][100C:0](=O)N4CCCC(n5nc(-c6ccc(Oc7ccc(F)cc7F)cc6)c(C(N)=O)c5N)C4)cc3CC(C)(C)C)ccc2CC1C(=O)NC1CCCc2ccccc21)C(C)(C)C

> <Shape>
0.379

> <Color>
0.155

> <Negative vol penalty>
0.000

$$$$

  -OEChem-04052303533D

 85 93  0     1  0  0  0  0  0999 V2000
  -19.9907  -31.3805   26.6170 C   0  0  0  0  0  0  0  0  0  0  0  0
  -21.1720  -30.6906   26.3640 C   0  0  0  0  0  0  0  0  0  0  0  0
  -24.3664   -9.1291   21.5721 C   0  0  0  0  0  0  0  0  0  0  0  0
  -24.7125  -10.4689   23.5525 C   0  0  0  0  0  0  0  0  0  0  0  0
  -18.9497  -31.3412   25.6904 C   0  0  0  0  0  0  0  0  0  0  0  0
  -21.3125  -29.9600   25.1847 C   0  0  0  0  0  0  0  0  0  0  0  0
  -26.4387  -29.1792   21.9262 C   0  0  0  0  0  0  0  0  0  0  0  0
  -24.0411   -8.0327   22.3706 C   0  0  0  0  0  0  0  0  0  0  0  0
  -24.3871   -9.3725   24.3511 C   0  0  0  0  0  0  0  0  0  0  0  0
  -27.3645  -28.1383   21.8690 C   0  0  0  0  0  0  0  0  0  0  0  0
  -21.3676   -6.9359   24.1264 C   0  0  0  0  0  0  0  0  0  0  0  0
  -20.2501   -6.1820   23.7681 C   0  0  0  0  0  0  0  0  0  0  0  0
  -26.2212  -27.2351   19.9464 C   0  0  0  0  0  0  0  0  0  0  0  0
  -29.6890  -18.1830   22.4949 C   0  0  0  0  0  0  0  0  0  0  0  0
  -21.6478   -4.2265   23.5236 C   0  0  0  0  0  0  0  0  0  0  0  0
  -24.7022  -10.3472   22.1630 C   0  0  0  0  0  0  0  0  0  0  0  0
  -24.1585  -12.4551   20.8331 C   0  0  0  0  0  0  0  0  0  0  0  0
  -19.0811  -30.6176   24.4947 C   0  0  0  0  0  0  0  0  0  0  0  0
  -25.3891  -29.2500   20.9989 C   0  0  0  0  0  0  0  0  0  0  0  0
  -20.2717  -29.9098   24.2418 C   0  0  0  0  0  0  0  0  0  0  0  0
  -25.2849  -28.2794   19.9924 C   0  0  0  0  0  0  0  0  0  0  0  0
  -30.8408  -17.4828   22.0632 C   0  0  0  0  0  0  0  0  0  0  0  0
  -24.0513   -8.1544   23.7601 C   0  0  0  0  0  0  0  0  0  0  0  0
  -27.2541  -27.1645   20.8808 C   0  0  0  0  0  0  0  0  0  0  0  0
  -22.6253   -6.3352   24.1831 C   0  0  0  0  0  0  0  0  0  0  0  0
  -20.3902   -4.8273   23.4668 C   0  0  0  0  0  0  0  0  0  0  0  0
  -22.7653   -4.9805   23.8817 C   0  0  0  0  0  0  0  0  0  0  0  0
  -25.0390  -11.4799   21.3387 C   0  0  0  0  0  0  0  0  0  0  0  0
  -31.5340  -18.3509   21.2522 C   0  0  0  0  0  0  0  0  0  0  0  0
  -29.7606  -19.4292   21.9171 C   0  0  0  0  0  0  0  0  0  0  0  0
  -24.9639  -13.3067   20.1172 C   0  0  0  0  0  0  0  0  0  0  0  0
  -27.6915  -24.8677   20.9471 C   0  0  0  0  0  0  0  0  0  1  0  0
  -28.8053  -21.2846   20.9997 C   0  0  0  0  0  0  0  0  0  0  0  0
  -22.7395  -12.5799   20.9960 C   0  0  0  0  0  0  0  0  0  0  0  0
  -28.4873  -23.7933   20.9055 C   0  0  0  0  0  0  0  0  0  0  0  0
  -27.8776  -22.4510   21.0528 C   0  0  0  0  0  0  0  0  0  0  0  0
  -22.2174  -29.1644   21.1904 C   0  0  0  0  0  0  0  0  0  0  0  0
  -22.3973  -29.8290   18.0204 C   0  0  0  0  0  0  0  0  0  0  0  0
  -24.2157  -29.7141   15.1348 C   0  0  0  0  0  0  0  0  0  0  0  0
  -30.7894  -14.6508   20.4470 C   0  0  0  0  0  0  0  0  0  0  0  0
  -17.9106  -30.5659   23.5451 C   0  0  0  0  0  0  0  0  0  0  0  0
  -24.4143  -30.3940   21.0578 C   0  0  0  0  0  0  0  0  0  0  0  0
  -24.1883  -28.3212   18.9608 C   0  0  0  0  0  0  0  0  0  0  0  0
  -18.2809  -30.0747   22.1480 C   0  0  0  0  0  0  0  0  0  0  0  0
  -29.0410  -13.3865   17.6148 C   0  0  0  0  0  0  0  0  0  0  0  0
  -19.1551  -28.8277   22.2349 C   0  0  0  0  0  0  0  0  0  0  0  0
  -27.7376  -12.8425   18.2024 C   0  0  0  0  0  0  0  0  0  0  0  0
  -30.2228  -13.1566   18.5542 C   0  0  0  0  0  0  0  0  0  0  0  0
  -28.7282  -13.1199   20.5134 C   0  0  0  0  0  0  0  0  0  0  0  0
  -20.4714  -29.1263   22.9626 C   0  0  1  0  0  0  0  0  0  0  0  0
  -23.0853  -30.0822   20.3767 C   0  0  1  0  0  0  0  0  0  0  0  0
  -27.4980  -13.3784   19.6267 C   0  0  2  0  0  0  0  0  0  0  0  0
  -32.7926  -18.2428   20.4997 C   0  0  0  0  0  0  0  0  0  0  0  0
  -24.0829  -30.2990   12.6981 C   0  0  0  0  0  0  0  0  0  0  0  0
  -20.6100  -27.4034   17.5381 C   0  0  0  0  0  0  0  0  0  0  0  0
  -21.2848  -27.4728   15.1281 C   0  0  0  0  0  0  0  0  0  0  0  0
  -20.0610  -29.3994   16.1348 C   0  0  0  0  0  0  0  0  0  0  0  0
  -26.5005  -31.5840   15.3401 C   0  0  0  0  0  0  0  0  0  0  0  0
  -31.2174  -16.1015   22.4146 C   0  0  0  0  0  0  0  0  0  0  0  0
  -22.4792  -29.0048   16.7583 C   0  0  1  0  0  0  0  0  0  0  0  0
  -24.5023  -30.7696   14.0821 C   0  0  2  0  0  0  0  0  0  0  0  0
  -21.1284  -28.3180   16.4103 C   0  0  0  0  0  0  0  0  0  0  0  0
  -26.3066  -11.6914   20.9747 N   0  0  0  0  0  0  0  0  0  0  0  0
  -28.8657  -20.5071   22.0243 N   0  0  0  0  0  0  0  0  0  0  0  0
  -26.2285  -12.8091   20.2327 N   0  0  0  0  0  0  0  0  0  0  0  0
  -23.2561  -29.4561   19.0641 N   0  0  0  0  0  0  0  0  0  0  0  0
  -29.9319  -13.6892   19.8874 N   0  0  0  0  0  0  0  0  0  0  0  0
  -24.7066  -14.4252   19.4064 N   0  0  0  0  0  0  0  0  0  0  0  0
  -22.0679  -11.6182   21.7631 N   0  0  0  0  0  0  0  0  0  0  0  0
  -21.3895  -29.8178   22.0832 N   0  0  0  0  0  0  0  0  0  0  0  0
  -22.9805  -29.8979   15.7194 N   0  0  0  0  0  0  0  0  0  0  0  0
  -30.4375  -15.1076   21.7113 N   0  0  0  0  0  0  0  0  0  0  0  0
  -25.9580  -31.0869   14.0495 N   0  3  0  0  0  0  0  0  0  0  0  0
  -22.0842  -13.5073   20.4632 O   0  0  0  0  0  0  0  0  0  0  0  0
  -26.6882  -22.2236   21.2063 O   0  0  0  0  0  0  0  0  0  0  0  0
  -22.2922  -27.9533   21.0197 O   0  0  0  0  0  0  0  0  0  0  0  0
  -21.6057  -30.7734   18.0757 O   0  0  0  0  0  0  0  0  0  0  0  0
  -25.0068  -28.8142   15.4084 O   0  0  0  0  0  0  0  0  0  0  0  0
  -31.7911  -15.0751   19.8609 O   0  0  0  0  0  0  0  0  0  0  0  0
  -30.8824  -19.5396   21.1581 O   0  0  0  0  0  0  0  0  0  0  0  0
  -29.8518  -23.8734   20.7349 O   0  0  0  0  0  0  0  0  0  0  0  0
  -23.7336   -7.0849   24.5397 O   0  0  0  0  0  0  0  0  0  0  0  0
  -28.1560  -26.1470   20.8232 O   0  0  0  0  0  0  0  0  0  1  0  0
  -19.3167   -4.1030   23.1243 F   0  0  0  0  0  0  0  0  0  0  0  0
  -23.9708   -4.3975   23.9357 F   0  0  0  0  0  0  0  0  0  0  0  0
  1  2  1  0  0  0  0
  1  5  2  0  0  0  0
  2  6  2  0  0  0  0
  3  8  2  0  0  0  0
  3 16  1  0  0  0  0
  4  9  1  0  0  0  0
  4 16  2  0  0  0  0
  5 18  1  0  0  0  0
  6 20  1  0  0  0  0
  7 10  2  0  0  0  0
  7 19  1  0  0  0  0
  8 23  1  0  0  0  0
  9 23  2  0  0  0  0
 10 24  1  0  0  0  0
 11 12  2  0  0  0  0
 11 25  1  0  0  0  0
 12 26  1  0  0  0  0
 13 21  1  0  0  0  0
 13 24  2  0  0  0  0
 14 22  1  0  0  0  0
 14 30  2  0  0  0  0
 15 26  2  0  0  0  0
 15 27  1  0  0  0  0
 16 28  1  0  0  0  0
 17 28  1  0  0  0  0
 17 31  2  0  0  0  0
 17 34  1  0  0  0  0
 18 20  2  0  0  0  0
 18 41  1  0  0  0  0
 19 21  2  0  0  0  0
 19 42  1  0  0  0  0
 20 50  1  0  0  0  0
 21 43  1  0  0  0  0
 22 29  2  0  0  0  0
 22 59  1  0  0  0  0
 23 82  1  0  0  0  0
 24 83  1  0  0  0  0
 25 27  2  0  0  0  0
 25 82  1  0  0  0  0
 26 84  1  0  0  0  0
 27 85  1  0  0  0  0
 28 63  2  0  0  0  0
 29 53  1  0  0  0  0
 29 80  1  0  0  0  0
 30 64  1  0  0  0  0
 30 80  1  0  0  0  0
 31 65  1  0  0  0  0
 31 68  1  0  0  0  0
 32 35  2  0  0  0  0
 32 83  1  0  0  0  0
 33 36  1  0  0  0  0
 33 64  2  0  0  0  0
 34 69  1  0  0  0  0
 34 74  2  0  0  0  0
 35 36  1  0  0  0  0
 35 81  1  0  0  0  0
 36 75  2  0  0  0  0
 37 51  1  0  0  0  0
 37 70  1  0  0  0  0
 37 76  2  0  0  0  0
 38 60  1  0  0  0  0
 38 66  1  0  0  0  0
 38 77  2  0  0  0  0
 39 61  1  0  0  0  0
 39 71  1  0  0  0  0
 39 78  2  0  0  0  0
 40 67  1  0  0  0  0
 40 72  1  0  0  0  0
 40 79  2  0  0  0  0
 41 44  1  0  0  0  0
 42 51  1  0  0  0  0
 43 66  1  0  0  0  0
 44 46  1  0  0  0  0
 45 47  1  0  0  0  0
 45 48  1  0  0  0  0
 46 50  1  0  0  0  0
 47 52  1  0  0  0  0
 48 67  1  0  0  0  0
 49 52  1  0  0  0  0
 49 67  1  0  0  0  0
 50 70  1  0  0  0  0
 51 66  1  0  0  0  0
 52 65  1  0  0  0  0
 54 61  1  0  0  0  0
 55 62  1  0  0  0  0
 56 62  1  0  0  0  0
 57 62  1  0  0  0  0
 58 73  1  0  0  0  0
 59 72  1  0  0  0  0
 60 62  1  0  0  0  0
 60 71  1  0  0  0  0
 61 73  1  0  0  0  0
 63 65  1  0  0  0  0
M  CHG  1  73   1
M  ISO  4  32 101  40 100  72 100  83 101
M  END
> <Batch ID>
0161

> <Smiles>
CNC(C)C(=O)NC(C(=O)N1Cc2cc([101O:1][101CH2:1]C(=O)C(=O)CNc3cc(C=[100N:0][100C:0](=O)N4CCCC(n5nc(-c6ccc(Oc7ccc(F)cc7F)cc6)c(C(N)=O)c5N)C4)c(C)o3)ccc2CC1C(=O)NC1CCCc2ccccc21)C(C)(C)C

> <Shape>
0.301

> <Color>
0.127

> <Negative vol penalty>
0.000

$$$$

  -OEChem-04052303533D

 85 93  0     1  0  0  0  0  0999 V2000
  -30.5172  -24.9267   18.0597 C   0  0  0  0  0  0  0  0  0  0  0  0
  -29.1346  -24.8680   18.2032 C   0  0  0  0  0  0  0  0  0  0  0  0
  -25.0237  -13.9706   20.4283 C   0  0  0  0  0  0  0  0  0  0  0  0
  -22.9352  -15.1159   20.8322 C   0  0  0  0  0  0  0  0  0  0  0  0
  -31.2899  -25.5750   19.0224 C   0  0  0  0  0  0  0  0  0  0  0  0
  -28.5241  -25.4566   19.3101 C   0  0  0  0  0  0  0  0  0  0  0  0
  -23.0573  -28.2127   19.4668 C   0  0  0  0  0  0  0  0  0  0  0  0
  -24.5354  -12.8456   21.0929 C   0  0  0  0  0  0  0  0  0  0  0  0
  -22.4468  -13.9910   21.4968 C   0  0  0  0  0  0  0  0  0  0  0  0
  -21.7970  -27.7740   19.8703 C   0  0  0  0  0  0  0  0  0  0  0  0
  -22.4672  -10.2569   20.4191 C   0  0  0  0  0  0  0  0  0  0  0  0
  -22.6783   -9.0117   19.8271 C   0  0  0  0  0  0  0  0  0  0  0  0
  -22.1546  -28.7625   22.0415 C   0  0  0  0  0  0  0  0  0  0  0  0
  -22.6923  -23.0899   22.5242 C   0  0  0  0  0  0  0  0  0  0  0  0
  -23.9171   -8.2961   21.7740 C   0  0  0  0  0  0  0  0  0  0  0  0
  -24.6105  -24.0262   23.5733 C   0  0  0  0  0  0  0  0  0  0  0  0
  -22.5273  -24.7330   24.2357 C   0  0  0  0  0  0  0  0  0  0  0  0
  -24.2237  -15.1058   20.2981 C   0  0  0  0  0  0  0  0  0  0  0  0
  -24.6208  -16.5580   18.2387 C   0  0  0  0  0  0  0  0  0  0  0  0
  -30.6876  -26.1802   20.1366 C   0  0  0  0  0  0  0  0  0  0  0  0
  -23.8816  -28.9213   20.3527 C   0  0  0  0  0  0  0  0  0  0  0  0
  -29.2896  -26.1124   20.2892 C   0  0  0  0  0  0  0  0  0  0  0  0
  -23.4240  -29.2113   21.6460 C   0  0  0  0  0  0  0  0  0  0  0  0
  -24.0765  -23.1521   22.6402 C   0  0  0  0  0  0  0  0  0  0  0  0
  -23.2469  -12.8558   21.6271 C   0  0  0  0  0  0  0  0  0  0  0  0
  -21.3466  -28.0464   21.1587 C   0  0  0  0  0  0  0  0  0  0  0  0
  -22.9811  -10.5218   21.6886 C   0  0  0  0  0  0  0  0  0  0  0  0
  -21.8957  -23.8922   23.3335 C   0  0  0  0  0  0  0  0  0  0  0  0
  -23.4033   -8.0313   20.5045 C   0  0  0  0  0  0  0  0  0  0  0  0
  -23.7060   -9.5413   22.3660 C   0  0  0  0  0  0  0  0  0  0  0  0
  -24.7278  -16.2683   19.6122 C   0  0  0  0  0  0  0  0  0  0  0  0
  -25.2549  -17.7676   18.0925 C   0  0  0  0  0  0  0  0  0  0  0  0
  -24.0034  -15.8014   17.1889 C   0  0  0  0  0  0  0  0  0  0  0  0
  -26.7399  -28.4158   21.6482 C   0  0  0  0  0  0  0  0  0  0  0  0
  -18.6950  -25.6933   21.9187 C   0  0  0  0  0  0  0  0  0  0  0  0
  -26.3274  -31.4273   22.7809 C   0  0  0  0  0  0  0  0  0  0  0  0
  -24.1715  -33.9285   23.6428 C   0  0  0  0  0  0  0  0  0  0  0  0
  -26.3083  -22.3033   21.8372 C   0  0  0  0  0  0  0  0  0  0  0  0
  -31.5684  -26.8285   21.1751 C   0  0  0  0  0  0  0  0  0  0  0  0
  -25.2277  -29.4107   19.8934 C   0  0  0  0  0  0  0  0  0  0  0  0
  -24.2622  -29.9861   22.6286 C   0  0  0  0  0  0  0  0  0  0  0  0
  -30.8108  -27.7513   22.1263 C   0  0  0  0  0  0  0  0  0  0  0  0
  -28.7346  -20.4294   20.0265 C   0  0  0  0  0  0  0  0  0  0  0  0
  -29.5379  -27.0748   22.6254 C   0  0  0  0  0  0  0  0  0  0  0  0
  -27.9711  -19.1789   19.5846 C   0  0  0  0  0  0  0  0  0  0  0  0
  -28.3096  -20.8908   21.4195 C   0  0  0  0  0  0  0  0  0  0  0  0
  -26.1009  -19.8324   21.1538 C   0  0  0  0  0  0  0  0  0  0  0  0
  -28.5882  -26.7603   21.4633 C   0  0  1  0  0  0  0  0  0  0  0  0
  -26.1913  -29.6781   21.0455 C   0  0  1  0  0  0  0  0  0  0  0  0
  -26.4483  -19.3676   19.7301 C   0  0  2  0  0  0  0  0  0  0  0  0
  -24.1286  -36.2587   24.5733 C   0  0  0  0  0  0  0  0  0  0  0  0
  -17.6339  -23.6315   22.8943 C   0  0  0  0  0  0  0  0  0  0  0  0
  -18.0071  -23.7640   20.4338 C   0  0  0  0  0  0  0  0  0  0  0  0
  -26.8921  -30.3220   25.5682 C   0  0  0  0  0  0  0  0  0  0  0  0
  -25.9190  -32.4223   26.5222 C   0  0  0  0  0  0  0  0  0  0  0  0
  -27.9566  -32.5334   25.0875 C   0  0  0  0  0  0  0  0  0  0  0  0
  -22.8909  -35.0044   21.2012 C   0  0  0  0  0  0  0  0  0  0  0  0
  -19.6219  -26.4214   20.9577 C   0  0  0  0  0  0  0  0  0  1  0  0
  -19.9822  -23.5301   21.9685 C   0  0  0  0  0  0  0  0  0  0  0  0
  -25.7188  -32.0275   24.0252 C   0  0  1  0  0  0  0  0  0  0  0  0
  -24.1635  -35.4100   23.3118 C   0  0  2  0  0  0  0  0  0  0  0  0
  -18.5855  -24.1560   21.8017 C   0  0  0  0  0  0  0  0  0  0  0  0
  -26.6064  -31.8100   25.2832 C   0  0  0  0  0  0  0  0  0  0  0  0
  -23.8689  -24.8210   24.3769 N   0  0  0  0  0  0  0  0  0  0  0  0
  -25.3788  -17.2173   20.2902 N   0  0  0  0  0  0  0  0  0  0  0  0
  -25.6866  -18.1151   19.3387 N   0  0  0  0  0  0  0  0  0  0  0  0
  -25.5734  -30.4376   22.1344 N   0  0  0  0  0  0  0  0  0  0  0  0
  -26.8553  -21.0524   21.4812 N   0  0  0  0  0  0  0  0  0  0  0  0
  -25.4798  -18.5571   17.0209 N   0  0  0  0  0  0  0  0  0  0  0  0
  -23.3972  -14.5801   17.5132 N   0  0  0  0  0  0  0  0  0  0  0  0
  -24.9145  -22.3461   21.8304 N   0  0  0  0  0  0  0  0  0  0  0  0
  -27.8932  -27.9572   21.0405 N   0  0  0  0  0  0  0  0  0  0  0  0
  -25.4544  -33.4284   23.7154 N   0  0  0  0  0  0  0  0  0  0  0  0
  -22.9716  -35.7494   22.4840 N   0  3  0  0  0  0  0  0  0  0  0  0
  -24.0040  -16.1889   15.9959 O   0  0  0  0  0  0  0  0  0  0  0  0
  -26.1607  -27.8971   22.5954 O   0  0  0  0  0  0  0  0  0  0  0  0
  -18.0784  -26.3182   22.7851 O   0  0  0  0  0  0  0  0  0  0  0  0
  -27.4279  -31.8271   22.3926 O   0  0  0  0  0  0  0  0  0  0  0  0
  -23.1428  -33.2806   23.8228 O   0  0  0  0  0  0  0  0  0  0  0  0
  -27.0238  -23.2733   22.1003 O   0  0  0  0  0  0  0  0  0  0  0  0
  -22.7699  -11.7582   22.2754 O   0  0  0  0  0  0  0  0  0  0  0  0
  -20.1171  -27.6189   21.5554 O   0  0  0  0  0  0  0  0  0  1  0  0
  -20.5295  -23.8513   23.2421 O   0  0  0  0  0  0  0  0  0  0  0  0
  -23.6046   -6.8351   19.9365 F   0  0  0  0  0  0  0  0  0  0  0  0
  -24.2012   -9.7895   23.5863 F   0  0  0  0  0  0  0  0  0  0  0  0
  1  2  1  0  0  0  0
  1  5  2  0  0  0  0
  2  6  2  0  0  0  0
  3  8  2  0  0  0  0
  3 18  1  0  0  0  0
  4  9  1  0  0  0  0
  4 18  2  0  0  0  0
  5 20  1  0  0  0  0
  6 22  1  0  0  0  0
  7 10  2  0  0  0  0
  7 21  1  0  0  0  0
  8 25  1  0  0  0  0
  9 25  2  0  0  0  0
 10 26  1  0  0  0  0
 11 12  2  0  0  0  0
 11 27  1  0  0  0  0
 12 29  1  0  0  0  0
 13 23  1  0  0  0  0
 13 26  2  0  0  0  0
 14 24  1  0  0  0  0
 14 28  2  0  0  0  0
 15 29  2  0  0  0  0
 15 30  1  0  0  0  0
 16 24  2  0  0  0  0
 16 64  1  0  0  0  0
 17 28  1  0  0  0  0
 17 64  2  0  0  0  0
 18 31  1  0  0  0  0
 19 31  1  0  0  0  0
 19 32  2  0  0  0  0
 19 33  1  0  0  0  0
 20 22  2  0  0  0  0
 20 39  1  0  0  0  0
 21 23  2  0  0  0  0
 21 40  1  0  0  0  0
 22 48  1  0  0  0  0
 23 41  1  0  0  0  0
 24 71  1  0  0  0  0
 25 81  1  0  0  0  0
 26 82  1  0  0  0  0
 27 30  2  0  0  0  0
 27 81  1  0  0  0  0
 28 83  1  0  0  0  0
 29 84  1  0  0  0  0
 30 85  1  0  0  0  0
 31 65  2  0  0  0  0
 32 66  1  0  0  0  0
 32 69  1  0  0  0  0
 33 70  1  0  0  0  0
 33 75  2  0  0  0  0
 34 49  1  0  0  0  0
 34 72  1  0  0  0  0
 34 76  2  0  0  0  0
 35 58  1  0  0  0  0
 35 62  1  0  0  0  0
 35 77  2  0  0  0  0
 36 60  1  0  0  0  0
 36 67  1  0  0  0  0
 36 78  2  0  0  0  0
 37 61  1  0  0  0  0
 37 73  1  0  0  0  0
 37 79  2  0  0  0  0
 38 68  1  0  0  0  0
 38 71  1  0  0  0  0
 38 80  2  0  0  0  0
 39 42  1  0  0  0  0
 40 49  1  0  0  0  0
 41 67  1  0  0  0  0
 42 44  1  0  0  0  0
 43 45  1  0  0  0  0
 43 46  1  0  0  0  0
 44 48  1  0  0  0  0
 45 50  1  0  0  0  0
 46 68  1  0  0  0  0
 47 50  1  0  0  0  0
 47 68  1  0  0  0  0
 48 72  1  0  0  0  0
 49 67  1  0  0  0  0
 50 66  1  0  0  0  0
 51 61  1  0  0  0  0
 52 62  1  0  0  0  0
 53 62  1  0  0  0  0
 54 63  1  0  0  0  0
 55 63  1  0  0  0  0
 56 63  1  0  0  0  0
 57 74  1  0  0  0  0
 58 82  1  0  0  0  0
 59 62  1  0  0  0  0
 59 83  1  0  0  0  0
 60 63  1  0  0  0  0
 60 73  1  0  0  0  0
 61 74  1  0  0  0  0
 65 66  1  0  0  0  0
M  CHG  1  74   1
M  ISO  4  38 100  58 101  71 100  82 101
M  END
> <Batch ID>
0161

> <Smiles>
CNC(C)C(=O)NC(C(=O)N1Cc2cc([101O:1][101CH2:1]C(=O)C(C)(C)COc3cncc([100NH:0][100C:0](=O)N4CCCC(n5nc(-c6ccc(Oc7ccc(F)cc7F)cc6)c(C(N)=O)c5N)C4)c3)ccc2CC1C(=O)NC1CCCc2ccccc21)C(C)(C)C

> <Shape>
0.299

> <Color>
0.062

> <Negative vol penalty>
0.000

$$$$

  -OEChem-04052303533D

 83 91  0     1  0  0  0  0  0999 V2000
  -17.7244  -25.4202   24.4604 C   0  0  0  0  0  0  0  0  0  0  0  0
  -19.0479  -25.0028   24.3629 C   0  0  0  0  0  0  0  0  0  0  0  0
  -24.9332  -10.9522   22.4786 C   0  0  0  0  0  0  0  0  0  0  0  0
  -25.0395  -11.7067   20.1859 C   0  0  0  0  0  0  0  0  0  0  0  0
  -17.3360  -26.6380   23.9036 C   0  0  0  0  0  0  0  0  0  0  0  0
  -19.9836  -25.8025   23.7076 C   0  0  0  0  0  0  0  0  0  0  0  0
  -25.9026  -26.4646   25.1330 C   0  0  0  0  0  0  0  0  0  0  0  0
  -23.6733  -10.4035   22.2396 C   0  0  0  0  0  0  0  0  0  0  0  0
  -23.7796  -11.1579   19.9469 C   0  0  0  0  0  0  0  0  0  0  0  0
  -27.0618  -25.8851   24.6189 C   0  0  0  0  0  0  0  0  0  0  0  0
  -22.4001   -7.6246   20.7940 C   0  0  0  0  0  0  0  0  0  0  0  0
  -22.1496   -6.3409   21.2786 C   0  0  0  0  0  0  0  0  0  0  0  0
  -27.3790  -27.8022   23.1894 C   0  0  0  0  0  0  0  0  0  0  0  0
  -20.3345   -7.2017   22.6208 C   0  0  0  0  0  0  0  0  0  0  0  0
  -28.9917  -18.8307   18.1404 C   0  0  0  0  0  0  0  0  0  0  0  0
  -25.6163  -11.6039   21.4517 C   0  0  0  0  0  0  0  0  0  0  0  0
  -28.1646  -11.5361   21.5466 C   0  0  0  0  0  0  0  0  0  0  0  0
  -18.2693  -27.4576   23.2496 C   0  0  0  0  0  0  0  0  0  0  0  0
  -25.4663  -27.7145   24.6706 C   0  0  0  0  0  0  0  0  0  0  0  0
  -19.6069  -27.0318   23.1404 C   0  0  0  0  0  0  0  0  0  0  0  0
  -26.2154  -28.3966   23.7011 C   0  0  0  0  0  0  0  0  0  0  0  0
  -23.0965  -10.5063   20.9738 C   0  0  0  0  0  0  0  0  0  0  0  0
  -27.7986  -26.5525   23.6449 C   0  0  0  0  0  0  0  0  0  0  0  0
  -21.6178   -8.6970   21.2228 C   0  0  0  0  0  0  0  0  0  0  0  0
  -21.1168   -6.1294   22.1920 C   0  0  0  0  0  0  0  0  0  0  0  0
  -20.5850   -8.4855   22.1362 C   0  0  0  0  0  0  0  0  0  0  0  0
  -26.9176  -12.1714   21.6981 C   0  0  0  0  0  0  0  0  0  0  0  0
  -29.1659  -19.1298   19.4754 C   0  0  0  0  0  0  0  0  0  0  0  0
  -29.0831  -12.4931   21.9032 C   0  0  0  0  0  0  0  0  0  0  0  0
  -29.9363  -20.9949   18.6163 C   0  0  0  0  0  0  0  0  0  0  0  0
  -28.8137  -25.1849   22.0418 C   0  0  0  0  0  0  0  0  0  1  0  0
  -28.4659  -10.2004   21.1214 C   0  0  0  0  0  0  0  0  0  0  0  0
  -29.8587  -24.5806   21.4645 C   0  0  0  0  0  0  0  0  0  0  0  0
  -29.6329  -23.7168   20.2632 C   0  0  0  0  0  0  0  0  0  0  0  0
  -22.8667  -28.7712   23.1775 C   0  0  0  0  0  0  0  0  0  0  0  0
  -24.2373  -31.6698   23.6693 C   0  0  0  0  0  0  0  0  0  0  0  0
  -27.0813  -33.4738   24.2204 C   0  0  0  0  0  0  0  0  0  0  0  0
  -28.9653  -18.4673   21.8976 C   0  0  0  0  0  0  0  0  0  0  0  0
  -17.7924  -28.7436   22.6223 C   0  0  0  0  0  0  0  0  0  0  0  0
  -24.2284  -28.3382   25.2546 C   0  0  0  0  0  0  0  0  0  0  0  0
  -25.8008  -29.7497   23.1858 C   0  0  0  0  0  0  0  0  0  0  0  0
  -18.9239  -29.7063   22.2713 C   0  0  0  0  0  0  0  0  0  0  0  0
  -29.5780  -16.3522   24.6955 C   0  0  0  0  0  0  0  0  0  0  0  0
  -20.0520  -28.9672   21.5586 C   0  0  0  0  0  0  0  0  0  0  0  0
  -29.0844  -14.9809   24.2284 C   0  0  0  0  0  0  0  0  0  0  0  0
  -28.6990  -17.4828   24.1637 C   0  0  0  0  0  0  0  0  0  0  0  0
  -28.0013  -16.1077   22.2423 C   0  0  0  0  0  0  0  0  0  0  0  0
  -20.6564  -27.8830   22.4590 C   0  0  1  0  0  0  0  0  0  0  0  0
  -23.5970  -29.3828   24.3395 C   0  0  1  0  0  0  0  0  0  0  0  0
  -28.8930  -14.9417   22.6995 C   0  0  2  0  0  0  0  0  0  0  0  0
  -27.8897  -35.8276   24.5425 C   0  0  0  0  0  0  0  0  0  0  0  0
  -23.9388  -32.1793   20.6757 C   0  0  0  0  0  0  0  0  0  0  0  0
  -25.5755  -34.0602   20.9034 C   0  0  0  0  0  0  0  0  0  0  0  0
  -23.4033  -34.1445   22.1269 C   0  0  0  0  0  0  0  0  0  0  0  0
  -28.1160  -32.8714   26.9270 C   0  0  0  0  0  0  0  0  0  0  0  0
  -30.8608  -23.0636   19.6609 C   0  0  0  0  0  0  0  0  0  0  0  0
  -25.1996  -32.5418   22.8995 C   0  0  1  0  0  0  0  0  0  0  0  0
  -27.4052  -34.5604   25.2298 C   0  0  2  0  0  0  0  0  0  0  0  0
  -24.5363  -33.2051   21.6595 C   0  0  0  0  0  0  0  0  0  0  0  0
  -27.0299  -13.4343   22.1183 N   0  0  0  0  0  0  0  0  0  0  0  0
  -29.7078  -20.3702   19.7502 N   0  0  0  0  0  0  0  0  0  0  0  0
  -28.3585  -13.6002   22.2340 N   0  0  0  0  0  0  0  0  0  0  0  0
  -24.5798  -30.3150   23.7833 N   0  0  0  0  0  0  0  0  0  0  0  0
  -28.5663  -17.3837   22.7085 N   0  0  0  0  0  0  0  0  0  0  0  0
  -30.4317  -12.4871   21.9630 N   0  0  0  0  0  0  0  0  0  0  0  0
  -27.4030   -9.3482   20.7925 N   0  0  0  0  0  0  0  0  0  0  0  0
  -28.8231  -18.2456   20.5282 N   0  0  0  0  0  0  0  0  0  0  0  0
  -30.4791  -22.2674   18.5209 N   0  0  0  0  0  0  0  0  0  0  0  0
  -21.5424  -28.4752   23.4381 N   0  0  0  0  0  0  0  0  0  0  0  0
  -25.7501  -33.4903   23.8616 N   0  0  0  0  0  0  0  0  0  0  0  0
  -28.4684  -34.0976   26.1659 N   0  3  0  0  0  0  0  0  0  0  0  0
  -29.6421   -9.7700   21.0515 O   0  0  0  0  0  0  0  0  0  0  0  0
  -28.5052  -23.5547   19.8000 O   0  0  0  0  0  0  0  0  0  0  0  0
  -23.4604  -28.5832   22.1221 O   0  0  0  0  0  0  0  0  0  0  0  0
  -23.2227  -32.1737   24.1577 O   0  0  0  0  0  0  0  0  0  0  0  0
  -27.9257  -32.6912   23.7903 O   0  0  0  0  0  0  0  0  0  0  0  0
  -29.4265  -19.5043   22.3812 O   0  0  0  0  0  0  0  0  0  0  0  0
  -31.1494  -24.7160   21.9284 O   0  0  0  0  0  0  0  0  0  0  0  0
  -21.8672   -9.9707   20.7402 O   0  0  0  0  0  0  0  0  0  0  0  0
  -28.9300  -25.9888   23.1409 O   0  0  0  0  0  0  0  0  0  1  0  0
  -20.8754   -4.8963   22.6561 F   0  0  0  0  0  0  0  0  0  0  0  0
  -19.8293   -9.5115   22.5509 F   0  0  0  0  0  0  0  0  0  0  0  0
  -29.5228  -20.1495   17.1813 S   0  0  0  0  0  0  0  0  0  0  0  0
  1  2  1  0  0  0  0
  1  5  2  0  0  0  0
  2  6  2  0  0  0  0
  3  8  2  0  0  0  0
  3 16  1  0  0  0  0
  4  9  1  0  0  0  0
  4 16  2  0  0  0  0
  5 18  1  0  0  0  0
  6 20  1  0  0  0  0
  7 10  2  0  0  0  0
  7 19  1  0  0  0  0
  8 22  1  0  0  0  0
  9 22  2  0  0  0  0
 10 23  1  0  0  0  0
 11 12  2  0  0  0  0
 11 24  1  0  0  0  0
 12 25  1  0  0  0  0
 13 21  1  0  0  0  0
 13 23  2  0  0  0  0
 14 25  2  0  0  0  0
 14 26  1  0  0  0  0
 15 28  2  0  0  0  0
 15 83  1  0  0  0  0
 16 27  1  0  0  0  0
 17 27  1  0  0  0  0
 17 29  2  0  0  0  0
 17 32  1  0  0  0  0
 18 20  2  0  0  0  0
 18 39  1  0  0  0  0
 19 21  2  0  0  0  0
 19 40  1  0  0  0  0
 20 48  1  0  0  0  0
 21 41  1  0  0  0  0
 22 79  1  0  0  0  0
 23 80  1  0  0  0  0
 24 26  2  0  0  0  0
 24 79  1  0  0  0  0
 25 81  1  0  0  0  0
 26 82  1  0  0  0  0
 27 60  2  0  0  0  0
 28 61  1  0  0  0  0
 28 67  1  0  0  0  0
 29 62  1  0  0  0  0
 29 65  1  0  0  0  0
 30 61  2  0  0  0  0
 30 68  1  0  0  0  0
 30 83  1  0  0  0  0
 31 33  2  0  0  0  0
 31 80  1  0  0  0  0
 32 66  1  0  0  0  0
 32 72  2  0  0  0  0
 33 34  1  0  0  0  0
 33 78  1  0  0  0  0
 34 56  1  0  0  0  0
 34 73  2  0  0  0  0
 35 49  1  0  0  0  0
 35 69  1  0  0  0  0
 35 74  2  0  0  0  0
 36 57  1  0  0  0  0
 36 63  1  0  0  0  0
 36 75  2  0  0  0  0
 37 58  1  0  0  0  0
 37 70  1  0  0  0  0
 37 76  2  0  0  0  0
 38 64  1  0  0  0  0
 38 67  1  0  0  0  0
 38 77  2  0  0  0  0
 39 42  1  0  0  0  0
 40 49  1  0  0  0  0
 41 63  1  0  0  0  0
 42 44  1  0  0  0  0
 43 45  1  0  0  0  0
 43 46  1  0  0  0  0
 44 48  1  0  0  0  0
 45 50  1  0  0  0  0
 46 64  1  0  0  0  0
 47 50  1  0  0  0  0
 47 64  1  0  0  0  0
 48 69  1  0  0  0  0
 49 63  1  0  0  0  0
 50 62  1  0  0  0  0
 51 58  1  0  0  0  0
 52 59  1  0  0  0  0
 53 59  1  0  0  0  0
 54 59  1  0  0  0  0
 55 71  1  0  0  0  0
 56 68  1  0  0  0  0
 57 59  1  0  0  0  0
 57 70  1  0  0  0  0
 58 71  1  0  0  0  0
 60 62  1  0  0  0  0
M  CHG  1  71   1
M  ISO  4  31 101  38 100  67 100  80 101
M  END
> <Batch ID>
0161

> <Smiles>
CNC(C)C(=O)NC(C(=O)N1Cc2cc([101O:1][101CH2:1]C(=O)C(=O)CNc3nc([100NH:0][100C:0](=O)N4CCCC(n5nc(-c6ccc(Oc7ccc(F)cc7F)cc6)c(C(N)=O)c5N)C4)cs3)ccc2CC1C(=O)NC1CCCc2ccccc21)C(C)(C)C

> <Shape>
0.259

> <Color>
0.068

> <Negative vol penalty>
0.000

$$$$

  -OEChem-04052303533D

 87 96  0     1  0  0  0  0  0999 V2000
  -24.4491  -22.5928   16.9278 C   0  0  0  0  0  0  0  0  0  0  0  0
  -25.1207  -21.3855   16.7722 C   0  0  0  0  0  0  0  0  0  0  0  0
  -23.1461  -25.8161   21.0386 C   0  0  0  0  0  0  0  0  0  0  0  0
  -24.1679  -25.5632   23.2133 C   0  0  0  0  0  0  0  0  0  0  0  0
  -23.7779  -22.8642   18.1182 C   0  0  0  0  0  0  0  0  0  0  0  0
  -25.1114  -20.4443   17.8022 C   0  0  0  0  0  0  0  0  0  0  0  0
  -31.0652  -19.9621   25.4157 C   0  0  0  0  0  0  0  0  0  0  0  0
  -27.9535  -15.0765   18.2890 C   0  0  0  0  0  0  0  0  0  0  0  0
  -30.6283  -20.7552   24.3547 C   0  0  0  0  0  0  0  0  0  0  0  0
  -21.8872  -25.8718   21.6366 C   0  0  0  0  0  0  0  0  0  0  0  0
  -22.9090  -25.6190   23.8113 C   0  0  0  0  0  0  0  0  0  0  0  0
  -29.1609  -14.5932   18.7914 C   0  0  0  0  0  0  0  0  0  0  0  0
  -18.4340  -26.4429   22.6187 C   0  0  0  0  0  0  0  0  0  0  0  0
  -17.5495  -27.4270   22.1774 C   0  0  0  0  0  0  0  0  0  0  0  0
  -28.0563  -13.9908   20.8496 C   0  0  0  0  0  0  0  0  0  0  0  0
  -30.8757  -18.8802   22.8513 C   0  0  0  0  0  0  0  0  0  0  0  0
  -19.1226  -29.1374   22.8382 C   0  0  0  0  0  0  0  0  0  0  0  0
  -24.2865  -25.6617   21.8269 C   0  0  0  0  0  0  0  0  0  0  0  0
  -26.4456  -26.6842   20.9323 C   0  0  0  0  0  0  0  0  0  0  0  0
  -23.7714  -21.9305   19.1675 C   0  0  0  0  0  0  0  0  0  0  0  0
  -26.7888  -15.0305   19.0686 C   0  0  0  0  0  0  0  0  0  0  0  0
  -24.4197  -20.6897   19.0021 C   0  0  0  0  0  0  0  0  0  0  0  0
  -31.4074  -18.6280   25.1945 C   0  0  0  0  0  0  0  0  0  0  0  0
  -26.8349  -14.4719   20.3538 C   0  0  0  0  0  0  0  0  0  0  0  0
  -30.5335  -20.2142   23.0725 C   0  0  0  0  0  0  0  0  0  0  0  0
  -31.3127  -18.0871   23.9123 C   0  0  0  0  0  0  0  0  0  0  0  0
  -21.7686  -25.7733   23.0229 C   0  0  0  0  0  0  0  0  0  0  0  0
  -29.2131  -14.0529   20.0730 C   0  0  0  0  0  0  0  0  0  0  0  0
  -19.6629  -26.8061   23.1698 C   0  0  0  0  0  0  0  0  0  0  0  0
  -17.8938  -28.7742   22.2871 C   0  0  0  0  0  0  0  0  0  0  0  0
  -20.0072  -28.1533   23.2795 C   0  0  0  0  0  0  0  0  0  0  0  0
  -25.5872  -25.6035   21.2098 C   0  0  0  0  0  0  0  0  0  0  0  0
  -27.5468  -26.1069   20.3487 C   0  0  0  0  0  0  0  0  0  0  0  0
  -26.2639  -28.0847   21.1801 C   0  0  0  0  0  0  0  0  0  0  0  0
  -24.7975  -17.2046   20.2567 C   0  0  0  0  0  0  0  0  0  0  0  0
  -32.2955  -14.7588   22.4737 C   0  0  0  0  0  0  0  0  0  0  0  0
  -23.0954  -14.5909   21.1479 C   0  0  0  0  0  0  0  0  0  0  0  0
  -23.0795  -11.2624   21.9010 C   0  0  0  0  0  0  0  0  0  0  0  0
  -29.9385  -20.6400   20.6619 C   0  0  0  0  0  0  0  0  0  0  0  0
  -23.0225  -22.2727   20.4314 C   0  0  0  0  0  0  0  0  0  0  0  0
  -25.4887  -15.5316   18.5020 C   0  0  0  0  0  0  0  0  0  0  0  0
  -25.6085  -14.3807   21.2233 C   0  0  0  0  0  0  0  0  0  0  0  0
  -23.4386  -21.4126   21.6203 C   0  0  0  0  0  0  0  0  0  0  0  0
  -33.3041  -17.4071   27.9987 C   0  0  0  0  0  0  0  0  0  0  0  0
  -28.8381  -22.3176   17.7204 C   0  0  0  0  0  0  0  0  0  0  0  0
  -33.3903  -17.2925   26.4649 C   0  0  0  0  0  0  0  0  0  0  0  0
  -32.1880  -18.4466   27.7801 C   0  0  0  0  0  0  0  0  0  0  0  0
  -23.4254  -19.9426   21.2283 C   0  0  0  0  0  0  0  0  0  0  0  0
  -27.9626  -23.4526   18.2565 C   0  0  0  0  0  0  0  0  0  0  0  0
  -28.6891  -21.0450   18.5524 C   0  0  0  0  0  0  0  0  0  0  0  0
  -28.0246  -22.3534   20.5313 C   0  0  0  0  0  0  0  0  0  0  0  0
  -31.9007  -17.7490   26.4162 C   0  0  0  0  0  0  0  0  0  0  0  0
  -24.4489  -19.6636   20.1205 C   0  0  1  0  0  0  0  0  0  0  0  0
  -24.4726  -15.9045   19.5771 C   0  0  1  0  0  0  0  0  0  0  0  0
  -28.1899  -23.6756   19.7645 C   0  0  2  0  0  0  0  0  0  0  0  0
  -21.5456   -9.4151   22.6304 C   0  0  0  0  0  0  0  0  0  0  0  0
  -23.1046  -15.7078   23.9873 C   0  0  0  0  0  0  0  0  0  0  0  0
  -22.4278  -13.4409   24.8066 C   0  0  0  0  0  0  0  0  0  0  0  0
  -20.9287  -14.7075   23.2668 C   0  0  0  0  0  0  0  0  0  0  0  0
  -23.6057   -9.6983   19.4442 C   0  0  0  0  0  0  0  0  0  0  0  0
  -32.6682  -14.0830   21.1608 C   0  0  0  0  0  0  0  0  0  0  0  0
  -31.9800  -16.2379   22.3758 C   0  0  0  0  0  0  0  0  0  0  0  0
  -31.5864  -14.2033   20.0984 C   0  0  0  0  0  0  0  0  0  1  0  0
  -23.0648  -13.6992   22.3656 C   0  0  1  0  0  0  0  0  0  0  0  0
  -22.1755  -10.1309   21.4457 C   0  0  2  0  0  0  0  0  0  0  0  0
  -22.4051  -14.3922   23.5912 C   0  0  0  0  0  0  0  0  0  0  0  0
  -26.0990  -24.4286   20.8332 N   0  0  0  0  0  0  0  0  0  0  0  0
  -27.2908  -24.7677   20.3131 N   0  0  0  0  0  0  0  0  0  0  0  0
  -24.3624  -14.8897   20.6270 N   0  0  0  0  0  0  0  0  0  0  0  0
  -28.9226  -21.3322   19.9694 N   0  0  0  0  0  0  0  0  0  0  0  0
  -28.6994  -26.6193   19.8675 N   0  0  0  0  0  0  0  0  0  0  0  0
  -25.0735  -28.5067   21.7876 N   0  0  0  0  0  0  0  0  0  0  0  0
  -30.0896  -21.0203   21.9950 N   0  0  0  0  0  0  0  0  0  0  0  0
  -31.6494  -16.7622   23.6769 N   0  0  0  0  0  0  0  0  0  0  0  0
  -24.2612  -18.3149   19.6330 N   0  0  0  0  0  0  0  0  0  0  0  0
  -22.4067  -12.4649   21.9513 N   0  0  0  0  0  0  0  0  0  0  0  0
  -22.9510   -9.1353   20.6531 N   0  3  0  0  0  0  0  0  0  0  0  0
  -27.1244  -28.9382   20.8569 O   0  0  0  0  0  0  0  0  0  0  0  0
  -25.4827  -17.2005   21.2727 O   0  0  0  0  0  0  0  0  0  0  0  0
  -32.2556  -14.1460   23.5397 O   0  0  0  0  0  0  0  0  0  0  0  0
  -22.0339  -15.0013   20.6720 O   0  0  0  0  0  0  0  0  0  0  0  0
  -24.2630  -11.0954   22.1872 O   0  0  0  0  0  0  0  0  0  0  0  0
  -30.6420  -19.7931   20.1054 O   0  0  0  0  0  0  0  0  0  0  0  0
  -20.5403  -25.8279   23.6068 O   0  0  0  0  0  0  0  0  0  0  0  0
  -30.3904  -13.5810   20.5661 O   0  0  0  0  0  0  0  0  0  1  0  0
  -17.0449  -29.7190   21.8619 F   0  0  0  0  0  0  0  0  0  0  0  0
  -21.1868  -28.5083   23.8070 F   0  0  0  0  0  0  0  0  0  0  0  0
  1  2  1  0  0  0  0
  1  5  2  0  0  0  0
  2  6  2  0  0  0  0
  3 10  2  0  0  0  0
  3 18  1  0  0  0  0
  4 11  1  0  0  0  0
  4 18  2  0  0  0  0
  5 20  1  0  0  0  0
  6 22  1  0  0  0  0
  7  9  2  0  0  0  0
  7 23  1  0  0  0  0
  8 12  2  0  0  0  0
  8 21  1  0  0  0  0
  9 25  1  0  0  0  0
 10 27  1  0  0  0  0
 11 27  2  0  0  0  0
 12 28  1  0  0  0  0
 13 14  2  0  0  0  0
 13 29  1  0  0  0  0
 14 30  1  0  0  0  0
 15 24  1  0  0  0  0
 15 28  2  0  0  0  0
 16 25  2  0  0  0  0
 16 26  1  0  0  0  0
 17 30  2  0  0  0  0
 17 31  1  0  0  0  0
 18 32  1  0  0  0  0
 19 32  1  0  0  0  0
 19 33  2  0  0  0  0
 19 34  1  0  0  0  0
 20 22  2  0  0  0  0
 20 40  1  0  0  0  0
 21 24  2  0  0  0  0
 21 41  1  0  0  0  0
 22 53  1  0  0  0  0
 23 26  2  0  0  0  0
 23 52  1  0  0  0  0
 24 42  1  0  0  0  0
 25 73  1  0  0  0  0
 26 74  1  0  0  0  0
 27 84  1  0  0  0  0
 28 85  1  0  0  0  0
 29 31  2  0  0  0  0
 29 84  1  0  0  0  0
 30 86  1  0  0  0  0
 31 87  1  0  0  0  0
 32 67  2  0  0  0  0
 33 68  1  0  0  0  0
 33 71  1  0  0  0  0
 34 72  1  0  0  0  0
 34 78  2  0  0  0  0
 35 54  1  0  0  0  0
 35 75  1  0  0  0  0
 35 79  2  0  0  0  0
 36 61  1  0  0  0  0
 36 62  1  0  0  0  0
 36 80  2  0  0  0  0
 37 64  1  0  0  0  0
 37 69  1  0  0  0  0
 37 81  2  0  0  0  0
 38 65  1  0  0  0  0
 38 76  1  0  0  0  0
 38 82  2  0  0  0  0
 39 70  1  0  0  0  0
 39 73  1  0  0  0  0
 39 83  2  0  0  0  0
 40 43  1  0  0  0  0
 41 54  1  0  0  0  0
 42 69  1  0  0  0  0
 43 48  1  0  0  0  0
 44 46  1  0  0  0  0
 44 47  1  0  0  0  0
 45 49  1  0  0  0  0
 45 50  1  0  0  0  0
 46 52  1  0  0  0  0
 47 52  1  0  0  0  0
 48 53  1  0  0  0  0
 49 55  1  0  0  0  0
 50 70  1  0  0  0  0
 51 55  1  0  0  0  0
 51 70  1  0  0  0  0
 53 75  1  0  0  0  0
 54 69  1  0  0  0  0
 55 68  1  0  0  0  0
 56 65  1  0  0  0  0
 57 66  1  0  0  0  0
 58 66  1  0  0  0  0
 59 66  1  0  0  0  0
 60 77  1  0  0  0  0
 61 63  1  0  0  0  0
 62 74  1  0  0  0  0
 63 85  1  0  0  0  0
 64 66  1  0  0  0  0
 64 76  1  0  0  0  0
 65 77  1  0  0  0  0
 67 68  1  0  0  0  0
M  CHG  1  77   1
M  ISO  4  39 100  63 101  73 100  85 101
M  END
> <Batch ID>
0161

> <Smiles>
CNC(C)C(=O)NC(C(=O)N1Cc2cc([101O:1][101CH2:1]CC(=O)CNc3cc([100NH:0][100C:0](=O)N4CCCC(n5nc(-c6ccc(Oc7ccc(F)cc7F)cc6)c(C(N)=O)c5N)C4)ccc3C3CCC3)ccc2CC1C(=O)NC1CCCc2ccccc21)C(C)(C)C

> <Shape>
0.206

> <Color>
0.062

> <Negative vol penalty>
0.000

$$$$

  -OEChem-04052303533D

 85 93  0     1  0  0  0  0  0999 V2000
  -21.6195  -12.4895   19.8386 C   0  0  0  0  0  0  0  0  0  0  0  0
  -21.6853  -13.6294   20.6334 C   0  0  0  0  0  0  0  0  0  0  0  0
  -27.4112  -29.6743   23.1656 C   0  0  0  0  0  0  0  0  0  0  0  0
  -26.8796  -27.6635   21.9363 C   0  0  0  0  0  0  0  0  0  0  0  0
  -22.7854  -11.7933   19.5225 C   0  0  0  0  0  0  0  0  0  0  0  0
  -22.9170  -14.0732   21.1135 C   0  0  0  0  0  0  0  0  0  0  0  0
  -23.5037  -19.0792   20.6235 C   0  0  0  0  0  0  0  0  0  0  0  0
  -28.4378  -28.9993   23.8259 C   0  0  0  0  0  0  0  0  0  0  0  0
  -27.9063  -26.9884   22.5966 C   0  0  0  0  0  0  0  0  0  0  0  0
  -22.8567  -19.8903   21.5547 C   0  0  0  0  0  0  0  0  0  0  0  0
  -30.1532  -24.6367   24.2184 C   0  0  0  0  0  0  0  0  0  0  0  0
  -29.8798  -23.3593   24.7072 C   0  0  0  0  0  0  0  0  0  0  0  0
  -24.9270  -20.1391   22.7676 C   0  0  0  0  0  0  0  0  0  0  0  0
  -19.0071  -24.9049   21.9325 C   0  0  0  0  0  0  0  0  0  0  0  0
  -28.1298  -24.2680   26.1032 C   0  0  0  0  0  0  0  0  0  0  0  0
  -26.6320  -29.0064   22.2208 C   0  0  0  0  0  0  0  0  0  0  0  0
  -25.6632  -30.4177   20.3295 C   0  0  0  0  0  0  0  0  0  0  0  0
  -24.0331  -12.2343   19.9910 C   0  0  0  0  0  0  0  0  0  0  0  0
  -24.8671  -18.7826   20.7636 C   0  0  0  0  0  0  0  0  0  0  0  0
  -24.1005  -13.3815   20.8045 C   0  0  0  0  0  0  0  0  0  0  0  0
  -25.5896  -19.3261   21.8354 C   0  0  0  0  0  0  0  0  0  0  0  0
  -18.0295  -25.8489   21.5045 C   0  0  0  0  0  0  0  0  0  0  0  0
  -28.6854  -27.6564   23.5414 C   0  0  0  0  0  0  0  0  0  0  0  0
  -23.5676  -20.4180   22.6286 C   0  0  0  0  0  0  0  0  0  0  0  0
  -29.4150  -25.7299   24.6721 C   0  0  0  0  0  0  0  0  0  0  0  0
  -28.8681  -23.1749   25.6496 C   0  0  0  0  0  0  0  0  0  0  0  0
  -28.4033  -25.5455   25.6145 C   0  0  0  0  0  0  0  0  0  0  0  0
  -25.5710  -29.7030   21.5388 C   0  0  0  0  0  0  0  0  0  0  0  0
  -16.7839  -25.5764   22.0258 C   0  0  0  0  0  0  0  0  0  0  0  0
  -24.3911  -30.8871   20.1103 C   0  0  0  0  0  0  0  0  0  0  0  0
  -18.4714  -23.9468   22.7651 C   0  0  0  0  0  0  0  0  0  0  0  0
  -26.7972  -30.6377   19.4802 C   0  0  0  0  0  0  0  0  0  0  0  0
  -20.6568  -21.2166   24.1690 C   0  0  0  0  0  0  0  0  0  0  0  0
  -21.8886  -20.6796   24.2358 C   0  0  0  0  0  0  0  0  0  1  0  0
  -20.4032  -22.4462   23.3460 C   0  0  0  0  0  0  0  0  0  0  0  0
  -26.5518  -16.1201   21.1840 C   0  0  0  0  0  0  0  0  0  0  0  0
  -29.0767  -18.1243   20.8234 C   0  0  0  0  0  0  0  0  0  0  0  0
  -30.3045  -21.3024   21.0215 C   0  0  0  0  0  0  0  0  0  0  0  0
  -18.9897  -29.0079   21.8836 C   0  0  0  0  0  0  0  0  0  0  0  0
  -25.2605  -11.4218   19.6620 C   0  0  0  0  0  0  0  0  0  0  0  0
  -25.5566  -17.9278   19.7357 C   0  0  0  0  0  0  0  0  0  0  0  0
  -27.0596  -19.0544   22.0197 C   0  0  0  0  0  0  0  0  0  0  0  0
  -26.5689  -12.1711   19.9006 C   0  0  0  0  0  0  0  0  0  0  0  0
  -20.4339  -32.2126   22.4500 C   0  0  0  0  0  0  0  0  0  0  0  0
  -26.5453  -12.8679   21.2574 C   0  0  0  0  0  0  0  0  0  0  0  0
  -21.9226  -31.9973   22.1716 C   0  0  0  0  0  0  0  0  0  0  0  0
  -19.8032  -30.9941   23.1204 C   0  0  0  0  0  0  0  0  0  0  0  0
  -21.4977  -29.5041   22.1294 C   0  0  0  0  0  0  0  0  0  0  0  0
  -25.4207  -13.9083   21.3237 C   0  0  1  0  0  0  0  0  0  0  0  0
  -26.8302  -17.2723   20.2607 C   0  0  1  0  0  0  0  0  0  0  0  0
  -22.1652  -30.6844   21.4031 C   0  0  2  0  0  0  0  0  0  0  0  0
  -15.5127  -26.3091   21.8274 C   0  0  0  0  0  0  0  0  0  0  0  0
  -22.2270  -19.4616   25.0450 C   0  0  0  0  0  0  0  0  0  0  0  0
  -32.4144  -22.6226   20.7013 C   0  0  0  0  0  0  0  0  0  0  0  0
  -30.1488  -17.0482   23.4696 C   0  0  0  0  0  0  0  0  0  0  0  0
  -31.6907  -19.0183   23.5661 C   0  0  0  0  0  0  0  0  0  0  0  0
  -31.8829  -17.3766   21.6978 C   0  0  0  0  0  0  0  0  0  0  0  0
  -29.0820  -22.9605   18.8966 C   0  0  0  0  0  0  0  0  0  0  0  0
  -18.3298  -26.9869   20.6034 C   0  0  0  0  0  0  0  0  0  0  0  0
  -29.9164  -18.9645   21.7551 C   0  0  1  0  0  0  0  0  0  0  0  0
  -31.1332  -22.1244   20.0510 C   0  0  2  0  0  0  0  0  0  0  0  0
  -30.8815  -18.1056   22.6200 C   0  0  0  0  0  0  0  0  0  0  0  0
  -24.3379  -29.7147   22.0520 N   0  0  0  0  0  0  0  0  0  0  0  0
  -23.6436  -30.4425   21.1609 N   0  0  0  0  0  0  0  0  0  0  0  0
  -27.6873  -18.2078   20.9917 N   0  0  0  0  0  0  0  0  0  0  0  0
  -20.0685  -29.7826   22.3408 N   0  0  0  0  0  0  0  0  0  0  0  0
  -23.8503  -31.6326   19.1233 N   0  0  0  0  0  0  0  0  0  0  0  0
  -28.0293  -30.0842   19.8542 N   0  0  0  0  0  0  0  0  0  0  0  0
  -19.0728  -22.8383   23.4097 N   0  0  0  0  0  0  0  0  0  0  0  0
  -25.8014  -15.1101   20.6129 N   0  0  0  0  0  0  0  0  0  0  0  0
  -30.5849  -19.9562   20.9197 N   0  0  0  0  0  0  0  0  0  0  0  0
  -19.3289  -27.8797   21.1468 N   0  0  0  0  0  0  0  0  0  0  0  0
  -30.3566  -23.3050   19.5776 N   0  3  0  0  0  0  0  0  0  0  0  0
  -26.7238  -31.3190   18.4296 O   0  0  0  0  0  0  0  0  0  0  0  0
  -21.3111  -22.9810   22.7195 O   0  0  0  0  0  0  0  0  0  0  0  0
  -26.9869  -16.1449   22.3294 O   0  0  0  0  0  0  0  0  0  0  0  0
  -29.6329  -17.4253   19.9727 O   0  0  0  0  0  0  0  0  0  0  0  0
  -29.4924  -21.8046   21.7954 O   0  0  0  0  0  0  0  0  0  0  0  0
  -17.8113  -29.3029   22.1104 O   0  0  0  0  0  0  0  0  0  0  0  0
  -19.5953  -20.6619   24.8590 O   0  0  0  0  0  0  0  0  0  0  0  0
  -29.6872  -26.9974   24.1853 O   0  0  0  0  0  0  0  0  0  0  0  0
  -22.9384  -21.2095   23.5393 O   0  0  0  0  0  0  0  0  0  1  0  0
  -28.6045  -21.9479   26.1177 F   0  0  0  0  0  0  0  0  0  0  0  0
  -27.6899  -26.5917   26.0532 F   0  0  0  0  0  0  0  0  0  0  0  0
  -16.7963  -24.1873   23.0272 S   0  0  0  0  0  0  0  0  0  0  0  0
  1  2  1  0  0  0  0
  1  5  2  0  0  0  0
  2  6  2  0  0  0  0
  3  8  2  0  0  0  0
  3 16  1  0  0  0  0
  4  9  1  0  0  0  0
  4 16  2  0  0  0  0
  5 18  1  0  0  0  0
  6 20  1  0  0  0  0
  7 10  2  0  0  0  0
  7 19  1  0  0  0  0
  8 23  1  0  0  0  0
  9 23  2  0  0  0  0
 10 24  1  0  0  0  0
 11 12  2  0  0  0  0
 11 25  1  0  0  0  0
 12 26  1  0  0  0  0
 13 21  1  0  0  0  0
 13 24  2  0  0  0  0
 14 22  1  0  0  0  0
 14 31  2  0  0  0  0
 15 26  2  0  0  0  0
 15 27  1  0  0  0  0
 16 28  1  0  0  0  0
 17 28  1  0  0  0  0
 17 30  2  0  0  0  0
 17 32  1  0  0  0  0
 18 20  2  0  0  0  0
 18 40  1  0  0  0  0
 19 21  2  0  0  0  0
 19 41  1  0  0  0  0
 20 49  1  0  0  0  0
 21 42  1  0  0  0  0
 22 29  2  0  0  0  0
 22 59  1  0  0  0  0
 23 81  1  0  0  0  0
 24 82  1  0  0  0  0
 25 27  2  0  0  0  0
 25 81  1  0  0  0  0
 26 83  1  0  0  0  0
 27 84  1  0  0  0  0
 28 63  2  0  0  0  0
 29 52  1  0  0  0  0
 29 85  1  0  0  0  0
 30 64  1  0  0  0  0
 30 67  1  0  0  0  0
 31 69  1  0  0  0  0
 31 85  1  0  0  0  0
 32 68  1  0  0  0  0
 32 74  2  0  0  0  0
 33 34  2  0  0  0  0
 33 35  1  0  0  0  0
 33 80  1  0  0  0  0
 34 53  1  0  0  0  0
 34 82  1  0  0  0  0
 35 69  1  0  0  0  0
 35 75  2  0  0  0  0
 36 50  1  0  0  0  0
 36 70  1  0  0  0  0
 36 76  2  0  0  0  0
 37 60  1  0  0  0  0
 37 65  1  0  0  0  0
 37 77  2  0  0  0  0
 38 61  1  0  0  0  0
 38 71  1  0  0  0  0
 38 78  2  0  0  0  0
 39 66  1  0  0  0  0
 39 72  1  0  0  0  0
 39 79  2  0  0  0  0
 40 43  1  0  0  0  0
 41 50  1  0  0  0  0
 42 65  1  0  0  0  0
 43 45  1  0  0  0  0
 44 46  1  0  0  0  0
 44 47  1  0  0  0  0
 45 49  1  0  0  0  0
 46 51  1  0  0  0  0
 47 66  1  0  0  0  0
 48 51  1  0  0  0  0
 48 66  1  0  0  0  0
 49 70  1  0  0  0  0
 50 65  1  0  0  0  0
 51 64  1  0  0  0  0
 54 61  1  0  0  0  0
 55 62  1  0  0  0  0
 56 62  1  0  0  0  0
 57 62  1  0  0  0  0
 58 73  1  0  0  0  0
 59 72  1  0  0  0  0
 60 62  1  0  0  0  0
 60 71  1  0  0  0  0
 61 73  1  0  0  0  0
 63 64  1  0  0  0  0
M  CHG  1  73   1
M  ISO  4  34 101  39 100  72 100  82 101
M  END
> <Batch ID>
0161

> <Smiles>
CNC(C)C(=O)NC(C(=O)N1Cc2cc([101O:1][101CH:1](C)C(=O)C(=O)Nc3cc(C[100NH:0][100C:0](=O)N4CCCC(n5nc(-c6ccc(Oc7ccc(F)cc7F)cc6)c(C(N)=O)c5N)C4)c(C)s3)ccc2CC1C(=O)NC1CCCc2ccccc21)C(C)(C)C

> <Shape>
0.197

> <Color>
0.063

> <Negative vol penalty>
0.000

$$$$

  -OEChem-04052303533D

 90 99  0     1  0  0  0  0  0999 V2000
  -15.2178  -28.6549   21.0284 C   0  0  0  0  0  0  0  0  0  0  0  0
  -16.3254  -28.3800   20.2328 C   0  0  0  0  0  0  0  0  0  0  0  0
  -23.5601  -14.1974   20.4408 C   0  0  0  0  0  0  0  0  0  0  0  0
  -25.6890  -14.5536   21.5261 C   0  0  0  0  0  0  0  0  0  0  0  0
  -15.3936  -29.0442   22.3556 C   0  0  0  0  0  0  0  0  0  0  0  0
  -17.6097  -28.4953   20.7637 C   0  0  0  0  0  0  0  0  0  0  0  0
  -22.4768  -25.0328   19.4117 C   0  0  0  0  0  0  0  0  0  0  0  0
  -23.8734  -12.8491   20.2687 C   0  0  0  0  0  0  0  0  0  0  0  0
  -26.0023  -13.2053   21.3540 C   0  0  0  0  0  0  0  0  0  0  0  0
  -23.5592  -25.2297   18.5552 C   0  0  0  0  0  0  0  0  0  0  0  0
  -23.9610   -9.2373   19.8660 C   0  0  0  0  0  0  0  0  0  0  0  0
  -22.9734   -8.2987   20.1649 C   0  0  0  0  0  0  0  0  0  0  0  0
  -24.8741  -26.0329   20.4112 C   0  0  0  0  0  0  0  0  0  0  0  0
  -29.7140  -21.7181   20.7627 C   0  0  0  0  0  0  0  0  0  0  0  0
  -31.1434  -23.6312   20.4772 C   0  0  0  0  0  0  0  0  0  0  0  0
  -22.9047   -9.0969   22.4443 C   0  0  0  0  0  0  0  0  0  0  0  0
  -24.4679  -15.0496   21.0695 C   0  0  0  0  0  0  0  0  0  0  0  0
  -23.4875  -17.0296   22.3448 C   0  0  0  0  0  0  0  0  0  0  0  0
  -16.6803  -29.1550   22.9058 C   0  0  0  0  0  0  0  0  0  0  0  0
  -22.5817  -25.3454   20.7747 C   0  0  0  0  0  0  0  0  0  0  0  0
  -17.8029  -28.8878   22.0991 C   0  0  0  0  0  0  0  0  0  0  0  0
  -23.7925  -25.8367   21.2834 C   0  0  0  0  0  0  0  0  0  0  0  0
  -30.8656  -22.4200   21.1011 C   0  0  0  0  0  0  0  0  0  0  0  0
  -25.0945  -12.3530   20.7253 C   0  0  0  0  0  0  0  0  0  0  0  0
  -24.7571  -25.7325   19.0543 C   0  0  0  0  0  0  0  0  0  0  0  0
  -24.4205  -10.1056   20.8563 C   0  0  0  0  0  0  0  0  0  0  0  0
  -22.4452   -8.2285   21.4540 C   0  0  0  0  0  0  0  0  0  0  0  0
  -23.8923  -10.0355   22.1453 C   0  0  0  0  0  0  0  0  0  0  0  0
  -24.1451  -16.4426   21.2471 C   0  0  0  0  0  0  0  0  0  0  0  0
  -28.8793  -22.2660   19.8021 C   0  0  0  0  0  0  0  0  0  0  0  0
  -30.2448  -24.0933   19.5292 C   0  0  0  0  0  0  0  0  0  0  0  0
  -23.4241  -18.3656   22.0327 C   0  0  0  0  0  0  0  0  0  0  0  0
  -22.9796  -16.4215   23.5397 C   0  0  0  0  0  0  0  0  0  0  0  0
  -21.1172  -27.3804   22.7285 C   0  0  0  0  0  0  0  0  0  0  0  0
  -28.5321  -26.6200   18.5702 C   0  0  0  0  0  0  0  0  0  0  0  0
  -22.8695  -25.8589   24.9950 C   0  0  0  0  0  0  0  0  0  0  0  0
  -25.6322  -24.0085   25.7634 C   0  0  0  0  0  0  0  0  0  0  0  0
  -26.7337  -21.9018   18.5331 C   0  0  0  0  0  0  0  0  0  0  0  0
  -16.8220  -29.6250   24.3319 C   0  0  0  0  0  0  0  0  0  0  0  0
  -21.4135  -25.1022   21.6904 C   0  0  0  0  0  0  0  0  0  0  0  0
  -23.9630  -26.1689   22.7425 C   0  0  0  0  0  0  0  0  0  0  0  0
  -18.2031  -29.3606   24.9260 C   0  0  0  0  0  0  0  0  0  0  0  0
  -33.2061  -19.8760   22.7995 C   0  0  0  0  0  0  0  0  0  0  0  0
  -23.2292  -21.3282   18.2751 C   0  0  0  0  0  0  0  0  0  0  0  0
  -32.5240  -19.8617   24.1647 C   0  0  0  0  0  0  0  0  0  0  0  0
  -19.2948  -29.7833   23.9480 C   0  0  0  0  0  0  0  0  0  0  0  0
  -32.3007  -20.4815   21.7274 C   0  0  0  0  0  0  0  0  0  0  0  0
  -23.0056  -20.0671   19.1128 C   0  0  0  0  0  0  0  0  0  0  0  0
  -24.5540  -21.2774   17.5162 C   0  0  0  0  0  0  0  0  0  0  0  0
  -25.5099  -19.7346   19.1821 C   0  0  0  0  0  0  0  0  0  0  0  0
  -32.0295  -21.2441   24.5582 C   0  0  0  0  0  0  0  0  0  0  0  0
  -19.2111  -28.9775   22.6459 C   0  0  1  0  0  0  0  0  0  0  0  0
  -31.7987  -21.8761   22.1287 C   0  0  2  0  0  0  0  0  0  0  0  0
  -21.4690  -25.9388   22.9648 C   0  0  1  0  0  0  0  0  0  0  0  0
  -24.2185  -19.7679   20.0156 C   0  0  2  0  0  0  0  0  0  0  0  0
  -26.8148  -22.9477   27.7060 C   0  0  0  0  0  0  0  0  0  0  0  0
  -23.8905  -28.5989   25.8666 C   0  0  0  0  0  0  0  0  0  0  0  0
  -25.7262  -27.4407   27.1144 C   0  0  0  0  0  0  0  0  0  0  0  0
  -23.3463  -27.0420   27.7466 C   0  0  0  0  0  0  0  0  0  0  0  0
  -25.2933  -27.9928   17.2974 C   0  0  0  0  0  0  0  0  0  0  0  0
  -25.3524  -21.3000   24.6040 C   0  0  0  0  0  0  0  0  0  0  0  0
  -29.7010  -25.9139   17.9119 C   0  0  0  0  0  0  0  0  0  0  0  0
  -27.5771  -27.3134   17.6158 C   0  0  0  0  0  0  0  0  0  0  0  0
  -24.2398  -26.0550   25.5973 C   0  0  1  0  0  0  0  0  0  0  0  0
  -25.8014  -22.7466   26.5900 C   0  0  2  0  0  0  0  0  0  0  0  0
  -24.2972  -27.2798   26.5533 C   0  0  0  0  0  0  0  0  0  0  0  0
  -24.4756  -17.3328   20.3078 N   0  0  0  0  0  0  0  0  0  0  0  0
  -29.1158  -23.4398   19.1743 N   0  0  0  0  0  0  0  0  0  0  0  0
  -24.0238  -18.4927   20.8143 N   0  0  0  0  0  0  0  0  0  0  0  0
  -22.7899  -25.9196   23.5965 N   0  0  0  0  0  0  0  0  0  0  0  0
  -25.6578  -20.9941   18.4361 N   0  0  0  0  0  0  0  0  0  0  0  0
  -22.9143  -19.4324   22.6842 N   0  0  0  0  0  0  0  0  0  0  0  0
  -23.1285  -15.0372   23.7003 N   0  0  0  0  0  0  0  0  0  0  0  0
  -27.7081  -21.5435   19.4641 N   0  0  0  0  0  0  0  0  0  0  0  0
  -30.5353  -25.3031   18.9151 N   0  0  0  0  0  0  0  0  0  0  0  0
  -19.7670  -27.6546   22.8337 N   0  0  0  0  0  0  0  0  0  0  0  0
  -24.5938  -24.7879   26.2277 N   0  0  0  0  0  0  0  0  0  0  0  0
  -26.2359  -27.3300   18.1961 N   0  0  2  0  0  0  0  0  0  1  0  0
  -31.1371  -21.7723   23.4823 N   0  3  0  0  0  0  0  0  0  0  0  0
  -26.2667  -21.6223   25.7296 N   0  3  0  0  0  0  0  0  0  0  0  0
  -22.3959  -17.0836   24.4311 O   0  0  0  0  0  0  0  0  0  0  0  0
  -22.0053  -28.1847   22.4714 O   0  0  0  0  0  0  0  0  0  0  0  0
  -28.3736  -26.6268   19.7907 O   0  0  0  0  0  0  0  0  0  0  0  0
  -21.9065  -25.6521   25.7376 O   0  0  0  0  0  0  0  0  0  0  0  0
  -26.3519  -24.2780   24.8042 O   0  0  0  0  0  0  0  0  0  0  0  0
  -26.7732  -22.9356   17.8610 O   0  0  0  0  0  0  0  0  0  0  0  0
  -25.4005  -11.0374   20.5577 O   0  0  0  0  0  0  0  0  0  0  0  0
  -25.8149  -25.9262   18.2204 O   0  0  0  0  0  0  0  0  0  1  0  0
  -21.4958   -7.3282   21.7405 F   0  0  0  0  0  0  0  0  0  0  0  0
  -24.3290  -10.8678   23.1005 F   0  0  0  0  0  0  0  0  0  0  0  0
  1  2  1  0  0  0  0
  1  5  2  0  0  0  0
  2  6  2  0  0  0  0
  3  8  2  0  0  0  0
  3 17  1  0  0  0  0
  4  9  1  0  0  0  0
  4 17  2  0  0  0  0
  5 19  1  0  0  0  0
  6 21  1  0  0  0  0
  7 10  2  0  0  0  0
  7 20  1  0  0  0  0
  8 24  1  0  0  0  0
  9 24  2  0  0  0  0
 10 25  1  0  0  0  0
 11 12  2  0  0  0  0
 11 26  1  0  0  0  0
 12 27  1  0  0  0  0
 13 22  1  0  0  0  0
 13 25  2  0  0  0  0
 14 23  1  0  0  0  0
 14 30  2  0  0  0  0
 15 23  2  0  0  0  0
 15 31  1  0  0  0  0
 16 27  2  0  0  0  0
 16 28  1  0  0  0  0
 17 29  1  0  0  0  0
 18 29  1  0  0  0  0
 18 32  2  0  0  0  0
 18 33  1  0  0  0  0
 19 21  2  0  0  0  0
 19 39  1  0  0  0  0
 20 22  2  0  0  0  0
 20 40  1  0  0  0  0
 21 52  1  0  0  0  0
 22 41  1  0  0  0  0
 23 53  1  0  0  0  0
 24 87  1  0  0  0  0
 25 88  1  0  0  0  0
 26 28  2  0  0  0  0
 26 87  1  0  0  0  0
 27 89  1  0  0  0  0
 28 90  1  0  0  0  0
 29 67  2  0  0  0  0
 30 68  1  0  0  0  0
 30 74  1  0  0  0  0
 31 68  2  0  0  0  0
 31 75  1  0  0  0  0
 32 69  1  0  0  0  0
 32 72  1  0  0  0  0
 33 73  1  0  0  0  0
 33 81  2  0  0  0  0
 34 54  1  0  0  0  0
 34 76  1  0  0  0  0
 34 82  2  0  0  0  0
 35 62  1  0  0  0  0
 35 63  1  0  0  0  0
 35 83  2  0  0  0  0
 36 64  1  0  0  0  0
 36 70  1  0  0  0  0
 36 84  2  0  0  0  0
 37 65  1  0  0  0  0
 37 77  1  0  0  0  0
 37 85  2  0  0  0  0
 38 71  1  0  0  0  0
 38 74  1  0  0  0  0
 38 86  2  0  0  0  0
 39 42  1  0  0  0  0
 40 54  1  0  0  0  0
 41 70  1  0  0  0  0
 42 46  1  0  0  0  0
 43 45  1  0  0  0  0
 43 47  1  0  0  0  0
 44 48  1  0  0  0  0
 44 49  1  0  0  0  0
 45 51  1  0  0  0  0
 46 52  1  0  0  0  0
 47 53  1  0  0  0  0
 48 55  1  0  0  0  0
 49 71  1  0  0  0  0
 50 55  1  0  0  0  0
 50 71  1  0  0  0  0
 51 79  1  0  0  0  0
 52 76  1  0  0  0  0
 53 79  1  0  0  0  0
 54 70  1  0  0  0  0
 55 69  1  0  0  0  0
 56 65  1  0  0  0  0
 57 66  1  0  0  0  0
 58 66  1  0  0  0  0
 59 66  1  0  0  0  0
 60 78  1  0  0  0  0
 61 80  1  0  0  0  0
 62 75  1  0  0  0  0
 63 78  1  0  0  0  0
 64 66  1  0  0  0  0
 64 77  1  0  0  0  0
 65 80  1  0  0  0  0
 67 69  1  0  0  0  0
 78 88  1  0  0  0  0
M  CHG  2  79   1  80   1
M  ISO  4  38 100  74 100  78 101  88 101
M  END
> <Batch ID>
0161

> <Smiles>
CNC(C)C(=O)NC(C(=O)N1Cc2cc([101O:1][101N:1](C)CC(=O)CNc3cc(C4CCCCN4)cc([100NH:0][100C:0](=O)N4CCCC(n5nc(-c6ccc(Oc7ccc(F)cc7F)cc6)c(C(N)=O)c5N)C4)n3)ccc2CC1C(=O)NC1CCCc2ccccc21)C(C)(C)C

> <Shape>
0.182

> <Color>
0.080

> <Negative vol penalty>
0.000

$$$$

  -OEChem-04052303533D

 84 92  0     1  0  0  0  0  0999 V2000
  -24.5438  -33.2794   23.7180 C   0  0  0  0  0  0  0  0  0  0  0  0
  -25.1323  -32.0616   24.0434 C   0  0  0  0  0  0  0  0  0  0  0  0
  -23.0775   -9.8668   19.9371 C   0  0  0  0  0  0  0  0  0  0  0  0
  -23.8369   -9.8710   22.2307 C   0  0  0  0  0  0  0  0  0  0  0  0
  -25.3370  -34.4145   23.5559 C   0  0  0  0  0  0  0  0  0  0  0  0
  -26.5147  -31.9780   24.2060 C   0  0  0  0  0  0  0  0  0  0  0  0
  -27.8311  -29.3121   28.3054 C   0  0  0  0  0  0  0  0  0  0  0  0
  -22.3344   -8.7128   20.1853 C   0  0  0  0  0  0  0  0  0  0  0  0
  -23.0936   -8.7171   22.4789 C   0  0  0  0  0  0  0  0  0  0  0  0
  -27.7655  -27.9227   28.2094 C   0  0  0  0  0  0  0  0  0  0  0  0
  -19.8658   -7.9163   23.0795 C   0  0  0  0  0  0  0  0  0  0  0  0
  -19.1086   -7.8743   24.2501 C   0  0  0  0  0  0  0  0  0  0  0  0
  -30.1490  -27.8414   27.8463 C   0  0  0  0  0  0  0  0  0  0  0  0
  -20.3511   -5.9366   24.9842 C   0  0  0  0  0  0  0  0  0  0  0  0
  -31.7719  -17.5946   21.7491 C   0  0  0  0  0  0  0  0  0  0  0  0
  -23.8289  -10.4459   20.9598 C   0  0  0  0  0  0  0  0  0  0  0  0
  -24.1691  -12.9714   20.8434 C   0  0  0  0  0  0  0  0  0  0  0  0
  -26.7288  -34.3468   23.7260 C   0  0  0  0  0  0  0  0  0  0  0  0
  -29.0565  -29.9784   28.1614 C   0  0  0  0  0  0  0  0  0  0  0  0
  -27.3275  -33.1129   24.0447 C   0  0  0  0  0  0  0  0  0  0  0  0
  -30.2278  -29.2391   27.9434 C   0  0  0  0  0  0  0  0  0  0  0  0
  -22.3424   -8.1380   21.4562 C   0  0  0  0  0  0  0  0  0  0  0  0
  -28.9241  -27.1874   27.9770 C   0  0  0  0  0  0  0  0  0  0  0  0
  -20.8656   -6.9685   22.8611 C   0  0  0  0  0  0  0  0  0  0  0  0
  -19.3512   -6.8845   25.2025 C   0  0  0  0  0  0  0  0  0  0  0  0
  -21.1083   -5.9787   23.8135 C   0  0  0  0  0  0  0  0  0  0  0  0
  -24.5972  -11.6376   20.7040 C   0  0  0  0  0  0  0  0  0  0  0  0
  -25.2609  -13.7221   20.4815 C   0  0  0  0  0  0  0  0  0  0  0  0
  -30.5819  -16.9366   21.9378 C   0  0  0  0  0  0  0  0  0  0  0  0
  -30.5726  -18.8019   22.9849 C   0  0  0  0  0  0  0  0  0  0  0  0
  -22.8982  -13.4858   21.2628 C   0  0  0  0  0  0  0  0  0  0  0  0
  -30.2183  -32.1216   26.1216 C   0  0  0  0  0  0  0  0  0  0  0  0
  -29.2692  -23.9071   26.4666 C   0  0  0  0  0  0  0  0  0  0  0  0
  -32.7464  -32.1097   28.1540 C   0  0  0  0  0  0  0  0  0  0  0  0
  -30.5936  -21.0048   24.2051 C   0  0  0  0  0  0  0  0  0  0  0  0
  -34.5498  -30.4445   30.5250 C   0  0  0  0  0  0  0  0  0  0  0  0
  -30.7264  -14.7708   20.6591 C   0  0  0  0  0  0  0  0  0  0  0  0
  -27.5499  -35.5905   23.4940 C   0  0  0  0  0  0  0  0  0  0  0  0
  -29.1144  -31.4756   28.2941 C   0  0  0  0  0  0  0  0  0  0  0  0
  -31.5712  -29.9051   27.8018 C   0  0  0  0  0  0  0  0  0  0  0  0
  -28.9678  -35.4971   24.0518 C   0  0  0  0  0  0  0  0  0  0  0  0
  -29.6140  -12.3598   18.2870 C   0  0  0  0  0  0  0  0  0  0  0  0
  -29.6063  -34.1664   23.6667 C   0  0  0  0  0  0  0  0  0  0  0  0
  -28.1745  -12.0667   18.7158 C   0  0  0  0  0  0  0  0  0  0  0  0
  -30.5287  -12.5874   19.4892 C   0  0  0  0  0  0  0  0  0  0  0  0
  -28.6210  -13.3086   20.8711 C   0  0  0  0  0  0  0  0  0  0  0  0
  -28.8210  -32.9873   24.2537 C   0  0  1  0  0  0  0  0  0  0  0  0
  -30.3375  -32.0884   27.6190 C   0  0  1  0  0  0  0  0  0  0  0  0
  -27.6486  -13.1365   19.6928 C   0  0  2  0  0  0  0  0  0  0  0  0
  -36.5860  -30.6750   31.9736 C   0  0  0  0  0  0  0  0  0  0  0  0
  -34.5249  -31.5463   25.7395 C   0  0  0  0  0  0  0  0  0  0  0  0
  -36.3366  -30.8548   27.3231 C   0  0  0  0  0  0  0  0  0  0  0  0
  -35.4682  -33.1928   27.3684 C   0  0  0  0  0  0  0  0  0  0  0  0
  -32.9506  -30.2356   33.0065 C   0  0  0  0  0  0  0  0  0  0  0  0
  -30.2139  -23.1292   25.5622 C   0  0  0  0  0  0  0  0  0  0  0  0
  -29.8253  -25.1946   27.0428 C   0  0  0  0  0  0  0  0  0  1  0  0
  -29.6377  -21.7982   25.0889 C   0  0  0  0  0  0  0  0  0  0  0  0
  -34.0271  -31.3178   28.2626 C   0  0  1  0  0  0  0  0  0  0  0  0
  -35.0825  -30.8826   31.8774 C   0  0  2  0  0  0  0  0  0  0  0  0
  -35.0637  -31.7152   27.1741 C   0  0  0  0  0  0  0  0  0  0  0  0
  -31.7598  -18.7894   22.4223 N   0  0  0  0  0  0  0  0  0  0  0  0
  -25.8623  -11.5432   20.2859 N   0  0  0  0  0  0  0  0  0  0  0  0
  -26.2384  -12.8272   20.1594 N   0  0  0  0  0  0  0  0  0  0  0  0
  -31.5751  -31.3715   27.9330 N   0  0  0  0  0  0  0  0  0  0  0  0
  -29.9689  -13.6166   20.3680 N   0  0  0  0  0  0  0  0  0  0  0  0
  -25.4704  -15.0538   20.4104 N   0  0  0  0  0  0  0  0  0  0  0  0
  -21.8868  -12.5755   21.5985 N   0  0  0  0  0  0  0  0  0  0  0  0
  -30.0783  -15.6943   21.4787 N   0  0  0  0  0  0  0  0  0  0  0  0
  -30.0090  -19.8051   23.8088 N   0  0  0  0  0  0  0  0  0  0  0  0
  -29.1242  -32.8281   25.6598 N   0  0  0  0  0  0  0  0  0  0  0  0
  -34.5007  -31.4933   29.6313 N   0  0  0  0  0  0  0  0  0  0  0  0
  -34.4299  -30.1045   32.9680 N   0  3  0  0  0  0  0  0  0  0  0  0
  -22.6611  -14.7162   21.3218 O   0  0  0  0  0  0  0  0  0  0  0  0
  -31.0577  -31.5498   25.4358 O   0  0  0  0  0  0  0  0  0  0  0  0
  -28.1266  -23.5266   26.7168 O   0  0  0  0  0  0  0  0  0  0  0  0
  -32.7830  -33.3374   28.2683 O   0  0  0  0  0  0  0  0  0  0  0  0
  -31.7103  -21.4200   23.9144 O   0  0  0  0  0  0  0  0  0  0  0  0
  -34.2145  -29.2869   30.2844 O   0  0  0  0  0  0  0  0  0  0  0  0
  -31.8555  -14.9409   20.1920 O   0  0  0  0  0  0  0  0  0  0  0  0
  -29.7971  -17.7109   22.7377 O   0  0  0  0  0  0  0  0  0  0  0  0
  -21.6171   -7.0120   21.6988 O   0  0  0  0  0  0  0  0  0  0  0  0
  -28.8629  -25.8312   27.8823 O   0  0  0  0  0  0  0  0  0  1  0  0
  -18.6250   -6.8451   26.3274 F   0  0  0  0  0  0  0  0  0  0  0  0
  -22.0682   -5.0661   23.6098 F   0  0  0  0  0  0  0  0  0  0  0  0
  1  2  1  0  0  0  0
  1  5  2  0  0  0  0
  2  6  2  0  0  0  0
  3  8  2  0  0  0  0
  3 16  1  0  0  0  0
  4  9  1  0  0  0  0
  4 16  2  0  0  0  0
  5 18  1  0  0  0  0
  6 20  1  0  0  0  0
  7 10  2  0  0  0  0
  7 19  1  0  0  0  0
  8 22  1  0  0  0  0
  9 22  2  0  0  0  0
 10 23  1  0  0  0  0
 11 12  2  0  0  0  0
 11 24  1  0  0  0  0
 12 25  1  0  0  0  0
 13 21  1  0  0  0  0
 13 23  2  0  0  0  0
 14 25  2  0  0  0  0
 14 26  1  0  0  0  0
 15 29  2  0  0  0  0
 15 61  1  0  0  0  0
 16 27  1  0  0  0  0
 17 27  1  0  0  0  0
 17 28  2  0  0  0  0
 17 31  1  0  0  0  0
 18 20  2  0  0  0  0
 18 38  1  0  0  0  0
 19 21  2  0  0  0  0
 19 39  1  0  0  0  0
 20 47  1  0  0  0  0
 21 40  1  0  0  0  0
 22 81  1  0  0  0  0
 23 82  1  0  0  0  0
 24 26  2  0  0  0  0
 24 81  1  0  0  0  0
 25 83  1  0  0  0  0
 26 84  1  0  0  0  0
 27 62  2  0  0  0  0
 28 63  1  0  0  0  0
 28 66  1  0  0  0  0
 29 68  1  0  0  0  0
 29 80  1  0  0  0  0
 30 61  2  0  0  0  0
 30 69  1  0  0  0  0
 30 80  1  0  0  0  0
 31 67  1  0  0  0  0
 31 73  2  0  0  0  0
 32 48  1  0  0  0  0
 32 70  1  0  0  0  0
 32 74  2  0  0  0  0
 33 55  1  0  0  0  0
 33 56  1  0  0  0  0
 33 75  2  0  0  0  0
 34 58  1  0  0  0  0
 34 64  1  0  0  0  0
 34 76  2  0  0  0  0
 35 57  1  0  0  0  0
 35 69  1  0  0  0  0
 35 77  2  0  0  0  0
 36 59  1  0  0  0  0
 36 71  1  0  0  0  0
 36 78  2  0  0  0  0
 37 65  1  0  0  0  0
 37 68  1  0  0  0  0
 37 79  2  0  0  0  0
 38 41  1  0  0  0  0
 39 48  1  0  0  0  0
 40 64  1  0  0  0  0
 41 43  1  0  0  0  0
 42 44  1  0  0  0  0
 42 45  1  0  0  0  0
 43 47  1  0  0  0  0
 44 49  1  0  0  0  0
 45 65  1  0  0  0  0
 46 49  1  0  0  0  0
 46 65  1  0  0  0  0
 47 70  1  0  0  0  0
 48 64  1  0  0  0  0
 49 63  1  0  0  0  0
 50 59  1  0  0  0  0
 51 60  1  0  0  0  0
 52 60  1  0  0  0  0
 53 60  1  0  0  0  0
 54 72  1  0  0  0  0
 55 57  1  0  0  0  0
 56 82  1  0  0  0  0
 58 60  1  0  0  0  0
 58 71  1  0  0  0  0
 59 72  1  0  0  0  0
 62 63  1  0  0  0  0
M  CHG  1  72   1
M  ISO  4  37 100  56 101  68 100  82 101
M  END
> <Batch ID>
0161

> <Smiles>
CNC(C)C(=O)NC(C(=O)N1Cc2cc([101O:1][101CH2:1]C(=O)CCC(=O)Nc3ncc([100NH:0][100C:0](=O)N4CCCC(n5nc(-c6ccc(Oc7ccc(F)cc7F)cc6)c(C(N)=O)c5N)C4)o3)ccc2CC1C(=O)NC1CCCc2ccccc21)C(C)(C)C

> <Shape>
0.221

> <Color>
0.184

> <Negative vol penalty>
0.000

$$$$

  -OEChem-04052303533D

 86 94  0     1  0  0  0  0  0999 V2000
  -28.7322  -18.0202   17.7039 C   0  0  0  0  0  0  0  0  0  0  0  0
  -29.3728  -18.5840   18.8026 C   0  0  0  0  0  0  0  0  0  0  0  0
  -23.0028   -9.8909   19.9806 C   0  0  0  0  0  0  0  0  0  0  0  0
  -23.7276   -9.9428   22.2847 C   0  0  0  0  0  0  0  0  0  0  0  0
  -32.6423  -17.4520   23.4535 C   0  0  0  0  0  0  0  0  0  0  0  0
  -29.0555  -18.4453   16.4160 C   0  0  0  0  0  0  0  0  0  0  0  0
  -30.3381  -19.5724   18.6140 C   0  0  0  0  0  0  0  0  0  0  0  0
  -29.7900  -23.4590   21.8138 C   0  0  0  0  0  0  0  0  0  0  0  0
  -32.0522  -16.5562   22.5621 C   0  0  0  0  0  0  0  0  0  0  0  0
  -22.2375   -8.7555   20.2469 C   0  0  0  0  0  0  0  0  0  0  0  0
  -22.9623   -8.8075   22.5510 C   0  0  0  0  0  0  0  0  0  0  0  0
  -30.2421  -23.2770   23.1200 C   0  0  0  0  0  0  0  0  0  0  0  0
  -23.2104   -5.4688   22.0794 C   0  0  0  0  0  0  0  0  0  0  0  0
  -23.7990   -4.4523   22.8317 C   0  0  0  0  0  0  0  0  0  0  0  0
  -30.4652  -18.3510   23.9915 C   0  0  0  0  0  0  0  0  0  0  0  0
  -32.2607  -24.4837   22.5832 C   0  0  0  0  0  0  0  0  0  0  0  0
  -22.0746   -4.6934   24.5066 C   0  0  0  0  0  0  0  0  0  0  0  0
  -23.7479  -10.4845   20.9995 C   0  0  0  0  0  0  0  0  0  0  0  0
  -31.8488  -18.3494   24.1683 C   0  0  0  0  0  0  0  0  0  0  0  0
  -24.1304  -13.0005   20.8233 C   0  0  0  0  0  0  0  0  0  0  0  0
  -30.0184  -19.4463   16.2120 C   0  0  0  0  0  0  0  0  0  0  0  0
  -30.5761  -24.1465   20.8779 C   0  0  0  0  0  0  0  0  0  0  0  0
  -30.6757  -20.0103   17.3221 C   0  0  0  0  0  0  0  0  0  0  0  0
  -31.8152  -24.6753   21.2664 C   0  0  0  0  0  0  0  0  0  0  0  0
  -30.6685  -16.5577   22.3853 C   0  0  0  0  0  0  0  0  0  0  0  0
  -22.2172   -8.2139   21.5321 C   0  0  0  0  0  0  0  0  0  0  0  0
  -31.4789  -23.7868   23.5041 C   0  0  0  0  0  0  0  0  0  0  0  0
  -22.0539   -6.0977   22.5408 C   0  0  0  0  0  0  0  0  0  0  0  0
  -23.2311   -4.0646   24.0453 C   0  0  0  0  0  0  0  0  0  0  0  0
  -29.8751  -17.4551   23.1000 C   0  0  0  0  0  0  0  0  0  0  0  0
  -21.4861   -5.7100   23.7544 C   0  0  0  0  0  0  0  0  0  0  0  0
  -24.5391  -11.6570   20.7248 C   0  0  0  0  0  0  0  0  0  0  0  0
  -25.2394  -13.7243   20.4590 C   0  0  0  0  0  0  0  0  0  0  0  0
  -32.4728  -19.2981   25.1123 C   0  0  0  0  0  0  0  0  0  0  0  0
  -22.8617  -13.5455   21.2096 C   0  0  0  0  0  0  0  0  0  0  0  0
  -31.9448  -23.3897   18.1107 C   0  0  0  0  0  0  0  0  0  0  0  0
  -34.1875  -23.8098   25.5906 C   0  0  0  0  0  0  0  0  0  0  0  0
  -32.6550  -26.5541   18.0425 C   0  0  0  0  0  0  0  0  0  0  0  0
  -33.1561  -29.4490   19.7790 C   0  0  0  0  0  0  0  0  0  0  0  0
  -30.7177  -14.6916   20.6936 C   0  0  0  0  0  0  0  0  0  0  0  0
  -30.3684  -19.8396   14.7987 C   0  0  0  0  0  0  0  0  0  0  0  0
  -30.0623  -24.3576   19.4801 C   0  0  0  0  0  0  0  0  0  0  0  0
  -32.6882  -25.4386   20.3052 C   0  0  0  0  0  0  0  0  0  0  0  0
  -31.1334  -21.1573   14.7049 C   0  0  0  0  0  0  0  0  0  0  0  0
  -29.6025  -12.2373   18.3677 C   0  0  0  0  0  0  0  0  0  0  0  0
  -32.2612  -21.1941   15.7313 C   0  0  0  0  0  0  0  0  0  0  0  0
  -28.1522  -11.9781   18.7817 C   0  0  0  0  0  0  0  0  0  0  0  0
  -30.5026  -12.4818   19.5776 C   0  0  0  0  0  0  0  0  0  0  0  0
  -28.5862  -13.2686   20.9108 C   0  0  0  0  0  0  0  0  0  0  0  0
  -31.7105  -21.1025   17.1595 C   0  0  1  0  0  0  0  0  0  0  0  0
  -31.1729  -24.6278   18.4697 C   0  0  1  0  0  0  0  0  0  0  0  0
  -27.6289  -13.0811   19.7225 C   0  0  2  0  0  0  0  0  0  0  0  0
  -35.6260  -23.6041   25.1897 C   0  0  0  0  0  0  0  0  0  0  0  0
  -33.7608  -31.8625   19.4524 C   0  0  0  0  0  0  0  0  0  0  0  0
  -35.5700  -25.7628   17.6107 C   0  0  0  0  0  0  0  0  0  0  0  0
  -36.2238  -28.0968   18.2380 C   0  0  0  0  0  0  0  0  0  0  0  0
  -34.7991  -27.6997   16.2291 C   0  0  0  0  0  0  0  0  0  0  0  0
  -30.5835  -30.3677   20.9176 C   0  0  0  0  0  0  0  0  0  0  0  0
  -32.8776  -21.6453   25.7632 C   0  0  0  0  0  0  0  0  0  0  0  0
  -33.1486  -22.8989   24.9462 C   0  0  1  0  0  0  0  0  0  1  0  0
  -33.8026  -27.4031   18.5337 C   0  0  1  0  0  0  0  0  0  0  0  0
  -32.6267  -30.8557   19.5663 C   0  0  2  0  0  0  0  0  0  0  0  0
  -35.0835  -27.2246   17.6707 C   0  0  0  0  0  0  0  0  0  0  0  0
  -25.8085  -11.5319   20.3288 N   0  0  0  0  0  0  0  0  0  0  0  0
  -26.2071  -12.8061   20.1752 N   0  0  0  0  0  0  0  0  0  0  0  0
  -32.1448  -25.6132   18.9481 N   0  0  0  0  0  0  0  0  0  0  0  0
  -29.9462  -13.5422   20.4208 N   0  0  0  0  0  0  0  0  0  0  0  0
  -25.4714  -15.0503   20.3569 N   0  0  0  0  0  0  0  0  0  0  0  0
  -33.1715  -18.8008   26.1328 N   0  0  0  0  0  0  0  0  0  0  0  0
  -21.8309  -12.6602   21.5531 N   0  0  0  0  0  0  0  0  0  0  0  0
  -30.0723  -15.6461   21.4790 N   0  0  0  0  0  0  0  0  0  0  0  0
  -31.1696  -22.3788   17.5755 N   0  0  0  0  0  0  0  0  0  0  0  0
  -33.3036  -28.7730   18.5863 N   0  0  0  0  0  0  0  0  0  0  0  0
  -32.3048  -20.6078   24.8992 N   0  3  0  0  0  0  0  0  0  0  0  0
  -31.7535  -31.2582   20.7049 N   0  3  0  0  0  0  0  0  0  0  0  0
  -22.6436  -14.7806   21.2333 O   0  0  0  0  0  0  0  0  0  0  0  0
  -33.1545  -23.3547   18.3035 O   0  0  0  0  0  0  0  0  0  0  0  0
  -33.8767  -24.6850   26.3991 O   0  0  0  0  0  0  0  0  0  0  0  0
  -32.2223  -26.7246   16.9000 O   0  0  0  0  0  0  0  0  0  0  0  0
  -33.4166  -28.9964   20.8916 O   0  0  0  0  0  0  0  0  0  0  0  0
  -31.8563  -14.8318   20.2397 O   0  0  0  0  0  0  0  0  0  0  0  0
  -21.4704   -7.1061   21.7924 O   0  0  0  0  0  0  0  0  0  0  0  0
  -31.9228  -23.6100   24.7783 O   0  0  0  0  0  0  0  0  0  1  0  0
  -23.7956   -3.0874   24.7668 F   0  0  0  0  0  0  0  0  0  0  0  0
  -28.5444  -17.4663   22.9369 F   0  0  0  0  0  0  0  0  0  0  0  0
  -20.3744   -6.3096   24.2022 F   0  0  0  0  0  0  0  0  0  0  0  0
  1  2  1  0  0  0  0
  1  6  2  0  0  0  0
  2  7  2  0  0  0  0
  3 10  2  0  0  0  0
  3 18  1  0  0  0  0
  4 11  1  0  0  0  0
  4 18  2  0  0  0  0
  5  9  2  0  0  0  0
  5 19  1  0  0  0  0
  6 21  1  0  0  0  0
  7 23  1  0  0  0  0
  8 12  2  0  0  0  0
  8 22  1  0  0  0  0
  9 25  1  0  0  0  0
 10 26  1  0  0  0  0
 11 26  2  0  0  0  0
 12 27  1  0  0  0  0
 13 14  2  0  0  0  0
 13 28  1  0  0  0  0
 14 29  1  0  0  0  0
 15 19  2  0  0  0  0
 15 30  1  0  0  0  0
 16 24  1  0  0  0  0
 16 27  2  0  0  0  0
 17 29  2  0  0  0  0
 17 31  1  0  0  0  0
 18 32  1  0  0  0  0
 19 34  1  0  0  0  0
 20 32  1  0  0  0  0
 20 33  2  0  0  0  0
 20 35  1  0  0  0  0
 21 23  2  0  0  0  0
 21 41  1  0  0  0  0
 22 24  2  0  0  0  0
 22 42  1  0  0  0  0
 23 50  1  0  0  0  0
 24 43  1  0  0  0  0
 25 30  2  0  0  0  0
 25 71  1  0  0  0  0
 26 82  1  0  0  0  0
 27 83  1  0  0  0  0
 28 31  2  0  0  0  0
 28 82  1  0  0  0  0
 29 84  1  0  0  0  0
 30 85  1  0  0  0  0
 31 86  1  0  0  0  0
 32 64  2  0  0  0  0
 33 65  1  0  0  0  0
 33 68  1  0  0  0  0
 34 69  1  0  0  0  0
 34 74  2  0  0  0  0
 35 70  1  0  0  0  0
 35 76  2  0  0  0  0
 36 51  1  0  0  0  0
 36 72  1  0  0  0  0
 36 77  2  0  0  0  0
 37 53  1  0  0  0  0
 37 60  1  0  0  0  0
 37 78  2  0  0  0  0
 38 61  1  0  0  0  0
 38 66  1  0  0  0  0
 38 79  2  0  0  0  0
 39 62  1  0  0  0  0
 39 73  1  0  0  0  0
 39 80  2  0  0  0  0
 40 67  1  0  0  0  0
 40 71  1  0  0  0  0
 40 81  2  0  0  0  0
 41 44  1  0  0  0  0
 42 51  1  0  0  0  0
 43 66  1  0  0  0  0
 44 46  1  0  0  0  0
 45 47  1  0  0  0  0
 45 48  1  0  0  0  0
 46 50  1  0  0  0  0
 47 52  1  0  0  0  0
 48 67  1  0  0  0  0
 49 52  1  0  0  0  0
 49 67  1  0  0  0  0
 50 72  1  0  0  0  0
 51 66  1  0  0  0  0
 52 65  1  0  0  0  0
 54 62  1  0  0  0  0
 55 63  1  0  0  0  0
 56 63  1  0  0  0  0
 57 63  1  0  0  0  0
 58 75  1  0  0  0  0
 59 60  1  0  0  0  0
 59 74  1  0  0  0  0
 60 83  1  0  0  0  0
 61 63  1  0  0  0  0
 61 73  1  0  0  0  0
 62 75  1  0  0  0  0
 64 65  1  0  0  0  0
M  CHG  2  74   1  75   1
M  ISO  4  40 100  60 101  71 100  83 101
M  END
> <Batch ID>
0161

> <Smiles>
CNC(C)C(=O)NC(C(=O)N1Cc2cc([101O:1][101CH:1](CNC(=N)c3ccc([100NH:0][100C:0](=O)N4CCCC(n5nc(-c6ccc(Oc7ccc(F)cc7F)cc6)c(C(N)=O)c5N)C4)c(F)c3)C(C)=O)ccc2CC1C(=O)NC1CCCc2ccccc21)C(C)(C)C

> <Shape>
0.222

> <Color>
0.189

> <Negative vol penalty>
0.000

$$$$

  -OEChem-04052303533D

 83 91  0     1  0  0  0  0  0999 V2000
  -26.3552  -16.4051   16.7585 C   0  0  0  0  0  0  0  0  0  0  0  0
  -26.9030  -17.1871   17.7704 C   0  0  0  0  0  0  0  0  0  0  0  0
  -23.0948   -9.8495   19.9706 C   0  0  0  0  0  0  0  0  0  0  0  0
  -23.8100   -9.9352   22.2767 C   0  0  0  0  0  0  0  0  0  0  0  0
  -25.7969  -17.0125   15.6346 C   0  0  0  0  0  0  0  0  0  0  0  0
  -26.8937  -18.5770   17.6584 C   0  0  0  0  0  0  0  0  0  0  0  0
  -25.4796  -20.8624   21.9504 C   0  0  0  0  0  0  0  0  0  0  0  0
  -22.3524   -8.7006   20.2434 C   0  0  0  0  0  0  0  0  0  0  0  0
  -23.0675   -8.7863   22.5496 C   0  0  0  0  0  0  0  0  0  0  0  0
  -26.4316  -20.9578   22.9646 C   0  0  0  0  0  0  0  0  0  0  0  0
  -21.0718   -6.0819   23.9359 C   0  0  0  0  0  0  0  0  0  0  0  0
  -20.2932   -6.0716   25.0931 C   0  0  0  0  0  0  0  0  0  0  0  0
  -26.8722  -23.2424   22.3279 C   0  0  0  0  0  0  0  0  0  0  0  0
  -19.0526   -7.9767   24.2753 C   0  0  0  0  0  0  0  0  0  0  0  0
  -31.7364  -18.8300   22.1591 C   0  0  0  0  0  0  0  0  0  0  0  0
  -23.8236  -10.4668   20.9872 C   0  0  0  0  0  0  0  0  0  0  0  0
  -24.1541  -12.9887   20.7919 C   0  0  0  0  0  0  0  0  0  0  0  0
  -25.7720  -18.4108   15.5132 C   0  0  0  0  0  0  0  0  0  0  0  0
  -25.2242  -21.9548   21.1090 C   0  0  0  0  0  0  0  0  0  0  0  0
  -26.3357  -19.2036   16.5311 C   0  0  0  0  0  0  0  0  0  0  0  0
  -25.9147  -23.1592   21.3055 C   0  0  0  0  0  0  0  0  0  0  0  0
  -22.3388   -8.1690   21.5329 C   0  0  0  0  0  0  0  0  0  0  0  0
  -27.1301  -22.1469   23.1516 C   0  0  0  0  0  0  0  0  0  0  0  0
  -20.8409   -7.0396   22.9483 C   0  0  0  0  0  0  0  0  0  0  0  0
  -19.2836   -7.0190   25.2628 C   0  0  0  0  0  0  0  0  0  0  0  0
  -19.8313   -7.9870   23.1180 C   0  0  0  0  0  0  0  0  0  0  0  0
  -24.5911  -11.6533   20.7058 C   0  0  0  0  0  0  0  0  0  0  0  0
  -25.2490  -13.7326   20.4256 C   0  0  0  0  0  0  0  0  0  0  0  0
  -30.6186  -19.2145   22.8694 C   0  0  0  0  0  0  0  0  0  0  0  0
  -30.5146  -17.0354   21.8481 C   0  0  0  0  0  0  0  0  0  0  0  0
  -22.8730  -13.5102   21.1694 C   0  0  0  0  0  0  0  0  0  0  0  0
  -25.4930  -22.4931   17.9879 C   0  0  0  0  0  0  0  0  0  0  0  0
  -24.0471  -25.2971   18.7423 C   0  0  0  0  0  0  0  0  0  0  0  0
  -23.3548  -27.6544   21.1110 C   0  0  0  0  0  0  0  0  0  0  0  0
  -31.1104  -21.5174   23.7703 C   0  0  0  0  0  0  0  0  0  0  0  0
  -30.7052  -14.8160   20.6714 C   0  0  0  0  0  0  0  0  0  0  0  0
  -25.2000  -19.0205   14.2579 C   0  0  0  0  0  0  0  0  0  0  0  0
  -24.1751  -21.8444   20.0368 C   0  0  0  0  0  0  0  0  0  0  0  0
  -25.6631  -24.3675   20.4422 C   0  0  0  0  0  0  0  0  0  0  0  0
  -24.8935  -20.5101   14.3892 C   0  0  0  0  0  0  0  0  0  0  0  0
  -29.6499  -12.3204   18.3616 C   0  0  0  0  0  0  0  0  0  0  0  0
  -26.0636  -21.2406   15.0404 C   0  0  0  0  0  0  0  0  0  0  0  0
  -28.2037  -12.0343   18.7726 C   0  0  0  0  0  0  0  0  0  0  0  0
  -30.5402  -12.5934   19.5726 C   0  0  0  0  0  0  0  0  0  0  0  0
  -28.6030  -13.3506   20.8927 C   0  0  0  0  0  0  0  0  0  0  0  0
  -26.3222  -20.7150   16.4576 C   0  0  1  0  0  0  0  0  0  0  0  0
  -24.3635  -22.8555   18.9101 C   0  0  1  0  0  0  0  0  0  0  0  0
  -27.6541  -13.1336   19.7027 C   0  0  2  0  0  0  0  0  0  0  0  0
  -22.1835  -29.8522   21.4196 C   0  0  0  0  0  0  0  0  0  0  0  0
  -31.3961  -23.8110   24.7780 C   0  0  0  0  0  0  0  0  0  0  0  0
  -30.0632  -22.0639   26.0142 C   0  0  0  0  0  0  0  0  0  0  0  0
  -26.3493  -26.7193   17.3328 C   0  0  0  0  0  0  0  0  0  0  0  0
  -25.6481  -28.8353   18.4727 C   0  0  0  0  0  0  0  0  0  0  0  0
  -24.0910  -27.6981   16.8899 C   0  0  0  0  0  0  0  0  0  0  0  0
  -21.4987  -26.5157   23.1152 C   0  0  0  0  0  0  0  0  0  0  0  0
  -29.1559  -23.1293   23.9178 C   0  0  0  0  0  0  0  0  0  1  0  0
  -24.5238  -26.6679   19.1578 C   0  0  1  0  0  0  0  0  0  0  0  0
  -22.0575  -28.3389   21.5019 C   0  0  2  0  0  0  0  0  0  0  0  0
  -30.4330  -22.6201   24.6277 C   0  0  0  0  0  0  0  0  0  0  0  0
  -25.1594  -27.4569   17.9785 C   0  0  0  0  0  0  0  0  0  0  0  0
  -31.6788  -17.5806   21.5730 N   0  0  0  0  0  0  0  0  0  0  0  0
  -25.8644  -11.5516   20.3152 N   0  0  0  0  0  0  0  0  0  0  0  0
  -26.2368  -12.8326   20.1526 N   0  0  0  0  0  0  0  0  0  0  0  0
  -24.6322  -24.2078   19.4034 N   0  0  0  0  0  0  0  0  0  0  0  0
  -29.9588  -13.6486   20.4052 N   0  0  0  0  0  0  0  0  0  0  0  0
  -25.4537  -15.0623   20.3135 N   0  0  0  0  0  0  0  0  0  0  0  0
  -21.8596  -12.6063   21.5164 N   0  0  0  0  0  0  0  0  0  0  0  0
  -30.3097  -20.3929   23.5920 N   0  0  0  0  0  0  0  0  0  0  0  0
  -30.0371  -15.7631   21.4469 N   0  0  0  0  0  0  0  0  0  0  0  0
  -25.3516  -21.2587   17.3832 N   0  0  0  0  0  0  0  0  0  0  0  0
  -23.3775  -27.3302   19.7710 N   0  0  0  0  0  0  0  0  0  0  0  0
  -21.6792  -27.9740   22.8965 N   0  3  0  0  0  0  0  0  0  0  0  0
  -22.6290  -14.7406   21.1822 O   0  0  0  0  0  0  0  0  0  0  0  0
  -26.4232  -23.2761   17.8350 O   0  0  0  0  0  0  0  0  0  0  0  0
  -23.1821  -25.1967   17.8686 O   0  0  0  0  0  0  0  0  0  0  0  0
  -24.2593  -27.4332   21.9132 O   0  0  0  0  0  0  0  0  0  0  0  0
  -32.2468  -21.6688   23.3254 O   0  0  0  0  0  0  0  0  0  0  0  0
  -31.8422  -14.9764   20.2204 O   0  0  0  0  0  0  0  0  0  0  0  0
  -21.6143   -7.0480   21.7996 O   0  0  0  0  0  0  0  0  0  0  0  0
  -28.0603  -22.2425   24.1403 O   0  0  0  0  0  0  0  0  0  1  0  0
  -18.5350   -7.0081   26.3735 F   0  0  0  0  0  0  0  0  0  0  0  0
  -19.6040   -8.9088   22.1723 F   0  0  0  0  0  0  0  0  0  0  0  0
  -29.4405  -17.9698   22.8063 S   0  0  0  0  0  0  0  0  0  0  0  0
  1  2  1  0  0  0  0
  1  5  2  0  0  0  0
  2  6  2  0  0  0  0
  3  8  2  0  0  0  0
  3 16  1  0  0  0  0
  4  9  1  0  0  0  0
  4 16  2  0  0  0  0
  5 18  1  0  0  0  0
  6 20  1  0  0  0  0
  7 10  2  0  0  0  0
  7 19  1  0  0  0  0
  8 22  1  0  0  0  0
  9 22  2  0  0  0  0
 10 23  1  0  0  0  0
 11 12  2  0  0  0  0
 11 24  1  0  0  0  0
 12 25  1  0  0  0  0
 13 21  1  0  0  0  0
 13 23  2  0  0  0  0
 14 25  2  0  0  0  0
 14 26  1  0  0  0  0
 15 29  2  0  0  0  0
 15 61  1  0  0  0  0
 16 27  1  0  0  0  0
 17 27  1  0  0  0  0
 17 28  2  0  0  0  0
 17 31  1  0  0  0  0
 18 20  2  0  0  0  0
 18 37  1  0  0  0  0
 19 21  2  0  0  0  0
 19 38  1  0  0  0  0
 20 46  1  0  0  0  0
 21 39  1  0  0  0  0
 22 79  1  0  0  0  0
 23 80  1  0  0  0  0
 24 26  2  0  0  0  0
 24 79  1  0  0  0  0
 25 81  1  0  0  0  0
 26 82  1  0  0  0  0
 27 62  2  0  0  0  0
 28 63  1  0  0  0  0
 28 66  1  0  0  0  0
 29 68  1  0  0  0  0
 29 83  1  0  0  0  0
 30 61  2  0  0  0  0
 30 69  1  0  0  0  0
 30 83  1  0  0  0  0
 31 67  1  0  0  0  0
 31 73  2  0  0  0  0
 32 47  1  0  0  0  0
 32 70  1  0  0  0  0
 32 74  2  0  0  0  0
 33 57  1  0  0  0  0
 33 64  1  0  0  0  0
 33 75  2  0  0  0  0
 34 58  1  0  0  0  0
 34 71  1  0  0  0  0
 34 76  2  0  0  0  0
 35 59  1  0  0  0  0
 35 68  1  0  0  0  0
 35 77  2  0  0  0  0
 36 65  1  0  0  0  0
 36 69  1  0  0  0  0
 36 78  2  0  0  0  0
 37 40  1  0  0  0  0
 38 47  1  0  0  0  0
 39 64  1  0  0  0  0
 40 42  1  0  0  0  0
 41 43  1  0  0  0  0
 41 44  1  0  0  0  0
 42 46  1  0  0  0  0
 43 48  1  0  0  0  0
 44 65  1  0  0  0  0
 45 48  1  0  0  0  0
 45 65  1  0  0  0  0
 46 70  1  0  0  0  0
 47 64  1  0  0  0  0
 48 63  1  0  0  0  0
 49 58  1  0  0  0  0
 50 59  1  0  0  0  0
 51 59  1  0  0  0  0
 52 60  1  0  0  0  0
 53 60  1  0  0  0  0
 54 60  1  0  0  0  0
 55 72  1  0  0  0  0
 56 59  1  0  0  0  0
 56 80  1  0  0  0  0
 57 60  1  0  0  0  0
 57 71  1  0  0  0  0
 58 72  1  0  0  0  0
 62 63  1  0  0  0  0
M  CHG  1  72   1
M  ISO  4  36 100  56 101  69 100  80 101
M  END
> <Batch ID>
0161

> <Smiles>
CNC(C)C(=O)NC(C(=O)N1Cc2cc([101O:1][101CH2:1]C(C)(C)C(=O)Nc3cnc([100NH:0][100C:0](=O)N4CCCC(n5nc(-c6ccc(Oc7ccc(F)cc7F)cc6)c(C(N)=O)c5N)C4)s3)ccc2CC1C(=O)NC1CCCc2ccccc21)C(C)(C)C

> <Shape>
0.210

> <Color>
0.186

> <Negative vol penalty>
0.000

$$$$

  -OEChem-04052303533D

 88 97  0     1  0  0  0  0  0999 V2000
  -26.5560  -36.3186   18.2648 C   0  0  0  0  0  0  0  0  0  0  0  0
  -27.1199  -35.0970   18.6182 C   0  0  0  0  0  0  0  0  0  0  0  0
  -23.1392   -8.9924   19.5199 C   0  0  0  0  0  0  0  0  0  0  0  0
  -24.3336   -9.0757   21.6183 C   0  0  0  0  0  0  0  0  0  0  0  0
  -25.5024  -36.8414   19.0136 C   0  0  0  0  0  0  0  0  0  0  0  0
  -26.6314  -34.3979   19.7214 C   0  0  0  0  0  0  0  0  0  0  0  0
  -26.0223  -29.4599   18.7781 C   0  0  0  0  0  0  0  0  0  0  0  0
  -22.1052   -8.2878   20.1364 C   0  0  0  0  0  0  0  0  0  0  0  0
  -23.2997   -8.3711   22.2349 C   0  0  0  0  0  0  0  0  0  0  0  0
  -27.1667  -28.6636   18.7893 C   0  0  0  0  0  0  0  0  0  0  0  0
  -22.2495   -5.1643   22.4451 C   0  0  0  0  0  0  0  0  0  0  0  0
  -22.5973   -4.1128   23.2930 C   0  0  0  0  0  0  0  0  0  0  0  0
  -26.6243  -27.9263   21.0212 C   0  0  0  0  0  0  0  0  0  0  0  0
  -27.3533  -20.1655   19.5974 C   0  0  0  0  0  0  0  0  0  0  0  0
  -25.6733  -21.6481   18.6939 C   0  0  0  0  0  0  0  0  0  0  0  0
  -25.2559  -19.2708   18.7989 C   0  0  0  0  0  0  0  0  0  0  0  0
  -21.4898   -5.2267   25.1287 C   0  0  0  0  0  0  0  0  0  0  0  0
  -24.2534   -9.3863   20.2609 C   0  0  0  0  0  0  0  0  0  0  0  0
  -26.1164   -9.6854   18.5440 C   0  0  0  0  0  0  0  0  0  0  0  0
  -24.9944  -36.1438   20.1208 C   0  0  0  0  0  0  0  0  0  0  0  0
  -25.1747  -29.5038   19.8944 C   0  0  0  0  0  0  0  0  0  0  0  0
  -25.5710  -34.9125   20.4866 C   0  0  0  0  0  0  0  0  0  0  0  0
  -25.4685  -28.7219   21.0206 C   0  0  0  0  0  0  0  0  0  0  0  0
  -26.9324  -21.4521   19.2612 C   0  0  0  0  0  0  0  0  0  0  0  0
  -26.5150  -19.0748   19.3662 C   0  0  0  0  0  0  0  0  0  0  0  0
  -24.8350  -20.5574   18.4628 C   0  0  0  0  0  0  0  0  0  0  0  0
  -22.1854   -7.9772   21.4939 C   0  0  0  0  0  0  0  0  0  0  0  0
  -27.4694  -27.8989   19.9121 C   0  0  0  0  0  0  0  0  0  0  0  0
  -21.5218   -6.2471   22.9391 C   0  0  0  0  0  0  0  0  0  0  0  0
  -22.2175   -4.1439   24.6348 C   0  0  0  0  0  0  0  0  0  0  0  0
  -21.1420   -6.2782   24.2808 C   0  0  0  0  0  0  0  0  0  0  0  0
  -25.3221  -10.1137   19.6245 C   0  0  0  0  0  0  0  0  0  0  0  0
  -26.9790  -10.7298   18.3168 C   0  0  0  0  0  0  0  0  0  0  0  0
  -26.0779   -8.4536   17.8113 C   0  0  0  0  0  0  0  0  0  0  0  0
  -24.2377  -31.7748   21.9113 C   0  0  0  0  0  0  0  0  0  0  0  0
  -22.2958  -29.4320   23.0351 C   0  0  0  0  0  0  0  0  0  0  0  0
  -22.5629  -25.9045   23.7439 C   0  0  0  0  0  0  0  0  0  0  0  0
  -26.2415  -16.5693   19.5462 C   0  0  0  0  0  0  0  0  0  0  0  0
  -23.8857  -36.7715   20.9280 C   0  0  0  0  0  0  0  0  0  0  0  0
  -23.9299  -30.3473   19.8562 C   0  0  0  0  0  0  0  0  0  0  0  0
  -24.5802  -28.7182   22.2370 C   0  0  0  0  0  0  0  0  0  0  0  0
  -23.1787  -35.7895   21.8586 C   0  0  0  0  0  0  0  0  0  0  0  0
  -28.6911  -14.1657   21.2625 C   0  0  0  0  0  0  0  0  0  0  0  0
  -24.1977  -34.9491   22.6216 C   0  0  0  0  0  0  0  0  0  0  0  0
  -28.5540  -12.9597   20.3361 C   0  0  0  0  0  0  0  0  0  0  0  0
  -28.9821  -24.5242   18.6471 C   0  0  0  0  0  0  0  0  0  0  0  0
  -29.5108  -23.5887   20.9029 C   0  0  0  0  0  0  0  0  0  0  0  0
  -28.2968  -15.4680   20.5774 C   0  0  0  0  0  0  0  0  0  0  0  0
  -27.6854  -23.7172   18.6119 C   0  0  0  0  0  0  0  0  0  0  0  0
  -28.2147  -22.7815   20.8749 C   0  0  0  0  0  0  0  0  0  0  0  0
  -26.3147  -14.1068   19.8884 C   0  0  0  0  0  0  0  0  0  0  0  0
  -25.0523  -34.1125   21.6618 C   0  0  1  0  0  0  0  0  0  0  0  0
  -23.4121  -30.7113   21.2443 C   0  0  1  0  0  0  0  0  0  0  0  0
  -27.3167  -13.0400   19.4201 C   0  0  2  0  0  0  0  0  0  0  0  0
  -29.4383  -24.8719   20.0675 C   0  0  0  0  0  0  0  0  0  0  0  0
  -20.8109  -24.1081   23.7685 C   0  0  0  0  0  0  0  0  0  0  0  0
  -22.1223  -30.0453   26.0190 C   0  0  0  0  0  0  0  0  0  0  0  0
  -21.8348  -27.5934   26.4353 C   0  0  0  0  0  0  0  0  0  0  0  0
  -20.1430  -28.8344   25.0861 C   0  0  0  0  0  0  0  0  0  0  0  0
  -22.8029  -21.9533   18.0786 C   0  0  0  0  0  0  0  0  0  0  0  0
  -24.0744  -24.2424   21.8172 C   0  0  0  0  0  0  0  0  0  0  0  0
  -31.2556  -25.7782   21.2516 C   0  0  0  0  0  0  0  0  0  0  0  0
  -28.5391  -25.9311   20.7119 C   0  0  0  0  0  0  0  0  0  1  0  0
  -22.4163  -28.3569   24.0880 C   0  0  1  0  0  0  0  0  0  0  0  0
  -21.9203  -24.7701   22.9662 C   0  0  2  0  0  0  0  0  0  0  0  0
  -21.6519  -28.7172   25.3931 C   0  0  0  0  0  0  0  0  0  0  0  0
  -25.6509  -11.3350   20.0539 N   0  0  0  0  0  0  0  0  0  0  0  0
  -26.6615  -11.6829   19.2392 N   0  0  0  0  0  0  0  0  0  0  0  0
  -27.7748  -22.5476   19.4927 N   0  0  0  0  0  0  0  0  0  0  0  0
  -23.3781  -29.5640   22.1537 N   0  0  0  0  0  0  0  0  0  0  0  0
  -26.9509  -15.4256   19.9875 N   0  0  0  0  0  0  0  0  0  0  0  0
  -27.9706  -10.9165   17.4199 N   0  0  0  0  0  0  0  0  0  0  0  0
  -26.8666   -7.3849   18.2590 N   0  0  0  0  0  0  0  0  0  0  0  0
  -26.9433  -17.7671   19.7059 N   0  0  0  0  0  0  0  0  0  0  0  0
  -23.5616  -20.7558   17.8897 N   0  0  0  0  0  0  0  0  0  0  0  0
  -24.3114  -32.9578   21.2011 N   0  0  0  0  0  0  0  0  0  0  0  0
  -21.9730  -27.1177   23.4586 N   0  0  0  0  0  0  0  0  0  0  0  0
  -22.9365  -23.7345   22.6261 N   0  3  0  0  0  0  0  0  0  0  0  0
  -25.3778   -8.3102   16.7804 O   0  0  0  0  0  0  0  0  0  0  0  0
  -24.7672  -31.5400   22.9912 O   0  0  0  0  0  0  0  0  0  0  0  0
  -21.2757  -30.1243   22.9917 O   0  0  0  0  0  0  0  0  0  0  0  0
  -23.4926  -25.7311   24.5288 O   0  0  0  0  0  0  0  0  0  0  0  0
  -25.1130  -16.4831   19.0573 O   0  0  0  0  0  0  0  0  0  0  0  0
  -21.1766   -7.2899   22.0958 O   0  0  0  0  0  0  0  0  0  0  0  0
  -28.5861  -27.1213   19.9259 O   0  0  0  0  0  0  0  0  0  1  0  0
  -30.7539  -25.4261   19.9729 O   0  0  0  0  0  0  0  0  0  0  0  0
  -22.5502   -3.1334   25.4486 F   0  0  0  0  0  0  0  0  0  0  0  0
  -20.4418   -7.3151   24.7608 F   0  0  0  0  0  0  0  0  0  0  0  0
  1  2  1  0  0  0  0
  1  5  2  0  0  0  0
  2  6  2  0  0  0  0
  3  8  2  0  0  0  0
  3 18  1  0  0  0  0
  4  9  1  0  0  0  0
  4 18  2  0  0  0  0
  5 20  1  0  0  0  0
  6 22  1  0  0  0  0
  7 10  2  0  0  0  0
  7 21  1  0  0  0  0
  8 27  1  0  0  0  0
  9 27  2  0  0  0  0
 10 28  1  0  0  0  0
 11 12  2  0  0  0  0
 11 29  1  0  0  0  0
 12 30  1  0  0  0  0
 13 23  1  0  0  0  0
 13 28  2  0  0  0  0
 14 24  2  0  0  0  0
 14 25  1  0  0  0  0
 15 24  1  0  0  0  0
 15 26  2  0  0  0  0
 16 25  2  0  0  0  0
 16 26  1  0  0  0  0
 17 30  2  0  0  0  0
 17 31  1  0  0  0  0
 18 32  1  0  0  0  0
 19 32  1  0  0  0  0
 19 33  2  0  0  0  0
 19 34  1  0  0  0  0
 20 22  2  0  0  0  0
 20 39  1  0  0  0  0
 21 23  2  0  0  0  0
 21 40  1  0  0  0  0
 22 52  1  0  0  0  0
 23 41  1  0  0  0  0
 24 69  1  0  0  0  0
 25 74  1  0  0  0  0
 26 75  1  0  0  0  0
 27 84  1  0  0  0  0
 28 85  1  0  0  0  0
 29 31  2  0  0  0  0
 29 84  1  0  0  0  0
 30 87  1  0  0  0  0
 31 88  1  0  0  0  0
 32 67  2  0  0  0  0
 33 68  1  0  0  0  0
 33 72  1  0  0  0  0
 34 73  1  0  0  0  0
 34 79  2  0  0  0  0
 35 53  1  0  0  0  0
 35 76  1  0  0  0  0
 35 80  2  0  0  0  0
 36 64  1  0  0  0  0
 36 70  1  0  0  0  0
 36 81  2  0  0  0  0
 37 65  1  0  0  0  0
 37 77  1  0  0  0  0
 37 82  2  0  0  0  0
 38 71  1  0  0  0  0
 38 74  1  0  0  0  0
 38 83  2  0  0  0  0
 39 42  1  0  0  0  0
 40 53  1  0  0  0  0
 41 70  1  0  0  0  0
 42 44  1  0  0  0  0
 43 45  1  0  0  0  0
 43 48  1  0  0  0  0
 44 52  1  0  0  0  0
 45 54  1  0  0  0  0
 46 49  1  0  0  0  0
 46 55  1  0  0  0  0
 47 50  1  0  0  0  0
 47 55  1  0  0  0  0
 48 71  1  0  0  0  0
 49 69  1  0  0  0  0
 50 69  1  0  0  0  0
 51 54  1  0  0  0  0
 51 71  1  0  0  0  0
 52 76  1  0  0  0  0
 53 70  1  0  0  0  0
 54 68  1  0  0  0  0
 55 63  1  0  0  0  0
 55 86  1  0  0  0  0
 56 65  1  0  0  0  0
 57 66  1  0  0  0  0
 58 66  1  0  0  0  0
 59 66  1  0  0  0  0
 60 75  1  0  0  0  0
 61 78  1  0  0  0  0
 62 86  1  0  0  0  0
 63 85  1  0  0  0  0
 64 66  1  0  0  0  0
 64 77  1  0  0  0  0
 65 78  1  0  0  0  0
 67 68  1  0  0  0  0
M  CHG  1  78   1
M  ISO  4  38 100  63 101  74 100  85 101
M  END
> <Batch ID>
0161

> <Smiles>
CNc1cc([100NH:0][100C:0](=O)N2CCCC(n3nc(-c4ccc(Oc5ccc(F)cc5F)cc4)c(C(N)=O)c3N)C2)cc(N2CCC(OC)([101CH2:1][101O:1]c3ccc4c(c3)CN(C(=O)C(NC(=O)C(C)NC)C(C)(C)C)C(C(=O)NC3CCCc5ccccc53)C4)CC2)c1

> <Shape>
0.256

> <Color>
0.112

> <Negative vol penalty>
0.000

$$$$

  -OEChem-04052303533D

 86 94  0     1  0  0  0  0  0999 V2000
  -27.0923  -38.0473   19.7769 C   0  0  0  0  0  0  0  0  0  0  0  0
  -27.5262  -36.7947   19.3549 C   0  0  0  0  0  0  0  0  0  0  0  0
  -26.1850  -14.8352   17.6117 C   0  0  0  0  0  0  0  0  0  0  0  0
  -27.4647  -13.1679   18.8031 C   0  0  0  0  0  0  0  0  0  0  0  0
  -26.6112  -38.2163   21.0746 C   0  0  0  0  0  0  0  0  0  0  0  0
  -27.4802  -35.7106   20.2306 C   0  0  0  0  0  0  0  0  0  0  0  0
  -26.3232  -29.8692   18.8006 C   0  0  0  0  0  0  0  0  0  0  0  0
  -27.1438  -14.8474   16.5988 C   0  0  0  0  0  0  0  0  0  0  0  0
  -28.4235  -13.1800   17.7901 C   0  0  0  0  0  0  0  0  0  0  0  0
  -27.1578  -28.7739   18.5824 C   0  0  0  0  0  0  0  0  0  0  0  0
  -31.3889  -13.0340   15.6936 C   0  0  0  0  0  0  0  0  0  0  0  0
  -32.7311  -13.0669   16.0718 C   0  0  0  0  0  0  0  0  0  0  0  0
  -26.8433  -28.0855   20.8729 C   0  0  0  0  0  0  0  0  0  0  0  0
  -32.3581  -15.1634   17.2131 C   0  0  0  0  0  0  0  0  0  0  0  0
  -26.3454  -13.9955   18.7139 C   0  0  0  0  0  0  0  0  0  0  0  0
  -24.2136  -13.1635   19.8413 C   0  0  0  0  0  0  0  0  0  0  0  0
  -26.5503  -37.1317   21.9636 C   0  0  0  0  0  0  0  0  0  0  0  0
  -25.7502  -30.0872   20.0617 C   0  0  0  0  0  0  0  0  0  0  0  0
  -26.9991  -35.8656   21.5418 C   0  0  0  0  0  0  0  0  0  0  0  0
  -25.9997  -29.1829   21.1038 C   0  0  0  0  0  0  0  0  0  0  0  0
  -28.2631  -14.0198   16.6880 C   0  0  0  0  0  0  0  0  0  0  0  0
  -27.4203  -27.8835   19.6194 C   0  0  0  0  0  0  0  0  0  0  0  0
  -30.5312  -14.0658   16.0752 C   0  0  0  0  0  0  0  0  0  0  0  0
  -33.2157  -14.1316   16.8315 C   0  0  0  0  0  0  0  0  0  0  0  0
  -31.0158  -15.1305   16.8349 C   0  0  0  0  0  0  0  0  0  0  0  0
  -25.3556  -13.9828   19.7609 C   0  0  0  0  0  0  0  0  0  0  0  0
  -29.2756  -19.0766   21.2230 C   0  0  0  0  0  0  0  0  0  0  0  0
  -23.6062  -13.5353   21.0157 C   0  0  0  0  0  0  0  0  0  0  0  0
  -29.6182  -18.4299   20.0540 C   0  0  0  0  0  0  0  0  0  0  0  0
  -28.9476  -20.7319   19.8221 C   0  0  0  0  0  0  0  0  0  0  0  0
  -23.7439  -12.1564   18.9353 C   0  0  0  0  0  0  0  0  0  0  0  0
  -29.3045  -18.4300   22.5430 C   0  0  0  0  0  0  0  0  0  0  0  0
  -25.9274  -32.3984   22.2368 C   0  0  0  0  0  0  0  0  0  0  0  0
  -28.4034  -24.3964   19.4272 C   0  0  0  0  0  0  0  0  0  0  0  0
  -23.6166  -30.6591   23.7057 C   0  0  0  0  0  0  0  0  0  0  0  0
  -22.1122  -27.6280   24.1480 C   0  0  0  0  0  0  0  0  0  0  0  0
  -26.9244  -17.6196   22.4276 C   0  0  0  0  0  0  0  0  0  0  0  0
  -26.0667  -37.3734   23.3716 C   0  0  0  0  0  0  0  0  0  0  0  0
  -24.8307  -31.2586   20.2735 C   0  0  0  0  0  0  0  0  0  0  0  0
  -25.3928  -29.3610   22.4707 C   0  0  0  0  0  0  0  0  0  0  0  0
  -25.7008  -36.0931   24.1181 C   0  0  0  0  0  0  0  0  0  0  0  0
  -25.2614  -15.4669   25.1248 C   0  0  0  0  0  0  0  0  0  0  0  0
  -26.7868  -35.0380   23.9326 C   0  0  0  0  0  0  0  0  0  0  0  0
  -24.7481  -14.5102   24.0548 C   0  0  0  0  0  0  0  0  0  0  0  0
  -26.3506  -16.3693   24.5507 C   0  0  0  0  0  0  0  0  0  0  0  0
  -24.6462  -16.7345   22.7654 C   0  0  0  0  0  0  0  0  0  0  0  0
  -26.9418  -34.6599   22.4546 C   0  0  1  0  0  0  0  0  0  0  0  0
  -24.7125  -31.6682   21.7384 C   0  0  1  0  0  0  0  0  0  0  0  0
  -24.1653  -15.2714   22.8461 C   0  0  1  0  0  0  0  0  0  0  0  0
  -32.1520  -18.1837   24.9210 C   0  0  0  0  0  0  0  0  0  0  0  0
  -20.2742  -26.5110   25.4409 C   0  0  0  0  0  0  0  0  0  0  0  0
  -25.3676  -30.6758   26.2045 C   0  0  0  0  0  0  0  0  0  0  0  0
  -23.9735  -28.8032   27.1091 C   0  0  0  0  0  0  0  0  0  0  0  0
  -22.9285  -31.0187   26.6375 C   0  0  0  0  0  0  0  0  0  0  0  0
  -20.6700  -26.8785   21.6747 C   0  0  0  0  0  0  0  0  0  0  0  0
  -28.1931  -23.0865   20.1567 C   0  0  0  0  0  0  0  0  0  0  0  0
  -27.9803  -25.6417   20.1820 C   0  0  0  0  0  0  0  0  0  1  0  0
  -30.7176  -17.9214   24.5150 C   0  0  0  0  0  0  0  0  0  0  0  0
  -23.6027  -29.5304   24.7081 C   0  0  1  0  0  0  0  0  0  0  0  0
  -20.6501  -27.2197   24.1489 C   0  0  2  0  0  0  0  0  0  0  0  0
  -23.9812  -30.0044   26.1397 C   0  0  0  0  0  0  0  0  0  0  0  0
  -25.4691  -14.8126   20.8013 N   0  0  0  0  0  0  0  0  0  0  0  0
  -28.8912  -20.3967   21.0920 N   0  0  0  0  0  0  0  0  0  0  0  0
  -24.3906  -14.5167   21.5466 N   0  0  0  0  0  0  0  0  0  0  0  0
  -24.5057  -30.5251   22.6299 N   0  0  0  0  0  0  0  0  0  0  0  0
  -26.0235  -16.9098   23.2264 N   0  0  0  0  0  0  0  0  0  0  0  0
  -22.4831  -13.1153   21.6358 N   0  0  0  0  0  0  0  0  0  0  0  0
  -30.0265  -17.1476   19.8927 N   0  0  0  0  0  0  0  0  0  0  0  0
  -24.4887  -11.9007   17.7759 N   0  0  0  0  0  0  0  0  0  0  0  0
  -28.6279  -21.9894   19.3306 N   0  0  0  0  0  0  0  0  0  0  0  0
  -28.2304  -17.7931   23.0357 N   0  0  0  0  0  0  0  0  0  0  0  0
  -25.8787  -33.7663   22.0474 N   0  0  0  0  0  0  0  0  0  0  0  0
  -22.2833  -28.9152   24.6117 N   0  0  0  0  0  0  0  0  0  0  0  0
  -30.4745  -18.5060   23.1937 N   0  3  0  0  0  0  0  0  0  0  0  0
  -20.3680  -26.3012   23.0098 N   0  3  0  0  0  0  0  0  0  0  0  0
  -22.6860  -11.5140   19.1395 O   0  0  0  0  0  0  0  0  0  0  0  0
  -26.8407  -31.7676   22.7562 O   0  0  0  0  0  0  0  0  0  0  0  0
  -28.8845  -24.4585   18.2966 O   0  0  0  0  0  0  0  0  0  0  0  0
  -22.8613  -31.6209   23.8674 O   0  0  0  0  0  0  0  0  0  0  0  0
  -23.0128  -26.8786   23.7768 O   0  0  0  0  0  0  0  0  0  0  0  0
  -26.6822  -18.0830   21.3194 O   0  0  0  0  0  0  0  0  0  0  0  0
  -29.1988  -14.0313   15.6996 O   0  0  0  0  0  0  0  0  0  0  0  0
  -28.2350  -26.8139   19.4092 O   0  0  0  0  0  0  0  0  0  1  0  0
  -34.5042  -14.1623   17.1959 F   0  0  0  0  0  0  0  0  0  0  0  0
  -30.1965  -16.1240   17.2055 F   0  0  0  0  0  0  0  0  0  0  0  0
  -29.4542  -19.5084   18.7306 S   0  0  0  0  0  0  0  0  0  0  0  0
  1  2  1  0  0  0  0
  1  5  2  0  0  0  0
  2  6  2  0  0  0  0
  3  8  2  0  0  0  0
  3 15  1  0  0  0  0
  4  9  1  0  0  0  0
  4 15  2  0  0  0  0
  5 17  1  0  0  0  0
  6 19  1  0  0  0  0
  7 10  2  0  0  0  0
  7 18  1  0  0  0  0
  8 21  1  0  0  0  0
  9 21  2  0  0  0  0
 10 22  1  0  0  0  0
 11 12  2  0  0  0  0
 11 23  1  0  0  0  0
 12 24  1  0  0  0  0
 13 20  1  0  0  0  0
 13 22  2  0  0  0  0
 14 24  2  0  0  0  0
 14 25  1  0  0  0  0
 15 26  1  0  0  0  0
 16 26  1  0  0  0  0
 16 28  2  0  0  0  0
 16 31  1  0  0  0  0
 17 19  2  0  0  0  0
 17 38  1  0  0  0  0
 18 20  2  0  0  0  0
 18 39  1  0  0  0  0
 19 47  1  0  0  0  0
 20 40  1  0  0  0  0
 21 82  1  0  0  0  0
 22 83  1  0  0  0  0
 23 25  2  0  0  0  0
 23 82  1  0  0  0  0
 24 84  1  0  0  0  0
 25 85  1  0  0  0  0
 26 62  2  0  0  0  0
 27 29  2  0  0  0  0
 27 32  1  0  0  0  0
 27 63  1  0  0  0  0
 28 64  1  0  0  0  0
 28 67  1  0  0  0  0
 29 68  1  0  0  0  0
 29 86  1  0  0  0  0
 30 63  2  0  0  0  0
 30 70  1  0  0  0  0
 30 86  1  0  0  0  0
 31 69  1  0  0  0  0
 31 76  2  0  0  0  0
 32 71  1  0  0  0  0
 32 74  2  0  0  0  0
 33 48  1  0  0  0  0
 33 72  1  0  0  0  0
 33 77  2  0  0  0  0
 34 56  1  0  0  0  0
 34 57  1  0  0  0  0
 34 78  2  0  0  0  0
 35 59  1  0  0  0  0
 35 65  1  0  0  0  0
 35 79  2  0  0  0  0
 36 60  1  0  0  0  0
 36 73  1  0  0  0  0
 36 80  2  0  0  0  0
 37 66  1  0  0  0  0
 37 71  1  0  0  0  0
 37 81  2  0  0  0  0
 38 41  1  0  0  0  0
 39 48  1  0  0  0  0
 40 65  1  0  0  0  0
 41 43  1  0  0  0  0
 42 44  1  0  0  0  0
 42 45  1  0  0  0  0
 43 47  1  0  0  0  0
 44 49  1  0  0  0  0
 45 66  1  0  0  0  0
 46 49  1  0  0  0  0
 46 66  1  0  0  0  0
 47 72  1  0  0  0  0
 48 65  1  0  0  0  0
 49 64  1  0  0  0  0
 50 58  1  0  0  0  0
 51 60  1  0  0  0  0
 52 61  1  0  0  0  0
 53 61  1  0  0  0  0
 54 61  1  0  0  0  0
 55 75  1  0  0  0  0
 56 70  1  0  0  0  0
 57 83  1  0  0  0  0
 58 74  1  0  0  0  0
 59 61  1  0  0  0  0
 59 73  1  0  0  0  0
 60 75  1  0  0  0  0
 62 64  1  0  0  0  0
M  CHG  2  74   1  75   1
M  ISO  4  37 100  57 101  71 100  83 101
M  END
> <Batch ID>
0161

> <Smiles>
CCN=C([100NH:0][100C:0](=O)N1CCCC(n2nc(-c3ccc(Oc4ccc(F)cc4F)cc3)c(C(N)=O)c2N)C1)c1nc(NCC(=O)[101CH2:1][101O:1]c2ccc3c(c2)CN(C(=O)C(NC(=O)C(C)NC)C(C)(C)C)C(C(=O)NC2CCCc4ccccc42)C3)sc1N

> <Shape>
0.240

> <Color>
0.087

> <Negative vol penalty>
0.000

$$$$

  -OEChem-04052303533D

 80 88  0     1  0  0  0  0  0999 V2000
  -16.6250  -29.8696   23.2743 C   0  0  0  0  0  0  0  0  0  0  0  0
  -17.6440  -30.4334   22.5132 C   0  0  0  0  0  0  0  0  0  0  0  0
  -27.1538  -15.3289   22.0696 C   0  0  0  0  0  0  0  0  0  0  0  0
  -26.9172  -16.2671   19.8558 C   0  0  0  0  0  0  0  0  0  0  0  0
  -16.9311  -28.9427   24.2698 C   0  0  0  0  0  0  0  0  0  0  0  0
  -18.9700  -30.0713   22.7480 C   0  0  0  0  0  0  0  0  0  0  0  0
  -25.1909  -29.1316   19.3225 C   0  0  0  0  0  0  0  0  0  0  0  0
  -25.9287  -14.6779   21.9247 C   0  0  0  0  0  0  0  0  0  0  0  0
  -25.6921  -15.6161   19.7109 C   0  0  0  0  0  0  0  0  0  0  0  0
  -26.5267  -29.5254   19.3881 C   0  0  0  0  0  0  0  0  0  0  0  0
  -24.7463  -11.9078   20.3882 C   0  0  0  0  0  0  0  0  0  0  0  0
  -24.6718  -10.5716   20.7813 C   0  0  0  0  0  0  0  0  0  0  0  0
  -26.9298  -27.8548   21.0809 C   0  0  0  0  0  0  0  0  0  0  0  0
  -22.9602  -11.1400   22.3889 C   0  0  0  0  0  0  0  0  0  0  0  0
  -29.9508  -23.9346   17.9935 C   0  0  0  0  0  0  0  0  0  0  0  0
  -27.6481  -16.1235   21.0352 C   0  0  0  0  0  0  0  0  0  0  0  0
  -30.1852  -16.3023   20.8388 C   0  0  0  0  0  0  0  0  0  0  0  0
  -18.2607  -28.5619   24.5104 C   0  0  0  0  0  0  0  0  0  0  0  0
  -24.7112  -28.1021   20.1449 C   0  0  0  0  0  0  0  0  0  0  0  0
  -19.2943  -29.1394   23.7486 C   0  0  0  0  0  0  0  0  0  0  0  0
  -25.5881  -27.4481   21.0221 C   0  0  0  0  0  0  0  0  0  0  0  0
  -25.1979  -14.8215   20.7454 C   0  0  0  0  0  0  0  0  0  0  0  0
  -27.3957  -28.8889   20.2694 C   0  0  0  0  0  0  0  0  0  0  0  0
  -23.9279  -12.8602   20.9955 C   0  0  0  0  0  0  0  0  0  0  0  0
  -23.7787  -10.1877   21.7816 C   0  0  0  0  0  0  0  0  0  0  0  0
  -23.0348  -12.4763   21.9958 C   0  0  0  0  0  0  0  0  0  0  0  0
  -28.9132  -16.7966   21.1845 C   0  0  0  0  0  0  0  0  0  0  0  0
  -30.2464  -24.0964   19.3543 C   0  0  0  0  0  0  0  0  0  0  0  0
  -31.0501  -17.3150   21.1746 C   0  0  0  0  0  0  0  0  0  0  0  0
  -30.5521  -15.0405   20.2653 C   0  0  0  0  0  0  0  0  0  0  0  0
  -22.5188  -27.8997   22.4376 C   0  0  0  0  0  0  0  0  0  0  0  0
  -23.2028  -24.7331   22.2739 C   0  0  0  0  0  0  0  0  0  0  0  0
  -25.4690  -21.9457   21.9394 C   0  0  0  0  0  0  0  0  0  0  0  0
  -30.3970  -23.2299   21.7150 C   0  0  0  0  0  0  0  0  0  0  0  0
  -18.5468  -27.5916   25.6291 C   0  0  0  0  0  0  0  0  0  0  0  0
  -23.2737  -27.6711   20.0431 C   0  0  0  0  0  0  0  0  0  0  0  0
  -25.1275  -26.3235   21.9118 C   0  0  0  0  0  0  0  0  0  0  0  0
  -19.9441  -26.9807   25.5630 C   0  0  0  0  0  0  0  0  0  0  0  0
  -31.5270  -20.9741   24.2273 C   0  0  0  0  0  0  0  0  0  0  0  0
  -20.9879  -28.0623   25.3033 C   0  0  0  0  0  0  0  0  0  0  0  0
  -31.1061  -19.6013   23.6977 C   0  0  0  0  0  0  0  0  0  0  0  0
  -30.4929  -22.0497   23.8997 C   0  0  0  0  0  0  0  0  0  0  0  0
  -29.6968  -20.7665   21.9533 C   0  0  0  0  0  0  0  0  0  0  0  0
  -20.7427  -28.7536   23.9566 C   0  0  1  0  0  0  0  0  0  0  0  0
  -22.7737  -26.9575   21.2953 C   0  0  1  0  0  0  0  0  0  0  0  0
  -30.7377  -19.6628   22.2023 C   0  0  2  0  0  0  0  0  0  0  0  0
  -25.0179  -19.4791   21.8395 C   0  0  0  0  0  0  0  0  0  0  0  0
  -30.9333  -28.5651   20.8577 C   0  0  0  0  0  0  0  0  0  0  0  0
  -23.7037  -24.8133   25.2826 C   0  0  0  0  0  0  0  0  0  0  0  0
  -24.8792  -22.6126   25.0752 C   0  0  0  0  0  0  0  0  0  0  0  0
  -22.4622  -22.7941   24.4852 C   0  0  0  0  0  0  0  0  0  0  0  0
  -26.9113  -21.6683   19.3700 C   0  0  0  0  0  0  0  0  0  0  0  0
  -29.9923  -28.3197   18.5321 C   0  0  0  0  0  0  0  0  0  0  0  0
  -31.0333  -27.2845   18.0820 C   0  0  0  0  0  0  0  0  0  0  0  0
  -24.1926  -23.8167   22.9516 C   0  0  1  0  0  0  0  0  0  0  0  0
  -25.2978  -20.7387   21.0347 C   0  0  2  0  0  0  0  0  0  0  0  0
  -29.6833  -28.2828   20.0339 C   0  0  2  0  0  0  0  0  0  1  0  0
  -23.8180  -23.5316   24.4334 C   0  0  0  0  0  0  0  0  0  0  0  0
  -30.1935  -25.0734   17.3386 N   0  0  0  0  0  0  0  0  0  0  0  0
  -28.9613  -18.0277   21.7005 N   0  0  0  0  0  0  0  0  0  0  0  0
  -30.6815  -25.3395   19.5785 N   0  0  0  0  0  0  0  0  0  0  0  0
  -30.2739  -18.3153   21.6816 N   0  0  0  0  0  0  0  0  0  0  0  0
  -30.6226  -25.8570   18.3410 N   0  0  0  0  0  0  0  0  0  0  0  0
  -23.7115  -25.9427   21.7801 N   0  0  0  0  0  0  0  0  0  0  0  0
  -30.1966  -22.0520   22.4655 N   0  0  0  0  0  0  0  0  0  0  0  0
  -32.3913  -17.4385   21.0828 N   0  0  0  0  0  0  0  0  0  0  0  0
  -29.5382  -14.1151   19.9823 N   0  0  0  0  0  0  0  0  0  0  0  0
  -30.1126  -23.1030   20.3557 N   0  0  0  0  0  0  0  0  0  0  0  0
  -21.2060  -27.9193   22.8685 N   0  0  0  0  0  0  0  0  0  0  0  0
  -24.2813  -22.6231   22.1175 N   0  0  0  0  0  0  0  0  0  0  0  0
  -26.5312  -20.5168   20.2282 N   0  3  0  0  0  0  0  0  0  0  0  0
  -31.7453  -14.7360   20.0265 O   0  0  0  0  0  0  0  0  0  0  0  0
  -23.4449  -28.5590   22.8952 O   0  0  0  0  0  0  0  0  0  0  0  0
  -22.0230  -24.3852   22.1795 O   0  0  0  0  0  0  0  0  0  0  0  0
  -26.5477  -22.2544   22.4411 O   0  0  0  0  0  0  0  0  0  0  0  0
  -30.8178  -24.2667   22.2346 O   0  0  0  0  0  0  0  0  0  0  0  0
  -24.0025  -14.1862   20.6035 O   0  0  0  0  0  0  0  0  0  0  0  0
  -28.6999  -29.2718   20.3358 O   0  0  0  0  0  0  0  0  0  1  0  0
  -23.7061   -8.9042   22.1580 F   0  0  0  0  0  0  0  0  0  0  0  0
  -22.2451  -13.3865   22.5821 F   0  0  0  0  0  0  0  0  0  0  0  0
  1  2  1  0  0  0  0
  1  5  2  0  0  0  0
  2  6  2  0  0  0  0
  3  8  2  0  0  0  0
  3 16  1  0  0  0  0
  4  9  1  0  0  0  0
  4 16  2  0  0  0  0
  5 18  1  0  0  0  0
  6 20  1  0  0  0  0
  7 10  2  0  0  0  0
  7 19  1  0  0  0  0
  8 22  1  0  0  0  0
  9 22  2  0  0  0  0
 10 23  1  0  0  0  0
 11 12  2  0  0  0  0
 11 24  1  0  0  0  0
 12 25  1  0  0  0  0
 13 21  1  0  0  0  0
 13 23  2  0  0  0  0
 14 25  2  0  0  0  0
 14 26  1  0  0  0  0
 15 28  1  0  0  0  0
 15 59  2  0  0  0  0
 16 27  1  0  0  0  0
 17 27  1  0  0  0  0
 17 29  2  0  0  0  0
 17 30  1  0  0  0  0
 18 20  2  0  0  0  0
 18 35  1  0  0  0  0
 19 21  2  0  0  0  0
 19 36  1  0  0  0  0
 20 44  1  0  0  0  0
 21 37  1  0  0  0  0
 22 77  1  0  0  0  0
 23 78  1  0  0  0  0
 24 26  2  0  0  0  0
 24 77  1  0  0  0  0
 25 79  1  0  0  0  0
 26 80  1  0  0  0  0
 27 60  2  0  0  0  0
 28 61  2  0  0  0  0
 28 68  1  0  0  0  0
 29 62  1  0  0  0  0
 29 66  1  0  0  0  0
 30 67  1  0  0  0  0
 30 72  2  0  0  0  0
 31 45  1  0  0  0  0
 31 69  1  0  0  0  0
 31 73  2  0  0  0  0
 32 55  1  0  0  0  0
 32 64  1  0  0  0  0
 32 74  2  0  0  0  0
 33 56  1  0  0  0  0
 33 70  1  0  0  0  0
 33 75  2  0  0  0  0
 34 65  1  0  0  0  0
 34 68  1  0  0  0  0
 34 76  2  0  0  0  0
 35 38  1  0  0  0  0
 36 45  1  0  0  0  0
 37 64  1  0  0  0  0
 38 40  1  0  0  0  0
 39 41  1  0  0  0  0
 39 42  1  0  0  0  0
 40 44  1  0  0  0  0
 41 46  1  0  0  0  0
 42 65  1  0  0  0  0
 43 46  1  0  0  0  0
 43 65  1  0  0  0  0
 44 69  1  0  0  0  0
 45 64  1  0  0  0  0
 46 62  1  0  0  0  0
 47 56  1  0  0  0  0
 48 57  1  0  0  0  0
 49 58  1  0  0  0  0
 50 58  1  0  0  0  0
 51 58  1  0  0  0  0
 52 71  1  0  0  0  0
 53 54  1  0  0  0  0
 53 57  1  0  0  0  0
 54 63  1  0  0  0  0
 55 58  1  0  0  0  0
 55 70  1  0  0  0  0
 56 71  1  0  0  0  0
 57 78  1  0  0  0  0
 59 63  1  0  0  0  0
 60 62  1  0  0  0  0
 61 63  1  0  0  0  0
M  CHG  1  71   1
M  ISO  4  34 100  57 101  68 100  78 101
M  END
> <Batch ID>
0161

> <Smiles>
CNC(C)C(=O)NC(C(=O)N1Cc2cc([101O:1][101CH:1](C)CCn3ncc([100NH:0][100C:0](=O)N4CCCC(n5nc(-c6ccc(Oc7ccc(F)cc7F)cc6)c(C(N)=O)c5N)C4)n3)ccc2CC1C(=O)NC1CCCc2ccccc21)C(C)(C)C

> <Shape>
0.255

> <Color>
0.097

> <Negative vol penalty>
0.000

$$$$

  -OEChem-04052303533D

 86 94  0     1  0  0  0  0  0999 V2000
  -39.9093  -27.1256   20.2666 C   0  0  0  0  0  0  0  0  0  0  0  0
  -39.4790  -25.8055   20.1802 C   0  0  0  0  0  0  0  0  0  0  0  0
  -22.9588   -9.9126   20.0073 C   0  0  0  0  0  0  0  0  0  0  0  0
  -23.6818   -9.9765   22.3117 C   0  0  0  0  0  0  0  0  0  0  0  0
  -39.0543  -28.1047   20.7708 C   0  0  0  0  0  0  0  0  0  0  0  0
  -38.1937  -25.4635   20.5992 C   0  0  0  0  0  0  0  0  0  0  0  0
  -35.8412  -22.3868   17.3365 C   0  0  0  0  0  0  0  0  0  0  0  0
  -22.1746   -8.7929   20.2843 C   0  0  0  0  0  0  0  0  0  0  0  0
  -22.8976   -8.8567   22.5888 C   0  0  0  0  0  0  0  0  0  0  0  0
  -36.1996  -21.0397   17.3602 C   0  0  0  0  0  0  0  0  0  0  0  0
  -21.3672   -5.7995   23.8222 C   0  0  0  0  0  0  0  0  0  0  0  0
  -21.9366   -4.7828   24.5888 C   0  0  0  0  0  0  0  0  0  0  0  0
  -30.3431  -18.8696   23.0203 C   0  0  0  0  0  0  0  0  0  0  0  0
  -29.8376  -17.6353   22.6276 C   0  0  0  0  0  0  0  0  0  0  0  0
  -34.2349  -20.5463   18.6701 C   0  0  0  0  0  0  0  0  0  0  0  0
  -23.6610   -4.4917   22.9218 C   0  0  0  0  0  0  0  0  0  0  0  0
  -23.7125  -10.5044   21.0209 C   0  0  0  0  0  0  0  0  0  0  0  0
  -24.1367  -13.0118   20.8193 C   0  0  0  0  0  0  0  0  0  0  0  0
  -37.7545  -27.7763   21.1871 C   0  0  0  0  0  0  0  0  0  0  0  0
  -34.6808  -22.8262   17.9898 C   0  0  0  0  0  0  0  0  0  0  0  0
  -37.3209  -26.4389   21.1107 C   0  0  0  0  0  0  0  0  0  0  0  0
  -33.8627  -21.8991   18.6511 C   0  0  0  0  0  0  0  0  0  0  0  0
  -22.1439   -8.2650   21.5751 C   0  0  0  0  0  0  0  0  0  0  0  0
  -35.3979  -20.1196   18.0295 C   0  0  0  0  0  0  0  0  0  0  0  0
  -21.9446   -6.1623   22.6054 C   0  0  0  0  0  0  0  0  0  0  0  0
  -23.0835   -4.1289   24.1386 C   0  0  0  0  0  0  0  0  0  0  0  0
  -31.6240  -19.2456   22.6314 C   0  0  0  0  0  0  0  0  0  0  0  0
  -23.0915   -5.5084   22.1552 C   0  0  0  0  0  0  0  0  0  0  0  0
  -24.5233  -11.6607   20.7352 C   0  0  0  0  0  0  0  0  0  0  0  0
  -30.6465  -16.8200   21.8525 C   0  0  0  0  0  0  0  0  0  0  0  0
  -32.3530  -18.3582   21.8563 C   0  0  0  0  0  0  0  0  0  0  0  0
  -25.2579  -13.7134   20.4489 C   0  0  0  0  0  0  0  0  0  0  0  0
  -22.8768  -13.5816   21.1983 C   0  0  0  0  0  0  0  0  0  0  0  0
  -34.0758  -24.8289   20.3829 C   0  0  0  0  0  0  0  0  0  0  0  0
  -35.8208  -18.6549   20.4422 C   0  0  0  0  0  0  0  0  0  0  0  0
  -30.9889  -24.2489   19.5721 C   0  0  0  0  0  0  0  0  0  0  0  0
  -28.7209  -22.1591   18.1108 C   0  0  0  0  0  0  0  0  0  0  0  0
  -30.7512  -14.5925   20.6806 C   0  0  0  0  0  0  0  0  0  0  0  0
  -36.8829  -28.8607   21.7693 C   0  0  0  0  0  0  0  0  0  0  0  0
  -34.2940  -24.2786   17.9323 C   0  0  0  0  0  0  0  0  0  0  0  0
  -32.5960  -22.3166   19.3508 C   0  0  0  0  0  0  0  0  0  0  0  0
  -35.4060  -28.4815   21.8426 C   0  0  0  0  0  0  0  0  0  0  0  0
  -29.5982  -12.1330   18.3787 C   0  0  0  0  0  0  0  0  0  0  0  0
  -35.2430  -27.0795   22.4212 C   0  0  0  0  0  0  0  0  0  0  0  0
  -28.1433  -11.9020   18.7935 C   0  0  0  0  0  0  0  0  0  0  0  0
  -30.5009  -12.3751   19.5872 C   0  0  0  0  0  0  0  0  0  0  0  0
  -28.5962  -13.2072   20.9097 C   0  0  0  0  0  0  0  0  0  0  0  0
  -35.9253  -26.0330   21.5320 C   0  0  1  0  0  0  0  0  0  0  0  0
  -33.3629  -24.6944   19.0671 C   0  0  1  0  0  0  0  0  0  0  0  0
  -27.6373  -13.0232   19.7222 C   0  0  2  0  0  0  0  0  0  0  0  0
  -37.7191  -16.2616   20.0415 C   0  0  0  0  0  0  0  0  0  0  0  0
  -26.2667  -21.9378   17.6358 C   0  0  0  0  0  0  0  0  0  0  0  0
  -37.8709  -19.1843   19.0734 C   0  0  0  0  0  0  0  0  0  0  0  0
  -30.4942  -23.5021   22.4889 C   0  0  0  0  0  0  0  0  0  0  0  0
  -28.3581  -22.4090   21.7741 C   0  0  0  0  0  0  0  0  0  0  0  0
  -28.6765  -24.8601   21.4370 C   0  0  0  0  0  0  0  0  0  0  0  0
  -29.1730  -22.1114   15.1864 C   0  0  0  0  0  0  0  0  0  0  0  0
  -34.5055  -17.9296   20.6693 C   0  0  0  0  0  0  0  0  0  0  0  0
  -36.8662  -16.8757   18.9356 C   0  0  0  0  0  0  0  0  0  0  0  0
  -29.9494  -23.2329   19.9796 C   0  0  1  0  0  0  0  0  0  0  0  0
  -27.6098  -22.4200   17.1099 C   0  0  2  0  0  0  0  0  0  0  0  0
  -36.5761  -18.3725   19.1320 C   0  0  1  0  0  0  0  0  0  1  0  0
  -29.3944  -23.4931   21.4084 C   0  0  0  0  0  0  0  0  0  0  0  0
  -25.7909  -11.5106   20.3422 N   0  0  0  0  0  0  0  0  0  0  0  0
  -31.8956  -17.1508   21.4553 N   0  0  0  0  0  0  0  0  0  0  0  0
  -26.2106  -12.7764   20.1759 N   0  0  0  0  0  0  0  0  0  0  0  0
  -32.2638  -23.7487   19.2716 N   0  0  0  0  0  0  0  0  0  0  0  0
  -29.9612  -13.4532   20.4186 N   0  0  0  0  0  0  0  0  0  0  0  0
  -25.5119  -15.0342   20.3334 N   0  0  0  0  0  0  0  0  0  0  0  0
  -21.8311  -12.7171   21.5496 N   0  0  0  0  0  0  0  0  0  0  0  0
  -30.1208  -15.5656   21.4552 N   0  0  0  0  0  0  0  0  0  0  0  0
  -33.6285  -18.7445   21.4747 N   0  0  0  0  0  0  0  0  0  0  0  0
  -35.1092  -25.7462   20.3717 N   0  0  0  0  0  0  0  0  0  0  0  0
  -28.9336  -23.2458   18.9325 N   0  0  0  0  0  0  0  0  0  0  0  0
  -27.8924  -21.7160   15.8271 N   0  3  0  0  0  0  0  0  0  0  0  0
  -22.6791  -14.8203   21.2089 O   0  0  0  0  0  0  0  0  0  0  0  0
  -33.7140  -24.1518   21.3380 O   0  0  0  0  0  0  0  0  0  0  0  0
  -36.2752  -19.4424   21.2757 O   0  0  0  0  0  0  0  0  0  0  0  0
  -30.6792  -25.4416   19.5155 O   0  0  0  0  0  0  0  0  0  0  0  0
  -29.3359  -21.0962   18.1614 O   0  0  0  0  0  0  0  0  0  0  0  0
  -31.8925  -14.7091   20.2267 O   0  0  0  0  0  0  0  0  0  0  0  0
  -21.3786   -7.1725   21.8458 O   0  0  0  0  0  0  0  0  0  0  0  0
  -35.7458  -18.8042   18.0547 O   0  0  0  0  0  0  0  0  0  1  0  0
  -23.6310   -3.1536   24.8755 F   0  0  0  0  0  0  0  0  0  0  0  0
  -32.1244  -20.4304   23.0043 F   0  0  0  0  0  0  0  0  0  0  0  0
  -23.6515   -5.8534   20.9876 F   0  0  0  0  0  0  0  0  0  0  0  0
  1  2  1  0  0  0  0
  1  5  2  0  0  0  0
  2  6  2  0  0  0  0
  3  8  2  0  0  0  0
  3 17  1  0  0  0  0
  4  9  1  0  0  0  0
  4 17  2  0  0  0  0
  5 19  1  0  0  0  0
  6 21  1  0  0  0  0
  7 10  2  0  0  0  0
  7 20  1  0  0  0  0
  8 23  1  0  0  0  0
  9 23  2  0  0  0  0
 10 24  1  0  0  0  0
 11 12  2  0  0  0  0
 11 25  1  0  0  0  0
 12 26  1  0  0  0  0
 13 14  2  0  0  0  0
 13 27  1  0  0  0  0
 14 30  1  0  0  0  0
 15 22  1  0  0  0  0
 15 24  2  0  0  0  0
 16 26  2  0  0  0  0
 16 28  1  0  0  0  0
 17 29  1  0  0  0  0
 18 29  1  0  0  0  0
 18 32  2  0  0  0  0
 18 33  1  0  0  0  0
 19 21  2  0  0  0  0
 19 39  1  0  0  0  0
 20 22  2  0  0  0  0
 20 40  1  0  0  0  0
 21 48  1  0  0  0  0
 22 41  1  0  0  0  0
 23 82  1  0  0  0  0
 24 83  1  0  0  0  0
 25 28  2  0  0  0  0
 25 82  1  0  0  0  0
 26 84  1  0  0  0  0
 27 31  2  0  0  0  0
 27 85  1  0  0  0  0
 28 86  1  0  0  0  0
 29 64  2  0  0  0  0
 30 65  2  0  0  0  0
 30 71  1  0  0  0  0
 31 65  1  0  0  0  0
 31 72  1  0  0  0  0
 32 66  1  0  0  0  0
 32 69  1  0  0  0  0
 33 70  1  0  0  0  0
 33 76  2  0  0  0  0
 34 49  1  0  0  0  0
 34 73  1  0  0  0  0
 34 77  2  0  0  0  0
 35 58  1  0  0  0  0
 35 62  1  0  0  0  0
 35 78  2  0  0  0  0
 36 60  1  0  0  0  0
 36 67  1  0  0  0  0
 36 79  2  0  0  0  0
 37 61  1  0  0  0  0
 37 74  1  0  0  0  0
 37 80  2  0  0  0  0
 38 68  1  0  0  0  0
 38 71  1  0  0  0  0
 38 81  2  0  0  0  0
 39 42  1  0  0  0  0
 40 49  1  0  0  0  0
 41 67  1  0  0  0  0
 42 44  1  0  0  0  0
 43 45  1  0  0  0  0
 43 46  1  0  0  0  0
 44 48  1  0  0  0  0
 45 50  1  0  0  0  0
 46 68  1  0  0  0  0
 47 50  1  0  0  0  0
 47 68  1  0  0  0  0
 48 73  1  0  0  0  0
 49 67  1  0  0  0  0
 50 66  1  0  0  0  0
 51 59  1  0  0  0  0
 52 61  1  0  0  0  0
 53 62  1  0  0  0  0
 54 63  1  0  0  0  0
 55 63  1  0  0  0  0
 56 63  1  0  0  0  0
 57 75  1  0  0  0  0
 58 72  1  0  0  0  0
 59 62  1  0  0  0  0
 60 63  1  0  0  0  0
 60 74  1  0  0  0  0
 61 75  1  0  0  0  0
 62 83  1  0  0  0  0
 64 66  1  0  0  0  0
M  CHG  1  75   1
M  ISO  4  38 100  62 101  71 100  83 101
M  END
> <Batch ID>
0161

> <Smiles>
CC[101C:1](C)(C(=O)CNc1nc([100NH:0][100C:0](=O)N2CCCC(n3nc(-c4ccc(Oc5ccc(F)cc5F)cc4)c(C(N)=O)c3N)C2)ccc1F)[101O:1]c1ccc2c(c1)CN(C(=O)C(NC(=O)C(C)NC)C(C)(C)C)C(C(=O)NC1CCCc3ccccc31)C2

> <Shape>
0.218

> <Color>
0.214

> <Negative vol penalty>
0.000

$$$$

  -OEChem-04052303533D

 86 95  0     1  0  0  0  0  0999 V2000
  -30.1002  -34.0932   24.9029 C   0  0  0  0  0  0  0  0  0  0  0  0
  -29.5376  -32.8915   24.4848 C   0  0  0  0  0  0  0  0  0  0  0  0
  -24.4660   -9.3486   21.5736 C   0  0  0  0  0  0  0  0  0  0  0  0
  -22.6229  -10.4057   20.4234 C   0  0  0  0  0  0  0  0  0  0  0  0
  -29.2881  -35.0939   25.4351 C   0  0  0  0  0  0  0  0  0  0  0  0
  -28.1627  -32.6893   24.5997 C   0  0  0  0  0  0  0  0  0  0  0  0
  -26.1483  -30.6238   20.4379 C   0  0  0  0  0  0  0  0  0  0  0  0
  -23.7064   -8.1885   21.7246 C   0  0  0  0  0  0  0  0  0  0  0  0
  -21.8634   -9.2456   20.5743 C   0  0  0  0  0  0  0  0  0  0  0  0
  -26.3274  -29.2531   20.2567 C   0  0  0  0  0  0  0  0  0  0  0  0
  -21.2283   -7.0787   23.7374 C   0  0  0  0  0  0  0  0  0  0  0  0
  -21.2368   -6.4572   24.9861 C   0  0  0  0  0  0  0  0  0  0  0  0
  -24.0962  -28.8583   21.0843 C   0  0  0  0  0  0  0  0  0  0  0  0
  -22.1333   -4.4511   23.9815 C   0  0  0  0  0  0  0  0  0  0  0  0
  -26.9425  -18.6416   17.0105 C   0  0  0  0  0  0  0  0  0  0  0  0
  -23.9242  -10.4573   20.9231 C   0  0  0  0  0  0  0  0  0  0  0  0
  -25.9379  -11.7863   20.0946 C   0  0  0  0  0  0  0  0  0  0  0  0
  -27.9013  -34.9076   25.5477 C   0  0  0  0  0  0  0  0  0  0  0  0
  -24.9437  -31.1220   20.9547 C   0  0  0  0  0  0  0  0  0  0  0  0
  -27.3315  -33.6879   25.1352 C   0  0  0  0  0  0  0  0  0  0  0  0
  -23.9033  -30.2359   21.2687 C   0  0  0  0  0  0  0  0  0  0  0  0
  -22.4051   -8.1370   21.2249 C   0  0  0  0  0  0  0  0  0  0  0  0
  -25.3023  -28.3699   20.5826 C   0  0  0  0  0  0  0  0  0  0  0  0
  -21.6721   -6.3864   22.6107 C   0  0  0  0  0  0  0  0  0  0  0  0
  -21.6894   -5.1435   25.1082 C   0  0  0  0  0  0  0  0  0  0  0  0
  -22.1247   -5.0726   22.7328 C   0  0  0  0  0  0  0  0  0  0  0  0
  -24.7081  -11.6561   20.7673 C   0  0  0  0  0  0  0  0  0  0  0  0
  -26.9573  -21.2494   17.5818 C   0  0  0  0  0  0  0  0  0  0  0  0
  -26.2886  -19.1298   18.1202 C   0  0  0  0  0  0  0  0  0  0  0  0
  -27.6118  -20.7610   16.4724 C   0  0  0  0  0  0  0  0  0  0  0  0
  -26.2654  -13.1131   20.2315 C   0  0  0  0  0  0  0  0  0  0  0  0
  -26.7146  -10.7964   19.4072 C   0  0  0  0  0  0  0  0  0  0  0  0
  -24.1241  -32.7564   23.5549 C   0  0  0  0  0  0  0  0  0  0  0  0
  -21.2129  -32.8159   22.1252 C   0  0  0  0  0  0  0  0  0  0  0  0
  -19.0429  -31.3894   19.9110 C   0  0  0  0  0  0  0  0  0  0  0  0
  -24.8879  -18.5069   20.1194 C   0  0  0  0  0  0  0  0  0  0  0  0
  -27.0705  -35.9999   26.1731 C   0  0  0  0  0  0  0  0  0  0  0  0
  -24.7565  -32.6054   21.1191 C   0  0  0  0  0  0  0  0  0  0  0  0
  -22.5835  -30.7216   21.8077 C   0  0  0  0  0  0  0  0  0  0  0  0
  -25.5736  -35.8507   25.9141 C   0  0  0  0  0  0  0  0  0  0  0  0
  -24.2271  -16.7268   23.1313 C   0  0  0  0  0  0  0  0  0  0  0  0
  -25.1286  -34.4139   26.1675 C   0  0  0  0  0  0  0  0  0  0  0  0
  -28.1145  -23.1127   18.8475 C   0  0  0  0  0  0  0  0  0  0  0  0
  -24.3945  -15.2596   22.7294 C   0  0  0  0  0  0  0  0  0  0  0  0
  -28.0871  -24.6011   19.2026 C   0  0  0  0  0  0  0  0  0  0  0  0
  -23.5929  -17.5523   22.0132 C   0  0  0  0  0  0  0  0  0  0  0  0
  -24.4295  -15.9831   20.3082 C   0  0  0  0  0  0  0  0  0  0  0  0
  -25.5918  -24.6384   18.8366 C   0  0  0  0  0  0  0  0  0  0  0  0
  -25.8410  -33.4405   25.2207 C   0  0  1  0  0  0  0  0  0  0  0  0
  -26.9546  -22.7243   17.9214 C   0  0  2  0  0  0  0  0  0  0  0  0
  -23.6762  -32.9623   22.1355 C   0  0  1  0  0  0  0  0  0  0  0  0
  -25.1239  -15.1251   21.3783 C   0  0  2  0  0  0  0  0  0  0  0  0
  -26.7306  -25.0652   19.7784 C   0  0  1  0  0  0  0  0  0  0  0  0
  -26.5186  -24.4910   21.1932 C   0  0  0  0  0  0  0  0  0  0  0  0
  -16.7240  -31.6410   18.9853 C   0  0  0  0  0  0  0  0  0  0  0  0
  -20.0603  -31.6691   24.7071 C   0  0  0  0  0  0  0  0  0  0  0  0
  -17.9920  -31.0637   23.4328 C   0  0  0  0  0  0  0  0  0  0  0  0
  -18.6682  -33.4554   23.6462 C   0  0  0  0  0  0  0  0  0  0  0  0
  -20.0585  -31.7714   17.1576 C   0  0  0  0  0  0  0  0  0  0  0  0
  -26.7313  -26.6013   19.8854 C   0  0  0  0  0  0  0  0  0  1  0  0
  -19.9969  -31.9215   22.1384 C   0  0  1  0  0  0  0  0  0  0  0  0
  -18.1935  -31.9887   18.8048 C   0  0  2  0  0  0  0  0  0  0  0  0
  -19.2048  -32.0178   23.4728 C   0  0  0  0  0  0  0  0  0  0  0  0
  -27.6159  -19.4484   16.1667 N   0  0  0  0  0  0  0  0  0  0  0  0
  -24.2834  -12.8083   21.2928 N   0  0  0  0  0  0  0  0  0  0  0  0
  -26.2842  -20.4425   18.4258 N   0  0  0  0  0  0  0  0  0  0  0  0
  -25.2516  -13.6751   20.9503 N   0  0  0  0  0  0  0  0  0  0  0  0
  -22.4512  -32.1803   21.9565 N   0  0  0  0  0  0  0  0  0  0  0  0
  -24.3394  -17.3787   20.7652 N   0  0  0  0  0  0  0  0  0  0  0  0
  -28.3005  -21.6585   15.6258 N   0  0  0  0  0  0  0  0  0  0  0  0
  -27.3188  -13.8423   19.8061 N   0  0  0  0  0  0  0  0  0  0  0  0
  -26.4774  -10.5911   18.0413 N   0  0  0  0  0  0  0  0  0  0  0  0
  -25.6041  -18.2155   18.9589 N   0  0  0  0  0  0  0  0  0  0  0  0
  -25.2433  -33.4880   23.9035 N   0  0  0  0  0  0  0  0  0  0  0  0
  -19.2190  -32.2726   20.9551 N   0  0  0  0  0  0  0  0  0  0  0  0
  -25.6615  -23.1721   18.5538 N   0  3  0  0  0  0  0  0  0  0  0  0
  -18.6374  -31.4786   17.4767 N   0  3  0  0  0  0  0  0  0  0  0  0
  -27.5816  -10.1028   19.9909 O   0  0  0  0  0  0  0  0  0  0  0  0
  -23.4995  -31.9915   24.2805 O   0  0  0  0  0  0  0  0  0  0  0  0
  -21.0688  -34.0344   22.2525 O   0  0  0  0  0  0  0  0  0  0  0  0
  -19.5009  -30.2502   19.8562 O   0  0  0  0  0  0  0  0  0  0  0  0
  -24.7566  -19.6448   20.5777 O   0  0  0  0  0  0  0  0  0  0  0  0
  -21.6637   -7.0050   21.3718 O   0  0  0  0  0  0  0  0  0  0  0  0
  -25.4748  -27.0314   20.4074 O   0  0  0  0  0  0  0  0  0  1  0  0
  -21.6990   -4.5473   26.3076 F   0  0  0  0  0  0  0  0  0  0  0  0
  -22.5535   -4.4028   21.6542 F   0  0  0  0  0  0  0  0  0  0  0  0
  1  2  1  0  0  0  0
  1  5  2  0  0  0  0
  2  6  2  0  0  0  0
  3  8  2  0  0  0  0
  3 16  1  0  0  0  0
  4  9  1  0  0  0  0
  4 16  2  0  0  0  0
  5 18  1  0  0  0  0
  6 20  1  0  0  0  0
  7 10  2  0  0  0  0
  7 19  1  0  0  0  0
  8 22  1  0  0  0  0
  9 22  2  0  0  0  0
 10 23  1  0  0  0  0
 11 12  2  0  0  0  0
 11 24  1  0  0  0  0
 12 25  1  0  0  0  0
 13 21  1  0  0  0  0
 13 23  2  0  0  0  0
 14 25  2  0  0  0  0
 14 26  1  0  0  0  0
 15 29  1  0  0  0  0
 15 64  2  0  0  0  0
 16 27  1  0  0  0  0
 17 27  1  0  0  0  0
 17 31  2  0  0  0  0
 17 32  1  0  0  0  0
 18 20  2  0  0  0  0
 18 37  1  0  0  0  0
 19 21  2  0  0  0  0
 19 38  1  0  0  0  0
 20 49  1  0  0  0  0
 21 39  1  0  0  0  0
 22 83  1  0  0  0  0
 23 84  1  0  0  0  0
 24 26  2  0  0  0  0
 24 83  1  0  0  0  0
 25 85  1  0  0  0  0
 26 86  1  0  0  0  0
 27 65  2  0  0  0  0
 28 30  2  0  0  0  0
 28 50  1  0  0  0  0
 28 66  1  0  0  0  0
 29 66  2  0  0  0  0
 29 73  1  0  0  0  0
 30 64  1  0  0  0  0
 30 70  1  0  0  0  0
 31 67  1  0  0  0  0
 31 71  1  0  0  0  0
 32 72  1  0  0  0  0
 32 78  2  0  0  0  0
 33 51  1  0  0  0  0
 33 74  1  0  0  0  0
 33 79  2  0  0  0  0
 34 61  1  0  0  0  0
 34 68  1  0  0  0  0
 34 80  2  0  0  0  0
 35 62  1  0  0  0  0
 35 75  1  0  0  0  0
 35 81  2  0  0  0  0
 36 69  1  0  0  0  0
 36 73  1  0  0  0  0
 36 82  2  0  0  0  0
 37 40  1  0  0  0  0
 38 51  1  0  0  0  0
 39 68  1  0  0  0  0
 40 42  1  0  0  0  0
 41 44  1  0  0  0  0
 41 46  1  0  0  0  0
 42 49  1  0  0  0  0
 43 45  1  0  0  0  0
 43 50  1  0  0  0  0
 44 52  1  0  0  0  0
 45 53  1  0  0  0  0
 46 69  1  0  0  0  0
 47 52  1  0  0  0  0
 47 69  1  0  0  0  0
 48 53  1  0  0  0  0
 48 76  1  0  0  0  0
 49 74  1  0  0  0  0
 50 76  1  0  0  0  0
 51 68  1  0  0  0  0
 52 67  1  0  0  0  0
 53 54  1  0  0  0  0
 53 60  1  0  0  0  0
 55 62  1  0  0  0  0
 56 63  1  0  0  0  0
 57 63  1  0  0  0  0
 58 63  1  0  0  0  0
 59 77  1  0  0  0  0
 60 84  1  0  0  0  0
 61 63  1  0  0  0  0
 61 75  1  0  0  0  0
 62 77  1  0  0  0  0
 65 67  1  0  0  0  0
M  CHG  2  76   1  77   1
M  ISO  4  36 100  60 101  73 100  84 101
M  END
> <Batch ID>
0161

> <Smiles>
CNC(C)C(=O)NC(C(=O)N1Cc2cc([101O:1][101CH2:1]C3(C)CCC(c4nc([100NH:0][100C:0](=O)N5CCCC(n6nc(-c7ccc(Oc8ccc(F)cc8F)cc7)c(C(N)=O)c6N)C5)cnc4N)NC3)ccc2CC1C(=O)NC1CCCc2ccccc21)C(C)(C)C

> <Shape>
0.244

> <Color>
0.107

> <Negative vol penalty>
0.000

$$$$

  -OEChem-04052303533D

 82 90  0     1  0  0  0  0  0999 V2000
  -27.8092  -24.3503   16.7457 C   0  0  0  0  0  0  0  0  0  0  0  0
  -26.6451  -24.5777   17.4728 C   0  0  0  0  0  0  0  0  0  0  0  0
  -16.9671  -21.2789   22.8184 C   0  0  0  0  0  0  0  0  0  0  0  0
  -25.4548  -14.8387   20.0100 C   0  0  0  0  0  0  0  0  0  0  0  0
  -23.1188  -14.5128   20.5333 C   0  0  0  0  0  0  0  0  0  0  0  0
  -29.0273  -24.8453   17.2096 C   0  0  0  0  0  0  0  0  0  0  0  0
  -26.6986  -25.2992   18.6648 C   0  0  0  0  0  0  0  0  0  0  0  0
  -22.9938  -28.7327   19.0255 C   0  0  0  0  0  0  0  0  0  0  0  0
  -25.7553  -13.6022   20.5812 C   0  0  0  0  0  0  0  0  0  0  0  0
  -23.4193  -13.2762   21.1045 C   0  0  0  0  0  0  0  0  0  0  0  0
  -21.7261  -28.2675   19.3724 C   0  0  0  0  0  0  0  0  0  0  0  0
  -24.0798  -10.1374   20.0406 C   0  0  0  0  0  0  0  0  0  0  0  0
  -23.2552   -9.0593   19.7195 C   0  0  0  0  0  0  0  0  0  0  0  0
  -18.2500  -20.8970   22.4424 C   0  0  0  0  0  0  0  0  0  0  0  0
  -16.7322  -22.5816   23.2439 C   0  0  0  0  0  0  0  0  0  0  0  0
  -22.0973  -28.9723   21.6494 C   0  0  0  0  0  0  0  0  0  0  0  0
  -22.6944   -8.7928   22.0544 C   0  0  0  0  0  0  0  0  0  0  0  0
  -24.1365  -15.2940   19.9861 C   0  0  0  0  0  0  0  0  0  0  0  0
  -23.4886  -16.8289   18.0542 C   0  0  0  0  0  0  0  0  0  0  0  0
  -29.0943  -25.5815   18.4029 C   0  0  0  0  0  0  0  0  0  0  0  0
  -23.8284  -29.3123   19.9919 C   0  0  0  0  0  0  0  0  0  0  0  0
  -27.9190  -25.8033   19.1458 C   0  0  0  0  0  0  0  0  0  0  0  0
  -23.3741  -29.4463   21.3116 C   0  0  0  0  0  0  0  0  0  0  0  0
  -24.7376  -12.8209   21.1285 C   0  0  0  0  0  0  0  0  0  0  0  0
  -21.2788  -28.3846   20.6851 C   0  0  0  0  0  0  0  0  0  0  0  0
  -24.2119  -10.5432   21.3686 C   0  0  0  0  0  0  0  0  0  0  0  0
  -22.5624   -8.3870   20.7263 C   0  0  0  0  0  0  0  0  0  0  0  0
  -23.5192   -9.8709   22.3755 C   0  0  0  0  0  0  0  0  0  0  0  0
  -23.8255  -16.5715   19.3966 C   0  0  0  0  0  0  0  0  0  0  0  0
  -19.2556  -21.8479   22.5094 C   0  0  0  0  0  0  0  0  0  0  0  0
  -17.8057  -23.4570   23.2753 C   0  0  0  0  0  0  0  0  0  0  0  0
  -23.2873  -18.1867   18.0050 C   0  0  0  0  0  0  0  0  0  0  0  0
  -23.3683  -15.9218   16.9504 C   0  0  0  0  0  0  0  0  0  0  0  0
  -26.6769  -28.6036   21.2117 C   0  0  0  0  0  0  0  0  0  0  0  0
  -18.8261  -26.3633   22.4184 C   0  0  0  0  0  0  0  0  0  0  0  0
  -26.3115  -31.4570   22.7108 C   0  0  0  0  0  0  0  0  0  0  0  0
  -24.1950  -33.8657   23.8793 C   0  0  0  0  0  0  0  0  0  0  0  0
  -21.7135  -22.2315   22.1121 C   0  0  0  0  0  0  0  0  0  0  0  0
  -30.4411  -26.0558   18.8886 C   0  0  0  0  0  0  0  0  0  0  0  0
  -25.1827  -29.8334   19.5958 C   0  0  0  0  0  0  0  0  0  0  0  0
  -24.2236  -30.0793   22.3823 C   0  0  0  0  0  0  0  0  0  0  0  0
  -30.3550  -27.1315   19.9683 C   0  0  0  0  0  0  0  0  0  0  0  0
  -24.6652  -22.2558   20.1212 C   0  0  0  0  0  0  0  0  0  0  0  0
  -29.3361  -26.7385   21.0333 C   0  0  0  0  0  0  0  0  0  0  0  0
  -24.7509  -20.8259   19.5823 C   0  0  0  0  0  0  0  0  0  0  0  0
  -24.1340  -22.2914   21.5530 C   0  0  0  0  0  0  0  0  0  0  0  0
  -22.9477  -20.1578   21.2222 C   0  0  0  0  0  0  0  0  0  0  0  0
  -27.9326  -26.6027   20.4307 C   0  0  1  0  0  0  0  0  0  0  0  0
  -26.1492  -29.9398   20.7714 C   0  0  1  0  0  0  0  0  0  0  0  0
  -23.4163  -20.0758   19.7602 C   0  0  2  0  0  0  0  0  0  0  0  0
  -24.1885  -36.0623   25.0927 C   0  0  0  0  0  0  0  0  0  0  0  0
  -26.8554  -30.0044   25.3384 C   0  0  0  0  0  0  0  0  0  0  0  0
  -25.9150  -31.9850   26.5473 C   0  0  0  0  0  0  0  0  0  0  0  0
  -27.9557  -32.2411   25.1357 C   0  0  0  0  0  0  0  0  0  0  0  0
  -22.9344  -35.2576   21.5919 C   0  0  0  0  0  0  0  0  0  0  0  0
  -18.5652  -25.7774   23.7898 C   0  0  0  0  0  0  0  0  0  0  0  0
  -19.8681  -27.4635   22.3636 C   0  0  0  0  0  0  0  0  0  1  0  0
  -25.7113  -31.9073   24.0207 C   0  0  1  0  0  0  0  0  0  0  0  0
  -24.2111  -35.3768   23.7354 C   0  0  2  0  0  0  0  0  0  0  0  0
  -26.5938  -31.5207   25.2410 C   0  0  0  0  0  0  0  0  0  0  0  0
  -23.8386  -17.6770   20.1461 N   0  0  0  0  0  0  0  0  0  0  0  0
  -19.0658  -23.1226   22.9177 N   0  0  0  0  0  0  0  0  0  0  0  0
  -23.5076  -18.6423   19.2716 N   0  0  0  0  0  0  0  0  0  0  0  0
  -25.5424  -30.5677   21.9469 N   0  0  0  0  0  0  0  0  0  0  0  0
  -22.8657  -21.5649   21.6444 N   0  0  0  0  0  0  0  0  0  0  0  0
  -22.9451  -19.0234   17.0024 N   0  0  0  0  0  0  0  0  0  0  0  0
  -23.6096  -14.5597   17.1757 N   0  0  0  0  0  0  0  0  0  0  0  0
  -20.5595  -21.4487   22.1243 N   0  0  0  0  0  0  0  0  0  0  0  0
  -17.5558  -24.7534   23.7021 N   0  0  0  0  0  0  0  0  0  0  0  0
  -27.3439  -27.9081   20.2214 N   0  0  0  0  0  0  0  0  0  0  0  0
  -25.4697  -33.3399   23.8880 N   0  0  0  0  0  0  0  0  0  0  0  0
  -23.0257  -35.8357   22.9573 N   0  3  0  0  0  0  0  0  0  0  0  0
  -23.0722  -16.3099   15.7949 O   0  0  0  0  0  0  0  0  0  0  0  0
  -26.4937  -28.2320   22.3650 O   0  0  0  0  0  0  0  0  0  0  0  0
  -18.2374  -25.9801   21.4082 O   0  0  0  0  0  0  0  0  0  0  0  0
  -27.4186  -31.8843   22.3743 O   0  0  0  0  0  0  0  0  0  0  0  0
  -23.1558  -33.2170   23.9783 O   0  0  0  0  0  0  0  0  0  0  0  0
  -21.7421  -23.4179   22.4493 O   0  0  0  0  0  0  0  0  0  0  0  0
  -25.0305  -11.6142   21.6857 O   0  0  0  0  0  0  0  0  0  0  0  0
  -20.0422  -27.9308   21.0266 O   0  0  0  0  0  0  0  0  0  1  0  0
  -21.7693   -7.3527   20.4176 F   0  0  0  0  0  0  0  0  0  0  0  0
  -23.6411  -10.2568   23.6530 F   0  0  0  0  0  0  0  0  0  0  0  0
  1  2  1  0  0  0  0
  1  6  2  0  0  0  0
  2  7  2  0  0  0  0
  3 14  1  0  0  0  0
  3 15  2  0  0  0  0
  4  9  2  0  0  0  0
  4 18  1  0  0  0  0
  5 10  1  0  0  0  0
  5 18  2  0  0  0  0
  6 20  1  0  0  0  0
  7 22  1  0  0  0  0
  8 11  2  0  0  0  0
  8 21  1  0  0  0  0
  9 24  1  0  0  0  0
 10 24  2  0  0  0  0
 11 25  1  0  0  0  0
 12 13  2  0  0  0  0
 12 26  1  0  0  0  0
 13 27  1  0  0  0  0
 14 30  2  0  0  0  0
 15 31  1  0  0  0  0
 16 23  1  0  0  0  0
 16 25  2  0  0  0  0
 17 27  2  0  0  0  0
 17 28  1  0  0  0  0
 18 29  1  0  0  0  0
 19 29  1  0  0  0  0
 19 32  2  0  0  0  0
 19 33  1  0  0  0  0
 20 22  2  0  0  0  0
 20 39  1  0  0  0  0
 21 23  2  0  0  0  0
 21 40  1  0  0  0  0
 22 48  1  0  0  0  0
 23 41  1  0  0  0  0
 24 79  1  0  0  0  0
 25 80  1  0  0  0  0
 26 28  2  0  0  0  0
 26 79  1  0  0  0  0
 27 81  1  0  0  0  0
 28 82  1  0  0  0  0
 29 61  2  0  0  0  0
 30 62  1  0  0  0  0
 30 68  1  0  0  0  0
 31 62  2  0  0  0  0
 31 69  1  0  0  0  0
 32 63  1  0  0  0  0
 32 66  1  0  0  0  0
 33 67  1  0  0  0  0
 33 73  2  0  0  0  0
 34 49  1  0  0  0  0
 34 70  1  0  0  0  0
 34 74  2  0  0  0  0
 35 56  1  0  0  0  0
 35 57  1  0  0  0  0
 35 75  2  0  0  0  0
 36 58  1  0  0  0  0
 36 64  1  0  0  0  0
 36 76  2  0  0  0  0
 37 59  1  0  0  0  0
 37 71  1  0  0  0  0
 37 77  2  0  0  0  0
 38 65  1  0  0  0  0
 38 68  1  0  0  0  0
 38 78  2  0  0  0  0
 39 42  1  0  0  0  0
 40 49  1  0  0  0  0
 41 64  1  0  0  0  0
 42 44  1  0  0  0  0
 43 45  1  0  0  0  0
 43 46  1  0  0  0  0
 44 48  1  0  0  0  0
 45 50  1  0  0  0  0
 46 65  1  0  0  0  0
 47 50  1  0  0  0  0
 47 65  1  0  0  0  0
 48 70  1  0  0  0  0
 49 64  1  0  0  0  0
 50 63  1  0  0  0  0
 51 59  1  0  0  0  0
 52 60  1  0  0  0  0
 53 60  1  0  0  0  0
 54 60  1  0  0  0  0
 55 72  1  0  0  0  0
 56 69  1  0  0  0  0
 57 80  1  0  0  0  0
 58 60  1  0  0  0  0
 58 71  1  0  0  0  0
 59 72  1  0  0  0  0
 61 63  1  0  0  0  0
M  CHG  1  72   1
M  ISO  4  38 100  57 101  68 100  80 101
M  END
> <Batch ID>
0161

> <Smiles>
CNC(C)C(=O)NC(C(=O)N1Cc2cc([101O:1][101CH2:1]C(=O)CNc3cccc([100NH:0][100C:0](=O)N4CCCC(n5nc(-c6ccc(Oc7ccc(F)cc7F)cc6)c(C(N)=O)c5N)C4)n3)ccc2CC1C(=O)NC1CCCc2ccccc21)C(C)(C)C

> <Shape>
0.270

> <Color>
0.073

> <Negative vol penalty>
0.000

$$$$

  -OEChem-04052303533D

 85 93  0     1  0  0  0  0  0999 V2000
  -34.8010  -34.5398   30.7443 C   0  0  0  0  0  0  0  0  0  0  0  0
  -34.6740  -33.4135   29.9377 C   0  0  0  0  0  0  0  0  0  0  0  0
  -23.0493   -9.9051   19.9650 C   0  0  0  0  0  0  0  0  0  0  0  0
  -23.8172   -9.9129   22.2557 C   0  0  0  0  0  0  0  0  0  0  0  0
  -33.6615  -35.1898   31.2165 C   0  0  0  0  0  0  0  0  0  0  0  0
  -33.4072  -32.9358   29.6037 C   0  0  0  0  0  0  0  0  0  0  0  0
  -31.7337  -30.3174   24.3264 C   0  0  0  0  0  0  0  0  0  0  0  0
  -22.2932   -8.7616   20.2223 C   0  0  0  0  0  0  0  0  0  0  0  0
  -23.0610   -8.7694   22.5131 C   0  0  0  0  0  0  0  0  0  0  0  0
  -31.5799  -28.9844   23.9481 C   0  0  0  0  0  0  0  0  0  0  0  0
  -20.4429   -5.6313   20.1834 C   0  0  0  0  0  0  0  0  0  0  0  0
  -20.4911   -4.5963   19.2496 C   0  0  0  0  0  0  0  0  0  0  0  0
  -31.9687  -18.7576   22.3251 C   0  0  0  0  0  0  0  0  0  0  0  0
  -31.8637  -17.4969   21.6696 C   0  0  0  0  0  0  0  0  0  0  0  0
  -29.2176  -29.1310   24.4143 C   0  0  0  0  0  0  0  0  0  0  0  0
  -22.8750   -4.4004   19.5899 C   0  0  0  0  0  0  0  0  0  0  0  0
  -23.8114  -10.4807   20.9816 C   0  0  0  0  0  0  0  0  0  0  0  0
  -24.1816  -13.0013   20.8498 C   0  0  0  0  0  0  0  0  0  0  0  0
  -32.3801  -34.7256   30.8801 C   0  0  0  0  0  0  0  0  0  0  0  0
  -30.6306  -31.0653   24.7627 C   0  0  0  0  0  0  0  0  0  0  0  0
  -32.2495  -33.5794   30.0729 C   0  0  0  0  0  0  0  0  0  0  0  0
  -29.3596  -30.4740   24.7952 C   0  0  0  0  0  0  0  0  0  0  0  0
  -22.2990   -8.1937   21.4964 C   0  0  0  0  0  0  0  0  0  0  0  0
  -30.3222  -28.3901   23.9947 C   0  0  0  0  0  0  0  0  0  0  0  0
  -21.6107   -6.0509   20.8205 C   0  0  0  0  0  0  0  0  0  0  0  0
  -21.7072   -3.9808   18.9529 C   0  0  0  0  0  0  0  0  0  0  0  0
  -22.8268   -5.4354   20.5237 C   0  0  0  0  0  0  0  0  0  0  0  0
  -24.5931  -11.6616   20.7163 C   0  0  0  0  0  0  0  0  0  0  0  0
  -25.2810  -13.7367   20.4797 C   0  0  0  0  0  0  0  0  0  0  0  0
  -30.8273  -19.0710   23.0298 C   0  0  0  0  0  0  0  0  0  0  0  0
  -30.6459  -16.8946   21.8984 C   0  0  0  0  0  0  0  0  0  0  0  0
  -22.9186  -13.5334   21.2709 C   0  0  0  0  0  0  0  0  0  0  0  0
  -31.3699  -22.3875   24.5529 C   0  0  0  0  0  0  0  0  0  0  0  0
  -31.1229  -21.4816   23.5727 C   0  0  0  0  0  0  0  0  0  0  0  0
  -29.8442  -32.5314   27.4712 C   0  0  0  0  0  0  0  0  0  0  0  0
  -30.8163  -24.7968   24.0745 C   0  0  0  0  0  0  0  0  0  0  0  0
  -27.3242  -33.5781   25.7172 C   0  0  0  0  0  0  0  0  0  0  0  0
  -25.2549  -33.0988   23.0461 C   0  0  0  0  0  0  0  0  0  0  0  0
  -30.7594  -14.7202   20.6313 C   0  0  0  0  0  0  0  0  0  0  0  0
  -31.1780  -35.4335   31.4532 C   0  0  0  0  0  0  0  0  0  0  0  0
  -30.8086  -32.5099   25.1419 C   0  0  0  0  0  0  0  0  0  0  0  0
  -28.1399  -31.2395   25.2366 C   0  0  0  0  0  0  0  0  0  0  0  0
  -29.8711  -35.0844   30.7457 C   0  0  0  0  0  0  0  0  0  0  0  0
  -29.6092  -12.3096   18.2769 C   0  0  0  0  0  0  0  0  0  0  0  0
  -29.7560  -33.5760   30.5506 C   0  0  0  0  0  0  0  0  0  0  0  0
  -28.1678  -12.0364   18.7127 C   0  0  0  0  0  0  0  0  0  0  0  0
  -30.5310  -12.5329   19.4745 C   0  0  0  0  0  0  0  0  0  0  0  0
  -28.6373  -13.2848   20.8593 C   0  0  0  0  0  0  0  0  0  0  0  0
  -30.8925  -33.0455   29.6683 C   0  0  1  0  0  0  0  0  0  0  0  0
  -29.7051  -33.0271   26.0596 C   0  0  1  0  0  0  0  0  0  0  0  0
  -27.6585  -13.1179   19.6855 C   0  0  2  0  0  0  0  0  0  0  0  0
  -31.0894  -22.1288   26.0158 C   0  0  0  0  0  0  0  0  0  0  0  0
  -31.4139  -21.7682   22.1164 C   0  0  0  0  0  0  0  0  0  0  0  0
  -23.2652  -34.1008   21.8908 C   0  0  0  0  0  0  0  0  0  0  0  0
  -25.5052  -32.4913   27.9127 C   0  0  0  0  0  0  0  0  0  0  0  0
  -23.5899  -32.6501   26.3080 C   0  0  0  0  0  0  0  0  0  0  0  0
  -24.8164  -34.7120   26.9915 C   0  0  0  0  0  0  0  0  0  0  0  0
  -26.7741  -33.5167   20.5409 C   0  0  0  0  0  0  0  0  0  0  0  0
  -31.9234  -23.7737   24.2970 C   0  0  0  0  0  0  0  0  0  0  0  0
  -31.2820  -26.2200   23.8351 C   0  0  0  0  0  0  0  0  0  1  0  0
  -25.9334  -33.0650   25.4321 C   0  0  1  0  0  0  0  0  0  0  0  0
  -24.7835  -34.0430   21.9548 C   0  0  2  0  0  0  0  0  0  0  0  0
  -24.9843  -33.2143   26.6545 C   0  0  0  0  0  0  0  0  0  0  0  0
  -25.8553  -11.5496   20.2941 N   0  0  0  0  0  0  0  0  0  0  0  0
  -26.2464  -12.8282   20.1591 N   0  0  0  0  0  0  0  0  0  0  0  0
  -28.3664  -32.6472   25.6036 N   0  0  0  0  0  0  0  0  0  0  0  0
  -29.9870  -13.5736   20.3495 N   0  0  0  0  0  0  0  0  0  0  0  0
  -25.5064  -15.0653   20.4003 N   0  0  0  0  0  0  0  0  0  0  0  0
  -21.8975  -12.6372   21.6155 N   0  0  0  0  0  0  0  0  0  0  0  0
  -30.6060  -20.2275   23.7783 N   0  0  0  0  0  0  0  0  0  0  0  0
  -30.1255  -15.6560   21.4481 N   0  0  0  0  0  0  0  0  0  0  0  0
  -30.6286  -33.3360   28.2753 N   0  0  0  0  0  0  0  0  0  0  0  0
  -25.4787  -33.7622   24.2339 N   0  0  0  0  0  0  0  0  0  0  0  0
  -25.2932  -33.5962   20.6276 N   0  3  0  0  0  0  0  0  0  0  0  0
  -22.6966  -14.7668   21.3239 O   0  0  0  0  0  0  0  0  0  0  0  0
  -29.2803  -31.4963   27.8063 O   0  0  0  0  0  0  0  0  0  0  0  0
  -29.6215  -24.5044   24.0977 O   0  0  0  0  0  0  0  0  0  0  0  0
  -27.4808  -34.7630   26.0224 O   0  0  0  0  0  0  0  0  0  0  0  0
  -25.4056  -31.8927   22.8640 O   0  0  0  0  0  0  0  0  0  0  0  0
  -31.8887  -14.8741   20.1592 O   0  0  0  0  0  0  0  0  0  0  0  0
  -21.5611   -7.0781   21.7479 O   0  0  0  0  0  0  0  0  0  0  0  0
  -30.1694  -27.0890   23.6266 O   0  0  0  0  0  0  0  0  0  1  0  0
  -21.7531   -2.9859   18.0572 F   0  0  0  0  0  0  0  0  0  0  0  0
  -23.9518   -5.8334   21.1334 F   0  0  0  0  0  0  0  0  0  0  0  0
  -29.6357  -17.8481   22.8996 S   0  0  0  0  0  0  0  0  0  0  0  0
  1  2  1  0  0  0  0
  1  5  2  0  0  0  0
  2  6  2  0  0  0  0
  3  8  2  0  0  0  0
  3 17  1  0  0  0  0
  4  9  1  0  0  0  0
  4 17  2  0  0  0  0
  5 19  1  0  0  0  0
  6 21  1  0  0  0  0
  7 10  2  0  0  0  0
  7 20  1  0  0  0  0
  8 23  1  0  0  0  0
  9 23  2  0  0  0  0
 10 24  1  0  0  0  0
 11 12  2  0  0  0  0
 11 25  1  0  0  0  0
 12 26  1  0  0  0  0
 13 14  1  0  0  0  0
 13 30  2  0  0  0  0
 14 31  2  0  0  0  0
 15 22  1  0  0  0  0
 15 24  2  0  0  0  0
 16 26  2  0  0  0  0
 16 27  1  0  0  0  0
 17 28  1  0  0  0  0
 18 28  1  0  0  0  0
 18 29  2  0  0  0  0
 18 32  1  0  0  0  0
 19 21  2  0  0  0  0
 19 40  1  0  0  0  0
 20 22  2  0  0  0  0
 20 41  1  0  0  0  0
 21 49  1  0  0  0  0
 22 42  1  0  0  0  0
 23 81  1  0  0  0  0
 24 82  1  0  0  0  0
 25 27  2  0  0  0  0
 25 81  1  0  0  0  0
 26 83  1  0  0  0  0
 27 84  1  0  0  0  0
 28 64  2  0  0  0  0
 29 65  1  0  0  0  0
 29 68  1  0  0  0  0
 30 70  1  0  0  0  0
 30 85  1  0  0  0  0
 31 71  1  0  0  0  0
 31 85  1  0  0  0  0
 32 69  1  0  0  0  0
 32 75  2  0  0  0  0
 33 34  2  0  0  0  0
 33 52  1  0  0  0  0
 33 59  1  0  0  0  0
 34 53  1  0  0  0  0
 34 70  1  0  0  0  0
 35 50  1  0  0  0  0
 35 72  1  0  0  0  0
 35 76  2  0  0  0  0
 36 59  1  0  0  0  0
 36 60  1  0  0  0  0
 36 77  2  0  0  0  0
 37 61  1  0  0  0  0
 37 66  1  0  0  0  0
 37 78  2  0  0  0  0
 38 62  1  0  0  0  0
 38 73  1  0  0  0  0
 38 79  2  0  0  0  0
 39 67  1  0  0  0  0
 39 71  1  0  0  0  0
 39 80  2  0  0  0  0
 40 43  1  0  0  0  0
 41 50  1  0  0  0  0
 42 66  1  0  0  0  0
 43 45  1  0  0  0  0
 44 46  1  0  0  0  0
 44 47  1  0  0  0  0
 45 49  1  0  0  0  0
 46 51  1  0  0  0  0
 47 67  1  0  0  0  0
 48 51  1  0  0  0  0
 48 67  1  0  0  0  0
 49 72  1  0  0  0  0
 50 66  1  0  0  0  0
 51 65  1  0  0  0  0
 54 62  1  0  0  0  0
 55 63  1  0  0  0  0
 56 63  1  0  0  0  0
 57 63  1  0  0  0  0
 58 74  1  0  0  0  0
 60 82  1  0  0  0  0
 61 63  1  0  0  0  0
 61 73  1  0  0  0  0
 62 74  1  0  0  0  0
 64 65  1  0  0  0  0
M  CHG  1  74   1
M  ISO  4  39 100  60 101  71 100  82 101
M  END
> <Batch ID>
0161

> <Smiles>
CNC(C)C(=O)NC(C(=O)N1Cc2cc([101O:1][101CH2:1]C(=O)CC(C)=C(C)Nc3ccc([100NH:0][100C:0](=O)N4CCCC(n5nc(-c6ccc(Oc7ccc(F)cc7F)cc6)c(C(N)=O)c5N)C4)s3)ccc2CC1C(=O)NC1CCCc2ccccc21)C(C)(C)C

> <Shape>
0.218

> <Color>
0.212

> <Negative vol penalty>
0.000

$$$$

  -OEChem-04052303533D

 88 96  0     1  0  0  0  0  0999 V2000
  -26.5030  -37.1797   24.1217 C   0  0  0  0  0  0  0  0  0  0  0  0
  -27.1576  -36.1589   23.4399 C   0  0  0  0  0  0  0  0  0  0  0  0
  -27.0402  -14.7494   21.8452 C   0  0  0  0  0  0  0  0  0  0  0  0
  -26.2726  -15.0249   19.5710 C   0  0  0  0  0  0  0  0  0  0  0  0
  -25.4672  -36.8748   25.0038 C   0  0  0  0  0  0  0  0  0  0  0  0
  -26.7775  -34.8324   23.6407 C   0  0  0  0  0  0  0  0  0  0  0  0
  -26.7678  -30.3359   19.4828 C   0  0  0  0  0  0  0  0  0  0  0  0
  -26.6176  -13.4203   21.8269 C   0  0  0  0  0  0  0  0  0  0  0  0
  -25.8500  -13.6957   19.5527 C   0  0  0  0  0  0  0  0  0  0  0  0
  -27.6732  -29.3124   19.2059 C   0  0  0  0  0  0  0  0  0  0  0  0
  -23.7074  -11.7280   22.1298 C   0  0  0  0  0  0  0  0  0  0  0  0
  -23.0030  -11.2574   23.2379 C   0  0  0  0  0  0  0  0  0  0  0  0
  -26.3774  -27.8049   20.5725 C   0  0  0  0  0  0  0  0  0  0  0  0
  -29.6518  -20.7253   24.2872 C   0  0  0  0  0  0  0  0  0  0  0  0
  -27.7549  -22.2177   24.1800 C   0  0  0  0  0  0  0  0  0  0  0  0
  -24.7070   -9.5859   23.6112 C   0  0  0  0  0  0  0  0  0  0  0  0
  -26.8677  -15.5517   20.7173 C   0  0  0  0  0  0  0  0  0  0  0  0
  -28.5691  -17.4202   20.3684 C   0  0  0  0  0  0  0  0  0  0  0  0
  -25.0678  -35.5446   25.2082 C   0  0  0  0  0  0  0  0  0  0  0  0
  -25.6646  -30.1041   20.3168 C   0  0  0  0  0  0  0  0  0  0  0  0
  -25.7363  -34.5093   24.5273 C   0  0  0  0  0  0  0  0  0  0  0  0
  -25.4581  -28.8264   20.8563 C   0  0  0  0  0  0  0  0  0  0  0  0
  -27.5537  -20.0867   25.3005 C   0  0  0  0  0  0  0  0  0  0  0  0
  -29.0866  -21.9330   23.8779 C   0  0  0  0  0  0  0  0  0  0  0  0
  -28.8853  -19.8021   24.9985 C   0  0  0  0  0  0  0  0  0  0  0  0
  -26.9884  -21.2945   24.8913 C   0  0  0  0  0  0  0  0  0  0  0  0
  -26.0225  -12.8934   20.6806 C   0  0  0  0  0  0  0  0  0  0  0  0
  -27.4796  -28.0474   19.7531 C   0  0  0  0  0  0  0  0  0  0  0  0
  -24.9116  -11.1275   21.7623 C   0  0  0  0  0  0  0  0  0  0  0  0
  -23.5028  -10.1864   23.9786 C   0  0  0  0  0  0  0  0  0  0  0  0
  -25.4114  -10.0565   22.5030 C   0  0  0  0  0  0  0  0  0  0  0  0
  -27.3036  -16.9250   20.7358 C   0  0  0  0  0  0  0  0  0  0  0  0
  -28.4768  -18.7767   20.5630 C   0  0  0  0  0  0  0  0  0  0  0  0
  -29.7248  -16.7169   19.8936 C   0  0  0  0  0  0  0  0  0  0  0  0
  -30.3220  -24.3832   21.3756 C   0  0  0  0  0  0  0  0  0  0  0  0
  -29.9355  -25.4899   20.4140 C   0  0  0  0  0  0  0  0  0  0  0  0
  -24.6761  -31.2682   23.1045 C   0  0  0  0  0  0  0  0  0  0  0  0
  -22.0578  -29.4543   22.4908 C   0  0  0  0  0  0  0  0  0  0  0  0
  -20.7054  -26.7748   20.8667 C   0  0  0  0  0  0  0  0  0  0  0  0
  -24.6442  -21.8633   24.2042 C   0  0  0  0  0  0  0  0  0  0  0  0
  -23.9743  -35.2604   26.2073 C   0  0  0  0  0  0  0  0  0  0  0  0
  -24.6826  -31.2116   20.5840 C   0  0  0  0  0  0  0  0  0  0  0  0
  -24.2785  -28.5205   21.7413 C   0  0  0  0  0  0  0  0  0  0  0  0
  -23.3828  -33.8588   26.0806 C   0  0  0  0  0  0  0  0  0  0  0  0
  -25.3270  -22.3718   20.6030 C   0  0  0  0  0  0  0  0  0  0  0  0
  -24.4929  -32.8199   25.9577 C   0  0  0  0  0  0  0  0  0  0  0  0
  -25.9428  -21.0385   20.1829 C   0  0  0  0  0  0  0  0  0  0  0  0
  -24.3592  -22.2058   21.7707 C   0  0  0  0  0  0  0  0  0  0  0  0
  -25.5838  -20.1917   22.5356 C   0  0  0  0  0  0  0  0  0  0  0  0
  -25.3363  -33.0600   24.6997 C   0  0  1  0  0  0  0  0  0  0  0  0
  -23.8759  -30.9996   21.8614 C   0  0  1  0  0  0  0  0  0  0  0  0
  -26.5932  -20.3380   21.3872 C   0  0  1  0  0  0  0  0  0  0  0  0
  -26.7312  -19.0954   26.0642 C   0  0  0  0  0  0  0  0  0  0  0  0
  -18.5491  -25.5209   20.5916 C   0  0  0  0  0  0  0  0  0  0  0  0
  -22.4503  -28.1818   25.2361 C   0  0  0  0  0  0  0  0  0  0  0  0
  -20.9119  -26.3392   24.5248 C   0  0  0  0  0  0  0  0  0  0  0  0
  -20.0717  -28.6846   24.6498 C   0  0  0  0  0  0  0  0  0  0  0  0
  -30.5247  -17.9502   24.6690 C   0  0  0  0  0  0  0  0  0  0  0  0
  -25.2736  -21.9334   26.5771 C   0  0  0  0  0  0  0  0  0  0  0  0
  -20.6185  -27.3304   17.9611 C   0  0  0  0  0  0  0  0  0  0  0  0
  -29.2872  -23.9034   22.3603 C   0  0  0  0  0  0  0  0  0  0  0  0
  -28.5373  -26.0489   20.4899 C   0  0  0  0  0  0  0  0  0  1  0  0
  -21.6501  -28.0311   22.7860 C   0  0  1  0  0  0  0  0  0  0  0  0
  -19.4362  -26.6294   20.0467 C   0  0  2  0  0  0  0  0  0  0  0  0
  -21.2944  -27.8151   24.2841 C   0  0  0  0  0  0  0  0  0  0  0  0
  -26.4685  -17.8884   21.1338 N   0  0  0  0  0  0  0  0  0  0  0  0
  -27.2109  -19.0027   21.0177 N   0  0  0  0  0  0  0  0  0  0  0  0
  -23.3498  -29.6380   21.9782 N   0  0  0  0  0  0  0  0  0  0  0  0
  -24.9735  -21.4844   22.8865 N   0  0  0  0  0  0  0  0  0  0  0  0
  -29.3557  -19.7862   20.3878 N   0  0  0  0  0  0  0  0  0  0  0  0
  -29.6482  -15.3247   19.7516 N   0  0  0  0  0  0  0  0  0  0  0  0
  -29.4765  -18.5850   25.4040 N   0  0  0  0  0  0  0  0  0  0  0  0
  -29.8485  -22.8512   23.1713 N   0  0  0  0  0  0  0  0  0  0  0  0
  -24.6381  -32.5840   23.5247 N   0  0  0  0  0  0  0  0  0  0  0  0
  -20.5647  -27.7176   21.8629 N   0  0  0  0  0  0  0  0  0  0  0  0
  -25.6136  -21.6099   25.1932 N   0  0  0  0  0  0  0  0  0  0  0  0
  -19.7689  -26.3112   18.6293 N   0  3  0  0  0  0  0  0  0  0  0  0
  -30.7991  -17.3037   19.6194 O   0  0  0  0  0  0  0  0  0  0  0  0
  -31.4627  -23.9455   21.2912 O   0  0  0  0  0  0  0  0  0  0  0  0
  -30.7867  -25.8705   19.6205 O   0  0  0  0  0  0  0  0  0  0  0  0
  -25.2820  -30.3493   23.6434 O   0  0  0  0  0  0  0  0  0  0  0  0
  -21.2568  -30.3687   22.7004 O   0  0  0  0  0  0  0  0  0  0  0  0
  -21.7190  -26.1150   20.6480 O   0  0  0  0  0  0  0  0  0  0  0  0
  -23.5405  -22.3432   24.4906 O   0  0  0  0  0  0  0  0  0  0  0  0
  -25.6101  -11.5964   20.6623 O   0  0  0  0  0  0  0  0  0  0  0  0
  -28.3621  -27.0468   19.4851 O   0  0  0  0  0  0  0  0  0  1  0  0
  -22.8271   -9.7356   25.0436 F   0  0  0  0  0  0  0  0  0  0  0  0
  -26.5683   -9.4763   22.1555 F   0  0  0  0  0  0  0  0  0  0  0  0
  1  2  1  0  0  0  0
  1  5  2  0  0  0  0
  2  6  2  0  0  0  0
  3  8  2  0  0  0  0
  3 17  1  0  0  0  0
  4  9  1  0  0  0  0
  4 17  2  0  0  0  0
  5 19  1  0  0  0  0
  6 21  1  0  0  0  0
  7 10  2  0  0  0  0
  7 20  1  0  0  0  0
  8 27  1  0  0  0  0
  9 27  2  0  0  0  0
 10 28  1  0  0  0  0
 11 12  2  0  0  0  0
 11 29  1  0  0  0  0
 12 30  1  0  0  0  0
 13 22  1  0  0  0  0
 13 28  2  0  0  0  0
 14 24  2  0  0  0  0
 14 25  1  0  0  0  0
 15 24  1  0  0  0  0
 15 26  2  0  0  0  0
 16 30  2  0  0  0  0
 16 31  1  0  0  0  0
 17 32  1  0  0  0  0
 18 32  1  0  0  0  0
 18 33  2  0  0  0  0
 18 34  1  0  0  0  0
 19 21  2  0  0  0  0
 19 41  1  0  0  0  0
 20 22  2  0  0  0  0
 20 42  1  0  0  0  0
 21 50  1  0  0  0  0
 22 43  1  0  0  0  0
 23 25  2  0  0  0  0
 23 26  1  0  0  0  0
 23 53  1  0  0  0  0
 24 73  1  0  0  0  0
 25 72  1  0  0  0  0
 26 76  1  0  0  0  0
 27 85  1  0  0  0  0
 28 86  1  0  0  0  0
 29 31  2  0  0  0  0
 29 85  1  0  0  0  0
 30 87  1  0  0  0  0
 31 88  1  0  0  0  0
 32 66  2  0  0  0  0
 33 67  1  0  0  0  0
 33 70  1  0  0  0  0
 34 71  1  0  0  0  0
 34 78  2  0  0  0  0
 35 36  1  0  0  0  0
 35 61  1  0  0  0  0
 35 79  2  0  0  0  0
 36 62  1  0  0  0  0
 36 80  2  0  0  0  0
 37 51  1  0  0  0  0
 37 74  1  0  0  0  0
 37 81  2  0  0  0  0
 38 63  1  0  0  0  0
 38 68  1  0  0  0  0
 38 82  2  0  0  0  0
 39 64  1  0  0  0  0
 39 75  1  0  0  0  0
 39 83  2  0  0  0  0
 40 69  1  0  0  0  0
 40 76  1  0  0  0  0
 40 84  2  0  0  0  0
 41 44  1  0  0  0  0
 42 51  1  0  0  0  0
 43 68  1  0  0  0  0
 44 46  1  0  0  0  0
 45 47  1  0  0  0  0
 45 48  1  0  0  0  0
 46 50  1  0  0  0  0
 47 52  1  0  0  0  0
 48 69  1  0  0  0  0
 49 52  1  0  0  0  0
 49 69  1  0  0  0  0
 50 74  1  0  0  0  0
 51 68  1  0  0  0  0
 52 67  1  0  0  0  0
 54 64  1  0  0  0  0
 55 65  1  0  0  0  0
 56 65  1  0  0  0  0
 57 65  1  0  0  0  0
 58 72  1  0  0  0  0
 59 76  1  0  0  0  0
 60 77  1  0  0  0  0
 61 73  1  0  0  0  0
 62 86  1  0  0  0  0
 63 65  1  0  0  0  0
 63 75  1  0  0  0  0
 64 77  1  0  0  0  0
 66 67  1  0  0  0  0
M  CHG  1  77   1
M  ISO  4  40 100  62 101  76 100  86 101
M  END
> <Batch ID>
0161

> <Smiles>
CNc1cc(NCC(=O)C(=O)[101CH2:1][101O:1]c2ccc3c(c2)CN(C(=O)C(NC(=O)C(C)NC)C(C)(C)C)C(C(=O)NC2CCCc4ccccc42)C3)cc([100N:0](C)[100C:0](=O)N2CCCC(n3nc(-c4ccc(Oc5ccc(F)cc5F)cc4)c(C(N)=O)c3N)C2)c1C

> <Shape>
0.259

> <Color>
0.093

> <Negative vol penalty>
0.000

$$$$

  -OEChem-04052303533D

 85 93  0     1  0  0  0  0  0999 V2000
  -16.7201  -28.1099   20.9565 C   0  0  0  0  0  0  0  0  0  0  0  0
  -17.8494  -27.2976   20.9366 C   0  0  0  0  0  0  0  0  0  0  0  0
  -32.4041  -18.4853   22.1244 C   0  0  0  0  0  0  0  0  0  0  0  0
  -23.0655   -9.8750   19.9093 C   0  0  0  0  0  0  0  0  0  0  0  0
  -23.8911   -9.7736   22.1776 C   0  0  0  0  0  0  0  0  0  0  0  0
  -16.8607  -29.4969   20.9763 C   0  0  0  0  0  0  0  0  0  0  0  0
  -19.1200  -27.8720   20.9353 C   0  0  0  0  0  0  0  0  0  0  0  0
  -22.2835  -25.5974   24.1699 C   0  0  0  0  0  0  0  0  0  0  0  0
  -31.6437  -19.2565   23.0033 C   0  0  0  0  0  0  0  0  0  0  0  0
  -31.8952  -17.2838   21.6315 C   0  0  0  0  0  0  0  0  0  0  0  0
  -22.3297   -8.7099   20.1250 C   0  0  0  0  0  0  0  0  0  0  0  0
  -23.1552   -8.6085   22.3933 C   0  0  0  0  0  0  0  0  0  0  0  0
  -22.8398  -24.3834   23.7691 C   0  0  0  0  0  0  0  0  0  0  0  0
  -19.9461   -7.7769   23.0494 C   0  0  0  0  0  0  0  0  0  0  0  0
  -19.2232   -7.6796   24.2383 C   0  0  0  0  0  0  0  0  0  0  0  0
  -24.8752  -25.5248   23.1579 C   0  0  0  0  0  0  0  0  0  0  0  0
  -29.8653  -17.6247   22.8965 C   0  0  0  0  0  0  0  0  0  0  0  0
  -20.4861   -5.7114   24.8452 C   0  0  0  0  0  0  0  0  0  0  0  0
  -23.8463  -10.4069   20.9355 C   0  0  0  0  0  0  0  0  0  0  0  0
  -24.1834  -12.9355   20.9268 C   0  0  0  0  0  0  0  0  0  0  0  0
  -18.1337  -30.0884   20.9850 C   0  0  0  0  0  0  0  0  0  0  0  0
  -23.0162  -26.7877   24.0574 C   0  0  0  0  0  0  0  0  0  0  0  0
  -19.2778  -29.2683   20.9538 C   0  0  0  0  0  0  0  0  0  0  0  0
  -24.3269  -26.7522   23.5604 C   0  0  0  0  0  0  0  0  0  0  0  0
  -30.3742  -18.8262   23.3893 C   0  0  0  0  0  0  0  0  0  0  0  0
  -30.6258  -16.8534   22.0175 C   0  0  0  0  0  0  0  0  0  0  0  0
  -22.3745   -8.0766   21.3670 C   0  0  0  0  0  0  0  0  0  0  0  0
  -24.1348  -24.3474   23.2603 C   0  0  0  0  0  0  0  0  0  0  0  0
  -20.9390   -6.8414   22.7584 C   0  0  0  0  0  0  0  0  0  0  0  0
  -19.4932   -6.6469   25.1362 C   0  0  0  0  0  0  0  0  0  0  0  0
  -21.2090   -5.8087   23.6563 C   0  0  0  0  0  0  0  0  0  0  0  0
  -24.6071  -11.6101   20.7131 C   0  0  0  0  0  0  0  0  0  0  0  0
  -25.2643  -13.7035   20.5686 C   0  0  0  0  0  0  0  0  0  0  0  0
  -25.8204  -22.7425   23.4916 C   0  0  0  0  0  0  0  0  0  1  0  0
  -22.9253  -13.4283   21.4063 C   0  0  0  0  0  0  0  0  0  0  0  0
  -26.4995  -21.6116   23.2441 C   0  0  0  0  0  0  0  0  0  0  0  0
  -27.7320  -21.3417   24.0517 C   0  0  0  0  0  0  0  0  0  0  0  0
  -22.6484  -29.5046   22.4491 C   0  0  0  0  0  0  0  0  0  0  0  0
  -25.2498  -30.4152   24.1597 C   0  0  0  0  0  0  0  0  0  0  0  0
  -28.0405  -29.4992   25.8974 C   0  0  0  0  0  0  0  0  0  0  0  0
  -30.7328  -14.7495   20.6361 C   0  0  0  0  0  0  0  0  0  0  0  0
  -18.2353  -31.5929   20.9588 C   0  0  0  0  0  0  0  0  0  0  0  0
  -22.4116  -28.0852   24.5192 C   0  0  0  0  0  0  0  0  0  0  0  0
  -25.1627  -27.9992   23.4382 C   0  0  0  0  0  0  0  0  0  0  0  0
  -19.6191  -32.1167   21.3346 C   0  0  0  0  0  0  0  0  0  0  0  0
  -29.5518  -12.4497   18.1879 C   0  0  0  0  0  0  0  0  0  0  0  0
  -20.7031  -31.3385   20.5957 C   0  0  0  0  0  0  0  0  0  0  0  0
  -28.1252  -12.1353   18.6442 C   0  0  0  0  0  0  0  0  0  0  0  0
  -30.5010  -12.6225   19.3724 C   0  0  0  0  0  0  0  0  0  0  0  0
  -28.6342  -13.2765   20.8409 C   0  0  0  0  0  0  0  0  0  0  0  0
  -20.6732  -29.8534   20.9768 C   0  0  1  0  0  0  0  0  0  0  0  0
  -23.0620  -29.3084   23.8802 C   0  0  1  0  0  0  0  0  0  0  0  0
  -27.6280  -13.1580   19.6846 C   0  0  2  0  0  0  0  0  0  0  0  0
  -29.2133  -18.9188   25.6334 C   0  0  0  0  0  0  0  0  0  0  0  0
  -29.9893  -30.4677   27.1470 C   0  0  0  0  0  0  0  0  0  0  0  0
  -26.5750  -31.1568   21.5133 C   0  0  0  0  0  0  0  0  0  0  0  0
  -28.7750  -31.2020   22.7076 C   0  0  0  0  0  0  0  0  0  0  0  0
  -26.9660  -32.7873   23.3687 C   0  0  0  0  0  0  0  0  0  0  0  0
  -27.2355  -28.1693   28.4158 C   0  0  0  0  0  0  0  0  0  0  0  0
  -29.5495  -19.6635   24.3430 C   0  0  2  0  0  0  0  0  0  0  0  0
  -26.7436  -30.3384   23.9562 C   0  0  1  0  0  0  0  0  0  0  0  0
  -28.5702  -29.9313   27.2528 C   0  0  2  0  0  0  0  0  0  0  0  0
  -27.2487  -31.3477   22.8868 C   0  0  0  0  0  0  0  0  0  0  0  0
  -25.8594  -11.5367   20.2546 N   0  0  0  0  0  0  0  0  0  0  0  0
  -26.2319  -12.8256   20.1771 N   0  0  0  0  0  0  0  0  0  0  0  0
  -24.5248  -29.2442   23.8970 N   0  0  0  0  0  0  0  0  0  0  0  0
  -29.9670  -13.6091   20.3138 N   0  0  0  0  0  0  0  0  0  0  0  0
  -25.4719  -15.0373   20.5534 N   0  0  0  0  0  0  0  0  0  0  0  0
  -21.9239  -12.5022   21.7285 N   0  0  0  0  0  0  0  0  0  0  0  0
  -30.1088  -15.6332   21.5161 N   0  0  0  0  0  0  0  0  0  0  0  0
  -28.3452  -20.1494   23.7076 N   0  0  0  0  0  0  0  0  0  0  0  0
  -21.2858  -29.6516   22.2723 N   0  0  0  0  0  0  0  0  0  0  0  0
  -27.3447  -30.5133   25.2740 N   0  0  0  0  0  0  0  0  0  0  0  0
  -28.5722  -28.7801   28.1992 N   0  3  0  0  0  0  0  0  0  0  0  0
  -22.6902  -14.6544   21.5292 O   0  0  0  0  0  0  0  0  0  0  0  0
  -28.1278  -22.1148   24.9198 O   0  0  0  0  0  0  0  0  0  0  0  0
  -23.5024  -29.5229   21.5705 O   0  0  0  0  0  0  0  0  0  0  0  0
  -24.7455  -31.4731   24.5447 O   0  0  0  0  0  0  0  0  0  0  0  0
  -28.2286  -28.3756   25.4361 O   0  0  0  0  0  0  0  0  0  0  0  0
  -31.8479  -14.9425   20.1448 O   0  0  0  0  0  0  0  0  0  0  0  0
  -26.1372  -20.6802   22.2959 O   0  0  0  0  0  0  0  0  0  0  0  0
  -21.6564   -6.9398   21.5780 O   0  0  0  0  0  0  0  0  0  0  0  0
  -24.6799  -23.1639   22.8677 O   0  0  0  0  0  0  0  0  0  1  0  0
  -18.7999   -6.5544   26.2786 F   0  0  0  0  0  0  0  0  0  0  0  0
  -22.1625   -4.9077   23.3827 F   0  0  0  0  0  0  0  0  0  0  0  0
  1  2  1  0  0  0  0
  1  6  2  0  0  0  0
  2  7  2  0  0  0  0
  3  9  2  0  0  0  0
  3 10  1  0  0  0  0
  4 11  2  0  0  0  0
  4 19  1  0  0  0  0
  5 12  1  0  0  0  0
  5 19  2  0  0  0  0
  6 21  1  0  0  0  0
  7 23  1  0  0  0  0
  8 13  2  0  0  0  0
  8 22  1  0  0  0  0
  9 25  1  0  0  0  0
 10 26  2  0  0  0  0
 11 27  1  0  0  0  0
 12 27  2  0  0  0  0
 13 28  1  0  0  0  0
 14 15  2  0  0  0  0
 14 29  1  0  0  0  0
 15 30  1  0  0  0  0
 16 24  1  0  0  0  0
 16 28  2  0  0  0  0
 17 25  2  0  0  0  0
 17 26  1  0  0  0  0
 18 30  2  0  0  0  0
 18 31  1  0  0  0  0
 19 32  1  0  0  0  0
 20 32  1  0  0  0  0
 20 33  2  0  0  0  0
 20 35  1  0  0  0  0
 21 23  2  0  0  0  0
 21 42  1  0  0  0  0
 22 24  2  0  0  0  0
 22 43  1  0  0  0  0
 23 51  1  0  0  0  0
 24 44  1  0  0  0  0
 25 60  1  0  0  0  0
 26 70  1  0  0  0  0
 27 82  1  0  0  0  0
 28 83  1  0  0  0  0
 29 31  2  0  0  0  0
 29 82  1  0  0  0  0
 30 84  1  0  0  0  0
 31 85  1  0  0  0  0
 32 64  2  0  0  0  0
 33 65  1  0  0  0  0
 33 68  1  0  0  0  0
 34 36  2  0  0  0  0
 34 83  1  0  0  0  0
 35 69  1  0  0  0  0
 35 75  2  0  0  0  0
 36 37  1  0  0  0  0
 36 81  1  0  0  0  0
 37 71  1  0  0  0  0
 37 76  2  0  0  0  0
 38 52  1  0  0  0  0
 38 72  1  0  0  0  0
 38 77  2  0  0  0  0
 39 61  1  0  0  0  0
 39 66  1  0  0  0  0
 39 78  2  0  0  0  0
 40 62  1  0  0  0  0
 40 73  1  0  0  0  0
 40 79  2  0  0  0  0
 41 67  1  0  0  0  0
 41 70  1  0  0  0  0
 41 80  2  0  0  0  0
 42 45  1  0  0  0  0
 43 52  1  0  0  0  0
 44 66  1  0  0  0  0
 45 47  1  0  0  0  0
 46 48  1  0  0  0  0
 46 49  1  0  0  0  0
 47 51  1  0  0  0  0
 48 53  1  0  0  0  0
 49 67  1  0  0  0  0
 50 53  1  0  0  0  0
 50 67  1  0  0  0  0
 51 72  1  0  0  0  0
 52 66  1  0  0  0  0
 53 65  1  0  0  0  0
 54 60  1  0  0  0  0
 55 62  1  0  0  0  0
 56 63  1  0  0  0  0
 57 63  1  0  0  0  0
 58 63  1  0  0  0  0
 59 74  1  0  0  0  0
 60 71  1  0  0  0  0
 61 63  1  0  0  0  0
 61 73  1  0  0  0  0
 62 74  1  0  0  0  0
 64 65  1  0  0  0  0
M  CHG  1  74   1
M  ISO  4  34 101  41 100  70 100  83 101
M  END
> <Batch ID>
0161

> <Smiles>
CNC(C)C(=O)NC(C(=O)N1Cc2cc([101O:1][101CH2:1]C(=O)C(=O)NC(C)c3cccc([100NH:0][100C:0](=O)N4CCCC(n5nc(-c6ccc(Oc7ccc(F)cc7F)cc6)c(C(N)=O)c5N)C4)c3)ccc2CC1C(=O)NC1CCCc2ccccc21)C(C)(C)C

> <Shape>
0.280

> <Color>
0.210

> <Negative vol penalty>
0.000

$$$$

  -OEChem-04052303533D

 87 95  0     1  0  0  0  0  0999 V2000
  -24.1080  -17.6377   19.5306 C   0  0  0  0  0  0  0  0  0  0  0  0
  -24.7850  -18.8346   19.3197 C   0  0  0  0  0  0  0  0  0  0  0  0
  -26.4692  -12.8467   21.5012 C   0  0  0  0  0  0  0  0  0  0  0  0
  -26.1165  -13.6072   19.2353 C   0  0  0  0  0  0  0  0  0  0  0  0
  -22.7280  -17.6442   19.7288 C   0  0  0  0  0  0  0  0  0  0  0  0
  -24.0820  -20.0388   19.3057 C   0  0  0  0  0  0  0  0  0  0  0  0
  -26.3988  -23.6717   21.9663 C   0  0  0  0  0  0  0  0  0  0  0  0
  -25.2153  -12.2358   21.4913 C   0  0  0  0  0  0  0  0  0  0  0  0
  -24.8626  -12.9962   19.2254 C   0  0  0  0  0  0  0  0  0  0  0  0
  -27.4847  -24.3070   21.3654 C   0  0  0  0  0  0  0  0  0  0  0  0
  -23.8367   -9.3977   20.2757 C   0  0  0  0  0  0  0  0  0  0  0  0
  -23.7425   -8.1027   20.7852 C   0  0  0  0  0  0  0  0  0  0  0  0
  -26.0625  -26.1626   20.7711 C   0  0  0  0  0  0  0  0  0  0  0  0
  -22.1640   -8.8707   22.4452 C   0  0  0  0  0  0  0  0  0  0  0  0
  -26.9198  -13.5324   20.3732 C   0  0  0  0  0  0  0  0  0  0  0  0
  -29.4426  -13.5922   19.9996 C   0  0  0  0  0  0  0  0  0  0  0  0
  -22.0091  -18.8500   19.7268 C   0  0  0  0  0  0  0  0  0  0  0  0
  -25.1321  -24.2733   21.9647 C   0  0  0  0  0  0  0  0  0  0  0  0
  -22.6909  -20.0614   19.5027 C   0  0  0  0  0  0  0  0  0  0  0  0
  -24.9628  -25.5341   21.3750 C   0  0  0  0  0  0  0  0  0  0  0  0
  -24.4120  -12.3105   20.3534 C   0  0  0  0  0  0  0  0  0  0  0  0
  -27.3160  -25.5513   20.7651 C   0  0  0  0  0  0  0  0  0  0  0  0
  -23.0945  -10.4292   20.8509 C   0  0  0  0  0  0  0  0  0  0  0  0
  -22.9062   -7.8392   21.8700 C   0  0  0  0  0  0  0  0  0  0  0  0
  -22.2582  -10.1657   21.9356 C   0  0  0  0  0  0  0  0  0  0  0  0
  -28.2147  -14.1642   20.3829 C   0  0  0  0  0  0  0  0  0  0  0  0
  -29.2747  -20.9278   16.5696 C   0  0  0  0  0  0  0  0  0  0  0  0
  -29.6737  -21.2279   17.8553 C   0  0  0  0  0  0  0  0  0  0  0  0
  -30.3627  -14.5937   20.1916 C   0  0  0  0  0  0  0  0  0  0  0  0
  -30.1848  -23.1338   16.8980 C   0  0  0  0  0  0  0  0  0  0  0  0
  -29.7261  -12.2735   19.5134 C   0  0  0  0  0  0  0  0  0  0  0  0
  -22.2871  -23.5082   20.7713 C   0  0  0  0  0  0  0  0  0  0  0  0
  -30.0706  -26.0287   18.4527 C   0  0  0  0  0  0  0  0  0  0  0  0
  -21.3288  -26.1451   22.3994 C   0  0  0  0  0  0  0  0  0  0  0  0
  -22.1545  -29.1492   23.7923 C   0  0  0  0  0  0  0  0  0  0  0  0
  -29.9530  -20.5545   20.2666 C   0  0  0  0  0  0  0  0  0  0  0  0
  -20.5115  -18.8026   19.8983 C   0  0  0  0  0  0  0  0  0  0  0  0
  -23.9768  -23.5871   22.6406 C   0  0  0  0  0  0  0  0  0  0  0  0
  -23.6279  -26.2316   21.3641 C   0  0  0  0  0  0  0  0  0  0  0  0
  -19.8946  -20.1560   20.2420 C   0  0  0  0  0  0  0  0  0  0  0  0
  -31.1708  -18.4707   22.8842 C   0  0  0  0  0  0  0  0  0  0  0  0
  -20.4508  -21.2436   19.3284 C   0  0  0  0  0  0  0  0  0  0  0  0
  -30.6679  -17.0768   22.5018 C   0  0  0  0  0  0  0  0  0  0  0  0
  -30.1549  -19.5563   22.5333 C   0  0  0  0  0  0  0  0  0  0  0  0
  -29.1854  -18.1494   20.7585 C   0  0  0  0  0  0  0  0  0  0  0  0
  -21.9670  -21.3903   19.5052 C   0  0  1  0  0  0  0  0  0  0  0  0
  -22.6193  -24.0591   22.1291 C   0  0  1  0  0  0  0  0  0  0  0  0
  -30.2019  -17.0292   21.0334 C   0  0  2  0  0  0  0  0  0  0  0  0
  -21.1502  -31.0941   25.0194 C   0  0  0  0  0  0  0  0  0  0  0  0
  -28.2004  -16.6258   16.0952 C   0  0  0  0  0  0  0  0  0  0  0  0
  -30.3904  -16.2670   14.9478 C   0  0  0  0  0  0  0  0  0  0  0  0
  -28.5568  -17.5292   13.7935 C   0  0  0  0  0  0  0  0  0  0  0  0
  -20.1167  -27.1621   19.7905 C   0  0  0  0  0  0  0  0  0  0  0  0
  -19.9886  -29.4409   20.8195 C   0  0  0  0  0  0  0  0  0  0  0  0
  -18.7044  -27.5496   21.8177 C   0  0  0  0  0  0  0  0  0  0  0  0
  -23.8744  -28.6942   26.1574 C   0  0  0  0  0  0  0  0  0  0  0  0
  -28.6835  -19.6921   16.0163 C   0  0  0  0  0  0  0  0  0  0  0  0
  -31.1797  -25.2426   17.7863 C   0  0  0  0  0  0  0  0  0  0  0  0
  -29.3891  -25.3399   19.6191 C   0  0  0  0  0  0  0  0  0  1  0  0
  -29.7365  -18.5815   15.7938 C   0  0  0  0  0  0  0  0  0  0  0  0
  -21.2180  -27.6166   22.0810 C   0  0  1  0  0  0  0  0  0  0  0  0
  -21.8450  -29.7479   25.1525 C   0  0  2  0  0  0  0  0  0  0  0  0
  -29.2357  -17.2624   15.1469 C   0  0  0  0  0  0  0  0  0  0  0  0
  -20.0318  -27.9285   21.1255 C   0  0  0  0  0  0  0  0  0  0  0  0
  -28.3401  -15.4308   20.7880 N   0  0  0  0  0  0  0  0  0  0  0  0
  -30.1962  -22.4923   18.0454 N   0  0  0  0  0  0  0  0  0  0  0  0
  -29.6576  -15.6629   20.6604 N   0  0  0  0  0  0  0  0  0  0  0  0
  -22.5276  -25.5174   22.0324 N   0  0  0  0  0  0  0  0  0  0  0  0
  -29.7629  -19.4518   21.1261 N   0  0  0  0  0  0  0  0  0  0  0  0
  -31.6982  -14.6551   20.0037 N   0  0  0  0  0  0  0  0  0  0  0  0
  -28.6640  -11.3694   19.3761 N   0  0  0  0  0  0  0  0  0  0  0  0
  -29.5734  -20.3269   18.9442 N   0  0  0  0  0  0  0  0  0  0  0  0
  -30.6383  -24.4336   16.7244 N   0  0  0  0  0  0  0  0  0  0  0  0
  -22.2659  -22.1277   20.7141 N   0  0  0  0  0  0  0  0  0  0  0  0
  -21.1496  -28.3078   23.3639 N   0  0  0  0  0  0  0  0  0  0  0  0
  -23.1009  -29.9421   25.9309 N   0  3  0  0  0  0  0  0  0  0  0  0
  -30.8892  -11.9026   19.2253 O   0  0  0  0  0  0  0  0  0  0  0  0
  -22.0650  -24.2785   19.8445 O   0  0  0  0  0  0  0  0  0  0  0  0
  -29.7356  -27.1526   18.0808 O   0  0  0  0  0  0  0  0  0  0  0  0
  -20.3892  -25.5752   22.9598 O   0  0  0  0  0  0  0  0  0  0  0  0
  -23.1830  -29.4054   23.1702 O   0  0  0  0  0  0  0  0  0  0  0  0
  -30.4435  -21.6130   20.6678 O   0  0  0  0  0  0  0  0  0  0  0  0
  -23.1885  -11.7142   20.3434 O   0  0  0  0  0  0  0  0  0  0  0  0
  -28.3740  -26.1732   20.1772 O   0  0  0  0  0  0  0  0  0  1  0  0
  -22.8147   -6.5952   22.3582 F   0  0  0  0  0  0  0  0  0  0  0  0
  -21.5419  -11.1524   22.4917 F   0  0  0  0  0  0  0  0  0  0  0  0
  -29.5590  -22.2768   15.5494 S   0  0  0  0  0  0  0  0  0  0  0  0
  1  2  1  0  0  0  0
  1  5  2  0  0  0  0
  2  6  2  0  0  0  0
  3  8  2  0  0  0  0
  3 15  1  0  0  0  0
  4  9  1  0  0  0  0
  4 15  2  0  0  0  0
  5 17  1  0  0  0  0
  6 19  1  0  0  0  0
  7 10  2  0  0  0  0
  7 18  1  0  0  0  0
  8 21  1  0  0  0  0
  9 21  2  0  0  0  0
 10 22  1  0  0  0  0
 11 12  2  0  0  0  0
 11 23  1  0  0  0  0
 12 24  1  0  0  0  0
 13 20  1  0  0  0  0
 13 22  2  0  0  0  0
 14 24  2  0  0  0  0
 14 25  1  0  0  0  0
 15 26  1  0  0  0  0
 16 26  1  0  0  0  0
 16 29  2  0  0  0  0
 16 31  1  0  0  0  0
 17 19  2  0  0  0  0
 17 37  1  0  0  0  0
 18 20  2  0  0  0  0
 18 38  1  0  0  0  0
 19 46  1  0  0  0  0
 20 39  1  0  0  0  0
 21 83  1  0  0  0  0
 22 84  1  0  0  0  0
 23 25  2  0  0  0  0
 23 83  1  0  0  0  0
 24 85  1  0  0  0  0
 25 86  1  0  0  0  0
 26 65  2  0  0  0  0
 27 28  2  0  0  0  0
 27 57  1  0  0  0  0
 27 87  1  0  0  0  0
 28 66  1  0  0  0  0
 28 72  1  0  0  0  0
 29 67  1  0  0  0  0
 29 70  1  0  0  0  0
 30 66  2  0  0  0  0
 30 73  1  0  0  0  0
 30 87  1  0  0  0  0
 31 71  1  0  0  0  0
 31 77  2  0  0  0  0
 32 47  1  0  0  0  0
 32 74  1  0  0  0  0
 32 78  2  0  0  0  0
 33 58  1  0  0  0  0
 33 59  1  0  0  0  0
 33 79  2  0  0  0  0
 34 61  1  0  0  0  0
 34 68  1  0  0  0  0
 34 80  2  0  0  0  0
 35 62  1  0  0  0  0
 35 75  1  0  0  0  0
 35 81  2  0  0  0  0
 36 69  1  0  0  0  0
 36 72  1  0  0  0  0
 36 82  2  0  0  0  0
 37 40  1  0  0  0  0
 38 47  1  0  0  0  0
 39 68  1  0  0  0  0
 40 42  1  0  0  0  0
 41 43  1  0  0  0  0
 41 44  1  0  0  0  0
 42 46  1  0  0  0  0
 43 48  1  0  0  0  0
 44 69  1  0  0  0  0
 45 48  1  0  0  0  0
 45 69  1  0  0  0  0
 46 74  1  0  0  0  0
 47 68  1  0  0  0  0
 48 67  1  0  0  0  0
 49 62  1  0  0  0  0
 50 63  1  0  0  0  0
 51 63  1  0  0  0  0
 52 63  1  0  0  0  0
 53 64  1  0  0  0  0
 54 64  1  0  0  0  0
 55 64  1  0  0  0  0
 56 76  1  0  0  0  0
 57 60  1  0  0  0  0
 58 73  1  0  0  0  0
 59 84  1  0  0  0  0
 60 63  1  0  0  0  0
 61 64  1  0  0  0  0
 61 75  1  0  0  0  0
 62 76  1  0  0  0  0
 65 67  1  0  0  0  0
M  CHG  1  76   1
M  ISO  4  36 100  59 101  72 100  84 101
M  END
> <Batch ID>
0161

> <Smiles>
CNC(C)C(=O)NC(C(=O)N1Cc2cc([101O:1][101CH2:1]C(=O)CNc3nc([100NH:0][100C:0](=O)N4CCCC(n5nc(-c6ccc(Oc7ccc(F)cc7F)cc6)c(C(N)=O)c5N)C4)c(CCC(C)(C)C)s3)ccc2CC1C(=O)NC1CCCc2ccccc21)C(C)(C)C

> <Shape>
0.241

> <Color>
0.080

> <Negative vol penalty>
0.000

$$$$

  -OEChem-04052303533D

 93102  0     1  0  0  0  0  0999 V2000
  -30.4169  -32.0888   26.6778 C   0  0  0  0  0  0  0  0  0  0  0  0
  -31.5262  -31.3327   26.3129 C   0  0  0  0  0  0  0  0  0  0  0  0
  -23.0769   -9.8341   19.9557 C   0  0  0  0  0  0  0  0  0  0  0  0
  -23.8206   -9.8739   22.2541 C   0  0  0  0  0  0  0  0  0  0  0  0
  -29.1336  -31.5770   26.4904 C   0  0  0  0  0  0  0  0  0  0  0  0
  -31.3528  -30.0637   25.7615 C   0  0  0  0  0  0  0  0  0  0  0  0
  -34.3269  -25.5763   21.0356 C   0  0  0  0  0  0  0  0  0  0  0  0
  -22.3313   -8.6845   20.2169 C   0  0  0  0  0  0  0  0  0  0  0  0
  -23.0750   -8.7244   22.5153 C   0  0  0  0  0  0  0  0  0  0  0  0
  -34.7806  -24.2617   20.9367 C   0  0  0  0  0  0  0  0  0  0  0  0
  -19.8427   -7.9349   23.1064 C   0  0  0  0  0  0  0  0  0  0  0  0
  -19.0775   -7.9116   24.2724 C   0  0  0  0  0  0  0  0  0  0  0  0
  -31.8906  -18.3604   24.1281 C   0  0  0  0  0  0  0  0  0  0  0  0
  -32.5145  -23.5125   20.5863 C   0  0  0  0  0  0  0  0  0  0  0  0
  -32.0492  -16.5853   22.5054 C   0  0  0  0  0  0  0  0  0  0  0  0
  -20.3137   -5.9850   25.0452 C   0  0  0  0  0  0  0  0  0  0  0  0
  -23.8216  -10.4287   20.9743 C   0  0  0  0  0  0  0  0  0  0  0  0
  -24.1642  -12.9520   20.8206 C   0  0  0  0  0  0  0  0  0  0  0  0
  -28.9442  -30.3050   25.9275 C   0  0  0  0  0  0  0  0  0  0  0  0
  -32.9601  -25.8681   20.9212 C   0  0  0  0  0  0  0  0  0  0  0  0
  -30.0658  -29.5338   25.5677 C   0  0  0  0  0  0  0  0  0  0  0  0
  -30.4959  -18.3818   23.9813 C   0  0  0  0  0  0  0  0  0  0  0  0
  -32.0464  -24.8319   20.6815 C   0  0  0  0  0  0  0  0  0  0  0  0
  -29.8647  -17.4749   23.1091 C   0  0  0  0  0  0  0  0  0  0  0  0
  -32.6635  -17.4659   23.3907 C   0  0  0  0  0  0  0  0  0  0  0  0
  -30.6607  -16.5929   22.3636 C   0  0  0  0  0  0  0  0  0  0  0  0
  -22.3303   -8.1297   21.4967 C   0  0  0  0  0  0  0  0  0  0  0  0
  -33.8741  -23.2292   20.7149 C   0  0  0  0  0  0  0  0  0  0  0  0
  -20.8434   -6.9832   22.9097 C   0  0  0  0  0  0  0  0  0  0  0  0
  -19.3130   -6.9367   25.2418 C   0  0  0  0  0  0  0  0  0  0  0  0
  -21.0789   -6.0083   23.8791 C   0  0  0  0  0  0  0  0  0  0  0  0
  -24.5925  -11.6159   20.7050 C   0  0  0  0  0  0  0  0  0  0  0  0
  -25.2589  -13.6963   20.4544 C   0  0  0  0  0  0  0  0  0  0  0  0
  -22.8908  -13.4736   21.2232 C   0  0  0  0  0  0  0  0  0  0  0  0
  -30.7701  -27.1421   22.8408 C   0  0  0  0  0  0  0  0  0  0  0  0
  -28.9061  -26.9597   20.1922 C   0  0  0  0  0  0  0  0  0  0  0  0
  -35.4695  -20.1381   21.7386 C   0  0  0  0  0  0  0  0  0  0  0  0
  -28.2858  -25.4751   17.1826 C   0  0  0  0  0  0  0  0  0  0  0  0
  -30.7237  -14.7449   20.6526 C   0  0  0  0  0  0  0  0  0  0  0  0
  -27.5391  -29.7748   25.7881 C   0  0  0  0  0  0  0  0  0  0  0  0
  -32.4898  -27.2945   21.0036 C   0  0  0  0  0  0  0  0  0  0  0  0
  -29.6761  -19.3540   24.7969 C   0  0  0  0  0  0  0  0  0  0  0  0
  -30.5710  -25.0946   20.5311 C   0  0  0  0  0  0  0  0  0  0  0  0
  -27.4313  -28.5744   24.8513 C   0  0  0  0  0  0  0  0  0  0  0  0
  -29.6261  -12.2974   18.3113 C   0  0  0  0  0  0  0  0  0  0  0  0
  -28.5257  -27.5573   25.1586 C   0  0  0  0  0  0  0  0  0  0  0  0
  -28.1834  -12.0118   18.7348 C   0  0  0  0  0  0  0  0  0  0  0  0
  -30.5327  -12.5434   19.5160 C   0  0  0  0  0  0  0  0  0  0  0  0
  -28.6160  -13.2873   20.8733 C   0  0  0  0  0  0  0  0  0  0  0  0
  -27.6364  -18.2369   23.8354 C   0  0  0  0  0  0  0  0  0  0  0  0
  -29.9180  -28.1632   24.9436 C   0  0  1  0  0  0  0  0  0  0  0  0
  -31.0177  -27.4172   21.3845 C   0  0  1  0  0  0  0  0  0  0  0  0
  -27.6515  -13.0972   19.6912 C   0  0  2  0  0  0  0  0  0  0  0  0
  -28.2647  -19.5944   24.2101 C   0  0  0  0  0  0  0  0  0  0  0  0
  -28.3342  -20.5240   22.9809 C   0  0  0  0  0  0  0  0  0  0  0  0
  -27.3878  -20.2777   25.2753 C   0  0  0  0  0  0  0  0  0  0  0  0
  -26.6690  -25.5122   15.2638 C   0  0  0  0  0  0  0  0  0  0  0  0
  -26.8674  -25.4460   21.8840 C   0  0  0  0  0  0  0  0  0  0  0  0
  -25.7652  -24.7002   19.7633 C   0  0  0  0  0  0  0  0  0  0  0  0
  -25.8807  -27.1292   20.3195 C   0  0  0  0  0  0  0  0  0  0  0  0
  -36.9824  -19.1558   25.3167 C   0  0  0  0  0  0  0  0  0  0  0  0
  -36.6634  -16.7386   24.7941 C   0  0  0  0  0  0  0  0  0  0  0  0
  -30.4051  -26.2316   15.2603 C   0  0  0  0  0  0  0  0  0  0  0  0
  -35.4861  -21.6031   21.3575 C   0  0  0  0  0  0  0  0  0  1  0  0
  -34.7638  -18.3288   24.4248 C   0  0  0  0  0  0  0  0  0  0  0  0
  -36.8443  -18.4370   22.9225 C   0  0  0  0  0  0  0  0  0  0  0  0
  -27.9828  -25.9201   19.6043 C   0  0  1  0  0  0  0  0  0  0  0  0
  -27.9761  -26.0592   15.8161 C   0  0  2  0  0  0  0  0  0  0  0  0
  -26.6515  -25.7933   20.3975 C   0  0  0  0  0  0  0  0  0  0  0  0
  -36.3005  -18.1690   24.3466 C   0  0  0  0  0  0  0  0  0  0  0  0
  -25.8603  -11.5142   20.2971 N   0  0  0  0  0  0  0  0  0  0  0  0
  -26.2380  -12.7959   20.1530 N   0  0  0  0  0  0  0  0  0  0  0  0
  -28.4869  -17.4786   22.9366 N   0  0  0  0  0  0  0  0  0  0  0  0
  -30.1596  -26.5050   20.6257 N   0  0  0  0  0  0  0  0  0  0  0  0
  -29.9675  -13.5866   20.3746 N   0  0  0  0  0  0  0  0  0  0  0  0
  -25.4698  -15.0266   20.3638 N   0  0  0  0  0  0  0  0  0  0  0  0
  -21.8766  -12.5692   21.5662 N   0  0  0  0  0  0  0  0  0  0  0  0
  -30.0706  -15.6815   21.4531 N   0  0  0  0  0  0  0  0  0  0  0  0
  -34.0445  -17.4551   23.5374 N   0  0  0  0  0  0  0  0  0  0  0  0
  -30.2354  -28.2121   23.5325 N   0  0  0  0  0  0  0  0  0  0  0  0
  -36.6087  -19.7787   22.4416 N   0  0  0  0  0  0  0  0  0  0  0  0
  -27.8100  -26.2752   18.1998 N   0  0  0  0  0  0  0  0  0  0  0  0
  -29.0662  -25.7324   14.8539 N   0  3  0  0  0  0  0  0  0  0  0  0
  -22.6542  -14.7048   21.2612 O   0  0  0  0  0  0  0  0  0  0  0  0
  -31.0426  -26.0400   23.3023 O   0  0  0  0  0  0  0  0  0  0  0  0
  -28.5318  -28.1333   20.2577 O   0  0  0  0  0  0  0  0  0  0  0  0
  -34.5448  -19.3855   21.4444 O   0  0  0  0  0  0  0  0  0  0  0  0
  -28.8863  -24.4132   17.3326 O   0  0  0  0  0  0  0  0  0  0  0  0
  -31.8561  -14.9071   20.1906 O   0  0  0  0  0  0  0  0  0  0  0  0
  -21.6027   -7.0081   21.7520 O   0  0  0  0  0  0  0  0  0  0  0  0
  -34.3141  -21.9451   20.6187 O   0  0  0  0  0  0  0  0  0  1  0  0
  -18.5792   -6.9154   26.3621 F   0  0  0  0  0  0  0  0  0  0  0  0
  -22.0396   -5.0921   23.6964 F   0  0  0  0  0  0  0  0  0  0  0  0
  1  2  1  0  0  0  0
  1  5  2  0  0  0  0
  2  6  2  0  0  0  0
  3  8  2  0  0  0  0
  3 17  1  0  0  0  0
  4  9  1  0  0  0  0
  4 17  2  0  0  0  0
  5 19  1  0  0  0  0
  6 21  1  0  0  0  0
  7 10  2  0  0  0  0
  7 20  1  0  0  0  0
  8 27  1  0  0  0  0
  9 27  2  0  0  0  0
 10 28  1  0  0  0  0
 11 12  2  0  0  0  0
 11 29  1  0  0  0  0
 12 30  1  0  0  0  0
 13 22  2  0  0  0  0
 13 25  1  0  0  0  0
 14 23  1  0  0  0  0
 14 28  2  0  0  0  0
 15 25  2  0  0  0  0
 15 26  1  0  0  0  0
 16 30  2  0  0  0  0
 16 31  1  0  0  0  0
 17 32  1  0  0  0  0
 18 32  1  0  0  0  0
 18 33  2  0  0  0  0
 18 34  1  0  0  0  0
 19 21  2  0  0  0  0
 19 40  1  0  0  0  0
 20 23  2  0  0  0  0
 20 41  1  0  0  0  0
 21 51  1  0  0  0  0
 22 24  1  0  0  0  0
 22 42  1  0  0  0  0
 23 43  1  0  0  0  0
 24 26  2  0  0  0  0
 24 73  1  0  0  0  0
 25 79  1  0  0  0  0
 26 78  1  0  0  0  0
 27 90  1  0  0  0  0
 28 91  1  0  0  0  0
 29 31  2  0  0  0  0
 29 90  1  0  0  0  0
 30 92  1  0  0  0  0
 31 93  1  0  0  0  0
 32 71  2  0  0  0  0
 33 72  1  0  0  0  0
 33 76  1  0  0  0  0
 34 77  1  0  0  0  0
 34 84  2  0  0  0  0
 35 52  1  0  0  0  0
 35 80  1  0  0  0  0
 35 85  2  0  0  0  0
 36 67  1  0  0  0  0
 36 74  1  0  0  0  0
 36 86  2  0  0  0  0
 37 64  1  0  0  0  0
 37 81  1  0  0  0  0
 37 87  2  0  0  0  0
 38 68  1  0  0  0  0
 38 82  1  0  0  0  0
 38 88  2  0  0  0  0
 39 75  1  0  0  0  0
 39 78  1  0  0  0  0
 39 89  2  0  0  0  0
 40 44  1  0  0  0  0
 41 52  1  0  0  0  0
 42 54  1  0  0  0  0
 43 74  1  0  0  0  0
 44 46  1  0  0  0  0
 45 47  1  0  0  0  0
 45 48  1  0  0  0  0
 46 51  1  0  0  0  0
 47 53  1  0  0  0  0
 48 75  1  0  0  0  0
 49 53  1  0  0  0  0
 49 75  1  0  0  0  0
 50 54  1  0  0  0  0
 50 73  1  0  0  0  0
 51 80  1  0  0  0  0
 52 74  1  0  0  0  0
 53 72  1  0  0  0  0
 54 55  1  0  0  0  0
 54 56  1  0  0  0  0
 57 68  1  0  0  0  0
 58 69  1  0  0  0  0
 59 69  1  0  0  0  0
 60 69  1  0  0  0  0
 61 70  1  0  0  0  0
 62 70  1  0  0  0  0
 63 83  1  0  0  0  0
 64 91  1  0  0  0  0
 65 70  1  0  0  0  0
 65 79  1  0  0  0  0
 66 70  1  0  0  0  0
 66 81  1  0  0  0  0
 67 69  1  0  0  0  0
 67 82  1  0  0  0  0
 68 83  1  0  0  0  0
 71 72  1  0  0  0  0
M  CHG  1  83   1
M  ISO  4  39 100  64 101  78 100  91 101
M  END
> <Batch ID>
0161

> <Smiles>
CNC(C)C(=O)NC(C(=O)N1Cc2cc([101O:1][101CH2:1]C(=O)NCC(C)(C)CNc3cc4c(c([100NH:0][100C:0](=O)N5CCCC(n6nc(-c7ccc(Oc8ccc(F)cc8F)cc7)c(C(N)=O)c6N)C5)c3)NCC(C)(C)C4)ccc2CC1C(=O)NC1CCCc2ccccc21)C(C)(C)C

> <Shape>
0.234

> <Color>
0.176

> <Negative vol penalty>
0.000

$$$$

  -OEChem-04052303533D

 83 91  0     1  0  0  0  0  0999 V2000
  -26.6567  -38.1539   22.0122 C   0  0  0  0  0  0  0  0  0  0  0  0
  -27.3760  -36.9987   21.7231 C   0  0  0  0  0  0  0  0  0  0  0  0
  -24.0345   -9.4127   21.3473 C   0  0  0  0  0  0  0  0  0  0  0  0
  -24.8058  -10.3958   23.4151 C   0  0  0  0  0  0  0  0  0  0  0  0
  -25.5038  -38.0789   22.7926 C   0  0  0  0  0  0  0  0  0  0  0  0
  -26.9433  -35.7679   22.2154 C   0  0  0  0  0  0  0  0  0  0  0  0
  -27.4040  -30.3265   19.4433 C   0  0  0  0  0  0  0  0  0  0  0  0
  -28.5220  -20.5113   20.6164 C   0  0  0  0  0  0  0  0  0  0  0  0
  -23.6349   -8.2697   22.0397 C   0  0  0  0  0  0  0  0  0  0  0  0
  -24.4061   -9.2528   24.1075 C   0  0  0  0  0  0  0  0  0  0  0  0
  -28.3163  -29.2805   19.5758 C   0  0  0  0  0  0  0  0  0  0  0  0
  -21.0389   -7.3160   23.9849 C   0  0  0  0  0  0  0  0  0  0  0  0
  -19.7846   -6.7832   23.6874 C   0  0  0  0  0  0  0  0  0  0  0  0
  -28.3910  -19.1280   20.6673 C   0  0  0  0  0  0  0  0  0  0  0  0
  -26.8137  -28.1715   21.1028 C   0  0  0  0  0  0  0  0  0  0  0  0
  -20.8248   -4.7076   23.0189 C   0  0  0  0  0  0  0  0  0  0  0  0
  -24.6200  -10.4758   22.0349 C   0  0  0  0  0  0  0  0  0  0  0  0
  -24.2640  -12.8064   21.0607 C   0  0  0  0  0  0  0  0  0  0  0  0
  -25.0515  -36.8453   23.2867 C   0  0  0  0  0  0  0  0  0  0  0  0
  -26.1925  -30.3080   20.1492 C   0  0  0  0  0  0  0  0  0  0  0  0
  -25.7841  -35.6765   23.0044 C   0  0  0  0  0  0  0  0  0  0  0  0
  -25.8867  -29.2173   20.9756 C   0  0  0  0  0  0  0  0  0  0  0  0
  -29.6147  -21.0772   19.9689 C   0  0  0  0  0  0  0  0  0  0  0  0
  -23.8207   -8.1898   23.4198 C   0  0  0  0  0  0  0  0  0  0  0  0
  -28.0225  -28.2042   20.4079 C   0  0  0  0  0  0  0  0  0  0  0  0
  -22.1862   -6.5446   23.7993 C   0  0  0  0  0  0  0  0  0  0  0  0
  -19.6775   -5.4790   23.2044 C   0  0  0  0  0  0  0  0  0  0  0  0
  -22.0791   -5.2404   23.3163 C   0  0  0  0  0  0  0  0  0  0  0  0
  -25.0336  -11.6565   21.3201 C   0  0  0  0  0  0  0  0  0  0  0  0
  -30.5410  -20.2229   19.3929 C   0  0  0  0  0  0  0  0  0  0  0  0
  -29.3720  -18.3610   20.0599 C   0  0  0  0  0  0  0  0  0  0  0  0
  -25.1059  -13.6312   20.3555 C   0  0  0  0  0  0  0  0  0  0  0  0
  -22.9092  -13.1025   21.4247 C   0  0  0  0  0  0  0  0  0  0  0  0
  -24.8582  -32.1573   22.3636 C   0  0  0  0  0  0  0  0  0  0  0  0
  -29.2778  -24.8037   20.2548 C   0  0  0  0  0  0  0  0  0  0  0  0
  -22.3094  -30.2048   21.9011 C   0  0  0  0  0  0  0  0  0  0  0  0
  -21.1337  -27.1684   20.8787 C   0  0  0  0  0  0  0  0  0  0  0  0
  -30.0879  -15.9938   19.5801 C   0  0  0  0  0  0  0  0  0  0  0  0
  -23.8260  -36.8205   24.1655 C   0  0  0  0  0  0  0  0  0  0  0  0
  -25.2074  -31.4312   19.9747 C   0  0  0  0  0  0  0  0  0  0  0  0
  -24.5909  -29.1398   21.7394 C   0  0  0  0  0  0  0  0  0  0  0  0
  -23.2270  -35.4268   24.3362 C   0  0  0  0  0  0  0  0  0  0  0  0
  -29.6250  -12.7171   18.2663 C   0  0  0  0  0  0  0  0  0  0  0  0
  -24.3208  -34.4102   24.6478 C   0  0  0  0  0  0  0  0  0  0  0  0
  -28.3259  -12.2436   18.9224 C   0  0  0  0  0  0  0  0  0  0  0  0
  -30.4658  -13.5643   19.2197 C   0  0  0  0  0  0  0  0  0  0  0  0
  -28.4594  -14.2224   20.4888 C   0  0  0  0  0  0  0  0  0  0  0  0
  -25.3330  -34.3195   23.4995 C   0  0  1  0  0  0  0  0  0  0  0  0
  -24.2295  -31.5546   21.1391 C   0  0  1  0  0  0  0  0  0  0  0  0
  -27.5484  -13.4193   19.5460 C   0  0  2  0  0  0  0  0  0  0  0  0
  -31.7364  -20.7711   18.6832 C   0  0  0  0  0  0  0  0  0  0  0  0
  -19.0085  -25.8530   20.6537 C   0  0  0  0  0  0  0  0  0  0  0  0
  -22.2959  -29.7161   24.9129 C   0  0  0  0  0  0  0  0  0  0  0  0
  -20.8293  -27.7267   24.5132 C   0  0  0  0  0  0  0  0  0  0  0  0
  -20.0310  -30.0072   23.8930 C   0  0  0  0  0  0  0  0  0  0  0  0
  -21.4563  -26.9282   17.9466 C   0  0  0  0  0  0  0  0  0  0  0  0
  -28.8181  -23.3818   20.4977 C   0  0  0  0  0  0  0  0  0  0  0  0
  -28.3770  -25.8879   20.8137 C   0  0  0  0  0  0  0  0  0  1  0  0
  -21.8345  -28.9054   22.5054 C   0  0  1  0  0  0  0  0  0  0  0  0
  -19.9855  -26.7900   19.9606 C   0  0  2  0  0  0  0  0  0  0  0  0
  -21.2730  -29.0909   23.9434 C   0  0  0  0  0  0  0  0  0  0  0  0
  -26.2694  -11.7396   20.8203 N   0  0  0  0  0  0  0  0  0  0  0  0
  -30.4475  -18.8745   19.4218 N   0  0  0  0  0  0  0  0  0  0  0  0
  -26.2827  -12.9515   20.2396 N   0  0  0  0  0  0  0  0  0  0  0  0
  -23.6630  -30.2654   21.5405 N   0  0  0  0  0  0  0  0  0  0  0  0
  -29.6649  -14.6609   19.7682 N   0  0  0  0  0  0  0  0  0  0  0  0
  -24.9471  -14.8642   19.8294 N   0  0  0  0  0  0  0  0  0  0  0  0
  -22.1871  -12.1440   22.1488 N   0  0  0  0  0  0  0  0  0  0  0  0
  -29.7547  -22.4565   19.9132 N   0  0  0  0  0  0  0  0  0  0  0  0
  -29.2295  -16.9524   20.1175 N   0  0  0  0  0  0  0  0  0  0  0  0
  -24.7916  -33.5368   22.4092 N   0  0  0  0  0  0  0  0  0  0  0  0
  -20.8788  -28.3404   21.5590 N   0  0  0  0  0  0  0  0  0  0  0  0
  -20.5016  -26.1108   18.7386 N   0  3  0  0  0  0  0  0  0  0  0  0
  -22.3500  -14.1782   21.1028 O   0  0  0  0  0  0  0  0  0  0  0  0
  -25.3647  -31.4249   23.2054 O   0  0  0  0  0  0  0  0  0  0  0  0
  -30.3119  -25.0736   19.6452 O   0  0  0  0  0  0  0  0  0  0  0  0
  -21.5073  -31.1293   21.7477 O   0  0  0  0  0  0  0  0  0  0  0  0
  -22.1531  -26.4901   20.9847 O   0  0  0  0  0  0  0  0  0  0  0  0
  -31.1206  -16.2658   18.9625 O   0  0  0  0  0  0  0  0  0  0  0  0
  -23.4306   -7.0747   24.0959 O   0  0  0  0  0  0  0  0  0  0  0  0
  -28.9114  -27.1823   20.5396 O   0  0  0  0  0  0  0  0  0  1  0  0
  -18.4729   -4.9670   22.9202 F   0  0  0  0  0  0  0  0  0  0  0  0
  -23.1776   -4.4941   23.1371 F   0  0  0  0  0  0  0  0  0  0  0  0
  1  2  1  0  0  0  0
  1  5  2  0  0  0  0
  2  6  2  0  0  0  0
  3  9  2  0  0  0  0
  3 17  1  0  0  0  0
  4 10  1  0  0  0  0
  4 17  2  0  0  0  0
  5 19  1  0  0  0  0
  6 21  1  0  0  0  0
  7 11  2  0  0  0  0
  7 20  1  0  0  0  0
  8 14  2  0  0  0  0
  8 23  1  0  0  0  0
  9 24  1  0  0  0  0
 10 24  2  0  0  0  0
 11 25  1  0  0  0  0
 12 13  2  0  0  0  0
 12 26  1  0  0  0  0
 13 27  1  0  0  0  0
 14 31  1  0  0  0  0
 15 22  1  0  0  0  0
 15 25  2  0  0  0  0
 16 27  2  0  0  0  0
 16 28  1  0  0  0  0
 17 29  1  0  0  0  0
 18 29  1  0  0  0  0
 18 32  2  0  0  0  0
 18 33  1  0  0  0  0
 19 21  2  0  0  0  0
 19 39  1  0  0  0  0
 20 22  2  0  0  0  0
 20 40  1  0  0  0  0
 21 48  1  0  0  0  0
 22 41  1  0  0  0  0
 23 30  2  0  0  0  0
 23 69  1  0  0  0  0
 24 80  1  0  0  0  0
 25 81  1  0  0  0  0
 26 28  2  0  0  0  0
 26 80  1  0  0  0  0
 27 82  1  0  0  0  0
 28 83  1  0  0  0  0
 29 62  2  0  0  0  0
 30 51  1  0  0  0  0
 30 63  1  0  0  0  0
 31 63  2  0  0  0  0
 31 70  1  0  0  0  0
 32 64  1  0  0  0  0
 32 67  1  0  0  0  0
 33 68  1  0  0  0  0
 33 74  2  0  0  0  0
 34 49  1  0  0  0  0
 34 71  1  0  0  0  0
 34 75  2  0  0  0  0
 35 57  1  0  0  0  0
 35 58  1  0  0  0  0
 35 76  2  0  0  0  0
 36 59  1  0  0  0  0
 36 65  1  0  0  0  0
 36 77  2  0  0  0  0
 37 60  1  0  0  0  0
 37 72  1  0  0  0  0
 37 78  2  0  0  0  0
 38 66  1  0  0  0  0
 38 70  1  0  0  0  0
 38 79  2  0  0  0  0
 39 42  1  0  0  0  0
 40 49  1  0  0  0  0
 41 65  1  0  0  0  0
 42 44  1  0  0  0  0
 43 45  1  0  0  0  0
 43 46  1  0  0  0  0
 44 48  1  0  0  0  0
 45 50  1  0  0  0  0
 46 66  1  0  0  0  0
 47 50  1  0  0  0  0
 47 66  1  0  0  0  0
 48 71  1  0  0  0  0
 49 65  1  0  0  0  0
 50 64  1  0  0  0  0
 52 60  1  0  0  0  0
 53 61  1  0  0  0  0
 54 61  1  0  0  0  0
 55 61  1  0  0  0  0
 56 73  1  0  0  0  0
 57 69  1  0  0  0  0
 58 81  1  0  0  0  0
 59 61  1  0  0  0  0
 59 72  1  0  0  0  0
 60 73  1  0  0  0  0
 62 64  1  0  0  0  0
M  CHG  1  73   1
M  ISO  4  38 100  58 101  70 100  81 101
M  END
> <Batch ID>
0161

> <Smiles>
CNC(C)C(=O)NC(C(=O)N1Cc2cc([101O:1][101CH2:1]C(=O)CNc3ccc([100NH:0][100C:0](=O)N4CCCC(n5nc(-c6ccc(Oc7ccc(F)cc7F)cc6)c(C(N)=O)c5N)C4)nc3C)ccc2CC1C(=O)NC1CCCc2ccccc21)C(C)(C)C

> <Shape>
0.389

> <Color>
0.157

> <Negative vol penalty>
0.000

$$$$

  -OEChem-04052303533D

 86 94  0     1  0  0  0  0  0999 V2000
  -24.3595  -31.6780   20.7641 C   0  0  0  0  0  0  0  0  0  0  0  0
  -25.0959  -30.7537   20.0301 C   0  0  0  0  0  0  0  0  0  0  0  0
  -26.6292  -12.3594   21.8027 C   0  0  0  0  0  0  0  0  0  0  0  0
  -26.0386  -13.8755   20.0166 C   0  0  0  0  0  0  0  0  0  0  0  0
  -23.7632  -31.2966   21.9653 C   0  0  0  0  0  0  0  0  0  0  0  0
  -25.2373  -29.4476   20.4975 C   0  0  0  0  0  0  0  0  0  0  0  0
  -24.5485  -25.9959   16.8566 C   0  0  0  0  0  0  0  0  0  0  0  0
  -25.3358  -11.8375   21.7874 C   0  0  0  0  0  0  0  0  0  0  0  0
  -24.7452  -13.3535   20.0013 C   0  0  0  0  0  0  0  0  0  0  0  0
  -25.6043  -25.7855   15.9707 C   0  0  0  0  0  0  0  0  0  0  0  0
  -23.5520   -9.6556   19.9192 C   0  0  0  0  0  0  0  0  0  0  0  0
  -23.4121   -8.2687   19.9675 C   0  0  0  0  0  0  0  0  0  0  0  0
  -26.2407  -23.8141   17.2068 C   0  0  0  0  0  0  0  0  0  0  0  0
  -22.1528   -8.4673   22.0198 C   0  0  0  0  0  0  0  0  0  0  0  0
  -30.6766  -23.5478   20.5288 C   0  0  0  0  0  0  0  0  0  0  0  0
  -29.4115  -21.4193   19.5306 C   0  0  0  0  0  0  0  0  0  0  0  0
  -26.9807  -13.3785   20.9173 C   0  0  0  0  0  0  0  0  0  0  0  0
  -29.4231  -13.4708   20.1868 C   0  0  0  0  0  0  0  0  0  0  0  0
  -23.8893  -29.9826   22.4428 C   0  0  0  0  0  0  0  0  0  0  0  0
  -24.3371  -25.1216   17.9324 C   0  0  0  0  0  0  0  0  0  0  0  0
  -24.6433  -29.0486   21.7069 C   0  0  0  0  0  0  0  0  0  0  0  0
  -25.1799  -24.0142   18.1034 C   0  0  0  0  0  0  0  0  0  0  0  0
  -24.3938  -12.3345   20.8867 C   0  0  0  0  0  0  0  0  0  0  0  0
  -26.4523  -24.6961   16.1474 C   0  0  0  0  0  0  0  0  0  0  0  0
  -22.9925  -10.4484   20.9212 C   0  0  0  0  0  0  0  0  0  0  0  0
  -22.7124   -7.6745   21.0178 C   0  0  0  0  0  0  0  0  0  0  0  0
  -22.2928   -9.8543   21.9715 C   0  0  0  0  0  0  0  0  0  0  0  0
  -28.3164  -13.9184   20.9330 C   0  0  0  0  0  0  0  0  0  0  0  0
  -30.0420  -23.6061   19.3076 C   0  0  0  0  0  0  0  0  0  0  0  0
  -30.0468  -21.3606   20.7515 C   0  0  0  0  0  0  0  0  0  0  0  0
  -30.4477  -14.3073   20.5569 C   0  0  0  0  0  0  0  0  0  0  0  0
  -29.5165  -12.3951   19.2435 C   0  0  0  0  0  0  0  0  0  0  0  0
  -30.0360  -24.8508   18.4973 C   0  0  0  0  0  0  0  0  0  0  0  0
  -28.4338  -25.4649   15.1709 C   0  0  0  0  0  0  0  0  0  1  0  0
  -28.6726  -26.0701   13.9933 C   0  0  0  0  0  0  0  0  0  0  0  0
  -29.2160  -25.8396   16.3928 C   0  0  0  0  0  0  0  0  0  0  0  0
  -24.3444  -25.4165   21.0974 C   0  0  0  0  0  0  0  0  0  0  0  0
  -23.3208  -22.3401   20.9964 C   0  0  0  0  0  0  0  0  0  0  0  0
  -23.1556  -19.3966   19.2773 C   0  0  0  0  0  0  0  0  0  0  0  0
  -30.5931  -19.8780   22.7136 C   0  0  0  0  0  0  0  0  0  0  0  0
  -23.2663  -29.6297   23.7702 C   0  0  0  0  0  0  0  0  0  0  0  0
  -23.1776  -25.3474   18.8636 C   0  0  0  0  0  0  0  0  0  0  0  0
  -24.9836  -23.0347   19.2306 C   0  0  0  0  0  0  0  0  0  0  0  0
  -23.1507  -28.1263   24.0083 C   0  0  0  0  0  0  0  0  0  0  0  0
  -31.9660  -16.9679   24.2380 C   0  0  0  0  0  0  0  0  0  0  0  0
  -24.4588  -27.4273   23.6519 C   0  0  0  0  0  0  0  0  0  0  0  0
  -31.2911  -15.8149   23.4914 C   0  0  0  0  0  0  0  0  0  0  0  0
  -31.0138  -18.1447   24.4438 C   0  0  0  0  0  0  0  0  0  0  0  0
  -29.6861  -17.4828   22.4770 C   0  0  0  0  0  0  0  0  0  0  0  0
  -24.7987  -27.6158   22.1686 C   0  0  1  0  0  0  0  0  0  0  0  0
  -23.3658  -24.6834   20.2241 C   0  0  1  0  0  0  0  0  0  0  0  0
  -30.6252  -16.3001   22.1888 C   0  0  2  0  0  0  0  0  0  0  0  0
  -27.9435  -25.7437   12.7225 C   0  0  0  0  0  0  0  0  0  0  0  0
  -22.2866  -17.0501   19.4679 C   0  0  0  0  0  0  0  0  0  0  0  0
  -25.6160  -21.6459   22.8832 C   0  0  0  0  0  0  0  0  0  0  0  0
  -25.2874  -19.2372   22.2846 C   0  0  0  0  0  0  0  0  0  0  0  0
  -23.4538  -20.5033   23.4061 C   0  0  0  0  0  0  0  0  0  0  0  0
  -21.3953  -19.7336   16.9222 C   0  0  0  0  0  0  0  0  0  0  0  0
  -23.9944  -20.9891   20.9846 C   0  0  1  0  0  0  0  0  0  0  0  0
  -21.9941  -18.4631   18.9876 C   0  0  2  0  0  0  0  0  0  0  0  0
  -24.5930  -20.6133   22.3694 C   0  0  0  0  0  0  0  0  0  0  0  0
  -29.3978  -22.5430   18.7867 N   0  0  0  0  0  0  0  0  0  0  0  0
  -30.6907  -22.4239   21.2725 N   0  0  0  0  0  0  0  0  0  0  0  0
  -28.6104  -14.9584   21.7179 N   0  0  0  0  0  0  0  0  0  0  0  0
  -29.9134  -15.1712   21.4670 N   0  0  0  0  0  0  0  0  0  0  0  0
  -23.8397  -23.3019   20.1181 N   0  0  0  0  0  0  0  0  0  0  0  0
  -30.4241  -18.5525   23.1668 N   0  0  0  0  0  0  0  0  0  0  0  0
  -31.7446  -14.3807   20.1894 N   0  0  0  0  0  0  0  0  0  0  0  0
  -28.3682  -11.6360   18.9799 N   0  0  0  0  0  0  0  0  0  0  0  0
  -30.0161  -20.1406   21.4715 N   0  0  0  0  0  0  0  0  0  0  0  0
  -29.3581  -24.7753   17.2813 N   0  0  0  0  0  0  0  0  0  0  0  0
  -23.9985  -26.7303   21.3501 N   0  0  0  0  0  0  0  0  0  0  0  0
  -23.0024  -20.0428   20.4857 N   0  0  0  0  0  0  0  0  0  0  0  0
  -21.7212  -18.4147   17.5233 N   0  3  0  0  0  0  0  0  0  0  0  0
  -30.5906  -12.1050   18.6641 O   0  0  0  0  0  0  0  0  0  0  0  0
  -30.5900  -25.8538   18.9389 O   0  0  0  0  0  0  0  0  0  0  0  0
  -29.6623  -26.9707   16.5591 O   0  0  0  0  0  0  0  0  0  0  0  0
  -25.3389  -24.8330   21.5123 O   0  0  0  0  0  0  0  0  0  0  0  0
  -22.3648  -22.5326   21.7518 O   0  0  0  0  0  0  0  0  0  0  0  0
  -24.1058  -19.5356   18.5102 O   0  0  0  0  0  0  0  0  0  0  0  0
  -31.2278  -20.7109   23.3657 O   0  0  0  0  0  0  0  0  0  0  0  0
  -29.6182  -27.0727   13.8727 O   0  0  0  0  0  0  0  0  0  0  0  0
  -23.1317  -11.8253   20.8714 O   0  0  0  0  0  0  0  0  0  0  0  0
  -27.4840  -24.4888   15.2846 O   0  0  0  0  0  0  0  0  0  1  0  0
  -22.5768   -6.3427   21.0633 F   0  0  0  0  0  0  0  0  0  0  0  0
  -21.7520  -10.6108   22.9364 F   0  0  0  0  0  0  0  0  0  0  0  0
  1  2  1  0  0  0  0
  1  5  2  0  0  0  0
  2  6  2  0  0  0  0
  3  8  2  0  0  0  0
  3 17  1  0  0  0  0
  4  9  1  0  0  0  0
  4 17  2  0  0  0  0
  5 19  1  0  0  0  0
  6 21  1  0  0  0  0
  7 10  2  0  0  0  0
  7 20  1  0  0  0  0
  8 23  1  0  0  0  0
  9 23  2  0  0  0  0
 10 24  1  0  0  0  0
 11 12  2  0  0  0  0
 11 25  1  0  0  0  0
 12 26  1  0  0  0  0
 13 22  1  0  0  0  0
 13 24  2  0  0  0  0
 14 26  2  0  0  0  0
 14 27  1  0  0  0  0
 15 29  1  0  0  0  0
 15 63  2  0  0  0  0
 16 30  2  0  0  0  0
 16 62  1  0  0  0  0
 17 28  1  0  0  0  0
 18 28  1  0  0  0  0
 18 31  2  0  0  0  0
 18 32  1  0  0  0  0
 19 21  2  0  0  0  0
 19 41  1  0  0  0  0
 20 22  2  0  0  0  0
 20 42  1  0  0  0  0
 21 50  1  0  0  0  0
 22 43  1  0  0  0  0
 23 83  1  0  0  0  0
 24 84  1  0  0  0  0
 25 27  2  0  0  0  0
 25 83  1  0  0  0  0
 26 85  1  0  0  0  0
 27 86  1  0  0  0  0
 28 64  2  0  0  0  0
 29 33  1  0  0  0  0
 29 62  2  0  0  0  0
 30 63  1  0  0  0  0
 30 70  1  0  0  0  0
 31 65  1  0  0  0  0
 31 68  1  0  0  0  0
 32 69  1  0  0  0  0
 32 75  2  0  0  0  0
 33 71  1  0  0  0  0
 33 76  2  0  0  0  0
 34 35  2  0  0  0  0
 34 36  1  0  0  0  0
 34 84  1  0  0  0  0
 35 53  1  0  0  0  0
 35 82  1  0  0  0  0
 36 71  1  0  0  0  0
 36 77  2  0  0  0  0
 37 51  1  0  0  0  0
 37 72  1  0  0  0  0
 37 78  2  0  0  0  0
 38 59  1  0  0  0  0
 38 66  1  0  0  0  0
 38 79  2  0  0  0  0
 39 60  1  0  0  0  0
 39 73  1  0  0  0  0
 39 80  2  0  0  0  0
 40 67  1  0  0  0  0
 40 70  1  0  0  0  0
 40 81  2  0  0  0  0
 41 44  1  0  0  0  0
 42 51  1  0  0  0  0
 43 66  1  0  0  0  0
 44 46  1  0  0  0  0
 45 47  1  0  0  0  0
 45 48  1  0  0  0  0
 46 50  1  0  0  0  0
 47 52  1  0  0  0  0
 48 67  1  0  0  0  0
 49 52  1  0  0  0  0
 49 67  1  0  0  0  0
 50 72  1  0  0  0  0
 51 66  1  0  0  0  0
 52 65  1  0  0  0  0
 54 60  1  0  0  0  0
 55 61  1  0  0  0  0
 56 61  1  0  0  0  0
 57 61  1  0  0  0  0
 58 74  1  0  0  0  0
 59 61  1  0  0  0  0
 59 73  1  0  0  0  0
 60 74  1  0  0  0  0
 64 65  1  0  0  0  0
M  CHG  1  74   1
M  ISO  4  34 101  40 100  70 100  84 101
M  END
> <Batch ID>
0161

> <Smiles>
CNC(C)C(=O)NC(C(=O)N1Cc2cc([101O:1][101CH:1](C(C)=O)C(=O)NC(=O)c3cnc([100NH:0][100C:0](=O)N4CCCC(n5nc(-c6ccc(Oc7ccc(F)cc7F)cc6)c(C(N)=O)c5N)C4)cn3)ccc2CC1C(=O)NC1CCCc2ccccc21)C(C)(C)C

> <Shape>
0.217

> <Color>
0.083

> <Negative vol penalty>
0.000

$$$$

  -OEChem-04052303533D

 82 90  0     1  0  0  0  0  0999 V2000
  -18.9672  -33.2857   24.2306 C   0  0  0  0  0  0  0  0  0  0  0  0
  -20.3417  -33.2151   24.0278 C   0  0  0  0  0  0  0  0  0  0  0  0
  -27.3100  -11.3651   21.1162 C   0  0  0  0  0  0  0  0  0  0  0  0
  -27.8084  -10.6527   18.8621 C   0  0  0  0  0  0  0  0  0  0  0  0
  -18.2148  -32.1147   24.3123 C   0  0  0  0  0  0  0  0  0  0  0  0
  -20.9648  -31.9734   23.9075 C   0  0  0  0  0  0  0  0  0  0  0  0
  -25.7689  -30.5924   20.3693 C   0  0  0  0  0  0  0  0  0  0  0  0
  -26.3035  -10.4029   21.1978 C   0  0  0  0  0  0  0  0  0  0  0  0
  -26.8019   -9.6905   18.9436 C   0  0  0  0  0  0  0  0  0  0  0  0
  -27.1317  -30.4784   20.6406 C   0  0  0  0  0  0  0  0  0  0  0  0
  -23.1174  -10.0351   20.1310 C   0  0  0  0  0  0  0  0  0  0  0  0
  -21.8924  -10.4240   20.6728 C   0  0  0  0  0  0  0  0  0  0  0  0
  -26.8732  -28.0948   20.9065 C   0  0  0  0  0  0  0  0  0  0  0  0
  -22.1348   -8.7646   22.4119 C   0  0  0  0  0  0  0  0  0  0  0  0
  -29.0085  -24.6508   18.7279 C   0  0  0  0  0  0  0  0  0  0  0  0
  -28.0624  -11.4901   19.9483 C   0  0  0  0  0  0  0  0  0  0  0  0
  -30.4570  -12.3292   20.2117 C   0  0  0  0  0  0  0  0  0  0  0  0
  -18.8275  -30.8583   24.1833 C   0  0  0  0  0  0  0  0  0  0  0  0
  -24.9447  -29.4579   20.3753 C   0  0  0  0  0  0  0  0  0  0  0  0
  -20.2200  -30.7846   23.9888 C   0  0  0  0  0  0  0  0  0  0  0  0
  -25.5008  -28.1967   20.6325 C   0  0  0  0  0  0  0  0  0  0  0  0
  -26.0494   -9.5655   20.1115 C   0  0  0  0  0  0  0  0  0  0  0  0
  -27.6835  -29.2299   20.9122 C   0  0  0  0  0  0  0  0  0  0  0  0
  -23.8511   -9.0108   20.7295 C   0  0  0  0  0  0  0  0  0  0  0  0
  -21.4011   -9.7888   21.8133 C   0  0  0  0  0  0  0  0  0  0  0  0
  -23.3598   -8.3756   21.8700 C   0  0  0  0  0  0  0  0  0  0  0  0
  -29.1019  -12.4842   19.8633 C   0  0  0  0  0  0  0  0  0  0  0  0
  -31.0214  -13.5535   19.9487 C   0  0  0  0  0  0  0  0  0  0  0  0
  -29.3525  -25.1435   19.9693 C   0  0  0  0  0  0  0  0  0  0  0  0
  -29.0377  -22.7590   19.8371 C   0  0  0  0  0  0  0  0  0  0  0  0
  -28.9472  -21.3855   20.1577 C   0  0  0  0  0  0  0  0  0  0  0  0
  -28.6280  -20.3585   19.3020 C   0  0  0  0  0  0  0  0  0  0  0  0
  -31.1442  -11.1812   20.7269 C   0  0  0  0  0  0  0  0  0  0  0  0
  -28.5839  -18.9651   19.7893 C   0  0  0  0  0  0  0  0  0  0  0  0
  -22.4299  -28.5214   22.0790 C   0  0  0  0  0  0  0  0  0  0  0  0
  -22.3951  -26.0695   19.9555 C   0  0  0  0  0  0  0  0  0  0  0  0
  -24.1196  -24.1359   17.7342 C   0  0  0  0  0  0  0  0  0  0  0  0
  -17.9796  -29.6192   24.3257 C   0  0  0  0  0  0  0  0  0  0  0  0
  -23.4815  -29.5942   20.0544 C   0  0  0  0  0  0  0  0  0  0  0  0
  -24.6628  -26.9453   20.6311 C   0  0  0  0  0  0  0  0  0  0  0  0
  -18.6610  -28.3528   23.8136 C   0  0  0  0  0  0  0  0  0  0  0  0
  -30.5521  -17.3778   17.1363 C   0  0  0  0  0  0  0  0  0  0  0  0
  -20.0942  -28.2718   24.3294 C   0  0  0  0  0  0  0  0  0  0  0  0
  -30.4803  -15.9116   17.5546 C   0  0  0  0  0  0  0  0  0  0  0  0
  -29.2675  -18.1326   17.4751 C   0  0  0  0  0  0  0  0  0  0  0  0
  -28.7992  -16.5542   19.3270 C   0  0  0  0  0  0  0  0  0  0  0  0
  -20.9286  -29.4570   23.8287 C   0  0  1  0  0  0  0  0  0  0  0  0
  -22.6415  -28.4405   20.5937 C   0  0  1  0  0  0  0  0  0  0  0  0
  -30.0990  -15.7869   19.0382 C   0  0  1  0  0  0  0  0  0  0  0  0
  -23.8310  -22.1864   16.1807 C   0  0  0  0  0  0  0  0  0  0  0  0
  -22.4199  -24.1677   22.3414 C   0  0  0  0  0  0  0  0  0  0  0  0
  -23.0834  -22.3275   20.7788 C   0  0  0  0  0  0  0  0  0  0  0  0
  -20.8948  -23.4865   20.4800 C   0  0  0  0  0  0  0  0  0  0  0  0
  -31.3029  -28.8049   20.6277 C   0  0  0  0  0  0  0  0  0  0  0  0
  -29.7752  -30.0913   19.1170 C   0  0  0  0  0  0  0  0  0  0  0  0
  -24.8416  -25.7638   15.3705 C   0  0  0  0  0  0  0  0  0  0  0  0
  -29.5077  -27.5661   19.3925 C   0  0  0  0  0  0  0  0  0  0  0  0
  -23.0318  -24.7022   19.8907 C   0  0  1  0  0  0  0  0  0  0  0  0
  -23.7982  -23.7008   16.3158 C   0  0  2  0  0  0  0  0  0  0  0  0
  -22.3732  -23.6946   20.8747 C   0  0  0  0  0  0  0  0  0  0  0  0
  -29.8811  -28.8953   20.0668 C   0  0  0  0  0  0  0  0  0  1  0  0
  -28.8281  -23.2836   18.6501 N   0  0  0  0  0  0  0  0  0  0  0  0
  -28.8222  -13.7104   19.4134 N   0  0  0  0  0  0  0  0  0  0  0  0
  -30.0093  -14.3370   19.4774 N   0  0  0  0  0  0  0  0  0  0  0  0
  -28.8920  -17.9502   18.8852 N   0  0  0  0  0  0  0  0  0  0  0  0
  -23.2363  -27.1311   20.3178 N   0  0  0  0  0  0  0  0  0  0  0  0
  -32.2796  -14.0255   20.0769 N   0  0  0  0  0  0  0  0  0  0  0  0
  -30.4134  -10.0040   20.9381 N   0  0  0  0  0  0  0  0  0  0  0  0
  -29.5900  -26.4613   20.3216 N   0  0  0  0  0  0  0  0  0  0  0  0
  -21.3185  -29.2539   22.4499 N   0  0  0  0  0  0  0  0  0  0  0  0
  -22.9780  -24.2928   18.4914 N   0  0  0  0  0  0  0  0  0  0  0  0
  -24.7847  -24.2794   15.3604 N   0  3  0  0  0  0  0  0  0  0  0  0
  -32.3666  -11.2036   21.0076 O   0  0  0  0  0  0  0  0  0  0  0  0
  -28.2718  -18.7845   20.9677 O   0  0  0  0  0  0  0  0  0  0  0  0
  -23.2159  -27.9595   22.8328 O   0  0  0  0  0  0  0  0  0  0  0  0
  -21.1973  -26.1922   19.6874 O   0  0  0  0  0  0  0  0  0  0  0  0
  -25.2687  -24.3147   18.1319 O   0  0  0  0  0  0  0  0  0  0  0  0
  -25.0675   -8.6263   20.1909 O   0  0  0  0  0  0  0  0  0  0  0  0
  -29.0133  -29.1159   21.1779 O   0  0  0  0  0  0  0  0  0  1  0  0
  -20.2254  -10.1635   22.3344 F   0  0  0  0  0  0  0  0  0  0  0  0
  -24.0607   -7.3918   22.4502 F   0  0  0  0  0  0  0  0  0  0  0  0
  -29.4550  -23.8518   21.0928 S   0  0  0  0  0  0  0  0  0  0  0  0
  1  2  1  0  0  0  0
  1  5  2  0  0  0  0
  2  6  2  0  0  0  0
  3  8  2  0  0  0  0
  3 16  1  0  0  0  0
  4  9  1  0  0  0  0
  4 16  2  0  0  0  0
  5 18  1  0  0  0  0
  6 20  1  0  0  0  0
  7 10  2  0  0  0  0
  7 19  1  0  0  0  0
  8 22  1  0  0  0  0
  9 22  2  0  0  0  0
 10 23  1  0  0  0  0
 11 12  2  0  0  0  0
 11 24  1  0  0  0  0
 12 25  1  0  0  0  0
 13 21  1  0  0  0  0
 13 23  2  0  0  0  0
 14 25  2  0  0  0  0
 14 26  1  0  0  0  0
 15 29  2  0  0  0  0
 15 62  1  0  0  0  0
 16 27  1  0  0  0  0
 17 27  1  0  0  0  0
 17 28  2  0  0  0  0
 17 33  1  0  0  0  0
 18 20  2  0  0  0  0
 18 38  1  0  0  0  0
 19 21  2  0  0  0  0
 19 39  1  0  0  0  0
 20 47  1  0  0  0  0
 21 40  1  0  0  0  0
 22 78  1  0  0  0  0
 23 79  1  0  0  0  0
 24 26  2  0  0  0  0
 24 78  1  0  0  0  0
 25 80  1  0  0  0  0
 26 81  1  0  0  0  0
 27 63  2  0  0  0  0
 28 64  1  0  0  0  0
 28 67  1  0  0  0  0
 29 69  1  0  0  0  0
 29 82  1  0  0  0  0
 30 31  1  0  0  0  0
 30 62  2  0  0  0  0
 30 82  1  0  0  0  0
 31 32  2  0  0  0  0
 32 34  1  0  0  0  0
 33 68  1  0  0  0  0
 33 73  2  0  0  0  0
 34 65  1  0  0  0  0
 34 74  2  0  0  0  0
 35 48  1  0  0  0  0
 35 70  1  0  0  0  0
 35 75  2  0  0  0  0
 36 58  1  0  0  0  0
 36 66  1  0  0  0  0
 36 76  2  0  0  0  0
 37 59  1  0  0  0  0
 37 71  1  0  0  0  0
 37 77  2  0  0  0  0
 38 41  1  0  0  0  0
 39 48  1  0  0  0  0
 40 66  1  0  0  0  0
 41 43  1  0  0  0  0
 42 44  1  0  0  0  0
 42 45  1  0  0  0  0
 43 47  1  0  0  0  0
 44 49  1  0  0  0  0
 45 65  1  0  0  0  0
 46 49  1  0  0  0  0
 46 65  1  0  0  0  0
 47 70  1  0  0  0  0
 48 66  1  0  0  0  0
 49 64  1  0  0  0  0
 50 59  1  0  0  0  0
 51 60  1  0  0  0  0
 52 60  1  0  0  0  0
 53 60  1  0  0  0  0
 54 61  1  0  0  0  0
 55 61  1  0  0  0  0
 56 72  1  0  0  0  0
 57 61  1  0  0  0  0
 57 69  1  0  0  0  0
 58 60  1  0  0  0  0
 58 71  1  0  0  0  0
 59 72  1  0  0  0  0
 61 79  1  0  0  0  0
 63 64  1  0  0  0  0
M  CHG  1  72   1
M  ISO  4  32 100  34 100  61 101  79 101
M  END
> <Batch ID>
0161

> <Smiles>
CNC(C)C(=O)NC(C(=O)N1Cc2cc([101O:1][101C:1](C)(C)CNc3cnc(C=[100CH:0][100C:0](=O)N4CCCC(n5nc(-c6ccc(Oc7ccc(F)cc7F)cc6)c(C(N)=O)c5N)C4)s3)ccc2CC1C(=O)NC1CCCc2ccccc21)C(C)(C)C

> <Shape>
0.267

> <Color>
0.080

> <Negative vol penalty>
0.000

$$$$

  -OEChem-04052303533D

 88 96  0     1  0  0  0  0  0999 V2000
  -27.8638  -34.5081   21.1590 C   0  0  0  0  0  0  0  0  0  0  0  0
  -27.8957  -33.1555   20.8353 C   0  0  0  0  0  0  0  0  0  0  0  0
  -23.0439   -9.9060   19.8673 C   0  0  0  0  0  0  0  0  0  0  0  0
  -23.9937   -9.6088   22.0688 C   0  0  0  0  0  0  0  0  0  0  0  0
  -26.9594  -34.9745   22.1121 C   0  0  0  0  0  0  0  0  0  0  0  0
  -27.0238  -32.2682   21.4655 C   0  0  0  0  0  0  0  0  0  0  0  0
  -24.4021  -27.3108   19.0045 C   0  0  0  0  0  0  0  0  0  0  0  0
  -22.3387   -8.7111   20.0103 C   0  0  0  0  0  0  0  0  0  0  0  0
  -23.2883   -8.4140   22.2118 C   0  0  0  0  0  0  0  0  0  0  0  0
  -24.7228  -25.9551   19.0596 C   0  0  0  0  0  0  0  0  0  0  0  0
  -21.4583   -5.4678   23.3023 C   0  0  0  0  0  0  0  0  0  0  0  0
  -20.8037   -5.2411   24.5129 C   0  0  0  0  0  0  0  0  0  0  0  0
  -23.1532  -25.6636   20.8681 C   0  0  0  0  0  0  0  0  0  0  0  0
  -19.4771   -7.2307   24.1682 C   0  0  0  0  0  0  0  0  0  0  0  0
  -30.0514  -20.2328   19.8898 C   0  0  0  0  0  0  0  0  0  0  0  0
  -23.8715  -10.3548   20.8966 C   0  0  0  0  0  0  0  0  0  0  0  0
  -29.2971  -18.6625   21.5090 C   0  0  0  0  0  0  0  0  0  0  0  0
  -24.1693  -12.8794   21.1098 C   0  0  0  0  0  0  0  0  0  0  0  0
  -26.0694  -34.0941   22.7472 C   0  0  0  0  0  0  0  0  0  0  0  0
  -23.4610  -27.8562   19.8896 C   0  0  0  0  0  0  0  0  0  0  0  0
  -26.1075  -32.7231   22.4289 C   0  0  0  0  0  0  0  0  0  0  0  0
  -22.8205  -27.0260   20.8205 C   0  0  0  0  0  0  0  0  0  0  0  0
  -30.5129  -17.9989   21.3872 C   0  0  0  0  0  0  0  0  0  0  0  0
  -29.0541  -19.8015   20.7496 C   0  0  0  0  0  0  0  0  0  0  0  0
  -22.4608   -7.9651   21.1825 C   0  0  0  0  0  0  0  0  0  0  0  0
  -24.1004  -25.1319   19.9934 C   0  0  0  0  0  0  0  0  0  0  0  0
  -21.1224   -6.5760   22.5246 C   0  0  0  0  0  0  0  0  0  0  0  0
  -19.8131   -6.1225   24.9459 C   0  0  0  0  0  0  0  0  0  0  0  0
  -20.1318   -7.4574   22.9575 C   0  0  0  0  0  0  0  0  0  0  0  0
  -24.6007  -11.5888   20.7493 C   0  0  0  0  0  0  0  0  0  0  0  0
  -31.4449  -18.5107   20.4988 C   0  0  0  0  0  0  0  0  0  0  0  0
  -25.2173  -13.6993   20.7693 C   0  0  0  0  0  0  0  0  0  0  0  0
  -28.2834  -18.1633   22.4331 C   0  0  0  0  0  0  0  0  0  0  0  0
  -22.9320  -13.2996   21.6998 C   0  0  0  0  0  0  0  0  0  0  0  0
  -23.5431  -30.0762   22.1630 C   0  0  0  0  0  0  0  0  0  0  0  0
  -26.1758  -22.1843   20.4028 C   0  0  0  0  0  0  0  0  0  0  0  0
  -20.3389  -29.5747   22.2257 C   0  0  0  0  0  0  0  0  0  0  0  0
  -17.7216  -27.4783   21.5918 C   0  0  0  0  0  0  0  0  0  0  0  0
  -30.6839  -14.8169   20.6541 C   0  0  0  0  0  0  0  0  0  0  0  0
  -25.1420  -34.6374   23.8052 C   0  0  0  0  0  0  0  0  0  0  0  0
  -23.1065  -29.3152   19.7995 C   0  0  0  0  0  0  0  0  0  0  0  0
  -21.7883  -27.5583   21.7795 C   0  0  0  0  0  0  0  0  0  0  0  0
  -23.9958  -33.6915   24.1545 C   0  0  0  0  0  0  0  0  0  0  0  0
  -29.3807  -12.7647   18.0528 C   0  0  0  0  0  0  0  0  0  0  0  0
  -24.5174  -32.2723   24.3561 C   0  0  0  0  0  0  0  0  0  0  0  0
  -27.9886  -12.3775   18.5549 C   0  0  0  0  0  0  0  0  0  0  0  0
  -30.3926  -12.8369   19.1943 C   0  0  0  0  0  0  0  0  0  0  0  0
  -28.6047  -13.3183   20.8208 C   0  0  0  0  0  0  0  0  0  0  0  0
  -25.1607  -31.7335   23.0727 C   0  0  1  0  0  0  0  0  0  0  0  0
  -22.5110  -29.8662   21.0914 C   0  0  1  0  0  0  0  0  0  0  0  0
  -27.5374  -13.2872   19.7135 C   0  0  2  0  0  0  0  0  0  0  0  0
  -27.7478  -17.6744   24.8769 C   0  0  0  0  0  0  0  0  0  0  0  0
  -15.2237  -27.3323   21.7827 C   0  0  0  0  0  0  0  0  0  0  0  0
  -20.5988  -29.0959   25.2279 C   0  0  0  0  0  0  0  0  0  0  0  0
  -18.3256  -28.0475   25.1869 C   0  0  0  0  0  0  0  0  0  0  0  0
  -18.6031  -30.4448   24.5555 C   0  0  0  0  0  0  0  0  0  0  0  0
  -17.4001  -27.1675   18.6662 C   0  0  0  0  0  0  0  0  0  0  0  0
  -30.8256  -16.7729   22.1750 C   0  0  0  0  0  0  0  0  0  0  0  0
  -28.2938  -18.6806   23.8759 C   0  0  0  0  0  0  0  0  0  0  0  0
  -27.5648  -21.6838   20.0678 C   0  0  0  0  0  0  0  0  0  0  0  0
  -25.7359  -23.4360   19.6687 C   0  0  0  0  0  0  0  0  0  1  0  0
  -19.4168  -28.6451   22.9772 C   0  0  1  0  0  0  0  0  0  0  0  0
  -16.3957  -27.7065   20.8887 C   0  0  2  0  0  0  0  0  0  0  0  0
  -19.2569  -29.0484   24.4702 C   0  0  0  0  0  0  0  0  0  0  0  0
  -31.2448  -19.6146   19.7444 N   0  0  0  0  0  0  0  0  0  0  0  0
  -25.8271  -11.5840   20.2201 N   0  0  0  0  0  0  0  0  0  0  0  0
  -26.1753  -12.8818   20.2456 N   0  0  0  0  0  0  0  0  0  0  0  0
  -21.4805  -28.9927   21.6564 N   0  0  0  0  0  0  0  0  0  0  0  0
  -29.9051  -13.7165   20.2594 N   0  0  0  0  0  0  0  0  0  0  0  0
  -25.4036  -15.0326   20.8696 N   0  0  0  0  0  0  0  0  0  0  0  0
  -21.9638  -12.3272   21.9854 N   0  0  0  0  0  0  0  0  0  0  0  0
  -27.8583  -20.5001   20.8345 N   0  0  0  0  0  0  0  0  0  0  0  0
  -24.1419  -31.3212   22.1312 N   0  0  0  0  0  0  0  0  0  0  0  0
  -18.1652  -28.6183   22.2281 N   0  0  0  0  0  0  0  0  0  0  0  0
  -30.1456  -15.6029   21.6657 N   0  0  0  0  0  0  0  0  0  0  0  0
  -16.3201  -26.8862   19.6468 N   0  3  0  0  0  0  0  0  0  0  0  0
  -27.4186  -17.3402   22.0988 O   0  0  0  0  0  0  0  0  0  0  0  0
  -22.6855  -14.5036   21.9507 O   0  0  0  0  0  0  0  0  0  0  0  0
  -23.7778  -29.1759   22.9605 O   0  0  0  0  0  0  0  0  0  0  0  0
  -25.4437  -21.6210   21.2156 O   0  0  0  0  0  0  0  0  0  0  0  0
  -20.0531  -30.7716   22.1406 O   0  0  0  0  0  0  0  0  0  0  0  0
  -18.3037  -26.3959   21.5810 O   0  0  0  0  0  0  0  0  0  0  0  0
  -31.7754  -15.0825   20.1392 O   0  0  0  0  0  0  0  0  0  0  0  0
  -21.7726   -6.7992   21.3225 O   0  0  0  0  0  0  0  0  0  0  0  0
  -24.4121  -23.8084   20.0498 O   0  0  0  0  0  0  0  0  0  1  0  0
  -19.1835   -5.9039   26.1078 F   0  0  0  0  0  0  0  0  0  0  0  0
  -19.8039   -8.5231   22.2141 F   0  0  0  0  0  0  0  0  0  0  0  0
  -32.6251  -17.8848   20.3612 F   0  0  0  0  0  0  0  0  0  0  0  0
  1  2  1  0  0  0  0
  1  5  2  0  0  0  0
  2  6  2  0  0  0  0
  3  8  2  0  0  0  0
  3 16  1  0  0  0  0
  4  9  1  0  0  0  0
  4 16  2  0  0  0  0
  5 19  1  0  0  0  0
  6 21  1  0  0  0  0
  7 10  2  0  0  0  0
  7 20  1  0  0  0  0
  8 25  1  0  0  0  0
  9 25  2  0  0  0  0
 10 26  1  0  0  0  0
 11 12  2  0  0  0  0
 11 27  1  0  0  0  0
 12 28  1  0  0  0  0
 13 22  1  0  0  0  0
 13 26  2  0  0  0  0
 14 28  2  0  0  0  0
 14 29  1  0  0  0  0
 15 24  2  0  0  0  0
 15 65  1  0  0  0  0
 16 30  1  0  0  0  0
 17 23  2  0  0  0  0
 17 24  1  0  0  0  0
 17 33  1  0  0  0  0
 18 30  1  0  0  0  0
 18 32  2  0  0  0  0
 18 34  1  0  0  0  0
 19 21  2  0  0  0  0
 19 40  1  0  0  0  0
 20 22  2  0  0  0  0
 20 41  1  0  0  0  0
 21 49  1  0  0  0  0
 22 42  1  0  0  0  0
 23 31  1  0  0  0  0
 23 58  1  0  0  0  0
 24 72  1  0  0  0  0
 25 84  1  0  0  0  0
 26 85  1  0  0  0  0
 27 29  2  0  0  0  0
 27 84  1  0  0  0  0
 28 86  1  0  0  0  0
 29 87  1  0  0  0  0
 30 66  2  0  0  0  0
 31 65  2  0  0  0  0
 31 88  1  0  0  0  0
 32 67  1  0  0  0  0
 32 70  1  0  0  0  0
 33 59  1  0  0  0  0
 33 77  2  0  0  0  0
 34 71  1  0  0  0  0
 34 78  2  0  0  0  0
 35 50  1  0  0  0  0
 35 73  1  0  0  0  0
 35 79  2  0  0  0  0
 36 60  1  0  0  0  0
 36 61  1  0  0  0  0
 36 80  2  0  0  0  0
 37 62  1  0  0  0  0
 37 68  1  0  0  0  0
 37 81  2  0  0  0  0
 38 63  1  0  0  0  0
 38 74  1  0  0  0  0
 38 82  2  0  0  0  0
 39 69  1  0  0  0  0
 39 75  1  0  0  0  0
 39 83  2  0  0  0  0
 40 43  1  0  0  0  0
 41 50  1  0  0  0  0
 42 68  1  0  0  0  0
 43 45  1  0  0  0  0
 44 46  1  0  0  0  0
 44 47  1  0  0  0  0
 45 49  1  0  0  0  0
 46 51  1  0  0  0  0
 47 69  1  0  0  0  0
 48 51  1  0  0  0  0
 48 69  1  0  0  0  0
 49 73  1  0  0  0  0
 50 68  1  0  0  0  0
 51 67  1  0  0  0  0
 52 59  1  0  0  0  0
 53 63  1  0  0  0  0
 54 64  1  0  0  0  0
 55 64  1  0  0  0  0
 56 64  1  0  0  0  0
 57 76  1  0  0  0  0
 58 75  1  0  0  0  0
 60 72  1  0  0  0  0
 61 85  1  0  0  0  0
 62 64  1  0  0  0  0
 62 74  1  0  0  0  0
 63 76  1  0  0  0  0
 66 67  1  0  0  0  0
M  CHG  1  76   1
M  ISO  4  39 100  61 101  75 100  85 101
M  END
> <Batch ID>
0161

> <Smiles>
CCC(=O)c1c(NCC(=O)[101CH2:1][101O:1]c2ccc3c(c2)CN(C(=O)C(NC(=O)C(C)NC)C(C)(C)C)C(C(=O)NC2CCCc4ccccc42)C3)cnc(F)c1C[100NH:0][100C:0](=O)N1CCCC(n2nc(-c3ccc(Oc4ccc(F)cc4F)cc3)c(C(N)=O)c2N)C1

> <Shape>
0.370

> <Color>
0.176

> <Negative vol penalty>
0.000

$$$$

  -OEChem-04052303533D

 86 94  0     1  0  0  0  0  0999 V2000
  -31.5324  -36.6273   17.6606 C   0  0  0  0  0  0  0  0  0  0  0  0
  -31.5415  -35.3218   18.1413 C   0  0  0  0  0  0  0  0  0  0  0  0
  -24.6205   -8.7597   20.8056 C   0  0  0  0  0  0  0  0  0  0  0  0
  -22.8397  -10.3675   20.5212 C   0  0  0  0  0  0  0  0  0  0  0  0
  -30.7835  -37.6046   18.3148 C   0  0  0  0  0  0  0  0  0  0  0  0
  -30.8026  -34.9932   19.2773 C   0  0  0  0  0  0  0  0  0  0  0  0
  -28.2195  -30.6717   18.7316 C   0  0  0  0  0  0  0  0  0  0  0  0
  -23.6833   -7.7792   21.1309 C   0  0  0  0  0  0  0  0  0  0  0  0
  -21.9025   -9.3869   20.8465 C   0  0  0  0  0  0  0  0  0  0  0  0
  -28.9344  -29.4819   18.8613 C   0  0  0  0  0  0  0  0  0  0  0  0
  -21.7844   -4.9437   22.3870 C   0  0  0  0  0  0  0  0  0  0  0  0
  -22.0545   -4.1243   23.4830 C   0  0  0  0  0  0  0  0  0  0  0  0
  -28.1247  -29.2487   21.1216 C   0  0  0  0  0  0  0  0  0  0  0  0
  -27.0199  -21.2671   18.4687 C   0  0  0  0  0  0  0  0  0  0  0  0
  -27.5413  -19.8973   20.3893 C   0  0  0  0  0  0  0  0  0  0  0  0
  -22.1130   -6.0657   24.9199 C   0  0  0  0  0  0  0  0  0  0  0  0
  -24.1987  -10.0539   20.5008 C   0  0  0  0  0  0  0  0  0  0  0  0
  -25.6564  -11.3838   18.8840 C   0  0  0  0  0  0  0  0  0  0  0  0
  -30.0274  -37.2857   19.4537 C   0  0  0  0  0  0  0  0  0  0  0  0
  -27.4592  -31.1655   19.8015 C   0  0  0  0  0  0  0  0  0  0  0  0
  -30.0440  -35.9675   19.9481 C   0  0  0  0  0  0  0  0  0  0  0  0
  -27.3990  -30.4437   21.0021 C   0  0  0  0  0  0  0  0  0  0  0  0
  -27.0767  -18.8611   18.2568 C   0  0  0  0  0  0  0  0  0  0  0  0
  -27.3485  -21.1559   19.8197 C   0  0  0  0  0  0  0  0  0  0  0  0
  -26.8839  -20.1196   17.6873 C   0  0  0  0  0  0  0  0  0  0  0  0
  -27.4054  -18.7498   19.6078 C   0  0  0  0  0  0  0  0  0  0  0  0
  -22.3243   -8.0928   21.1513 C   0  0  0  0  0  0  0  0  0  0  0  0
  -28.8895  -28.7716   20.0573 C   0  0  0  0  0  0  0  0  0  0  0  0
  -21.6786   -6.3241   22.5574 C   0  0  0  0  0  0  0  0  0  0  0  0
  -22.2189   -4.6853   24.7494 C   0  0  0  0  0  0  0  0  0  0  0  0
  -21.8429   -6.8851   23.8239 C   0  0  0  0  0  0  0  0  0  0  0  0
  -25.1664  -11.0673   20.1652 C   0  0  0  0  0  0  0  0  0  0  0  0
  -26.5456  -12.4081   19.0999 C   0  0  0  0  0  0  0  0  0  0  0  0
  -28.6726  -22.8233   20.6507 C   0  0  0  0  0  0  0  0  0  0  0  0
  -25.3364  -10.8038   17.6125 C   0  0  0  0  0  0  0  0  0  0  0  0
  -27.5294  -33.8029   21.5743 C   0  0  0  0  0  0  0  0  0  0  0  0
  -29.4286  -25.2309   20.6039 C   0  0  0  0  0  0  0  0  0  0  0  0
  -24.7892  -32.5798   22.8063 C   0  0  0  0  0  0  0  0  0  0  0  0
  -22.8583  -29.8317   23.4117 C   0  0  0  0  0  0  0  0  0  0  0  0
  -27.9376  -17.2178   21.5355 C   0  0  0  0  0  0  0  0  0  0  0  0
  -29.2712  -38.3864   20.1546 C   0  0  0  0  0  0  0  0  0  0  0  0
  -26.6723  -32.4367   19.6366 C   0  0  0  0  0  0  0  0  0  0  0  0
  -26.5814  -30.9205   22.1738 C   0  0  0  0  0  0  0  0  0  0  0  0
  -28.2176  -37.8739   21.1332 C   0  0  0  0  0  0  0  0  0  0  0  0
  -28.4825  -14.2365   23.4042 C   0  0  0  0  0  0  0  0  0  0  0  0
  -28.7961  -36.7674   22.0094 C   0  0  0  0  0  0  0  0  0  0  0  0
  -27.7086  -13.1723   22.6228 C   0  0  0  0  0  0  0  0  0  0  0  0
  -27.7596  -15.5823   23.3979 C   0  0  0  0  0  0  0  0  0  0  0  0
  -26.6226  -15.0215   21.2856 C   0  0  0  0  0  0  0  0  0  0  0  0
  -29.2356  -35.5665   21.1630 C   0  0  1  0  0  0  0  0  0  0  0  0
  -26.3428  -33.1119   20.9643 C   0  0  1  0  0  0  0  0  0  0  0  0
  -27.3433  -13.6656   21.2090 C   0  0  2  0  0  0  0  0  0  0  0  0
  -26.9308  -17.6295   17.4176 C   0  0  0  0  0  0  0  0  0  0  0  0
  -29.9697  -23.7318   22.5351 C   0  0  0  0  0  0  0  0  0  0  0  0
  -20.6899  -29.1421   24.4698 C   0  0  0  0  0  0  0  0  0  0  0  0
  -26.0451  -32.8811   25.5707 C   0  0  0  0  0  0  0  0  0  0  0  0
  -24.2845  -31.3403   26.4619 C   0  0  0  0  0  0  0  0  0  0  0  0
  -23.6312  -33.5229   25.4459 C   0  0  0  0  0  0  0  0  0  0  0  0
  -21.8062  -28.7884   20.8497 C   0  0  0  0  0  0  0  0  0  0  0  0
  -29.0498  -26.6250   21.0683 C   0  0  0  0  0  0  0  0  0  1  0  0
  -28.9424  -24.0693   21.4622 C   0  0  2  0  0  0  0  0  0  0  0  0
  -24.4508  -31.6558   23.9512 C   0  0  1  0  0  0  0  0  0  0  0  0
  -21.3807  -29.5689   23.1839 C   0  0  2  0  0  0  0  0  0  0  0  0
  -24.6200  -32.3418   25.3362 C   0  0  0  0  0  0  0  0  0  0  0  0
  -25.7001  -11.8288   21.1240 N   0  0  0  0  0  0  0  0  0  0  0  0
  -27.4858  -22.3112   20.6072 N   0  0  0  0  0  0  0  0  0  0  0  0
  -26.5348  -12.6339   20.4449 N   0  0  0  0  0  0  0  0  0  0  0  0
  -25.8347  -32.1720   21.9656 N   0  0  0  0  0  0  0  0  0  0  0  0
  -27.4495  -15.9879   22.0252 N   0  0  0  0  0  0  0  0  0  0  0  0
  -26.5508  -20.2537   16.3212 N   0  0  0  0  0  0  0  0  0  0  0  0
  -27.3280  -13.1287   18.2685 N   0  0  0  0  0  0  0  0  0  0  0  0
  -24.4019   -9.7602   17.5703 N   0  0  0  0  0  0  0  0  0  0  0  0
  -27.6066  -17.4816   20.2068 N   0  0  0  0  0  0  0  0  0  0  0  0
  -28.0875  -34.7780   20.7699 N   0  0  0  0  0  0  0  0  0  0  0  0
  -23.1039  -31.1595   23.6907 N   0  0  0  0  0  0  0  0  0  0  0  0
  -21.1963  -28.4911   22.1713 N   0  3  0  0  0  0  0  0  0  0  0  0
  -25.8758  -11.1883   16.5472 O   0  0  0  0  0  0  0  0  0  0  0  0
  -27.9096  -33.4765   22.6926 O   0  0  0  0  0  0  0  0  0  0  0  0
  -30.0897  -25.0507   19.5809 O   0  0  0  0  0  0  0  0  0  0  0  0
  -24.1449  -33.6213   22.6589 O   0  0  0  0  0  0  0  0  0  0  0  0
  -23.7092  -28.9469   23.3520 O   0  0  0  0  0  0  0  0  0  0  0  0
  -28.6234  -17.9684   22.2343 O   0  0  0  0  0  0  0  0  0  0  0  0
  -21.4095   -7.1362   21.4685 O   0  0  0  0  0  0  0  0  0  0  0  0
  -29.5869  -27.6103   20.1868 O   0  0  0  0  0  0  0  0  0  1  0  0
  -22.4768   -3.8982   25.8021 F   0  0  0  0  0  0  0  0  0  0  0  0
  -21.7412   -8.2104   23.9940 F   0  0  0  0  0  0  0  0  0  0  0  0
  1  2  1  0  0  0  0
  1  5  2  0  0  0  0
  2  6  2  0  0  0  0
  3  8  2  0  0  0  0
  3 17  1  0  0  0  0
  4  9  1  0  0  0  0
  4 17  2  0  0  0  0
  5 19  1  0  0  0  0
  6 21  1  0  0  0  0
  7 10  2  0  0  0  0
  7 20  1  0  0  0  0
  8 27  1  0  0  0  0
  9 27  2  0  0  0  0
 10 28  1  0  0  0  0
 11 12  2  0  0  0  0
 11 29  1  0  0  0  0
 12 30  1  0  0  0  0
 13 22  1  0  0  0  0
 13 28  2  0  0  0  0
 14 24  1  0  0  0  0
 14 25  2  0  0  0  0
 15 24  2  0  0  0  0
 15 26  1  0  0  0  0
 16 30  2  0  0  0  0
 16 31  1  0  0  0  0
 17 32  1  0  0  0  0
 18 32  1  0  0  0  0
 18 33  2  0  0  0  0
 18 35  1  0  0  0  0
 19 21  2  0  0  0  0
 19 41  1  0  0  0  0
 20 22  2  0  0  0  0
 20 42  1  0  0  0  0
 21 50  1  0  0  0  0
 22 43  1  0  0  0  0
 23 25  1  0  0  0  0
 23 26  2  0  0  0  0
 23 53  1  0  0  0  0
 24 66  1  0  0  0  0
 25 70  1  0  0  0  0
 26 73  1  0  0  0  0
 27 83  1  0  0  0  0
 28 84  1  0  0  0  0
 29 31  2  0  0  0  0
 29 83  1  0  0  0  0
 30 85  1  0  0  0  0
 31 86  1  0  0  0  0
 32 65  2  0  0  0  0
 33 67  1  0  0  0  0
 33 71  1  0  0  0  0
 34 61  1  0  0  0  0
 34 66  2  0  0  0  0
 35 72  1  0  0  0  0
 35 77  2  0  0  0  0
 36 51  1  0  0  0  0
 36 74  1  0  0  0  0
 36 78  2  0  0  0  0
 37 60  1  0  0  0  0
 37 61  1  0  0  0  0
 37 79  2  0  0  0  0
 38 62  1  0  0  0  0
 38 68  1  0  0  0  0
 38 80  2  0  0  0  0
 39 63  1  0  0  0  0
 39 75  1  0  0  0  0
 39 81  2  0  0  0  0
 40 69  1  0  0  0  0
 40 73  1  0  0  0  0
 40 82  2  0  0  0  0
 41 44  1  0  0  0  0
 42 51  1  0  0  0  0
 43 68  1  0  0  0  0
 44 46  1  0  0  0  0
 45 47  1  0  0  0  0
 45 48  1  0  0  0  0
 46 50  1  0  0  0  0
 47 52  1  0  0  0  0
 48 69  1  0  0  0  0
 49 52  1  0  0  0  0
 49 69  1  0  0  0  0
 50 74  1  0  0  0  0
 51 68  1  0  0  0  0
 52 67  1  0  0  0  0
 54 61  1  0  0  0  0
 55 63  1  0  0  0  0
 56 64  1  0  0  0  0
 57 64  1  0  0  0  0
 58 64  1  0  0  0  0
 59 76  1  0  0  0  0
 60 84  1  0  0  0  0
 62 64  1  0  0  0  0
 62 75  1  0  0  0  0
 63 76  1  0  0  0  0
 65 67  1  0  0  0  0
M  CHG  1  76   1
M  ISO  4  40 100  60 101  73 100  84 101
M  END
> <Batch ID>
0161

> <Smiles>
CNC(C)C(=O)NC(C(=O)N1Cc2cc([101O:1][101CH2:1]C(=O)C(C)=CNc3cc(N)c(C)c([100NH:0][100C:0](=O)N4CCCC(n5nc(-c6ccc(Oc7ccc(F)cc7F)cc6)c(C(N)=O)c5N)C4)c3)ccc2CC1C(=O)NC1CCCc2ccccc21)C(C)(C)C

> <Shape>
0.266

> <Color>
0.104

> <Negative vol penalty>
0.000

$$$$

  -OEChem-04052303533D

 89 97  0     1  0  0  0  0  0999 V2000
  -17.7079  -25.8604   22.8375 C   0  0  0  0  0  0  0  0  0  0  0  0
  -18.6988  -25.7921   21.8635 C   0  0  0  0  0  0  0  0  0  0  0  0
  -26.7786  -13.6153   21.0785 C   0  0  0  0  0  0  0  0  0  0  0  0
  -27.1335  -13.3848   18.6999 C   0  0  0  0  0  0  0  0  0  0  0  0
  -17.4489  -27.0687   23.4833 C   0  0  0  0  0  0  0  0  0  0  0  0
  -19.4306  -26.9324   21.5338 C   0  0  0  0  0  0  0  0  0  0  0  0
  -25.3278  -27.1773   19.8999 C   0  0  0  0  0  0  0  0  0  0  0  0
  -26.1742  -12.3586   21.1102 C   0  0  0  0  0  0  0  0  0  0  0  0
  -26.5292  -12.1281   18.7315 C   0  0  0  0  0  0  0  0  0  0  0  0
  -25.9542  -27.2560   18.6569 C   0  0  0  0  0  0  0  0  0  0  0  0
  -24.2145   -9.3637   21.7531 C   0  0  0  0  0  0  0  0  0  0  0  0
  -23.0293   -9.2304   22.4763 C   0  0  0  0  0  0  0  0  0  0  0  0
  -26.1082  -29.6518   18.8930 C   0  0  0  0  0  0  0  0  0  0  0  0
  -27.2252  -22.2692   14.6891 C   0  0  0  0  0  0  0  0  0  0  0  0
  -27.3413  -20.0278   13.7951 C   0  0  0  0  0  0  0  0  0  0  0  0
  -21.9806  -10.8854   21.0627 C   0  0  0  0  0  0  0  0  0  0  0  0
  -27.2582  -14.1285   19.8734 C   0  0  0  0  0  0  0  0  0  0  0  0
  -28.1973  -21.8865   12.5107 C   0  0  0  0  0  0  0  0  0  0  0  0
  -29.2481  -15.7183   20.0154 C   0  0  0  0  0  0  0  0  0  0  0  0
  -18.1845  -28.2221   23.1683 C   0  0  0  0  0  0  0  0  0  0  0  0
  -25.0767  -28.3383   20.6452 C   0  0  0  0  0  0  0  0  0  0  0  0
  -19.1803  -28.1575   22.1750 C   0  0  0  0  0  0  0  0  0  0  0  0
  -25.4808  -29.5848   20.1464 C   0  0  0  0  0  0  0  0  0  0  0  0
  -26.9785  -20.9025   14.8192 C   0  0  0  0  0  0  0  0  0  0  0  0
  -27.8346  -22.7612   13.5348 C   0  0  0  0  0  0  0  0  0  0  0  0
  -26.0495  -11.6150   19.9367 C   0  0  0  0  0  0  0  0  0  0  0  0
  -26.3419  -28.4937   18.1519 C   0  0  0  0  0  0  0  0  0  0  0  0
  -24.2829  -10.2579   20.6847 C   0  0  0  0  0  0  0  0  0  0  0  0
  -21.9123   -9.9912   22.1311 C   0  0  0  0  0  0  0  0  0  0  0  0
  -27.9507  -20.5197   12.6408 C   0  0  0  0  0  0  0  0  0  0  0  0
  -23.1659  -11.0188   20.3395 C   0  0  0  0  0  0  0  0  0  0  0  0
  -27.8821  -15.4268   19.8400 C   0  0  0  0  0  0  0  0  0  0  0  0
  -29.3261  -17.0842   19.8938 C   0  0  0  0  0  0  0  0  0  0  0  0
  -28.8369  -22.3727   11.2946 C   0  0  0  0  0  0  0  0  0  0  0  0
  -30.3482  -14.8336   20.2657 C   0  0  0  0  0  0  0  0  0  0  0  0
  -28.1208  -26.4626   13.9905 C   0  0  0  0  0  0  0  0  0  0  0  0
  -27.8357  -27.6296   14.9156 C   0  0  0  0  0  0  0  0  0  0  0  0
  -22.4623  -29.7927   21.7191 C   0  0  0  0  0  0  0  0  0  0  0  0
  -24.6131  -31.7158   23.2016 C   0  0  0  0  0  0  0  0  0  0  0  0
  -27.7759  -32.9947   23.2934 C   0  0  0  0  0  0  0  0  0  0  0  0
  -25.9349  -21.1341   17.1003 C   0  0  0  0  0  0  0  0  0  0  0  0
  -17.8363  -29.5165   23.8596 C   0  0  0  0  0  0  0  0  0  0  0  0
  -24.4240  -28.2337   21.9964 C   0  0  0  0  0  0  0  0  0  0  0  0
  -25.2524  -30.8590   20.9163 C   0  0  0  0  0  0  0  0  0  0  0  0
  -18.9114  -30.5909   23.7181 C   0  0  0  0  0  0  0  0  0  0  0  0
  -26.7391  -21.0576   20.5680 C   0  0  0  0  0  0  0  0  0  0  0  0
  -19.3834  -30.6864   22.2707 C   0  0  0  0  0  0  0  0  0  0  0  0
  -27.2535  -19.6333   20.7895 C   0  0  0  0  0  0  0  0  0  0  0  0
  -25.5909  -21.0957   19.5611 C   0  0  0  0  0  0  0  0  0  0  0  0
  -26.3859  -19.0213   18.4961 C   0  0  0  0  0  0  0  0  0  0  0  0
  -20.0124  -29.3669   21.8074 C   0  0  1  0  0  0  0  0  0  0  0  0
  -23.7551  -29.5315   22.4388 C   0  0  1  0  0  0  0  0  0  0  0  0
  -27.5860  -18.9401   19.4536 C   0  0  2  0  0  0  0  0  0  0  0  0
  -28.4147  -23.2156    8.9241 C   0  0  0  0  0  0  0  0  0  0  0  0
  -29.2262  -34.5709   24.6009 C   0  0  0  0  0  0  0  0  0  0  0  0
  -23.1917  -34.0885   21.9133 C   0  0  0  0  0  0  0  0  0  0  0  0
  -25.1926  -35.4923   22.4555 C   0  0  0  0  0  0  0  0  0  0  0  0
  -23.8703  -34.4460   24.2937 C   0  0  0  0  0  0  0  0  0  0  0  0
  -29.6840  -30.8431   23.9924 C   0  0  0  0  0  0  0  0  0  0  0  0
  -28.1357  -22.1303    9.9522 C   0  0  0  0  0  0  0  0  0  0  0  0
  -27.7224  -25.0820   14.4442 C   0  0  0  0  0  0  0  0  0  0  0  0
  -27.1656  -27.3493   16.2368 C   0  0  0  0  0  0  0  0  0  1  0  0
  -25.3372  -32.9896   22.8380 C   0  0  1  0  0  0  0  0  0  0  0  0
  -28.7757  -33.1287   24.4278 C   0  0  2  0  0  0  0  0  0  0  0  0
  -24.4007  -34.2305   22.8595 C   0  0  0  0  0  0  0  0  0  0  0  0
  -27.1453  -16.5197   19.6236 N   0  0  0  0  0  0  0  0  0  0  0  0
  -28.0516  -17.5112   19.6623 N   0  0  0  0  0  0  0  0  0  0  0  0
  -24.6050  -30.7054   22.2296 N   0  0  0  0  0  0  0  0  0  0  0  0
  -25.9798  -20.4243   18.3189 N   0  0  0  0  0  0  0  0  0  0  0  0
  -30.3598  -17.9497   19.9635 N   0  0  0  0  0  0  0  0  0  0  0  0
  -30.0917  -13.4590   20.3614 N   0  0  0  0  0  0  0  0  0  0  0  0
  -26.3584  -20.4027   15.9911 N   0  0  0  0  0  0  0  0  0  0  0  0
  -28.0711  -24.1231   13.4251 N   0  0  0  0  0  0  0  0  0  0  0  0
  -21.3553  -29.2359   22.3307 N   0  0  0  0  0  0  0  0  0  0  0  0
  -26.4761  -33.0848   23.7448 N   0  0  0  0  0  0  0  0  0  0  0  0
  -29.9779  -32.2896   24.1605 N   0  3  0  0  0  0  0  0  0  0  0  0
  -29.9232  -22.9727   11.2997 O   0  0  0  0  0  0  0  0  0  0  0  0
  -31.5214  -15.2511   20.4169 O   0  0  0  0  0  0  0  0  0  0  0  0
  -28.6635  -26.7183   12.9229 O   0  0  0  0  0  0  0  0  0  0  0  0
  -28.1659  -28.7452   14.5344 O   0  0  0  0  0  0  0  0  0  0  0  0
  -22.4684  -30.4520   20.6862 O   0  0  0  0  0  0  0  0  0  0  0  0
  -24.0806  -31.6182   24.3100 O   0  0  0  0  0  0  0  0  0  0  0  0
  -28.1142  -32.8304   22.1233 O   0  0  0  0  0  0  0  0  0  0  0  0
  -25.5751  -22.3130   17.0489 O   0  0  0  0  0  0  0  0  0  0  0  0
  -25.4601  -10.3886   19.9672 O   0  0  0  0  0  0  0  0  0  0  0  0
  -26.9530  -28.5734   16.9386 O   0  0  0  0  0  0  0  0  0  1  0  0
  -20.7738   -9.8620   22.8247 F   0  0  0  0  0  0  0  0  0  0  0  0
  -28.2957  -19.6688   11.6639 F   0  0  0  0  0  0  0  0  0  0  0  0
  -23.2252  -11.8787   19.3134 F   0  0  0  0  0  0  0  0  0  0  0  0
  1  2  1  0  0  0  0
  1  5  2  0  0  0  0
  2  6  2  0  0  0  0
  3  8  2  0  0  0  0
  3 17  1  0  0  0  0
  4  9  1  0  0  0  0
  4 17  2  0  0  0  0
  5 20  1  0  0  0  0
  6 22  1  0  0  0  0
  7 10  2  0  0  0  0
  7 21  1  0  0  0  0
  8 26  1  0  0  0  0
  9 26  2  0  0  0  0
 10 27  1  0  0  0  0
 11 12  2  0  0  0  0
 11 28  1  0  0  0  0
 12 29  1  0  0  0  0
 13 23  1  0  0  0  0
 13 27  2  0  0  0  0
 14 24  2  0  0  0  0
 14 25  1  0  0  0  0
 15 24  1  0  0  0  0
 15 30  2  0  0  0  0
 16 29  2  0  0  0  0
 16 31  1  0  0  0  0
 17 32  1  0  0  0  0
 18 25  2  0  0  0  0
 18 30  1  0  0  0  0
 18 34  1  0  0  0  0
 19 32  1  0  0  0  0
 19 33  2  0  0  0  0
 19 35  1  0  0  0  0
 20 22  2  0  0  0  0
 20 42  1  0  0  0  0
 21 23  2  0  0  0  0
 21 43  1  0  0  0  0
 22 51  1  0  0  0  0
 23 44  1  0  0  0  0
 24 72  1  0  0  0  0
 25 73  1  0  0  0  0
 26 85  1  0  0  0  0
 27 86  1  0  0  0  0
 28 31  2  0  0  0  0
 28 85  1  0  0  0  0
 29 87  1  0  0  0  0
 30 88  1  0  0  0  0
 31 89  1  0  0  0  0
 32 66  2  0  0  0  0
 33 67  1  0  0  0  0
 33 70  1  0  0  0  0
 34 60  1  0  0  0  0
 34 77  2  0  0  0  0
 35 71  1  0  0  0  0
 35 78  2  0  0  0  0
 36 37  1  0  0  0  0
 36 61  1  0  0  0  0
 36 79  2  0  0  0  0
 37 62  1  0  0  0  0
 37 80  2  0  0  0  0
 38 52  1  0  0  0  0
 38 74  1  0  0  0  0
 38 81  2  0  0  0  0
 39 63  1  0  0  0  0
 39 68  1  0  0  0  0
 39 82  2  0  0  0  0
 40 64  1  0  0  0  0
 40 75  1  0  0  0  0
 40 83  2  0  0  0  0
 41 69  1  0  0  0  0
 41 72  1  0  0  0  0
 41 84  2  0  0  0  0
 42 45  1  0  0  0  0
 43 52  1  0  0  0  0
 44 68  1  0  0  0  0
 45 47  1  0  0  0  0
 46 48  1  0  0  0  0
 46 49  1  0  0  0  0
 47 51  1  0  0  0  0
 48 53  1  0  0  0  0
 49 69  1  0  0  0  0
 50 53  1  0  0  0  0
 50 69  1  0  0  0  0
 51 74  1  0  0  0  0
 52 68  1  0  0  0  0
 53 67  1  0  0  0  0
 54 60  1  0  0  0  0
 55 64  1  0  0  0  0
 56 65  1  0  0  0  0
 57 65  1  0  0  0  0
 58 65  1  0  0  0  0
 59 76  1  0  0  0  0
 61 73  1  0  0  0  0
 62 86  1  0  0  0  0
 63 65  1  0  0  0  0
 63 75  1  0  0  0  0
 64 76  1  0  0  0  0
 66 67  1  0  0  0  0
M  CHG  1  76   1
M  ISO  4  41 100  62 101  72 100  86 101
M  END
> <Batch ID>
0161

> <Smiles>
CCC(=O)c1c(F)cc([100NH:0][100C:0](=O)N2CCCC(n3nc(-c4ccc(Oc5ccc(F)cc5F)cc4)c(C(N)=O)c3N)C2)cc1NCC(=O)C(=O)[101CH2:1][101O:1]c1ccc2c(c1)CN(C(=O)C(NC(=O)C(C)NC)C(C)(C)C)C(C(=O)NC1CCCc3ccccc31)C2

> <Shape>
0.263

> <Color>
0.101

> <Negative vol penalty>
0.000

$$$$

  -OEChem-04052303533D

 84 92  0     1  0  0  0  0  0999 V2000
  -28.4050  -16.8324   17.5163 C   0  0  0  0  0  0  0  0  0  0  0  0
  -28.6418  -17.5248   18.6995 C   0  0  0  0  0  0  0  0  0  0  0  0
  -23.0750   -9.8668   19.9429 C   0  0  0  0  0  0  0  0  0  0  0  0
  -23.8321   -9.8780   22.2372 C   0  0  0  0  0  0  0  0  0  0  0  0
  -29.2950  -16.9522   16.4498 C   0  0  0  0  0  0  0  0  0  0  0  0
  -29.7695  -18.3365   18.8173 C   0  0  0  0  0  0  0  0  0  0  0  0
  -28.7250  -22.8187   20.9300 C   0  0  0  0  0  0  0  0  0  0  0  0
  -32.0582  -16.6140   22.5504 C   0  0  0  0  0  0  0  0  0  0  0  0
  -22.3310   -8.7140   20.1940 C   0  0  0  0  0  0  0  0  0  0  0  0
  -23.0880   -8.7252   22.4884 C   0  0  0  0  0  0  0  0  0  0  0  0
  -28.5678  -22.8486   22.3149 C   0  0  0  0  0  0  0  0  0  0  0  0
  -19.3810   -7.9197   21.6431 C   0  0  0  0  0  0  0  0  0  0  0  0
  -32.6445  -17.4990   23.4551 C   0  0  0  0  0  0  0  0  0  0  0  0
  -18.0748   -7.8724   21.1562 C   0  0  0  0  0  0  0  0  0  0  0  0
  -29.8732  -17.4624   23.1363 C   0  0  0  0  0  0  0  0  0  0  0  0
  -30.8202  -23.6805   22.5466 C   0  0  0  0  0  0  0  0  0  0  0  0
  -18.6364   -5.9270   19.8382 C   0  0  0  0  0  0  0  0  0  0  0  0
  -23.8256  -10.4488   20.9645 C   0  0  0  0  0  0  0  0  0  0  0  0
  -30.4595  -18.3475   24.0411 C   0  0  0  0  0  0  0  0  0  0  0  0
  -24.1673  -12.9737   20.8403 C   0  0  0  0  0  0  0  0  0  0  0  0
  -30.4291  -17.7733   16.5511 C   0  0  0  0  0  0  0  0  0  0  0  0
  -29.9368  -23.2098   20.3426 C   0  0  0  0  0  0  0  0  0  0  0  0
  -30.6763  -18.4662   17.7516 C   0  0  0  0  0  0  0  0  0  0  0  0
  -30.9894  -23.6571   21.1538 C   0  0  0  0  0  0  0  0  0  0  0  0
  -30.6725  -16.5957   22.3909 C   0  0  0  0  0  0  0  0  0  0  0  0
  -22.3374   -8.1432   21.4668 C   0  0  0  0  0  0  0  0  0  0  0  0
  -29.6164  -23.2768   23.1237 C   0  0  0  0  0  0  0  0  0  0  0  0
  -20.3150   -6.9707   21.2274 C   0  0  0  0  0  0  0  0  0  0  0  0
  -17.7024   -6.8761   20.2539 C   0  0  0  0  0  0  0  0  0  0  0  0
  -31.8452  -18.3657   24.2005 C   0  0  0  0  0  0  0  0  0  0  0  0
  -19.9427   -5.9743   20.3250 C   0  0  0  0  0  0  0  0  0  0  0  0
  -24.5949  -11.6393   20.7056 C   0  0  0  0  0  0  0  0  0  0  0  0
  -25.2598  -13.7227   20.4770 C   0  0  0  0  0  0  0  0  0  0  0  0
  -29.6111  -19.2634   24.8295 C   0  0  0  0  0  0  0  0  0  0  0  0
  -22.8962  -13.4902   21.2567 C   0  0  0  0  0  0  0  0  0  0  0  0
  -32.1353  -21.7633   18.5598 C   0  0  0  0  0  0  0  0  0  0  0  0
  -33.3990  -24.7461   18.3905 C   0  0  0  0  0  0  0  0  0  0  0  0
  -33.6960  -27.8498   19.7780 C   0  0  0  0  0  0  0  0  0  0  0  0
  -30.7257  -14.7692   20.6567 C   0  0  0  0  0  0  0  0  0  0  0  0
  -31.3875  -17.8340   15.3882 C   0  0  0  0  0  0  0  0  0  0  0  0
  -30.0813  -23.1971   18.8455 C   0  0  0  0  0  0  0  0  0  0  0  0
  -32.3036  -24.1067   20.5714 C   0  0  0  0  0  0  0  0  0  0  0  0
  -32.3602  -19.0083   15.4613 C   0  0  0  0  0  0  0  0  0  0  0  0
  -29.6145  -12.3510   18.2914 C   0  0  0  0  0  0  0  0  0  0  0  0
  -32.9622  -19.1168   16.8586 C   0  0  0  0  0  0  0  0  0  0  0  0
  -28.1744  -12.0600   18.7197 C   0  0  0  0  0  0  0  0  0  0  0  0
  -30.5281  -12.5821   19.4938 C   0  0  0  0  0  0  0  0  0  0  0  0
  -28.6193  -13.3088   20.8713 C   0  0  0  0  0  0  0  0  0  0  0  0
  -31.8753  -19.3760   17.9090 C   0  0  1  0  0  0  0  0  0  0  0  0
  -31.5345  -23.1295   18.3860 C   0  0  1  0  0  0  0  0  0  0  0  0
  -27.6480  -13.1333   19.6926 C   0  0  2  0  0  0  0  0  0  0  0  0
  -34.8272  -30.0628   19.4307 C   0  0  0  0  0  0  0  0  0  0  0  0
  -27.4382  -23.0638   25.7577 C   0  0  0  0  0  0  0  0  0  0  0  0
  -36.0321  -23.5502   19.3635 C   0  0  0  0  0  0  0  0  0  0  0  0
  -36.8070  -25.8697   19.8997 C   0  0  0  0  0  0  0  0  0  0  0  0
  -36.2675  -25.2500   17.5443 C   0  0  0  0  0  0  0  0  0  0  0  0
  -31.1083  -29.2704   19.5668 C   0  0  0  0  0  0  0  0  0  0  0  0
  -29.3781  -21.4370   25.9776 C   0  0  0  0  0  0  0  0  0  0  0  0
  -34.3890  -25.5360   19.2120 C   0  0  1  0  0  0  0  0  0  0  0  0
  -33.5751  -29.2381   19.1759 C   0  0  2  0  0  0  0  0  0  0  0  0
  -28.5808  -22.3465   25.0519 C   0  0  2  0  0  0  0  0  0  1  0  0
  -35.8499  -25.0412   19.0163 C   0  0  0  0  0  0  0  0  0  0  0  0
  -25.8603  -11.5428   20.2890 N   0  0  0  0  0  0  0  0  0  0  0  0
  -26.2372  -12.8262   20.1588 N   0  0  0  0  0  0  0  0  0  0  0  0
  -32.3982  -24.0701   19.1027 N   0  0  0  0  0  0  0  0  0  0  0  0
  -29.9679  -13.6144   20.3686 N   0  0  0  0  0  0  0  0  0  0  0  0
  -25.4702  -15.0540   20.4019 N   0  0  0  0  0  0  0  0  0  0  0  0
  -28.3770  -18.8660   25.1396 N   0  0  0  0  0  0  0  0  0  0  0  0
  -21.8840  -12.5815   21.5943 N   0  0  0  0  0  0  0  0  0  0  0  0
  -30.0772  -15.6957   21.4726 N   0  0  0  0  0  0  0  0  0  0  0  0
  -31.4656  -20.7637   17.8804 N   0  0  0  0  0  0  0  0  0  0  0  0
  -34.1812  -26.9376   18.8649 N   0  0  0  0  0  0  0  0  0  0  0  0
  -30.1198  -20.4467   25.1922 N   0  3  0  0  0  0  0  0  0  0  0  0
  -32.4103  -29.9581   19.7641 N   0  3  0  0  0  0  0  0  0  0  0  0
  -22.6598  -14.7208   21.3115 O   0  0  0  0  0  0  0  0  0  0  0  0
  -33.1334  -21.6265   19.2575 O   0  0  0  0  0  0  0  0  0  0  0  0
  -33.5054  -24.7352   17.1616 O   0  0  0  0  0  0  0  0  0  0  0  0
  -33.3941  -27.6004   20.9430 O   0  0  0  0  0  0  0  0  0  0  0  0
  -31.8553  -14.9373   20.1902 O   0  0  0  0  0  0  0  0  0  0  0  0
  -21.6113   -7.0185   21.7122 O   0  0  0  0  0  0  0  0  0  0  0  0
  -29.4658  -23.3064   24.4758 O   0  0  0  0  0  0  0  0  0  1  0  0
  -16.4475   -6.8299   19.7877 F   0  0  0  0  0  0  0  0  0  0  0  0
  -32.4175  -19.2124   25.0677 F   0  0  0  0  0  0  0  0  0  0  0  0
  -20.8352   -5.0591   19.9230 F   0  0  0  0  0  0  0  0  0  0  0  0
  1  2  1  0  0  0  0
  1  5  2  0  0  0  0
  2  6  2  0  0  0  0
  3  9  2  0  0  0  0
  3 18  1  0  0  0  0
  4 10  1  0  0  0  0
  4 18  2  0  0  0  0
  5 21  1  0  0  0  0
  6 23  1  0  0  0  0
  7 11  2  0  0  0  0
  7 22  1  0  0  0  0
  8 13  2  0  0  0  0
  8 25  1  0  0  0  0
  9 26  1  0  0  0  0
 10 26  2  0  0  0  0
 11 27  1  0  0  0  0
 12 14  2  0  0  0  0
 12 28  1  0  0  0  0
 13 30  1  0  0  0  0
 14 29  1  0  0  0  0
 15 19  1  0  0  0  0
 15 25  2  0  0  0  0
 16 24  1  0  0  0  0
 16 27  2  0  0  0  0
 17 29  2  0  0  0  0
 17 31  1  0  0  0  0
 18 32  1  0  0  0  0
 19 30  2  0  0  0  0
 19 34  1  0  0  0  0
 20 32  1  0  0  0  0
 20 33  2  0  0  0  0
 20 35  1  0  0  0  0
 21 23  2  0  0  0  0
 21 40  1  0  0  0  0
 22 24  2  0  0  0  0
 22 41  1  0  0  0  0
 23 49  1  0  0  0  0
 24 42  1  0  0  0  0
 25 70  1  0  0  0  0
 26 80  1  0  0  0  0
 27 81  1  0  0  0  0
 28 31  2  0  0  0  0
 28 80  1  0  0  0  0
 29 82  1  0  0  0  0
 30 83  1  0  0  0  0
 31 84  1  0  0  0  0
 32 63  2  0  0  0  0
 33 64  1  0  0  0  0
 33 67  1  0  0  0  0
 34 68  1  0  0  0  0
 34 73  2  0  0  0  0
 35 69  1  0  0  0  0
 35 75  2  0  0  0  0
 36 50  1  0  0  0  0
 36 71  1  0  0  0  0
 36 76  2  0  0  0  0
 37 59  1  0  0  0  0
 37 65  1  0  0  0  0
 37 77  2  0  0  0  0
 38 60  1  0  0  0  0
 38 72  1  0  0  0  0
 38 78  2  0  0  0  0
 39 66  1  0  0  0  0
 39 70  1  0  0  0  0
 39 79  2  0  0  0  0
 40 43  1  0  0  0  0
 41 50  1  0  0  0  0
 42 65  1  0  0  0  0
 43 45  1  0  0  0  0
 44 46  1  0  0  0  0
 44 47  1  0  0  0  0
 45 49  1  0  0  0  0
 46 51  1  0  0  0  0
 47 66  1  0  0  0  0
 48 51  1  0  0  0  0
 48 66  1  0  0  0  0
 49 71  1  0  0  0  0
 50 65  1  0  0  0  0
 51 64  1  0  0  0  0
 52 60  1  0  0  0  0
 53 61  1  0  0  0  0
 54 62  1  0  0  0  0
 55 62  1  0  0  0  0
 56 62  1  0  0  0  0
 57 74  1  0  0  0  0
 58 61  1  0  0  0  0
 58 73  1  0  0  0  0
 59 62  1  0  0  0  0
 59 72  1  0  0  0  0
 60 74  1  0  0  0  0
 61 81  1  0  0  0  0
 63 64  1  0  0  0  0
M  CHG  2  73   1  74   1
M  ISO  4  39 100  61 101  70 100  81 101
M  END
> <Batch ID>
0161

> <Smiles>
CNC(C)C(=O)NC(C(=O)N1Cc2cc([101O:1][101CH:1](C)CNC(=N)c3cc([100NH:0][100C:0](=O)N4CCCC(n5nc(-c6ccc(Oc7ccc(F)cc7F)cc6)c(C(N)=O)c5N)C4)ccc3F)ccc2CC1C(=O)NC1CCCc2ccccc21)C(C)(C)C

> <Shape>
0.199

> <Color>
0.187

> <Negative vol penalty>
0.000

$$$$

  -OEChem-04052303533D

 88 97  0     1  0  0  0  0  0999 V2000
  -43.1778  -21.0161   19.6211 C   0  0  0  0  0  0  0  0  0  0  0  0
  -41.8260  -20.7199   19.7637 C   0  0  0  0  0  0  0  0  0  0  0  0
  -23.0751   -9.8780   19.9425 C   0  0  0  0  0  0  0  0  0  0  0  0
  -23.8346   -9.8853   22.2360 C   0  0  0  0  0  0  0  0  0  0  0  0
  -43.5794  -22.3246   19.3561 C   0  0  0  0  0  0  0  0  0  0  0  0
  -40.8750  -21.7325   19.6423 C   0  0  0  0  0  0  0  0  0  0  0  0
  -35.2473  -21.2338   17.2789 C   0  0  0  0  0  0  0  0  0  0  0  0
  -22.3292   -8.7263   20.1932 C   0  0  0  0  0  0  0  0  0  0  0  0
  -23.0887   -8.7337   22.4867 C   0  0  0  0  0  0  0  0  0  0  0  0
  -33.9936  -21.0730   17.8674 C   0  0  0  0  0  0  0  0  0  0  0  0
  -19.8591   -7.9419   23.0893 C   0  0  0  0  0  0  0  0  0  0  0  0
  -19.1019   -7.9042   24.2601 C   0  0  0  0  0  0  0  0  0  0  0  0
  -33.6370  -23.4557   17.7444 C   0  0  0  0  0  0  0  0  0  0  0  0
  -20.3398   -5.9651   24.9982 C   0  0  0  0  0  0  0  0  0  0  0  0
  -30.0575  -17.9104   22.7227 C   0  0  0  0  0  0  0  0  0  0  0  0
  -23.8279  -10.4575   20.9639 C   0  0  0  0  0  0  0  0  0  0  0  0
  -24.1741  -12.9820   20.8420 C   0  0  0  0  0  0  0  0  0  0  0  0
  -42.6323  -23.3520   19.2219 C   0  0  0  0  0  0  0  0  0  0  0  0
  -35.7105  -22.5100   16.9281 C   0  0  0  0  0  0  0  0  0  0  0  0
  -41.2644  -23.0563   19.3766 C   0  0  0  0  0  0  0  0  0  0  0  0
  -34.8958  -23.6297   17.1493 C   0  0  0  0  0  0  0  0  0  0  0  0
  -22.3359   -8.1542   21.4653 C   0  0  0  0  0  0  0  0  0  0  0  0
  -33.1895  -22.1843   18.1029 C   0  0  0  0  0  0  0  0  0  0  0  0
  -20.8566   -6.9912   22.8729 C   0  0  0  0  0  0  0  0  0  0  0  0
  -19.3422   -6.9158   25.2146 C   0  0  0  0  0  0  0  0  0  0  0  0
  -21.0970   -6.0029   23.8273 C   0  0  0  0  0  0  0  0  0  0  0  0
  -24.5991  -11.6468   20.7054 C   0  0  0  0  0  0  0  0  0  0  0  0
  -31.0708  -18.8821   22.7922 C   0  0  0  0  0  0  0  0  0  0  0  0
  -25.2676  -13.7293   20.4784 C   0  0  0  0  0  0  0  0  0  0  0  0
  -30.5965  -16.9342   21.9272 C   0  0  0  0  0  0  0  0  0  0  0  0
  -29.2541  -22.9077   20.7006 C   0  0  0  0  0  0  0  0  0  0  0  0
  -30.5541  -22.5894   20.5374 C   0  0  0  0  0  0  0  0  0  0  0  0
  -22.9045  -13.5003   21.2604 C   0  0  0  0  0  0  0  0  0  0  0  0
  -28.5693  -23.8869   19.8420 C   0  0  0  0  0  0  0  0  0  0  0  0
  -38.1695  -24.3232   17.8052 C   0  0  0  0  0  0  0  0  0  0  0  0
  -37.0848  -26.2584   15.4385 C   0  0  0  0  0  0  0  0  0  0  0  0
  -34.4709  -27.2660   13.4895 C   0  0  0  0  0  0  0  0  0  0  0  0
  -30.7356  -14.7654   20.6532 C   0  0  0  0  0  0  0  0  0  0  0  0
  -43.1174  -24.7598   18.9822 C   0  0  0  0  0  0  0  0  0  0  0  0
  -37.0541  -22.6637   16.2697 C   0  0  0  0  0  0  0  0  0  0  0  0
  -35.3383  -25.0192   16.7725 C   0  0  0  0  0  0  0  0  0  0  0  0
  -28.3878  -22.2938   21.7713 C   0  0  0  0  0  0  0  0  0  0  0  0
  -31.2182  -21.6111   21.4804 C   0  0  0  0  0  0  0  0  0  0  0  0
  -42.0230  -25.7068   18.4966 C   0  0  0  0  0  0  0  0  0  0  0  0
  -29.6173  -12.3519   18.2864 C   0  0  0  0  0  0  0  0  0  0  0  0
  -40.7634  -25.5450   19.3417 C   0  0  0  0  0  0  0  0  0  0  0  0
  -28.1771  -12.0632   18.7160 C   0  0  0  0  0  0  0  0  0  0  0  0
  -30.5327  -12.5799   19.4880 C   0  0  0  0  0  0  0  0  0  0  0  0
  -28.6268  -13.3087   20.8685 C   0  0  0  0  0  0  0  0  0  0  0  0
  -28.9817  -21.0424   22.4092 C   0  0  0  0  0  0  0  0  0  0  0  0
  -40.2013  -24.1229   19.2274 C   0  0  1  0  0  0  0  0  0  0  0  0
  -37.6382  -24.0646   16.4237 C   0  0  1  0  0  0  0  0  0  0  0  0
  -27.6538  -13.1363   19.6907 C   0  0  2  0  0  0  0  0  0  0  0  0
  -27.3812  -23.4158   19.0476 C   0  0  0  0  0  0  0  0  0  0  0  0
  -32.4318  -20.6493   23.9828 C   0  0  0  0  0  0  0  0  0  0  0  0
  -33.8816  -28.8922   11.6713 C   0  0  0  0  0  0  0  0  0  0  0  0
  -37.0378  -28.5231   17.4827 C   0  0  0  0  0  0  0  0  0  0  0  0
  -35.5830  -29.8188   15.9102 C   0  0  0  0  0  0  0  0  0  0  0  0
  -37.8930  -29.1737   15.2245 C   0  0  0  0  0  0  0  0  0  0  0  0
  -33.7464  -25.0902   11.6186 C   0  0  0  0  0  0  0  0  0  0  0  0
  -31.4811  -23.1113   19.4734 C   0  0  0  0  0  0  0  0  0  1  0  0
  -31.0435  -20.1964   23.5377 C   0  0  1  0  0  0  0  0  0  0  0  0
  -36.0982  -27.3981   15.3573 C   0  0  1  0  0  0  0  0  0  0  0  0
  -34.3566  -27.4834   11.9914 C   0  0  2  0  0  0  0  0  0  0  0  0
  -36.6452  -28.7026   16.0027 C   0  0  0  0  0  0  0  0  0  0  0  0
  -25.8638  -11.5485   20.2873 N   0  0  0  0  0  0  0  0  0  0  0  0
  -32.1552  -18.5351   22.0934 N   0  0  0  0  0  0  0  0  0  0  0  0
  -26.2430  -12.8313   20.1581 N   0  0  0  0  0  0  0  0  0  0  0  0
  -36.6627  -25.1184   16.1372 N   0  0  0  0  0  0  0  0  0  0  0  0
  -29.9754  -13.6123   20.3646 N   0  0  0  0  0  0  0  0  0  0  0  0
  -25.4804  -15.0603   20.4044 N   0  0  0  0  0  0  0  0  0  0  0  0
  -21.8909  -12.5931   21.5982 N   0  0  0  0  0  0  0  0  0  0  0  0
  -30.0898  -15.6921   21.4709 N   0  0  0  0  0  0  0  0  0  0  0  0
  -39.4914  -23.9591   17.9769 N   0  0  0  0  0  0  0  0  0  0  0  0
  -35.7437  -27.5315   13.9484 N   0  0  0  0  0  0  0  0  0  0  0  0
  -30.4260  -21.3055   22.7348 N   0  3  1  0  0  0  0  0  0  0  0  0
  -33.3899  -26.5157   11.3998 N   0  3  0  0  0  0  0  0  0  0  0  0
  -22.6704  -14.7314   21.3168 O   0  0  0  0  0  0  0  0  0  0  0  0
  -28.9710  -25.0477   19.7800 O   0  0  0  0  0  0  0  0  0  0  0  0
  -37.4350  -24.8180   18.6522 O   0  0  0  0  0  0  0  0  0  0  0  0
  -38.1867  -26.3725   14.8958 O   0  0  0  0  0  0  0  0  0  0  0  0
  -33.5247  -26.9010   14.1837 O   0  0  0  0  0  0  0  0  0  0  0  0
  -31.8651  -14.9318   20.1856 O   0  0  0  0  0  0  0  0  0  0  0  0
  -31.8482  -17.2954   21.5453 O   0  0  0  0  0  0  0  0  0  0  0  0
  -21.6080   -7.0305   21.7103 O   0  0  0  0  0  0  0  0  0  0  0  0
  -31.9657  -22.0303   18.6778 O   0  0  0  0  0  0  0  0  0  1  0  0
  -18.6161   -6.8806   26.3396 F   0  0  0  0  0  0  0  0  0  0  0  0
  -22.0547   -5.0876   23.6255 F   0  0  0  0  0  0  0  0  0  0  0  0
  1  2  1  0  0  0  0
  1  5  2  0  0  0  0
  2  6  2  0  0  0  0
  3  8  2  0  0  0  0
  3 16  1  0  0  0  0
  4  9  1  0  0  0  0
  4 16  2  0  0  0  0
  5 18  1  0  0  0  0
  6 20  1  0  0  0  0
  7 10  2  0  0  0  0
  7 19  1  0  0  0  0
  8 22  1  0  0  0  0
  9 22  2  0  0  0  0
 10 23  1  0  0  0  0
 11 12  2  0  0  0  0
 11 24  1  0  0  0  0
 12 25  1  0  0  0  0
 13 21  1  0  0  0  0
 13 23  2  0  0  0  0
 14 25  2  0  0  0  0
 14 26  1  0  0  0  0
 15 28  1  0  0  0  0
 15 30  2  0  0  0  0
 16 27  1  0  0  0  0
 17 27  1  0  0  0  0
 17 29  2  0  0  0  0
 17 33  1  0  0  0  0
 18 20  2  0  0  0  0
 18 39  1  0  0  0  0
 19 21  2  0  0  0  0
 19 40  1  0  0  0  0
 20 51  1  0  0  0  0
 21 41  1  0  0  0  0
 22 85  1  0  0  0  0
 23 86  1  0  0  0  0
 24 26  2  0  0  0  0
 24 85  1  0  0  0  0
 25 87  1  0  0  0  0
 26 88  1  0  0  0  0
 27 66  2  0  0  0  0
 28 62  1  0  0  0  0
 28 67  2  0  0  0  0
 29 68  1  0  0  0  0
 29 71  1  0  0  0  0
 30 73  1  0  0  0  0
 30 84  1  0  0  0  0
 31 32  2  0  0  0  0
 31 34  1  0  0  0  0
 31 42  1  0  0  0  0
 32 43  1  0  0  0  0
 32 61  1  0  0  0  0
 33 72  1  0  0  0  0
 33 78  2  0  0  0  0
 34 54  1  0  0  0  0
 34 79  2  0  0  0  0
 35 52  1  0  0  0  0
 35 74  1  0  0  0  0
 35 80  2  0  0  0  0
 36 63  1  0  0  0  0
 36 69  1  0  0  0  0
 36 81  2  0  0  0  0
 37 64  1  0  0  0  0
 37 75  1  0  0  0  0
 37 82  2  0  0  0  0
 38 70  1  0  0  0  0
 38 73  1  0  0  0  0
 38 83  2  0  0  0  0
 39 44  1  0  0  0  0
 40 52  1  0  0  0  0
 41 69  1  0  0  0  0
 42 50  1  0  0  0  0
 43 76  1  0  0  0  0
 44 46  1  0  0  0  0
 45 47  1  0  0  0  0
 45 48  1  0  0  0  0
 46 51  1  0  0  0  0
 47 53  1  0  0  0  0
 48 70  1  0  0  0  0
 49 53  1  0  0  0  0
 49 70  1  0  0  0  0
 50 76  1  0  0  0  0
 51 74  1  0  0  0  0
 52 69  1  0  0  0  0
 53 68  1  0  0  0  0
 55 62  1  0  0  0  0
 56 64  1  0  0  0  0
 57 65  1  0  0  0  0
 58 65  1  0  0  0  0
 59 65  1  0  0  0  0
 60 77  1  0  0  0  0
 61 86  1  0  0  0  0
 62 76  1  0  0  0  0
 63 65  1  0  0  0  0
 63 75  1  0  0  0  0
 64 77  1  0  0  0  0
 66 68  1  0  0  0  0
 67 84  1  0  0  0  0
M  CHG  2  76   1  77   1
M  ISO  4  38 100  61 101  73 100  86 101
M  END
> <Batch ID>
0161

> <Smiles>
CNC(C)C(=O)NC(C(=O)N1Cc2cc([101O:1][101CH2:1]C3=C(C(C)=O)CCN(C(C)c4cc([100NH:0][100C:0](=O)N5CCCC(n6nc(-c7ccc(Oc8ccc(F)cc8F)cc7)c(C(N)=O)c6N)C5)on4)C3)ccc2CC1C(=O)NC1CCCc2ccccc21)C(C)(C)C

> <Shape>
0.202

> <Color>
0.182

> <Negative vol penalty>
0.000

$$$$

  -OEChem-04052303533D

 85 94  0     1  0  0  0  0  0999 V2000
  -24.9297  -19.1330   30.6512 C   0  0  0  0  0  0  0  0  0  0  0  0
  -25.8123  -19.7413   29.7645 C   0  0  0  0  0  0  0  0  0  0  0  0
  -26.9632  -12.6288   21.0740 C   0  0  0  0  0  0  0  0  0  0  0  0
  -26.6702  -13.1518   18.7335 C   0  0  0  0  0  0  0  0  0  0  0  0
  -23.6185  -18.8697   30.2573 C   0  0  0  0  0  0  0  0  0  0  0  0
  -25.3844  -20.0857   28.4828 C   0  0  0  0  0  0  0  0  0  0  0  0
  -27.1385  -24.9480   25.1984 C   0  0  0  0  0  0  0  0  0  0  0  0
  -26.3068  -11.4127   20.8844 C   0  0  0  0  0  0  0  0  0  0  0  0
  -26.0139  -11.9357   18.5439 C   0  0  0  0  0  0  0  0  0  0  0  0
  -28.0771  -25.1023   24.1791 C   0  0  0  0  0  0  0  0  0  0  0  0
  -24.3903   -8.3293   21.0909 C   0  0  0  0  0  0  0  0  0  0  0  0
  -23.4283   -7.9565   22.0296 C   0  0  0  0  0  0  0  0  0  0  0  0
  -26.3267  -24.8533   22.5379 C   0  0  0  0  0  0  0  0  0  0  0  0
  -22.1585   -9.9474   21.5189 C   0  0  0  0  0  0  0  0  0  0  0  0
  -30.8128  -22.1761   17.7765 C   0  0  0  0  0  0  0  0  0  0  0  0
  -27.1448  -13.4984   19.9985 C   0  0  0  0  0  0  0  0  0  0  0  0
  -29.2028  -15.0038   20.0764 C   0  0  0  0  0  0  0  0  0  0  0  0
  -23.1715  -19.2198   28.9734 C   0  0  0  0  0  0  0  0  0  0  0  0
  -25.7864  -24.7340   24.8945 C   0  0  0  0  0  0  0  0  0  0  0  0
  -24.0663  -19.8256   28.0709 C   0  0  0  0  0  0  0  0  0  0  0  0
  -25.3726  -24.6992   23.5552 C   0  0  0  0  0  0  0  0  0  0  0  0
  -25.8322  -11.0661   19.6194 C   0  0  0  0  0  0  0  0  0  0  0  0
  -27.6717  -25.0521   22.8486 C   0  0  0  0  0  0  0  0  0  0  0  0
  -24.2364   -9.5111   20.3662 C   0  0  0  0  0  0  0  0  0  0  0  0
  -22.3124   -8.7655   22.2436 C   0  0  0  0  0  0  0  0  0  0  0  0
  -23.1205  -10.3202   20.5802 C   0  0  0  0  0  0  0  0  0  0  0  0
  -27.8222  -14.7550   20.1938 C   0  0  0  0  0  0  0  0  0  0  0  0
  -29.6993  -22.4439   18.5449 C   0  0  0  0  0  0  0  0  0  0  0  0
  -29.3358  -16.3415   20.3578 C   0  0  0  0  0  0  0  0  0  0  0  0
  -30.4242  -24.4978   18.2880 C   0  0  0  0  0  0  0  0  0  0  0  0
  -30.2696  -14.1059   19.7427 C   0  0  0  0  0  0  0  0  0  0  0  0
  -23.7107  -22.3873   25.4319 C   0  0  0  0  0  0  0  0  0  0  0  0
  -21.5993  -24.4856   24.1429 C   0  0  0  0  0  0  0  0  0  0  0  0
  -21.0633  -27.1872   22.1278 C   0  0  0  0  0  0  0  0  0  0  0  0
  -27.6727  -21.6257   19.7979 C   0  0  0  0  0  0  0  0  0  0  0  0
  -21.7586  -18.8722   28.5768 C   0  0  0  0  0  0  0  0  0  0  0  0
  -24.7822  -24.5961   26.0058 C   0  0  0  0  0  0  0  0  0  0  0  0
  -23.9297  -24.4921   23.1761 C   0  0  0  0  0  0  0  0  0  0  0  0
  -21.2775  -19.6085   27.3291 C   0  0  0  0  0  0  0  0  0  0  0  0
  -29.8515  -28.1905   17.2643 C   0  0  0  0  0  0  0  0  0  0  0  0
  -26.0124  -19.6549   22.2547 C   0  0  0  0  0  0  0  0  0  0  0  0
  -29.3554  -28.7232   18.6001 C   0  0  0  0  0  0  0  0  0  0  0  0
  -22.3367  -19.5496   26.2329 C   0  0  0  0  0  0  0  0  0  0  0  0
  -29.7668  -26.6699   17.2221 C   0  0  0  0  0  0  0  0  0  0  0  0
  -26.4488  -18.2249   21.9279 C   0  0  0  0  0  0  0  0  0  0  0  0
  -25.8124  -20.4896   20.9910 C   0  0  0  0  0  0  0  0  0  0  0  0
  -27.3899  -19.0699   19.7399 C   0  0  0  0  0  0  0  0  0  0  0  0
  -30.1173  -28.1042   19.7591 C   0  0  0  0  0  0  0  0  0  0  0  0
  -23.6326  -20.2366   26.6805 C   0  0  1  0  0  0  0  0  0  0  0  0
  -30.5219  -26.0095   18.3901 C   0  0  1  0  0  0  0  0  0  0  0  0
  -23.5114  -23.8696   25.5761 C   0  0  1  0  0  0  0  0  0  0  0  0
  -27.6667  -18.2093   20.9835 C   0  0  2  0  0  0  0  0  0  0  0  0
  -19.2269  -28.6487   21.2394 C   0  0  0  0  0  0  0  0  0  0  0  0
  -29.2645  -27.4137   22.5287 C   0  0  0  0  0  0  0  0  0  0  0  0
  -20.7958  -22.2841   22.1890 C   0  0  0  0  0  0  0  0  0  0  0  0
  -19.7044  -24.0361   20.7722 C   0  0  0  0  0  0  0  0  0  0  0  0
  -18.8875  -23.6242   23.0929 C   0  0  0  0  0  0  0  0  0  0  0  0
  -22.2123  -29.6012   23.3972 C   0  0  0  0  0  0  0  0  0  0  0  0
  -30.6594  -25.9882   20.9267 C   0  0  0  0  0  0  0  0  0  0  0  0
  -21.1066  -24.7855   22.7478 C   0  0  1  0  0  0  0  0  0  0  0  0
  -20.2599  -28.4578   22.3390 C   0  0  2  0  0  0  0  0  0  0  0  0
  -29.7234  -26.0170   22.1306 C   0  0  2  0  0  0  0  0  0  1  0  0
  -20.1511  -23.6845   22.2073 C   0  0  0  0  0  0  0  0  0  0  0  0
  -27.1278  -15.8471   20.5243 N   0  0  0  0  0  0  0  0  0  0  0  0
  -29.4750  -23.7746   18.8396 N   0  0  0  0  0  0  0  0  0  0  0  0
  -28.0759  -16.7950   20.6170 N   0  0  0  0  0  0  0  0  0  0  0  0
  -22.9867  -24.3562   24.2985 N   0  0  0  0  0  0  0  0  0  0  0  0
  -27.0079  -20.4312   20.1471 N   0  0  0  0  0  0  0  0  0  0  0  0
  -30.4064  -17.1624   20.4065 N   0  0  0  0  0  0  0  0  0  0  0  0
  -29.9574  -12.7645   19.4828 N   0  0  0  0  0  0  0  0  0  0  0  0
  -28.8153  -21.4434   19.0196 N   0  0  0  0  0  0  0  0  0  0  0  0
  -23.4971  -21.6750   26.5966 N   0  0  0  0  0  0  0  0  0  0  0  0
  -20.5135  -26.1174   22.8019 N   0  0  0  0  0  0  0  0  0  0  0  0
  -29.9985  -26.5941   19.7105 N   0  3  1  0  0  0  0  0  0  0  0  0
  -21.1610  -29.6448   22.3484 N   0  3  0  0  0  0  0  0  0  0  0  0
  -31.4664  -14.4784   19.6929 O   0  0  0  0  0  0  0  0  0  0  0  0
  -24.0329  -21.9240   24.3442 O   0  0  0  0  0  0  0  0  0  0  0  0
  -20.7838  -24.3775   25.0621 O   0  0  0  0  0  0  0  0  0  0  0  0
  -22.0750  -27.1469   21.4312 O   0  0  0  0  0  0  0  0  0  0  0  0
  -27.2741  -22.7272   20.1850 O   0  0  0  0  0  0  0  0  0  0  0  0
  -25.1919   -9.8794   19.4340 O   0  0  0  0  0  0  0  0  0  0  0  0
  -28.5859  -25.2017   21.8517 O   0  0  0  0  0  0  0  0  0  1  0  0
  -21.3879   -8.4067   23.1440 F   0  0  0  0  0  0  0  0  0  0  0  0
  -22.9666  -11.4562   19.8861 F   0  0  0  0  0  0  0  0  0  0  0  0
  -31.6183  -23.6428   17.4002 S   0  0  0  0  0  0  0  0  0  0  0  0
  1  2  1  0  0  0  0
  1  5  2  0  0  0  0
  2  6  2  0  0  0  0
  3  8  2  0  0  0  0
  3 16  1  0  0  0  0
  4  9  1  0  0  0  0
  4 16  2  0  0  0  0
  5 18  1  0  0  0  0
  6 20  1  0  0  0  0
  7 10  2  0  0  0  0
  7 19  1  0  0  0  0
  8 22  1  0  0  0  0
  9 22  2  0  0  0  0
 10 23  1  0  0  0  0
 11 12  2  0  0  0  0
 11 24  1  0  0  0  0
 12 25  1  0  0  0  0
 13 21  1  0  0  0  0
 13 23  2  0  0  0  0
 14 25  2  0  0  0  0
 14 26  1  0  0  0  0
 15 28  2  0  0  0  0
 15 85  1  0  0  0  0
 16 27  1  0  0  0  0
 17 27  1  0  0  0  0
 17 29  2  0  0  0  0
 17 31  1  0  0  0  0
 18 20  2  0  0  0  0
 18 36  1  0  0  0  0
 19 21  2  0  0  0  0
 19 37  1  0  0  0  0
 20 49  1  0  0  0  0
 21 38  1  0  0  0  0
 22 81  1  0  0  0  0
 23 82  1  0  0  0  0
 24 26  2  0  0  0  0
 24 81  1  0  0  0  0
 25 83  1  0  0  0  0
 26 84  1  0  0  0  0
 27 64  2  0  0  0  0
 28 65  1  0  0  0  0
 28 71  1  0  0  0  0
 29 66  1  0  0  0  0
 29 69  1  0  0  0  0
 30 50  1  0  0  0  0
 30 65  2  0  0  0  0
 30 85  1  0  0  0  0
 31 70  1  0  0  0  0
 31 76  2  0  0  0  0
 32 51  1  0  0  0  0
 32 72  1  0  0  0  0
 32 77  2  0  0  0  0
 33 60  1  0  0  0  0
 33 67  1  0  0  0  0
 33 78  2  0  0  0  0
 34 61  1  0  0  0  0
 34 73  1  0  0  0  0
 34 79  2  0  0  0  0
 35 68  1  0  0  0  0
 35 71  1  0  0  0  0
 35 80  2  0  0  0  0
 36 39  1  0  0  0  0
 37 51  1  0  0  0  0
 38 67  1  0  0  0  0
 39 43  1  0  0  0  0
 40 42  1  0  0  0  0
 40 44  1  0  0  0  0
 41 45  1  0  0  0  0
 41 46  1  0  0  0  0
 42 48  1  0  0  0  0
 43 49  1  0  0  0  0
 44 50  1  0  0  0  0
 45 52  1  0  0  0  0
 46 68  1  0  0  0  0
 47 52  1  0  0  0  0
 47 68  1  0  0  0  0
 48 74  1  0  0  0  0
 49 72  1  0  0  0  0
 50 74  1  0  0  0  0
 51 67  1  0  0  0  0
 52 66  1  0  0  0  0
 53 61  1  0  0  0  0
 54 62  1  0  0  0  0
 55 63  1  0  0  0  0
 56 63  1  0  0  0  0
 57 63  1  0  0  0  0
 58 75  1  0  0  0  0
 59 62  1  0  0  0  0
 59 74  1  0  0  0  0
 60 63  1  0  0  0  0
 60 73  1  0  0  0  0
 61 75  1  0  0  0  0
 62 82  1  0  0  0  0
 64 66  1  0  0  0  0
M  CHG  2  74   1  75   1
M  ISO  4  35 100  62 101  71 100  82 101
M  END
> <Batch ID>
0161

> <Smiles>
CNC(C)C(=O)NC(C(=O)N1Cc2cc([101O:1][101CH:1](C)CN3CCCCC3c3nc([100NH:0][100C:0](=O)N4CCCC(n5nc(-c6ccc(Oc7ccc(F)cc7F)cc6)c(C(N)=O)c5N)C4)cs3)ccc2CC1C(=O)NC1CCCc2ccccc21)C(C)(C)C

> <Shape>
0.210

> <Color>
0.070

> <Negative vol penalty>
0.000

$$$$

  -OEChem-04052303533D

 85 93  0     1  0  0  0  0  0999 V2000
  -28.2588  -37.1879   21.8422 C   0  0  0  0  0  0  0  0  0  0  0  0
  -28.6805  -35.9297   21.4242 C   0  0  0  0  0  0  0  0  0  0  0  0
  -27.5710   -6.9416   18.6225 C   0  0  0  0  0  0  0  0  0  0  0  0
  -26.8346   -8.0292   16.5947 C   0  0  0  0  0  0  0  0  0  0  0  0
  -27.2726  -37.3016   22.8212 C   0  0  0  0  0  0  0  0  0  0  0  0
  -28.1169  -34.7845   21.9859 C   0  0  0  0  0  0  0  0  0  0  0  0
  -27.0242  -29.4578   19.1686 C   0  0  0  0  0  0  0  0  0  0  0  0
  -27.3260   -5.6965   18.0436 C   0  0  0  0  0  0  0  0  0  0  0  0
  -26.5897   -6.7840   16.0157 C   0  0  0  0  0  0  0  0  0  0  0  0
  -27.7288  -28.2554   19.1296 C   0  0  0  0  0  0  0  0  0  0  0  0
  -28.8510   -3.6277   15.8464 C   0  0  0  0  0  0  0  0  0  0  0  0
  -29.8218   -2.6383   16.0020 C   0  0  0  0  0  0  0  0  0  0  0  0
  -26.3425  -27.3924   20.9052 C   0  0  0  0  0  0  0  0  0  0  0  0
  -28.2097   -1.2331   17.1261 C   0  0  0  0  0  0  0  0  0  0  0  0
  -26.4461  -19.5704   20.0986 C   0  0  0  0  0  0  0  0  0  0  0  0
  -27.3252   -8.1081   17.8980 C   0  0  0  0  0  0  0  0  0  0  0  0
  -28.7768  -10.1306   18.4546 C   0  0  0  0  0  0  0  0  0  0  0  0
  -26.6898  -36.1573   23.3882 C   0  0  0  0  0  0  0  0  0  0  0  0
  -25.9787  -29.6407   20.0851 C   0  0  0  0  0  0  0  0  0  0  0  0
  -27.1230  -34.8831   22.9743 C   0  0  0  0  0  0  0  0  0  0  0  0
  -25.6245  -28.5972   20.9520 C   0  0  0  0  0  0  0  0  0  0  0  0
  -28.1163  -18.9524   18.5221 C   0  0  0  0  0  0  0  0  0  0  0  0
  -27.6897  -17.6337   18.6329 C   0  0  0  0  0  0  0  0  0  0  0  0
  -27.4879  -19.9453   19.2656 C   0  0  0  0  0  0  0  0  0  0  0  0
  -26.8355   -5.6176   16.7402 C   0  0  0  0  0  0  0  0  0  0  0  0
  -27.3899  -27.2235   20.0000 C   0  0  0  0  0  0  0  0  0  0  0  0
  -27.5595   -3.4198   16.3308 C   0  0  0  0  0  0  0  0  0  0  0  0
  -29.5012   -1.4410   16.6417 C   0  0  0  0  0  0  0  0  0  0  0  0
  -27.2389   -2.2225   16.9706 C   0  0  0  0  0  0  0  0  0  0  0  0
  -27.5774   -9.3946   18.4957 C   0  0  0  0  0  0  0  0  0  0  0  0
  -26.6391  -17.3622   19.4944 C   0  0  0  0  0  0  0  0  0  0  0  0
  -28.5030  -11.2732   19.1659 C   0  0  0  0  0  0  0  0  0  0  0  0
  -30.0266   -9.8101   17.8294 C   0  0  0  0  0  0  0  0  0  0  0  0
  -25.4429  -31.6252   22.5097 C   0  0  0  0  0  0  0  0  0  0  0  0
  -27.9251  -23.6560   19.6138 C   0  0  0  0  0  0  0  0  0  0  0  0
  -22.5277  -30.2025   22.5207 C   0  0  0  0  0  0  0  0  0  0  0  0
  -20.6298  -27.4793   21.7276 C   0  0  0  0  0  0  0  0  0  0  0  0
  -25.1604  -15.5456   20.4216 C   0  0  0  0  0  0  0  0  0  0  0  0
  -25.6609  -36.3304   24.4772 C   0  0  0  0  0  0  0  0  0  0  0  0
  -25.2109  -30.9341   20.0962 C   0  0  0  0  0  0  0  0  0  0  0  0
  -24.4970  -28.7359   21.9409 C   0  0  0  0  0  0  0  0  0  0  0  0
  -24.8479  -35.0682   24.7532 C   0  0  0  0  0  0  0  0  0  0  0  0
  -24.5492  -12.4625   22.0943 C   0  0  0  0  0  0  0  0  0  0  0  0
  -25.7656  -33.8541   24.8570 C   0  0  0  0  0  0  0  0  0  0  0  0
  -25.3812  -11.4500   21.3038 C   0  0  0  0  0  0  0  0  0  0  0  0
  -23.9333  -13.5239   21.1845 C   0  0  0  0  0  0  0  0  0  0  0  0
  -25.7165  -13.2037   19.5152 C   0  0  0  0  0  0  0  0  0  0  0  0
  -26.5181  -33.6174   23.5420 C   0  0  1  0  0  0  0  0  0  0  0  0
  -24.5007  -31.1959   21.4208 C   0  0  1  0  0  0  0  0  0  0  0  0
  -26.4104  -12.1523   20.3965 C   0  0  2  0  0  0  0  0  0  0  0  0
  -29.2471  -19.3016   17.6069 C   0  0  0  0  0  0  0  0  0  0  0  0
  -29.3032  -15.7154   18.6913 C   0  0  0  0  0  0  0  0  0  0  0  0
  -18.2877  -26.5941   21.8952 C   0  0  0  0  0  0  0  0  0  0  0  0
  -22.9640  -29.6157   25.4830 C   0  0  0  0  0  0  0  0  0  0  0  0
  -21.0975  -27.9519   25.3569 C   0  0  0  0  0  0  0  0  0  0  0  0
  -20.6503  -30.3626   24.8973 C   0  0  0  0  0  0  0  0  0  0  0  0
  -20.3670  -27.2900   18.7858 C   0  0  0  0  0  0  0  0  0  0  0  0
  -28.3500  -16.5516   17.8429 C   0  0  0  0  0  0  0  0  0  0  0  0
  -27.2541  -22.3375   19.9351 C   0  0  0  0  0  0  0  0  0  0  0  0
  -27.3634  -24.8685   20.3304 C   0  0  0  0  0  0  0  0  0  1  0  0
  -21.9305  -28.9940   23.2002 C   0  0  1  0  0  0  0  0  0  0  0  0
  -19.2842  -27.3563   21.0357 C   0  0  2  0  0  0  0  0  0  0  0  0
  -21.6831  -29.2288   24.7172 C   0  0  0  0  0  0  0  0  0  0  0  0
  -26.0039  -18.2999   20.2327 N   0  0  0  0  0  0  0  0  0  0  0  0
  -26.6135  -10.0173   19.1791 N   0  0  0  0  0  0  0  0  0  0  0  0
  -27.2069  -11.1566   19.5741 N   0  0  0  0  0  0  0  0  0  0  0  0
  -23.7804  -30.0218   21.9176 N   0  0  0  0  0  0  0  0  0  0  0  0
  -24.9679  -14.1493   20.3579 N   0  0  0  0  0  0  0  0  0  0  0  0
  -29.2469  -12.3563   19.4758 N   0  0  0  0  0  0  0  0  0  0  0  0
  -30.1361   -8.5953   17.1390 N   0  0  0  0  0  0  0  0  0  0  0  0
  -27.8761  -21.2751   19.1871 N   0  0  0  0  0  0  0  0  0  0  0  0
  -26.1938  -16.0225   19.6160 N   0  0  0  0  0  0  0  0  0  0  0  0
  -25.6500  -32.9901   22.5687 N   0  0  0  0  0  0  0  0  0  0  0  0
  -20.7299  -28.6527   22.4449 N   0  0  0  0  0  0  0  0  0  0  0  0
  -19.4325  -26.6374   19.7387 N   0  3  0  0  0  0  0  0  0  0  0  0
  -31.0219  -10.5707   17.8953 O   0  0  0  0  0  0  0  0  0  0  0  0
  -25.9436  -30.7807   23.2430 O   0  0  0  0  0  0  0  0  0  0  0  0
  -28.8646  -23.7495   18.8250 O   0  0  0  0  0  0  0  0  0  0  0  0
  -21.9024  -31.2658   22.5188 O   0  0  0  0  0  0  0  0  0  0  0  0
  -21.5033  -26.6188   21.6435 O   0  0  0  0  0  0  0  0  0  0  0  0
  -24.4779  -16.2618   21.1587 O   0  0  0  0  0  0  0  0  0  0  0  0
  -26.5966   -4.4027   16.1749 O   0  0  0  0  0  0  0  0  0  0  0  0
  -28.0765  -26.0492   19.9646 O   0  0  0  0  0  0  0  0  0  1  0  0
  -30.4332   -0.4904   16.7896 F   0  0  0  0  0  0  0  0  0  0  0  0
  -25.9996   -2.0166   17.4370 F   0  0  0  0  0  0  0  0  0  0  0  0
  1  2  1  0  0  0  0
  1  5  2  0  0  0  0
  2  6  2  0  0  0  0
  3  8  2  0  0  0  0
  3 16  1  0  0  0  0
  4  9  1  0  0  0  0
  4 16  2  0  0  0  0
  5 18  1  0  0  0  0
  6 20  1  0  0  0  0
  7 10  2  0  0  0  0
  7 19  1  0  0  0  0
  8 25  1  0  0  0  0
  9 25  2  0  0  0  0
 10 26  1  0  0  0  0
 11 12  2  0  0  0  0
 11 27  1  0  0  0  0
 12 28  1  0  0  0  0
 13 21  1  0  0  0  0
 13 26  2  0  0  0  0
 14 28  2  0  0  0  0
 14 29  1  0  0  0  0
 15 24  2  0  0  0  0
 15 64  1  0  0  0  0
 16 30  1  0  0  0  0
 17 30  1  0  0  0  0
 17 32  2  0  0  0  0
 17 33  1  0  0  0  0
 18 20  2  0  0  0  0
 18 39  1  0  0  0  0
 19 21  2  0  0  0  0
 19 40  1  0  0  0  0
 20 48  1  0  0  0  0
 21 41  1  0  0  0  0
 22 23  2  0  0  0  0
 22 24  1  0  0  0  0
 22 51  1  0  0  0  0
 23 31  1  0  0  0  0
 23 58  1  0  0  0  0
 24 71  1  0  0  0  0
 25 82  1  0  0  0  0
 26 83  1  0  0  0  0
 27 29  2  0  0  0  0
 27 82  1  0  0  0  0
 28 84  1  0  0  0  0
 29 85  1  0  0  0  0
 30 65  2  0  0  0  0
 31 64  2  0  0  0  0
 31 72  1  0  0  0  0
 32 66  1  0  0  0  0
 32 69  1  0  0  0  0
 33 70  1  0  0  0  0
 33 76  2  0  0  0  0
 34 49  1  0  0  0  0
 34 73  1  0  0  0  0
 34 77  2  0  0  0  0
 35 59  1  0  0  0  0
 35 60  1  0  0  0  0
 35 78  2  0  0  0  0
 36 61  1  0  0  0  0
 36 67  1  0  0  0  0
 36 79  2  0  0  0  0
 37 62  1  0  0  0  0
 37 74  1  0  0  0  0
 37 80  2  0  0  0  0
 38 68  1  0  0  0  0
 38 72  1  0  0  0  0
 38 81  2  0  0  0  0
 39 42  1  0  0  0  0
 40 49  1  0  0  0  0
 41 67  1  0  0  0  0
 42 44  1  0  0  0  0
 43 45  1  0  0  0  0
 43 46  1  0  0  0  0
 44 48  1  0  0  0  0
 45 50  1  0  0  0  0
 46 68  1  0  0  0  0
 47 50  1  0  0  0  0
 47 68  1  0  0  0  0
 48 73  1  0  0  0  0
 49 67  1  0  0  0  0
 50 66  1  0  0  0  0
 52 58  1  0  0  0  0
 53 62  1  0  0  0  0
 54 63  1  0  0  0  0
 55 63  1  0  0  0  0
 56 63  1  0  0  0  0
 57 75  1  0  0  0  0
 59 71  1  0  0  0  0
 60 83  1  0  0  0  0
 61 63  1  0  0  0  0
 61 74  1  0  0  0  0
 62 75  1  0  0  0  0
 65 66  1  0  0  0  0
M  CHG  1  75   1
M  ISO  4  38 100  60 101  72 100  83 101
M  END
> <Batch ID>
0161

> <Smiles>
CCc1c([100NH:0][100C:0](=O)N2CCCC(n3nc(-c4ccc(Oc5ccc(F)cc5F)cc4)c(C(N)=O)c3N)C2)ncc(NCC(=O)[101CH2:1][101O:1]c2ccc3c(c2)CN(C(=O)C(NC(=O)C(C)NC)C(C)(C)C)C(C(=O)NC2CCCc4ccccc42)C3)c1C

> <Shape>
0.257

> <Color>
0.079

> <Negative vol penalty>
0.000

$$$$

  -OEChem-04052303533D

 86 95  0     1  0  0  0  0  0999 V2000
  -31.9450  -25.8156   19.5522 C   0  0  0  0  0  0  0  0  0  0  0  0
  -30.6699  -25.6416   19.0237 C   0  0  0  0  0  0  0  0  0  0  0  0
  -27.1414  -15.6749   21.7680 C   0  0  0  0  0  0  0  0  0  0  0  0
  -25.0577  -15.9753   20.5827 C   0  0  0  0  0  0  0  0  0  0  0  0
  -32.0999  -26.2865   20.8553 C   0  0  0  0  0  0  0  0  0  0  0  0
  -29.5490  -25.9373   19.7985 C   0  0  0  0  0  0  0  0  0  0  0  0
  -22.8529  -28.4144   19.2127 C   0  0  0  0  0  0  0  0  0  0  0  0
  -27.1138  -14.3122   21.4713 C   0  0  0  0  0  0  0  0  0  0  0  0
  -25.0301  -14.6126   20.2860 C   0  0  0  0  0  0  0  0  0  0  0  0
  -21.5469  -28.0835   19.5713 C   0  0  0  0  0  0  0  0  0  0  0  0
  -26.4989  -12.5151   18.0807 C   0  0  0  0  0  0  0  0  0  0  0  0
  -26.1753  -12.1440   16.7756 C   0  0  0  0  0  0  0  0  0  0  0  0
  -21.9369  -28.9659   21.7823 C   0  0  0  0  0  0  0  0  0  0  0  0
  -24.2712  -10.9062   17.5998 C   0  0  0  0  0  0  0  0  0  0  0  0
  -19.8741  -22.5761   19.6905 C   0  0  0  0  0  0  0  0  0  0  0  0
  -26.1133  -16.5064   21.3238 C   0  0  0  0  0  0  0  0  0  0  0  0
  -27.1328  -18.8441   21.2658 C   0  0  0  0  0  0  0  0  0  0  0  0
  -30.9804  -26.5973   21.6432 C   0  0  0  0  0  0  0  0  0  0  0  0
  -23.7156  -29.0146   20.1411 C   0  0  0  0  0  0  0  0  0  0  0  0
  -29.6890  -26.4115   21.1139 C   0  0  0  0  0  0  0  0  0  0  0  0
  -23.2525  -29.3057   21.4322 C   0  0  0  0  0  0  0  0  0  0  0  0
  -26.0581  -13.7811   20.7303 C   0  0  0  0  0  0  0  0  0  0  0  0
  -21.0896  -28.3566   20.8571 C   0  0  0  0  0  0  0  0  0  0  0  0
  -25.7088  -12.0816   19.1453 C   0  0  0  0  0  0  0  0  0  0  0  0
  -25.0614  -11.3396   16.5352 C   0  0  0  0  0  0  0  0  0  0  0  0
  -24.5949  -11.2772   18.9049 C   0  0  0  0  0  0  0  0  0  0  0  0
  -26.1410  -17.9140   21.6305 C   0  0  0  0  0  0  0  0  0  0  0  0
  -26.6969  -20.0352   21.7928 C   0  0  0  0  0  0  0  0  0  0  0  0
  -20.1584  -22.6356   21.0323 C   0  0  0  0  0  0  0  0  0  0  0  0
  -18.5614  -23.9754   20.5518 C   0  0  0  0  0  0  0  0  0  0  0  0
  -28.3401  -18.6489   20.5175 C   0  0  0  0  0  0  0  0  0  0  0  0
  -18.2035  -26.2359   21.4573 C   0  0  0  0  0  0  0  0  0  0  0  0
  -26.4789  -28.2029   21.4861 C   0  0  0  0  0  0  0  0  0  0  0  0
  -26.3181  -31.2030   22.7091 C   0  0  0  0  0  0  0  0  0  0  0  0
  -24.3819  -33.8674   23.6033 C   0  0  0  0  0  0  0  0  0  0  0  0
  -21.2867  -22.1280   23.2267 C   0  0  0  0  0  0  0  0  0  0  0  0
  -31.1972  -27.0585   23.0627 C   0  0  0  0  0  0  0  0  0  0  0  0
  -25.1131  -29.3896   19.7304 C   0  0  0  0  0  0  0  0  0  0  0  0
  -24.1326  -29.9674   22.4598 C   0  0  0  0  0  0  0  0  0  0  0  0
  -29.9636  -27.7044   23.6883 C   0  0  0  0  0  0  0  0  0  0  0  0
  -24.0888  -21.8032   25.3993 C   0  0  0  0  0  0  0  0  0  0  0  0
  -28.7233  -26.8582   23.4190 C   0  0  0  0  0  0  0  0  0  0  0  0
  -25.0260  -20.8585   24.6434 C   0  0  0  0  0  0  0  0  0  0  0  0
  -16.4520  -24.5607   21.9396 C   0  0  0  0  0  0  0  0  0  0  0  0
  -16.7355  -25.4434   19.5880 C   0  0  0  0  0  0  0  0  0  0  0  0
  -22.6219  -21.4253   25.2011 C   0  0  0  0  0  0  0  0  0  0  0  0
  -23.1355  -20.3490   23.0454 C   0  0  0  0  0  0  0  0  0  0  0  0
  -15.3109  -25.5465   22.1573 C   0  0  0  0  0  0  0  0  0  0  0  0
  -28.4489  -26.7448   21.9146 C   0  0  1  0  0  0  0  0  0  0  0  0
  -26.0663  -29.5293   20.9134 C   0  0  1  0  0  0  0  0  0  0  0  0
  -24.6207  -20.7287   23.1620 C   0  0  2  0  0  0  0  0  0  0  0  0
  -15.5707  -26.4118   19.8279 C   0  0  1  0  0  0  0  0  0  0  0  0
  -17.4880  -25.0284   20.8825 C   0  0  2  0  0  0  0  0  0  0  0  0
  -14.7713  -26.6663   18.5569 C   0  0  0  0  0  0  0  0  0  0  0  0
  -24.5311  -36.1611   24.6102 C   0  0  0  0  0  0  0  0  0  0  0  0
  -26.7030  -29.9632   25.4704 C   0  0  0  0  0  0  0  0  0  0  0  0
  -25.9043  -32.1147   26.4711 C   0  0  0  0  0  0  0  0  0  0  0  0
  -27.9810  -32.0789   25.0895 C   0  0  0  0  0  0  0  0  0  0  0  0
  -23.2725  -35.1343   21.1696 C   0  0  0  0  0  0  0  0  0  0  0  0
  -19.2271  -26.9076   20.5609 C   0  0  0  0  0  0  0  0  0  1  0  0
  -25.7350  -31.8185   23.9582 C   0  0  1  0  0  0  0  0  0  0  0  0
  -24.5206  -35.3527   23.3221 C   0  0  2  0  0  0  0  0  0  0  0  0
  -26.5646  -31.4796   25.2288 C   0  0  0  0  0  0  0  0  0  0  0  0
  -18.8497  -23.4366   19.3887 N   0  0  0  0  0  0  0  0  0  0  0  0
  -25.1498  -18.4666   22.3349 N   0  0  0  0  0  0  0  0  0  0  0  0
  -25.5166  -19.7569   22.4171 N   0  0  0  0  0  0  0  0  0  0  0  0
  -25.4929  -30.3091   22.0122 N   0  0  0  0  0  0  0  0  0  0  0  0
  -22.3098  -21.3249   23.7738 N   0  0  0  0  0  0  0  0  0  0  0  0
  -27.2119  -21.2830   21.7786 N   0  0  0  0  0  0  0  0  0  0  0  0
  -28.2943  -18.7974   19.1246 N   0  0  0  0  0  0  0  0  0  0  0  0
  -21.1020  -21.9702   21.8535 N   0  0  0  0  0  0  0  0  0  0  0  0
  -27.8374  -27.9594   21.4194 N   0  0  0  0  0  0  0  0  0  0  0  0
  -25.6104  -33.2471   23.6894 N   0  0  0  0  0  0  0  0  0  0  0  0
  -14.6518  -25.8251   20.8515 N   0  3  0  0  0  0  0  0  0  0  0  0
  -23.3880  -35.8280   22.4782 N   0  3  0  0  0  0  0  0  0  0  0  0
  -29.4238  -18.3355   21.0662 O   0  0  0  0  0  0  0  0  0  0  0  0
  -17.9788  -26.6658   22.5945 O   0  0  0  0  0  0  0  0  0  0  0  0
  -25.6279  -27.4564   21.9553 O   0  0  0  0  0  0  0  0  0  0  0  0
  -27.4610  -31.5097   22.3607 O   0  0  0  0  0  0  0  0  0  0  0  0
  -23.2930  -33.3135   23.7370 O   0  0  0  0  0  0  0  0  0  0  0  0
  -20.6417  -22.9188   23.9199 O   0  0  0  0  0  0  0  0  0  0  0  0
  -19.3128  -23.5401   21.6001 O   0  0  0  0  0  0  0  0  0  0  0  0
  -26.0310  -12.4515   20.4403 O   0  0  0  0  0  0  0  0  0  0  0  0
  -19.8154  -28.0341   21.2099 O   0  0  0  0  0  0  0  0  0  1  0  0
  -24.7498  -10.9846   15.2818 F   0  0  0  0  0  0  0  0  0  0  0  0
  -23.8313  -10.8587   19.9236 F   0  0  0  0  0  0  0  0  0  0  0  0
  1  2  1  0  0  0  0
  1  5  2  0  0  0  0
  2  6  2  0  0  0  0
  3  8  2  0  0  0  0
  3 16  1  0  0  0  0
  4  9  1  0  0  0  0
  4 16  2  0  0  0  0
  5 18  1  0  0  0  0
  6 20  1  0  0  0  0
  7 10  2  0  0  0  0
  7 19  1  0  0  0  0
  8 22  1  0  0  0  0
  9 22  2  0  0  0  0
 10 23  1  0  0  0  0
 11 12  2  0  0  0  0
 11 24  1  0  0  0  0
 12 25  1  0  0  0  0
 13 21  1  0  0  0  0
 13 23  2  0  0  0  0
 14 25  2  0  0  0  0
 14 26  1  0  0  0  0
 15 29  2  0  0  0  0
 15 64  1  0  0  0  0
 16 27  1  0  0  0  0
 17 27  1  0  0  0  0
 17 28  2  0  0  0  0
 17 31  1  0  0  0  0
 18 20  2  0  0  0  0
 18 37  1  0  0  0  0
 19 21  2  0  0  0  0
 19 38  1  0  0  0  0
 20 49  1  0  0  0  0
 21 39  1  0  0  0  0
 22 83  1  0  0  0  0
 23 84  1  0  0  0  0
 24 26  2  0  0  0  0
 24 83  1  0  0  0  0
 25 85  1  0  0  0  0
 26 86  1  0  0  0  0
 27 65  2  0  0  0  0
 28 66  1  0  0  0  0
 28 69  1  0  0  0  0
 29 71  1  0  0  0  0
 29 82  1  0  0  0  0
 30 53  1  0  0  0  0
 30 64  2  0  0  0  0
 30 82  1  0  0  0  0
 31 70  1  0  0  0  0
 31 76  2  0  0  0  0
 32 53  1  0  0  0  0
 32 60  1  0  0  0  0
 32 77  2  0  0  0  0
 33 50  1  0  0  0  0
 33 72  1  0  0  0  0
 33 78  2  0  0  0  0
 34 61  1  0  0  0  0
 34 67  1  0  0  0  0
 34 79  2  0  0  0  0
 35 62  1  0  0  0  0
 35 73  1  0  0  0  0
 35 80  2  0  0  0  0
 36 68  1  0  0  0  0
 36 71  1  0  0  0  0
 36 81  2  0  0  0  0
 37 40  1  0  0  0  0
 38 50  1  0  0  0  0
 39 67  1  0  0  0  0
 40 42  1  0  0  0  0
 41 43  1  0  0  0  0
 41 46  1  0  0  0  0
 42 49  1  0  0  0  0
 43 51  1  0  0  0  0
 44 48  1  0  0  0  0
 44 53  1  0  0  0  0
 45 52  1  0  0  0  0
 45 53  1  0  0  0  0
 46 68  1  0  0  0  0
 47 51  1  0  0  0  0
 47 68  1  0  0  0  0
 48 74  1  0  0  0  0
 49 72  1  0  0  0  0
 50 67  1  0  0  0  0
 51 66  1  0  0  0  0
 52 54  1  0  0  0  0
 52 74  1  0  0  0  0
 55 62  1  0  0  0  0
 56 63  1  0  0  0  0
 57 63  1  0  0  0  0
 58 63  1  0  0  0  0
 59 75  1  0  0  0  0
 60 84  1  0  0  0  0
 61 63  1  0  0  0  0
 61 73  1  0  0  0  0
 62 75  1  0  0  0  0
 65 66  1  0  0  0  0
M  CHG  2  74   1  75   1
M  ISO  4  36 100  60 101  71 100  84 101
M  END
> <Batch ID>
0161

> <Smiles>
CNC(C)C(=O)NC(C(=O)N1Cc2cc([101O:1][101CH2:1]C(=O)C3(c4ncc([100NH:0][100C:0](=O)N5CCCC(n6nc(-c7ccc(Oc8ccc(F)cc8F)cc7)c(C(N)=O)c6N)C5)o4)CCNC(C)C3)ccc2CC1C(=O)NC1CCCc2ccccc21)C(C)(C)C

> <Shape>
0.248

> <Color>
0.054

> <Negative vol penalty>
0.000

$$$$

  -OEChem-04052303533D

 83 91  0     1  0  0  0  0  0999 V2000
  -36.5688  -30.3892   25.3116 C   0  0  0  0  0  0  0  0  0  0  0  0
  -36.4401  -29.1061   25.8336 C   0  0  0  0  0  0  0  0  0  0  0  0
  -23.1619   -9.8528   19.9846 C   0  0  0  0  0  0  0  0  0  0  0  0
  -23.8368   -9.9831   22.3008 C   0  0  0  0  0  0  0  0  0  0  0  0
  -35.5281  -30.9463   24.5696 C   0  0  0  0  0  0  0  0  0  0  0  0
  -35.2700  -28.3798   25.6148 C   0  0  0  0  0  0  0  0  0  0  0  0
  -36.1832  -23.5769   24.2943 C   0  0  0  0  0  0  0  0  0  0  0  0
  -22.4545   -8.6818   20.2566 C   0  0  0  0  0  0  0  0  0  0  0  0
  -23.1293   -8.8121   22.5728 C   0  0  0  0  0  0  0  0  0  0  0  0
  -36.5335  -22.6921   25.3131 C   0  0  0  0  0  0  0  0  0  0  0  0
  -23.5686   -5.4847   22.1657 C   0  0  0  0  0  0  0  0  0  0  0  0
  -24.1966   -4.5148   22.9471 C   0  0  0  0  0  0  0  0  0  0  0  0
  -34.2696  -21.8601   25.3606 C   0  0  0  0  0  0  0  0  0  0  0  0
  -32.4473  -15.9224   22.9069 C   0  0  0  0  0  0  0  0  0  0  0  0
  -22.4286   -4.6890   24.5844 C   0  0  0  0  0  0  0  0  0  0  0  0
  -30.5552  -15.9211   24.2568 C   0  0  0  0  0  0  0  0  0  0  0  0
  -23.8531  -10.5034   21.0067 C   0  0  0  0  0  0  0  0  0  0  0  0
  -24.1012  -13.0333   20.7929 C   0  0  0  0  0  0  0  0  0  0  0  0
  -34.3486  -30.2227   24.3335 C   0  0  0  0  0  0  0  0  0  0  0  0
  -34.8687  -23.6177   23.8077 C   0  0  0  0  0  0  0  0  0  0  0  0
  -34.2120  -28.9283   24.8701 C   0  0  0  0  0  0  0  0  0  0  0  0
  -33.9059  -22.7446   24.3338 C   0  0  0  0  0  0  0  0  0  0  0  0
  -31.1189  -15.4425   23.0946 C   0  0  0  0  0  0  0  0  0  0  0  0
  -22.4382   -8.1615   21.5507 C   0  0  0  0  0  0  0  0  0  0  0  0
  -35.5760  -21.8355   25.8485 C   0  0  0  0  0  0  0  0  0  0  0  0
  -22.3706   -6.0568   22.5937 C   0  0  0  0  0  0  0  0  0  0  0  0
  -23.6267   -4.1170   24.1564 C   0  0  0  0  0  0  0  0  0  0  0  0
  -21.8006   -5.6589   23.8031 C   0  0  0  0  0  0  0  0  0  0  0  0
  -24.5844  -11.7128   20.7262 C   0  0  0  0  0  0  0  0  0  0  0  0
  -32.8482  -16.7499   23.9328 C   0  0  0  0  0  0  0  0  0  0  0  0
  -25.1761  -13.8107   20.4368 C   0  0  0  0  0  0  0  0  0  0  0  0
  -22.7973  -13.5143   21.1452 C   0  0  0  0  0  0  0  0  0  0  0  0
  -34.1470  -17.4475   24.1131 C   0  0  0  0  0  0  0  0  0  0  0  0
  -32.5824  -25.8237   23.7044 C   0  0  0  0  0  0  0  0  0  0  0  0
  -31.0347  -23.5780   21.9483 C   0  0  0  0  0  0  0  0  0  0  0  0
  -30.6509  -20.2824   21.1494 C   0  0  0  0  0  0  0  0  0  0  0  0
  -35.3838  -18.9807   25.6029 C   0  0  0  0  0  0  0  0  0  0  0  0
  -30.9187  -14.0408   21.0110 C   0  0  0  0  0  0  0  0  0  0  0  0
  -33.2321  -30.8849   23.5655 C   0  0  0  0  0  0  0  0  0  0  0  0
  -34.5133  -24.5593   22.6899 C   0  0  0  0  0  0  0  0  0  0  0  0
  -32.4857  -22.7349   23.8323 C   0  0  0  0  0  0  0  0  0  0  0  0
  -32.1747  -29.9057   23.0623 C   0  0  0  0  0  0  0  0  0  0  0  0
  -29.3878  -13.0122   17.9654 C   0  0  0  0  0  0  0  0  0  0  0  0
  -31.7713  -28.9392   24.1712 C   0  0  0  0  0  0  0  0  0  0  0  0
  -27.9455  -12.7010   18.3717 C   0  0  0  0  0  0  0  0  0  0  0  0
  -30.3827  -12.6087   19.0522 C   0  0  0  0  0  0  0  0  0  0  0  0
  -28.6551  -12.8389   20.7933 C   0  0  0  0  0  0  0  0  0  0  0  0
  -32.9682  -28.0994   24.6335 C   0  0  1  0  0  0  0  0  0  0  0  0
  -33.0220  -24.8747   22.6256 C   0  0  1  0  0  0  0  0  0  0  0  0
  -27.6113  -13.2873   19.7574 C   0  0  2  0  0  0  0  0  0  0  0  0
  -29.2802  -18.7512   19.7092 C   0  0  0  0  0  0  0  0  0  0  0  0
  -35.7233  -18.9425   28.0898 C   0  0  0  0  0  0  0  0  0  0  0  0
  -28.6911  -23.8615   23.8815 C   0  0  0  0  0  0  0  0  0  0  0  0
  -27.7879  -21.7019   22.9937 C   0  0  0  0  0  0  0  0  0  0  0  0
  -28.0403  -23.6646   21.4749 C   0  0  0  0  0  0  0  0  0  0  0  0
  -33.0378  -19.3471   19.6706 C   0  0  0  0  0  0  0  0  0  0  0  0
  -30.1031  -22.4318   22.2604 C   0  0  1  0  0  0  0  0  0  0  0  0
  -30.5544  -19.5753   19.8095 C   0  0  2  0  0  0  0  0  0  0  0  0
  -35.1947  -19.7411   26.9087 C   0  0  1  0  0  0  0  0  0  1  0  0
  -28.6818  -22.9162   22.6636 C   0  0  0  0  0  0  0  0  0  0  0  0
  -25.8665  -11.6509   20.3567 N   0  0  0  0  0  0  0  0  0  0  0  0
  -26.1979  -12.9423   20.1879 N   0  0  0  0  0  0  0  0  0  0  0  0
  -32.1858  -23.6783   22.7425 N   0  0  0  0  0  0  0  0  0  0  0  0
  -30.0049  -13.2043   20.3357 N   0  0  0  0  0  0  0  0  0  0  0  0
  -25.3374  -15.1455   20.3154 N   0  0  0  0  0  0  0  0  0  0  0  0
  -21.8096  -12.5797   21.4848 N   0  0  0  0  0  0  0  0  0  0  0  0
  -30.4368  -14.5756   22.2053 N   0  0  0  0  0  0  0  0  0  0  0  0
  -34.2600  -18.2248   25.2645 N   0  0  0  0  0  0  0  0  0  0  0  0
  -33.2384  -27.0398   23.6855 N   0  0  0  0  0  0  0  0  0  0  0  0
  -30.1274  -21.5567   21.0933 N   0  0  0  0  0  0  0  0  0  0  0  0
  -31.7190  -18.6652   19.6191 N   0  3  0  0  0  0  0  0  0  0  0  0
  -22.5117  -14.7358   21.1427 O   0  0  0  0  0  0  0  0  0  0  0  0
  -35.0147  -17.3271   23.2526 O   0  0  0  0  0  0  0  0  0  0  0  0
  -31.7115  -25.4788   24.4944 O   0  0  0  0  0  0  0  0  0  0  0  0
  -30.7551  -24.3515   21.0290 O   0  0  0  0  0  0  0  0  0  0  0  0
  -31.1383  -19.7554   22.1470 O   0  0  0  0  0  0  0  0  0  0  0  0
  -36.4134  -19.0605   24.9368 O   0  0  0  0  0  0  0  0  0  0  0  0
  -32.0357  -14.2879   20.5493 O   0  0  0  0  0  0  0  0  0  0  0  0
  -21.7479   -7.0190   21.8165 O   0  0  0  0  0  0  0  0  0  0  0  0
  -35.9150  -20.9712   26.8434 O   0  0  0  0  0  0  0  0  0  1  0  0
  -24.2291   -3.1845   24.9059 F   0  0  0  0  0  0  0  0  0  0  0  0
  -20.6492   -6.2041   24.2189 F   0  0  0  0  0  0  0  0  0  0  0  0
  -31.6258  -16.9450   25.1159 S   0  0  0  0  0  0  0  0  0  0  0  0
  1  2  1  0  0  0  0
  1  5  2  0  0  0  0
  2  6  2  0  0  0  0
  3  8  2  0  0  0  0
  3 17  1  0  0  0  0
  4  9  1  0  0  0  0
  4 17  2  0  0  0  0
  5 19  1  0  0  0  0
  6 21  1  0  0  0  0
  7 10  2  0  0  0  0
  7 20  1  0  0  0  0
  8 24  1  0  0  0  0
  9 24  2  0  0  0  0
 10 25  1  0  0  0  0
 11 12  2  0  0  0  0
 11 26  1  0  0  0  0
 12 27  1  0  0  0  0
 13 22  1  0  0  0  0
 13 25  2  0  0  0  0
 14 23  1  0  0  0  0
 14 30  2  0  0  0  0
 15 27  2  0  0  0  0
 15 28  1  0  0  0  0
 16 23  2  0  0  0  0
 16 83  1  0  0  0  0
 17 29  1  0  0  0  0
 18 29  1  0  0  0  0
 18 31  2  0  0  0  0
 18 32  1  0  0  0  0
 19 21  2  0  0  0  0
 19 39  1  0  0  0  0
 20 22  2  0  0  0  0
 20 40  1  0  0  0  0
 21 48  1  0  0  0  0
 22 41  1  0  0  0  0
 23 67  1  0  0  0  0
 24 79  1  0  0  0  0
 25 80  1  0  0  0  0
 26 28  2  0  0  0  0
 26 79  1  0  0  0  0
 27 81  1  0  0  0  0
 28 82  1  0  0  0  0
 29 61  2  0  0  0  0
 30 33  1  0  0  0  0
 30 83  1  0  0  0  0
 31 62  1  0  0  0  0
 31 65  1  0  0  0  0
 32 66  1  0  0  0  0
 32 72  2  0  0  0  0
 33 68  1  0  0  0  0
 33 73  2  0  0  0  0
 34 49  1  0  0  0  0
 34 69  1  0  0  0  0
 34 74  2  0  0  0  0
 35 57  1  0  0  0  0
 35 63  1  0  0  0  0
 35 75  2  0  0  0  0
 36 58  1  0  0  0  0
 36 70  1  0  0  0  0
 36 76  2  0  0  0  0
 37 59  1  0  0  0  0
 37 68  1  0  0  0  0
 37 77  2  0  0  0  0
 38 64  1  0  0  0  0
 38 67  1  0  0  0  0
 38 78  2  0  0  0  0
 39 42  1  0  0  0  0
 40 49  1  0  0  0  0
 41 63  1  0  0  0  0
 42 44  1  0  0  0  0
 43 45  1  0  0  0  0
 43 46  1  0  0  0  0
 44 48  1  0  0  0  0
 45 50  1  0  0  0  0
 46 64  1  0  0  0  0
 47 50  1  0  0  0  0
 47 64  1  0  0  0  0
 48 69  1  0  0  0  0
 49 63  1  0  0  0  0
 50 62  1  0  0  0  0
 51 58  1  0  0  0  0
 52 59  1  0  0  0  0
 53 60  1  0  0  0  0
 54 60  1  0  0  0  0
 55 60  1  0  0  0  0
 56 71  1  0  0  0  0
 57 60  1  0  0  0  0
 57 70  1  0  0  0  0
 58 71  1  0  0  0  0
 59 80  1  0  0  0  0
 61 62  1  0  0  0  0
M  CHG  1  71   1
M  ISO  4  38 100  59 101  67 100  80 101
M  END
> <Batch ID>
0161

> <Smiles>
CNC(C)C(=O)NC(C(=O)N1Cc2cc([101O:1][101CH:1](C)C(=O)NC(=O)c3cc([100NH:0][100C:0](=O)N4CCCC(n5nc(-c6ccc(Oc7ccc(F)cc7F)cc6)c(C(N)=O)c5N)C4)cs3)ccc2CC1C(=O)NC1CCCc2ccccc21)C(C)(C)C

> <Shape>
0.187

> <Color>
0.185

> <Negative vol penalty>
0.000

$$$$

  -OEChem-04052303533D

 85 93  0     1  0  0  0  0  0999 V2000
  -28.2980  -24.2936   17.6147 C   0  0  0  0  0  0  0  0  0  0  0  0
  -27.0676  -24.5831   18.1959 C   0  0  0  0  0  0  0  0  0  0  0  0
  -29.5241  -14.4846   21.7680 C   0  0  0  0  0  0  0  0  0  0  0  0
  -27.6936  -14.4199   20.1926 C   0  0  0  0  0  0  0  0  0  0  0  0
  -29.4695  -24.7990   18.1770 C   0  0  0  0  0  0  0  0  0  0  0  0
  -27.0081  -25.3773   19.3405 C   0  0  0  0  0  0  0  0  0  0  0  0
  -23.3596  -28.8800   19.0869 C   0  0  0  0  0  0  0  0  0  0  0  0
  -29.4540  -13.0985   21.9065 C   0  0  0  0  0  0  0  0  0  0  0  0
  -27.6235  -13.0337   20.3311 C   0  0  0  0  0  0  0  0  0  0  0  0
  -22.0524  -28.4560   19.3218 C   0  0  0  0  0  0  0  0  0  0  0  0
  -26.7249   -9.5183   20.5417 C   0  0  0  0  0  0  0  0  0  0  0  0
  -25.4623   -8.9447   20.6910 C   0  0  0  0  0  0  0  0  0  0  0  0
  -22.4644  -22.9522   20.1817 C   0  0  0  0  0  0  0  0  0  0  0  0
  -22.1917  -29.2971   21.5785 C   0  0  0  0  0  0  0  0  0  0  0  0
  -25.1132  -10.2368   22.7024 C   0  0  0  0  0  0  0  0  0  0  0  0
  -21.4443  -23.0983   18.0382 C   0  0  0  0  0  0  0  0  0  0  0  0
  -23.4891  -22.0680   18.2261 C   0  0  0  0  0  0  0  0  0  0  0  0
  -28.6439  -15.1454   20.9111 C   0  0  0  0  0  0  0  0  0  0  0  0
  -21.3949  -23.3677   19.3964 C   0  0  0  0  0  0  0  0  0  0  0  0
  -29.4879  -17.3015   19.8404 C   0  0  0  0  0  0  0  0  0  0  0  0
  -29.4235  -25.6078   19.3235 C   0  0  0  0  0  0  0  0  0  0  0  0
  -24.0977  -29.5071   20.1011 C   0  0  0  0  0  0  0  0  0  0  0  0
  -28.1801  -25.8929   19.9194 C   0  0  0  0  0  0  0  0  0  0  0  0
  -23.5072  -29.7304   21.3530 C   0  0  0  0  0  0  0  0  0  0  0  0
  -23.5356  -22.2893   19.5930 C   0  0  0  0  0  0  0  0  0  0  0  0
  -28.5037  -12.3730   21.1880 C   0  0  0  0  0  0  0  0  0  0  0  0
  -21.4692  -28.6619   20.5687 C   0  0  0  0  0  0  0  0  0  0  0  0
  -27.1818  -10.4511   21.4727 C   0  0  0  0  0  0  0  0  0  0  0  0
  -24.6564   -9.3039   21.7713 C   0  0  0  0  0  0  0  0  0  0  0  0
  -26.3758  -10.8104   22.5530 C   0  0  0  0  0  0  0  0  0  0  0  0
  -28.7154  -16.5774   20.7681 C   0  0  0  0  0  0  0  0  0  0  0  0
  -29.2062  -18.6180   20.1124 C   0  0  0  0  0  0  0  0  0  0  0  0
  -20.2431  -24.0752   19.9909 C   0  0  0  0  0  0  0  0  0  0  0  0
  -30.3804  -16.8266   18.8237 C   0  0  0  0  0  0  0  0  0  0  0  0
  -26.7829  -28.8353   21.6638 C   0  0  0  0  0  0  0  0  0  0  0  0
  -19.1241  -27.8984   22.9368 C   0  0  0  0  0  0  0  0  0  0  0  0
  -26.3192  -31.7823   22.9376 C   0  0  0  0  0  0  0  0  0  0  0  0
  -24.1410  -34.2901   23.7205 C   0  0  0  0  0  0  0  0  0  0  0  0
  -24.8265  -22.0140   21.7388 C   0  0  0  0  0  0  0  0  0  0  0  0
  -30.7200  -26.0921   19.9227 C   0  0  0  0  0  0  0  0  0  0  0  0
  -25.4974  -29.9825   19.8233 C   0  0  0  0  0  0  0  0  0  0  0  0
  -24.2499  -30.4170   22.4690 C   0  0  0  0  0  0  0  0  0  0  0  0
  -30.5412  -27.2347   20.9190 C   0  0  0  0  0  0  0  0  0  0  0  0
  -27.3922  -21.0593   24.0153 C   0  0  0  0  0  0  0  0  0  0  0  0
  -29.4057  -26.9243   21.8891 C   0  0  0  0  0  0  0  0  0  0  0  0
  -28.0717  -19.8769   23.3207 C   0  0  0  0  0  0  0  0  0  0  0  0
  -25.8831  -21.0655   23.7781 C   0  0  0  0  0  0  0  0  0  0  0  0
  -26.1553  -19.8127   21.6744 C   0  0  0  0  0  0  0  0  0  0  0  0
  -28.0725  -26.7712   21.1471 C   0  0  1  0  0  0  0  0  0  0  0  0
  -26.3340  -30.1486   21.0882 C   0  0  1  0  0  0  0  0  0  0  0  0
  -27.6847  -19.8004   21.8308 C   0  0  2  0  0  0  0  0  0  0  0  0
  -19.3946  -27.4632   24.3544 C   0  0  0  0  0  0  0  0  0  0  0  0
  -24.0508  -36.5586   24.7899 C   0  0  0  0  0  0  0  0  0  0  0  0
  -26.5467  -30.4901   25.6924 C   0  0  0  0  0  0  0  0  0  0  0  0
  -25.5241  -32.5562   26.6691 C   0  0  0  0  0  0  0  0  0  0  0  0
  -27.7096  -32.6934   25.4743 C   0  0  0  0  0  0  0  0  0  0  0  0
  -23.1633  -35.5535   21.2292 C   0  0  0  0  0  0  0  0  0  0  0  0
  -19.4053  -26.0298   21.2456 C   0  0  0  0  0  0  0  0  0  0  0  0
  -19.9999  -27.2948   21.8446 C   0  0  1  0  0  0  0  0  0  1  0  0
  -25.5914  -32.3227   24.1448 C   0  0  1  0  0  0  0  0  0  0  0  0
  -24.2045  -35.7888   23.4873 C   0  0  2  0  0  0  0  0  0  0  0  0
  -26.3294  -32.0009   25.4749 C   0  0  0  0  0  0  0  0  0  0  0  0
  -22.4675  -22.4568   17.4306 N   0  0  0  0  0  0  0  0  0  0  0  0
  -27.9970  -17.3682   21.5696 N   0  0  0  0  0  0  0  0  0  0  0  0
  -28.3170  -18.6030   21.1464 N   0  0  0  0  0  0  0  0  0  0  0  0
  -25.6179  -30.8580   22.1504 N   0  0  0  0  0  0  0  0  0  0  0  0
  -25.5922  -20.9954   22.3445 N   0  0  0  0  0  0  0  0  0  0  0  0
  -29.6349  -19.7754   19.5656 N   0  0  0  0  0  0  0  0  0  0  0  0
  -19.0368  -23.5200   19.8747 N   0  0  0  0  0  0  0  0  0  0  0  0
  -30.5539  -15.4433   18.6800 N   0  0  0  0  0  0  0  0  0  0  0  0
  -24.6423  -21.8575   20.3654 N   0  0  0  0  0  0  0  0  0  0  0  0
  -27.5376  -28.0692   20.7960 N   0  0  0  0  0  0  0  0  0  0  0  0
  -25.3959  -33.7475   23.8995 N   0  0  0  0  0  0  0  0  0  0  0  0
  -20.4656  -25.2377   20.6138 N   0  3  0  0  0  0  0  0  0  0  0  0
  -23.1196  -36.2150   22.5587 N   0  3  0  0  0  0  0  0  0  0  0  0
  -31.0179  -17.6063   18.0759 O   0  0  0  0  0  0  0  0  0  0  0  0
  -26.4691  -28.5396   22.8108 O   0  0  0  0  0  0  0  0  0  0  0  0
  -18.2360  -28.7134   22.6854 O   0  0  0  0  0  0  0  0  0  0  0  0
  -27.4649  -32.1714   22.6979 O   0  0  0  0  0  0  0  0  0  0  0  0
  -23.0837  -33.6641   23.7454 O   0  0  0  0  0  0  0  0  0  0  0  0
  -24.3908  -22.9700   22.3856 O   0  0  0  0  0  0  0  0  0  0  0  0
  -28.4352  -11.0203   21.3227 O   0  0  0  0  0  0  0  0  0  0  0  0
  -20.1937  -28.2484   20.8009 O   0  0  0  0  0  0  0  0  0  1  0  0
  -23.4433   -8.7542   21.9137 F   0  0  0  0  0  0  0  0  0  0  0  0
  -26.8088  -11.7069   23.4501 F   0  0  0  0  0  0  0  0  0  0  0  0
  1  2  1  0  0  0  0
  1  5  2  0  0  0  0
  2  6  2  0  0  0  0
  3  8  2  0  0  0  0
  3 18  1  0  0  0  0
  4  9  1  0  0  0  0
  4 18  2  0  0  0  0
  5 21  1  0  0  0  0
  6 23  1  0  0  0  0
  7 10  2  0  0  0  0
  7 22  1  0  0  0  0
  8 26  1  0  0  0  0
  9 26  2  0  0  0  0
 10 27  1  0  0  0  0
 11 12  2  0  0  0  0
 11 28  1  0  0  0  0
 12 29  1  0  0  0  0
 13 19  2  0  0  0  0
 13 25  1  0  0  0  0
 14 24  1  0  0  0  0
 14 27  2  0  0  0  0
 15 29  2  0  0  0  0
 15 30  1  0  0  0  0
 16 19  1  0  0  0  0
 16 63  2  0  0  0  0
 17 25  2  0  0  0  0
 17 63  1  0  0  0  0
 18 31  1  0  0  0  0
 19 33  1  0  0  0  0
 20 31  1  0  0  0  0
 20 32  2  0  0  0  0
 20 34  1  0  0  0  0
 21 23  2  0  0  0  0
 21 40  1  0  0  0  0
 22 24  2  0  0  0  0
 22 41  1  0  0  0  0
 23 49  1  0  0  0  0
 24 42  1  0  0  0  0
 25 71  1  0  0  0  0
 26 82  1  0  0  0  0
 27 83  1  0  0  0  0
 28 30  2  0  0  0  0
 28 82  1  0  0  0  0
 29 84  1  0  0  0  0
 30 85  1  0  0  0  0
 31 64  2  0  0  0  0
 32 65  1  0  0  0  0
 32 68  1  0  0  0  0
 33 69  1  0  0  0  0
 33 74  2  0  0  0  0
 34 70  1  0  0  0  0
 34 76  2  0  0  0  0
 35 50  1  0  0  0  0
 35 72  1  0  0  0  0
 35 77  2  0  0  0  0
 36 52  1  0  0  0  0
 36 59  1  0  0  0  0
 36 78  2  0  0  0  0
 37 60  1  0  0  0  0
 37 66  1  0  0  0  0
 37 79  2  0  0  0  0
 38 61  1  0  0  0  0
 38 73  1  0  0  0  0
 38 80  2  0  0  0  0
 39 67  1  0  0  0  0
 39 71  1  0  0  0  0
 39 81  2  0  0  0  0
 40 43  1  0  0  0  0
 41 50  1  0  0  0  0
 42 66  1  0  0  0  0
 43 45  1  0  0  0  0
 44 46  1  0  0  0  0
 44 47  1  0  0  0  0
 45 49  1  0  0  0  0
 46 51  1  0  0  0  0
 47 67  1  0  0  0  0
 48 51  1  0  0  0  0
 48 67  1  0  0  0  0
 49 72  1  0  0  0  0
 50 66  1  0  0  0  0
 51 65  1  0  0  0  0
 53 61  1  0  0  0  0
 54 62  1  0  0  0  0
 55 62  1  0  0  0  0
 56 62  1  0  0  0  0
 57 75  1  0  0  0  0
 58 59  1  0  0  0  0
 58 74  1  0  0  0  0
 59 83  1  0  0  0  0
 60 62  1  0  0  0  0
 60 73  1  0  0  0  0
 61 75  1  0  0  0  0
 64 65  1  0  0  0  0
M  CHG  2  74   1  75   1
M  ISO  4  39 100  59 101  71 100  83 101
M  END
> <Batch ID>
0161

> <Smiles>
CNC(C)C(=O)NC(C(=O)N1Cc2cc([101O:1][101CH:1](CNC(=N)c3cncc([100NH:0][100C:0](=O)N4CCCC(n5nc(-c6ccc(Oc7ccc(F)cc7F)cc6)c(C(N)=O)c5N)C4)c3)C(C)=O)ccc2CC1C(=O)NC1CCCc2ccccc21)C(C)(C)C

> <Shape>
0.309

> <Color>
0.056

> <Negative vol penalty>
0.000

$$$$

  -OEChem-04052303533D

 84 92  0     1  0  0  0  0  0999 V2000
  -20.2319  -23.5660   33.4738 C   0  0  0  0  0  0  0  0  0  0  0  0
  -21.1125  -23.1986   32.4614 C   0  0  0  0  0  0  0  0  0  0  0  0
  -23.2007   -9.8507   19.9524 C   0  0  0  0  0  0  0  0  0  0  0  0
  -23.9120   -9.9297   22.2600 C   0  0  0  0  0  0  0  0  0  0  0  0
  -19.6247  -22.5859   34.2577 C   0  0  0  0  0  0  0  0  0  0  0  0
  -21.3872  -21.8507   32.2330 C   0  0  0  0  0  0  0  0  0  0  0  0
  -21.3139  -20.6597   27.3115 C   0  0  0  0  0  0  0  0  0  0  0  0
  -22.5092   -8.6663   20.2060 C   0  0  0  0  0  0  0  0  0  0  0  0
  -23.2204   -8.7452   22.5136 C   0  0  0  0  0  0  0  0  0  0  0  0
  -22.4321  -21.0083   26.5554 C   0  0  0  0  0  0  0  0  0  0  0  0
  -20.0235   -7.7985   23.0648 C   0  0  0  0  0  0  0  0  0  0  0  0
  -19.2455   -7.7389   24.2210 C   0  0  0  0  0  0  0  0  0  0  0  0
  -23.2383  -18.7402   26.7131 C   0  0  0  0  0  0  0  0  0  0  0  0
  -30.0375  -17.5036   23.1671 C   0  0  0  0  0  0  0  0  0  0  0  0
  -32.1325  -17.5343   21.9643 C   0  0  0  0  0  0  0  0  0  0  0  0
  -30.8126  -19.5499   22.1429 C   0  0  0  0  0  0  0  0  0  0  0  0
  -20.5648   -5.8763   25.0128 C   0  0  0  0  0  0  0  0  0  0  0  0
  -23.9022  -10.4825   20.9793 C   0  0  0  0  0  0  0  0  0  0  0  0
  -24.1224  -13.0193   20.8256 C   0  0  0  0  0  0  0  0  0  0  0  0
  -19.8847  -21.2249   34.0326 C   0  0  0  0  0  0  0  0  0  0  0  0
  -21.1546  -19.3491   27.7842 C   0  0  0  0  0  0  0  0  0  0  0  0
  -20.7840  -20.8515   33.0156 C   0  0  0  0  0  0  0  0  0  0  0  0
  -22.1159  -18.3769   27.4729 C   0  0  0  0  0  0  0  0  0  0  0  0
  -31.1758  -16.8420   22.7066 C   0  0  0  0  0  0  0  0  0  0  0  0
  -29.8559  -18.8576   22.8852 C   0  0  0  0  0  0  0  0  0  0  0  0
  -22.5190   -8.1135   21.4866 C   0  0  0  0  0  0  0  0  0  0  0  0
  -23.3960  -20.0492   26.2585 C   0  0  0  0  0  0  0  0  0  0  0  0
  -21.0721   -6.8969   22.8826 C   0  0  0  0  0  0  0  0  0  0  0  0
  -19.5161   -6.7778   25.1950 C   0  0  0  0  0  0  0  0  0  0  0  0
  -31.9510  -18.8883   21.6825 C   0  0  0  0  0  0  0  0  0  0  0  0
  -21.3428   -5.9358   23.8566 C   0  0  0  0  0  0  0  0  0  0  0  0
  -24.6172  -11.7058   20.7178 C   0  0  0  0  0  0  0  0  0  0  0  0
  -25.1838  -13.8161   20.4721 C   0  0  0  0  0  0  0  0  0  0  0  0
  -22.8198  -13.4781   21.2110 C   0  0  0  0  0  0  0  0  0  0  0  0
  -20.9613  -18.0098   30.6604 C   0  0  0  0  0  0  0  0  0  0  0  0
  -26.6030  -19.8891   24.4463 C   0  0  0  0  0  0  0  0  0  0  0  0
  -20.3261  -15.3328   28.9421 C   0  0  0  0  0  0  0  0  0  0  0  0
  -20.6099  -13.6529   25.9851 C   0  0  0  0  0  0  0  0  0  0  0  0
  -30.9475  -14.0580   20.9577 C   0  0  0  0  0  0  0  0  0  0  0  0
  -19.2410  -20.2036   34.9366 C   0  0  0  0  0  0  0  0  0  0  0  0
  -19.9294  -18.9828   28.5760 C   0  0  0  0  0  0  0  0  0  0  0  0
  -21.9817  -16.9511   27.9394 C   0  0  0  0  0  0  0  0  0  0  0  0
  -19.2969  -18.7811   34.3856 C   0  0  0  0  0  0  0  0  0  0  0  0
  -29.3565  -13.1275   17.9114 C   0  0  0  0  0  0  0  0  0  0  0  0
  -20.6971  -18.4626   33.8709 C   0  0  0  0  0  0  0  0  0  0  0  0
  -27.9262  -12.7881   18.3346 C   0  0  0  0  0  0  0  0  0  0  0  0
  -30.3738  -12.6999   18.9670 C   0  0  0  0  0  0  0  0  0  0  0  0
  -28.6791  -12.8718   20.7480 C   0  0  0  0  0  0  0  0  0  0  0  0
  -21.0883  -19.3986   32.7210 C   0  0  1  0  0  0  0  0  0  0  0  0
  -20.1259  -17.7413   29.4407 C   0  0  1  0  0  0  0  0  0  0  0  0
  -27.6128  -13.3345   19.7405 C   0  0  2  0  0  0  0  0  0  0  0  0
  -20.0240  -11.4694   24.8959 C   0  0  0  0  0  0  0  0  0  0  0  0
  -22.5873  -13.9672   30.4692 C   0  0  0  0  0  0  0  0  0  0  0  0
  -22.5857  -12.1702   28.7259 C   0  0  0  0  0  0  0  0  0  0  0  0
  -20.5558  -12.5497   30.1253 C   0  0  0  0  0  0  0  0  0  0  0  0
  -18.9467  -14.9894   23.9341 C   0  0  0  0  0  0  0  0  0  0  0  0
  -31.3699  -15.3939   23.0061 C   0  0  0  0  0  0  0  0  0  0  0  0
  -27.6839  -18.8828   24.1130 C   0  0  0  0  0  0  0  0  0  0  0  0
  -25.4367  -19.3542   25.2543 C   0  0  0  0  0  0  0  0  0  1  0  0
  -21.1586  -14.2298   28.3347 C   0  0  1  0  0  0  0  0  0  0  0  0
  -19.5872  -12.9037   25.1501 C   0  0  2  0  0  0  0  0  0  0  0  0
  -21.7257  -13.2565   29.4064 C   0  0  0  0  0  0  0  0  0  0  0  0
  -25.8935  -11.6661   20.3263 N   0  0  0  0  0  0  0  0  0  0  0  0
  -26.2097  -12.9646   20.1848 N   0  0  0  0  0  0  0  0  0  0  0  0
  -20.7692  -16.6437   28.7158 N   0  0  0  0  0  0  0  0  0  0  0  0
  -30.0199  -13.2524   20.2767 N   0  0  0  0  0  0  0  0  0  0  0  0
  -25.3302  -15.1551   20.3819 N   0  0  0  0  0  0  0  0  0  0  0  0
  -21.8469  -12.5254   21.5427 N   0  0  0  0  0  0  0  0  0  0  0  0
  -28.7231  -19.5159   23.3420 N   0  0  0  0  0  0  0  0  0  0  0  0
  -20.4454  -18.9855   31.4920 N   0  0  0  0  0  0  0  0  0  0  0  0
  -20.3165  -13.5883   27.3309 N   0  0  0  0  0  0  0  0  0  0  0  0
  -30.5298  -14.5462   22.1897 N   0  0  0  0  0  0  0  0  0  0  0  0
  -19.3989  -13.5778   23.8343 N   0  3  0  0  0  0  0  0  0  0  0  0
  -22.5225  -14.6963   21.2439 O   0  0  0  0  0  0  0  0  0  0  0  0
  -21.9964  -17.3776   30.8350 O   0  0  0  0  0  0  0  0  0  0  0  0
  -26.6566  -21.0656   24.0901 O   0  0  0  0  0  0  0  0  0  0  0  0
  -19.3157  -15.0425   29.5875 O   0  0  0  0  0  0  0  0  0  0  0  0
  -21.5747  -14.2339   25.4931 O   0  0  0  0  0  0  0  0  0  0  0  0
  -32.0630  -14.3268   20.4991 O   0  0  0  0  0  0  0  0  0  0  0  0
  -21.8441   -6.9578   21.7346 O   0  0  0  0  0  0  0  0  0  0  0  0
  -24.4887  -20.3869   25.5211 O   0  0  0  0  0  0  0  0  0  1  0  0
  -18.7699   -6.7218   26.3059 F   0  0  0  0  0  0  0  0  0  0  0  0
  -32.8701  -19.5531   20.9702 F   0  0  0  0  0  0  0  0  0  0  0  0
  -22.3497   -5.0677   23.6877 F   0  0  0  0  0  0  0  0  0  0  0  0
  1  2  1  0  0  0  0
  1  5  2  0  0  0  0
  2  6  2  0  0  0  0
  3  8  2  0  0  0  0
  3 18  1  0  0  0  0
  4  9  1  0  0  0  0
  4 18  2  0  0  0  0
  5 20  1  0  0  0  0
  6 22  1  0  0  0  0
  7 10  2  0  0  0  0
  7 21  1  0  0  0  0
  8 26  1  0  0  0  0
  9 26  2  0  0  0  0
 10 27  1  0  0  0  0
 11 12  2  0  0  0  0
 11 28  1  0  0  0  0
 12 29  1  0  0  0  0
 13 23  1  0  0  0  0
 13 27  2  0  0  0  0
 14 24  1  0  0  0  0
 14 25  2  0  0  0  0
 15 24  2  0  0  0  0
 15 30  1  0  0  0  0
 16 25  1  0  0  0  0
 16 30  2  0  0  0  0
 17 29  2  0  0  0  0
 17 31  1  0  0  0  0
 18 32  1  0  0  0  0
 19 32  1  0  0  0  0
 19 33  2  0  0  0  0
 19 34  1  0  0  0  0
 20 22  2  0  0  0  0
 20 40  1  0  0  0  0
 21 23  2  0  0  0  0
 21 41  1  0  0  0  0
 22 49  1  0  0  0  0
 23 42  1  0  0  0  0
 24 57  1  0  0  0  0
 25 69  1  0  0  0  0
 26 80  1  0  0  0  0
 27 81  1  0  0  0  0
 28 31  2  0  0  0  0
 28 80  1  0  0  0  0
 29 82  1  0  0  0  0
 30 83  1  0  0  0  0
 31 84  1  0  0  0  0
 32 63  2  0  0  0  0
 33 64  1  0  0  0  0
 33 67  1  0  0  0  0
 34 68  1  0  0  0  0
 34 74  2  0  0  0  0
 35 50  1  0  0  0  0
 35 70  1  0  0  0  0
 35 75  2  0  0  0  0
 36 58  1  0  0  0  0
 36 59  1  0  0  0  0
 36 76  2  0  0  0  0
 37 60  1  0  0  0  0
 37 65  1  0  0  0  0
 37 77  2  0  0  0  0
 38 61  1  0  0  0  0
 38 71  1  0  0  0  0
 38 78  2  0  0  0  0
 39 66  1  0  0  0  0
 39 72  1  0  0  0  0
 39 79  2  0  0  0  0
 40 43  1  0  0  0  0
 41 50  1  0  0  0  0
 42 65  1  0  0  0  0
 43 45  1  0  0  0  0
 44 46  1  0  0  0  0
 44 47  1  0  0  0  0
 45 49  1  0  0  0  0
 46 51  1  0  0  0  0
 47 66  1  0  0  0  0
 48 51  1  0  0  0  0
 48 66  1  0  0  0  0
 49 70  1  0  0  0  0
 50 65  1  0  0  0  0
 51 64  1  0  0  0  0
 52 61  1  0  0  0  0
 53 62  1  0  0  0  0
 54 62  1  0  0  0  0
 55 62  1  0  0  0  0
 56 73  1  0  0  0  0
 57 72  1  0  0  0  0
 58 69  1  0  0  0  0
 59 81  1  0  0  0  0
 60 62  1  0  0  0  0
 60 71  1  0  0  0  0
 61 73  1  0  0  0  0
 63 64  1  0  0  0  0
M  CHG  1  73   1
M  ISO  4  39 100  59 101  72 100  81 101
M  END
> <Batch ID>
0161

> <Smiles>
CNC(C)C(=O)NC(C(=O)N1Cc2cc([101O:1][101CH2:1]C(=O)CNc3cc(F)cc(C[100NH:0][100C:0](=O)N4CCCC(n5nc(-c6ccc(Oc7ccc(F)cc7F)cc6)c(C(N)=O)c5N)C4)c3)ccc2CC1C(=O)NC1CCCc2ccccc21)C(C)(C)C

> <Shape>
0.169

> <Color>
0.185

> <Negative vol penalty>
0.000

$$$$

  -OEChem-04052303533D

 85 93  0     1  0  0  0  0  0999 V2000
  -19.4297  -29.7057   26.2274 C   0  0  0  0  0  0  0  0  0  0  0  0
  -20.7230  -29.1990   26.1507 C   0  0  0  0  0  0  0  0  0  0  0  0
  -28.4594  -22.0747   16.0923 C   0  0  0  0  0  0  0  0  0  0  0  0
  -26.2875  -12.7860   21.6052 C   0  0  0  0  0  0  0  0  0  0  0  0
  -25.8732  -13.6284   19.3790 C   0  0  0  0  0  0  0  0  0  0  0  0
  -18.5543  -29.5448   25.1542 C   0  0  0  0  0  0  0  0  0  0  0  0
  -21.1414  -28.5300   25.0009 C   0  0  0  0  0  0  0  0  0  0  0  0
  -26.7524  -28.5826   22.5473 C   0  0  0  0  0  0  0  0  0  0  0  0
  -25.0831  -12.0837   21.5636 C   0  0  0  0  0  0  0  0  0  0  0  0
  -24.6688  -12.9260   19.3374 C   0  0  0  0  0  0  0  0  0  0  0  0
  -27.8177  -27.6865   22.6232 C   0  0  0  0  0  0  0  0  0  0  0  0
  -23.9190   -9.2132   20.2078 C   0  0  0  0  0  0  0  0  0  0  0  0
  -23.9238   -7.8913   20.6528 C   0  0  0  0  0  0  0  0  0  0  0  0
  -28.8889  -23.3723   16.3471 C   0  0  0  0  0  0  0  0  0  0  0  0
  -28.4331  -21.1420   17.1232 C   0  0  0  0  0  0  0  0  0  0  0  0
  -27.1156  -26.6850   20.5440 C   0  0  0  0  0  0  0  0  0  0  0  0
  -22.2959   -8.4556   22.3465 C   0  0  0  0  0  0  0  0  0  0  0  0
  -26.6826  -13.5584   20.5129 C   0  0  0  0  0  0  0  0  0  0  0  0
  -29.1928  -13.8261   20.1461 C   0  0  0  0  0  0  0  0  0  0  0  0
  -18.9653  -28.8820   23.9870 C   0  0  0  0  0  0  0  0  0  0  0  0
  -25.8527  -28.5295   21.4729 C   0  0  0  0  0  0  0  0  0  0  0  0
  -20.2703  -28.3589   23.9116 C   0  0  0  0  0  0  0  0  0  0  0  0
  -26.0411  -27.5832   20.4554 C   0  0  0  0  0  0  0  0  0  0  0  0
  -24.2738  -12.1536   20.4297 C   0  0  0  0  0  0  0  0  0  0  0  0
  -27.9978  -26.7357   21.6229 C   0  0  0  0  0  0  0  0  0  0  0  0
  -23.1027  -10.1564   20.8322 C   0  0  0  0  0  0  0  0  0  0  0  0
  -23.1122   -7.5125   21.7222 C   0  0  0  0  0  0  0  0  0  0  0  0
  -22.2912   -9.7776   21.9015 C   0  0  0  0  0  0  0  0  0  0  0  0
  -27.9263  -14.2846   20.5555 C   0  0  0  0  0  0  0  0  0  0  0  0
  -29.2786  -23.6845   17.6396 C   0  0  0  0  0  0  0  0  0  0  0  0
  -28.8434  -21.5539   18.3809 C   0  0  0  0  0  0  0  0  0  0  0  0
  -30.0355  -14.8833   20.3884 C   0  0  0  0  0  0  0  0  0  0  0  0
  -29.5735  -12.5581   19.5959 C   0  0  0  0  0  0  0  0  0  0  0  0
  -29.7455  -25.0422   17.9846 C   0  0  0  0  0  0  0  0  0  0  0  0
  -22.7342  -27.9867   21.1833 C   0  0  0  0  0  0  0  0  0  0  0  0
  -31.4027  -25.6037   21.7408 C   0  0  0  0  0  0  0  0  0  0  0  0
  -23.2833  -28.7608   18.0814 C   0  0  0  0  0  0  0  0  0  0  0  0
  -25.5064  -28.9895   15.5022 C   0  0  0  0  0  0  0  0  0  0  0  0
  -29.1785  -20.7855   20.7565 C   0  0  0  0  0  0  0  0  0  0  0  0
  -17.9685  -28.6911   22.8713 C   0  0  0  0  0  0  0  0  0  0  0  0
  -24.7242  -29.5205   21.3920 C   0  0  0  0  0  0  0  0  0  0  0  0
  -25.1152  -27.4977   19.2706 C   0  0  0  0  0  0  0  0  0  0  0  0
  -18.6092  -28.2980   21.5427 C   0  0  0  0  0  0  0  0  0  0  0  0
  -30.5562  -18.6730   23.2698 C   0  0  0  0  0  0  0  0  0  0  0  0
  -19.6328  -27.1866   21.7518 C   0  0  0  0  0  0  0  0  0  0  0  0
  -30.1586  -17.2657   22.8184 C   0  0  0  0  0  0  0  0  0  0  0  0
  -29.4605  -19.6949   22.9715 C   0  0  0  0  0  0  0  0  0  0  0  0
  -28.5953  -18.3081   21.1283 C   0  0  0  0  0  0  0  0  0  0  0  0
  -20.7692  -27.6490   22.6717 C   0  0  1  0  0  0  0  0  0  0  0  0
  -23.5704  -29.0420   20.5162 C   0  0  1  0  0  0  0  0  0  0  0  0
  -29.6939  -17.2554   21.3489 C   0  0  2  0  0  0  0  0  0  0  0  0
  -25.6525  -29.6192   13.0775 C   0  0  0  0  0  0  0  0  0  0  0  0
  -21.9591  -26.1199   17.3183 C   0  0  0  0  0  0  0  0  0  0  0  0
  -22.9662  -26.3540   15.0381 C   0  0  0  0  0  0  0  0  0  0  0  0
  -21.3398  -28.0565   15.8621 C   0  0  0  0  0  0  0  0  0  0  0  0
  -27.4392  -31.1596   16.0626 C   0  0  0  0  0  0  0  0  0  0  0  0
  -32.1198  -26.2510   20.5752 C   0  0  0  0  0  0  0  0  0  0  0  0
  -30.2197  -26.3074   22.3549 C   0  0  0  0  0  0  0  0  0  1  0  0
  -31.1767  -26.4678   19.4045 C   0  0  0  0  0  0  0  0  0  0  0  0
  -23.6703  -27.9933   16.8404 C   0  0  1  0  0  0  0  0  0  0  0  0
  -25.7893  -30.1048   14.5121 C   0  0  2  0  0  0  0  0  0  0  0  0
  -22.5003  -27.1311   16.2879 C   0  0  0  0  0  0  0  0  0  0  0  0
  -27.9570  -15.5355   21.0226 N   0  0  0  0  0  0  0  0  0  0  0  0
  -29.2669  -22.8056   18.6667 N   0  0  0  0  0  0  0  0  0  0  0  0
  -31.7820  -24.4616   22.2158 N   0  0  0  0  0  0  0  0  0  0  0  0
  -29.2530  -15.8721   20.9083 N   0  0  0  0  0  0  0  0  0  0  0  0
  -24.0230  -28.4845   19.2400 N   0  0  0  0  0  0  0  0  0  0  0  0
  -29.0740  -19.6306   21.5604 N   0  0  0  0  0  0  0  0  0  0  0  0
  -31.3620  -15.0543   20.2055 N   0  0  0  0  0  0  0  0  0  0  0  0
  -28.5821  -11.5844   19.4128 N   0  0  0  0  0  0  0  0  0  0  0  0
  -29.2515  -26.0705   17.2950 N   0  0  0  0  0  0  0  0  0  0  0  0
  -28.8138  -20.5954   19.4240 N   0  0  0  0  0  0  0  0  0  0  0  0
  -21.6970  -28.4894   21.9456 N   0  0  0  0  0  0  0  0  0  0  0  0
  -24.1848  -28.9783   15.8951 N   0  0  0  0  0  0  0  0  0  0  0  0
  -30.6423  -25.1756   18.9695 N   0  3  0  0  0  0  0  0  0  0  0  0
  -27.1720  -30.6274   14.7016 N   0  3  0  0  0  0  0  0  0  0  0  0
  -30.7606  -12.2903   19.2914 O   0  0  0  0  0  0  0  0  0  0  0  0
  -23.0087  -26.8040   21.0174 O   0  0  0  0  0  0  0  0  0  0  0  0
  -22.3635  -29.5807   18.0232 O   0  0  0  0  0  0  0  0  0  0  0  0
  -26.3706  -28.2042   15.8857 O   0  0  0  0  0  0  0  0  0  0  0  0
  -29.5889  -21.8569   21.2100 O   0  0  0  0  0  0  0  0  0  0  0  0
  -23.0986  -11.4682   20.3886 O   0  0  0  0  0  0  0  0  0  0  0  0
  -29.0365  -25.8594   21.6949 O   0  0  0  0  0  0  0  0  0  1  0  0
  -23.1157   -6.2426   22.1484 F   0  0  0  0  0  0  0  0  0  0  0  0
  -21.5040  -10.6790   22.5045 F   0  0  0  0  0  0  0  0  0  0  0  0
  1  2  1  0  0  0  0
  1  6  2  0  0  0  0
  2  7  2  0  0  0  0
  3 14  2  0  0  0  0
  3 15  1  0  0  0  0
  4  9  2  0  0  0  0
  4 18  1  0  0  0  0
  5 10  1  0  0  0  0
  5 18  2  0  0  0  0
  6 20  1  0  0  0  0
  7 22  1  0  0  0  0
  8 11  2  0  0  0  0
  8 21  1  0  0  0  0
  9 24  1  0  0  0  0
 10 24  2  0  0  0  0
 11 25  1  0  0  0  0
 12 13  2  0  0  0  0
 12 26  1  0  0  0  0
 13 27  1  0  0  0  0
 14 30  1  0  0  0  0
 15 31  2  0  0  0  0
 16 23  1  0  0  0  0
 16 25  2  0  0  0  0
 17 27  2  0  0  0  0
 17 28  1  0  0  0  0
 18 29  1  0  0  0  0
 19 29  1  0  0  0  0
 19 32  2  0  0  0  0
 19 33  1  0  0  0  0
 20 22  2  0  0  0  0
 20 40  1  0  0  0  0
 21 23  2  0  0  0  0
 21 41  1  0  0  0  0
 22 49  1  0  0  0  0
 23 42  1  0  0  0  0
 24 82  1  0  0  0  0
 25 83  1  0  0  0  0
 26 28  2  0  0  0  0
 26 82  1  0  0  0  0
 27 84  1  0  0  0  0
 28 85  1  0  0  0  0
 29 63  2  0  0  0  0
 30 34  1  0  0  0  0
 30 64  2  0  0  0  0
 31 64  1  0  0  0  0
 31 72  1  0  0  0  0
 32 66  1  0  0  0  0
 32 69  1  0  0  0  0
 33 70  1  0  0  0  0
 33 77  2  0  0  0  0
 34 71  1  0  0  0  0
 34 75  2  0  0  0  0
 35 50  1  0  0  0  0
 35 73  1  0  0  0  0
 35 78  2  0  0  0  0
 36 57  1  0  0  0  0
 36 58  1  0  0  0  0
 36 65  2  0  0  0  0
 37 60  1  0  0  0  0
 37 67  1  0  0  0  0
 37 79  2  0  0  0  0
 38 61  1  0  0  0  0
 38 74  1  0  0  0  0
 38 80  2  0  0  0  0
 39 68  1  0  0  0  0
 39 72  1  0  0  0  0
 39 81  2  0  0  0  0
 40 43  1  0  0  0  0
 41 50  1  0  0  0  0
 42 67  1  0  0  0  0
 43 45  1  0  0  0  0
 44 46  1  0  0  0  0
 44 47  1  0  0  0  0
 45 49  1  0  0  0  0
 46 51  1  0  0  0  0
 47 68  1  0  0  0  0
 48 51  1  0  0  0  0
 48 68  1  0  0  0  0
 49 73  1  0  0  0  0
 50 67  1  0  0  0  0
 51 66  1  0  0  0  0
 52 61  1  0  0  0  0
 53 62  1  0  0  0  0
 54 62  1  0  0  0  0
 55 62  1  0  0  0  0
 56 76  1  0  0  0  0
 57 59  1  0  0  0  0
 58 83  1  0  0  0  0
 59 75  1  0  0  0  0
 60 62  1  0  0  0  0
 60 74  1  0  0  0  0
 61 76  1  0  0  0  0
 63 66  1  0  0  0  0
M  CHG  2  75   1  76   1
M  ISO  4  39 100  58 101  72 100  83 101
M  END
> <Batch ID>
0161

> <Smiles>
CNC(C)C(=O)NC(C(=O)N1Cc2cc([101O:1][101CH2:1]C(=N)CCNC(=N)c3cccc([100NH:0][100C:0](=O)N4CCCC(n5nc(-c6ccc(Oc7ccc(F)cc7F)cc6)c(C(N)=O)c5N)C4)n3)ccc2CC1C(=O)NC1CCCc2ccccc21)C(C)(C)C

> <Shape>
0.302

> <Color>
0.086

> <Negative vol penalty>
0.000

$$$$

  -OEChem-04052303533D

 89 98  0     1  0  0  0  0  0999 V2000
  -34.9933  -24.8906   20.1798 C   0  0  0  0  0  0  0  0  0  0  0  0
  -34.1935  -25.6166   19.3045 C   0  0  0  0  0  0  0  0  0  0  0  0
  -23.7817  -15.1696   19.1086 C   0  0  0  0  0  0  0  0  0  0  0  0
  -25.1738  -14.4260   20.9378 C   0  0  0  0  0  0  0  0  0  0  0  0
  -34.4505  -24.3893   21.3610 C   0  0  0  0  0  0  0  0  0  0  0  0
  -32.8539  -25.8519   19.6158 C   0  0  0  0  0  0  0  0  0  0  0  0
  -22.4085  -24.4494   21.0657 C   0  0  0  0  0  0  0  0  0  0  0  0
  -25.4480  -28.5809   18.6526 C   0  0  0  0  0  0  0  0  0  0  0  0
  -23.4320  -23.5235   20.8644 C   0  0  0  0  0  0  0  0  0  0  0  0
  -22.8729  -14.1482   19.3850 C   0  0  0  0  0  0  0  0  0  0  0  0
  -24.2650  -13.4046   21.2142 C   0  0  0  0  0  0  0  0  0  0  0  0
  -24.1343  -28.4109   19.0875 C   0  0  0  0  0  0  0  0  0  0  0  0
  -23.4902  -10.3562   19.9741 C   0  0  0  0  0  0  0  0  0  0  0  0
  -24.0021   -9.0819   20.2184 C   0  0  0  0  0  0  0  0  0  0  0  0
  -24.8509  -28.7499   21.3658 C   0  0  0  0  0  0  0  0  0  0  0  0
  -24.5592  -24.3399   22.8392 C   0  0  0  0  0  0  0  0  0  0  0  0
  -23.0054   -9.1035   22.4192 C   0  0  0  0  0  0  0  0  0  0  0  0
  -24.9322  -15.3085   19.8850 C   0  0  0  0  0  0  0  0  0  0  0  0
  -26.5822  -16.5674   18.4016 C   0  0  0  0  0  0  0  0  0  0  0  0
  -33.1003  -24.6083   21.6802 C   0  0  0  0  0  0  0  0  0  0  0  0
  -26.4765  -28.8262   19.5737 C   0  0  0  0  0  0  0  0  0  0  0  0
  -32.2936  -25.3747   20.8145 C   0  0  0  0  0  0  0  0  0  0  0  0
  -22.4603  -25.3207   22.1538 C   0  0  0  0  0  0  0  0  0  0  0  0
  -26.1764  -28.9252   20.9398 C   0  0  0  0  0  0  0  0  0  0  0  0
  -23.5357  -25.2659   23.0406 C   0  0  0  0  0  0  0  0  0  0  0  0
  -24.5073  -23.4687   21.7511 C   0  0  0  0  0  0  0  0  0  0  0  0
  -23.1145  -13.2657   20.4378 C   0  0  0  0  0  0  0  0  0  0  0  0
  -23.8360  -28.4925   20.4445 C   0  0  0  0  0  0  0  0  0  0  0  0
  -22.7360  -11.0042   20.9523 C   0  0  0  0  0  0  0  0  0  0  0  0
  -23.7597   -8.4555   21.4409 C   0  0  0  0  0  0  0  0  0  0  0  0
  -22.4936  -10.3778   22.1748 C   0  0  0  0  0  0  0  0  0  0  0  0
  -25.8716  -16.3631   19.5996 C   0  0  0  0  0  0  0  0  0  0  0  0
  -27.3346  -17.6922   18.6363 C   0  0  0  0  0  0  0  0  0  0  0  0
  -19.1436  -26.7087   23.4908 C   0  0  0  0  0  0  0  0  0  0  0  0
  -26.5636  -15.8084   17.1854 C   0  0  0  0  0  0  0  0  0  0  0  0
  -29.1322  -27.3033   20.4290 C   0  0  0  0  0  0  0  0  0  0  0  0
  -29.6325  -29.9779   22.1950 C   0  0  0  0  0  0  0  0  0  0  0  0
  -27.6553  -32.1767   24.2621 C   0  0  0  0  0  0  0  0  0  0  0  0
  -26.6835  -22.3411   22.3334 C   0  0  0  0  0  0  0  0  0  0  0  0
  -32.5665  -24.0496   22.9756 C   0  0  0  0  0  0  0  0  0  0  0  0
  -27.8841  -29.0338   19.0861 C   0  0  0  0  0  0  0  0  0  0  0  0
  -27.2411  -29.2069   21.9673 C   0  0  0  0  0  0  0  0  0  0  0  0
  -20.2798  -25.7328   23.3051 C   0  0  0  0  0  0  0  0  0  0  0  0
  -31.0438  -23.9685   23.0055 C   0  0  0  0  0  0  0  0  0  0  0  0
  -29.4522  -20.1072   22.1885 C   0  0  0  0  0  0  0  0  0  0  0  0
  -30.4439  -25.2964   22.5681 C   0  0  0  0  0  0  0  0  0  0  0  0
  -28.9147  -18.9147   21.3939 C   0  0  0  0  0  0  0  0  0  0  0  0
  -19.5502  -27.8060   21.3058 C   0  0  0  0  0  0  0  0  0  0  0  0
  -28.3864  -20.7043   23.1056 C   0  0  0  0  0  0  0  0  0  0  0  0
  -26.5863  -19.8637   21.6488 C   0  0  0  0  0  0  0  0  0  0  0  0
  -21.3330  -26.3220   22.3519 C   0  0  2  0  0  0  0  0  0  0  0  0
  -30.8260  -25.6169   21.1175 C   0  0  1  0  0  0  0  0  0  0  0  0
  -18.4750  -27.2685   22.2543 C   0  0  1  0  0  0  0  0  0  0  0  0
  -28.9340  -28.7683   20.1606 C   0  0  1  0  0  0  0  0  0  0  0  0
  -20.6895  -26.8042   21.0204 C   0  0  2  0  0  0  0  0  0  0  0  0
  -27.6050  -19.2691   20.6627 C   0  0  2  0  0  0  0  0  0  0  0  0
  -23.6114  -26.1873   24.2135 C   0  0  0  0  0  0  0  0  0  0  0  0
  -17.5861  -26.2099   21.6084 C   0  0  0  0  0  0  0  0  0  0  0  0
  -27.9653  -34.6022   24.8262 C   0  0  0  0  0  0  0  0  0  0  0  0
  -31.0833  -28.9200   24.6620 C   0  0  0  0  0  0  0  0  0  0  0  0
  -30.0415  -30.7737   25.9836 C   0  0  0  0  0  0  0  0  0  0  0  0
  -31.5864  -31.3040   24.0982 C   0  0  0  0  0  0  0  0  0  0  0  0
  -24.9413  -32.8660   23.3038 C   0  0  0  0  0  0  0  0  0  0  0  0
  -17.1992  -28.3175   25.7955 C   0  0  0  0  0  0  0  0  0  0  0  0
  -21.7172  -27.4704   20.0956 C   0  0  0  0  0  0  0  0  0  1  0  0
  -29.2727  -30.4185   23.5933 C   0  0  1  0  0  0  0  0  0  0  0  0
  -27.2426  -33.6012   23.9382 C   0  0  2  0  0  0  0  0  0  0  0  0
  -30.4797  -30.3357   24.5698 C   0  0  0  0  0  0  0  0  0  0  0  0
  -26.1481  -17.2841   20.5266 N   0  0  0  0  0  0  0  0  0  0  0  0
  -18.7148  -27.0430   24.6641 N   0  0  0  0  0  0  0  0  0  0  0  0
  -27.0408  -18.0780   19.9110 N   0  0  0  0  0  0  0  0  0  0  0  0
  -28.6031  -29.3961   21.4415 N   0  0  0  0  0  0  0  0  0  0  0  0
  -27.1761  -21.0190   22.3433 N   0  0  0  0  0  0  0  0  0  0  0  0
  -28.2124  -18.3790   17.8746 N   0  0  0  0  0  0  0  0  0  0  0  0
  -25.7337  -14.6812   17.1138 N   0  0  0  0  0  0  0  0  0  0  0  0
  -25.5463  -22.5268   21.5480 N   0  0  0  0  0  0  0  0  0  0  0  0
  -30.4180  -26.9699   20.8098 N   0  0  0  0  0  0  0  0  0  0  0  0
  -28.6981  -31.7534   23.4654 N   0  0  0  0  0  0  0  0  0  0  0  0
  -25.7752  -33.7727   24.1342 N   0  3  0  0  0  0  0  0  0  0  0  0
  -27.2746  -16.1110   16.1972 O   0  0  0  0  0  0  0  0  0  0  0  0
  -28.1880  -26.5326   20.3016 O   0  0  0  0  0  0  0  0  0  0  0  0
  -30.7827  -30.1501   21.7838 O   0  0  0  0  0  0  0  0  0  0  0  0
  -27.1098  -31.5077   25.1370 O   0  0  0  0  0  0  0  0  0  0  0  0
  -27.2460  -23.2478   22.9527 O   0  0  0  0  0  0  0  0  0  0  0  0
  -22.2278  -12.2690   20.7080 O   0  0  0  0  0  0  0  0  0  0  0  0
  -22.5547  -28.3264   20.8716 O   0  0  0  0  0  0  0  0  0  1  0  0
  -17.6648  -27.9551   24.5041 O   0  0  0  0  0  0  0  0  0  0  0  0
  -24.2500   -7.2312   21.6748 F   0  0  0  0  0  0  0  0  0  0  0  0
  -21.7687  -10.9949   23.1180 F   0  0  0  0  0  0  0  0  0  0  0  0
  1  2  1  0  0  0  0
  1  5  2  0  0  0  0
  2  6  2  0  0  0  0
  3 10  2  0  0  0  0
  3 18  1  0  0  0  0
  4 11  1  0  0  0  0
  4 18  2  0  0  0  0
  5 20  1  0  0  0  0
  6 22  1  0  0  0  0
  7  9  2  0  0  0  0
  7 23  1  0  0  0  0
  8 12  2  0  0  0  0
  8 21  1  0  0  0  0
  9 26  1  0  0  0  0
 10 27  1  0  0  0  0
 11 27  2  0  0  0  0
 12 28  1  0  0  0  0
 13 14  2  0  0  0  0
 13 29  1  0  0  0  0
 14 30  1  0  0  0  0
 15 24  1  0  0  0  0
 15 28  2  0  0  0  0
 16 25  1  0  0  0  0
 16 26  2  0  0  0  0
 17 30  2  0  0  0  0
 17 31  1  0  0  0  0
 18 32  1  0  0  0  0
 19 32  1  0  0  0  0
 19 33  2  0  0  0  0
 19 35  1  0  0  0  0
 20 22  2  0  0  0  0
 20 40  1  0  0  0  0
 21 24  2  0  0  0  0
 21 41  1  0  0  0  0
 22 52  1  0  0  0  0
 23 25  2  0  0  0  0
 23 51  1  0  0  0  0
 24 42  1  0  0  0  0
 25 57  1  0  0  0  0
 26 76  1  0  0  0  0
 27 85  1  0  0  0  0
 28 86  1  0  0  0  0
 29 31  2  0  0  0  0
 29 85  1  0  0  0  0
 30 88  1  0  0  0  0
 31 89  1  0  0  0  0
 32 69  2  0  0  0  0
 33 71  1  0  0  0  0
 33 74  1  0  0  0  0
 34 43  1  0  0  0  0
 34 53  1  0  0  0  0
 34 70  2  0  0  0  0
 35 75  1  0  0  0  0
 35 80  2  0  0  0  0
 36 54  1  0  0  0  0
 36 77  1  0  0  0  0
 36 81  2  0  0  0  0
 37 66  1  0  0  0  0
 37 72  1  0  0  0  0
 37 82  2  0  0  0  0
 38 67  1  0  0  0  0
 38 78  1  0  0  0  0
 38 83  2  0  0  0  0
 39 73  1  0  0  0  0
 39 76  1  0  0  0  0
 39 84  2  0  0  0  0
 40 44  1  0  0  0  0
 41 54  1  0  0  0  0
 42 72  1  0  0  0  0
 43 51  1  0  0  0  0
 44 46  1  0  0  0  0
 45 47  1  0  0  0  0
 45 49  1  0  0  0  0
 46 52  1  0  0  0  0
 47 56  1  0  0  0  0
 48 53  1  0  0  0  0
 48 55  1  0  0  0  0
 49 73  1  0  0  0  0
 50 56  1  0  0  0  0
 50 73  1  0  0  0  0
 51 55  1  0  0  0  0
 52 77  1  0  0  0  0
 53 58  1  0  0  0  0
 54 72  1  0  0  0  0
 55 65  1  0  0  0  0
 56 71  1  0  0  0  0
 59 67  1  0  0  0  0
 60 68  1  0  0  0  0
 61 68  1  0  0  0  0
 62 68  1  0  0  0  0
 63 79  1  0  0  0  0
 64 87  1  0  0  0  0
 65 86  1  0  0  0  0
 66 68  1  0  0  0  0
 66 78  1  0  0  0  0
 67 79  1  0  0  0  0
 69 71  1  0  0  0  0
 70 87  1  0  0  0  0
M  CHG  1  79   1
M  ISO  4  39 100  65 101  76 100  86 101
M  END
> <Batch ID>
0161

> <Smiles>
CNC(C)C(=O)NC(C(=O)N1Cc2cc([101O:1][101CH2:1]C3CC(C)C(=NOC)CC3c3ccc([100NH:0][100C:0](=O)N4CCCC(n5nc(-c6ccc(Oc7ccc(F)cc7F)cc6)c(C(N)=O)c5N)C4)cc3C)ccc2CC1C(=O)NC1CCCc2ccccc21)C(C)(C)C

> <Shape>
0.227

> <Color>
0.064

> <Negative vol penalty>
0.000

$$$$

  -OEChem-04052303533D

 81 89  0     1  0  0  0  0  0999 V2000
  -37.7221  -33.6779   27.6413 C   0  0  0  0  0  0  0  0  0  0  0  0
  -37.3325  -32.3557   27.4533 C   0  0  0  0  0  0  0  0  0  0  0  0
  -23.1033   -9.8094   19.9640 C   0  0  0  0  0  0  0  0  0  0  0  0
  -23.8214   -9.8955   22.2692 C   0  0  0  0  0  0  0  0  0  0  0  0
  -36.7659  -34.6511   27.9287 C   0  0  0  0  0  0  0  0  0  0  0  0
  -35.9865  -32.0057   27.5537 C   0  0  0  0  0  0  0  0  0  0  0  0
  -33.0448  -27.7227   24.3119 C   0  0  0  0  0  0  0  0  0  0  0  0
  -22.3662   -8.6571   20.2366 C   0  0  0  0  0  0  0  0  0  0  0  0
  -23.0843   -8.7431   22.5419 C   0  0  0  0  0  0  0  0  0  0  0  0
  -32.6976  -26.4032   24.5983 C   0  0  0  0  0  0  0  0  0  0  0  0
  -19.4000   -7.8759   21.6594 C   0  0  0  0  0  0  0  0  0  0  0  0
  -18.1026   -7.8012   21.1526 C   0  0  0  0  0  0  0  0  0  0  0  0
  -30.5027  -27.1352   25.2808 C   0  0  0  0  0  0  0  0  0  0  0  0
  -18.7050   -5.8238   19.9019 C   0  0  0  0  0  0  0  0  0  0  0  0
  -31.7096  -18.8241   22.1511 C   0  0  0  0  0  0  0  0  0  0  0  0
  -23.8310  -10.4286   20.9803 C   0  0  0  0  0  0  0  0  0  0  0  0
  -24.1505  -12.9522   20.7875 C   0  0  0  0  0  0  0  0  0  0  0  0
  -35.4063  -34.3145   28.0231 C   0  0  0  0  0  0  0  0  0  0  0  0
  -32.1256  -28.7614   24.5185 C   0  0  0  0  0  0  0  0  0  0  0  0
  -35.0113  -32.9750   27.8439 C   0  0  0  0  0  0  0  0  0  0  0  0
  -30.8398  -28.4667   24.9938 C   0  0  0  0  0  0  0  0  0  0  0  0
  -22.3567   -8.1239   21.5255 C   0  0  0  0  0  0  0  0  0  0  0  0
  -31.4274  -26.1095   25.0856 C   0  0  0  0  0  0  0  0  0  0  0  0
  -20.3499   -6.9246   21.2874 C   0  0  0  0  0  0  0  0  0  0  0  0
  -17.7551   -6.7752   20.2739 C   0  0  0  0  0  0  0  0  0  0  0  0
  -20.0024   -5.8985   20.4087 C   0  0  0  0  0  0  0  0  0  0  0  0
  -24.5931  -11.6187   20.6992 C   0  0  0  0  0  0  0  0  0  0  0  0
  -25.2418  -13.7011   20.4205 C   0  0  0  0  0  0  0  0  0  0  0  0
  -30.5910  -19.2027   22.8635 C   0  0  0  0  0  0  0  0  0  0  0  0
  -30.4954  -17.0245   21.8393 C   0  0  0  0  0  0  0  0  0  0  0  0
  -22.8677  -13.4678   21.1674 C   0  0  0  0  0  0  0  0  0  0  0  0
  -32.0424  -31.3494   26.3621 C   0  0  0  0  0  0  0  0  0  0  0  0
  -30.7931  -22.6058   24.4321 C   0  0  0  0  0  0  0  0  0  0  0  0
  -29.3230  -31.9659   24.7045 C   0  0  0  0  0  0  0  0  0  0  0  0
  -26.7188  -30.7591   22.8583 C   0  0  0  0  0  0  0  0  0  0  0  0
  -30.6936  -14.8074   20.6598 C   0  0  0  0  0  0  0  0  0  0  0  0
  -34.4148  -35.3927   28.3823 C   0  0  0  0  0  0  0  0  0  0  0  0
  -32.5066  -30.1764   24.1794 C   0  0  0  0  0  0  0  0  0  0  0  0
  -29.8096  -29.5432   25.2137 C   0  0  0  0  0  0  0  0  0  0  0  0
  -32.9653  -35.0053   28.1013 C   0  0  0  0  0  0  0  0  0  0  0  0
  -29.6456  -12.3100   18.3486 C   0  0  0  0  0  0  0  0  0  0  0  0
  -32.6773  -33.6009   28.6226 C   0  0  0  0  0  0  0  0  0  0  0  0
  -28.2013  -12.0172   18.7613 C   0  0  0  0  0  0  0  0  0  0  0  0
  -30.5366  -12.5853   19.5586 C   0  0  0  0  0  0  0  0  0  0  0  0
  -28.5980  -13.3328   20.8824 C   0  0  0  0  0  0  0  0  0  0  0  0
  -33.5579  -32.5604   27.9201 C   0  0  1  0  0  0  0  0  0  0  0  0
  -31.6642  -31.2145   24.9142 C   0  0  1  0  0  0  0  0  0  0  0  0
  -27.6484  -13.1131   19.6934 C   0  0  2  0  0  0  0  0  0  0  0  0
  -24.6344  -31.4994   21.6733 C   0  0  0  0  0  0  0  0  0  0  0  0
  -27.8985  -32.2429   27.3885 C   0  0  0  0  0  0  0  0  0  0  0  0
  -25.7190  -32.0299   26.1748 C   0  0  0  0  0  0  0  0  0  0  0  0
  -27.2398  -33.9437   25.6775 C   0  0  0  0  0  0  0  0  0  0  0  0
  -27.7278  -29.8072   20.2440 C   0  0  0  0  0  0  0  0  0  0  0  0
  -31.3473  -21.4590   23.6137 C   0  0  0  0  0  0  0  0  0  0  0  0
  -31.7128  -23.8006   24.5924 C   0  0  0  0  0  0  0  0  0  1  0  0
  -27.8628  -31.6262   24.8816 C   0  0  1  0  0  0  0  0  0  0  0  0
  -26.1224  -31.2157   21.5392 C   0  0  2  0  0  0  0  0  0  0  0  0
  -27.1999  -32.4404   26.0284 C   0  0  0  0  0  0  0  0  0  0  0  0
  -31.6568  -17.5752   21.5634 N   0  0  0  0  0  0  0  0  0  0  0  0
  -25.8662  -11.5229   20.3067 N   0  0  0  0  0  0  0  0  0  0  0  0
  -26.2329  -12.8056   20.1451 N   0  0  0  0  0  0  0  0  0  0  0  0
  -30.2321  -30.9119   24.8734 N   0  0  0  0  0  0  0  0  0  0  0  0
  -29.9519  -13.6371   20.3933 N   0  0  0  0  0  0  0  0  0  0  0  0
  -25.4406  -15.0318   20.3096 N   0  0  0  0  0  0  0  0  0  0  0  0
  -21.8587  -12.5592   21.5149 N   0  0  0  0  0  0  0  0  0  0  0  0
  -30.3812  -20.3926   23.5457 N   0  0  0  0  0  0  0  0  0  0  0  0
  -30.0227  -15.7507   21.4373 N   0  0  0  0  0  0  0  0  0  0  0  0
  -33.0433  -32.2723   26.5986 N   0  0  0  0  0  0  0  0  0  0  0  0
  -27.2386  -31.8151   23.5766 N   0  0  0  0  0  0  0  0  0  0  0  0
  -26.3089  -30.1678   20.4960 N   0  3  0  0  0  0  0  0  0  0  0  0
  -22.6186  -14.6971   21.1820 O   0  0  0  0  0  0  0  0  0  0  0  0
  -31.4675  -30.6678   27.2028 O   0  0  0  0  0  0  0  0  0  0  0  0
  -29.6721  -22.5808   24.9386 O   0  0  0  0  0  0  0  0  0  0  0  0
  -29.6447  -33.1222   24.4196 O   0  0  0  0  0  0  0  0  0  0  0  0
  -26.7199  -29.5837   23.2175 O   0  0  0  0  0  0  0  0  0  0  0  0
  -31.8293  -14.9730   20.2073 O   0  0  0  0  0  0  0  0  0  0  0  0
  -21.6373   -6.9996   21.7920 O   0  0  0  0  0  0  0  0  0  0  0  0
  -31.0862  -24.8225   25.3666 O   0  0  0  0  0  0  0  0  0  1  0  0
  -16.5088   -6.7027   19.7886 F   0  0  0  0  0  0  0  0  0  0  0  0
  -20.9103   -4.9810   20.0486 F   0  0  0  0  0  0  0  0  0  0  0  0
  -29.4184  -17.9528   22.8002 S   0  0  0  0  0  0  0  0  0  0  0  0
  1  2  1  0  0  0  0
  1  5  2  0  0  0  0
  2  6  2  0  0  0  0
  3  8  2  0  0  0  0
  3 16  1  0  0  0  0
  4  9  1  0  0  0  0
  4 16  2  0  0  0  0
  5 18  1  0  0  0  0
  6 20  1  0  0  0  0
  7 10  2  0  0  0  0
  7 19  1  0  0  0  0
  8 22  1  0  0  0  0
  9 22  2  0  0  0  0
 10 23  1  0  0  0  0
 11 12  2  0  0  0  0
 11 24  1  0  0  0  0
 12 25  1  0  0  0  0
 13 21  1  0  0  0  0
 13 23  2  0  0  0  0
 14 25  2  0  0  0  0
 14 26  1  0  0  0  0
 15 29  2  0  0  0  0
 15 59  1  0  0  0  0
 16 27  1  0  0  0  0
 17 27  1  0  0  0  0
 17 28  2  0  0  0  0
 17 31  1  0  0  0  0
 18 20  2  0  0  0  0
 18 37  1  0  0  0  0
 19 21  2  0  0  0  0
 19 38  1  0  0  0  0
 20 46  1  0  0  0  0
 21 39  1  0  0  0  0
 22 77  1  0  0  0  0
 23 78  1  0  0  0  0
 24 26  2  0  0  0  0
 24 77  1  0  0  0  0
 25 79  1  0  0  0  0
 26 80  1  0  0  0  0
 27 60  2  0  0  0  0
 28 61  1  0  0  0  0
 28 64  1  0  0  0  0
 29 66  1  0  0  0  0
 29 81  1  0  0  0  0
 30 59  2  0  0  0  0
 30 67  1  0  0  0  0
 30 81  1  0  0  0  0
 31 65  1  0  0  0  0
 31 71  2  0  0  0  0
 32 47  1  0  0  0  0
 32 68  1  0  0  0  0
 32 72  2  0  0  0  0
 33 54  1  0  0  0  0
 33 55  1  0  0  0  0
 33 73  2  0  0  0  0
 34 56  1  0  0  0  0
 34 62  1  0  0  0  0
 34 74  2  0  0  0  0
 35 57  1  0  0  0  0
 35 69  1  0  0  0  0
 35 75  2  0  0  0  0
 36 63  1  0  0  0  0
 36 67  1  0  0  0  0
 36 76  2  0  0  0  0
 37 40  1  0  0  0  0
 38 47  1  0  0  0  0
 39 62  1  0  0  0  0
 40 42  1  0  0  0  0
 41 43  1  0  0  0  0
 41 44  1  0  0  0  0
 42 46  1  0  0  0  0
 43 48  1  0  0  0  0
 44 63  1  0  0  0  0
 45 48  1  0  0  0  0
 45 63  1  0  0  0  0
 46 68  1  0  0  0  0
 47 62  1  0  0  0  0
 48 61  1  0  0  0  0
 49 57  1  0  0  0  0
 50 58  1  0  0  0  0
 51 58  1  0  0  0  0
 52 58  1  0  0  0  0
 53 70  1  0  0  0  0
 54 66  1  0  0  0  0
 55 78  1  0  0  0  0
 56 58  1  0  0  0  0
 56 69  1  0  0  0  0
 57 70  1  0  0  0  0
 60 61  1  0  0  0  0
M  CHG  1  70   1
M  ISO  4  36 100  55 101  67 100  78 101
M  END
> <Batch ID>
0161

> <Smiles>
CNC(C)C(=O)NC(C(=O)N1Cc2cc([101O:1][101CH2:1]C(=O)CNc3cnc([100NH:0][100C:0](=O)N4CCCC(n5nc(-c6ccc(Oc7ccc(F)cc7F)cc6)c(C(N)=O)c5N)C4)s3)ccc2CC1C(=O)NC1CCCc2ccccc21)C(C)(C)C

> <Shape>
0.228

> <Color>
0.189

> <Negative vol penalty>
0.000

$$$$

  -OEChem-04052303533D

 88 96  0     1  0  0  0  0  0999 V2000
  -23.4752   -7.9983   22.0154 C   0  0  0  0  0  0  0  0  0  0  0  0
  -24.3527   -9.0213   21.6709 C   0  0  0  0  0  0  0  0  0  0  0  0
  -19.5278  -28.5279   23.5596 C   0  0  0  0  0  0  0  0  0  0  0  0
  -20.6967  -26.7180   22.4665 C   0  0  0  0  0  0  0  0  0  0  0  0
  -22.0987   -8.2114   21.9527 C   0  0  0  0  0  0  0  0  0  0  0  0
  -23.8542  -10.2579   21.2623 C   0  0  0  0  0  0  0  0  0  0  0  0
  -26.3180  -15.7596   22.3424 C   0  0  0  0  0  0  0  0  0  0  0  0
  -18.3601  -28.1855   22.8779 C   0  0  0  0  0  0  0  0  0  0  0  0
  -19.5290  -26.3755   21.7848 C   0  0  0  0  0  0  0  0  0  0  0  0
  -27.1153  -16.5991   21.5657 C   0  0  0  0  0  0  0  0  0  0  0  0
  -16.6577  -24.7190   22.4423 C   0  0  0  0  0  0  0  0  0  0  0  0
  -16.3158  -23.3680   22.3836 C   0  0  0  0  0  0  0  0  0  0  0  0
  -25.1505  -17.8162   20.8750 C   0  0  0  0  0  0  0  0  0  0  0  0
  -29.9819  -29.4267   20.5801 C   0  0  0  0  0  0  0  0  0  0  0  0
  -28.7487  -27.3503   20.5144 C   0  0  0  0  0  0  0  0  0  0  0  0
  -16.4212  -23.4462   19.9711 C   0  0  0  0  0  0  0  0  0  0  0  0
  -20.6962  -27.7942   23.3539 C   0  0  0  0  0  0  0  0  0  0  0  0
  -22.3289  -27.6663   25.3098 C   0  0  0  0  0  0  0  0  0  0  0  0
  -21.5832   -9.4542   21.5524 C   0  0  0  0  0  0  0  0  0  0  0  0
  -24.9274  -15.9356   22.3827 C   0  0  0  0  0  0  0  0  0  0  0  0
  -22.4696  -10.4874   21.1928 C   0  0  0  0  0  0  0  0  0  0  0  0
  -24.3380  -16.9792   21.6550 C   0  0  0  0  0  0  0  0  0  0  0  0
  -31.0636  -28.8040   19.9574 C   0  0  0  0  0  0  0  0  0  0  0  0
  -30.9879  -27.4544   19.6132 C   0  0  0  0  0  0  0  0  0  0  0  0
  -28.8244  -28.6999   20.8586 C   0  0  0  0  0  0  0  0  0  0  0  0
  -29.8304  -26.7275   19.8918 C   0  0  0  0  0  0  0  0  0  0  0  0
  -18.3606  -27.1093   21.9905 C   0  0  0  0  0  0  0  0  0  0  0  0
  -26.5313  -17.6258   20.8296 C   0  0  0  0  0  0  0  0  0  0  0  0
  -16.8812  -25.4337   21.2654 C   0  0  0  0  0  0  0  0  0  0  0  0
  -16.1976  -22.7315   21.1480 C   0  0  0  0  0  0  0  0  0  0  0  0
  -16.7630  -24.7972   20.0298 C   0  0  0  0  0  0  0  0  0  0  0  0
  -21.9029  -28.1478   24.0574 C   0  0  0  0  0  0  0  0  0  0  0  0
  -23.5253  -28.3027   25.5335 C   0  0  0  0  0  0  0  0  0  0  0  0
  -21.6995  -26.7275   26.1920 C   0  0  0  0  0  0  0  0  0  0  0  0
  -22.4175  -14.1627   21.5696 C   0  0  0  0  0  0  0  0  0  0  0  0
  -28.8109  -23.1589   19.3254 C   0  0  0  0  0  0  0  0  0  0  0  0
  -28.0188  -20.7359   19.7178 C   0  0  0  0  0  0  0  0  0  0  0  0
  -20.7527  -16.5920   22.9295 C   0  0  0  0  0  0  0  0  0  0  0  0
  -20.6495  -19.8788   23.8425 C   0  0  0  0  0  0  0  0  0  0  0  0
  -27.6357  -30.6640   21.8956 C   0  0  0  0  0  0  0  0  0  0  0  0
  -20.0876   -9.6223   21.4547 C   0  0  0  0  0  0  0  0  0  0  0  0
  -24.0841  -15.0382   23.2465 C   0  0  0  0  0  0  0  0  0  0  0  0
  -22.8519  -17.2230   21.6803 C   0  0  0  0  0  0  0  0  0  0  0  0
  -19.6426  -11.0801   21.3712 C   0  0  0  0  0  0  0  0  0  0  0  0
  -25.8685  -32.3465   24.4886 C   0  0  0  0  0  0  0  0  0  0  0  0
  -20.4906  -11.8398   20.3560 C   0  0  0  0  0  0  0  0  0  0  0  0
  -24.6932  -31.4140   24.7904 C   0  0  0  0  0  0  0  0  0  0  0  0
  -26.2053  -32.3705   22.9987 C   0  0  0  0  0  0  0  0  0  0  0  0
  -25.2517  -30.1197   22.6928 C   0  0  0  0  0  0  0  0  0  0  0  0
  -21.9674  -11.8504   20.7686 C   0  0  1  0  0  0  0  0  0  0  0  0
  -22.6236  -14.9875   22.8085 C   0  0  1  0  0  0  0  0  0  0  0  0
  -24.9171  -30.0124   24.1896 C   0  0  2  0  0  0  0  0  0  0  0  0
  -32.2918  -29.6046   19.6716 C   0  0  0  0  0  0  0  0  0  0  0  0
  -32.9470  -25.9181   19.9098 C   0  0  0  0  0  0  0  0  0  0  0  0
  -19.1411  -21.5832   24.8993 C   0  0  0  0  0  0  0  0  0  0  0  0
  -19.1544  -16.7813   20.3373 C   0  0  0  0  0  0  0  0  0  0  0  0
  -18.3602  -19.0387   21.0735 C   0  0  0  0  0  0  0  0  0  0  0  0
  -17.7931  -17.0180   22.4218 C   0  0  0  0  0  0  0  0  0  0  0  0
  -22.5383  -20.3367   26.0744 C   0  0  0  0  0  0  0  0  0  0  0  0
  -32.1506  -26.7898   18.9454 C   0  0  0  0  0  0  0  0  0  0  0  0
  -27.6571  -22.1959   19.5311 C   0  0  0  0  0  0  0  0  0  0  0  0
  -28.5732  -24.5736   19.8142 C   0  0  0  0  0  0  0  0  0  0  0  0
  -26.8493  -19.7851   19.8849 C   0  0  0  0  0  0  0  0  0  1  0  0
  -20.1652  -17.8926   22.4371 C   0  0  1  0  0  0  0  0  0  0  0  0
  -20.2328  -20.5518   25.1378 C   0  0  2  0  0  0  0  0  0  0  0  0
  -18.8961  -17.6771   21.5652 C   0  0  0  0  0  0  0  0  0  0  0  0
  -22.7590  -29.0227   23.5230 N   0  0  0  0  0  0  0  0  0  0  0  0
  -23.7348  -29.0961   24.4440 N   0  0  0  0  0  0  0  0  0  0  0  0
  -22.0693  -16.3149   22.5349 N   0  0  0  0  0  0  0  0  0  0  0  0
  -26.4082  -31.0085   22.5000 N   0  0  0  0  0  0  0  0  0  0  0  0
  -24.4080  -28.2556   26.5538 N   0  0  0  0  0  0  0  0  0  0  0  0
  -20.4731  -26.1684   25.8079 N   0  0  0  0  0  0  0  0  0  0  0  0
  -27.7250  -29.3329   21.4898 N   0  0  0  0  0  0  0  0  0  0  0  0
  -29.7360  -25.3843   19.5570 N   0  0  0  0  0  0  0  0  0  0  0  0
  -22.1922  -12.8221   21.8173 N   0  0  0  0  0  0  0  0  0  0  0  0
  -19.9439  -18.7149   23.6217 N   0  0  0  0  0  0  0  0  0  0  0  0
  -21.3987  -21.2375   25.7636 N   0  3  0  0  0  0  0  0  0  0  0  0
  -22.2016  -26.4069   27.2959 O   0  0  0  0  0  0  0  0  0  0  0  0
  -22.4583  -14.7029   20.4704 O   0  0  0  0  0  0  0  0  0  0  0  0
  -29.8529  -22.8242   18.7637 O   0  0  0  0  0  0  0  0  0  0  0  0
  -29.1827  -20.3420   19.7696 O   0  0  0  0  0  0  0  0  0  0  0  0
  -20.0711  -15.8527   23.6440 O   0  0  0  0  0  0  0  0  0  0  0  0
  -21.5118  -20.3414   23.0989 O   0  0  0  0  0  0  0  0  0  0  0  0
  -28.5510  -31.4821   21.7734 O   0  0  0  0  0  0  0  0  0  0  0  0
  -17.2213  -26.7747   21.3253 O   0  0  0  0  0  0  0  0  0  0  0  0
  -27.3072  -18.4463   20.0702 O   0  0  0  0  0  0  0  0  0  1  0  0
  -15.8709  -21.4338   21.0919 F   0  0  0  0  0  0  0  0  0  0  0  0
  -16.9777  -25.4782   18.8958 F   0  0  0  0  0  0  0  0  0  0  0  0
  1  2  1  0  0  0  0
  1  5  2  0  0  0  0
  2  6  2  0  0  0  0
  3  8  2  0  0  0  0
  3 17  1  0  0  0  0
  4  9  1  0  0  0  0
  4 17  2  0  0  0  0
  5 19  1  0  0  0  0
  6 21  1  0  0  0  0
  7 10  2  0  0  0  0
  7 20  1  0  0  0  0
  8 27  1  0  0  0  0
  9 27  2  0  0  0  0
 10 28  1  0  0  0  0
 11 12  2  0  0  0  0
 11 29  1  0  0  0  0
 12 30  1  0  0  0  0
 13 22  1  0  0  0  0
 13 28  2  0  0  0  0
 14 23  2  0  0  0  0
 14 25  1  0  0  0  0
 15 25  2  0  0  0  0
 15 26  1  0  0  0  0
 16 30  2  0  0  0  0
 16 31  1  0  0  0  0
 17 32  1  0  0  0  0
 18 32  1  0  0  0  0
 18 33  2  0  0  0  0
 18 34  1  0  0  0  0
 19 21  2  0  0  0  0
 19 41  1  0  0  0  0
 20 22  2  0  0  0  0
 20 42  1  0  0  0  0
 21 50  1  0  0  0  0
 22 43  1  0  0  0  0
 23 24  1  0  0  0  0
 23 53  1  0  0  0  0
 24 26  2  0  0  0  0
 24 60  1  0  0  0  0
 25 73  1  0  0  0  0
 26 74  1  0  0  0  0
 27 85  1  0  0  0  0
 28 86  1  0  0  0  0
 29 31  2  0  0  0  0
 29 85  1  0  0  0  0
 30 87  1  0  0  0  0
 31 88  1  0  0  0  0
 32 67  2  0  0  0  0
 33 68  1  0  0  0  0
 33 71  1  0  0  0  0
 34 72  1  0  0  0  0
 34 78  2  0  0  0  0
 35 51  1  0  0  0  0
 35 75  1  0  0  0  0
 35 79  2  0  0  0  0
 36 61  1  0  0  0  0
 36 62  1  0  0  0  0
 36 80  2  0  0  0  0
 37 61  1  0  0  0  0
 37 63  1  0  0  0  0
 37 81  2  0  0  0  0
 38 64  1  0  0  0  0
 38 69  1  0  0  0  0
 38 82  2  0  0  0  0
 39 65  1  0  0  0  0
 39 76  1  0  0  0  0
 39 83  2  0  0  0  0
 40 70  1  0  0  0  0
 40 73  1  0  0  0  0
 40 84  2  0  0  0  0
 41 44  1  0  0  0  0
 42 51  1  0  0  0  0
 43 69  1  0  0  0  0
 44 46  1  0  0  0  0
 45 47  1  0  0  0  0
 45 48  1  0  0  0  0
 46 50  1  0  0  0  0
 47 52  1  0  0  0  0
 48 70  1  0  0  0  0
 49 52  1  0  0  0  0
 49 70  1  0  0  0  0
 50 75  1  0  0  0  0
 51 69  1  0  0  0  0
 52 68  1  0  0  0  0
 54 60  1  0  0  0  0
 55 65  1  0  0  0  0
 56 66  1  0  0  0  0
 57 66  1  0  0  0  0
 58 66  1  0  0  0  0
 59 77  1  0  0  0  0
 62 74  1  0  0  0  0
 63 86  1  0  0  0  0
 64 66  1  0  0  0  0
 64 76  1  0  0  0  0
 65 77  1  0  0  0  0
 67 68  1  0  0  0  0
M  CHG  1  77   1
M  ISO  4  40 100  63 101  73 100  86 101
M  END
> <Batch ID>
0161

> <Smiles>
CCc1c(C)cc([100NH:0][100C:0](=O)N2CCCC(n3nc(-c4ccc(Oc5ccc(F)cc5F)cc4)c(C(N)=O)c3N)C2)cc1NCC(=O)CC(=O)[101CH2:1][101O:1]c1ccc2c(c1)CN(C(=O)C(NC(=O)C(C)NC)C(C)(C)C)C(C(=O)NC1CCCc3ccccc31)C2

> <Shape>
0.225

> <Color>
0.105

> <Negative vol penalty>
0.000

$$$$

  -OEChem-04052303533D

 87 96  0     1  0  0  0  0  0999 V2000
  -16.1745  -30.2508   22.7662 C   0  0  0  0  0  0  0  0  0  0  0  0
  -16.9834  -30.3599   21.6396 C   0  0  0  0  0  0  0  0  0  0  0  0
  -23.8380  -12.1254   23.9761 C   0  0  0  0  0  0  0  0  0  0  0  0
  -24.7641  -14.3529   24.1086 C   0  0  0  0  0  0  0  0  0  0  0  0
  -16.6778  -30.5944   24.0202 C   0  0  0  0  0  0  0  0  0  0  0  0
  -18.2958  -30.8137   21.7663 C   0  0  0  0  0  0  0  0  0  0  0  0
  -24.9895  -27.4356   19.5733 C   0  0  0  0  0  0  0  0  0  0  0  0
  -23.4217  -12.2195   25.3041 C   0  0  0  0  0  0  0  0  0  0  0  0
  -24.3478  -14.4470   25.4366 C   0  0  0  0  0  0  0  0  0  0  0  0
  -26.2484  -26.8685   19.3734 C   0  0  0  0  0  0  0  0  0  0  0  0
  -20.8902  -13.6555   27.0251 C   0  0  0  0  0  0  0  0  0  0  0  0
  -19.5979  -13.2290   27.3310 C   0  0  0  0  0  0  0  0  0  0  0  0
  -27.1499  -28.2097   21.1725 C   0  0  0  0  0  0  0  0  0  0  0  0
  -20.5009  -11.5864   28.8554 C   0  0  0  0  0  0  0  0  0  0  0  0
  -31.5591  -18.0215   19.1935 C   0  0  0  0  0  0  0  0  0  0  0  0
  -29.3830  -18.8419   19.4126 C   0  0  0  0  0  0  0  0  0  0  0  0
  -24.5093  -13.1921   23.3784 C   0  0  0  0  0  0  0  0  0  0  0  0
  -24.1301  -12.8913   20.8738 C   0  0  0  0  0  0  0  0  0  0  0  0
  -18.0001  -31.0434   24.1636 C   0  0  0  0  0  0  0  0  0  0  0  0
  -24.8024  -28.3817   20.5849 C   0  0  0  0  0  0  0  0  0  0  0  0
  -18.8168  -31.1648   23.0232 C   0  0  0  0  0  0  0  0  0  0  0  0
  -25.8884  -28.7719   21.3856 C   0  0  0  0  0  0  0  0  0  0  0  0
  -30.2079  -17.7474   19.2519 C   0  0  0  0  0  0  0  0  0  0  0  0
  -23.6765  -13.3803   26.0343 C   0  0  0  0  0  0  0  0  0  0  0  0
  -27.3259  -27.2548   20.1709 C   0  0  0  0  0  0  0  0  0  0  0  0
  -21.9879  -13.0474   27.6342 C   0  0  0  0  0  0  0  0  0  0  0  0
  -19.4032  -12.1945   28.2462 C   0  0  0  0  0  0  0  0  0  0  0  0
  -21.7932  -12.0129   28.5494 C   0  0  0  0  0  0  0  0  0  0  0  0
  -24.9401  -13.0954   22.0069 C   0  0  0  0  0  0  0  0  0  0  0  0
  -25.0111  -12.8756   19.8202 C   0  0  0  0  0  0  0  0  0  0  0  0
  -31.1692  -20.2475   19.4385 C   0  0  0  0  0  0  0  0  0  0  0  0
  -22.7083  -12.7303   20.7818 C   0  0  0  0  0  0  0  0  0  0  0  0
  -22.4197  -30.6576   22.3790 C   0  0  0  0  0  0  0  0  0  0  0  0
  -24.2362  -29.4087   24.5124 C   0  0  0  0  0  0  0  0  0  0  0  0
  -25.5762  -28.1184   27.3719 C   0  0  0  0  0  0  0  0  0  0  0  0
  -30.4316  -15.2512   18.9959 C   0  0  0  0  0  0  0  0  0  0  0  0
  -18.4848  -31.4481   25.5333 C   0  0  0  0  0  0  0  0  0  0  0  0
  -23.4781  -29.0639   20.7957 C   0  0  0  0  0  0  0  0  0  0  0  0
  -25.6482  -29.8186   22.4390 C   0  0  0  0  0  0  0  0  0  0  0  0
  -20.0037  -31.5640   25.6322 C   0  0  0  0  0  0  0  0  0  0  0  0
  -29.5565  -11.8083   18.7551 C   0  0  0  0  0  0  0  0  0  0  0  0
  -20.5579  -32.3451   24.4450 C   0  0  0  0  0  0  0  0  0  0  0  0
  -28.1968  -11.7302   19.4532 C   0  0  0  0  0  0  0  0  0  0  0  0
  -31.5876  -23.9522   19.2489 C   0  0  0  0  0  0  0  0  0  0  0  0
  -30.3904  -22.8126   21.1602 C   0  0  0  0  0  0  0  0  0  0  0  0
  -30.7634  -25.2210   19.4860 C   0  0  0  0  0  0  0  0  0  0  0  0
  -29.5629  -24.0782   21.3998 C   0  0  0  0  0  0  0  0  0  0  0  0
  -30.4887  -12.8068   19.4392 C   0  0  0  0  0  0  0  0  0  0  0  0
  -28.5695  -14.0736   20.3231 C   0  0  0  0  0  0  0  0  0  0  0  0
  -20.2536  -31.6295   23.1233 C   0  0  1  0  0  0  0  0  0  0  0  0
  -23.1868  -29.3722   22.2754 C   0  0  1  0  0  0  0  0  0  0  0  0
  -27.5736  -13.1286   19.6312 C   0  0  2  0  0  0  0  0  0  0  0  0
  -30.8264  -22.7042   19.6987 C   0  0  0  0  0  0  0  0  0  0  0  0
  -30.2971  -25.3497   20.9443 C   0  0  0  0  0  0  0  0  0  0  0  0
  -25.9842  -28.6792   29.7836 C   0  0  0  0  0  0  0  0  0  0  0  0
  -26.5456  -31.2261   23.6952 C   0  0  0  0  0  0  0  0  0  0  0  0
  -27.4643  -30.9815   26.0113 C   0  0  0  0  0  0  0  0  0  0  0  0
  -25.2289  -32.0323   25.6626 C   0  0  0  0  0  0  0  0  0  0  0  0
  -23.9133  -25.8530   28.3003 C   0  0  0  0  0  0  0  0  0  0  0  0
  -31.1019  -25.6652   23.1295 C   0  0  0  0  0  0  0  0  0  0  0  0
  -29.4033  -26.5797   21.1123 C   0  0  0  0  0  0  0  0  0  1  0  0
  -25.4901  -29.5384   25.3395 C   0  0  1  0  0  0  0  0  0  0  0  0
  -25.0354  -28.0307   28.7876 C   0  0  2  0  0  0  0  0  0  0  0  0
  -26.1774  -30.9216   25.1610 C   0  0  0  0  0  0  0  0  0  0  0  0
  -32.0763  -19.2644   19.2838 N   0  0  0  0  0  0  0  0  0  0  0  0
  -29.8314  -20.1107   19.5099 N   0  0  0  0  0  0  0  0  0  0  0  0
  -26.2362  -13.2016   21.7018 N   0  0  0  0  0  0  0  0  0  0  0  0
  -26.2472  -13.0636   20.3651 N   0  0  0  0  0  0  0  0  0  0  0  0
  -24.3744  -29.5559   23.1268 N   0  0  0  0  0  0  0  0  0  0  0  0
  -29.8328  -14.1097   19.5696 N   0  0  0  0  0  0  0  0  0  0  0  0
  -24.8413  -12.7194   18.4901 N   0  0  0  0  0  0  0  0  0  0  0  0
  -21.9534  -12.7726   21.9619 N   0  0  0  0  0  0  0  0  0  0  0  0
  -29.7005  -16.4278   19.1559 N   0  0  0  0  0  0  0  0  0  0  0  0
  -31.6639  -21.5359   19.5322 N   0  0  0  0  0  0  0  0  0  0  0  0
  -21.1601  -30.5181   22.9299 N   0  0  0  0  0  0  0  0  0  0  0  0
  -25.1058  -29.2351   26.7138 N   0  0  0  0  0  0  0  0  0  0  0  0
  -24.8427  -26.6063   29.1812 N   0  3  0  0  0  0  0  0  0  0  0  0
  -22.1264  -12.5377   19.6873 O   0  0  0  0  0  0  0  0  0  0  0  0
  -22.9324  -31.7002   21.9897 O   0  0  0  0  0  0  0  0  0  0  0  0
  -23.1612  -29.1884   25.0772 O   0  0  0  0  0  0  0  0  0  0  0  0
  -26.3423  -27.2821   26.8985 O   0  0  0  0  0  0  0  0  0  0  0  0
  -31.5000  -15.1846   18.3827 O   0  0  0  0  0  0  0  0  0  0  0  0
  -23.2702  -13.4725   27.3300 O   0  0  0  0  0  0  0  0  0  0  0  0
  -28.5511  -26.6940   19.9734 O   0  0  0  0  0  0  0  0  0  1  0  0
  -31.4555  -25.5377   21.7625 O   0  0  0  0  0  0  0  0  0  0  0  0
  -18.1621  -11.7861   28.5411 F   0  0  0  0  0  0  0  0  0  0  0  0
  -22.8438  -11.4257   29.1387 F   0  0  0  0  0  0  0  0  0  0  0  0
  1  2  1  0  0  0  0
  1  5  2  0  0  0  0
  2  6  2  0  0  0  0
  3  8  2  0  0  0  0
  3 17  1  0  0  0  0
  4  9  1  0  0  0  0
  4 17  2  0  0  0  0
  5 19  1  0  0  0  0
  6 21  1  0  0  0  0
  7 10  2  0  0  0  0
  7 20  1  0  0  0  0
  8 24  1  0  0  0  0
  9 24  2  0  0  0  0
 10 25  1  0  0  0  0
 11 12  2  0  0  0  0
 11 26  1  0  0  0  0
 12 27  1  0  0  0  0
 13 22  1  0  0  0  0
 13 25  2  0  0  0  0
 14 27  2  0  0  0  0
 14 28  1  0  0  0  0
 15 23  1  0  0  0  0
 15 65  2  0  0  0  0
 16 23  2  0  0  0  0
 16 66  1  0  0  0  0
 17 29  1  0  0  0  0
 18 29  1  0  0  0  0
 18 30  2  0  0  0  0
 18 32  1  0  0  0  0
 19 21  2  0  0  0  0
 19 37  1  0  0  0  0
 20 22  2  0  0  0  0
 20 38  1  0  0  0  0
 21 50  1  0  0  0  0
 22 39  1  0  0  0  0
 23 73  1  0  0  0  0
 24 83  1  0  0  0  0
 25 84  1  0  0  0  0
 26 28  2  0  0  0  0
 26 83  1  0  0  0  0
 27 86  1  0  0  0  0
 28 87  1  0  0  0  0
 29 67  2  0  0  0  0
 30 68  1  0  0  0  0
 30 71  1  0  0  0  0
 31 65  1  0  0  0  0
 31 66  2  0  0  0  0
 31 74  1  0  0  0  0
 32 72  1  0  0  0  0
 32 78  2  0  0  0  0
 33 51  1  0  0  0  0
 33 75  1  0  0  0  0
 33 79  2  0  0  0  0
 34 62  1  0  0  0  0
 34 69  1  0  0  0  0
 34 80  2  0  0  0  0
 35 63  1  0  0  0  0
 35 76  1  0  0  0  0
 35 81  2  0  0  0  0
 36 70  1  0  0  0  0
 36 73  1  0  0  0  0
 36 82  2  0  0  0  0
 37 40  1  0  0  0  0
 38 51  1  0  0  0  0
 39 69  1  0  0  0  0
 40 42  1  0  0  0  0
 41 43  1  0  0  0  0
 41 48  1  0  0  0  0
 42 50  1  0  0  0  0
 43 52  1  0  0  0  0
 44 46  1  0  0  0  0
 44 53  1  0  0  0  0
 45 47  1  0  0  0  0
 45 53  1  0  0  0  0
 46 54  1  0  0  0  0
 47 54  1  0  0  0  0
 48 70  1  0  0  0  0
 49 52  1  0  0  0  0
 49 70  1  0  0  0  0
 50 75  1  0  0  0  0
 51 69  1  0  0  0  0
 52 68  1  0  0  0  0
 53 74  1  0  0  0  0
 54 61  1  0  0  0  0
 54 85  1  0  0  0  0
 55 63  1  0  0  0  0
 56 64  1  0  0  0  0
 57 64  1  0  0  0  0
 58 64  1  0  0  0  0
 59 77  1  0  0  0  0
 60 85  1  0  0  0  0
 61 84  1  0  0  0  0
 62 64  1  0  0  0  0
 62 76  1  0  0  0  0
 63 77  1  0  0  0  0
 67 68  1  0  0  0  0
M  CHG  1  77   1
M  ISO  4  36 100  61 101  73 100  84 101
M  END
> <Batch ID>
0161

> <Smiles>
CNC(C)C(=O)NC(C(=O)N1Cc2cc([101O:1][101CH2:1]C3(OC)CCC(Nc4ncc([100NH:0][100C:0](=O)N5CCCC(n6nc(-c7ccc(Oc8ccc(F)cc8F)cc7)c(C(N)=O)c6N)C5)cn4)CC3)ccc2CC1C(=O)NC1CCCc2ccccc21)C(C)(C)C

> <Shape>
0.259

> <Color>
0.126

> <Negative vol penalty>
0.000

$$$$

  -OEChem-04052303533D

 84 93  0     1  0  0  0  0  0999 V2000
  -26.4557  -37.2298   23.3069 C   0  0  0  0  0  0  0  0  0  0  0  0
  -26.9002  -35.9793   23.7241 C   0  0  0  0  0  0  0  0  0  0  0  0
  -32.0621  -19.0678   17.7235 C   0  0  0  0  0  0  0  0  0  0  0  0
  -23.7395  -12.5121   23.9698 C   0  0  0  0  0  0  0  0  0  0  0  0
  -24.8098  -14.6719   24.1331 C   0  0  0  0  0  0  0  0  0  0  0  0
  -25.1209  -37.4093   22.9463 C   0  0  0  0  0  0  0  0  0  0  0  0
  -26.0099  -34.9077   23.7819 C   0  0  0  0  0  0  0  0  0  0  0  0
  -31.2812  -20.1996   17.9577 C   0  0  0  0  0  0  0  0  0  0  0  0
  -27.1858  -28.9004   19.9844 C   0  0  0  0  0  0  0  0  0  0  0  0
  -31.6295  -17.8180   18.1668 C   0  0  0  0  0  0  0  0  0  0  0  0
  -23.3028  -12.6287   25.2893 C   0  0  0  0  0  0  0  0  0  0  0  0
  -24.3730  -14.7886   25.4526 C   0  0  0  0  0  0  0  0  0  0  0  0
  -27.4490  -27.6378   19.4527 C   0  0  0  0  0  0  0  0  0  0  0  0
  -25.2778  -13.6104   28.4897 C   0  0  0  0  0  0  0  0  0  0  0  0
  -26.1960  -14.0592   29.4390 C   0  0  0  0  0  0  0  0  0  0  0  0
  -29.6351  -18.8318   19.0788 C   0  0  0  0  0  0  0  0  0  0  0  0
  -25.3311  -26.8298   20.2950 C   0  0  0  0  0  0  0  0  0  0  0  0
  -24.7668  -15.9443   29.9300 C   0  0  0  0  0  0  0  0  0  0  0  0
  -24.4931  -13.5337   23.3916 C   0  0  0  0  0  0  0  0  0  0  0  0
  -24.1470  -13.2687   20.8781 C   0  0  0  0  0  0  0  0  0  0  0  0
  -30.0677  -20.0816   18.6354 C   0  0  0  0  0  0  0  0  0  0  0  0
  -24.2159  -36.3370   22.9905 C   0  0  0  0  0  0  0  0  0  0  0  0
  -25.9859  -29.1369   20.6609 C   0  0  0  0  0  0  0  0  0  0  0  0
  -24.6614  -35.0733   23.4228 C   0  0  0  0  0  0  0  0  0  0  0  0
  -25.0564  -28.0958   20.8189 C   0  0  0  0  0  0  0  0  0  0  0  0
  -30.4160  -17.7000   18.8445 C   0  0  0  0  0  0  0  0  0  0  0  0
  -23.6195  -13.7670   26.0307 C   0  0  0  0  0  0  0  0  0  0  0  0
  -26.5241  -26.6050   19.6079 C   0  0  0  0  0  0  0  0  0  0  0  0
  -24.1042  -14.3286   28.2605 C   0  0  0  0  0  0  0  0  0  0  0  0
  -25.9405  -15.2261   30.1592 C   0  0  0  0  0  0  0  0  0  0  0  0
  -23.8487  -15.4955   28.9807 C   0  0  0  0  0  0  0  0  0  0  0  0
  -24.9450  -13.4136   22.0288 C   0  0  0  0  0  0  0  0  0  0  0  0
  -25.0468  -13.1981   19.8429 C   0  0  0  0  0  0  0  0  0  0  0  0
  -27.1603  -23.0839   19.5357 C   0  0  0  0  0  0  0  0  0  0  0  0
  -22.7199  -13.2038   20.7561 C   0  0  0  0  0  0  0  0  0  0  0  0
  -23.8235  -31.5976   22.4898 C   0  0  0  0  0  0  0  0  0  0  0  0
  -21.9633  -29.9219   20.7172 C   0  0  0  0  0  0  0  0  0  0  0  0
  -19.4359  -28.7650   18.7396 C   0  0  0  0  0  0  0  0  0  0  0  0
  -30.6304  -15.2077   19.1430 C   0  0  0  0  0  0  0  0  0  0  0  0
  -22.7720  -36.5907   22.6363 C   0  0  0  0  0  0  0  0  0  0  0  0
  -25.6875  -30.4644   21.3032 C   0  0  0  0  0  0  0  0  0  0  0  0
  -23.7943  -28.3868   21.5840 C   0  0  0  0  0  0  0  0  0  0  0  0
  -28.2679  -22.8940   20.5490 C   0  0  0  0  0  0  0  0  0  0  0  0
  -21.9777  -35.3151   22.3674 C   0  0  0  0  0  0  0  0  0  0  0  0
  -29.0080  -21.5810   20.3795 C   0  0  0  0  0  0  0  0  0  0  0  0
  -29.5318  -11.8323   18.8660 C   0  0  0  0  0  0  0  0  0  0  0  0
  -22.2506  -34.2777   23.4518 C   0  0  0  0  0  0  0  0  0  0  0  0
  -28.1556  -11.8429   19.5355 C   0  0  0  0  0  0  0  0  0  0  0  0
  -27.8471  -21.2110   18.2178 C   0  0  0  0  0  0  0  0  0  0  0  0
  -30.5142  -12.7633   19.5744 C   0  0  0  0  0  0  0  0  0  0  0  0
  -28.6662  -14.1525   20.4253 C   0  0  0  0  0  0  0  0  0  0  0  0
  -29.2189  -21.3126   18.8898 C   0  0  2  0  0  0  0  0  0  0  0  0
  -23.7316  -33.8805   23.4751 C   0  0  1  0  0  0  0  0  0  0  0  0
  -24.1954  -30.8387   21.2500 C   0  0  1  0  0  0  0  0  0  0  0  0
  -27.6239  -13.2792   19.7081 C   0  0  2  0  0  0  0  0  0  0  0  0
  -16.9417  -28.4933   18.6882 C   0  0  0  0  0  0  0  0  0  0  0  0
  -22.1861  -27.5504   22.6225 C   0  0  0  0  0  0  0  0  0  0  0  0
  -19.9530  -26.7715   21.8010 C   0  0  0  0  0  0  0  0  0  0  0  0
  -20.1561  -28.9719   22.9585 C   0  0  0  0  0  0  0  0  0  0  0  0
  -19.1794  -30.5022   16.3573 C   0  0  0  0  0  0  0  0  0  0  0  0
  -26.2299  -24.2496   19.7598 C   0  0  0  0  0  0  0  0  0  1  0  0
  -21.0625  -28.7174   20.6121 C   0  0  1  0  0  0  0  0  0  0  0  0
  -18.1158  -29.3886   18.3239 C   0  0  2  0  0  0  0  0  0  0  0  0
  -20.8609  -28.0070   21.9803 C   0  0  0  0  0  0  0  0  0  0  0  0
  -26.2514  -13.4338   21.7510 N   0  0  0  0  0  0  0  0  0  0  0  0
  -26.9843  -22.3625   18.4845 N   0  0  0  0  0  0  0  0  0  0  0  0
  -26.2810  -13.3006   20.4141 N   0  0  0  0  0  0  0  0  0  0  0  0
  -23.2616  -29.7013   21.1930 N   0  0  0  0  0  0  0  0  0  0  0  0
  -29.9445  -14.1068   19.6982 N   0  0  0  0  0  0  0  0  0  0  0  0
  -24.8947  -13.0588   18.5087 N   0  0  0  0  0  0  0  0  0  0  0  0
  -21.9450  -13.2921   21.9206 N   0  0  0  0  0  0  0  0  0  0  0  0
  -29.9766  -16.4301   19.2941 N   0  0  0  0  0  0  0  0  0  0  0  0
  -24.0254  -32.9614   22.3965 N   0  0  0  0  0  0  0  0  0  0  0  0
  -19.8266  -29.1847   19.9936 N   0  0  0  0  0  0  0  0  0  0  0  0
  -18.0924  -29.6185   16.8516 N   0  3  0  0  0  0  0  0  0  0  0  0
  -22.1494  -13.0550   19.6489 O   0  0  0  0  0  0  0  0  0  0  0  0
  -23.3840  -30.9917   23.4601 O   0  0  0  0  0  0  0  0  0  0  0  0
  -21.5285  -31.0304   20.3924 O   0  0  0  0  0  0  0  0  0  0  0  0
  -20.0565  -27.9808   18.0250 O   0  0  0  0  0  0  0  0  0  0  0  0
  -31.7045  -15.0720   18.5515 O   0  0  0  0  0  0  0  0  0  0  0  0
  -23.1933  -13.8812   27.3183 O   0  0  0  0  0  0  0  0  0  0  0  0
  -26.7854  -25.3761   19.0824 O   0  0  0  0  0  0  0  0  0  1  0  0
  -26.8216  -15.6562   31.0718 F   0  0  0  0  0  0  0  0  0  0  0  0
  -22.7223  -16.1890   28.7658 F   0  0  0  0  0  0  0  0  0  0  0  0
  1  2  1  0  0  0  0
  1  6  2  0  0  0  0
  2  7  2  0  0  0  0
  3  8  2  0  0  0  0
  3 10  1  0  0  0  0
  4 11  2  0  0  0  0
  4 19  1  0  0  0  0
  5 12  1  0  0  0  0
  5 19  2  0  0  0  0
  6 22  1  0  0  0  0
  7 24  1  0  0  0  0
  8 21  1  0  0  0  0
  9 13  2  0  0  0  0
  9 23  1  0  0  0  0
 10 26  2  0  0  0  0
 11 27  1  0  0  0  0
 12 27  2  0  0  0  0
 13 28  1  0  0  0  0
 14 15  2  0  0  0  0
 14 29  1  0  0  0  0
 15 30  1  0  0  0  0
 16 21  2  0  0  0  0
 16 26  1  0  0  0  0
 17 25  1  0  0  0  0
 17 28  2  0  0  0  0
 18 30  2  0  0  0  0
 18 31  1  0  0  0  0
 19 32  1  0  0  0  0
 20 32  1  0  0  0  0
 20 33  2  0  0  0  0
 20 35  1  0  0  0  0
 21 52  1  0  0  0  0
 22 24  2  0  0  0  0
 22 40  1  0  0  0  0
 23 25  2  0  0  0  0
 23 41  1  0  0  0  0
 24 53  1  0  0  0  0
 25 42  1  0  0  0  0
 26 72  1  0  0  0  0
 27 81  1  0  0  0  0
 28 82  1  0  0  0  0
 29 31  2  0  0  0  0
 29 81  1  0  0  0  0
 30 83  1  0  0  0  0
 31 84  1  0  0  0  0
 32 65  2  0  0  0  0
 33 67  1  0  0  0  0
 33 70  1  0  0  0  0
 34 43  1  0  0  0  0
 34 61  1  0  0  0  0
 34 66  2  0  0  0  0
 35 71  1  0  0  0  0
 35 76  2  0  0  0  0
 36 54  1  0  0  0  0
 36 73  1  0  0  0  0
 36 77  2  0  0  0  0
 37 62  1  0  0  0  0
 37 68  1  0  0  0  0
 37 78  2  0  0  0  0
 38 63  1  0  0  0  0
 38 74  1  0  0  0  0
 38 79  2  0  0  0  0
 39 69  1  0  0  0  0
 39 72  1  0  0  0  0
 39 80  2  0  0  0  0
 40 44  1  0  0  0  0
 41 54  1  0  0  0  0
 42 68  1  0  0  0  0
 43 45  1  0  0  0  0
 44 47  1  0  0  0  0
 45 52  1  0  0  0  0
 46 48  1  0  0  0  0
 46 50  1  0  0  0  0
 47 53  1  0  0  0  0
 48 55  1  0  0  0  0
 49 52  1  0  0  0  0
 49 66  1  0  0  0  0
 50 69  1  0  0  0  0
 51 55  1  0  0  0  0
 51 69  1  0  0  0  0
 53 73  1  0  0  0  0
 54 68  1  0  0  0  0
 55 67  1  0  0  0  0
 56 63  1  0  0  0  0
 57 64  1  0  0  0  0
 58 64  1  0  0  0  0
 59 64  1  0  0  0  0
 60 75  1  0  0  0  0
 61 82  1  0  0  0  0
 62 64  1  0  0  0  0
 62 74  1  0  0  0  0
 63 75  1  0  0  0  0
 65 67  1  0  0  0  0
M  CHG  1  75   1
M  ISO  4  39 100  61 101  72 100  82 101
M  END
> <Batch ID>
0161

> <Smiles>
CNC(C)C(=O)NC(C(=O)N1Cc2cc([101O:1][101CH2:1]C3=NCC(c4cccc([100NH:0][100C:0](=O)N5CCCC(n6nc(-c7ccc(Oc8ccc(F)cc8F)cc7)c(C(N)=O)c6N)C5)c4)CC3)ccc2CC1C(=O)NC1CCCc2ccccc21)C(C)(C)C

> <Shape>
0.262

> <Color>
0.080

> <Negative vol penalty>
0.000

$$$$

  -OEChem-04052303533D

 87 95  0     1  0  0  0  0  0999 V2000
  -22.3257  -30.9341   17.9674 C   0  0  0  0  0  0  0  0  0  0  0  0
  -23.5872  -31.2610   18.4543 C   0  0  0  0  0  0  0  0  0  0  0  0
  -22.9738   -9.9216   19.9976 C   0  0  0  0  0  0  0  0  0  0  0  0
  -23.7043   -9.9709   22.3000 C   0  0  0  0  0  0  0  0  0  0  0  0
  -21.6446  -29.8324   18.4834 C   0  0  0  0  0  0  0  0  0  0  0  0
  -24.1680  -30.4870   19.4583 C   0  0  0  0  0  0  0  0  0  0  0  0
  -31.0436  -26.7803   19.5701 C   0  0  0  0  0  0  0  0  0  0  0  0
  -22.1915   -8.7993   20.2698 C   0  0  0  0  0  0  0  0  0  0  0  0
  -22.9219   -8.8487   22.5723 C   0  0  0  0  0  0  0  0  0  0  0  0
  -32.1644  -25.9533   19.6483 C   0  0  0  0  0  0  0  0  0  0  0  0
  -23.1170   -5.5047   22.1128 C   0  0  0  0  0  0  0  0  0  0  0  0
  -23.6912   -4.4821   22.8677 C   0  0  0  0  0  0  0  0  0  0  0  0
  -31.0137  -24.5250   21.2243 C   0  0  0  0  0  0  0  0  0  0  0  0
  -21.9744   -4.7564   24.5453 C   0  0  0  0  0  0  0  0  0  0  0  0
  -23.7302  -10.5074   21.0127 C   0  0  0  0  0  0  0  0  0  0  0  0
  -24.1515  -13.0164   20.8261 C   0  0  0  0  0  0  0  0  0  0  0  0
  -22.2214  -29.0387   19.4874 C   0  0  0  0  0  0  0  0  0  0  0  0
  -29.8968  -26.4739   20.3078 C   0  0  0  0  0  0  0  0  0  0  0  0
  -23.4934  -29.3744   19.9891 C   0  0  0  0  0  0  0  0  0  0  0  0
  -29.8837  -25.3427   21.1404 C   0  0  0  0  0  0  0  0  0  0  0  0
  -22.1655   -8.2629   21.5571 C   0  0  0  0  0  0  0  0  0  0  0  0
  -32.1495  -24.8286   20.4735 C   0  0  0  0  0  0  0  0  0  0  0  0
  -21.9714   -6.1533   22.5742 C   0  0  0  0  0  0  0  0  0  0  0  0
  -23.1199   -4.1078   24.0840 C   0  0  0  0  0  0  0  0  0  0  0  0
  -21.4001   -5.7791   23.7904 C   0  0  0  0  0  0  0  0  0  0  0  0
  -24.5390  -11.6663   20.7320 C   0  0  0  0  0  0  0  0  0  0  0  0
  -31.9501  -18.5708   22.1738 C   0  0  0  0  0  0  0  0  0  0  0  0
  -30.8511  -18.9936   22.8918 C   0  0  0  0  0  0  0  0  0  0  0  0
  -25.2709  -13.7215   20.4568 C   0  0  0  0  0  0  0  0  0  0  0  0
  -30.6613  -16.8236   21.8635 C   0  0  0  0  0  0  0  0  0  0  0  0
  -22.8924  -13.5826   21.2130 C   0  0  0  0  0  0  0  0  0  0  0  0
  -26.3755  -27.4075   21.2047 C   0  0  0  0  0  0  0  0  0  0  0  0
  -33.9635  -22.3952   18.9558 C   0  0  0  0  0  0  0  0  0  0  0  0
  -26.4371  -24.3561   20.8958 C   0  0  0  0  0  0  0  0  0  0  0  0
  -33.3353  -21.7385   21.3383 C   0  0  0  0  0  0  0  0  0  0  0  0
  -26.8324  -21.0748   20.0508 C   0  0  0  0  0  0  0  0  0  0  0  0
  -30.7642  -14.6040   20.6765 C   0  0  0  0  0  0  0  0  0  0  0  0
  -21.4268  -27.8855   20.0473 C   0  0  0  0  0  0  0  0  0  0  0  0
  -28.6884  -27.3703   20.3016 C   0  0  0  0  0  0  0  0  0  0  0  0
  -28.6402  -25.0713   21.9423 C   0  0  0  0  0  0  0  0  0  0  0  0
  -22.2704  -26.8957   20.8466 C   0  0  0  0  0  0  0  0  0  0  0  0
  -29.6058  -12.1587   18.3621 C   0  0  0  0  0  0  0  0  0  0  0  0
  -23.1882  -27.6361   21.8142 C   0  0  0  0  0  0  0  0  0  0  0  0
  -28.1525  -11.9237   18.7801 C   0  0  0  0  0  0  0  0  0  0  0  0
  -30.5122  -12.3937   19.5692 C   0  0  0  0  0  0  0  0  0  0  0  0
  -28.6112  -13.2152   20.9034 C   0  0  0  0  0  0  0  0  0  0  0  0
  -24.1670  -28.5445   21.0604 C   0  0  1  0  0  0  0  0  0  0  0  0
  -27.3627  -26.5969   20.4175 C   0  0  1  0  0  0  0  0  0  0  0  0
  -27.6485  -13.0383   19.7178 C   0  0  2  0  0  0  0  0  0  0  0  0
  -30.6278  -20.2473   23.6391 C   0  0  0  0  0  0  0  0  0  0  0  0
  -36.0201  -23.5962   18.1971 C   0  0  0  0  0  0  0  0  0  0  0  0
  -36.1344  -21.1555   18.8146 C   0  0  0  0  0  0  0  0  0  0  0  0
  -25.5653  -18.9142   19.8959 C   0  0  0  0  0  0  0  0  0  0  0  0
  -26.5566  -24.0727   23.9305 C   0  0  0  0  0  0  0  0  0  0  0  0
  -26.1905  -21.6126   23.6442 C   0  0  0  0  0  0  0  0  0  0  0  0
  -24.4474  -23.2278   22.8858 C   0  0  0  0  0  0  0  0  0  0  0  0
  -27.3212  -20.8625   17.1396 C   0  0  0  0  0  0  0  0  0  0  0  0
  -33.2288  -19.3343   21.9835 C   0  0  0  0  0  0  0  0  0  0  0  0
  -33.0729  -22.6594   20.1578 C   0  0  1  0  0  0  0  0  0  1  0  0
  -35.4762  -22.5002   19.1078 C   0  0  0  0  0  0  0  0  0  0  0  0
  -26.5985  -23.0190   21.5738 C   0  0  1  0  0  0  0  0  0  0  0  0
  -26.0190  -20.1607   19.1522 C   0  0  2  0  0  0  0  0  0  0  0  0
  -25.9701  -22.9960   22.9958 C   0  0  0  0  0  0  0  0  0  0  0  0
  -25.8055  -11.5199   20.3338 N   0  0  0  0  0  0  0  0  0  0  0  0
  -31.8432  -17.3265   21.5838 N   0  0  0  0  0  0  0  0  0  0  0  0
  -33.4507  -22.0970   17.8043 N   0  0  0  0  0  0  0  0  0  0  0  0
  -26.2236  -12.7872   20.1745 N   0  0  0  0  0  0  0  0  0  0  0  0
  -27.4472  -25.3012   21.1126 N   0  0  0  0  0  0  0  0  0  0  0  0
  -29.9743  -13.4657   20.4095 N   0  0  0  0  0  0  0  0  0  0  0  0
  -25.5233  -15.0432   20.3491 N   0  0  0  0  0  0  0  0  0  0  0  0
  -21.8486  -12.7148   21.5620 N   0  0  0  0  0  0  0  0  0  0  0  0
  -30.1354  -15.5714   21.4596 N   0  0  0  0  0  0  0  0  0  0  0  0
  -25.2460  -27.7644   20.4932 N   0  0  0  0  0  0  0  0  0  0  0  0
  -33.0791  -20.4110   21.0315 N   0  0  0  0  0  0  0  0  0  0  0  0
  -26.0429  -22.0277   20.6589 N   0  0  0  0  0  0  0  0  0  0  0  0
  -26.8288  -19.7371   17.9751 N   0  3  0  0  0  0  0  0  0  0  0  0
  -22.6936  -14.8210   21.2324 O   0  0  0  0  0  0  0  0  0  0  0  0
  -26.6187  -27.6879   22.3726 O   0  0  0  0  0  0  0  0  0  0  0  0
  -25.4407  -24.5616   20.1970 O   0  0  0  0  0  0  0  0  0  0  0  0
  -33.7123  -22.1574   22.4301 O   0  0  0  0  0  0  0  0  0  0  0  0
  -28.0460  -20.9531   20.2013 O   0  0  0  0  0  0  0  0  0  0  0  0
  -31.9038  -14.7247   20.2197 O   0  0  0  0  0  0  0  0  0  0  0  0
  -21.4020   -7.1679   21.8232 O   0  0  0  0  0  0  0  0  0  0  0  0
  -33.2455  -24.0230   20.5417 O   0  0  0  0  0  0  0  0  0  1  0  0
  -23.6706   -3.1247   24.8081 F   0  0  0  0  0  0  0  0  0  0  0  0
  -20.2990   -6.3977   24.2383 F   0  0  0  0  0  0  0  0  0  0  0  0
  -29.6276  -17.7934   22.8309 S   0  0  0  0  0  0  0  0  0  0  0  0
  1  2  1  0  0  0  0
  1  5  2  0  0  0  0
  2  6  2  0  0  0  0
  3  8  2  0  0  0  0
  3 15  1  0  0  0  0
  4  9  1  0  0  0  0
  4 15  2  0  0  0  0
  5 17  1  0  0  0  0
  6 19  1  0  0  0  0
  7 10  2  0  0  0  0
  7 18  1  0  0  0  0
  8 21  1  0  0  0  0
  9 21  2  0  0  0  0
 10 22  1  0  0  0  0
 11 12  2  0  0  0  0
 11 23  1  0  0  0  0
 12 24  1  0  0  0  0
 13 20  1  0  0  0  0
 13 22  2  0  0  0  0
 14 24  2  0  0  0  0
 14 25  1  0  0  0  0
 15 26  1  0  0  0  0
 16 26  1  0  0  0  0
 16 29  2  0  0  0  0
 16 31  1  0  0  0  0
 17 19  2  0  0  0  0
 17 38  1  0  0  0  0
 18 20  2  0  0  0  0
 18 39  1  0  0  0  0
 19 47  1  0  0  0  0
 20 40  1  0  0  0  0
 21 83  1  0  0  0  0
 22 84  1  0  0  0  0
 23 25  2  0  0  0  0
 23 83  1  0  0  0  0
 24 85  1  0  0  0  0
 25 86  1  0  0  0  0
 26 64  2  0  0  0  0
 27 28  2  0  0  0  0
 27 58  1  0  0  0  0
 27 65  1  0  0  0  0
 28 50  1  0  0  0  0
 28 87  1  0  0  0  0
 29 67  1  0  0  0  0
 29 70  1  0  0  0  0
 30 65  2  0  0  0  0
 30 72  1  0  0  0  0
 30 87  1  0  0  0  0
 31 71  1  0  0  0  0
 31 77  2  0  0  0  0
 32 48  1  0  0  0  0
 32 73  1  0  0  0  0
 32 78  2  0  0  0  0
 33 59  1  0  0  0  0
 33 60  1  0  0  0  0
 33 66  2  0  0  0  0
 34 61  1  0  0  0  0
 34 68  1  0  0  0  0
 34 79  2  0  0  0  0
 35 59  1  0  0  0  0
 35 74  1  0  0  0  0
 35 80  2  0  0  0  0
 36 62  1  0  0  0  0
 36 75  1  0  0  0  0
 36 81  2  0  0  0  0
 37 69  1  0  0  0  0
 37 72  1  0  0  0  0
 37 82  2  0  0  0  0
 38 41  1  0  0  0  0
 39 48  1  0  0  0  0
 40 68  1  0  0  0  0
 41 43  1  0  0  0  0
 42 44  1  0  0  0  0
 42 45  1  0  0  0  0
 43 47  1  0  0  0  0
 44 49  1  0  0  0  0
 45 69  1  0  0  0  0
 46 49  1  0  0  0  0
 46 69  1  0  0  0  0
 47 73  1  0  0  0  0
 48 68  1  0  0  0  0
 49 67  1  0  0  0  0
 51 60  1  0  0  0  0
 52 60  1  0  0  0  0
 53 62  1  0  0  0  0
 54 63  1  0  0  0  0
 55 63  1  0  0  0  0
 56 63  1  0  0  0  0
 57 76  1  0  0  0  0
 58 74  1  0  0  0  0
 59 84  1  0  0  0  0
 61 63  1  0  0  0  0
 61 75  1  0  0  0  0
 62 76  1  0  0  0  0
 64 67  1  0  0  0  0
M  CHG  1  76   1
M  ISO  4  37 100  59 101  72 100  84 101
M  END
> <Batch ID>
0161

> <Smiles>
CNC(C)C(=O)NC(C(=O)N1Cc2cc([101O:1][101CH:1](C(=N)C(C)C)C(=O)NCc3nc([100NH:0][100C:0](=O)N4CCCC(n5nc(-c6ccc(Oc7ccc(F)cc7F)cc6)c(C(N)=O)c5N)C4)sc3C)ccc2CC1C(=O)NC1CCCc2ccccc21)C(C)(C)C

> <Shape>
0.276

> <Color>
0.185

> <Negative vol penalty>
0.000

$$$$

  -OEChem-04052303533D

 86 94  0     1  0  0  0  0  0999 V2000
  -17.2963  -25.0374   20.6957 C   0  0  0  0  0  0  0  0  0  0  0  0
  -18.5666  -24.7979   20.1815 C   0  0  0  0  0  0  0  0  0  0  0  0
  -27.1328  -14.7103   22.4538 C   0  0  0  0  0  0  0  0  0  0  0  0
  -26.7036  -15.7485   20.3149 C   0  0  0  0  0  0  0  0  0  0  0  0
  -17.1132  -26.0187   21.6692 C   0  0  0  0  0  0  0  0  0  0  0  0
  -19.6544  -25.5403   20.6396 C   0  0  0  0  0  0  0  0  0  0  0  0
  -23.7110  -22.6608   21.5868 C   0  0  0  0  0  0  0  0  0  0  0  0
  -25.9335  -14.0053   22.3524 C   0  0  0  0  0  0  0  0  0  0  0  0
  -25.5042  -15.0435   20.2134 C   0  0  0  0  0  0  0  0  0  0  0  0
  -24.4660  -22.2442   20.4912 C   0  0  0  0  0  0  0  0  0  0  0  0
  -23.1595  -11.6598   22.4892 C   0  0  0  0  0  0  0  0  0  0  0  0
  -23.1747  -10.3038   22.8155 C   0  0  0  0  0  0  0  0  0  0  0  0
  -29.7033  -25.6618   18.8780 C   0  0  0  0  0  0  0  0  0  0  0  0
  -29.9119  -25.0919   20.1566 C   0  0  0  0  0  0  0  0  0  0  0  0
  -26.0650  -23.9950   20.9350 C   0  0  0  0  0  0  0  0  0  0  0  0
  -24.8001   -9.9028   21.0736 C   0  0  0  0  0  0  0  0  0  0  0  0
  -27.5178  -15.5819   21.4351 C   0  0  0  0  0  0  0  0  0  0  0  0
  -30.0246  -15.9013   21.0861 C   0  0  0  0  0  0  0  0  0  0  0  0
  -18.2009  -26.7669   22.1464 C   0  0  0  0  0  0  0  0  0  0  0  0
  -24.1225  -23.7563   22.3595 C   0  0  0  0  0  0  0  0  0  0  0  0
  -19.4855  -26.5334   21.6193 C   0  0  0  0  0  0  0  0  0  0  0  0
  -25.3149  -24.4219   22.0414 C   0  0  0  0  0  0  0  0  0  0  0  0
  -25.1192  -14.1719   21.2322 C   0  0  0  0  0  0  0  0  0  0  0  0
  -25.6416  -22.9131   20.1634 C   0  0  0  0  0  0  0  0  0  0  0  0
  -23.9646  -12.1373   21.4550 C   0  0  0  0  0  0  0  0  0  0  0  0
  -23.9950   -9.4252   22.1078 C   0  0  0  0  0  0  0  0  0  0  0  0
  -24.7849  -11.2588   20.7472 C   0  0  0  0  0  0  0  0  0  0  0  0
  -28.7563  -16.3108   21.5396 C   0  0  0  0  0  0  0  0  0  0  0  0
  -30.8603  -16.9386   21.4209 C   0  0  0  0  0  0  0  0  0  0  0  0
  -29.2612  -24.6391   18.0715 C   0  0  0  0  0  0  0  0  0  0  0  0
  -29.5822  -23.7615   20.0403 C   0  0  0  0  0  0  0  0  0  0  0  0
  -30.4125  -14.6915   20.4216 C   0  0  0  0  0  0  0  0  0  0  0  0
  -27.2627  -23.1541   16.9407 C   0  0  0  0  0  0  0  0  0  0  0  0
  -27.9850  -24.0908   16.0969 C   0  0  0  0  0  0  0  0  0  0  0  0
  -22.8963  -26.6093   23.0384 C   0  0  0  0  0  0  0  0  0  0  0  0
  -28.7887  -24.1373   12.6893 C   0  0  0  0  0  0  0  0  0  0  0  0
  -25.4443  -26.7962   25.0371 C   0  0  0  0  0  0  0  0  0  0  0  0
  -28.6014  -25.7570   25.8116 C   0  0  0  0  0  0  0  0  0  0  0  0
  -29.9609  -22.7759   22.3275 C   0  0  0  0  0  0  0  0  0  0  0  0
  -17.9462  -27.8494   23.1652 C   0  0  0  0  0  0  0  0  0  0  0  0
  -23.3109  -24.1766   23.5541 C   0  0  0  0  0  0  0  0  0  0  0  0
  -25.8108  -25.5911   22.8511 C   0  0  0  0  0  0  0  0  0  0  0  0
  -19.2115  -28.3346   23.8678 C   0  0  0  0  0  0  0  0  0  0  0  0
  -31.3643  -20.4542   24.6335 C   0  0  0  0  0  0  0  0  0  0  0  0
  -20.3216  -28.5889   22.8530 C   0  0  0  0  0  0  0  0  0  0  0  0
  -30.9754  -19.0908   24.0572 C   0  0  0  0  0  0  0  0  0  0  0  0
  -30.2599  -21.4905   24.4331 C   0  0  0  0  0  0  0  0  0  0  0  0
  -29.3977  -20.2705   22.4742 C   0  0  0  0  0  0  0  0  0  0  0  0
  -20.6944  -27.3010   22.1088 C   0  0  1  0  0  0  0  0  0  0  0  0
  -23.5559  -25.6257   23.9631 C   0  0  1  0  0  0  0  0  0  0  0  0
  -30.5049  -19.2107   22.5944 C   0  0  2  0  0  0  0  0  0  0  0  0
  -29.4552  -24.8502   11.5419 C   0  0  0  0  0  0  0  0  0  0  0  0
  -28.1619  -24.7080   28.0485 C   0  0  0  0  0  0  0  0  0  0  0  0
  -26.1453  -29.4445   23.6936 C   0  0  0  0  0  0  0  0  0  0  0  0
  -28.4297  -29.2722   24.7034 C   0  0  0  0  0  0  0  0  0  0  0  0
  -26.4244  -29.4295   26.1788 C   0  0  0  0  0  0  0  0  0  0  0  0
  -30.9563  -27.0779   27.0234 C   0  0  0  0  0  0  0  0  0  0  0  0
  -27.1325  -23.5093   18.4090 C   0  0  0  0  0  0  0  0  0  1  0  0
  -28.2139  -25.0126   13.7703 C   0  0  0  0  0  0  0  0  0  0  0  0
  -26.8668  -27.2861   24.9129 C   0  0  1  0  0  0  0  0  0  0  0  0
  -29.2156  -25.2892   27.1186 C   0  0  2  0  0  0  0  0  0  0  0  0
  -26.9565  -28.8373   24.8555 C   0  0  0  0  0  0  0  0  0  0  0  0
  -28.7795  -17.5142   22.1185 N   0  0  0  0  0  0  0  0  0  0  0  0
  -30.0726  -17.8698   22.0312 N   0  0  0  0  0  0  0  0  0  0  0  0
  -24.9790  -25.9680   24.0059 N   0  0  0  0  0  0  0  0  0  0  0  0
  -29.8683  -21.5519   23.0232 N   0  0  0  0  0  0  0  0  0  0  0  0
  -32.1848  -17.1357   21.2500 N   0  0  0  0  0  0  0  0  0  0  0  0
  -29.4276  -13.7310   20.1538 N   0  0  0  0  0  0  0  0  0  0  0  0
  -28.9409  -24.7672   16.7441 N   0  0  0  0  0  0  0  0  0  0  0  0
  -29.5924  -22.7051   20.9845 N   0  0  0  0  0  0  0  0  0  0  0  0
  -21.5261  -26.4588   22.9415 N   0  0  0  0  0  0  0  0  0  0  0  0
  -27.6035  -26.6855   26.0197 N   0  0  0  0  0  0  0  0  0  0  0  0
  -27.6329  -24.1503   14.8074 N   0  3  0  0  0  0  0  0  0  0  0  0
  -29.8809  -26.4266   27.8147 N   0  3  0  0  0  0  0  0  0  0  0  0
  -31.6003  -14.4618   20.0902 O   0  0  0  0  0  0  0  0  0  0  0  0
  -26.7837  -22.1227   16.4767 O   0  0  0  0  0  0  0  0  0  0  0  0
  -23.5796  -27.4440   22.4570 O   0  0  0  0  0  0  0  0  0  0  0  0
  -28.7274  -22.9090   12.7221 O   0  0  0  0  0  0  0  0  0  0  0  0
  -24.7731  -27.1300   26.0168 O   0  0  0  0  0  0  0  0  0  0  0  0
  -28.9724  -25.3432   24.7154 O   0  0  0  0  0  0  0  0  0  0  0  0
  -30.3652  -23.8047   22.8753 O   0  0  0  0  0  0  0  0  0  0  0  0
  -29.1845  -23.4775   18.7723 O   0  0  0  0  0  0  0  0  0  0  0  0
  -23.9489  -13.4840   21.1327 O   0  0  0  0  0  0  0  0  0  0  0  0
  -26.3801  -22.5089   19.0942 O   0  0  0  0  0  0  0  0  0  1  0  0
  -24.0107   -8.1233   22.4223 F   0  0  0  0  0  0  0  0  0  0  0  0
  -25.5614  -11.7119   19.7535 F   0  0  0  0  0  0  0  0  0  0  0  0
  1  2  1  0  0  0  0
  1  5  2  0  0  0  0
  2  6  2  0  0  0  0
  3  8  2  0  0  0  0
  3 17  1  0  0  0  0
  4  9  1  0  0  0  0
  4 17  2  0  0  0  0
  5 19  1  0  0  0  0
  6 21  1  0  0  0  0
  7 10  2  0  0  0  0
  7 20  1  0  0  0  0
  8 23  1  0  0  0  0
  9 23  2  0  0  0  0
 10 24  1  0  0  0  0
 11 12  2  0  0  0  0
 11 25  1  0  0  0  0
 12 26  1  0  0  0  0
 13 14  1  0  0  0  0
 13 30  2  0  0  0  0
 14 31  2  0  0  0  0
 15 22  1  0  0  0  0
 15 24  2  0  0  0  0
 16 26  2  0  0  0  0
 16 27  1  0  0  0  0
 17 28  1  0  0  0  0
 18 28  1  0  0  0  0
 18 29  2  0  0  0  0
 18 32  1  0  0  0  0
 19 21  2  0  0  0  0
 19 40  1  0  0  0  0
 20 22  2  0  0  0  0
 20 41  1  0  0  0  0
 21 49  1  0  0  0  0
 22 42  1  0  0  0  0
 23 83  1  0  0  0  0
 24 84  1  0  0  0  0
 25 27  2  0  0  0  0
 25 83  1  0  0  0  0
 26 85  1  0  0  0  0
 27 86  1  0  0  0  0
 28 63  2  0  0  0  0
 29 64  1  0  0  0  0
 29 67  1  0  0  0  0
 30 69  1  0  0  0  0
 30 82  1  0  0  0  0
 31 70  1  0  0  0  0
 31 82  1  0  0  0  0
 32 68  1  0  0  0  0
 32 75  2  0  0  0  0
 33 34  1  0  0  0  0
 33 58  1  0  0  0  0
 33 76  2  0  0  0  0
 34 69  1  0  0  0  0
 34 73  2  0  0  0  0
 35 50  1  0  0  0  0
 35 71  1  0  0  0  0
 35 77  2  0  0  0  0
 36 52  1  0  0  0  0
 36 59  1  0  0  0  0
 36 78  2  0  0  0  0
 37 60  1  0  0  0  0
 37 65  1  0  0  0  0
 37 79  2  0  0  0  0
 38 61  1  0  0  0  0
 38 72  1  0  0  0  0
 38 80  2  0  0  0  0
 39 66  1  0  0  0  0
 39 70  1  0  0  0  0
 39 81  2  0  0  0  0
 40 43  1  0  0  0  0
 41 50  1  0  0  0  0
 42 65  1  0  0  0  0
 43 45  1  0  0  0  0
 44 46  1  0  0  0  0
 44 47  1  0  0  0  0
 45 49  1  0  0  0  0
 46 51  1  0  0  0  0
 47 66  1  0  0  0  0
 48 51  1  0  0  0  0
 48 66  1  0  0  0  0
 49 71  1  0  0  0  0
 50 65  1  0  0  0  0
 51 64  1  0  0  0  0
 53 61  1  0  0  0  0
 54 62  1  0  0  0  0
 55 62  1  0  0  0  0
 56 62  1  0  0  0  0
 57 74  1  0  0  0  0
 58 84  1  0  0  0  0
 59 73  1  0  0  0  0
 60 62  1  0  0  0  0
 60 72  1  0  0  0  0
 61 74  1  0  0  0  0
 63 64  1  0  0  0  0
M  CHG  2  73   1  74   1
M  ISO  4  39 100  58 101  70 100  84 101
M  END
> <Batch ID>
0161

> <Smiles>
CNC(C)C(=O)NC(C(=O)N1Cc2cc([101O:1][101CH2:1]C(=O)C(=NCC(C)=O)Nc3ccc([100NH:0][100C:0](=O)N4CCCC(n5nc(-c6ccc(Oc7ccc(F)cc7F)cc6)c(C(N)=O)c5N)C4)o3)ccc2CC1C(=O)NC1CCCc2ccccc21)C(C)(C)C

> <Shape>
0.211

> <Color>
0.049

> <Negative vol penalty>
0.000

$$$$

  -OEChem-04052303533D

 83 92  0     1  0  0  0  0  0999 V2000
  -16.6364  -29.7723   22.8305 C   0  0  0  0  0  0  0  0  0  0  0  0
  -17.7718  -30.5532   22.6392 C   0  0  0  0  0  0  0  0  0  0  0  0
  -26.2823  -13.0649   21.4814 C   0  0  0  0  0  0  0  0  0  0  0  0
  -26.0339  -13.6582   19.1526 C   0  0  0  0  0  0  0  0  0  0  0  0
  -16.7469  -28.5187   23.4307 C   0  0  0  0  0  0  0  0  0  0  0  0
  -19.0183  -30.0813   23.0489 C   0  0  0  0  0  0  0  0  0  0  0  0
  -25.6009  -29.1317   18.9509 C   0  0  0  0  0  0  0  0  0  0  0  0
  -25.0499  -12.4126   21.4467 C   0  0  0  0  0  0  0  0  0  0  0  0
  -24.8015  -13.0058   19.1178 C   0  0  0  0  0  0  0  0  0  0  0  0
  -26.7787  -28.7717   18.2956 C   0  0  0  0  0  0  0  0  0  0  0  0
  -23.8275   -9.4538   20.3585 C   0  0  0  0  0  0  0  0  0  0  0  0
  -23.7442   -8.1938   20.9508 C   0  0  0  0  0  0  0  0  0  0  0  0
  -27.2084  -27.0834   19.9727 C   0  0  0  0  0  0  0  0  0  0  0  0
  -22.0530   -9.0181   22.4665 C   0  0  0  0  0  0  0  0  0  0  0  0
  -29.8007  -22.6031   17.2798 C   0  0  0  0  0  0  0  0  0  0  0  0
  -26.7743  -13.6878   20.3344 C   0  0  0  0  0  0  0  0  0  0  0  0
  -29.3111  -13.8077   20.0934 C   0  0  0  0  0  0  0  0  0  0  0  0
  -17.9967  -28.0272   23.8392 C   0  0  0  0  0  0  0  0  0  0  0  0
  -25.2141  -28.4576   20.1125 C   0  0  0  0  0  0  0  0  0  0  0  0
  -19.1455  -28.8205   23.6563 C   0  0  0  0  0  0  0  0  0  0  0  0
  -26.0234  -27.4312   20.6265 C   0  0  0  0  0  0  0  0  0  0  0  0
  -24.3095  -12.3830   20.2649 C   0  0  0  0  0  0  0  0  0  0  0  0
  -27.5806  -27.7503   18.8054 C   0  0  0  0  0  0  0  0  0  0  0  0
  -23.0237  -10.4961   20.8202 C   0  0  0  0  0  0  0  0  0  0  0  0
  -22.8569   -7.9759   22.0048 C   0  0  0  0  0  0  0  0  0  0  0  0
  -22.1364  -10.2782   21.8742 C   0  0  0  0  0  0  0  0  0  0  0  0
  -28.0471  -14.3624   20.3698 C   0  0  0  0  0  0  0  0  0  0  0  0
  -29.7183  -22.9702   15.9062 C   0  0  0  0  0  0  0  0  0  0  0  0
  -30.1885  -14.8505   20.2646 C   0  0  0  0  0  0  0  0  0  0  0  0
  -29.4022  -21.2943   17.4448 C   0  0  0  0  0  0  0  0  0  0  0  0
  -29.6750  -26.5294   16.1738 C   0  0  0  0  0  0  0  0  0  0  0  0
  -29.6609  -12.4696   19.7157 C   0  0  0  0  0  0  0  0  0  0  0  0
  -22.6746  -28.0818   22.8485 C   0  0  0  0  0  0  0  0  0  0  0  0
  -23.5425  -25.2518   22.0434 C   0  0  0  0  0  0  0  0  0  0  0  0
  -24.4514  -22.3087   20.5772 C   0  0  0  0  0  0  0  0  0  0  0  0
  -29.5954  -20.7854   19.9044 C   0  0  0  0  0  0  0  0  0  0  0  0
  -18.0600  -26.6861   24.5264 C   0  0  0  0  0  0  0  0  0  0  0  0
  -23.9852  -28.8531   20.8853 C   0  0  0  0  0  0  0  0  0  0  0  0
  -25.5853  -26.7571   21.8980 C   0  0  0  0  0  0  0  0  0  0  0  0
  -31.1357  -26.9068   16.0350 C   0  0  0  0  0  0  0  0  0  0  0  0
  -19.4684  -26.1010   24.5918 C   0  0  0  0  0  0  0  0  0  0  0  0
  -30.7280  -18.9257   22.7215 C   0  0  0  0  0  0  0  0  0  0  0  0
  -20.4655  -27.1600   25.0514 C   0  0  0  0  0  0  0  0  0  0  0  0
  -30.2894  -17.4929   22.4101 C   0  0  0  0  0  0  0  0  0  0  0  0
  -29.7008  -19.9500   22.2424 C   0  0  0  0  0  0  0  0  0  0  0  0
  -28.8746  -18.3944   20.5200 C   0  0  0  0  0  0  0  0  0  0  0  0
  -31.8923  -25.9902   15.1019 C   0  0  0  0  0  0  0  0  0  0  0  0
  -20.5186  -28.3328   24.0648 C   0  0  1  0  0  0  0  0  0  0  0  0
  -30.0770  -24.3350   15.3514 C   0  0  1  0  0  0  0  0  0  0  0  0
  -23.2727  -27.6560   21.5399 C   0  0  1  0  0  0  0  0  0  0  0  0
  -29.9075  -17.3304   20.9257 C   0  0  2  0  0  0  0  0  0  0  0  0
  -24.0863  -19.8313   20.7407 C   0  0  0  0  0  0  0  0  0  0  0  0
  -25.3782  -25.1456   24.4770 C   0  0  0  0  0  0  0  0  0  0  0  0
  -25.7359  -22.7116   24.0125 C   0  0  0  0  0  0  0  0  0  0  0  0
  -23.4510  -23.5536   24.5534 C   0  0  0  0  0  0  0  0  0  0  0  0
  -23.3142  -22.1791   17.8479 C   0  0  0  0  0  0  0  0  0  0  0  0
  -28.7512  -27.5762   16.7422 C   0  0  0  0  0  0  0  0  0  1  0  0
  -24.4694  -24.0911   22.3026 C   0  0  1  0  0  0  0  0  0  0  0  0
  -23.6289  -21.1286   20.0920 C   0  0  2  0  0  0  0  0  0  0  0  0
  -24.7644  -23.8950   23.8165 C   0  0  0  0  0  0  0  0  0  0  0  0
  -28.1113  -15.6569   20.6922 N   0  0  0  0  0  0  0  0  0  0  0  0
  -29.2944  -22.0419   15.0519 N   0  0  0  0  0  0  0  0  0  0  0  0
  -29.1842  -25.3705   15.8957 N   0  0  0  0  0  0  0  0  0  0  0  0
  -29.4264  -15.9244   20.6196 N   0  0  0  0  0  0  0  0  0  0  0  0
  -24.1360  -26.5066   21.8603 N   0  0  0  0  0  0  0  0  0  0  0  0
  -29.3911  -19.7375   20.8268 N   0  0  0  0  0  0  0  0  0  0  0  0
  -31.5298  -14.9443   20.1448 N   0  0  0  0  0  0  0  0  0  0  0  0
  -28.6359  -11.5228   19.5846 N   0  0  0  0  0  0  0  0  0  0  0  0
  -29.2971  -20.4564   18.5826 N   0  0  0  0  0  0  0  0  0  0  0  0
  -21.2976  -27.9771   22.8982 N   0  0  0  0  0  0  0  0  0  0  0  0
  -23.8626  -22.9321   21.6570 N   0  0  0  0  0  0  0  0  0  0  0  0
  -31.5560  -24.5935   15.4772 N   0  3  0  0  0  0  0  0  0  0  0  0
  -23.7523  -20.9840   18.6139 N   0  3  0  0  0  0  0  0  0  0  0  0
  -30.8490  -12.1197   19.5168 O   0  0  0  0  0  0  0  0  0  0  0  0
  -23.4075  -28.4751   23.7483 O   0  0  0  0  0  0  0  0  0  0  0  0
  -22.3245  -25.0550   22.0093 O   0  0  0  0  0  0  0  0  0  0  0  0
  -25.5120  -22.6418   20.0532 O   0  0  0  0  0  0  0  0  0  0  0  0
  -30.0306  -21.8846   20.2570 O   0  0  0  0  0  0  0  0  0  0  0  0
  -23.1070  -11.7463   20.2306 O   0  0  0  0  0  0  0  0  0  0  0  0
  -28.7268  -27.4009   18.1582 O   0  0  0  0  0  0  0  0  0  1  0  0
  -22.7758   -6.7654   22.5725 F   0  0  0  0  0  0  0  0  0  0  0  0
  -21.3607  -11.2754   22.3213 F   0  0  0  0  0  0  0  0  0  0  0  0
  -28.9733  -20.6575   15.9137 S   0  0  0  0  0  0  0  0  0  0  0  0
  1  2  1  0  0  0  0
  1  5  2  0  0  0  0
  2  6  2  0  0  0  0
  3  8  2  0  0  0  0
  3 16  1  0  0  0  0
  4  9  1  0  0  0  0
  4 16  2  0  0  0  0
  5 18  1  0  0  0  0
  6 20  1  0  0  0  0
  7 10  2  0  0  0  0
  7 19  1  0  0  0  0
  8 22  1  0  0  0  0
  9 22  2  0  0  0  0
 10 23  1  0  0  0  0
 11 12  2  0  0  0  0
 11 24  1  0  0  0  0
 12 25  1  0  0  0  0
 13 21  1  0  0  0  0
 13 23  2  0  0  0  0
 14 25  2  0  0  0  0
 14 26  1  0  0  0  0
 15 28  1  0  0  0  0
 15 30  2  0  0  0  0
 16 27  1  0  0  0  0
 17 27  1  0  0  0  0
 17 29  2  0  0  0  0
 17 32  1  0  0  0  0
 18 20  2  0  0  0  0
 18 37  1  0  0  0  0
 19 21  2  0  0  0  0
 19 38  1  0  0  0  0
 20 48  1  0  0  0  0
 21 39  1  0  0  0  0
 22 79  1  0  0  0  0
 23 80  1  0  0  0  0
 24 26  2  0  0  0  0
 24 79  1  0  0  0  0
 25 81  1  0  0  0  0
 26 82  1  0  0  0  0
 27 61  2  0  0  0  0
 28 49  1  0  0  0  0
 28 62  2  0  0  0  0
 29 64  1  0  0  0  0
 29 67  1  0  0  0  0
 30 69  1  0  0  0  0
 30 83  1  0  0  0  0
 31 40  1  0  0  0  0
 31 57  1  0  0  0  0
 31 63  2  0  0  0  0
 32 68  1  0  0  0  0
 32 74  2  0  0  0  0
 33 50  1  0  0  0  0
 33 70  1  0  0  0  0
 33 75  2  0  0  0  0
 34 58  1  0  0  0  0
 34 65  1  0  0  0  0
 34 76  2  0  0  0  0
 35 59  1  0  0  0  0
 35 71  1  0  0  0  0
 35 77  2  0  0  0  0
 36 66  1  0  0  0  0
 36 69  1  0  0  0  0
 36 78  2  0  0  0  0
 37 41  1  0  0  0  0
 38 50  1  0  0  0  0
 39 65  1  0  0  0  0
 40 47  1  0  0  0  0
 41 43  1  0  0  0  0
 42 44  1  0  0  0  0
 42 45  1  0  0  0  0
 43 48  1  0  0  0  0
 44 51  1  0  0  0  0
 45 66  1  0  0  0  0
 46 51  1  0  0  0  0
 46 66  1  0  0  0  0
 47 72  1  0  0  0  0
 48 70  1  0  0  0  0
 49 63  1  0  0  0  0
 49 72  1  0  0  0  0
 50 65  1  0  0  0  0
 51 64  1  0  0  0  0
 52 59  1  0  0  0  0
 53 60  1  0  0  0  0
 54 60  1  0  0  0  0
 55 60  1  0  0  0  0
 56 73  1  0  0  0  0
 57 80  1  0  0  0  0
 58 60  1  0  0  0  0
 58 71  1  0  0  0  0
 59 73  1  0  0  0  0
 61 64  1  0  0  0  0
 62 83  1  0  0  0  0
M  CHG  2  72   1  73   1
M  ISO  4  36 100  57 101  69 100  80 101
M  END
> <Batch ID>
0161

> <Smiles>
CNC(C)C(=O)NC(C(=O)N1Cc2cc([101O:1][101CH2:1]C3=NC(c4cc([100NH:0][100C:0](=O)N5CCCC(n6nc(-c7ccc(Oc8ccc(F)cc8F)cc7)c(C(N)=O)c6N)C5)sn4)NCC3)ccc2CC1C(=O)NC1CCCc2ccccc21)C(C)(C)C

> <Shape>
0.248

> <Color>
0.093

> <Negative vol penalty>
0.000

$$$$

  -OEChem-04052303533D

 84 92  0     1  0  0  0  0  0999 V2000
  -27.5771  -32.0891   27.4588 C   0  0  0  0  0  0  0  0  0  0  0  0
  -27.8552  -31.1543   26.4667 C   0  0  0  0  0  0  0  0  0  0  0  0
  -21.8192  -12.5832   19.6438 C   0  0  0  0  0  0  0  0  0  0  0  0
  -22.2600  -13.8046   21.6811 C   0  0  0  0  0  0  0  0  0  0  0  0
  -26.2623  -32.2896   27.8772 C   0  0  0  0  0  0  0  0  0  0  0  0
  -26.8186  -30.4186   25.8932 C   0  0  0  0  0  0  0  0  0  0  0  0
  -27.1853  -30.1515   20.8495 C   0  0  0  0  0  0  0  0  0  0  0  0
  -20.6362  -12.0909   20.1948 C   0  0  0  0  0  0  0  0  0  0  0  0
  -21.0769  -13.3124   22.2322 C   0  0  0  0  0  0  0  0  0  0  0  0
  -28.1077  -29.2470   20.3252 C   0  0  0  0  0  0  0  0  0  0  0  0
  -17.7695  -13.9737   22.0227 C   0  0  0  0  0  0  0  0  0  0  0  0
  -16.9455  -14.8756   22.6959 C   0  0  0  0  0  0  0  0  0  0  0  0
  -33.1030  -18.3465   19.8058 C   0  0  0  0  0  0  0  0  0  0  0  0
  -32.7208  -16.9886   19.9203 C   0  0  0  0  0  0  0  0  0  0  0  0
  -26.3232  -27.6781   19.9086 C   0  0  0  0  0  0  0  0  0  0  0  0
  -17.1665  -13.5696   24.7164 C   0  0  0  0  0  0  0  0  0  0  0  0
  -22.6312  -13.4400   20.3870 C   0  0  0  0  0  0  0  0  0  0  0  0
  -24.0173  -15.1318   19.0738 C   0  0  0  0  0  0  0  0  0  0  0  0
  -25.2081  -31.5630   27.3018 C   0  0  0  0  0  0  0  0  0  0  0  0
  -25.8242  -29.8212   20.9174 C   0  0  0  0  0  0  0  0  0  0  0  0
  -25.4887  -30.6087   26.3053 C   0  0  0  0  0  0  0  0  0  0  0  0
  -25.3853  -28.5812   20.4319 C   0  0  0  0  0  0  0  0  0  0  0  0
  -20.2650  -12.4555   21.4890 C   0  0  0  0  0  0  0  0  0  0  0  0
  -27.6771  -28.0089   19.8573 C   0  0  0  0  0  0  0  0  0  0  0  0
  -18.2920  -12.8696   22.6964 C   0  0  0  0  0  0  0  0  0  0  0  0
  -16.6440  -14.6736   24.0427 C   0  0  0  0  0  0  0  0  0  0  0  0
  -17.9905  -12.6676   24.0432 C   0  0  0  0  0  0  0  0  0  0  0  0
  -23.8537  -13.9484   19.8185 C   0  0  0  0  0  0  0  0  0  0  0  0
  -25.3557  -15.1622   18.7670 C   0  0  0  0  0  0  0  0  0  0  0  0
  -31.9366  -19.0751   19.8310 C   0  0  0  0  0  0  0  0  0  0  0  0
  -31.3481  -16.9842   20.0076 C   0  0  0  0  0  0  0  0  0  0  0  0
  -23.0462  -16.1157   18.6936 C   0  0  0  0  0  0  0  0  0  0  0  0
  -23.7165  -29.4678   23.2704 C   0  0  0  0  0  0  0  0  0  0  0  0
  -29.5485  -24.9153   19.5609 C   0  0  0  0  0  0  0  0  0  0  0  0
  -21.6202  -29.1323   20.8178 C   0  0  0  0  0  0  0  0  0  0  0  0
  -30.4697  -21.1216   19.7872 C   0  0  0  0  0  0  0  0  0  0  0  0
  -21.0964  -28.3199   17.5448 C   0  0  0  0  0  0  0  0  0  0  0  0
  -30.6990  -14.5586   20.2120 C   0  0  0  0  0  0  0  0  0  0  0  0
  -23.8086  -31.7806   27.8201 C   0  0  0  0  0  0  0  0  0  0  0  0
  -24.8383  -30.8185   21.4613 C   0  0  0  0  0  0  0  0  0  0  0  0
  -23.9322  -28.1863   20.4637 C   0  0  0  0  0  0  0  0  0  0  0  0
  -22.7247  -31.2284   26.8978 C   0  0  0  0  0  0  0  0  0  0  0  0
  -28.9316  -11.6151   19.2691 C   0  0  0  0  0  0  0  0  0  0  0  0
  -23.0803  -29.8170   26.4414 C   0  0  0  0  0  0  0  0  0  0  0  0
  -27.4665  -12.0571   19.2667 C   0  0  0  0  0  0  0  0  0  0  0  0
  -29.7230  -12.2806   20.3936 C   0  0  0  0  0  0  0  0  0  0  0  0
  -28.1636  -14.1874   20.4340 C   0  0  0  0  0  0  0  0  0  0  0  0
  -24.3886  -29.8090   25.6416 C   0  0  1  0  0  0  0  0  0  0  0  0
  -23.5468  -30.1738   21.9549 C   0  0  1  0  0  0  0  0  0  0  0  0
  -27.3412  -13.5932   19.2789 C   0  0  2  0  0  0  0  0  0  0  0  0
  -19.2708  -28.1037   15.8366 C   0  0  0  0  0  0  0  0  0  0  0  0
  -20.7411  -26.5037   22.0935 C   0  0  0  0  0  0  0  0  0  0  0  0
  -19.6558  -25.8931   19.9216 C   0  0  0  0  0  0  0  0  0  0  0  0
  -18.8744  -27.8976   21.1842 C   0  0  0  0  0  0  0  0  0  0  0  0
  -22.3123  -30.3896   15.8136 C   0  0  0  0  0  0  0  0  0  0  0  0
  -29.3549  -23.4127   19.7038 C   0  0  0  0  0  0  0  0  0  0  0  0
  -28.2757  -25.7364   19.4920 C   0  0  0  0  0  0  0  0  0  1  0  0
  -30.6637  -22.6293   19.6720 C   0  0  0  0  0  0  0  0  0  0  0  0
  -21.1075  -27.9709   20.0009 C   0  0  1  0  0  0  0  0  0  0  0  0
  -20.3203  -29.0211   16.4446 C   0  0  2  0  0  0  0  0  0  0  0  0
  -20.1224  -27.0727   20.8011 C   0  0  0  0  0  0  0  0  0  0  0  0
  -24.9969  -13.2756   19.9751 N   0  0  0  0  0  0  0  0  0  0  0  0
  -25.8915  -14.0387   19.3245 N   0  0  0  0  0  0  0  0  0  0  0  0
  -23.0077  -29.1932   21.0105 N   0  0  0  0  0  0  0  0  0  0  0  0
  -29.5605  -13.7351   20.3396 N   0  0  0  0  0  0  0  0  0  0  0  0
  -26.1147  -16.0401   18.0774 N   0  0  0  0  0  0  0  0  0  0  0  0
  -21.7154  -15.9298   19.0920 N   0  0  0  0  0  0  0  0  0  0  0  0
  -31.6982  -20.4678   19.7517 N   0  0  0  0  0  0  0  0  0  0  0  0
  -30.4187  -15.9226   20.1380 N   0  0  0  0  0  0  0  0  0  0  0  0
  -24.1599  -30.2837   24.2937 N   0  0  0  0  0  0  0  0  0  0  0  0
  -20.5398  -28.5455   18.7860 N   0  0  0  0  0  0  0  0  0  0  0  0
  -21.2428  -29.4632   15.3609 N   0  3  0  0  0  0  0  0  0  0  0  0
  -23.3465  -17.1212   18.0064 O   0  0  0  0  0  0  0  0  0  0  0  0
  -23.4625  -28.2717   23.3514 O   0  0  0  0  0  0  0  0  0  0  0  0
  -30.6601  -25.4390   19.5078 O   0  0  0  0  0  0  0  0  0  0  0  0
  -20.8199  -29.9591   21.2622 O   0  0  0  0  0  0  0  0  0  0  0  0
  -29.3592  -20.6130   19.8977 O   0  0  0  0  0  0  0  0  0  0  0  0
  -22.0943  -27.6370   17.3247 O   0  0  0  0  0  0  0  0  0  0  0  0
  -31.8369  -14.0868   20.1440 O   0  0  0  0  0  0  0  0  0  0  0  0
  -30.8623  -18.2521   19.9539 O   0  0  0  0  0  0  0  0  0  0  0  0
  -19.1105  -11.9756   22.0269 O   0  0  0  0  0  0  0  0  0  0  0  0
  -28.5754  -27.1239   19.3456 O   0  0  0  0  0  0  0  0  0  1  0  0
  -15.8539  -15.5406   24.6894 F   0  0  0  0  0  0  0  0  0  0  0  0
  -18.4905  -11.6095   24.6960 F   0  0  0  0  0  0  0  0  0  0  0  0
  1  2  1  0  0  0  0
  1  5  2  0  0  0  0
  2  6  2  0  0  0  0
  3  8  2  0  0  0  0
  3 17  1  0  0  0  0
  4  9  1  0  0  0  0
  4 17  2  0  0  0  0
  5 19  1  0  0  0  0
  6 21  1  0  0  0  0
  7 10  2  0  0  0  0
  7 20  1  0  0  0  0
  8 23  1  0  0  0  0
  9 23  2  0  0  0  0
 10 24  1  0  0  0  0
 11 12  2  0  0  0  0
 11 25  1  0  0  0  0
 12 26  1  0  0  0  0
 13 14  1  0  0  0  0
 13 30  2  0  0  0  0
 14 31  2  0  0  0  0
 15 22  1  0  0  0  0
 15 24  2  0  0  0  0
 16 26  2  0  0  0  0
 16 27  1  0  0  0  0
 17 28  1  0  0  0  0
 18 28  1  0  0  0  0
 18 29  2  0  0  0  0
 18 32  1  0  0  0  0
 19 21  2  0  0  0  0
 19 39  1  0  0  0  0
 20 22  2  0  0  0  0
 20 40  1  0  0  0  0
 21 48  1  0  0  0  0
 22 41  1  0  0  0  0
 23 81  1  0  0  0  0
 24 82  1  0  0  0  0
 25 27  2  0  0  0  0
 25 81  1  0  0  0  0
 26 83  1  0  0  0  0
 27 84  1  0  0  0  0
 28 62  2  0  0  0  0
 29 63  1  0  0  0  0
 29 66  1  0  0  0  0
 30 68  1  0  0  0  0
 30 80  1  0  0  0  0
 31 69  1  0  0  0  0
 31 80  1  0  0  0  0
 32 67  1  0  0  0  0
 32 73  2  0  0  0  0
 33 49  1  0  0  0  0
 33 70  1  0  0  0  0
 33 74  2  0  0  0  0
 34 56  1  0  0  0  0
 34 57  1  0  0  0  0
 34 75  2  0  0  0  0
 35 59  1  0  0  0  0
 35 64  1  0  0  0  0
 35 76  2  0  0  0  0
 36 58  1  0  0  0  0
 36 68  1  0  0  0  0
 36 77  2  0  0  0  0
 37 60  1  0  0  0  0
 37 71  1  0  0  0  0
 37 78  2  0  0  0  0
 38 65  1  0  0  0  0
 38 69  1  0  0  0  0
 38 79  2  0  0  0  0
 39 42  1  0  0  0  0
 40 49  1  0  0  0  0
 41 64  1  0  0  0  0
 42 44  1  0  0  0  0
 43 45  1  0  0  0  0
 43 46  1  0  0  0  0
 44 48  1  0  0  0  0
 45 50  1  0  0  0  0
 46 65  1  0  0  0  0
 47 50  1  0  0  0  0
 47 65  1  0  0  0  0
 48 70  1  0  0  0  0
 49 64  1  0  0  0  0
 50 63  1  0  0  0  0
 51 60  1  0  0  0  0
 52 61  1  0  0  0  0
 53 61  1  0  0  0  0
 54 61  1  0  0  0  0
 55 72  1  0  0  0  0
 56 58  1  0  0  0  0
 57 82  1  0  0  0  0
 59 61  1  0  0  0  0
 59 71  1  0  0  0  0
 60 72  1  0  0  0  0
 62 63  1  0  0  0  0
M  CHG  1  72   1
M  ISO  4  38 100  57 101  69 100  82 101
M  END
> <Batch ID>
0161

> <Smiles>
CNC(C)C(=O)NC(C(=O)N1Cc2cc([101O:1][101CH2:1]C(=O)CCC(=O)Nc3ccc([100NH:0][100C:0](=O)N4CCCC(n5nc(-c6ccc(Oc7ccc(F)cc7F)cc6)c(C(N)=O)c5N)C4)o3)ccc2CC1C(=O)NC1CCCc2ccccc21)C(C)(C)C

> <Shape>
0.258

> <Color>
0.119

> <Negative vol penalty>
0.000

$$$$

  -OEChem-04052303533D

 83 91  0     1  0  0  0  0  0999 V2000
  -25.1008  -33.3372   20.7549 C   0  0  0  0  0  0  0  0  0  0  0  0
  -26.0132  -32.4039   20.2733 C   0  0  0  0  0  0  0  0  0  0  0  0
  -23.0162   -9.8812   19.9843 C   0  0  0  0  0  0  0  0  0  0  0  0
  -23.7363   -9.9498   22.2895 C   0  0  0  0  0  0  0  0  0  0  0  0
  -24.5808  -33.2023   22.0415 C   0  0  0  0  0  0  0  0  0  0  0  0
  -26.4069  -31.3357   21.0785 C   0  0  0  0  0  0  0  0  0  0  0  0
  -27.7552  -25.6485   19.2498 C   0  0  0  0  0  0  0  0  0  0  0  0
  -22.2564   -8.7434   20.2555 C   0  0  0  0  0  0  0  0  0  0  0  0
  -22.9764   -8.8120   22.5607 C   0  0  0  0  0  0  0  0  0  0  0  0
  -28.9669  -25.0072   18.9963 C   0  0  0  0  0  0  0  0  0  0  0  0
  -23.2431   -5.4721   22.1082 C   0  0  0  0  0  0  0  0  0  0  0  0
  -23.8356   -4.4629   22.8672 C   0  0  0  0  0  0  0  0  0  0  0  0
  -28.9405  -24.0887   21.2268 C   0  0  0  0  0  0  0  0  0  0  0  0
  -30.1396  -19.3804   21.7931 C   0  0  0  0  0  0  0  0  0  0  0  0
  -22.1067   -4.7042   24.5376 C   0  0  0  0  0  0  0  0  0  0  0  0
  -23.7562  -10.4844   21.0013 C   0  0  0  0  0  0  0  0  0  0  0  0
  -24.1258  -13.0014   20.8119 C   0  0  0  0  0  0  0  0  0  0  0  0
  -24.9609  -32.1265   22.8593 C   0  0  0  0  0  0  0  0  0  0  0  0
  -27.1314  -25.5233   20.4995 C   0  0  0  0  0  0  0  0  0  0  0  0
  -25.8925  -31.1870   22.3777 C   0  0  0  0  0  0  0  0  0  0  0  0
  -27.7197  -24.7274   21.4927 C   0  0  0  0  0  0  0  0  0  0  0  0
  -29.6432  -18.0957   22.1582 C   0  0  0  0  0  0  0  0  0  0  0  0
  -22.2365   -8.2087   21.5437 C   0  0  0  0  0  0  0  0  0  0  0  0
  -29.5612  -24.2295   19.9858 C   0  0  0  0  0  0  0  0  0  0  0  0
  -22.0824   -6.0974   22.5639 C   0  0  0  0  0  0  0  0  0  0  0  0
  -23.2674   -4.0790   24.0819 C   0  0  0  0  0  0  0  0  0  0  0  0
  -21.5142   -5.7134   23.7785 C   0  0  0  0  0  0  0  0  0  0  0  0
  -24.5417  -11.6595   20.7217 C   0  0  0  0  0  0  0  0  0  0  0  0
  -31.0942  -19.3041   20.8029 C   0  0  0  0  0  0  0  0  0  0  0  0
  -25.2317  -13.7290   20.4456 C   0  0  0  0  0  0  0  0  0  0  0  0
  -30.2372  -17.0863   21.4328 C   0  0  0  0  0  0  0  0  0  0  0  0
  -31.2556  -20.8600   19.1363 C   0  0  0  0  0  0  0  0  0  0  0  0
  -22.8536  -13.5419   21.1927 C   0  0  0  0  0  0  0  0  0  0  0  0
  -26.3272  -27.5441   22.8176 C   0  0  0  0  0  0  0  0  0  0  0  0
  -24.9173  -24.9139   24.0889 C   0  0  0  0  0  0  0  0  0  0  0  0
  -24.7811  -21.5097   24.2872 C   0  0  0  0  0  0  0  0  0  0  0  0
  -30.7044  -14.7264   20.6853 C   0  0  0  0  0  0  0  0  0  0  0  0
  -24.4078  -32.0488   24.2602 C   0  0  0  0  0  0  0  0  0  0  0  0
  -25.8112  -26.1998   20.7481 C   0  0  0  0  0  0  0  0  0  0  0  0
  -27.0805  -24.5444   22.8442 C   0  0  0  0  0  0  0  0  0  0  0  0
  -24.5911  -30.6808   24.9124 C   0  0  0  0  0  0  0  0  0  0  0  0
  -29.6066  -12.2535   18.3709 C   0  0  0  0  0  0  0  0  0  0  0  0
  -26.0153  -30.1763   24.7034 C   0  0  0  0  0  0  0  0  0  0  0  0
  -28.1568  -11.9889   18.7836 C   0  0  0  0  0  0  0  0  0  0  0  0
  -30.5030  -12.5093   19.5811 C   0  0  0  0  0  0  0  0  0  0  0  0
  -28.5800  -13.2934   20.9063 C   0  0  0  0  0  0  0  0  0  0  0  0
  -26.3252  -30.0008   23.2119 C   0  0  1  0  0  0  0  0  0  0  0  0
  -25.5222  -26.4197   22.2299 C   0  0  1  0  0  0  0  0  0  0  0  0
  -27.6259  -13.0943   19.7173 C   0  0  2  0  0  0  0  0  0  0  0  0
  -27.2279  -17.5933   22.6056 C   0  0  0  0  0  0  0  0  0  0  0  0
  -32.2267  -21.5304   16.9741 C   0  0  0  0  0  0  0  0  0  0  0  0
  -23.5494  -19.6512   25.4390 C   0  0  0  0  0  0  0  0  0  0  0  0
  -26.4849  -25.4643   26.6481 C   0  0  0  0  0  0  0  0  0  0  0  0
  -25.9710  -23.1267   27.3829 C   0  0  0  0  0  0  0  0  0  0  0  0
  -24.1152  -24.7512   27.0093 C   0  0  0  0  0  0  0  0  0  0  0  0
  -23.7948  -20.4162   21.7200 C   0  0  0  0  0  0  0  0  0  0  0  0
  -28.6081  -17.8834   23.1983 C   0  0  0  0  0  0  0  0  0  0  0  0
  -31.0054  -23.2114   18.3941 C   0  0  0  0  0  0  0  0  0  1  0  0
  -31.9265  -21.9941   18.3941 C   0  0  1  0  0  0  0  0  0  0  0  0
  -25.3572  -23.8091   25.0188 C   0  0  1  0  0  0  0  0  0  0  0  0
  -23.6142  -20.5419   24.2081 C   0  0  2  0  0  0  0  0  0  0  0  0
  -25.4954  -24.2927   26.4901 C   0  0  0  0  0  0  0  0  0  0  0  0
  -25.8126  -11.5389   20.3288 N   0  0  0  0  0  0  0  0  0  0  0  0
  -31.8042  -20.3503   20.1907 N   0  0  0  0  0  0  0  0  0  0  0  0
  -26.2047  -12.8144   20.1688 N   0  0  0  0  0  0  0  0  0  0  0  0
  -25.7932  -25.2312   23.0411 N   0  0  0  0  0  0  0  0  0  0  0  0
  -29.9395  -13.5714   20.4174 N   0  0  0  0  0  0  0  0  0  0  0  0
  -25.4569  -15.0556   20.3365 N   0  0  0  0  0  0  0  0  0  0  0  0
  -21.8267  -12.6531   21.5392 N   0  0  0  0  0  0  0  0  0  0  0  0
  -30.0525  -15.6818   21.4642 N   0  0  0  0  0  0  0  0  0  0  0  0
  -25.7247  -28.7831   22.7108 N   0  0  0  0  0  0  0  0  0  0  0  0
  -24.4061  -22.7181   24.8352 N   0  0  0  0  0  0  0  0  0  0  0  0
  -23.7433  -19.6722   23.0048 N   0  3  0  0  0  0  0  0  0  0  0  0
  -22.6289  -14.7759   21.2091 O   0  0  0  0  0  0  0  0  0  0  0  0
  -27.4138  -27.3051   23.3312 O   0  0  0  0  0  0  0  0  0  0  0  0
  -23.8330  -25.4700   24.2808 O   0  0  0  0  0  0  0  0  0  0  0  0
  -25.9129  -21.2211   23.9049 O   0  0  0  0  0  0  0  0  0  0  0  0
  -31.8431  -14.8700   20.2328 O   0  0  0  0  0  0  0  0  0  0  0  0
  -21.4950   -7.0986   21.8088 O   0  0  0  0  0  0  0  0  0  0  0  0
  -30.7442  -23.6030   19.7412 O   0  0  0  0  0  0  0  0  0  1  0  0
  -23.8356   -3.1088   24.8100 F   0  0  0  0  0  0  0  0  0  0  0  0
  -20.3986   -6.3097   24.2209 F   0  0  0  0  0  0  0  0  0  0  0  0
  -31.3884  -17.6885   20.3173 S   0  0  0  0  0  0  0  0  0  0  0  0
  1  2  1  0  0  0  0
  1  5  2  0  0  0  0
  2  6  2  0  0  0  0
  3  8  2  0  0  0  0
  3 16  1  0  0  0  0
  4  9  1  0  0  0  0
  4 16  2  0  0  0  0
  5 18  1  0  0  0  0
  6 20  1  0  0  0  0
  7 10  2  0  0  0  0
  7 19  1  0  0  0  0
  8 23  1  0  0  0  0
  9 23  2  0  0  0  0
 10 24  1  0  0  0  0
 11 12  2  0  0  0  0
 11 25  1  0  0  0  0
 12 26  1  0  0  0  0
 13 21  1  0  0  0  0
 13 24  2  0  0  0  0
 14 22  1  0  0  0  0
 14 29  2  0  0  0  0
 15 26  2  0  0  0  0
 15 27  1  0  0  0  0
 16 28  1  0  0  0  0
 17 28  1  0  0  0  0
 17 30  2  0  0  0  0
 17 33  1  0  0  0  0
 18 20  2  0  0  0  0
 18 38  1  0  0  0  0
 19 21  2  0  0  0  0
 19 39  1  0  0  0  0
 20 47  1  0  0  0  0
 21 40  1  0  0  0  0
 22 31  2  0  0  0  0
 22 57  1  0  0  0  0
 23 79  1  0  0  0  0
 24 80  1  0  0  0  0
 25 27  2  0  0  0  0
 25 79  1  0  0  0  0
 26 81  1  0  0  0  0
 27 82  1  0  0  0  0
 28 63  2  0  0  0  0
 29 64  1  0  0  0  0
 29 83  1  0  0  0  0
 30 65  1  0  0  0  0
 30 68  1  0  0  0  0
 31 70  1  0  0  0  0
 31 83  1  0  0  0  0
 32 59  1  0  0  0  0
 32 64  2  0  0  0  0
 33 69  1  0  0  0  0
 33 74  2  0  0  0  0
 34 48  1  0  0  0  0
 34 71  1  0  0  0  0
 34 75  2  0  0  0  0
 35 60  1  0  0  0  0
 35 66  1  0  0  0  0
 35 76  2  0  0  0  0
 36 61  1  0  0  0  0
 36 72  1  0  0  0  0
 36 77  2  0  0  0  0
 37 67  1  0  0  0  0
 37 70  1  0  0  0  0
 37 78  2  0  0  0  0
 38 41  1  0  0  0  0
 39 48  1  0  0  0  0
 40 66  1  0  0  0  0
 41 43  1  0  0  0  0
 42 44  1  0  0  0  0
 42 45  1  0  0  0  0
 43 47  1  0  0  0  0
 44 49  1  0  0  0  0
 45 67  1  0  0  0  0
 46 49  1  0  0  0  0
 46 67  1  0  0  0  0
 47 71  1  0  0  0  0
 48 66  1  0  0  0  0
 49 65  1  0  0  0  0
 50 57  1  0  0  0  0
 51 59  1  0  0  0  0
 52 61  1  0  0  0  0
 53 62  1  0  0  0  0
 54 62  1  0  0  0  0
 55 62  1  0  0  0  0
 56 73  1  0  0  0  0
 58 59  1  0  0  0  0
 58 80  1  0  0  0  0
 60 62  1  0  0  0  0
 60 72  1  0  0  0  0
 61 73  1  0  0  0  0
 63 65  1  0  0  0  0
M  CHG  1  73   1
M  ISO  4  37 100  58 101  70 100  80 101
M  END
> <Batch ID>
0161

> <Smiles>
CCc1cc(NC=C(C)[101CH2:1][101O:1]c2ccc3c(c2)CN(C(=O)C(NC(=O)C(C)NC)C(C)(C)C)C(C(=O)NC2CCCc4ccccc42)C3)sc1[100NH:0][100C:0](=O)N1CCCC(n2nc(-c3ccc(Oc4ccc(F)cc4F)cc3)c(C(N)=O)c2N)C1

> <Shape>
0.278

> <Color>
0.195

> <Negative vol penalty>
0.000

$$$$

  -OEChem-04052303533D

 83 91  0     1  0  0  0  0  0999 V2000
  -29.5355  -22.5622   16.8784 C   0  0  0  0  0  0  0  0  0  0  0  0
  -28.3124  -22.3938   17.5176 C   0  0  0  0  0  0  0  0  0  0  0  0
  -28.5643  -17.1447   19.0654 C   0  0  0  0  0  0  0  0  0  0  0  0
  -27.8413  -17.4268   21.3534 C   0  0  0  0  0  0  0  0  0  0  0  0
  -30.2809  -23.7180   17.1015 C   0  0  0  0  0  0  0  0  0  0  0  0
  -27.8287  -23.3863   18.3707 C   0  0  0  0  0  0  0  0  0  0  0  0
  -23.2596  -22.8130   20.1022 C   0  0  0  0  0  0  0  0  0  0  0  0
  -28.8891  -18.4996   19.0009 C   0  0  0  0  0  0  0  0  0  0  0  0
  -28.1661  -18.7818   21.2889 C   0  0  0  0  0  0  0  0  0  0  0  0
  -22.9319  -21.8567   21.0623 C   0  0  0  0  0  0  0  0  0  0  0  0
  -30.9535  -20.6845   21.4645 C   0  0  0  0  0  0  0  0  0  0  0  0
  -31.6519  -21.2338   22.5396 C   0  0  0  0  0  0  0  0  0  0  0  0
  -22.8516  -23.5828   22.7456 C   0  0  0  0  0  0  0  0  0  0  0  0
  -29.8425  -22.7888   22.9206 C   0  0  0  0  0  0  0  0  0  0  0  0
  -28.0404  -16.6082   20.2417 C   0  0  0  0  0  0  0  0  0  0  0  0
  -28.5441  -14.1507   20.7049 C   0  0  0  0  0  0  0  0  0  0  0  0
  -29.8111  -24.7191   17.9676 C   0  0  0  0  0  0  0  0  0  0  0  0
  -23.3967  -24.1621   20.4593 C   0  0  0  0  0  0  0  0  0  0  0  0
  -28.5550  -24.5707   18.5901 C   0  0  0  0  0  0  0  0  0  0  0  0
  -23.1786  -24.5546   21.7876 C   0  0  0  0  0  0  0  0  0  0  0  0
  -28.6900  -19.3182   20.1127 C   0  0  0  0  0  0  0  0  0  0  0  0
  -22.7307  -22.2410   22.3848 C   0  0  0  0  0  0  0  0  0  0  0  0
  -29.6995  -21.1874   21.1173 C   0  0  0  0  0  0  0  0  0  0  0  0
  -31.0965  -22.2860   23.2677 C   0  0  0  0  0  0  0  0  0  0  0  0
  -29.1440  -22.2395   21.8454 C   0  0  0  0  0  0  0  0  0  0  0  0
  -27.7042  -15.2088   20.3087 C   0  0  0  0  0  0  0  0  0  0  0  0
  -20.9803  -13.3930   24.1733 C   0  0  0  0  0  0  0  0  0  0  0  0
  -27.7586  -13.0294   20.5958 C   0  0  0  0  0  0  0  0  0  0  0  0
  -20.6825  -13.1928   25.5050 C   0  0  0  0  0  0  0  0  0  0  0  0
  -21.1773  -15.4632   24.8700 C   0  0  0  0  0  0  0  0  0  0  0  0
  -29.9121  -14.1791   21.1332 C   0  0  0  0  0  0  0  0  0  0  0  0
  -25.7755  -26.2694   20.3934 C   0  0  0  0  0  0  0  0  0  0  0  0
  -21.9171  -19.0464   24.0361 C   0  0  0  0  0  0  0  0  0  0  0  0
  -23.4487  -28.3388   21.3022 C   0  0  0  0  0  0  0  0  0  0  0  0
  -20.4152  -28.8154   22.7912 C   0  0  0  0  0  0  0  0  0  0  0  0
  -21.8366  -12.1655   20.7846 C   0  0  0  0  0  0  0  0  0  0  0  0
  -30.6550  -25.9534   18.1668 C   0  0  0  0  0  0  0  0  0  0  0  0
  -23.7244  -25.1853   19.4067 C   0  0  0  0  0  0  0  0  0  0  0  0
  -23.2938  -25.9932   22.2185 C   0  0  0  0  0  0  0  0  0  0  0  0
  -30.2747  -26.7378   19.4183 C   0  0  0  0  0  0  0  0  0  0  0  0
  -24.0453  -11.2837   18.1350 C   0  0  0  0  0  0  0  0  0  0  0  0
  -28.7701  -26.9597   19.4555 C   0  0  0  0  0  0  0  0  0  0  0  0
  -25.3093  -12.0942   18.4274 C   0  0  0  0  0  0  0  0  0  0  0  0
  -22.7810  -12.0598   18.4969 C   0  0  0  0  0  0  0  0  0  0  0  0
  -24.0100  -13.3882   20.1699 C   0  0  0  0  0  0  0  0  0  0  0  0
  -28.0230  -25.6231   19.5461 C   0  0  1  0  0  0  0  0  0  0  0  0
  -24.3429  -26.4563   19.9808 C   0  0  1  0  0  0  0  0  0  0  0  0
  -25.3127  -12.6256   19.8733 C   0  0  2  0  0  0  0  0  0  0  0  0
  -18.7917  -30.6227   23.4200 C   0  0  0  0  0  0  0  0  0  0  0  0
  -25.2416  -29.1326   23.6400 C   0  0  0  0  0  0  0  0  0  0  0  0
  -23.2446  -30.1837   24.7241 C   0  0  0  0  0  0  0  0  0  0  0  0
  -24.0671  -31.0418   22.5310 C   0  0  0  0  0  0  0  0  0  0  0  0
  -18.2916  -27.6630   21.0820 C   0  0  0  0  0  0  0  0  0  0  0  0
  -21.0237  -12.3546   23.1218 C   0  0  0  0  0  0  0  0  0  0  0  0
  -21.7543  -17.5824   23.6862 C   0  0  0  0  0  0  0  0  0  0  0  0
  -22.2987  -19.9564   22.8848 C   0  0  0  0  0  0  0  0  0  1  0  0
  -22.8904  -28.8060   22.6247 C   0  0  1  0  0  0  0  0  0  0  0  0
  -19.1952  -29.6094   22.3602 C   0  0  2  0  0  0  0  0  0  0  0  0
  -23.8606  -29.7636   23.3725 C   0  0  0  0  0  0  0  0  0  0  0  0
  -26.4790  -14.7964   19.9729 N   0  0  0  0  0  0  0  0  0  0  0  0
  -21.2639  -14.6943   23.8073 N   0  0  0  0  0  0  0  0  0  0  0  0
  -26.5433  -13.4668   20.1577 N   0  0  0  0  0  0  0  0  0  0  0  0
  -23.6224  -26.9554   21.1538 N   0  0  0  0  0  0  0  0  0  0  0  0
  -22.8469  -12.5346   19.8812 N   0  0  0  0  0  0  0  0  0  0  0  0
  -27.9957  -11.7217   20.8328 N   0  0  0  0  0  0  0  0  0  0  0  0
  -20.3717  -12.0295   26.1263 N   0  0  0  0  0  0  0  0  0  0  0  0
  -30.5697  -15.4156   21.1877 N   0  0  0  0  0  0  0  0  0  0  0  0
  -21.3997  -16.8327   24.8641 N   0  0  0  0  0  0  0  0  0  0  0  0
  -26.6074  -25.8605   19.3686 N   0  0  0  0  0  0  0  0  0  0  0  0
  -21.5839  -29.3866   22.3339 N   0  0  0  0  0  0  0  0  0  0  0  0
  -21.9788  -12.6530   22.0780 N   0  0  0  0  0  0  0  0  0  0  0  0
  -18.0419  -28.6968   22.1192 N   0  3  0  0  0  0  0  0  0  0  0  0
  -30.5379  -13.1368   21.4423 O   0  0  0  0  0  0  0  0  0  0  0  0
  -26.1023  -26.4819   21.5552 O   0  0  0  0  0  0  0  0  0  0  0  0
  -21.7534  -19.4802   25.1757 O   0  0  0  0  0  0  0  0  0  0  0  0
  -23.7142  -29.1700   20.4303 O   0  0  0  0  0  0  0  0  0  0  0  0
  -20.3392  -27.7931   23.4691 O   0  0  0  0  0  0  0  0  0  0  0  0
  -20.8817  -11.4498   20.4638 O   0  0  0  0  0  0  0  0  0  0  0  0
  -29.0070  -20.6404   20.0502 O   0  0  0  0  0  0  0  0  0  0  0  0
  -22.4114  -21.3095   23.3240 O   0  0  0  0  0  0  0  0  0  1  0  0
  -31.7667  -22.8124   24.3011 F   0  0  0  0  0  0  0  0  0  0  0  0
  -27.9392  -22.7260   21.5174 F   0  0  0  0  0  0  0  0  0  0  0  0
  -20.7596  -14.6874   26.3427 S   0  0  0  0  0  0  0  0  0  0  0  0
  1  2  1  0  0  0  0
  1  5  2  0  0  0  0
  2  6  2  0  0  0  0
  3  8  2  0  0  0  0
  3 15  1  0  0  0  0
  4  9  1  0  0  0  0
  4 15  2  0  0  0  0
  5 17  1  0  0  0  0
  6 19  1  0  0  0  0
  7 10  2  0  0  0  0
  7 18  1  0  0  0  0
  8 21  1  0  0  0  0
  9 21  2  0  0  0  0
 10 22  1  0  0  0  0
 11 12  2  0  0  0  0
 11 23  1  0  0  0  0
 12 24  1  0  0  0  0
 13 20  1  0  0  0  0
 13 22  2  0  0  0  0
 14 24  2  0  0  0  0
 14 25  1  0  0  0  0
 15 26  1  0  0  0  0
 16 26  1  0  0  0  0
 16 28  2  0  0  0  0
 16 31  1  0  0  0  0
 17 19  2  0  0  0  0
 17 37  1  0  0  0  0
 18 20  2  0  0  0  0
 18 38  1  0  0  0  0
 19 46  1  0  0  0  0
 20 39  1  0  0  0  0
 21 79  1  0  0  0  0
 22 80  1  0  0  0  0
 23 25  2  0  0  0  0
 23 79  1  0  0  0  0
 24 81  1  0  0  0  0
 25 82  1  0  0  0  0
 26 60  2  0  0  0  0
 27 29  2  0  0  0  0
 27 54  1  0  0  0  0
 27 61  1  0  0  0  0
 28 62  1  0  0  0  0
 28 65  1  0  0  0  0
 29 66  1  0  0  0  0
 29 83  1  0  0  0  0
 30 61  2  0  0  0  0
 30 68  1  0  0  0  0
 30 83  1  0  0  0  0
 31 67  1  0  0  0  0
 31 73  2  0  0  0  0
 32 47  1  0  0  0  0
 32 69  1  0  0  0  0
 32 74  2  0  0  0  0
 33 55  1  0  0  0  0
 33 56  1  0  0  0  0
 33 75  2  0  0  0  0
 34 57  1  0  0  0  0
 34 63  1  0  0  0  0
 34 76  2  0  0  0  0
 35 58  1  0  0  0  0
 35 70  1  0  0  0  0
 35 77  2  0  0  0  0
 36 64  1  0  0  0  0
 36 71  1  0  0  0  0
 36 78  2  0  0  0  0
 37 40  1  0  0  0  0
 38 47  1  0  0  0  0
 39 63  1  0  0  0  0
 40 42  1  0  0  0  0
 41 43  1  0  0  0  0
 41 44  1  0  0  0  0
 42 46  1  0  0  0  0
 43 48  1  0  0  0  0
 44 64  1  0  0  0  0
 45 48  1  0  0  0  0
 45 64  1  0  0  0  0
 46 69  1  0  0  0  0
 47 63  1  0  0  0  0
 48 62  1  0  0  0  0
 49 58  1  0  0  0  0
 50 59  1  0  0  0  0
 51 59  1  0  0  0  0
 52 59  1  0  0  0  0
 53 72  1  0  0  0  0
 54 71  1  0  0  0  0
 55 68  1  0  0  0  0
 56 80  1  0  0  0  0
 57 59  1  0  0  0  0
 57 70  1  0  0  0  0
 58 72  1  0  0  0  0
 60 62  1  0  0  0  0
M  CHG  1  72   1
M  ISO  4  36 100  56 101  71 100  80 101
M  END
> <Batch ID>
0161

> <Smiles>
CNC(C)C(=O)NC(C(=O)N1Cc2cc([101O:1][101CH2:1]C(=O)CNc3nc(C[100NH:0][100C:0](=O)N4CCCC(n5nc(-c6ccc(Oc7ccc(F)cc7F)cc6)c(C(N)=O)c5N)C4)c(N)s3)ccc2CC1C(=O)NC1CCCc2ccccc21)C(C)(C)C

> <Shape>
0.247

> <Color>
0.054

> <Negative vol penalty>
0.000

$$$$

  -OEChem-04052303533D

 84 92  0     1  0  0  0  0  0999 V2000
  -29.8739  -34.1456   25.3970 C   0  0  0  0  0  0  0  0  0  0  0  0
  -29.9276  -33.3574   24.2519 C   0  0  0  0  0  0  0  0  0  0  0  0
  -24.0189   -9.6628   21.8130 C   0  0  0  0  0  0  0  0  0  0  0  0
  -21.9624  -10.6208   20.9824 C   0  0  0  0  0  0  0  0  0  0  0  0
  -29.0801  -33.7547   26.4744 C   0  0  0  0  0  0  0  0  0  0  0  0
  -29.1883  -32.1770   24.1841 C   0  0  0  0  0  0  0  0  0  0  0  0
  -26.5070  -29.7925   19.2211 C   0  0  0  0  0  0  0  0  0  0  0  0
  -23.4477   -8.3914   21.7612 C   0  0  0  0  0  0  0  0  0  0  0  0
  -21.3911   -9.3493   20.9306 C   0  0  0  0  0  0  0  0  0  0  0  0
  -26.8962  -28.7881   18.3360 C   0  0  0  0  0  0  0  0  0  0  0  0
  -21.3121   -6.5432   23.6182 C   0  0  0  0  0  0  0  0  0  0  0  0
  -21.5032   -5.7025   24.7147 C   0  0  0  0  0  0  0  0  0  0  0  0
  -25.5911  -27.1898   19.5855 C   0  0  0  0  0  0  0  0  0  0  0  0
  -22.6016   -4.0914   23.2881 C   0  0  0  0  0  0  0  0  0  0  0  0
  -23.2763  -10.7775   21.4237 C   0  0  0  0  0  0  0  0  0  0  0  0
  -24.5820  -12.7441   20.4565 C   0  0  0  0  0  0  0  0  0  0  0  0
  -28.3231  -32.5739   26.4160 C   0  0  0  0  0  0  0  0  0  0  0  0
  -25.6643  -29.5005   20.3032 C   0  0  0  0  0  0  0  0  0  0  0  0
  -28.3846  -31.7692   25.2623 C   0  0  0  0  0  0  0  0  0  0  0  0
  -25.1906  -28.1928   20.4814 C   0  0  0  0  0  0  0  0  0  0  0  0
  -22.1337   -8.2346   21.3200 C   0  0  0  0  0  0  0  0  0  0  0  0
  -26.4405  -27.4859   18.5198 C   0  0  0  0  0  0  0  0  0  0  0  0
  -21.7658   -6.1580   22.3566 C   0  0  0  0  0  0  0  0  0  0  0  0
  -22.1479   -4.4766   24.5497 C   0  0  0  0  0  0  0  0  0  0  0  0
  -22.4105   -4.9321   22.1916 C   0  0  0  0  0  0  0  0  0  0  0  0
  -23.8657  -12.0912   21.4775 C   0  0  0  0  0  0  0  0  0  0  0  0
  -24.0520  -21.9412   20.4118 C   0  0  0  0  0  0  0  0  0  0  0  0
  -24.1132  -22.3158   21.7378 C   0  0  0  0  0  0  0  0  0  0  0  0
  -24.9264  -13.9573   21.0004 C   0  0  0  0  0  0  0  0  0  0  0  0
  -23.8402  -20.1577   22.0171 C   0  0  0  0  0  0  0  0  0  0  0  0
  -24.9068  -12.2941   19.1345 C   0  0  0  0  0  0  0  0  0  0  0  0
  -24.1558  -22.8482   19.2503 C   0  0  0  0  0  0  0  0  0  0  0  0
  -25.9361  -29.6642   23.4660 C   0  0  0  0  0  0  0  0  0  0  0  0
  -22.7948  -28.8590   23.3874 C   0  0  0  0  0  0  0  0  0  0  0  0
  -20.2198  -27.3987   21.6892 C   0  0  0  0  0  0  0  0  0  0  0  0
  -25.5656  -24.5026   18.0456 C   0  0  0  0  0  0  0  0  0  0  0  0
  -23.6538  -18.5220   23.9240 C   0  0  0  0  0  0  0  0  0  0  0  0
  -27.5166  -32.1681   27.6241 C   0  0  0  0  0  0  0  0  0  0  0  0
  -25.2322  -30.6006   21.2335 C   0  0  0  0  0  0  0  0  0  0  0  0
  -24.2679  -27.8313   21.6156 C   0  0  0  0  0  0  0  0  0  0  0  0
  -26.4719  -31.0955   27.3268 C   0  0  0  0  0  0  0  0  0  0  0  0
  -24.6257  -15.6347   25.7667 C   0  0  0  0  0  0  0  0  0  0  0  0
  -27.0821  -29.9720   26.4949 C   0  0  0  0  0  0  0  0  0  0  0  0
  -24.5736  -14.5091   24.7311 C   0  0  0  0  0  0  0  0  0  0  0  0
  -23.5067  -16.6528   25.5547 C   0  0  0  0  0  0  0  0  0  0  0  0
  -23.3688  -16.0820   23.1621 C   0  0  0  0  0  0  0  0  0  0  0  0
  -27.5778  -30.4947   25.1411 C   0  0  1  0  0  0  0  0  0  0  0  0
  -24.7844  -30.0873   22.5986 C   0  0  1  0  0  0  0  0  0  0  0  0
  -24.5155  -15.0666   23.2953 C   0  0  2  0  0  0  0  0  0  0  0  0
  -24.2950  -23.6905   22.2489 C   0  0  0  0  0  0  0  0  0  0  0  0
  -17.7778  -26.8596   21.8969 C   0  0  0  0  0  0  0  0  0  0  0  0
  -27.9751  -24.4287   17.4005 C   0  0  0  0  0  0  0  0  0  0  0  0
  -23.4657  -26.5596   25.2775 C   0  0  0  0  0  0  0  0  0  0  0  0
  -21.2589  -25.5299   24.6961 C   0  0  0  0  0  0  0  0  0  0  0  0
  -21.3376  -27.7606   25.8099 C   0  0  0  0  0  0  0  0  0  0  0  0
  -19.5353  -29.0535   19.3329 C   0  0  0  0  0  0  0  0  0  0  0  0
  -22.0236  -27.5612   23.3847 C   0  0  1  0  0  0  0  0  0  0  0  0
  -18.8043  -27.8690   21.4069 C   0  0  2  0  0  0  0  0  0  0  0  0
  -26.9118  -25.1794   18.1820 C   0  0  1  0  0  0  0  0  0  1  0  0
  -22.0404  -26.8589   24.7717 C   0  0  0  0  0  0  0  0  0  0  0  0
  -23.7608  -12.8285   22.5863 N   0  0  0  0  0  0  0  0  0  0  0  0
  -23.9916  -21.2945   22.6597 N   0  0  0  0  0  0  0  0  0  0  0  0
  -24.4157  -13.9572   22.2651 N   0  0  0  0  0  0  0  0  0  0  0  0
  -23.8789  -28.9406   22.5020 N   0  0  0  0  0  0  0  0  0  0  0  0
  -23.5160  -17.1402   24.1737 N   0  0  0  0  0  0  0  0  0  0  0  0
  -25.6134  -15.0134   20.5156 N   0  0  0  0  0  0  0  0  0  0  0  0
  -24.4753  -11.0212   18.7370 N   0  0  0  0  0  0  0  0  0  0  0  0
  -23.6822  -18.8637   22.5723 N   0  0  0  0  0  0  0  0  0  0  0  0
  -25.2780  -23.5669   19.1088 N   0  0  0  0  0  0  0  0  0  0  0  0
  -26.4658  -30.6833   24.2343 N   0  0  0  0  0  0  0  0  0  0  0  0
  -20.6878  -27.8813   22.8931 N   0  0  0  0  0  0  0  0  0  0  0  0
  -23.1234  -22.8994   18.4092 N   0  3  0  0  0  0  0  0  0  0  0  0
  -18.6067  -28.0674   19.9431 N   0  3  0  0  0  0  0  0  0  0  0  0
  -25.5745  -12.9933   18.3352 O   0  0  0  0  0  0  0  0  0  0  0  0
  -26.3151  -28.4991   23.4412 O   0  0  0  0  0  0  0  0  0  0  0  0
  -22.4438  -29.7695   24.1421 O   0  0  0  0  0  0  0  0  0  0  0  0
  -20.8463  -26.6726   20.9205 O   0  0  0  0  0  0  0  0  0  0  0  0
  -24.7625  -24.7188   17.1487 O   0  0  0  0  0  0  0  0  0  0  0  0
  -23.7676  -19.3391   24.8413 O   0  0  0  0  0  0  0  0  0  0  0  0
  -21.5760   -6.9941   21.2691 O   0  0  0  0  0  0  0  0  0  0  0  0
  -26.8194  -26.5034   17.6578 O   0  0  0  0  0  0  0  0  0  1  0  0
  -22.3327   -3.6701   25.6030 F   0  0  0  0  0  0  0  0  0  0  0  0
  -22.8495   -4.5572   20.9822 F   0  0  0  0  0  0  0  0  0  0  0  0
  -23.8354  -20.2434   20.3031 S   0  0  0  0  0  0  0  0  0  0  0  0
  1  2  1  0  0  0  0
  1  5  2  0  0  0  0
  2  6  2  0  0  0  0
  3  8  2  0  0  0  0
  3 15  1  0  0  0  0
  4  9  1  0  0  0  0
  4 15  2  0  0  0  0
  5 17  1  0  0  0  0
  6 19  1  0  0  0  0
  7 10  2  0  0  0  0
  7 18  1  0  0  0  0
  8 21  1  0  0  0  0
  9 21  2  0  0  0  0
 10 22  1  0  0  0  0
 11 12  2  0  0  0  0
 11 23  1  0  0  0  0
 12 24  1  0  0  0  0
 13 20  1  0  0  0  0
 13 22  2  0  0  0  0
 14 24  2  0  0  0  0
 14 25  1  0  0  0  0
 15 26  1  0  0  0  0
 16 26  1  0  0  0  0
 16 29  2  0  0  0  0
 16 31  1  0  0  0  0
 17 19  2  0  0  0  0
 17 38  1  0  0  0  0
 18 20  2  0  0  0  0
 18 39  1  0  0  0  0
 19 47  1  0  0  0  0
 20 40  1  0  0  0  0
 21 80  1  0  0  0  0
 22 81  1  0  0  0  0
 23 25  2  0  0  0  0
 23 80  1  0  0  0  0
 24 82  1  0  0  0  0
 25 83  1  0  0  0  0
 26 61  2  0  0  0  0
 27 28  2  0  0  0  0
 27 32  1  0  0  0  0
 27 84  1  0  0  0  0
 28 50  1  0  0  0  0
 28 62  1  0  0  0  0
 29 63  1  0  0  0  0
 29 66  1  0  0  0  0
 30 62  2  0  0  0  0
 30 68  1  0  0  0  0
 30 84  1  0  0  0  0
 31 67  1  0  0  0  0
 31 74  2  0  0  0  0
 32 69  1  0  0  0  0
 32 72  2  0  0  0  0
 33 48  1  0  0  0  0
 33 70  1  0  0  0  0
 33 75  2  0  0  0  0
 34 57  1  0  0  0  0
 34 64  1  0  0  0  0
 34 76  2  0  0  0  0
 35 58  1  0  0  0  0
 35 71  1  0  0  0  0
 35 77  2  0  0  0  0
 36 59  1  0  0  0  0
 36 69  1  0  0  0  0
 36 78  2  0  0  0  0
 37 65  1  0  0  0  0
 37 68  1  0  0  0  0
 37 79  2  0  0  0  0
 38 41  1  0  0  0  0
 39 48  1  0  0  0  0
 40 64  1  0  0  0  0
 41 43  1  0  0  0  0
 42 44  1  0  0  0  0
 42 45  1  0  0  0  0
 43 47  1  0  0  0  0
 44 49  1  0  0  0  0
 45 65  1  0  0  0  0
 46 49  1  0  0  0  0
 46 65  1  0  0  0  0
 47 70  1  0  0  0  0
 48 64  1  0  0  0  0
 49 63  1  0  0  0  0
 51 58  1  0  0  0  0
 52 59  1  0  0  0  0
 53 60  1  0  0  0  0
 54 60  1  0  0  0  0
 55 60  1  0  0  0  0
 56 73  1  0  0  0  0
 57 60  1  0  0  0  0
 57 71  1  0  0  0  0
 58 73  1  0  0  0  0
 59 81  1  0  0  0  0
 61 63  1  0  0  0  0
M  CHG  2  72   1  73   1
M  ISO  4  37 100  59 101  68 100  81 101
M  END
> <Batch ID>
0161

> <Smiles>
CNC(C)C(=O)NC(C(=O)N1Cc2cc([101O:1][101CH:1](C)C(=O)NC(=N)c3sc([100NH:0][100C:0](=O)N4CCCC(n5nc(-c6ccc(Oc7ccc(F)cc7F)cc6)c(C(N)=O)c5N)C4)nc3C)ccc2CC1C(=O)NC1CCCc2ccccc21)C(C)(C)C

> <Shape>
0.237

> <Color>
0.106

> <Negative vol penalty>
0.000

$$$$

  -OEChem-04052303533D

 83 91  0     1  0  0  0  0  0999 V2000
  -17.9500  -30.1746   24.3862 C   0  0  0  0  0  0  0  0  0  0  0  0
  -19.3371  -30.0922   24.3184 C   0  0  0  0  0  0  0  0  0  0  0  0
  -23.4825  -14.9332   21.1393 C   0  0  0  0  0  0  0  0  0  0  0  0
  -25.3223  -15.0630   22.6999 C   0  0  0  0  0  0  0  0  0  0  0  0
  -17.1639  -29.2115   23.7549 C   0  0  0  0  0  0  0  0  0  0  0  0
  -19.9389  -29.0459   23.6201 C   0  0  0  0  0  0  0  0  0  0  0  0
  -23.7492  -30.6137   20.6757 C   0  0  0  0  0  0  0  0  0  0  0  0
  -23.1806  -13.6523   21.6017 C   0  0  0  0  0  0  0  0  0  0  0  0
  -25.0203  -13.7821   23.1624 C   0  0  0  0  0  0  0  0  0  0  0  0
  -24.9654  -30.8870   21.3000 C   0  0  0  0  0  0  0  0  0  0  0  0
  -22.1479  -10.2048   22.1227 C   0  0  0  0  0  0  0  0  0  0  0  0
  -21.8747   -9.2189   21.1745 C   0  0  0  0  0  0  0  0  0  0  0  0
  -25.8009  -28.7345   20.6015 C   0  0  0  0  0  0  0  0  0  0  0  0
  -24.0760   -9.5215   20.2258 C   0  0  0  0  0  0  0  0  0  0  0  0
  -30.4404  -24.1983   19.0664 C   0  0  0  0  0  0  0  0  0  0  0  0
  -24.5534  -15.6385   21.6883 C   0  0  0  0  0  0  0  0  0  0  0  0
  -24.3650  -18.1825   21.7002 C   0  0  0  0  0  0  0  0  0  0  0  0
  -17.7563  -28.1584   23.0404 C   0  0  0  0  0  0  0  0  0  0  0  0
  -23.5455  -29.3921   20.0178 C   0  0  0  0  0  0  0  0  0  0  0  0
  -19.1601  -28.0671   22.9798 C   0  0  0  0  0  0  0  0  0  0  0  0
  -24.5821  -28.4492   19.9674 C   0  0  0  0  0  0  0  0  0  0  0  0
  -23.9495  -13.0768   22.6133 C   0  0  0  0  0  0  0  0  0  0  0  0
  -25.9905  -29.9462   21.2655 C   0  0  0  0  0  0  0  0  0  0  0  0
  -23.3850  -10.8491   22.1224 C   0  0  0  0  0  0  0  0  0  0  0  0
  -22.8387   -8.8773   20.2261 C   0  0  0  0  0  0  0  0  0  0  0  0
  -24.3491  -10.5074   21.1740 C   0  0  0  0  0  0  0  0  0  0  0  0
  -24.8661  -16.9614   21.2106 C   0  0  0  0  0  0  0  0  0  0  0  0
  -24.9637  -19.1383   20.9162 C   0  0  0  0  0  0  0  0  0  0  0  0
  -29.6480  -23.3265   19.7835 C   0  0  0  0  0  0  0  0  0  0  0  0
  -30.0650  -25.4605   20.8202 C   0  0  0  0  0  0  0  0  0  0  0  0
  -23.4411  -18.4306   22.7681 C   0  0  0  0  0  0  0  0  0  0  0  0
  -30.5896  -28.7086   22.5651 C   0  0  0  0  0  0  0  0  0  0  0  0
  -29.4168  -29.6549   22.5387 C   0  0  0  0  0  0  0  0  0  0  0  0
  -21.5514  -26.9459   20.3958 C   0  0  0  0  0  0  0  0  0  0  0  0
  -22.9154  -25.9126   17.6400 C   0  0  0  0  0  0  0  0  0  0  0  0
  -25.5998  -25.9783   15.5338 C   0  0  0  0  0  0  0  0  0  0  0  0
  -29.4483  -21.2461   18.3769 C   0  0  0  0  0  0  0  0  0  0  0  0
  -16.8658  -27.1146   22.4142 C   0  0  0  0  0  0  0  0  0  0  0  0
  -22.2371  -29.1235   19.3263 C   0  0  0  0  0  0  0  0  0  0  0  0
  -24.4211  -27.1310   19.2568 C   0  0  0  0  0  0  0  0  0  0  0  0
  -17.5782  -26.2475   21.3794 C   0  0  0  0  0  0  0  0  0  0  0  0
  -27.6644  -18.6883   16.6588 C   0  0  0  0  0  0  0  0  0  0  0  0
  -18.9252  -25.7738   21.9161 C   0  0  0  0  0  0  0  0  0  0  0  0
  -26.7361  -18.1114   17.7301 C   0  0  0  0  0  0  0  0  0  0  0  0
  -29.0233  -19.0795   17.2367 C   0  0  0  0  0  0  0  0  0  0  0  0
  -28.0406  -19.3940   19.4738 C   0  0  0  0  0  0  0  0  0  0  0  0
  -19.8498  -26.9611   22.2111 C   0  0  1  0  0  0  0  0  0  0  0  0
  -21.9614  -27.6365   19.1259 C   0  0  1  0  0  0  0  0  0  0  0  0
  -26.6370  -19.0454   18.9522 C   0  0  2  0  0  0  0  0  0  0  0  0
  -26.4380  -25.0012   13.3797 C   0  0  0  0  0  0  0  0  0  0  0  0
  -23.5117  -23.2829   19.0679 C   0  0  0  0  0  0  0  0  0  0  0  0
  -25.1377  -22.7412   17.2428 C   0  0  0  0  0  0  0  0  0  0  0  0
  -22.7184  -23.0328   16.7093 C   0  0  0  0  0  0  0  0  0  0  0  0
  -25.7831  -28.6440   14.2611 C   0  0  0  0  0  0  0  0  0  0  0  0
  -30.8004  -27.7699   21.4130 C   0  0  0  0  0  0  0  0  0  0  0  0
  -28.1849  -29.2015   21.8000 C   0  0  0  0  0  0  0  0  0  1  0  0
  -24.1119  -25.0598   17.2936 C   0  0  1  0  0  0  0  0  0  0  0  0
  -25.6957  -26.1585   14.0295 C   0  0  2  0  0  0  0  0  0  0  0  0
  -23.8726  -23.5531   17.5935 C   0  0  0  0  0  0  0  0  0  0  0  0
  -30.6803  -25.4226   19.6592 N   0  0  0  0  0  0  0  0  0  0  0  0
  -25.7174  -17.1237   20.1943 N   0  0  0  0  0  0  0  0  0  0  0  0
  -31.3633  -28.7504   23.5983 N   0  0  0  0  0  0  0  0  0  0  0  0
  -25.7558  -18.4581   20.0387 N   0  0  0  0  0  0  0  0  0  0  0  0
  -23.1210  -26.9124   18.6013 N   0  0  0  0  0  0  0  0  0  0  0  0
  -28.8508  -19.9680   18.3881 N   0  0  0  0  0  0  0  0  0  0  0  0
  -24.8844  -20.4858   20.8987 N   0  0  0  0  0  0  0  0  0  0  0  0
  -22.9217  -17.3346   23.4704 N   0  0  0  0  0  0  0  0  0  0  0  0
  -29.1882  -22.0141   19.5114 N   0  0  0  0  0  0  0  0  0  0  0  0
  -30.0918  -26.5462   21.6844 N   0  0  0  0  0  0  0  0  0  0  0  0
  -20.4188  -27.4757   20.9839 N   0  0  0  0  0  0  0  0  0  0  0  0
  -24.4289  -25.3485   15.8991 N   0  0  0  0  0  0  0  0  0  0  0  0
  -26.4170  -27.4214   13.7040 N   0  3  0  0  0  0  0  0  0  0  0  0
  -23.0740  -19.5891   23.0793 O   0  0  0  0  0  0  0  0  0  0  0  0
  -29.5453  -30.7356   23.0961 O   0  0  0  0  0  0  0  0  0  0  0  0
  -22.2128  -26.0013   20.8105 O   0  0  0  0  0  0  0  0  0  0  0  0
  -21.8398  -25.7042   17.0732 O   0  0  0  0  0  0  0  0  0  0  0  0
  -26.4777  -26.3551   16.3071 O   0  0  0  0  0  0  0  0  0  0  0  0
  -30.1173  -21.6414   17.4187 O   0  0  0  0  0  0  0  0  0  0  0  0
  -23.6550  -11.8271   23.0649 O   0  0  0  0  0  0  0  0  0  0  0  0
  -27.1784  -30.2102   21.8746 O   0  0  0  0  0  0  0  0  0  1  0  0
  -22.5769   -7.9294   19.3166 F   0  0  0  0  0  0  0  0  0  0  0  0
  -25.5399  -11.1221   21.1695 F   0  0  0  0  0  0  0  0  0  0  0  0
  -29.1801  -24.0582   21.2623 S   0  0  0  0  0  0  0  0  0  0  0  0
  1  2  1  0  0  0  0
  1  5  2  0  0  0  0
  2  6  2  0  0  0  0
  3  8  2  0  0  0  0
  3 16  1  0  0  0  0
  4  9  1  0  0  0  0
  4 16  2  0  0  0  0
  5 18  1  0  0  0  0
  6 20  1  0  0  0  0
  7 10  2  0  0  0  0
  7 19  1  0  0  0  0
  8 22  1  0  0  0  0
  9 22  2  0  0  0  0
 10 23  1  0  0  0  0
 11 12  2  0  0  0  0
 11 24  1  0  0  0  0
 12 25  1  0  0  0  0
 13 21  1  0  0  0  0
 13 23  2  0  0  0  0
 14 25  2  0  0  0  0
 14 26  1  0  0  0  0
 15 29  2  0  0  0  0
 15 60  1  0  0  0  0
 16 27  1  0  0  0  0
 17 27  1  0  0  0  0
 17 28  2  0  0  0  0
 17 31  1  0  0  0  0
 18 20  2  0  0  0  0
 18 38  1  0  0  0  0
 19 21  2  0  0  0  0
 19 39  1  0  0  0  0
 20 47  1  0  0  0  0
 21 40  1  0  0  0  0
 22 79  1  0  0  0  0
 23 80  1  0  0  0  0
 24 26  2  0  0  0  0
 24 79  1  0  0  0  0
 25 81  1  0  0  0  0
 26 82  1  0  0  0  0
 27 61  2  0  0  0  0
 28 63  1  0  0  0  0
 28 66  1  0  0  0  0
 29 68  1  0  0  0  0
 29 83  1  0  0  0  0
 30 60  2  0  0  0  0
 30 69  1  0  0  0  0
 30 83  1  0  0  0  0
 31 67  1  0  0  0  0
 31 73  2  0  0  0  0
 32 33  1  0  0  0  0
 32 55  1  0  0  0  0
 32 62  2  0  0  0  0
 33 56  1  0  0  0  0
 33 74  2  0  0  0  0
 34 48  1  0  0  0  0
 34 70  1  0  0  0  0
 34 75  2  0  0  0  0
 35 57  1  0  0  0  0
 35 64  1  0  0  0  0
 35 76  2  0  0  0  0
 36 58  1  0  0  0  0
 36 71  1  0  0  0  0
 36 77  2  0  0  0  0
 37 65  1  0  0  0  0
 37 68  1  0  0  0  0
 37 78  2  0  0  0  0
 38 41  1  0  0  0  0
 39 48  1  0  0  0  0
 40 64  1  0  0  0  0
 41 43  1  0  0  0  0
 42 44  1  0  0  0  0
 42 45  1  0  0  0  0
 43 47  1  0  0  0  0
 44 49  1  0  0  0  0
 45 65  1  0  0  0  0
 46 49  1  0  0  0  0
 46 65  1  0  0  0  0
 47 70  1  0  0  0  0
 48 64  1  0  0  0  0
 49 63  1  0  0  0  0
 50 58  1  0  0  0  0
 51 59  1  0  0  0  0
 52 59  1  0  0  0  0
 53 59  1  0  0  0  0
 54 72  1  0  0  0  0
 55 69  1  0  0  0  0
 56 80  1  0  0  0  0
 57 59  1  0  0  0  0
 57 71  1  0  0  0  0
 58 72  1  0  0  0  0
 61 63  1  0  0  0  0
M  CHG  1  72   1
M  ISO  4  37 100  56 101  68 100  80 101
M  END
> <Batch ID>
0161

> <Smiles>
CNC(C)C(=O)NC(C(=O)N1Cc2cc([101O:1][101CH2:1]C(=O)C(=N)CNc3ncc([100NH:0][100C:0](=O)N4CCCC(n5nc(-c6ccc(Oc7ccc(F)cc7F)cc6)c(C(N)=O)c5N)C4)s3)ccc2CC1C(=O)NC1CCCc2ccccc21)C(C)(C)C

> <Shape>
0.234

> <Color>
0.056

> <Negative vol penalty>
0.000

$$$$

  -OEChem-04052303533D

 83 91  0     1  0  0  0  0  0999 V2000
  -28.4000  -16.8268   17.5188 C   0  0  0  0  0  0  0  0  0  0  0  0
  -28.6388  -17.5206   18.7007 C   0  0  0  0  0  0  0  0  0  0  0  0
  -32.6455  -17.4984   23.4543 C   0  0  0  0  0  0  0  0  0  0  0  0
  -23.0749   -9.8669   19.9427 C   0  0  0  0  0  0  0  0  0  0  0  0
  -23.8319   -9.8779   22.2370 C   0  0  0  0  0  0  0  0  0  0  0  0
  -31.8468  -18.3662   24.1990 C   0  0  0  0  0  0  0  0  0  0  0  0
  -29.2896  -16.9432   16.4515 C   0  0  0  0  0  0  0  0  0  0  0  0
  -29.7681  -18.3304   18.8165 C   0  0  0  0  0  0  0  0  0  0  0  0
  -28.7330  -22.8179   20.9226 C   0  0  0  0  0  0  0  0  0  0  0  0
  -32.0585  -16.6128   22.5504 C   0  0  0  0  0  0  0  0  0  0  0  0
  -22.3308   -8.7142   20.1937 C   0  0  0  0  0  0  0  0  0  0  0  0
  -23.0877   -8.7252   22.4881 C   0  0  0  0  0  0  0  0  0  0  0  0
  -28.5766  -22.8504   22.3076 C   0  0  0  0  0  0  0  0  0  0  0  0
  -19.3807   -7.9200   21.6426 C   0  0  0  0  0  0  0  0  0  0  0  0
  -18.0745   -7.8728   21.1558 C   0  0  0  0  0  0  0  0  0  0  0  0
  -29.8742  -17.4630   23.1360 C   0  0  0  0  0  0  0  0  0  0  0  0
  -30.8307  -23.6786   22.5367 C   0  0  0  0  0  0  0  0  0  0  0  0
  -18.6359   -5.9275   19.8377 C   0  0  0  0  0  0  0  0  0  0  0  0
  -23.8255  -10.4488   20.9643 C   0  0  0  0  0  0  0  0  0  0  0  0
  -30.4612  -18.3485   24.0399 C   0  0  0  0  0  0  0  0  0  0  0  0
  -24.1674  -12.9737   20.8404 C   0  0  0  0  0  0  0  0  0  0  0  0
  -30.4252  -17.7624   16.5509 C   0  0  0  0  0  0  0  0  0  0  0  0
  -29.9451  -23.2059   20.3339 C   0  0  0  0  0  0  0  0  0  0  0  0
  -30.6744  -18.4568   17.7501 C   0  0  0  0  0  0  0  0  0  0  0  0
  -30.9990  -23.6526   21.1438 C   0  0  0  0  0  0  0  0  0  0  0  0
  -30.6729  -16.5951   22.3913 C   0  0  0  0  0  0  0  0  0  0  0  0
  -22.3372   -8.1433   21.4664 C   0  0  0  0  0  0  0  0  0  0  0  0
  -29.6265  -23.2780   23.1151 C   0  0  0  0  0  0  0  0  0  0  0  0
  -20.3147   -6.9709   21.2269 C   0  0  0  0  0  0  0  0  0  0  0  0
  -17.7021   -6.8766   20.2534 C   0  0  0  0  0  0  0  0  0  0  0  0
  -19.9423   -5.9747   20.3245 C   0  0  0  0  0  0  0  0  0  0  0  0
  -24.5949  -11.6392   20.7055 C   0  0  0  0  0  0  0  0  0  0  0  0
  -25.2600  -13.7226   20.4772 C   0  0  0  0  0  0  0  0  0  0  0  0
  -29.6149  -19.2673   24.8274 C   0  0  0  0  0  0  0  0  0  0  0  0
  -22.8964  -13.4902   21.2568 C   0  0  0  0  0  0  0  0  0  0  0  0
  -32.1399  -21.7526   18.5522 C   0  0  0  0  0  0  0  0  0  0  0  0
  -33.4090  -24.7327   18.3773 C   0  0  0  0  0  0  0  0  0  0  0  0
  -33.7125  -27.8381   19.7596 C   0  0  0  0  0  0  0  0  0  0  0  0
  -30.7259  -14.7688   20.6570 C   0  0  0  0  0  0  0  0  0  0  0  0
  -31.3831  -17.8196   15.3873 C   0  0  0  0  0  0  0  0  0  0  0  0
  -30.0887  -23.1905   18.8367 C   0  0  0  0  0  0  0  0  0  0  0  0
  -32.3137  -24.0989   20.5599 C   0  0  0  0  0  0  0  0  0  0  0  0
  -32.3579  -18.9922   15.4579 C   0  0  0  0  0  0  0  0  0  0  0  0
  -29.6146  -12.3508   18.2915 C   0  0  0  0  0  0  0  0  0  0  0  0
  -32.9609  -19.1018   16.8547 C   0  0  0  0  0  0  0  0  0  0  0  0
  -28.1744  -12.0599   18.7197 C   0  0  0  0  0  0  0  0  0  0  0  0
  -30.5282  -12.5817   19.4939 C   0  0  0  0  0  0  0  0  0  0  0  0
  -28.6194  -13.3085   20.8715 C   0  0  0  0  0  0  0  0  0  0  0  0
  -31.8752  -19.3646   17.9053 C   0  0  1  0  0  0  0  0  0  0  0  0
  -31.5415  -23.1196   18.3765 C   0  0  1  0  0  0  0  0  0  0  0  0
  -27.6481  -13.1332   19.6927 C   0  0  2  0  0  0  0  0  0  0  0  0
  -34.8474  -30.0485   19.4081 C   0  0  0  0  0  0  0  0  0  0  0  0
  -27.4495  -23.0731   25.7507 C   0  0  0  0  0  0  0  0  0  0  0  0
  -36.0404  -23.5336   19.3507 C   0  0  0  0  0  0  0  0  0  0  0  0
  -36.8199  -25.8525   19.8826 C   0  0  0  0  0  0  0  0  0  0  0  0
  -36.2779  -25.2301   17.5286 C   0  0  0  0  0  0  0  0  0  0  0  0
  -31.1272  -29.2631   19.5477 C   0  0  0  0  0  0  0  0  0  0  0  0
  -29.3866  -21.4431   25.9721 C   0  0  0  0  0  0  0  0  0  0  0  0
  -34.4008  -25.5221   19.1970 C   0  0  1  0  0  0  0  0  0  0  0  0
  -33.5937  -29.2257   19.1554 C   0  0  2  0  0  0  0  0  0  0  0  0
  -28.5904  -22.3527   25.0454 C   0  0  2  0  0  0  0  0  0  1  0  0
  -35.8608  -25.0244   19.0011 C   0  0  0  0  0  0  0  0  0  0  0  0
  -25.8603  -11.5427   20.2890 N   0  0  0  0  0  0  0  0  0  0  0  0
  -26.2373  -12.8261   20.1589 N   0  0  0  0  0  0  0  0  0  0  0  0
  -32.4073  -24.0597   19.0912 N   0  0  0  0  0  0  0  0  0  0  0  0
  -29.9681  -13.6141   20.3688 N   0  0  0  0  0  0  0  0  0  0  0  0
  -25.4704  -15.0540   20.4021 N   0  0  0  0  0  0  0  0  0  0  0  0
  -28.3803  -18.8727   25.1389 N   0  0  0  0  0  0  0  0  0  0  0  0
  -21.8841  -12.5816   21.5943 N   0  0  0  0  0  0  0  0  0  0  0  0
  -30.0775  -15.6952   21.4730 N   0  0  0  0  0  0  0  0  0  0  0  0
  -31.4680  -20.7530   17.8748 N   0  0  0  0  0  0  0  0  0  0  0  0
  -34.1954  -26.9236   18.8477 N   0  0  0  0  0  0  0  0  0  0  0  0
  -30.1260  -20.4503   25.1878 N   0  3  0  0  0  0  0  0  0  0  0  0
  -32.4306  -29.9487   19.7431 N   0  3  0  0  0  0  0  0  0  0  0  0
  -22.6600  -14.7209   21.3117 O   0  0  0  0  0  0  0  0  0  0  0  0
  -33.1382  -21.6151   19.2494 O   0  0  0  0  0  0  0  0  0  0  0  0
  -33.5146  -24.7197   17.1483 O   0  0  0  0  0  0  0  0  0  0  0  0
  -33.4108  -27.5911   20.9252 O   0  0  0  0  0  0  0  0  0  0  0  0
  -31.8556  -14.9367   20.1905 O   0  0  0  0  0  0  0  0  0  0  0  0
  -21.6110   -7.0186   21.7118 O   0  0  0  0  0  0  0  0  0  0  0  0
  -29.4767  -23.3100   24.4673 O   0  0  0  0  0  0  0  0  0  1  0  0
  -16.4472   -6.8305   19.7871 F   0  0  0  0  0  0  0  0  0  0  0  0
  -20.8347   -5.0595   19.9224 F   0  0  0  0  0  0  0  0  0  0  0  0
  1  2  1  0  0  0  0
  1  7  2  0  0  0  0
  2  8  2  0  0  0  0
  3  6  2  0  0  0  0
  3 10  1  0  0  0  0
  4 11  2  0  0  0  0
  4 19  1  0  0  0  0
  5 12  1  0  0  0  0
  5 19  2  0  0  0  0
  6 20  1  0  0  0  0
  7 22  1  0  0  0  0
  8 24  1  0  0  0  0
  9 13  2  0  0  0  0
  9 23  1  0  0  0  0
 10 26  2  0  0  0  0
 11 27  1  0  0  0  0
 12 27  2  0  0  0  0
 13 28  1  0  0  0  0
 14 15  2  0  0  0  0
 14 29  1  0  0  0  0
 15 30  1  0  0  0  0
 16 20  2  0  0  0  0
 16 26  1  0  0  0  0
 17 25  1  0  0  0  0
 17 28  2  0  0  0  0
 18 30  2  0  0  0  0
 18 31  1  0  0  0  0
 19 32  1  0  0  0  0
 20 34  1  0  0  0  0
 21 32  1  0  0  0  0
 21 33  2  0  0  0  0
 21 35  1  0  0  0  0
 22 24  2  0  0  0  0
 22 40  1  0  0  0  0
 23 25  2  0  0  0  0
 23 41  1  0  0  0  0
 24 49  1  0  0  0  0
 25 42  1  0  0  0  0
 26 70  1  0  0  0  0
 27 80  1  0  0  0  0
 28 81  1  0  0  0  0
 29 31  2  0  0  0  0
 29 80  1  0  0  0  0
 30 82  1  0  0  0  0
 31 83  1  0  0  0  0
 32 63  2  0  0  0  0
 33 64  1  0  0  0  0
 33 67  1  0  0  0  0
 34 68  1  0  0  0  0
 34 73  2  0  0  0  0
 35 69  1  0  0  0  0
 35 75  2  0  0  0  0
 36 50  1  0  0  0  0
 36 71  1  0  0  0  0
 36 76  2  0  0  0  0
 37 59  1  0  0  0  0
 37 65  1  0  0  0  0
 37 77  2  0  0  0  0
 38 60  1  0  0  0  0
 38 72  1  0  0  0  0
 38 78  2  0  0  0  0
 39 66  1  0  0  0  0
 39 70  1  0  0  0  0
 39 79  2  0  0  0  0
 40 43  1  0  0  0  0
 41 50  1  0  0  0  0
 42 65  1  0  0  0  0
 43 45  1  0  0  0  0
 44 46  1  0  0  0  0
 44 47  1  0  0  0  0
 45 49  1  0  0  0  0
 46 51  1  0  0  0  0
 47 66  1  0  0  0  0
 48 51  1  0  0  0  0
 48 66  1  0  0  0  0
 49 71  1  0  0  0  0
 50 65  1  0  0  0  0
 51 64  1  0  0  0  0
 52 60  1  0  0  0  0
 53 61  1  0  0  0  0
 54 62  1  0  0  0  0
 55 62  1  0  0  0  0
 56 62  1  0  0  0  0
 57 74  1  0  0  0  0
 58 61  1  0  0  0  0
 58 73  1  0  0  0  0
 59 62  1  0  0  0  0
 59 72  1  0  0  0  0
 60 74  1  0  0  0  0
 61 81  1  0  0  0  0
 63 64  1  0  0  0  0
M  CHG  2  73   1  74   1
M  ISO  4  39 100  61 101  70 100  81 101
M  END
> <Batch ID>
0161

> <Smiles>
CNC(C)C(=O)NC(C(=O)N1Cc2cc([101O:1][101CH:1](C)CNC(=N)c3cccc([100NH:0][100C:0](=O)N4CCCC(n5nc(-c6ccc(Oc7ccc(F)cc7F)cc6)c(C(N)=O)c5N)C4)c3)ccc2CC1C(=O)NC1CCCc2ccccc21)C(C)(C)C

> <Shape>
0.200

> <Color>
0.187

> <Negative vol penalty>
0.000

$$$$

  -OEChem-04052303533D

 88 96  0     1  0  0  0  0  0999 V2000
  -28.9363  -37.3371   24.0707 C   0  0  0  0  0  0  0  0  0  0  0  0
  -28.8489  -36.2394   23.2205 C   0  0  0  0  0  0  0  0  0  0  0  0
  -24.6056   -9.8500   21.6934 C   0  0  0  0  0  0  0  0  0  0  0  0
  -22.9260  -10.1979   19.9920 C   0  0  0  0  0  0  0  0  0  0  0  0
  -28.3088  -37.3051   25.3153 C   0  0  0  0  0  0  0  0  0  0  0  0
  -28.1347  -35.1086   23.6149 C   0  0  0  0  0  0  0  0  0  0  0  0
  -24.8469  -31.3932   20.0243 C   0  0  0  0  0  0  0  0  0  0  0  0
  -23.8062   -8.8704   22.2823 C   0  0  0  0  0  0  0  0  0  0  0  0
  -22.1266   -9.2183   20.5808 C   0  0  0  0  0  0  0  0  0  0  0  0
  -25.1326  -30.1611   19.4378 C   0  0  0  0  0  0  0  0  0  0  0  0
  -21.9823   -5.8430   20.6659 C   0  0  0  0  0  0  0  0  0  0  0  0
  -21.3840   -4.9050   19.8246 C   0  0  0  0  0  0  0  0  0  0  0  0
  -28.7236  -21.7569   19.9798 C   0  0  0  0  0  0  0  0  0  0  0  0
  -24.0504  -29.0403   21.2795 C   0  0  0  0  0  0  0  0  0  0  0  0
  -30.1570  -23.6435   20.4522 C   0  0  0  0  0  0  0  0  0  0  0  0
  -19.2031   -5.6152   20.5836 C   0  0  0  0  0  0  0  0  0  0  0  0
  -24.1655  -10.5138   20.5482 C   0  0  0  0  0  0  0  0  0  0  0  0
  -29.7625  -20.8856   20.3070 C   0  0  0  0  0  0  0  0  0  0  0  0
  -25.9646  -11.3416   18.9403 C   0  0  0  0  0  0  0  0  0  0  0  0
  -27.5784  -36.1771   25.7211 C   0  0  0  0  0  0  0  0  0  0  0  0
  -24.1692  -31.4579   21.2503 C   0  0  0  0  0  0  0  0  0  0  0  0
  -27.4978  -35.0610   24.8666 C   0  0  0  0  0  0  0  0  0  0  0  0
  -23.7550  -30.2746   21.8782 C   0  0  0  0  0  0  0  0  0  0  0  0
  -30.9987  -21.3932   20.7068 C   0  0  0  0  0  0  0  0  0  0  0  0
  -28.9209  -23.1359   20.0524 C   0  0  0  0  0  0  0  0  0  0  0  0
  -31.1960  -22.7722   20.7794 C   0  0  0  0  0  0  0  0  0  0  0  0
  -22.5667   -8.5545   21.7260 C   0  0  0  0  0  0  0  0  0  0  0  0
  -24.7369  -28.9843   20.0668 C   0  0  0  0  0  0  0  0  0  0  0  0
  -21.1910   -6.6671   21.4661 C   0  0  0  0  0  0  0  0  0  0  0  0
  -19.9944   -4.7911   19.7834 C   0  0  0  0  0  0  0  0  0  0  0  0
  -19.8014   -6.5532   21.4250 C   0  0  0  0  0  0  0  0  0  0  0  0
  -24.9907  -11.5263   19.9398 C   0  0  0  0  0  0  0  0  0  0  0  0
  -26.4605  -12.6011   18.7072 C   0  0  0  0  0  0  0  0  0  0  0  0
  -29.5223  -19.4509   20.2205 C   0  0  0  0  0  0  0  0  0  0  0  0
  -28.5733  -18.7761   20.9006 C   0  0  0  0  0  0  0  0  0  0  0  0
  -26.1968  -27.1739   19.8185 C   0  0  0  0  0  0  0  0  0  1  0  0
  -26.3837  -10.1392   18.2814 C   0  0  0  0  0  0  0  0  0  0  0  0
  -26.5718  -25.9905   19.3177 C   0  0  0  0  0  0  0  0  0  0  0  0
  -28.4479  -17.3189   20.6967 C   0  0  0  0  0  0  0  0  0  0  0  0
  -27.8891  -25.4086   19.7350 C   0  0  0  0  0  0  0  0  0  0  0  0
  -24.8730  -32.5620   24.1467 C   0  0  0  0  0  0  0  0  0  0  0  0
  -21.7705  -31.8338   24.7520 C   0  0  0  0  0  0  0  0  0  0  0  0
  -19.0192  -29.9815   23.9481 C   0  0  0  0  0  0  0  0  0  0  0  0
  -26.9567  -36.1706   27.0952 C   0  0  0  0  0  0  0  0  0  0  0  0
  -23.8451  -32.7958   21.8566 C   0  0  0  0  0  0  0  0  0  0  0  0
  -23.0070  -30.2904   23.1853 C   0  0  0  0  0  0  0  0  0  0  0  0
  -25.9058  -35.0795   27.2832 C   0  0  0  0  0  0  0  0  0  0  0  0
  -24.8210  -17.1287   20.2051 C   0  0  0  0  0  0  0  0  0  0  0  0
  -26.4204  -33.7455   26.7519 C   0  0  0  0  0  0  0  0  0  0  0  0
  -24.6233  -15.6224   20.0577 C   0  0  0  0  0  0  0  0  0  0  0  0
  -25.9461  -17.4647   21.1828 C   0  0  0  0  0  0  0  0  0  0  0  0
  -27.0427  -15.2945   20.7050 C   0  0  0  0  0  0  0  0  0  0  0  0
  -26.7115  -33.8257   25.2485 C   0  0  1  0  0  0  0  0  0  0  0  0
  -23.6028  -32.7269   23.3612 C   0  0  1  0  0  0  0  0  0  0  0  0
  -25.9469  -14.9331   19.6902 C   0  0  1  0  0  0  0  0  0  0  0  0
  -33.1567  -20.3660   19.9488 C   0  0  0  0  0  0  0  0  0  0  0  0
  -16.6426  -29.5791   24.6460 C   0  0  0  0  0  0  0  0  0  0  0  0
  -22.7496  -30.1981   27.1345 C   0  0  0  0  0  0  0  0  0  0  0  0
  -20.5078  -29.0856   27.2031 C   0  0  0  0  0  0  0  0  0  0  0  0
  -20.6889  -31.5462   27.5709 C   0  0  0  0  0  0  0  0  0  0  0  0
  -32.9299  -24.5652   20.7165 C   0  0  0  0  0  0  0  0  0  0  0  0
  -17.9768  -30.8623   21.3220 C   0  0  0  0  0  0  0  0  0  0  0  0
  -32.1197  -20.4644   21.0612 C   0  0  0  0  0  0  0  0  0  0  0  0
  -21.0364  -30.6113   25.2477 C   0  0  1  0  0  0  0  0  0  0  0  0
  -17.5678  -30.3730   23.7369 C   0  0  2  0  0  0  0  0  0  0  0  0
  -21.2614  -30.3596   26.7654 C   0  0  0  0  0  0  0  0  0  0  0  0
  -24.8733  -12.8025   20.3159 N   0  0  0  0  0  0  0  0  0  0  0  0
  -25.7801  -13.4312   19.5487 N   0  0  0  0  0  0  0  0  0  0  0  0
  -27.1850  -16.7481   20.8445 N   0  0  0  0  0  0  0  0  0  0  0  0
  -22.7192  -31.6229   23.7415 N   0  0  0  0  0  0  0  0  0  0  0  0
  -27.4078  -13.0684   17.8666 N   0  0  0  0  0  0  0  0  0  0  0  0
  -25.7701   -8.9315   18.6412 N   0  0  0  0  0  0  0  0  0  0  0  0
  -27.8666  -24.0207   19.7206 N   0  0  0  0  0  0  0  0  0  0  0  0
  -32.4400  -23.3063   21.1825 N   0  0  0  0  0  0  0  0  0  0  0  0
  -25.4805  -33.7545   24.4908 N   0  0  0  0  0  0  0  0  0  0  0  0
  -19.6383  -30.7950   24.8733 N   0  0  0  0  0  0  0  0  0  0  0  0
  -17.1647  -30.1249   22.3238 N   0  3  0  0  0  0  0  0  0  0  0  0
  -27.2873  -10.1333   17.4113 O   0  0  0  0  0  0  0  0  0  0  0  0
  -29.4715  -16.6944   20.4124 O   0  0  0  0  0  0  0  0  0  0  0  0
  -28.8303  -26.1337   20.0389 O   0  0  0  0  0  0  0  0  0  0  0  0
  -25.2716  -31.4363   24.4216 O   0  0  0  0  0  0  0  0  0  0  0  0
  -21.5066  -32.9362   25.2385 O   0  0  0  0  0  0  0  0  0  0  0  0
  -19.5496  -29.0450   23.3545 O   0  0  0  0  0  0  0  0  0  0  0  0
  -25.7908  -25.2795   18.4293 O   0  0  0  0  0  0  0  0  0  0  0  0
  -21.7864   -7.5984   22.3002 O   0  0  0  0  0  0  0  0  0  0  0  0
  -25.0150  -27.7803   19.4969 O   0  0  0  0  0  0  0  0  0  1  0  0
  -19.4200   -3.8913   18.9744 F   0  0  0  0  0  0  0  0  0  0  0  0
  -19.0359   -7.3430   22.1905 F   0  0  0  0  0  0  0  0  0  0  0  0
  1  2  1  0  0  0  0
  1  5  2  0  0  0  0
  2  6  2  0  0  0  0
  3  8  2  0  0  0  0
  3 17  1  0  0  0  0
  4  9  1  0  0  0  0
  4 17  2  0  0  0  0
  5 20  1  0  0  0  0
  6 22  1  0  0  0  0
  7 10  2  0  0  0  0
  7 21  1  0  0  0  0
  8 27  1  0  0  0  0
  9 27  2  0  0  0  0
 10 28  1  0  0  0  0
 11 12  2  0  0  0  0
 11 29  1  0  0  0  0
 12 30  1  0  0  0  0
 13 18  2  0  0  0  0
 13 25  1  0  0  0  0
 14 23  1  0  0  0  0
 14 28  2  0  0  0  0
 15 25  2  0  0  0  0
 15 26  1  0  0  0  0
 16 30  2  0  0  0  0
 16 31  1  0  0  0  0
 17 32  1  0  0  0  0
 18 24  1  0  0  0  0
 18 34  1  0  0  0  0
 19 32  1  0  0  0  0
 19 33  2  0  0  0  0
 19 37  1  0  0  0  0
 20 22  2  0  0  0  0
 20 44  1  0  0  0  0
 21 23  2  0  0  0  0
 21 45  1  0  0  0  0
 22 53  1  0  0  0  0
 23 46  1  0  0  0  0
 24 26  2  0  0  0  0
 24 63  1  0  0  0  0
 25 73  1  0  0  0  0
 26 74  1  0  0  0  0
 27 85  1  0  0  0  0
 28 86  1  0  0  0  0
 29 31  2  0  0  0  0
 29 85  1  0  0  0  0
 30 87  1  0  0  0  0
 31 88  1  0  0  0  0
 32 67  2  0  0  0  0
 33 68  1  0  0  0  0
 33 71  1  0  0  0  0
 34 35  2  0  0  0  0
 35 39  1  0  0  0  0
 36 38  2  0  0  0  0
 36 86  1  0  0  0  0
 37 72  1  0  0  0  0
 37 78  2  0  0  0  0
 38 40  1  0  0  0  0
 38 84  1  0  0  0  0
 39 69  1  0  0  0  0
 39 79  2  0  0  0  0
 40 73  1  0  0  0  0
 40 80  2  0  0  0  0
 41 54  1  0  0  0  0
 41 75  1  0  0  0  0
 41 81  2  0  0  0  0
 42 64  1  0  0  0  0
 42 70  1  0  0  0  0
 42 82  2  0  0  0  0
 43 65  1  0  0  0  0
 43 76  1  0  0  0  0
 43 83  2  0  0  0  0
 44 47  1  0  0  0  0
 45 54  1  0  0  0  0
 46 70  1  0  0  0  0
 47 49  1  0  0  0  0
 48 50  1  0  0  0  0
 48 51  1  0  0  0  0
 49 53  1  0  0  0  0
 50 55  1  0  0  0  0
 51 69  1  0  0  0  0
 52 55  1  0  0  0  0
 52 69  1  0  0  0  0
 53 75  1  0  0  0  0
 54 70  1  0  0  0  0
 55 68  1  0  0  0  0
 56 63  1  0  0  0  0
 57 65  1  0  0  0  0
 58 66  1  0  0  0  0
 59 66  1  0  0  0  0
 60 66  1  0  0  0  0
 61 74  1  0  0  0  0
 62 77  1  0  0  0  0
 64 66  1  0  0  0  0
 64 76  1  0  0  0  0
 65 77  1  0  0  0  0
 67 68  1  0  0  0  0
M  CHG  1  77   1
M  ISO  4  35 100  36 101  39 100  86 101
M  END
> <Batch ID>
0161

> <Smiles>
CCc1c(C=[100CH:0][100C:0](=O)N2CCCC(n3nc(-c4ccc(Oc5ccc(F)cc5F)cc4)c(C(N)=O)c3N)C2)cc(NC(=O)C(=O)[101CH2:1][101O:1]c2ccc3c(c2)CN(C(=O)C(NC(=O)C(C)NC)C(C)(C)C)C(C(=O)NC2CCCc4ccccc42)C3)cc1NC

> <Shape>
0.292

> <Color>
0.072

> <Negative vol penalty>
0.000

$$$$

  -OEChem-04052303533D

 86 94  0     1  0  0  0  0  0999 V2000
  -20.9969  -16.9199   19.1486 C   0  0  0  0  0  0  0  0  0  0  0  0
  -21.6905  -17.6309   20.1227 C   0  0  0  0  0  0  0  0  0  0  0  0
  -32.4780  -17.0966   23.9227 C   0  0  0  0  0  0  0  0  0  0  0  0
  -23.0735   -9.8697   19.9417 C   0  0  0  0  0  0  0  0  0  0  0  0
  -23.8315   -9.8781   22.2357 C   0  0  0  0  0  0  0  0  0  0  0  0
  -19.8121  -16.2628   19.4778 C   0  0  0  0  0  0  0  0  0  0  0  0
  -21.1990  -17.6861   21.4265 C   0  0  0  0  0  0  0  0  0  0  0  0
  -24.8105  -16.9405   24.8973 C   0  0  0  0  0  0  0  0  0  0  0  0
  -31.8731  -16.2269   23.0153 C   0  0  0  0  0  0  0  0  0  0  0  0
  -31.8884  -18.3283   24.2074 C   0  0  0  0  0  0  0  0  0  0  0  0
  -22.3284   -8.7174   20.1922 C   0  0  0  0  0  0  0  0  0  0  0  0
  -23.0864   -8.7258   22.4862 C   0  0  0  0  0  0  0  0  0  0  0  0
  -25.6551  -18.0136   25.1779 C   0  0  0  0  0  0  0  0  0  0  0  0
  -19.9408   -5.9792   20.3211 C   0  0  0  0  0  0  0  0  0  0  0  0
  -18.6355   -5.9319   19.8318 C   0  0  0  0  0  0  0  0  0  0  0  0
  -24.3681  -18.5006   27.1593 C   0  0  0  0  0  0  0  0  0  0  0  0
  -18.0709   -7.8765   21.1498 C   0  0  0  0  0  0  0  0  0  0  0  0
  -23.8251  -10.4500   20.9635 C   0  0  0  0  0  0  0  0  0  0  0  0
  -24.1692  -12.9748   20.8415 C   0  0  0  0  0  0  0  0  0  0  0  0
  -19.3110  -16.3019   20.7885 C   0  0  0  0  0  0  0  0  0  0  0  0
  -23.7300  -16.6455   25.7410 C   0  0  0  0  0  0  0  0  0  0  0  0
  -20.0057  -17.0300   21.7733 C   0  0  0  0  0  0  0  0  0  0  0  0
  -23.5128  -17.4216   26.8885 C   0  0  0  0  0  0  0  0  0  0  0  0
  -30.0891  -17.8207   22.6771 C   0  0  0  0  0  0  0  0  0  0  0  0
  -30.6786  -16.5890   22.3925 C   0  0  0  0  0  0  0  0  0  0  0  0
  -30.6940  -18.6904   23.5846 C   0  0  0  0  0  0  0  0  0  0  0  0
  -22.3349   -8.1455   21.4644 C   0  0  0  0  0  0  0  0  0  0  0  0
  -25.4323  -18.7956   26.3075 C   0  0  0  0  0  0  0  0  0  0  0  0
  -20.3112   -6.9751   21.2248 C   0  0  0  0  0  0  0  0  0  0  0  0
  -17.7005   -6.8805   20.2461 C   0  0  0  0  0  0  0  0  0  0  0  0
  -19.3763   -7.9237   21.6391 C   0  0  0  0  0  0  0  0  0  0  0  0
  -24.5954  -11.6400   20.7053 C   0  0  0  0  0  0  0  0  0  0  0  0
  -25.2623  -13.7230   20.4784 C   0  0  0  0  0  0  0  0  0  0  0  0
  -22.8988  -13.4921   21.2589 C   0  0  0  0  0  0  0  0  0  0  0  0
  -29.3191  -21.6668   25.2967 C   0  0  0  0  0  0  0  0  0  0  0  0
  -28.1377  -21.2652   26.1421 C   0  0  0  0  0  0  0  0  0  0  0  0
  -20.5716  -16.5588   25.3941 C   0  0  0  0  0  0  0  0  0  0  0  0
  -20.6631  -15.3765   28.4134 C   0  0  0  0  0  0  0  0  0  0  0  0
  -22.3432  -15.1140   31.3724 C   0  0  0  0  0  0  0  0  0  0  0  0
  -30.7292  -14.7640   20.6566 C   0  0  0  0  0  0  0  0  0  0  0  0
  -18.0014  -15.6153   21.0858 C   0  0  0  0  0  0  0  0  0  0  0  0
  -22.8441  -15.4681   25.4388 C   0  0  0  0  0  0  0  0  0  0  0  0
  -22.3789  -17.1342   27.8373 C   0  0  0  0  0  0  0  0  0  0  0  0
  -17.7453  -15.4114   22.5768 C   0  0  0  0  0  0  0  0  0  0  0  0
  -29.6147  -12.3490   18.2896 C   0  0  0  0  0  0  0  0  0  0  0  0
  -18.0446  -16.6918   23.3499 C   0  0  0  0  0  0  0  0  0  0  0  0
  -28.1744  -12.0591   18.7183 C   0  0  0  0  0  0  0  0  0  0  0  0
  -30.5290  -12.5781   19.4918 C   0  0  0  0  0  0  0  0  0  0  0  0
  -28.6215  -13.3055   20.8708 C   0  0  0  0  0  0  0  0  0  0  0  0
  -19.5176  -17.0926   23.2044 C   0  0  1  0  0  0  0  0  0  0  0  0
  -21.4680  -15.5733   26.0890 C   0  0  1  0  0  0  0  0  0  0  0  0
  -27.6495  -13.1320   19.6924 C   0  0  2  0  0  0  0  0  0  0  0  0
  -29.0231  -18.6600   20.5686 C   0  0  0  0  0  0  0  0  0  0  0  0
  -22.1488  -14.1148   33.6661 C   0  0  0  0  0  0  0  0  0  0  0  0
  -18.6859  -17.5645   29.1963 C   0  0  0  0  0  0  0  0  0  0  0  0
  -19.2600  -17.1286   31.5940 C   0  0  0  0  0  0  0  0  0  0  0  0
  -18.2233  -15.3275   30.2142 C   0  0  0  0  0  0  0  0  0  0  0  0
  -24.7641  -13.4570   30.9822 C   0  0  0  0  0  0  0  0  0  0  0  0
  -28.8068  -18.2099   22.0087 C   0  0  0  0  0  0  0  0  0  0  0  0
  -30.4260  -20.6792   25.0672 C   0  0  0  0  0  0  0  0  0  0  0  0
  -27.3265  -20.0860   25.6728 C   0  0  0  0  0  0  0  0  0  1  0  0
  -20.6310  -15.9769   29.7981 C   0  0  1  0  0  0  0  0  0  0  0  0
  -22.6601  -13.9150   32.2478 C   0  0  2  0  0  0  0  0  0  0  0  0
  -19.2203  -16.5062   30.1819 C   0  0  0  0  0  0  0  0  0  0  0  0
  -25.8605  -11.5427   20.2882 N   0  0  0  0  0  0  0  0  0  0  0  0
  -29.3215  -22.8627   24.8092 N   0  0  0  0  0  0  0  0  0  0  0  0
  -26.2386  -12.8258   20.1590 N   0  0  0  0  0  0  0  0  0  0  0  0
  -21.5366  -15.9762   27.4951 N   0  0  0  0  0  0  0  0  0  0  0  0
  -29.9702  -13.6102   20.3678 N   0  0  0  0  0  0  0  0  0  0  0  0
  -25.4739  -15.0542   20.4044 N   0  0  0  0  0  0  0  0  0  0  0  0
  -21.8858  -12.5841   21.5962 N   0  0  0  0  0  0  0  0  0  0  0  0
  -30.0820  -15.6904   21.4736 N   0  0  0  0  0  0  0  0  0  0  0  0
  -30.1231  -19.9200   23.8819 N   0  0  0  0  0  0  0  0  0  0  0  0
  -20.3507  -16.2750   24.0599 N   0  0  0  0  0  0  0  0  0  0  0  0
  -21.1507  -14.9537   30.6989 N   0  0  0  0  0  0  0  0  0  0  0  0
  -24.1323  -13.6909   32.3062 N   0  3  0  0  0  0  0  0  0  0  0  0
  -22.6636  -14.7229   21.3149 O   0  0  0  0  0  0  0  0  0  0  0  0
  -27.8988  -21.9318   27.1388 O   0  0  0  0  0  0  0  0  0  0  0  0
  -20.1129  -17.5058   26.0224 O   0  0  0  0  0  0  0  0  0  0  0  0
  -19.9451  -14.4065   28.1581 O   0  0  0  0  0  0  0  0  0  0  0  0
  -23.0780  -16.0963   31.2966 O   0  0  0  0  0  0  0  0  0  0  0  0
  -31.8588  -14.9314   20.1897 O   0  0  0  0  0  0  0  0  0  0  0  0
  -21.6077   -7.0212   21.7091 O   0  0  0  0  0  0  0  0  0  0  0  0
  -26.2548  -19.8441   26.5834 O   0  0  0  0  0  0  0  0  0  1  0  0
  -16.4475   -6.8359   19.7749 F   0  0  0  0  0  0  0  0  0  0  0  0
  -19.7265   -8.8836   22.5062 F   0  0  0  0  0  0  0  0  0  0  0  0
  1  2  1  0  0  0  0
  1  6  2  0  0  0  0
  2  7  2  0  0  0  0
  3  9  2  0  0  0  0
  3 10  1  0  0  0  0
  4 11  2  0  0  0  0
  4 18  1  0  0  0  0
  5 12  1  0  0  0  0
  5 18  2  0  0  0  0
  6 20  1  0  0  0  0
  7 22  1  0  0  0  0
  8 13  2  0  0  0  0
  8 21  1  0  0  0  0
  9 25  1  0  0  0  0
 10 26  2  0  0  0  0
 11 27  1  0  0  0  0
 12 27  2  0  0  0  0
 13 28  1  0  0  0  0
 14 15  2  0  0  0  0
 14 29  1  0  0  0  0
 15 30  1  0  0  0  0
 16 23  1  0  0  0  0
 16 28  2  0  0  0  0
 17 30  2  0  0  0  0
 17 31  1  0  0  0  0
 18 32  1  0  0  0  0
 19 32  1  0  0  0  0
 19 33  2  0  0  0  0
 19 34  1  0  0  0  0
 20 22  2  0  0  0  0
 20 41  1  0  0  0  0
 21 23  2  0  0  0  0
 21 42  1  0  0  0  0
 22 50  1  0  0  0  0
 23 43  1  0  0  0  0
 24 25  2  0  0  0  0
 24 26  1  0  0  0  0
 24 59  1  0  0  0  0
 25 72  1  0  0  0  0
 26 73  1  0  0  0  0
 27 83  1  0  0  0  0
 28 84  1  0  0  0  0
 29 31  2  0  0  0  0
 29 83  1  0  0  0  0
 30 85  1  0  0  0  0
 31 86  1  0  0  0  0
 32 65  2  0  0  0  0
 33 67  1  0  0  0  0
 33 70  1  0  0  0  0
 34 71  1  0  0  0  0
 34 77  2  0  0  0  0
 35 36  1  0  0  0  0
 35 60  1  0  0  0  0
 35 66  2  0  0  0  0
 36 61  1  0  0  0  0
 36 78  2  0  0  0  0
 37 51  1  0  0  0  0
 37 74  1  0  0  0  0
 37 79  2  0  0  0  0
 38 62  1  0  0  0  0
 38 68  1  0  0  0  0
 38 80  2  0  0  0  0
 39 63  1  0  0  0  0
 39 75  1  0  0  0  0
 39 81  2  0  0  0  0
 40 69  1  0  0  0  0
 40 72  1  0  0  0  0
 40 82  2  0  0  0  0
 41 44  1  0  0  0  0
 42 51  1  0  0  0  0
 43 68  1  0  0  0  0
 44 46  1  0  0  0  0
 45 47  1  0  0  0  0
 45 48  1  0  0  0  0
 46 50  1  0  0  0  0
 47 52  1  0  0  0  0
 48 69  1  0  0  0  0
 49 52  1  0  0  0  0
 49 69  1  0  0  0  0
 50 74  1  0  0  0  0
 51 68  1  0  0  0  0
 52 67  1  0  0  0  0
 53 59  1  0  0  0  0
 54 63  1  0  0  0  0
 55 64  1  0  0  0  0
 56 64  1  0  0  0  0
 57 64  1  0  0  0  0
 58 76  1  0  0  0  0
 60 73  1  0  0  0  0
 61 84  1  0  0  0  0
 62 64  1  0  0  0  0
 62 75  1  0  0  0  0
 63 76  1  0  0  0  0
 65 67  1  0  0  0  0
M  CHG  1  76   1
M  ISO  4  40 100  61 101  72 100  84 101
M  END
> <Batch ID>
0161

> <Smiles>
CCc1c(NCC(=N)C(=O)[101CH2:1][101O:1]c2ccc3c(c2)CN(C(=O)C(NC(=O)C(C)NC)C(C)(C)C)C(C(=O)NC2CCCc4ccccc42)C3)cccc1[100NH:0][100C:0](=O)N1CCCC(n2nc(-c3ccc(Oc4ccc(F)cc4F)cc3)c(C(N)=O)c2N)C1

> <Shape>
0.157

> <Color>
0.180

> <Negative vol penalty>
0.000

$$$$

  -OEChem-04052303533D

 87 95  0     1  0  0  0  0  0999 V2000
  -19.4567   -8.1056   22.1823 C   0  0  0  0  0  0  0  0  0  0  0  0
  -19.6791   -9.2470   22.9460 C   0  0  0  0  0  0  0  0  0  0  0  0
  -22.5098  -29.7425   19.9145 C   0  0  0  0  0  0  0  0  0  0  0  0
  -22.4210  -28.1564   21.7347 C   0  0  0  0  0  0  0  0  0  0  0  0
  -20.4808   -7.5873   21.3909 C   0  0  0  0  0  0  0  0  0  0  0  0
  -20.9262   -9.8702   22.9195 C   0  0  0  0  0  0  0  0  0  0  0  0
  -22.0498  -15.8764   23.3297 C   0  0  0  0  0  0  0  0  0  0  0  0
  -21.1197  -29.8542   19.9440 C   0  0  0  0  0  0  0  0  0  0  0  0
  -21.0309  -28.2681   21.7643 C   0  0  0  0  0  0  0  0  0  0  0  0
  -22.4351  -16.6879   24.3959 C   0  0  0  0  0  0  0  0  0  0  0  0
  -18.7332  -30.4416   22.9546 C   0  0  0  0  0  0  0  0  0  0  0  0
  -18.1217  -30.5761   24.2010 C   0  0  0  0  0  0  0  0  0  0  0  0
  -24.7385  -16.4887   23.7073 C   0  0  0  0  0  0  0  0  0  0  0  0
  -29.1934  -19.9349   22.4466 C   0  0  0  0  0  0  0  0  0  0  0  0
  -27.8859  -21.9515   22.2824 C   0  0  0  0  0  0  0  0  0  0  0  0
  -16.8747  -28.5444   23.8085 C   0  0  0  0  0  0  0  0  0  0  0  0
  -23.1604  -28.8935   20.8098 C   0  0  0  0  0  0  0  0  0  0  0  0
  -25.5271  -29.5504   21.4988 C   0  0  0  0  0  0  0  0  0  0  0  0
  -21.7382   -8.2101   21.3472 C   0  0  0  0  0  0  0  0  0  0  0  0
  -23.0087  -15.3552   22.4492 C   0  0  0  0  0  0  0  0  0  0  0  0
  -21.9686   -9.3590   22.1278 C   0  0  0  0  0  0  0  0  0  0  0  0
  -24.3625  -15.6730   22.6292 C   0  0  0  0  0  0  0  0  0  0  0  0
  -28.2630  -20.8148   22.9911 C   0  0  0  0  0  0  0  0  0  0  0  0
  -20.3803  -29.1171   20.8689 C   0  0  0  0  0  0  0  0  0  0  0  0
  -23.7799  -16.9918   24.5865 C   0  0  0  0  0  0  0  0  0  0  0  0
  -18.4154  -29.3586   22.1350 C   0  0  0  0  0  0  0  0  0  0  0  0
  -17.1925  -29.6275   24.6280 C   0  0  0  0  0  0  0  0  0  0  0  0
  -17.4862  -28.4099   22.5620 C   0  0  0  0  0  0  0  0  0  0  0  0
  -24.5962  -28.7773   20.7794 C   0  0  0  0  0  0  0  0  0  0  0  0
  -29.7278  -20.2162   21.1972 C   0  0  0  0  0  0  0  0  0  0  0  0
  -26.7506  -29.0509   21.1243 C   0  0  0  0  0  0  0  0  0  0  0  0
  -28.4534  -22.1818   21.0372 C   0  0  0  0  0  0  0  0  0  0  0  0
  -25.3058  -30.6240   22.4229 C   0  0  0  0  0  0  0  0  0  0  0  0
  -30.6950  -19.3619   20.5575 C   0  0  0  0  0  0  0  0  0  0  0  0
  -26.3740  -20.8050   26.2007 C   0  0  0  0  0  0  0  0  0  0  0  0
  -25.2214  -19.8364   26.2710 C   0  0  0  0  0  0  0  0  0  0  0  0
  -23.9646  -12.4313   21.6486 C   0  0  0  0  0  0  0  0  0  0  0  0
  -25.7457  -14.0343   19.4622 C   0  0  0  0  0  0  0  0  0  0  0  0
  -27.2731  -16.9439   18.5413 C   0  0  0  0  0  0  0  0  0  0  0  0
  -28.5299  -23.7351   19.0553 C   0  0  0  0  0  0  0  0  0  0  0  0
  -22.8288   -7.5858   20.5132 C   0  0  0  0  0  0  0  0  0  0  0  0
  -22.5741  -14.5032   21.2883 C   0  0  0  0  0  0  0  0  0  0  0  0
  -25.4289  -15.1552   21.7002 C   0  0  0  0  0  0  0  0  0  0  0  0
  -24.0065   -8.5212   20.2516 C   0  0  0  0  0  0  0  0  0  0  0  0
  -28.9512  -26.8904   17.4605 C   0  0  0  0  0  0  0  0  0  0  0  0
  -24.4345   -9.2142   21.5414 C   0  0  0  0  0  0  0  0  0  0  0  0
  -27.9714  -27.8042   18.2001 C   0  0  0  0  0  0  0  0  0  0  0  0
  -28.3923  -25.4789   17.2904 C   0  0  0  0  0  0  0  0  0  0  0  0
  -26.9509  -25.7541   19.2692 C   0  0  0  0  0  0  0  0  0  0  0  0
  -23.3002  -10.0776   22.1064 C   0  0  1  0  0  0  0  0  0  0  0  0
  -23.6876  -13.6070   20.7550 C   0  0  1  0  0  0  0  0  0  0  0  0
  -27.4966  -27.1691   19.5218 C   0  0  2  0  0  0  0  0  0  0  0  0
  -28.6849  -17.9368   16.7196 C   0  0  0  0  0  0  0  0  0  0  0  0
  -28.1834  -12.5556   20.5488 C   0  0  0  0  0  0  0  0  0  0  0  0
  -29.6326  -14.2379   19.3920 C   0  0  0  0  0  0  0  0  0  0  0  0
  -28.1187  -12.7711   18.0580 C   0  0  0  0  0  0  0  0  0  0  0  0
  -25.2152  -18.9690   17.8909 C   0  0  0  0  0  0  0  0  0  0  0  0
  -26.7430  -21.4108   24.8779 C   0  0  0  0  0  0  0  0  0  0  0  0
  -25.3266  -18.5824   25.4431 C   0  0  0  0  0  0  0  0  0  1  0  0
  -27.1291  -14.6384   19.4459 C   0  0  1  0  0  0  0  0  0  0  0  0
  -27.2707  -17.7123   17.2321 C   0  0  2  0  0  0  0  0  0  0  0  0
  -28.2463  -13.5591   19.3800 C   0  0  0  0  0  0  0  0  0  0  0  0
  -25.1784  -27.8567   20.0063 N   0  0  0  0  0  0  0  0  0  0  0  0
  -26.9998  -21.0643   27.3003 N   0  0  0  0  0  0  0  0  0  0  0  0
  -26.4883  -28.0483   20.2377 N   0  0  0  0  0  0  0  0  0  0  0  0
  -29.3471  -21.3180   20.5364 N   0  3  0  0  0  0  0  0  0  0  0  0
  -24.9545  -14.3210   20.5837 N   0  0  0  0  0  0  0  0  0  0  0  0
  -27.9668  -24.9398   18.5839 N   0  0  0  0  0  0  0  0  0  0  0  0
  -28.0143  -29.3761   21.4702 N   0  0  0  0  0  0  0  0  0  0  0  0
  -23.9862  -31.0106   22.6943 N   0  0  0  0  0  0  0  0  0  0  0  0
  -31.1237  -18.2372   21.1613 N   0  0  0  0  0  0  0  0  0  0  0  0
  -27.7106  -20.5578   24.2381 N   0  0  0  0  0  0  0  0  0  0  0  0
  -28.0728  -23.3377   20.3114 N   0  0  0  0  0  0  0  0  0  0  0  0
  -23.1944  -11.3186   21.3693 N   0  0  0  0  0  0  0  0  0  0  0  0
  -27.1476  -15.5861   18.3368 N   0  0  0  0  0  0  0  0  0  0  0  0
  -31.1873  -19.6708   19.3429 N   0  3  0  0  0  0  0  0  0  0  0  0
  -26.6197  -19.0407   17.4122 N   0  3  0  0  0  0  0  0  0  0  0  0
  -26.2507  -31.2338   22.9786 O   0  0  0  0  0  0  0  0  0  0  0  0
  -24.2676  -20.1374   26.9743 O   0  0  0  0  0  0  0  0  0  0  0  0
  -24.8153  -12.5261   22.5256 O   0  0  0  0  0  0  0  0  0  0  0  0
  -25.3779  -13.3397   18.5114 O   0  0  0  0  0  0  0  0  0  0  0  0
  -27.3796  -17.4930   19.6357 O   0  0  0  0  0  0  0  0  0  0  0  0
  -29.3770  -23.1167   18.4056 O   0  0  0  0  0  0  0  0  0  0  0  0
  -19.0239  -29.2260   20.8982 O   0  0  0  0  0  0  0  0  0  0  0  0
  -24.1587  -17.7832   25.6268 O   0  0  0  0  0  0  0  0  0  1  0  0
  -16.6065  -29.7559   25.8256 F   0  0  0  0  0  0  0  0  0  0  0  0
  -17.1777  -27.3666   21.7795 F   0  0  0  0  0  0  0  0  0  0  0  0
  1  2  1  0  0  0  0
  1  5  2  0  0  0  0
  2  6  2  0  0  0  0
  3  8  2  0  0  0  0
  3 17  1  0  0  0  0
  4  9  1  0  0  0  0
  4 17  2  0  0  0  0
  5 19  1  0  0  0  0
  6 21  1  0  0  0  0
  7 10  2  0  0  0  0
  7 20  1  0  0  0  0
  8 24  1  0  0  0  0
  9 24  2  0  0  0  0
 10 25  1  0  0  0  0
 11 12  2  0  0  0  0
 11 26  1  0  0  0  0
 12 27  1  0  0  0  0
 13 22  1  0  0  0  0
 13 25  2  0  0  0  0
 14 23  2  0  0  0  0
 14 30  1  0  0  0  0
 15 23  1  0  0  0  0
 15 32  2  0  0  0  0
 16 27  2  0  0  0  0
 16 28  1  0  0  0  0
 17 29  1  0  0  0  0
 18 29  1  0  0  0  0
 18 31  2  0  0  0  0
 18 33  1  0  0  0  0
 19 21  2  0  0  0  0
 19 41  1  0  0  0  0
 20 22  2  0  0  0  0
 20 42  1  0  0  0  0
 21 50  1  0  0  0  0
 22 43  1  0  0  0  0
 23 72  1  0  0  0  0
 24 84  1  0  0  0  0
 25 85  1  0  0  0  0
 26 28  2  0  0  0  0
 26 84  1  0  0  0  0
 27 86  1  0  0  0  0
 28 87  1  0  0  0  0
 29 63  2  0  0  0  0
 30 34  1  0  0  0  0
 30 66  2  0  0  0  0
 31 65  1  0  0  0  0
 31 69  1  0  0  0  0
 32 66  1  0  0  0  0
 32 73  1  0  0  0  0
 33 70  1  0  0  0  0
 33 78  2  0  0  0  0
 34 71  1  0  0  0  0
 34 76  2  0  0  0  0
 35 36  1  0  0  0  0
 35 58  1  0  0  0  0
 35 64  2  0  0  0  0
 36 59  1  0  0  0  0
 36 79  2  0  0  0  0
 37 51  1  0  0  0  0
 37 74  1  0  0  0  0
 37 80  2  0  0  0  0
 38 60  1  0  0  0  0
 38 67  1  0  0  0  0
 38 81  2  0  0  0  0
 39 61  1  0  0  0  0
 39 75  1  0  0  0  0
 39 82  2  0  0  0  0
 40 68  1  0  0  0  0
 40 73  1  0  0  0  0
 40 83  2  0  0  0  0
 41 44  1  0  0  0  0
 42 51  1  0  0  0  0
 43 67  1  0  0  0  0
 44 46  1  0  0  0  0
 45 47  1  0  0  0  0
 45 48  1  0  0  0  0
 46 50  1  0  0  0  0
 47 52  1  0  0  0  0
 48 68  1  0  0  0  0
 49 52  1  0  0  0  0
 49 68  1  0  0  0  0
 50 74  1  0  0  0  0
 51 67  1  0  0  0  0
 52 65  1  0  0  0  0
 53 61  1  0  0  0  0
 54 62  1  0  0  0  0
 55 62  1  0  0  0  0
 56 62  1  0  0  0  0
 57 77  1  0  0  0  0
 58 72  1  0  0  0  0
 59 85  1  0  0  0  0
 60 62  1  0  0  0  0
 60 75  1  0  0  0  0
 61 77  1  0  0  0  0
 63 65  1  0  0  0  0
M  CHG  3  66   1  76   1  77   1
M  ISO  4  40 100  59 101  73 100  85 101
M  END
> <Batch ID>
0161

> <Smiles>
CNC(C)C(=O)NC(C(=O)N1Cc2cc([101O:1][101CH2:1]C(=O)C(=N)CNc3cc([100NH:0][100C:0](=O)N4CCCC(n5nc(-c6ccc(Oc7ccc(F)cc7F)cc6)c(C(N)=O)c5N)C4)nc(C(=N)N)c3)ccc2CC1C(=O)NC1CCCc2ccccc21)C(C)(C)C

> <Shape>
0.271

> <Color>
0.053

> <Negative vol penalty>
0.000

$$$$

  -OEChem-04052303533D

 85 93  0     1  0  0  0  0  0999 V2000
  -27.6017  -19.4236   15.9313 C   0  0  0  0  0  0  0  0  0  0  0  0
  -28.1734  -18.6359   16.9253 C   0  0  0  0  0  0  0  0  0  0  0  0
  -23.9426  -29.6799   20.7601 C   0  0  0  0  0  0  0  0  0  0  0  0
  -26.0857  -29.9787   21.8348 C   0  0  0  0  0  0  0  0  0  0  0  0
  -26.2378  -19.7103   15.9689 C   0  0  0  0  0  0  0  0  0  0  0  0
  -27.3816  -18.1353   17.9582 C   0  0  0  0  0  0  0  0  0  0  0  0
  -28.3236  -13.2571   18.9385 C   0  0  0  0  0  0  0  0  0  0  0  0
  -23.3604  -30.5538   21.6782 C   0  0  0  0  0  0  0  0  0  0  0  0
  -25.5035  -30.8527   22.7528 C   0  0  0  0  0  0  0  0  0  0  0  0
  -29.4659  -12.9663   19.6830 C   0  0  0  0  0  0  0  0  0  0  0  0
  -24.6537  -33.4429   25.1584 C   0  0  0  0  0  0  0  0  0  0  0  0
  -25.3298  -34.6288   25.4446 C   0  0  0  0  0  0  0  0  0  0  0  0
  -28.1067  -12.7188   21.6605 C   0  0  0  0  0  0  0  0  0  0  0  0
  -30.9184  -18.3926   20.5134 C   0  0  0  0  0  0  0  0  0  0  0  0
  -25.1883  -35.2707   23.1197 C   0  0  0  0  0  0  0  0  0  0  0  0
  -25.3053  -29.3922   20.8384 C   0  0  0  0  0  0  0  0  0  0  0  0
  -26.4837  -28.8194   18.6496 C   0  0  0  0  0  0  0  0  0  0  0  0
  -25.4270  -19.2049   16.9974 C   0  0  0  0  0  0  0  0  0  0  0  0
  -27.0634  -13.2917   19.5527 C   0  0  0  0  0  0  0  0  0  0  0  0
  -26.0058  -18.4165   18.0103 C   0  0  0  0  0  0  0  0  0  0  0  0
  -26.9496  -13.0077   20.9211 C   0  0  0  0  0  0  0  0  0  0  0  0
  -30.0529  -19.1106   21.3729 C   0  0  0  0  0  0  0  0  0  0  0  0
  -24.1408  -31.1402   22.6745 C   0  0  0  0  0  0  0  0  0  0  0  0
  -29.3580  -12.6999   21.0448 C   0  0  0  0  0  0  0  0  0  0  0  0
  -24.2449  -33.1708   23.8528 C   0  0  0  0  0  0  0  0  0  0  0  0
  -25.5971  -35.5427   24.4253 C   0  0  0  0  0  0  0  0  0  0  0  0
  -24.5122  -34.0847   22.8335 C   0  0  0  0  0  0  0  0  0  0  0  0
  -25.9072  -28.4891   19.8907 C   0  0  0  0  0  0  0  0  0  0  0  0
  -30.7675  -17.0653   20.8413 C   0  0  0  0  0  0  0  0  0  0  0  0
  -26.9088  -27.6178   18.1379 C   0  0  0  0  0  0  0  0  0  0  0  0
  -29.4347  -18.1709   22.1645 C   0  0  0  0  0  0  0  0  0  0  0  0
  -31.5670  -14.9478   21.0906 C   0  0  0  0  0  0  0  0  0  0  0  0
  -26.6226  -30.0980   18.0161 C   0  0  0  0  0  0  0  0  0  0  0  0
  -32.2016  -13.7034   20.5529 C   0  0  0  0  0  0  0  0  0  0  0  0
  -24.8429  -15.5232   19.9925 C   0  0  0  0  0  0  0  0  0  0  0  0
  -28.4289  -22.5536   20.8431 C   0  0  0  0  0  0  0  0  0  0  0  0
  -23.1339  -13.0353   21.1809 C   0  0  0  0  0  0  0  0  0  0  0  0
  -23.1398   -9.9332   22.6033 C   0  0  0  0  0  0  0  0  0  0  0  0
  -23.9667  -19.5808   17.0218 C   0  0  0  0  0  0  0  0  0  0  0  0
  -25.8376  -13.5807   18.7303 C   0  0  0  0  0  0  0  0  0  0  0  0
  -25.6175  -13.0122   21.6239 C   0  0  0  0  0  0  0  0  0  0  0  0
  -23.1267  -18.7018   17.9448 C   0  0  0  0  0  0  0  0  0  0  0  0
  -25.9293  -22.9427   18.2302 C   0  0  0  0  0  0  0  0  0  0  0  0
  -23.8182  -18.5305   19.2937 C   0  0  0  0  0  0  0  0  0  0  0  0
  -25.6753  -24.4490   18.2721 C   0  0  0  0  0  0  0  0  0  0  0  0
  -26.2059  -22.3812   19.6224 C   0  0  0  0  0  0  0  0  0  0  0  0
  -27.0746  -24.5714   20.3792 C   0  0  0  0  0  0  0  0  0  0  0  0
  -25.1752  -17.8346   19.1335 C   0  0  1  0  0  0  0  0  0  0  0  0
  -24.6669  -14.0942   19.5628 C   0  0  1  0  0  0  0  0  0  0  0  0
  -26.8215  -25.1822   18.9907 C   0  0  2  0  0  0  0  0  0  0  0  0
  -21.5905   -8.1728   23.4968 C   0  0  0  0  0  0  0  0  0  0  0  0
  -32.7391  -12.1275   22.3586 C   0  0  0  0  0  0  0  0  0  0  0  0
  -22.7007  -14.6994   23.7014 C   0  0  0  0  0  0  0  0  0  0  0  0
  -22.0028  -12.6041   24.8808 C   0  0  0  0  0  0  0  0  0  0  0  0
  -20.6877  -13.4320   22.9294 C   0  0  0  0  0  0  0  0  0  0  0  0
  -24.0659   -7.9448   20.6165 C   0  0  0  0  0  0  0  0  0  0  0  0
  -29.8596  -20.5723   21.4056 C   0  0  0  0  0  0  0  0  0  0  0  0
  -28.5519  -21.0536   20.7482 C   0  0  0  0  0  0  0  0  0  0  0  0
  -22.9665  -12.4072   22.5434 C   0  0  1  0  0  0  0  0  0  0  0  0
  -22.3529   -8.6757   22.2808 C   0  0  2  0  0  0  0  0  0  0  0  0
  -31.7754  -12.3803   21.1859 C   0  0  2  0  0  0  0  0  0  1  0  0
  -22.1149  -13.2874   23.5012 C   0  0  0  0  0  0  0  0  0  0  0  0
  -25.9595  -27.1802   20.1516 N   0  0  0  0  0  0  0  0  0  0  0  0
  -31.3995  -15.9403   20.2876 N   0  0  0  0  0  0  0  0  0  0  0  0
  -26.5738  -26.6774   19.0672 N   0  0  0  0  0  0  0  0  0  0  0  0
  -24.4491  -13.3066   20.7779 N   0  0  0  0  0  0  0  0  0  0  0  0
  -27.2851  -23.1241   20.2841 N   0  0  0  0  0  0  0  0  0  0  0  0
  -27.5327  -27.2844   16.9880 N   0  0  0  0  0  0  0  0  0  0  0  0
  -28.5208  -18.2793   23.1515 N   0  0  0  0  0  0  0  0  0  0  0  0
  -26.1308  -31.2299   18.6805 N   0  0  0  0  0  0  0  0  0  0  0  0
  -24.9941  -16.4112   18.9446 N   0  0  0  0  0  0  0  0  0  0  0  0
  -22.4210  -11.0737   22.3139 N   0  0  0  0  0  0  0  0  0  0  0  0
  -32.0358  -11.2466   20.2273 N   0  3  0  0  0  0  0  0  0  0  0  0
  -23.2698   -7.5946   21.8208 N   0  3  0  0  0  0  0  0  0  0  0  0
  -27.1520  -30.2309   16.8867 O   0  0  0  0  0  0  0  0  0  0  0  0
  -33.0404  -13.8338   19.6730 O   0  0  0  0  0  0  0  0  0  0  0  0
  -24.8401  -15.7998   21.1863 O   0  0  0  0  0  0  0  0  0  0  0  0
  -29.3249  -23.1973   21.3953 O   0  0  0  0  0  0  0  0  0  0  0  0
  -22.1349  -13.2699   20.4962 O   0  0  0  0  0  0  0  0  0  0  0  0
  -24.2768   -9.9063   23.0691 O   0  0  0  0  0  0  0  0  0  0  0  0
  -29.8647  -16.9216   21.8468 O   0  0  0  0  0  0  0  0  0  0  0  0
  -23.5731  -31.9933   23.5703 O   0  0  0  0  0  0  0  0  0  0  0  0
  -30.4714  -12.4164   21.7740 O   0  0  0  0  0  0  0  0  0  1  0  0
  -26.2451  -36.6823   24.7006 F   0  0  0  0  0  0  0  0  0  0  0  0
  -24.1209  -33.8293   21.5775 F   0  0  0  0  0  0  0  0  0  0  0  0
  1  2  1  0  0  0  0
  1  5  2  0  0  0  0
  2  6  2  0  0  0  0
  3  8  2  0  0  0  0
  3 16  1  0  0  0  0
  4  9  1  0  0  0  0
  4 16  2  0  0  0  0
  5 18  1  0  0  0  0
  6 20  1  0  0  0  0
  7 10  2  0  0  0  0
  7 19  1  0  0  0  0
  8 23  1  0  0  0  0
  9 23  2  0  0  0  0
 10 24  1  0  0  0  0
 11 12  2  0  0  0  0
 11 25  1  0  0  0  0
 12 26  1  0  0  0  0
 13 21  1  0  0  0  0
 13 24  2  0  0  0  0
 14 22  1  0  0  0  0
 14 29  2  0  0  0  0
 15 26  2  0  0  0  0
 15 27  1  0  0  0  0
 16 28  1  0  0  0  0
 17 28  1  0  0  0  0
 17 30  2  0  0  0  0
 17 33  1  0  0  0  0
 18 20  2  0  0  0  0
 18 39  1  0  0  0  0
 19 21  2  0  0  0  0
 19 40  1  0  0  0  0
 20 48  1  0  0  0  0
 21 41  1  0  0  0  0
 22 31  2  0  0  0  0
 22 57  1  0  0  0  0
 23 82  1  0  0  0  0
 24 83  1  0  0  0  0
 25 27  2  0  0  0  0
 25 82  1  0  0  0  0
 26 84  1  0  0  0  0
 27 85  1  0  0  0  0
 28 63  2  0  0  0  0
 29 64  1  0  0  0  0
 29 81  1  0  0  0  0
 30 65  1  0  0  0  0
 30 68  1  0  0  0  0
 31 69  1  0  0  0  0
 31 81  1  0  0  0  0
 32 34  1  0  0  0  0
 32 64  2  0  0  0  0
 33 70  1  0  0  0  0
 33 75  2  0  0  0  0
 34 61  1  0  0  0  0
 34 76  2  0  0  0  0
 35 49  1  0  0  0  0
 35 71  1  0  0  0  0
 35 77  2  0  0  0  0
 36 58  1  0  0  0  0
 36 67  1  0  0  0  0
 36 78  2  0  0  0  0
 37 59  1  0  0  0  0
 37 66  1  0  0  0  0
 37 79  2  0  0  0  0
 38 60  1  0  0  0  0
 38 72  1  0  0  0  0
 38 80  2  0  0  0  0
 39 42  1  0  0  0  0
 40 49  1  0  0  0  0
 41 66  1  0  0  0  0
 42 44  1  0  0  0  0
 43 45  1  0  0  0  0
 43 46  1  0  0  0  0
 44 48  1  0  0  0  0
 45 50  1  0  0  0  0
 46 67  1  0  0  0  0
 47 50  1  0  0  0  0
 47 67  1  0  0  0  0
 48 71  1  0  0  0  0
 49 66  1  0  0  0  0
 50 65  1  0  0  0  0
 51 60  1  0  0  0  0
 52 61  1  0  0  0  0
 53 62  1  0  0  0  0
 54 62  1  0  0  0  0
 55 62  1  0  0  0  0
 56 74  1  0  0  0  0
 57 58  1  0  0  0  0
 59 62  1  0  0  0  0
 59 72  1  0  0  0  0
 60 74  1  0  0  0  0
 61 73  1  0  0  0  0
 61 83  1  0  0  0  0
 63 65  1  0  0  0  0
M  CHG  2  73   1  74   1
M  ISO  4  36 100  58 100  61 101  83 101
M  END
> <Batch ID>
0161

> <Smiles>
CNC(C)C(=O)NC(C(=O)N1Cc2cc([101O:1][101C:1](C)(N)C(=O)CNc3cc(C=[100CH:0][100C:0](=O)N4CCCC(n5nc(-c6ccc(Oc7ccc(F)cc7F)cc6)c(C(N)=O)c5N)C4)c(N)o3)ccc2CC1C(=O)NC1CCCc2ccccc21)C(C)(C)C

> <Shape>
0.284

> <Color>
0.057

> <Negative vol penalty>
0.000

$$$$

  -OEChem-04052303533D

 83 91  0     1  0  0  0  0  0999 V2000
  -24.8990  -19.5934   14.1155 C   0  0  0  0  0  0  0  0  0  0  0  0
  -25.9168  -18.7711   14.5882 C   0  0  0  0  0  0  0  0  0  0  0  0
  -24.8932  -27.8193   19.6904 C   0  0  0  0  0  0  0  0  0  0  0  0
  -27.2101  -27.9571   20.3613 C   0  0  0  0  0  0  0  0  0  0  0  0
  -23.8598  -19.9723   14.9642 C   0  0  0  0  0  0  0  0  0  0  0  0
  -25.8964  -18.3281   15.9102 C   0  0  0  0  0  0  0  0  0  0  0  0
  -27.8340  -12.9103   18.0076 C   0  0  0  0  0  0  0  0  0  0  0  0
  -24.7786  -29.2050   19.8012 C   0  0  0  0  0  0  0  0  0  0  0  0
  -27.0956  -29.3428   20.4721 C   0  0  0  0  0  0  0  0  0  0  0  0
  -29.0228  -12.5110   18.6167 C   0  0  0  0  0  0  0  0  0  0  0  0
  -27.3162  -32.8796   21.2798 C   0  0  0  0  0  0  0  0  0  0  0  0
  -27.8652  -33.4873   22.4090 C   0  0  0  0  0  0  0  0  0  0  0  0
  -27.9953  -12.7774   20.7829 C   0  0  0  0  0  0  0  0  0  0  0  0
  -26.4058  -32.1797   23.8223 C   0  0  0  0  0  0  0  0  0  0  0  0
  -29.4678  -17.2548   22.0547 C   0  0  0  0  0  0  0  0  0  0  0  0
  -26.1089  -27.1953   19.9705 C   0  0  0  0  0  0  0  0  0  0  0  0
  -26.6021  -25.0299   18.7153 C   0  0  0  0  0  0  0  0  0  0  0  0
  -23.8215  -19.5259   16.2946 C   0  0  0  0  0  0  0  0  0  0  0  0
  -26.7184  -13.2572   18.7832 C   0  0  0  0  0  0  0  0  0  0  0  0
  -24.8563  -18.7025   16.7778 C   0  0  0  0  0  0  0  0  0  0  0  0
  -26.7927  -13.1783   20.1811 C   0  0  0  0  0  0  0  0  0  0  0  0
  -25.8798  -29.9668   20.1920 C   0  0  0  0  0  0  0  0  0  0  0  0
  -29.1045  -12.4473   20.0047 C   0  0  0  0  0  0  0  0  0  0  0  0
  -26.3120  -31.9220   21.4219 C   0  0  0  0  0  0  0  0  0  0  0  0
  -27.4100  -33.1373   23.6802 C   0  0  0  0  0  0  0  0  0  0  0  0
  -25.8568  -31.5720   22.6931 C   0  0  0  0  0  0  0  0  0  0  0  0
  -26.2277  -25.7638   19.8568 C   0  0  0  0  0  0  0  0  0  0  0  0
  -30.4167  -16.5614   21.2798 C   0  0  0  0  0  0  0  0  0  0  0  0
  -29.3858  -18.4944   21.4689 C   0  0  0  0  0  0  0  0  0  0  0  0
  -26.5632  -23.7186   19.1222 C   0  0  0  0  0  0  0  0  0  0  0  0
  -26.9537  -25.4921   17.4045 C   0  0  0  0  0  0  0  0  0  0  0  0
  -30.8697  -15.1725   21.4954 C   0  0  0  0  0  0  0  0  0  0  0  0
  -24.9977  -15.8999   19.1817 C   0  0  0  0  0  0  0  0  0  0  0  0
  -23.1318  -13.9471   20.9782 C   0  0  0  0  0  0  0  0  0  0  0  0
  -22.8725  -11.1077   22.8536 C   0  0  0  0  0  0  0  0  0  0  0  0
  -27.6887  -19.7406   22.8520 C   0  0  0  0  0  0  0  0  0  0  0  0
  -22.7027  -20.0004   17.1877 C   0  0  0  0  0  0  0  0  0  0  0  0
  -25.4351  -13.6602   18.1101 C   0  0  0  0  0  0  0  0  0  0  0  0
  -25.6172  -13.5206   21.0583 C   0  0  0  0  0  0  0  0  0  0  0  0
  -22.5574  -19.1829   18.4686 C   0  0  0  0  0  0  0  0  0  0  0  0
  -24.7150  -21.6347   23.3487 C   0  0  0  0  0  0  0  0  0  0  0  0
  -23.9188  -18.9682   19.1222 C   0  0  0  0  0  0  0  0  0  0  0  0
  -24.8742  -22.8174   22.3906 C   0  0  0  0  0  0  0  0  0  0  0  0
  -26.0476  -21.2298   23.9763 C   0  0  0  0  0  0  0  0  0  0  0  0
  -27.2910  -22.1557   22.0617 C   0  0  0  0  0  0  0  0  0  0  0  0
  -24.8563  -18.1812   18.1985 C   0  0  1  0  0  0  0  0  0  0  0  0
  -24.5213  -14.4851   19.0111 C   0  0  1  0  0  0  0  0  0  0  0  0
  -25.9862  -22.5582   21.3553 C   0  0  2  0  0  0  0  0  0  0  0  0
  -21.2306   -9.7958   24.2251 C   0  0  0  0  0  0  0  0  0  0  0  0
  -32.2060  -11.0582   19.5818 C   0  0  0  0  0  0  0  0  0  0  0  0
  -23.4076  -15.9737   23.2425 C   0  0  0  0  0  0  0  0  0  0  0  0
  -22.5870  -14.2144   24.8235 C   0  0  0  0  0  0  0  0  0  0  0  0
  -21.1139  -15.0132   22.9757 C   0  0  0  0  0  0  0  0  0  0  0  0
  -30.5315  -19.5407   19.4900 C   0  0  0  0  0  0  0  0  0  0  0  0
  -23.1133   -8.7425   21.0910 C   0  0  0  0  0  0  0  0  0  0  0  0
  -32.3091  -13.3019   20.7706 C   0  0  0  0  0  0  0  0  0  0  0  0
  -23.0969  -13.5421   22.4321 C   0  0  1  0  0  0  0  0  0  0  0  0
  -21.8483   -9.9872   22.8486 C   0  0  2  0  0  0  0  0  0  0  0  0
  -31.4792  -12.3539   19.9148 C   0  0  2  0  0  0  0  0  0  1  0  0
  -22.5743  -14.6812   23.3522 C   0  0  0  0  0  0  0  0  0  0  0  0
  -25.9697  -24.9836   20.9098 N   0  0  0  0  0  0  0  0  0  0  0  0
  -30.9026  -17.2991   20.2779 N   0  0  0  0  0  0  0  0  0  0  0  0
  -26.1823  -23.7458   20.4316 N   0  0  0  0  0  0  0  0  0  0  0  0
  -30.2564  -18.4690   20.4193 N   0  0  0  0  0  0  0  0  0  0  0  0
  -24.3865  -13.9152   20.3532 N   0  0  0  0  0  0  0  0  0  0  0  0
  -27.0512  -20.9966   22.9356 N   0  0  0  0  0  0  0  0  0  0  0  0
  -26.8178  -22.5566   18.4841 N   0  0  0  0  0  0  0  0  0  0  0  0
  -26.9425  -26.8716   17.1571 N   0  0  0  0  0  0  0  0  0  0  0  0
  -30.3444  -14.4915   22.5139 N   0  0  0  0  0  0  0  0  0  0  0  0
  -28.6000  -19.6252   21.8029 N   0  0  0  0  0  0  0  0  0  0  0  0
  -24.5233  -16.7730   18.2214 N   0  0  0  0  0  0  0  0  0  0  0  0
  -22.3107  -12.3148   22.4952 N   0  0  0  0  0  0  0  0  0  0  0  0
  -31.7853  -14.6662   20.6613 N   0  3  0  0  0  0  0  0  0  0  0  0
  -22.4857   -8.7046   22.4370 N   0  3  0  0  0  0  0  0  0  0  0  0
  -27.2527  -24.7042   16.4753 O   0  0  0  0  0  0  0  0  0  0  0  0
  -25.7395  -16.1791   20.1163 O   0  0  0  0  0  0  0  0  0  0  0  0
  -22.0833  -14.2727   20.4158 O   0  0  0  0  0  0  0  0  0  0  0  0
  -24.0521  -10.9305   23.1499 O   0  0  0  0  0  0  0  0  0  0  0  0
  -27.4241  -18.8252   23.6357 O   0  0  0  0  0  0  0  0  0  0  0  0
  -25.7685  -31.3190   20.3000 O   0  0  0  0  0  0  0  0  0  0  0  0
  -30.2639  -12.0585   20.6018 O   0  0  0  0  0  0  0  0  0  1  0  0
  -27.9384  -33.7199   24.7644 F   0  0  0  0  0  0  0  0  0  0  0  0
  -24.8931  -30.6518   22.8360 F   0  0  0  0  0  0  0  0  0  0  0  0
  1  2  1  0  0  0  0
  1  5  2  0  0  0  0
  2  6  2  0  0  0  0
  3  8  2  0  0  0  0
  3 16  1  0  0  0  0
  4  9  1  0  0  0  0
  4 16  2  0  0  0  0
  5 18  1  0  0  0  0
  6 20  1  0  0  0  0
  7 10  2  0  0  0  0
  7 19  1  0  0  0  0
  8 22  1  0  0  0  0
  9 22  2  0  0  0  0
 10 23  1  0  0  0  0
 11 12  2  0  0  0  0
 11 24  1  0  0  0  0
 12 25  1  0  0  0  0
 13 21  1  0  0  0  0
 13 23  2  0  0  0  0
 14 25  2  0  0  0  0
 14 26  1  0  0  0  0
 15 28  1  0  0  0  0
 15 29  2  0  0  0  0
 16 27  1  0  0  0  0
 17 27  1  0  0  0  0
 17 30  2  0  0  0  0
 17 31  1  0  0  0  0
 18 20  2  0  0  0  0
 18 37  1  0  0  0  0
 19 21  2  0  0  0  0
 19 38  1  0  0  0  0
 20 46  1  0  0  0  0
 21 39  1  0  0  0  0
 22 80  1  0  0  0  0
 23 81  1  0  0  0  0
 24 26  2  0  0  0  0
 24 80  1  0  0  0  0
 25 82  1  0  0  0  0
 26 83  1  0  0  0  0
 27 61  2  0  0  0  0
 28 32  1  0  0  0  0
 28 62  2  0  0  0  0
 29 64  1  0  0  0  0
 29 70  1  0  0  0  0
 30 63  1  0  0  0  0
 30 67  1  0  0  0  0
 31 68  1  0  0  0  0
 31 75  2  0  0  0  0
 32 69  1  0  0  0  0
 32 73  2  0  0  0  0
 33 47  1  0  0  0  0
 33 71  1  0  0  0  0
 33 76  2  0  0  0  0
 34 57  1  0  0  0  0
 34 65  1  0  0  0  0
 34 77  2  0  0  0  0
 35 58  1  0  0  0  0
 35 72  1  0  0  0  0
 35 78  2  0  0  0  0
 36 66  1  0  0  0  0
 36 70  1  0  0  0  0
 36 79  2  0  0  0  0
 37 40  1  0  0  0  0
 38 47  1  0  0  0  0
 39 65  1  0  0  0  0
 40 42  1  0  0  0  0
 41 43  1  0  0  0  0
 41 44  1  0  0  0  0
 42 46  1  0  0  0  0
 43 48  1  0  0  0  0
 44 66  1  0  0  0  0
 45 48  1  0  0  0  0
 45 66  1  0  0  0  0
 46 71  1  0  0  0  0
 47 65  1  0  0  0  0
 48 63  1  0  0  0  0
 49 58  1  0  0  0  0
 50 59  1  0  0  0  0
 51 60  1  0  0  0  0
 52 60  1  0  0  0  0
 53 60  1  0  0  0  0
 54 64  1  0  0  0  0
 55 74  1  0  0  0  0
 56 59  1  0  0  0  0
 56 73  1  0  0  0  0
 57 60  1  0  0  0  0
 57 72  1  0  0  0  0
 58 74  1  0  0  0  0
 59 81  1  0  0  0  0
 61 63  1  0  0  0  0
 62 64  1  0  0  0  0
M  CHG  2  73   1  74   1
M  ISO  4  36 100  59 101  70 100  81 101
M  END
> <Batch ID>
0161

> <Smiles>
CNC(C)C(=O)NC(C(=O)N1Cc2cc([101O:1][101CH:1](C)CNC(=N)c3cc([100NH:0][100C:0](=O)N4CCCC(n5nc(-c6ccc(Oc7ccc(F)cc7F)cc6)c(C(N)=O)c5N)C4)n(C)n3)ccc2CC1C(=O)NC1CCCc2ccccc21)C(C)(C)C

> <Shape>
0.235

> <Color>
0.064

> <Negative vol penalty>
0.000

$$$$
