
  -OEChem-04052303563D

 84 92  0     1  0  0  0  0  0999 V2000
  -32.9885  -16.4111   22.3751 C   0  0  0  0  0  0  0  0  0  0  0  0
  -32.0674  -17.4115   22.0818 C   0  0  0  0  0  0  0  0  0  0  0  0
  -29.6425  -27.8477   21.8277 C   0  0  0  0  0  0  0  0  0  0  0  0
  -27.7151  -27.2300   20.5083 C   0  0  0  0  0  0  0  0  0  0  0  0
  -32.7111  -15.0879   22.0340 C   0  0  0  0  0  0  0  0  0  0  0  0
  -30.8687  -17.0896   21.4462 C   0  0  0  0  0  0  0  0  0  0  0  0
  -25.4151  -19.7377   22.3128 C   0  0  0  0  0  0  0  0  0  0  0  0
  -30.4096  -26.8992   21.1512 C   0  0  0  0  0  0  0  0  0  0  0  0
  -28.4822  -26.2815   19.8318 C   0  0  0  0  0  0  0  0  0  0  0  0
  -24.7271  -20.7219   21.6045 C   0  0  0  0  0  0  0  0  0  0  0  0
  -29.6545  -23.1614   20.3988 C   0  0  0  0  0  0  0  0  0  0  0  0
  -29.0988  -21.8967   20.2057 C   0  0  0  0  0  0  0  0  0  0  0  0
  -23.5047  -19.0097   20.4242 C   0  0  0  0  0  0  0  0  0  0  0  0
  -20.2670  -26.1263   23.2664 C   0  0  0  0  0  0  0  0  0  0  0  0
  -19.2827  -28.3253   23.0861 C   0  0  0  0  0  0  0  0  0  0  0  0
  -19.1424  -26.7833   21.2315 C   0  0  0  0  0  0  0  0  0  0  0  0
  -29.2850  -22.1803   17.8136 C   0  0  0  0  0  0  0  0  0  0  0  0
  -28.2953  -28.0131   21.5062 C   0  0  0  0  0  0  0  0  0  0  0  0
  -27.3118  -30.3415   21.8512 C   0  0  0  0  0  0  0  0  0  0  0  0
  -31.5042  -14.7483   21.4025 C   0  0  0  0  0  0  0  0  0  0  0  0
  -25.1604  -18.3795   22.0740 C   0  0  0  0  0  0  0  0  0  0  0  0
  -30.5755  -15.7609   21.0951 C   0  0  0  0  0  0  0  0  0  0  0  0
  -24.1890  -18.0101   21.1327 C   0  0  0  0  0  0  0  0  0  0  0  0
  -19.9858  -27.3733   23.8244 C   0  0  0  0  0  0  0  0  0  0  0  0
  -19.8454  -25.8313   21.9698 C   0  0  0  0  0  0  0  0  0  0  0  0
  -29.8294  -26.1162   20.1533 C   0  0  0  0  0  0  0  0  0  0  0  0
  -23.7739  -20.3580   20.6580 C   0  0  0  0  0  0  0  0  0  0  0  0
  -30.0254  -23.9356   19.2994 C   0  0  0  0  0  0  0  0  0  0  0  0
  -28.9141  -21.4062   18.9131 C   0  0  0  0  0  0  0  0  0  0  0  0
  -18.8610  -28.0303   21.7896 C   0  0  0  0  0  0  0  0  0  0  0  0
  -29.8407  -23.4450   18.0068 C   0  0  0  0  0  0  0  0  0  0  0  0
  -27.5022  -28.9923   22.2051 C   0  0  0  0  0  0  0  0  0  0  0  0
  -26.4833  -30.8388   22.8272 C   0  0  0  0  0  0  0  0  0  0  0  0
  -21.2416  -24.4922   20.7658 C   0  0  0  0  0  0  0  0  0  0  0  0
  -27.8369  -31.0792   20.7396 C   0  0  0  0  0  0  0  0  0  0  0  0
  -21.6061  -23.1859   20.1387 C   0  0  0  0  0  0  0  0  0  0  0  0
  -26.8849  -15.9249   21.0231 C   0  0  0  0  0  0  0  0  0  0  0  0
  -24.2140  -14.2369   21.7573 C   0  0  0  0  0  0  0  0  0  0  0  0
  -20.8362  -14.2259   22.2445 C   0  0  0  0  0  0  0  0  0  0  0  0
  -22.4865  -28.2782   26.4768 C   0  0  0  0  0  0  0  0  0  0  0  0
  -31.2695  -13.3109   21.0105 C   0  0  0  0  0  0  0  0  0  0  0  0
  -25.8919  -17.3304   22.8655 C   0  0  0  0  0  0  0  0  0  0  0  0
  -23.8639  -16.5662   20.8535 C   0  0  0  0  0  0  0  0  0  0  0  0
  -29.8127  -13.0009   20.6761 C   0  0  0  0  0  0  0  0  0  0  0  0
  -25.3190  -30.2154   27.4258 C   0  0  0  0  0  0  0  0  0  0  0  0
  -29.2373  -14.0710   19.7537 C   0  0  0  0  0  0  0  0  0  0  0  0
  -26.1826  -30.2433   26.1635 C   0  0  0  0  0  0  0  0  0  0  0  0
  -24.6143  -28.8716   27.5978 C   0  0  0  0  0  0  0  0  0  0  0  0
  -24.6895  -28.4599   25.1691 C   0  0  0  0  0  0  0  0  0  0  0  0
  -29.2534  -15.4478   20.4286 C   0  0  1  0  0  0  0  0  0  0  0  0
  -25.9195  -15.9710   22.1736 C   0  0  1  0  0  0  0  0  0  0  0  0
  -25.3763  -29.8141   24.9229 C   0  0  2  0  0  0  0  0  0  0  0  0
  -18.9306  -12.6894   22.7969 C   0  0  0  0  0  0  0  0  0  0  0  0
  -24.2744  -13.1422   18.9099 C   0  0  0  0  0  0  0  0  0  0  0  0
  -21.9014  -12.4056   19.2170 C   0  0  0  0  0  0  0  0  0  0  0  0
  -23.6976  -11.4555   20.6639 C   0  0  0  0  0  0  0  0  0  0  0  0
  -20.1971  -15.7191   24.7185 C   0  0  0  0  0  0  0  0  0  0  0  0
  -20.4347  -27.6885   25.2113 C   0  0  0  0  0  0  0  0  0  0  0  0
  -22.8872  -22.5645   20.6232 C   0  0  0  0  0  0  0  0  0  1  0  0
  -22.9579  -13.8474   21.0159 C   0  0  1  0  0  0  0  0  0  0  0  0
  -19.9802  -13.6393   23.3525 C   0  0  2  0  0  0  0  0  0  0  0  0
  -23.2151  -12.7399   19.9553 C   0  0  0  0  0  0  0  0  0  0  0  0
  -26.8475  -28.6540   23.3190 N   0  0  0  0  0  0  0  0  0  0  0  0
  -20.1283  -24.5751   21.4077 N   0  0  0  0  0  0  0  0  0  0  0  0
  -26.2376  -29.7979   23.6736 N   0  0  0  0  0  0  0  0  0  0  0  0
  -24.6105  -15.5773   21.6486 N   0  0  0  0  0  0  0  0  0  0  0  0
  -23.8666  -28.5237   26.3871 N   0  0  0  0  0  0  0  0  0  0  0  0
  -25.9482  -32.0606   23.0355 N   0  0  0  0  0  0  0  0  0  0  0  0
  -28.6724  -30.4147   19.8315 N   0  0  0  0  0  0  0  0  0  0  0  0
  -28.1682  -15.5572   21.3799 N   0  0  0  0  0  0  0  0  0  0  0  0
  -21.9790  -13.4834   22.0346 N   0  0  0  0  0  0  0  0  0  0  0  0
  -21.8529  -27.9611   25.2815 N   0  0  0  0  0  0  0  0  0  0  0  0
  -19.2836  -14.7250   24.0988 N   0  3  0  0  0  0  0  0  0  0  0  0
  -27.5862  -32.2960   20.5660 O   0  0  0  0  0  0  0  0  0  0  0  0
  -20.8497  -22.7146   19.3042 O   0  0  0  0  0  0  0  0  0  0  0  0
  -26.4940  -16.2010   19.8949 O   0  0  0  0  0  0  0  0  0  0  0  0
  -24.8170  -13.3849   22.4147 O   0  0  0  0  0  0  0  0  0  0  0  0
  -20.5207  -15.2391   21.6246 O   0  0  0  0  0  0  0  0  0  0  0  0
  -21.8639  -28.3423   27.5423 O   0  0  0  0  0  0  0  0  0  0  0  0
  -30.5777  -25.1907   19.4928 O   0  0  0  0  0  0  0  0  0  0  0  0
  -23.1014  -21.3167   19.9648 O   0  0  0  0  0  0  0  0  0  1  0  0
  -28.3818  -20.1910   18.7277 F   0  0  0  0  0  0  0  0  0  0  0  0
  -18.1847  -28.9438   21.0811 F   0  0  0  0  0  0  0  0  0  0  0  0
  -30.1961  -24.1837   16.9466 F   0  0  0  0  0  0  0  0  0  0  0  0
  1  2  1  0  0  0  0
  1  5  2  0  0  0  0
  2  6  2  0  0  0  0
  3  8  2  0  0  0  0
  3 18  1  0  0  0  0
  4  9  1  0  0  0  0
  4 18  2  0  0  0  0
  5 20  1  0  0  0  0
  6 22  1  0  0  0  0
  7 10  2  0  0  0  0
  7 21  1  0  0  0  0
  8 26  1  0  0  0  0
  9 26  2  0  0  0  0
 10 27  1  0  0  0  0
 11 12  2  0  0  0  0
 11 28  1  0  0  0  0
 12 29  1  0  0  0  0
 13 23  1  0  0  0  0
 13 27  2  0  0  0  0
 14 24  1  0  0  0  0
 14 25  2  0  0  0  0
 15 24  2  0  0  0  0
 15 30  1  0  0  0  0
 16 25  1  0  0  0  0
 16 30  2  0  0  0  0
 17 29  2  0  0  0  0
 17 31  1  0  0  0  0
 18 32  1  0  0  0  0
 19 32  1  0  0  0  0
 19 33  2  0  0  0  0
 19 35  1  0  0  0  0
 20 22  2  0  0  0  0
 20 41  1  0  0  0  0
 21 23  2  0  0  0  0
 21 42  1  0  0  0  0
 22 50  1  0  0  0  0
 23 43  1  0  0  0  0
 24 58  1  0  0  0  0
 25 64  1  0  0  0  0
 26 80  1  0  0  0  0
 27 81  1  0  0  0  0
 28 31  2  0  0  0  0
 28 80  1  0  0  0  0
 29 82  1  0  0  0  0
 30 83  1  0  0  0  0
 31 84  1  0  0  0  0
 32 63  2  0  0  0  0
 33 65  1  0  0  0  0
 33 68  1  0  0  0  0
 34 36  1  0  0  0  0
 34 64  2  0  0  0  0
 35 69  1  0  0  0  0
 35 74  2  0  0  0  0
 36 59  1  0  0  0  0
 36 75  2  0  0  0  0
 37 51  1  0  0  0  0
 37 70  1  0  0  0  0
 37 76  2  0  0  0  0
 38 60  1  0  0  0  0
 38 66  1  0  0  0  0
 38 77  2  0  0  0  0
 39 61  1  0  0  0  0
 39 71  1  0  0  0  0
 39 78  2  0  0  0  0
 40 67  1  0  0  0  0
 40 72  1  0  0  0  0
 40 79  2  0  0  0  0
 41 44  1  0  0  0  0
 42 51  1  0  0  0  0
 43 66  1  0  0  0  0
 44 46  1  0  0  0  0
 45 47  1  0  0  0  0
 45 48  1  0  0  0  0
 46 50  1  0  0  0  0
 47 52  1  0  0  0  0
 48 67  1  0  0  0  0
 49 52  1  0  0  0  0
 49 67  1  0  0  0  0
 50 70  1  0  0  0  0
 51 66  1  0  0  0  0
 52 65  1  0  0  0  0
 53 61  1  0  0  0  0
 54 62  1  0  0  0  0
 55 62  1  0  0  0  0
 56 62  1  0  0  0  0
 57 73  1  0  0  0  0
 58 72  1  0  0  0  0
 59 81  1  0  0  0  0
 60 62  1  0  0  0  0
 60 71  1  0  0  0  0
 61 73  1  0  0  0  0
 63 65  1  0  0  0  0
M  CHG  1  73   1
M  ISO  4  40 100  59 101  72 100  81 101
M  END
> <Batch ID>
0162

> <Smiles>
CNC(C)C(=O)NC(C(=O)N1Cc2cc([101O:1][101CH2:1]C(=O)CNc3cc(F)cc(C=[100N:0][100C:0](=O)N4CCCC(n5nc(-c6ccc(Oc7ccc(F)cc7F)cc6)c(C(N)=O)c5N)C4)c3)ccc2CC1C(=O)NC1CCCc2ccccc21)C(C)(C)C

> <Shape>
0.251

> <Color>
0.044

> <Negative vol penalty>
0.000

$$$$

  -OEChem-04052303563D

 85 94  0     1  0  0  0  0  0999 V2000
  -26.6378  -37.0379   25.3970 C   0  0  0  0  0  0  0  0  0  0  0  0
  -27.4203  -36.1230   24.6997 C   0  0  0  0  0  0  0  0  0  0  0  0
  -24.3093   -8.4197   21.2105 C   0  0  0  0  0  0  0  0  0  0  0  0
  -23.2229  -10.4733   20.5475 C   0  0  0  0  0  0  0  0  0  0  0  0
  -25.4146  -36.6399   25.9349 C   0  0  0  0  0  0  0  0  0  0  0  0
  -26.9806  -34.8093   24.5410 C   0  0  0  0  0  0  0  0  0  0  0  0
  -27.2048  -18.6119   19.2415 C   0  0  0  0  0  0  0  0  0  0  0  0
  -27.2285  -29.3618   19.8956 C   0  0  0  0  0  0  0  0  0  0  0  0
  -27.4643  -17.2534   19.0611 C   0  0  0  0  0  0  0  0  0  0  0  0
  -23.2465   -8.1340   22.0674 C   0  0  0  0  0  0  0  0  0  0  0  0
  -22.1600  -10.1876   21.4044 C   0  0  0  0  0  0  0  0  0  0  0  0
  -27.5554  -28.0076   19.8401 C   0  0  0  0  0  0  0  0  0  0  0  0
  -20.1021   -6.9164   21.8160 C   0  0  0  0  0  0  0  0  0  0  0  0
  -19.5925   -5.6180   21.8063 C   0  0  0  0  0  0  0  0  0  0  0  0
  -25.3887  -27.4538   20.7444 C   0  0  0  0  0  0  0  0  0  0  0  0
  -29.5686  -17.5012   20.2220 C   0  0  0  0  0  0  0  0  0  0  0  0
  -20.1377   -5.3866   24.1486 C   0  0  0  0  0  0  0  0  0  0  0  0
  -24.2976   -9.5894   20.4506 C   0  0  0  0  0  0  0  0  0  0  0  0
  -25.5208   -9.5152   18.2132 C   0  0  0  0  0  0  0  0  0  0  0  0
  -24.9552  -35.3232   25.7744 C   0  0  0  0  0  0  0  0  0  0  0  0
  -25.9813  -29.7734   20.3869 C   0  0  0  0  0  0  0  0  0  0  0  0
  -25.7507  -34.3930   25.0785 C   0  0  0  0  0  0  0  0  0  0  0  0
  -28.1273  -19.4152   19.9121 C   0  0  0  0  0  0  0  0  0  0  0  0
  -25.0474  -28.8136   20.8027 C   0  0  0  0  0  0  0  0  0  0  0  0
  -29.3091  -18.8598   20.4023 C   0  0  0  0  0  0  0  0  0  0  0  0
  -28.6462  -16.6980   19.5514 C   0  0  0  0  0  0  0  0  0  0  0  0
  -22.1718   -9.0179   22.1644 C   0  0  0  0  0  0  0  0  0  0  0  0
  -26.6366  -27.0535   20.2673 C   0  0  0  0  0  0  0  0  0  0  0  0
  -20.6296   -7.4499   22.9920 C   0  0  0  0  0  0  0  0  0  0  0  0
  -19.6103   -4.8531   22.9726 C   0  0  0  0  0  0  0  0  0  0  0  0
  -20.6473   -6.6850   24.1583 C   0  0  0  0  0  0  0  0  0  0  0  0
  -25.3955   -9.8853   19.5656 C   0  0  0  0  0  0  0  0  0  0  0  0
  -26.7329  -10.0326   17.8265 C   0  0  0  0  0  0  0  0  0  0  0  0
  -26.5863  -22.5650   21.5467 C   0  0  0  0  0  0  0  0  0  0  0  0
  -26.4625  -23.4026   20.5025 C   0  0  0  0  0  0  0  0  0  0  0  0
  -24.6218   -8.7703   17.3808 C   0  0  0  0  0  0  0  0  0  0  0  0
  -25.0110  -31.5494   22.8381 C   0  0  0  0  0  0  0  0  0  0  0  0
  -22.0979  -31.1564   21.4661 C   0  0  0  0  0  0  0  0  0  0  0  0
  -20.0775  -29.2986   19.4381 C   0  0  0  0  0  0  0  0  0  0  0  0
  -30.0329  -14.6089   19.7945 C   0  0  0  0  0  0  0  0  0  0  0  0
  -23.6481  -34.9273   26.4144 C   0  0  0  0  0  0  0  0  0  0  0  0
  -25.6338  -31.2366   20.4152 C   0  0  0  0  0  0  0  0  0  0  0  0
  -23.6872  -29.2024   21.3195 C   0  0  0  0  0  0  0  0  0  0  0  0
  -27.1142  -21.1636   21.4357 C   0  0  0  0  0  0  0  0  0  0  0  0
  -26.8191  -22.9867   19.0971 C   0  0  0  0  0  0  0  0  0  0  0  0
  -23.0810  -33.6147   25.8797 C   0  0  0  0  0  0  0  0  0  0  0  0
  -27.0068  -21.4747   18.9318 C   0  0  0  0  0  0  0  0  0  0  0  0
  -31.0358  -11.1996   19.5749 C   0  0  0  0  0  0  0  0  0  0  0  0
  -24.1702  -32.5486   25.8175 C   0  0  0  0  0  0  0  0  0  0  0  0
  -29.7151  -10.4425   19.4184 C   0  0  0  0  0  0  0  0  0  0  0  0
  -30.8967  -12.3939   20.5173 C   0  0  0  0  0  0  0  0  0  0  0  0
  -28.4881  -12.5658   20.0294 C   0  0  0  0  0  0  0  0  0  0  0  0
  -27.8230  -20.8904   20.0952 C   0  0  2  0  0  0  0  0  0  0  0  0
  -25.2964  -32.9655   24.8639 C   0  0  1  0  0  0  0  0  0  0  0  0
  -24.5303  -31.5694   21.4146 C   0  0  1  0  0  0  0  0  0  0  0  0
  -28.5625  -11.3926   19.0385 C   0  0  2  0  0  0  0  0  0  0  0  0
  -30.3102  -19.6999   21.1252 C   0  0  0  0  0  0  0  0  0  0  0  0
  -17.7367  -29.2080   18.5382 C   0  0  0  0  0  0  0  0  0  0  0  0
  -21.1019  -30.1424   24.1661 C   0  0  0  0  0  0  0  0  0  0  0  0
  -19.1010  -29.1978   22.9947 C   0  0  0  0  0  0  0  0  0  0  0  0
  -19.5124  -31.6581   22.9700 C   0  0  0  0  0  0  0  0  0  0  0  0
  -21.0198  -29.5246   16.6416 C   0  0  0  0  0  0  0  0  0  0  0  0
  -25.9644  -24.8079   20.6687 C   0  0  0  0  0  0  0  0  0  1  0  0
  -20.9876  -30.1407   21.5868 C   0  0  1  0  0  0  0  0  0  0  0  0
  -19.1573  -29.6942   18.2973 C   0  0  2  0  0  0  0  0  0  0  0  0
  -20.2020  -30.2772   22.9215 C   0  0  0  0  0  0  0  0  0  0  0  0
  -26.4443  -10.5838   20.0084 N   0  0  0  0  0  0  0  0  0  0  0  0
  -27.2403  -10.6566   18.9280 N   0  0  0  0  0  0  0  0  0  0  0  0
  -23.3970  -30.6457   21.3336 N   0  0  0  0  0  0  0  0  0  0  0  0
  -29.7882  -13.2517   20.0929 N   0  0  0  0  0  0  0  0  0  0  0  0
  -27.4035  -10.0101   16.6551 N   0  0  0  0  0  0  0  0  0  0  0  0
  -23.4196   -8.3131   17.9375 N   0  0  0  0  0  0  0  0  0  0  0  0
  -28.9093  -15.3175   19.3701 N   0  0  0  0  0  0  0  0  0  0  0  0
  -24.8948  -32.7631   23.4883 N   0  0  0  0  0  0  0  0  0  0  0  0
  -20.1652  -30.2911   20.3912 N   0  0  0  0  0  0  0  0  0  0  0  0
  -19.6424  -29.1112   17.0145 N   0  3  0  0  0  0  0  0  0  0  0  0
  -24.8846   -8.5036   16.1836 O   0  0  0  0  0  0  0  0  0  0  0  0
  -25.4531  -30.5093   23.3119 O   0  0  0  0  0  0  0  0  0  0  0  0
  -21.8221  -32.3586   21.4815 O   0  0  0  0  0  0  0  0  0  0  0  0
  -20.6573  -28.2158   19.4812 O   0  0  0  0  0  0  0  0  0  0  0  0
  -31.1617  -15.0991   19.8810 O   0  0  0  0  0  0  0  0  0  0  0  0
  -21.1343   -8.7394   23.0002 O   0  0  0  0  0  0  0  0  0  0  0  0
  -26.9533  -25.7311   20.2149 O   0  0  0  0  0  0  0  0  0  1  0  0
  -19.1196   -3.6068   22.9635 F   0  0  0  0  0  0  0  0  0  0  0  0
  -21.1517   -7.1925   25.2914 F   0  0  0  0  0  0  0  0  0  0  0  0
  1  2  1  0  0  0  0
  1  5  2  0  0  0  0
  2  6  2  0  0  0  0
  3 10  2  0  0  0  0
  3 18  1  0  0  0  0
  4 11  1  0  0  0  0
  4 18  2  0  0  0  0
  5 20  1  0  0  0  0
  6 22  1  0  0  0  0
  7  9  2  0  0  0  0
  7 23  1  0  0  0  0
  8 12  2  0  0  0  0
  8 21  1  0  0  0  0
  9 26  1  0  0  0  0
 10 27  1  0  0  0  0
 11 27  2  0  0  0  0
 12 28  1  0  0  0  0
 13 14  2  0  0  0  0
 13 29  1  0  0  0  0
 14 30  1  0  0  0  0
 15 24  1  0  0  0  0
 15 28  2  0  0  0  0
 16 25  1  0  0  0  0
 16 26  2  0  0  0  0
 17 30  2  0  0  0  0
 17 31  1  0  0  0  0
 18 32  1  0  0  0  0
 19 32  1  0  0  0  0
 19 33  2  0  0  0  0
 19 36  1  0  0  0  0
 20 22  2  0  0  0  0
 20 41  1  0  0  0  0
 21 24  2  0  0  0  0
 21 42  1  0  0  0  0
 22 54  1  0  0  0  0
 23 25  2  0  0  0  0
 23 53  1  0  0  0  0
 24 43  1  0  0  0  0
 25 57  1  0  0  0  0
 26 73  1  0  0  0  0
 27 82  1  0  0  0  0
 28 83  1  0  0  0  0
 29 31  2  0  0  0  0
 29 82  1  0  0  0  0
 30 84  1  0  0  0  0
 31 85  1  0  0  0  0
 32 67  2  0  0  0  0
 33 68  1  0  0  0  0
 33 71  1  0  0  0  0
 34 35  2  0  0  0  0
 34 44  1  0  0  0  0
 35 45  1  0  0  0  0
 35 63  1  0  0  0  0
 36 72  1  0  0  0  0
 36 77  2  0  0  0  0
 37 55  1  0  0  0  0
 37 74  1  0  0  0  0
 37 78  2  0  0  0  0
 38 64  1  0  0  0  0
 38 69  1  0  0  0  0
 38 79  2  0  0  0  0
 39 65  1  0  0  0  0
 39 75  1  0  0  0  0
 39 80  2  0  0  0  0
 40 70  1  0  0  0  0
 40 73  1  0  0  0  0
 40 81  2  0  0  0  0
 41 46  1  0  0  0  0
 42 55  1  0  0  0  0
 43 69  1  0  0  0  0
 44 53  1  0  0  0  0
 45 47  1  0  0  0  0
 46 49  1  0  0  0  0
 47 53  1  0  0  0  0
 48 50  1  0  0  0  0
 48 51  1  0  0  0  0
 49 54  1  0  0  0  0
 50 56  1  0  0  0  0
 51 70  1  0  0  0  0
 52 56  1  0  0  0  0
 52 70  1  0  0  0  0
 54 74  1  0  0  0  0
 55 69  1  0  0  0  0
 56 68  1  0  0  0  0
 58 65  1  0  0  0  0
 59 66  1  0  0  0  0
 60 66  1  0  0  0  0
 61 66  1  0  0  0  0
 62 76  1  0  0  0  0
 63 83  1  0  0  0  0
 64 66  1  0  0  0  0
 64 75  1  0  0  0  0
 65 76  1  0  0  0  0
 67 68  1  0  0  0  0
M  CHG  1  76   1
M  ISO  4  40 100  63 101  73 100  83 101
M  END
> <Batch ID>
0162

> <Smiles>
CNC(C)C(=O)NC(C(=O)N1Cc2cc([101O:1][101CH2:1]C3=CCC(c4ccc([100NH:0][100C:0](=O)N5CCCC(n6nc(-c7ccc(Oc8ccc(F)cc8F)cc7)c(C(N)=O)c6N)C5)cc4C)CC3)ccc2CC1C(=O)NC1CCCc2ccccc21)C(C)(C)C

> <Shape>
0.279

> <Color>
0.079

> <Negative vol penalty>
0.000

$$$$

  -OEChem-04052303563D

 83 91  0     1  0  0  0  0  0999 V2000
  -23.8033   -7.9690   21.2469 C   0  0  0  0  0  0  0  0  0  0  0  0
  -24.0327   -8.9428   20.2802 C   0  0  0  0  0  0  0  0  0  0  0  0
  -22.2774  -26.5334   20.7747 C   0  0  0  0  0  0  0  0  0  0  0  0
  -22.7021  -28.1716   22.4991 C   0  0  0  0  0  0  0  0  0  0  0  0
  -22.9239   -8.2254   22.2980 C   0  0  0  0  0  0  0  0  0  0  0  0
  -23.3819  -10.1732   20.3634 C   0  0  0  0  0  0  0  0  0  0  0  0
  -26.4882  -14.0768   19.4927 C   0  0  0  0  0  0  0  0  0  0  0  0
  -20.9524  -26.4310   21.1983 C   0  0  0  0  0  0  0  0  0  0  0  0
  -21.3771  -28.0692   22.9227 C   0  0  0  0  0  0  0  0  0  0  0  0
  -26.8141  -14.3472   18.1644 C   0  0  0  0  0  0  0  0  0  0  0  0
  -18.3551  -29.2238   21.9455 C   0  0  0  0  0  0  0  0  0  0  0  0
  -17.6685  -30.4081   22.2131 C   0  0  0  0  0  0  0  0  0  0  0  0
  -28.2177  -19.9829   17.7558 C   0  0  0  0  0  0  0  0  0  0  0  0
  -25.1780  -16.1195   18.1301 C   0  0  0  0  0  0  0  0  0  0  0  0
  -17.3252  -29.6934   24.4953 C   0  0  0  0  0  0  0  0  0  0  0  0
  -27.2912  -22.1733   17.7744 C   0  0  0  0  0  0  0  0  0  0  0  0
  -26.3930  -20.6005   16.3610 C   0  0  0  0  0  0  0  0  0  0  0  0
  -23.1523  -27.4037   21.4251 C   0  0  0  0  0  0  0  0  0  0  0  0
  -28.2267  -21.2767   18.2650 C   0  0  0  0  0  0  0  0  0  0  0  0
  -25.0395  -28.3925   20.0222 C   0  0  0  0  0  0  0  0  0  0  0  0
  -22.2693   -9.4631   22.3994 C   0  0  0  0  0  0  0  0  0  0  0  0
  -25.4954  -14.8198   20.1474 C   0  0  0  0  0  0  0  0  0  0  0  0
  -22.4919  -10.4459   21.4161 C   0  0  0  0  0  0  0  0  0  0  0  0
  -24.8431  -15.8582   19.4675 C   0  0  0  0  0  0  0  0  0  0  0  0
  -27.2866  -19.6302   16.7853 C   0  0  0  0  0  0  0  0  0  0  0  0
  -20.5022  -27.1989   22.2723 C   0  0  0  0  0  0  0  0  0  0  0  0
  -26.1569  -15.3667   17.4820 C   0  0  0  0  0  0  0  0  0  0  0  0
  -18.5267  -28.2743   22.9528 C   0  0  0  0  0  0  0  0  0  0  0  0
  -17.1536  -30.6429   23.4879 C   0  0  0  0  0  0  0  0  0  0  0  0
  -18.0118  -28.5091   24.2277 C   0  0  0  0  0  0  0  0  0  0  0  0
  -24.5213  -27.5095   20.9884 C   0  0  0  0  0  0  0  0  0  0  0  0
  -26.3803  -28.0986   19.9724 C   0  0  0  0  0  0  0  0  0  0  0  0
  -29.2081  -21.6851   19.3027 C   0  0  0  0  0  0  0  0  0  0  0  0
  -24.3689  -29.3893   19.2397 C   0  0  0  0  0  0  0  0  0  0  0  0
  -22.6876  -14.1353   21.4708 C   0  0  0  0  0  0  0  0  0  0  0  0
  -22.8030  -17.2437   22.3909 C   0  0  0  0  0  0  0  0  0  0  0  0
  -24.0300  -20.3819   21.8493 C   0  0  0  0  0  0  0  0  0  0  0  0
  -29.5554  -23.2275   21.2065 C   0  0  0  0  0  0  0  0  0  0  0  0
  -21.2914   -9.6768   23.5276 C   0  0  0  0  0  0  0  0  0  0  0  0
  -25.1743  -14.5333   21.5887 C   0  0  0  0  0  0  0  0  0  0  0  0
  -23.7840  -16.6985   20.1314 C   0  0  0  0  0  0  0  0  0  0  0  0
  -20.9284  -11.1428   23.7495 C   0  0  0  0  0  0  0  0  0  0  0  0
  -29.9488  -26.4111   22.6920 C   0  0  0  0  0  0  0  0  0  0  0  0
  -20.6087  -11.8206   22.4209 C   0  0  0  0  0  0  0  0  0  0  0  0
  -28.6556  -27.1436   22.3239 C   0  0  0  0  0  0  0  0  0  0  0  0
  -29.6975  -24.9352   22.9979 C   0  0  0  0  0  0  0  0  0  0  0  0
  -27.6739  -24.9319   21.5968 C   0  0  0  0  0  0  0  0  0  0  0  0
  -21.8237  -11.8020   21.4856 C   0  0  1  0  0  0  0  0  0  0  0  0
  -23.7858  -15.0145   21.9986 C   0  0  1  0  0  0  0  0  0  0  0  0
  -27.8842  -26.4052   21.2117 C   0  0  1  0  0  0  0  0  0  0  0  0
  -23.9146  -22.7236   22.7438 C   0  0  0  0  0  0  0  0  0  0  0  0
  -27.9470  -16.2025   14.4049 C   0  0  0  0  0  0  0  0  0  0  0  0
  -20.0549  -17.5942   21.1121 C   0  0  0  0  0  0  0  0  0  0  0  0
  -20.4140  -20.0709   21.1849 C   0  0  0  0  0  0  0  0  0  0  0  0
  -20.3410  -18.7602   23.3060 C   0  0  0  0  0  0  0  0  0  0  0  0
  -26.9278  -20.4192   22.4497 C   0  0  0  0  0  0  0  0  0  0  0  0
  -28.1571  -17.2951   16.6616 C   0  0  0  0  0  0  0  0  0  0  0  0
  -22.3539  -18.5539   21.7902 C   0  0  1  0  0  0  0  0  0  0  0  0
  -24.6543  -21.3957   22.7910 C   0  0  2  0  0  0  0  0  0  0  0  0
  -27.8209  -16.0097   15.9091 C   0  0  1  0  0  0  0  0  0  1  0  0
  -20.8095  -18.7279   21.8349 C   0  0  0  0  0  0  0  0  0  0  0  0
  -26.3713  -21.8674   16.8321 N   0  0  0  0  0  0  0  0  0  0  0  0
  -25.4566  -26.7141   21.5144 N   0  0  0  0  0  0  0  0  0  0  0  0
  -26.5760  -27.0962   20.8763 N   0  0  0  0  0  0  0  0  0  0  0  0
  -23.5010  -16.3755   21.5396 N   0  0  0  0  0  0  0  0  0  0  0  0
  -28.9717  -24.3066   21.8928 N   0  0  0  0  0  0  0  0  0  0  0  0
  -27.3991  -28.6023   19.2439 N   0  0  0  0  0  0  0  0  0  0  0  0
  -22.9891  -29.5604   19.4159 N   0  0  0  0  0  0  0  0  0  0  0  0
  -27.2535  -18.3493   16.2600 N   0  0  0  0  0  0  0  0  0  0  0  0
  -28.8018  -22.7244   20.1401 N   0  0  0  0  0  0  0  0  0  0  0  0
  -22.7780  -12.8174   21.8764 N   0  0  0  0  0  0  0  0  0  0  0  0
  -23.0934  -19.5987   22.4902 N   0  0  0  0  0  0  0  0  0  0  0  0
  -26.0779  -21.6374   22.4221 N   0  3  0  0  0  0  0  0  0  0  0  0
  -30.2726  -21.0793   19.3905 O   0  0  0  0  0  0  0  0  0  0  0  0
  -24.9725  -30.0958   18.3970 O   0  0  0  0  0  0  0  0  0  0  0  0
  -21.8214  -14.6172   20.7503 O   0  0  0  0  0  0  0  0  0  0  0  0
  -22.5502  -17.0027   23.5740 O   0  0  0  0  0  0  0  0  0  0  0  0
  -24.3393  -20.2960   20.6630 O   0  0  0  0  0  0  0  0  0  0  0  0
  -30.6683  -22.7754   21.4935 O   0  0  0  0  0  0  0  0  0  0  0  0
  -19.2093  -27.0994   22.6857 O   0  0  0  0  0  0  0  0  0  0  0  0
  -26.4726  -15.6323   16.1852 O   0  0  0  0  0  0  0  0  0  1  0  0
  -16.4956  -31.7810   23.7452 F   0  0  0  0  0  0  0  0  0  0  0  0
  -18.1745  -27.6011   25.1997 F   0  0  0  0  0  0  0  0  0  0  0  0
  1  2  1  0  0  0  0
  1  5  2  0  0  0  0
  2  6  2  0  0  0  0
  3  8  2  0  0  0  0
  3 18  1  0  0  0  0
  4  9  1  0  0  0  0
  4 18  2  0  0  0  0
  5 21  1  0  0  0  0
  6 23  1  0  0  0  0
  7 10  2  0  0  0  0
  7 22  1  0  0  0  0
  8 26  1  0  0  0  0
  9 26  2  0  0  0  0
 10 27  1  0  0  0  0
 11 12  2  0  0  0  0
 11 28  1  0  0  0  0
 12 29  1  0  0  0  0
 13 19  1  0  0  0  0
 13 25  2  0  0  0  0
 14 24  1  0  0  0  0
 14 27  2  0  0  0  0
 15 29  2  0  0  0  0
 15 30  1  0  0  0  0
 16 19  2  0  0  0  0
 16 62  1  0  0  0  0
 17 25  1  0  0  0  0
 17 62  2  0  0  0  0
 18 31  1  0  0  0  0
 19 33  1  0  0  0  0
 20 31  1  0  0  0  0
 20 32  2  0  0  0  0
 20 34  1  0  0  0  0
 21 23  2  0  0  0  0
 21 39  1  0  0  0  0
 22 24  2  0  0  0  0
 22 40  1  0  0  0  0
 23 48  1  0  0  0  0
 24 41  1  0  0  0  0
 25 69  1  0  0  0  0
 26 80  1  0  0  0  0
 27 81  1  0  0  0  0
 28 30  2  0  0  0  0
 28 80  1  0  0  0  0
 29 82  1  0  0  0  0
 30 83  1  0  0  0  0
 31 63  2  0  0  0  0
 32 64  1  0  0  0  0
 32 67  1  0  0  0  0
 33 70  1  0  0  0  0
 33 74  2  0  0  0  0
 34 68  1  0  0  0  0
 34 75  2  0  0  0  0
 35 49  1  0  0  0  0
 35 71  1  0  0  0  0
 35 76  2  0  0  0  0
 36 58  1  0  0  0  0
 36 65  1  0  0  0  0
 36 77  2  0  0  0  0
 37 59  1  0  0  0  0
 37 72  1  0  0  0  0
 37 78  2  0  0  0  0
 38 66  1  0  0  0  0
 38 70  1  0  0  0  0
 38 79  2  0  0  0  0
 39 42  1  0  0  0  0
 40 49  1  0  0  0  0
 41 65  1  0  0  0  0
 42 44  1  0  0  0  0
 43 45  1  0  0  0  0
 43 46  1  0  0  0  0
 44 48  1  0  0  0  0
 45 50  1  0  0  0  0
 46 66  1  0  0  0  0
 47 50  1  0  0  0  0
 47 66  1  0  0  0  0
 48 71  1  0  0  0  0
 49 65  1  0  0  0  0
 50 64  1  0  0  0  0
 51 59  1  0  0  0  0
 52 60  1  0  0  0  0
 53 61  1  0  0  0  0
 54 61  1  0  0  0  0
 55 61  1  0  0  0  0
 56 73  1  0  0  0  0
 57 60  1  0  0  0  0
 57 69  1  0  0  0  0
 58 61  1  0  0  0  0
 58 72  1  0  0  0  0
 59 73  1  0  0  0  0
 60 81  1  0  0  0  0
 63 64  1  0  0  0  0
M  CHG  1  73   1
M  ISO  4  38 100  60 101  70 100  81 101
M  END
> <Batch ID>
0162

> <Smiles>
CNC(C)C(=O)NC(C(=O)N1Cc2cc([101O:1][101CH:1](C)CNc3cncc(C(=O)[100NH:0][100C:0](=O)N4CCCC(n5nc(-c6ccc(Oc7ccc(F)cc7F)cc6)c(C(N)=O)c5N)C4)c3)ccc2CC1C(=O)NC1CCCc2ccccc21)C(C)(C)C

> <Shape>
0.197

> <Color>
0.072

> <Negative vol penalty>
0.000

$$$$

  -OEChem-04052303563D

 85 93  0     1  0  0  0  0  0999 V2000
  -25.2124  -31.7329   24.1206 C   0  0  0  0  0  0  0  0  0  0  0  0
  -26.1956  -30.7757   24.3443 C   0  0  0  0  0  0  0  0  0  0  0  0
  -23.9564  -21.2837   22.6218 C   0  0  0  0  0  0  0  0  0  0  0  0
  -26.3362  -20.8915   22.7622 C   0  0  0  0  0  0  0  0  0  0  0  0
  -30.7010  -13.0468   19.8857 C   0  0  0  0  0  0  0  0  0  0  0  0
  -24.4786  -31.7093   22.9364 C   0  0  0  0  0  0  0  0  0  0  0  0
  -26.4536  -29.8020   23.3788 C   0  0  0  0  0  0  0  0  0  0  0  0
  -30.0959  -23.7848   21.9874 C   0  0  0  0  0  0  0  0  0  0  0  0
  -24.0401  -22.1747   23.6916 C   0  0  0  0  0  0  0  0  0  0  0  0
  -26.4199  -21.7826   23.8321 C   0  0  0  0  0  0  0  0  0  0  0  0
  -29.9800  -22.4450   21.6195 C   0  0  0  0  0  0  0  0  0  0  0  0
  -26.4926  -25.1310   24.2828 C   0  0  0  0  0  0  0  0  0  0  0  0
  -30.5708  -11.8973   19.1064 C   0  0  0  0  0  0  0  0  0  0  0  0
  -27.5329  -26.0601   24.2706 C   0  0  0  0  0  0  0  0  0  0  0  0
  -29.6161  -23.1115   19.3299 C   0  0  0  0  0  0  0  0  0  0  0  0
  -28.1875  -11.8985   19.5026 C   0  0  0  0  0  0  0  0  0  0  0  0
  -28.3620  -25.1590   26.3534 C   0  0  0  0  0  0  0  0  0  0  0  0
  -25.1045  -20.6420   22.1571 C   0  0  0  0  0  0  0  0  0  0  0  0
  -29.5744  -13.6221   20.4736 C   0  0  0  0  0  0  0  0  0  0  0  0
  -25.1491  -20.0213   19.6831 C   0  0  0  0  0  0  0  0  0  0  0  0
  -24.7198  -30.7269   21.9619 C   0  0  0  0  0  0  0  0  0  0  0  0
  -29.9618  -24.8001   21.0295 C   0  0  0  0  0  0  0  0  0  0  0  0
  -25.7401  -29.7759   22.1668 C   0  0  0  0  0  0  0  0  0  0  0  0
  -29.7334  -24.4633   19.6877 C   0  0  0  0  0  0  0  0  0  0  0  0
  -28.3177  -13.0479   20.2820 C   0  0  0  0  0  0  0  0  0  0  0  0
  -25.2718  -22.4242   24.2968 C   0  0  0  0  0  0  0  0  0  0  0  0
  -29.7372  -22.1083   20.2911 C   0  0  0  0  0  0  0  0  0  0  0  0
  -26.3869  -24.2160   25.3304 C   0  0  0  0  0  0  0  0  0  0  0  0
  -29.3141  -11.3232   18.9148 C   0  0  0  0  0  0  0  0  0  0  0  0
  -28.4676  -26.0741   25.3059 C   0  0  0  0  0  0  0  0  0  0  0  0
  -27.3216  -24.2300   26.3656 C   0  0  0  0  0  0  0  0  0  0  0  0
  -25.0186  -19.7210   21.0523 C   0  0  0  0  0  0  0  0  0  0  0  0
  -24.9882  -18.8132   19.0498 C   0  0  0  0  0  0  0  0  0  0  0  0
  -29.7391  -14.8389   21.2938 C   0  0  0  0  0  0  0  0  0  0  0  0
  -25.3939  -21.2797   19.0412 C   0  0  0  0  0  0  0  0  0  0  0  0
  -27.9533  -27.2257   20.5981 C   0  0  0  0  0  0  0  0  0  0  0  0
  -29.6343  -18.4249   20.4009 C   0  0  0  0  0  0  0  0  0  0  0  0
  -29.9857  -27.9700   18.1820 C   0  0  0  0  0  0  0  0  0  0  0  0
  -32.3328  -26.9135   15.9411 C   0  0  0  0  0  0  0  0  0  0  0  0
  -25.8486  -13.1559   20.7702 C   0  0  0  0  0  0  0  0  0  0  0  0
  -23.9015  -30.7528   20.6951 C   0  0  0  0  0  0  0  0  0  0  0  0
  -30.1161  -26.2395   21.4380 C   0  0  0  0  0  0  0  0  0  0  0  0
  -29.6016  -25.5148   18.6175 C   0  0  0  0  0  0  0  0  0  0  0  0
  -23.9390  -29.4304   19.9360 C   0  0  0  0  0  0  0  0  0  0  0  0
  -22.8154  -14.5764   19.5624 C   0  0  0  0  0  0  0  0  0  0  0  0
  -25.3781  -28.9629   19.7771 C   0  0  0  0  0  0  0  0  0  0  0  0
  -23.0503  -16.0843   19.6771 C   0  0  0  0  0  0  0  0  0  0  0  0
  -23.4527  -13.8133   20.7222 C   0  0  0  0  0  0  0  0  0  0  0  0
  -25.1117  -15.6033   21.0578 C   0  0  0  0  0  0  0  0  0  0  0  0
  -26.0173  -28.6887   21.1443 C   0  0  1  0  0  0  0  0  0  0  0  0
  -29.4501  -27.2105   20.4680 C   0  0  1  0  0  0  0  0  0  0  0  0
  -24.5438  -16.4083   19.8775 C   0  0  2  0  0  0  0  0  0  0  0  0
  -33.7848  -27.7438   14.0704 C   0  0  0  0  0  0  0  0  0  0  0  0
  -27.5637  -28.0189   16.3269 C   0  0  0  0  0  0  0  0  0  0  0  0
  -29.1374  -27.9014   14.3833 C   0  0  0  0  0  0  0  0  0  0  0  0
  -29.2163  -29.8542   15.9334 C   0  0  0  0  0  0  0  0  0  0  0  0
  -34.8108  -26.1850   17.3861 C   0  0  0  0  0  0  0  0  0  0  0  0
  -29.7786  -17.3056   21.3984 C   0  0  0  0  0  0  0  0  0  0  0  0
  -29.7628  -19.8270   20.9625 C   0  0  0  0  0  0  0  0  0  1  0  0
  -30.0831  -27.6127   16.7185 C   0  0  1  0  0  0  0  0  0  0  0  0
  -33.6914  -27.4765   15.5646 C   0  0  2  0  0  0  0  0  0  0  0  0
  -29.0006  -28.3268   15.8608 C   0  0  0  0  0  0  0  0  0  0  0  0
  -24.7922  -18.4239   21.2764 N   0  0  0  0  0  0  0  0  0  0  0  0
  -24.7790  -17.8984   20.0396 N   0  0  0  0  0  0  0  0  0  0  0  0
  -29.7540  -26.9082   19.0678 N   0  0  0  0  0  0  0  0  0  0  0  0
  -24.8681  -14.1674   20.8488 N   0  0  0  0  0  0  0  0  0  0  0  0
  -25.0067  -18.4548   17.7484 N   0  0  0  0  0  0  0  0  0  0  0  0
  -25.5341  -22.4219   19.8413 N   0  0  0  0  0  0  0  0  0  0  0  0
  -27.1611  -13.6160   20.8714 N   0  0  0  0  0  0  0  0  0  0  0  0
  -29.6521  -16.0401   20.6953 N   0  0  0  0  0  0  0  0  0  0  0  0
  -27.4328  -28.4521   20.9646 N   0  0  0  0  0  0  0  0  0  0  0  0
  -31.4542  -27.9076   16.3167 N   0  0  0  0  0  0  0  0  0  0  0  0
  -29.9705  -14.6907   22.5983 N   0  3  0  0  0  0  0  0  0  0  0  0
  -34.7706  -26.5194   15.9392 N   0  3  0  0  0  0  0  0  0  0  0  0
  -25.4692  -21.3909   17.7940 O   0  0  0  0  0  0  0  0  0  0  0  0
  -27.3175  -26.2009   20.3804 O   0  0  0  0  0  0  0  0  0  0  0  0
  -29.4251  -18.2226   19.2056 O   0  0  0  0  0  0  0  0  0  0  0  0
  -30.1177  -29.1469   18.5272 O   0  0  0  0  0  0  0  0  0  0  0  0
  -32.0755  -25.7123   15.9021 O   0  0  0  0  0  0  0  0  0  0  0  0
  -25.5474  -11.9722   20.5965 O   0  0  0  0  0  0  0  0  0  0  0  0
  -25.3539  -23.2938   25.3406 O   0  0  0  0  0  0  0  0  0  0  0  0
  -29.6229  -20.8014   19.9294 O   0  0  0  0  0  0  0  0  0  1  0  0
  -29.1896  -10.2193   18.1665 F   0  0  0  0  0  0  0  0  0  0  0  0
  -29.4675  -26.9652   25.2932 F   0  0  0  0  0  0  0  0  0  0  0  0
  -27.2259  -23.3527   27.3740 F   0  0  0  0  0  0  0  0  0  0  0  0
  1  2  1  0  0  0  0
  1  6  2  0  0  0  0
  2  7  2  0  0  0  0
  3  9  2  0  0  0  0
  3 18  1  0  0  0  0
  4 10  1  0  0  0  0
  4 18  2  0  0  0  0
  5 13  2  0  0  0  0
  5 19  1  0  0  0  0
  6 21  1  0  0  0  0
  7 23  1  0  0  0  0
  8 11  2  0  0  0  0
  8 22  1  0  0  0  0
  9 26  1  0  0  0  0
 10 26  2  0  0  0  0
 11 27  1  0  0  0  0
 12 14  2  0  0  0  0
 12 28  1  0  0  0  0
 13 29  1  0  0  0  0
 14 30  1  0  0  0  0
 15 24  1  0  0  0  0
 15 27  2  0  0  0  0
 16 25  1  0  0  0  0
 16 29  2  0  0  0  0
 17 30  2  0  0  0  0
 17 31  1  0  0  0  0
 18 32  1  0  0  0  0
 19 25  2  0  0  0  0
 19 34  1  0  0  0  0
 20 32  1  0  0  0  0
 20 33  2  0  0  0  0
 20 35  1  0  0  0  0
 21 23  2  0  0  0  0
 21 41  1  0  0  0  0
 22 24  2  0  0  0  0
 22 42  1  0  0  0  0
 23 50  1  0  0  0  0
 24 43  1  0  0  0  0
 25 69  1  0  0  0  0
 26 81  1  0  0  0  0
 27 82  1  0  0  0  0
 28 31  2  0  0  0  0
 28 81  1  0  0  0  0
 29 83  1  0  0  0  0
 30 84  1  0  0  0  0
 31 85  1  0  0  0  0
 32 63  2  0  0  0  0
 33 64  1  0  0  0  0
 33 67  1  0  0  0  0
 34 70  1  0  0  0  0
 34 73  2  0  0  0  0
 35 68  1  0  0  0  0
 35 75  2  0  0  0  0
 36 51  1  0  0  0  0
 36 71  1  0  0  0  0
 36 76  2  0  0  0  0
 37 58  1  0  0  0  0
 37 59  1  0  0  0  0
 37 77  2  0  0  0  0
 38 60  1  0  0  0  0
 38 65  1  0  0  0  0
 38 78  2  0  0  0  0
 39 61  1  0  0  0  0
 39 72  1  0  0  0  0
 39 79  2  0  0  0  0
 40 66  1  0  0  0  0
 40 69  1  0  0  0  0
 40 80  2  0  0  0  0
 41 44  1  0  0  0  0
 42 51  1  0  0  0  0
 43 65  1  0  0  0  0
 44 46  1  0  0  0  0
 45 47  1  0  0  0  0
 45 48  1  0  0  0  0
 46 50  1  0  0  0  0
 47 52  1  0  0  0  0
 48 66  1  0  0  0  0
 49 52  1  0  0  0  0
 49 66  1  0  0  0  0
 50 71  1  0  0  0  0
 51 65  1  0  0  0  0
 52 64  1  0  0  0  0
 53 61  1  0  0  0  0
 54 62  1  0  0  0  0
 55 62  1  0  0  0  0
 56 62  1  0  0  0  0
 57 74  1  0  0  0  0
 58 70  1  0  0  0  0
 59 82  1  0  0  0  0
 60 62  1  0  0  0  0
 60 72  1  0  0  0  0
 61 74  1  0  0  0  0
 63 64  1  0  0  0  0
M  CHG  2  73   1  74   1
M  ISO  4  40 100  59 101  69 100  82 101
M  END
> <Batch ID>
0162

> <Smiles>
CNC(C)C(=O)NC(C(=O)N1Cc2cc([101O:1][101CH2:1]C(=O)CNC(=N)c3ccc(F)cc3[100NH:0][100C:0](=O)N3CCCC(n4nc(-c5ccc(Oc6ccc(F)cc6F)cc5)c(C(N)=O)c4N)C3)ccc2CC1C(=O)NC1CCCc2ccccc21)C(C)(C)C

> <Shape>
0.245

> <Color>
0.066

> <Negative vol penalty>
0.000

$$$$

  -OEChem-04052303563D

 82 90  0     1  0  0  0  0  0999 V2000
  -25.6381  -33.5585   23.9128 C   0  0  0  0  0  0  0  0  0  0  0  0
  -26.3263  -32.3523   23.9949 C   0  0  0  0  0  0  0  0  0  0  0  0
  -23.0621   -9.8606   19.9460 C   0  0  0  0  0  0  0  0  0  0  0  0
  -23.8331   -9.8626   22.2357 C   0  0  0  0  0  0  0  0  0  0  0  0
  -24.7390  -33.7772   22.8699 C   0  0  0  0  0  0  0  0  0  0  0  0
  -26.1150  -31.3635   23.0346 C   0  0  0  0  0  0  0  0  0  0  0  0
  -30.2562  -27.4262   20.8314 C   0  0  0  0  0  0  0  0  0  0  0  0
  -22.3159   -8.7095   20.1983 C   0  0  0  0  0  0  0  0  0  0  0  0
  -23.0868   -8.7115   22.4880 C   0  0  0  0  0  0  0  0  0  0  0  0
  -30.5434  -26.0971   21.1392 C   0  0  0  0  0  0  0  0  0  0  0  0
  -19.8592   -7.9230   23.1052 C   0  0  0  0  0  0  0  0  0  0  0  0
  -19.1078   -7.8840   24.2797 C   0  0  0  0  0  0  0  0  0  0  0  0
  -29.1515  -25.3779   19.3049 C   0  0  0  0  0  0  0  0  0  0  0  0
  -20.3467   -5.9419   25.0079 C   0  0  0  0  0  0  0  0  0  0  0  0
  -31.1473  -17.6865   20.5938 C   0  0  0  0  0  0  0  0  0  0  0  0
  -23.8208  -10.4372   20.9648 C   0  0  0  0  0  0  0  0  0  0  0  0
  -24.1698  -12.9614   20.8459 C   0  0  0  0  0  0  0  0  0  0  0  0
  -24.5237  -32.7944   21.8909 C   0  0  0  0  0  0  0  0  0  0  0  0
  -29.4044  -27.7414   19.7630 C   0  0  0  0  0  0  0  0  0  0  0  0
  -25.2111  -31.5687   21.9784 C   0  0  0  0  0  0  0  0  0  0  0  0
  -28.8572  -26.7119   18.9840 C   0  0  0  0  0  0  0  0  0  0  0  0
  -30.2671  -17.0686   21.4586 C   0  0  0  0  0  0  0  0  0  0  0  0
  -22.3282   -8.1349   21.4693 C   0  0  0  0  0  0  0  0  0  0  0  0
  -29.9887  -25.0726   20.3777 C   0  0  0  0  0  0  0  0  0  0  0  0
  -20.8543   -6.9713   22.8820 C   0  0  0  0  0  0  0  0  0  0  0  0
  -19.3516   -6.8935   25.2311 C   0  0  0  0  0  0  0  0  0  0  0  0
  -21.0981   -5.9808   23.8334 C   0  0  0  0  0  0  0  0  0  0  0  0
  -24.5923  -11.6260   20.7046 C   0  0  0  0  0  0  0  0  0  0  0  0
  -29.5839  -17.9075   22.3152 C   0  0  0  0  0  0  0  0  0  0  0  0
  -25.2625  -13.7079   20.4782 C   0  0  0  0  0  0  0  0  0  0  0  0
  -30.6267  -19.7295   21.4435 C   0  0  0  0  0  0  0  0  0  0  0  0
  -22.9030  -13.4807   21.2716 C   0  0  0  0  0  0  0  0  0  0  0  0
  -26.6058  -29.2231   19.4872 C   0  0  0  0  0  0  0  0  0  0  0  0
  -27.1723  -28.8694   16.3129 C   0  0  0  0  0  0  0  0  0  0  0  0
  -28.7656  -27.1575   13.8274 C   0  0  0  0  0  0  0  0  0  0  0  0
  -30.7327  -14.7364   20.6277 C   0  0  0  0  0  0  0  0  0  0  0  0
  -23.5067  -33.0580   20.8089 C   0  0  0  0  0  0  0  0  0  0  0  0
  -29.1258  -29.1809   19.4274 C   0  0  0  0  0  0  0  0  0  0  0  0
  -27.9528  -26.9978   17.8140 C   0  0  0  0  0  0  0  0  0  0  0  0
  -23.6192  -32.1048   19.6219 C   0  0  0  0  0  0  0  0  0  0  0  0
  -29.5994  -12.3288   18.2621 C   0  0  0  0  0  0  0  0  0  0  0  0
  -23.7556  -30.6644   20.1050 C   0  0  0  0  0  0  0  0  0  0  0  0
  -28.1609  -12.0412   18.6983 C   0  0  0  0  0  0  0  0  0  0  0  0
  -30.5210  -12.5534   19.4595 C   0  0  0  0  0  0  0  0  0  0  0  0
  -28.6230  -13.2821   20.8508 C   0  0  0  0  0  0  0  0  0  0  0  0
  -25.0274  -30.4814   20.9420 C   0  0  1  0  0  0  0  0  0  0  0  0
  -27.8353  -29.3711   18.6363 C   0  0  1  0  0  0  0  0  0  0  0  0
  -27.6440  -13.1133   19.6775 C   0  0  2  0  0  0  0  0  0  0  0  0
  -28.6038  -17.3539   23.2973 C   0  0  0  0  0  0  0  0  0  0  0  0
  -29.0028  -27.0765   11.3305 C   0  0  0  0  0  0  0  0  0  0  0  0
  -24.4289  -27.5512   16.0976 C   0  0  0  0  0  0  0  0  0  0  0  0
  -25.1097  -26.6607   13.8589 C   0  0  0  0  0  0  0  0  0  0  0  0
  -24.9800  -29.1237   14.2326 C   0  0  0  0  0  0  0  0  0  0  0  0
  -31.6715  -27.7003   13.9696 C   0  0  0  0  0  0  0  0  0  0  0  0
  -30.1142  -22.0097   22.3174 C   0  0  0  0  0  0  0  0  0  0  0  0
  -26.8657  -27.8081   15.2840 C   0  0  1  0  0  0  0  0  0  0  0  0
  -29.5654  -27.6345   12.6285 C   0  0  2  0  0  0  0  0  0  0  0  0
  -30.5381  -23.4451   22.0419 C   0  0  2  0  0  0  0  0  0  1  0  0
  -25.3615  -27.7801   14.8914 C   0  0  0  0  0  0  0  0  0  0  0  0
  -31.3526  -19.0195   20.5590 N   0  0  0  0  0  0  0  0  0  0  0  0
  -25.8548  -11.5267   20.2801 N   0  0  0  0  0  0  0  0  0  0  0  0
  -29.7399  -19.2475   22.3350 N   0  0  0  0  0  0  0  0  0  0  0  0
  -26.2351  -12.8093   20.1514 N   0  0  0  0  0  0  0  0  0  0  0  0
  -27.7055  -28.4210   17.5296 N   0  0  0  0  0  0  0  0  0  0  0  0
  -29.9695  -13.5849   20.3408 N   0  0  0  0  0  0  0  0  0  0  0  0
  -25.4767  -15.0388   20.4057 N   0  0  0  0  0  0  0  0  0  0  0  0
  -21.8899  -12.5742   21.6127 N   0  0  0  0  0  0  0  0  0  0  0  0
  -30.0922  -15.6625   21.4502 N   0  0  0  0  0  0  0  0  0  0  0  0
  -30.8120  -21.1021   21.4356 N   0  0  0  0  0  0  0  0  0  0  0  0
  -26.1897  -30.3981   20.0837 N   0  0  0  0  0  0  0  0  0  0  0  0
  -27.7707  -28.0503   14.1656 N   0  0  0  0  0  0  0  0  0  0  0  0
  -30.9866  -27.2026   12.7488 N   0  3  0  0  0  0  0  0  0  0  0  0
  -22.6708  -14.7119   21.3315 O   0  0  0  0  0  0  0  0  0  0  0  0
  -26.0731  -28.1246   19.5934 O   0  0  0  0  0  0  0  0  0  0  0  0
  -26.9536  -30.0533   16.0442 O   0  0  0  0  0  0  0  0  0  0  0  0
  -28.9977  -26.0971   14.4037 O   0  0  0  0  0  0  0  0  0  0  0  0
  -31.8601  -14.9022   20.1548 O   0  0  0  0  0  0  0  0  0  0  0  0
  -21.6000   -7.0118   21.7158 O   0  0  0  0  0  0  0  0  0  0  0  0
  -30.2669  -23.7744   20.6764 O   0  0  0  0  0  0  0  0  0  1  0  0
  -18.6310   -6.8572   26.3596 F   0  0  0  0  0  0  0  0  0  0  0  0
  -22.0536   -5.0646   23.6251 F   0  0  0  0  0  0  0  0  0  0  0  0
  -31.8751  -23.5594   22.2624 F   0  0  0  0  0  0  0  0  0  0  0  0
  1  2  1  0  0  0  0
  1  5  2  0  0  0  0
  2  6  2  0  0  0  0
  3  8  2  0  0  0  0
  3 16  1  0  0  0  0
  4  9  1  0  0  0  0
  4 16  2  0  0  0  0
  5 18  1  0  0  0  0
  6 20  1  0  0  0  0
  7 10  2  0  0  0  0
  7 19  1  0  0  0  0
  8 23  1  0  0  0  0
  9 23  2  0  0  0  0
 10 24  1  0  0  0  0
 11 12  2  0  0  0  0
 11 25  1  0  0  0  0
 12 26  1  0  0  0  0
 13 21  1  0  0  0  0
 13 24  2  0  0  0  0
 14 26  2  0  0  0  0
 14 27  1  0  0  0  0
 15 22  1  0  0  0  0
 15 60  2  0  0  0  0
 16 28  1  0  0  0  0
 17 28  1  0  0  0  0
 17 30  2  0  0  0  0
 17 32  1  0  0  0  0
 18 20  2  0  0  0  0
 18 37  1  0  0  0  0
 19 21  2  0  0  0  0
 19 38  1  0  0  0  0
 20 46  1  0  0  0  0
 21 39  1  0  0  0  0
 22 29  2  0  0  0  0
 22 68  1  0  0  0  0
 23 78  1  0  0  0  0
 24 79  1  0  0  0  0
 25 27  2  0  0  0  0
 25 78  1  0  0  0  0
 26 80  1  0  0  0  0
 27 81  1  0  0  0  0
 28 61  2  0  0  0  0
 29 49  1  0  0  0  0
 29 62  1  0  0  0  0
 30 63  1  0  0  0  0
 30 66  1  0  0  0  0
 31 60  1  0  0  0  0
 31 62  2  0  0  0  0
 31 69  1  0  0  0  0
 32 67  1  0  0  0  0
 32 73  2  0  0  0  0
 33 47  1  0  0  0  0
 33 70  1  0  0  0  0
 33 74  2  0  0  0  0
 34 56  1  0  0  0  0
 34 64  1  0  0  0  0
 34 75  2  0  0  0  0
 35 57  1  0  0  0  0
 35 71  1  0  0  0  0
 35 76  2  0  0  0  0
 36 65  1  0  0  0  0
 36 68  1  0  0  0  0
 36 77  2  0  0  0  0
 37 40  1  0  0  0  0
 38 47  1  0  0  0  0
 39 64  1  0  0  0  0
 40 42  1  0  0  0  0
 41 43  1  0  0  0  0
 41 44  1  0  0  0  0
 42 46  1  0  0  0  0
 43 48  1  0  0  0  0
 44 65  1  0  0  0  0
 45 48  1  0  0  0  0
 45 65  1  0  0  0  0
 46 70  1  0  0  0  0
 47 64  1  0  0  0  0
 48 63  1  0  0  0  0
 50 57  1  0  0  0  0
 51 59  1  0  0  0  0
 52 59  1  0  0  0  0
 53 59  1  0  0  0  0
 54 72  1  0  0  0  0
 55 58  1  0  0  0  0
 55 69  1  0  0  0  0
 56 59  1  0  0  0  0
 56 71  1  0  0  0  0
 57 72  1  0  0  0  0
 58 79  1  0  0  0  0
 58 82  1  0  0  0  0
 61 63  1  0  0  0  0
M  CHG  1  72   1
M  ISO  4  36 100  58 101  68 100  79 101
M  END
> <Batch ID>
0162

> <Smiles>
CNC(C)C(=O)NC(C(=O)N1Cc2cc([101O:1][101CH:1](F)CNc3ncc([100NH:0][100C:0](=O)N4CCCC(n5nc(-c6ccc(Oc7ccc(F)cc7F)cc6)c(C(N)=O)c5N)C4)c(C)n3)ccc2CC1C(=O)NC1CCCc2ccccc21)C(C)(C)C

> <Shape>
0.302

> <Color>
0.190

> <Negative vol penalty>
0.000

$$$$

  -OEChem-04052303563D

 84 92  0     1  0  0  0  0  0999 V2000
  -29.6739  -12.5226   19.9218 C   0  0  0  0  0  0  0  0  0  0  0  0
  -29.6404  -13.8363   19.4652 C   0  0  0  0  0  0  0  0  0  0  0  0
  -24.0475  -27.0740   22.7701 C   0  0  0  0  0  0  0  0  0  0  0  0
  -24.5538  -29.2531   21.8578 C   0  0  0  0  0  0  0  0  0  0  0  0
  -28.4856  -11.8651   20.2377 C   0  0  0  0  0  0  0  0  0  0  0  0
  -28.4186  -14.4930   19.3232 C   0  0  0  0  0  0  0  0  0  0  0  0
  -28.5236  -19.2108   21.1605 C   0  0  0  0  0  0  0  0  0  0  0  0
  -22.7799  -27.5233   23.1398 C   0  0  0  0  0  0  0  0  0  0  0  0
  -23.2861  -29.7024   22.2275 C   0  0  0  0  0  0  0  0  0  0  0  0
  -29.1318  -20.1874   20.3730 C   0  0  0  0  0  0  0  0  0  0  0  0
  -19.8011  -28.0848   21.6416 C   0  0  0  0  0  0  0  0  0  0  0  0
  -18.7138  -27.2556   21.3664 C   0  0  0  0  0  0  0  0  0  0  0  0
  -26.9613  -20.9241   19.6209 C   0  0  0  0  0  0  0  0  0  0  0  0
  -18.1893  -27.1615   23.7230 C   0  0  0  0  0  0  0  0  0  0  0  0
  -33.8201  -28.9538   16.2480 C   0  0  0  0  0  0  0  0  0  0  0  0
  -24.9346  -27.9389   22.1291 C   0  0  0  0  0  0  0  0  0  0  0  0
  -26.6129  -26.8790   20.5267 C   0  0  0  0  0  0  0  0  0  0  0  0
  -27.2492  -12.5173   20.1086 C   0  0  0  0  0  0  0  0  0  0  0  0
  -27.1278  -19.0762   21.1757 C   0  0  0  0  0  0  0  0  0  0  0  0
  -27.2126  -13.8432   19.6363 C   0  0  0  0  0  0  0  0  0  0  0  0
  -26.3377  -19.9467   20.4114 C   0  0  0  0  0  0  0  0  0  0  0  0
  -22.3991  -28.8374   22.8685 C   0  0  0  0  0  0  0  0  0  0  0  0
  -28.3508  -21.0424   19.6008 C   0  0  0  0  0  0  0  0  0  0  0  0
  -20.0827  -28.4522   22.9574 C   0  0  0  0  0  0  0  0  0  0  0  0
  -17.9078  -26.7940   22.4071 C   0  0  0  0  0  0  0  0  0  0  0  0
  -19.2767  -27.9906   23.9981 C   0  0  0  0  0  0  0  0  0  0  0  0
  -26.2444  -27.4755   21.7475 C   0  0  0  0  0  0  0  0  0  0  0  0
  -33.9638  -28.3791   18.5828 C   0  0  0  0  0  0  0  0  0  0  0  0
  -33.2831  -27.4838   17.7845 C   0  0  0  0  0  0  0  0  0  0  0  0
  -27.9558  -26.6240   20.6607 C   0  0  0  0  0  0  0  0  0  0  0  0
  -31.5270  -24.2203   18.4043 C   0  0  0  0  0  0  0  0  0  0  0  0
  -25.8127  -26.5821   19.3747 C   0  0  0  0  0  0  0  0  0  0  0  0
  -30.8265  -23.1668   17.9539 C   0  0  0  0  0  0  0  0  0  0  0  0
  -31.9926  -25.3400   17.5263 C   0  0  0  0  0  0  0  0  0  0  0  0
  -25.0874  -16.7744   20.3745 C   0  0  0  0  0  0  0  0  0  0  0  0
  -22.9009  -18.8070   21.6434 C   0  0  0  0  0  0  0  0  0  0  0  0
  -22.0573  -22.0101   22.4652 C   0  0  0  0  0  0  0  0  0  0  0  0
  -33.0771  -28.2008   22.2200 C   0  0  0  0  0  0  0  0  0  0  0  0
  -25.9880  -11.7499   20.4172 C   0  0  0  0  0  0  0  0  0  0  0  0
  -26.4858  -18.0351   22.0511 C   0  0  0  0  0  0  0  0  0  0  0  0
  -24.8343  -19.8568   20.4083 C   0  0  0  0  0  0  0  0  0  0  0  0
  -24.7613  -12.6408   20.5956 C   0  0  0  0  0  0  0  0  0  0  0  0
  -30.9559  -26.8275   24.7282 C   0  0  0  0  0  0  0  0  0  0  0  0
  -24.6844  -13.6740   19.4761 C   0  0  0  0  0  0  0  0  0  0  0  0
  -29.5712  -26.8304   24.0780 C   0  0  0  0  0  0  0  0  0  0  0  0
  -31.7731  -28.0515   24.3210 C   0  0  0  0  0  0  0  0  0  0  0  0
  -30.5095  -28.2621   22.2156 C   0  0  0  0  0  0  0  0  0  0  0  0
  -25.9085  -14.5975   19.4926 C   0  0  1  0  0  0  0  0  0  0  0  0
  -25.0816  -17.6530   21.5934 C   0  0  1  0  0  0  0  0  0  0  0  0
  -29.6687  -27.0187   22.5522 C   0  0  2  0  0  0  0  0  0  0  0  0
  -20.1892  -23.3634   23.4532 C   0  0  0  0  0  0  0  0  0  0  0  0
  -21.3530  -18.5781   19.0240 C   0  0  0  0  0  0  0  0  0  0  0  0
  -20.0660  -20.6208   19.6869 C   0  0  0  0  0  0  0  0  0  0  0  0
  -19.9311  -18.5568   21.0813 C   0  0  0  0  0  0  0  0  0  0  0  0
  -23.7532  -22.9257   24.7111 C   0  0  0  0  0  0  0  0  0  0  0  0
  -34.2420  -28.3463   20.0335 C   0  0  0  0  0  0  0  0  0  0  0  0
  -30.3669  -22.0645   18.8617 C   0  0  0  0  0  0  0  0  0  1  0  0
  -22.0513  -19.9338   21.1074 C   0  0  1  0  0  0  0  0  0  0  0  0
  -21.4764  -22.6044   23.7356 C   0  0  2  0  0  0  0  0  0  0  0  0
  -20.8788  -19.4231   20.2233 C   0  0  0  0  0  0  0  0  0  0  0  0
  -33.1994  -27.8119   16.4454 N   0  0  0  0  0  0  0  0  0  0  0  0
  -27.2704  -27.5924   22.5947 N   0  0  0  0  0  0  0  0  0  0  0  0
  -28.2968  -27.0658   21.9052 N   0  0  0  0  0  0  0  0  0  0  0  0
  -24.2539  -18.8184   21.2758 N   0  0  0  0  0  0  0  0  0  0  0  0
  -31.8281  -28.1717   22.8620 N   0  0  0  0  0  0  0  0  0  0  0  0
  -28.8664  -26.0672   19.8342 N   0  0  0  0  0  0  0  0  0  0  0  0
  -24.4505  -26.9103   19.4047 N   0  0  0  0  0  0  0  0  0  0  0  0
  -32.6915  -26.2888   18.2631 N   0  0  0  0  0  0  0  0  0  0  0  0
  -25.7791  -15.5894   20.5385 N   0  0  0  0  0  0  0  0  0  0  0  0
  -21.6302  -20.7142   22.2658 N   0  0  0  0  0  0  0  0  0  0  0  0
  -33.0393  -28.3101   20.8354 N   0  0  0  0  0  0  0  0  0  0  0  0
  -22.4495  -23.5451   24.3594 N   0  3  0  0  0  0  0  0  0  0  0  0
  -26.2881  -26.0267   18.3553 O   0  0  0  0  0  0  0  0  0  0  0  0
  -31.7554  -25.3564   16.3248 O   0  0  0  0  0  0  0  0  0  0  0  0
  -24.5061  -17.1435   19.3609 O   0  0  0  0  0  0  0  0  0  0  0  0
  -22.3848  -17.9522   22.3677 O   0  0  0  0  0  0  0  0  0  0  0  0
  -22.8113  -22.6343   21.7219 O   0  0  0  0  0  0  0  0  0  0  0  0
  -34.1466  -28.1290   22.8349 O   0  0  0  0  0  0  0  0  0  0  0  0
  -30.4638  -23.0342   16.6282 O   0  0  0  0  0  0  0  0  0  0  0  0
  -21.1621  -29.2761   23.2289 O   0  0  0  0  0  0  0  0  0  0  0  0
  -28.9419  -21.9960   18.8307 O   0  0  0  0  0  0  0  0  0  1  0  0
  -16.8627  -25.9990   22.1426 F   0  0  0  0  0  0  0  0  0  0  0  0
  -19.5415  -28.3412   25.2641 F   0  0  0  0  0  0  0  0  0  0  0  0
  -34.5278  -29.6876   17.6284 S   0  0  0  0  0  0  0  0  0  0  0  0
  1  2  1  0  0  0  0
  1  5  2  0  0  0  0
  2  6  2  0  0  0  0
  3  8  2  0  0  0  0
  3 16  1  0  0  0  0
  4  9  1  0  0  0  0
  4 16  2  0  0  0  0
  5 18  1  0  0  0  0
  6 20  1  0  0  0  0
  7 10  2  0  0  0  0
  7 19  1  0  0  0  0
  8 22  1  0  0  0  0
  9 22  2  0  0  0  0
 10 23  1  0  0  0  0
 11 12  2  0  0  0  0
 11 24  1  0  0  0  0
 12 25  1  0  0  0  0
 13 21  1  0  0  0  0
 13 23  2  0  0  0  0
 14 25  2  0  0  0  0
 14 26  1  0  0  0  0
 15 61  2  0  0  0  0
 15 84  1  0  0  0  0
 16 27  1  0  0  0  0
 17 27  1  0  0  0  0
 17 30  2  0  0  0  0
 17 32  1  0  0  0  0
 18 20  2  0  0  0  0
 18 39  1  0  0  0  0
 19 21  2  0  0  0  0
 19 40  1  0  0  0  0
 20 48  1  0  0  0  0
 21 41  1  0  0  0  0
 22 80  1  0  0  0  0
 23 81  1  0  0  0  0
 24 26  2  0  0  0  0
 24 80  1  0  0  0  0
 25 82  1  0  0  0  0
 26 83  1  0  0  0  0
 27 62  2  0  0  0  0
 28 29  2  0  0  0  0
 28 56  1  0  0  0  0
 28 84  1  0  0  0  0
 29 61  1  0  0  0  0
 29 68  1  0  0  0  0
 30 63  1  0  0  0  0
 30 66  1  0  0  0  0
 31 33  2  0  0  0  0
 31 34  1  0  0  0  0
 32 67  1  0  0  0  0
 32 73  2  0  0  0  0
 33 57  1  0  0  0  0
 33 79  1  0  0  0  0
 34 68  1  0  0  0  0
 34 74  2  0  0  0  0
 35 49  1  0  0  0  0
 35 69  1  0  0  0  0
 35 75  2  0  0  0  0
 36 58  1  0  0  0  0
 36 64  1  0  0  0  0
 36 76  2  0  0  0  0
 37 59  1  0  0  0  0
 37 70  1  0  0  0  0
 37 77  2  0  0  0  0
 38 65  1  0  0  0  0
 38 71  1  0  0  0  0
 38 78  2  0  0  0  0
 39 42  1  0  0  0  0
 40 49  1  0  0  0  0
 41 64  1  0  0  0  0
 42 44  1  0  0  0  0
 43 45  1  0  0  0  0
 43 46  1  0  0  0  0
 44 48  1  0  0  0  0
 45 50  1  0  0  0  0
 46 65  1  0  0  0  0
 47 50  1  0  0  0  0
 47 65  1  0  0  0  0
 48 69  1  0  0  0  0
 49 64  1  0  0  0  0
 50 63  1  0  0  0  0
 51 59  1  0  0  0  0
 52 60  1  0  0  0  0
 53 60  1  0  0  0  0
 54 60  1  0  0  0  0
 55 72  1  0  0  0  0
 56 71  1  0  0  0  0
 57 81  1  0  0  0  0
 58 60  1  0  0  0  0
 58 70  1  0  0  0  0
 59 72  1  0  0  0  0
 62 63  1  0  0  0  0
M  CHG  1  72   1
M  ISO  4  38 100  57 101  71 100  81 101
M  END
> <Batch ID>
0162

> <Smiles>
CNC(C)C(=O)NC(C(=O)N1Cc2cc([101O:1][101CH2:1]C(=O)CC(=O)Nc3ncsc3C[100NH:0][100C:0](=O)N3CCCC(n4nc(-c5ccc(Oc6ccc(F)cc6F)cc5)c(C(N)=O)c4N)C3)ccc2CC1C(=O)NC1CCCc2ccccc21)C(C)(C)C

> <Shape>
0.205

> <Color>
0.061

> <Negative vol penalty>
0.000

$$$$

  -OEChem-04052303563D

 84 92  0     1  0  0  0  0  0999 V2000
  -24.6716  -23.3636   13.4916 C   0  0  0  0  0  0  0  0  0  0  0  0
  -24.9896  -24.3896   14.3742 C   0  0  0  0  0  0  0  0  0  0  0  0
  -25.9034  -17.1861   21.7245 C   0  0  0  0  0  0  0  0  0  0  0  0
  -26.2035  -16.9595   19.3380 C   0  0  0  0  0  0  0  0  0  0  0  0
  -25.2429  -22.1039   13.6582 C   0  0  0  0  0  0  0  0  0  0  0  0
  -25.8881  -24.1596   15.4166 C   0  0  0  0  0  0  0  0  0  0  0  0
  -27.2608  -28.0579   18.0853 C   0  0  0  0  0  0  0  0  0  0  0  0
  -26.1855  -15.8301   21.8888 C   0  0  0  0  0  0  0  0  0  0  0  0
  -26.4856  -15.6033   19.5023 C   0  0  0  0  0  0  0  0  0  0  0  0
  -26.4077  -28.6917   18.9877 C   0  0  0  0  0  0  0  0  0  0  0  0
  -29.1115  -13.7059   20.4638 C   0  0  0  0  0  0  0  0  0  0  0  0
  -30.2004  -13.1829   19.7664 C   0  0  0  0  0  0  0  0  0  0  0  0
  -27.5585  -27.6216   20.8179 C   0  0  0  0  0  0  0  0  0  0  0  0
  -28.7308  -11.6374   18.6311 C   0  0  0  0  0  0  0  0  0  0  0  0
  -19.4539  -27.3769   22.9755 C   0  0  0  0  0  0  0  0  0  0  0  0
  -19.5667  -25.2445   21.8688 C   0  0  0  0  0  0  0  0  0  0  0  0
  -25.9123  -17.7509   20.4491 C   0  0  0  0  0  0  0  0  0  0  0  0
  -26.3223  -20.2395   20.8313 C   0  0  0  0  0  0  0  0  0  0  0  0
  -26.1392  -21.8557   14.7109 C   0  0  0  0  0  0  0  0  0  0  0  0
  -28.2639  -27.1912   18.5426 C   0  0  0  0  0  0  0  0  0  0  0  0
  -26.4937  -22.9015   15.5873 C   0  0  0  0  0  0  0  0  0  0  0  0
  -28.4246  -26.9800   19.9194 C   0  0  0  0  0  0  0  0  0  0  0  0
  -26.4766  -15.0386   20.7777 C   0  0  0  0  0  0  0  0  0  0  0  0
  -26.5546  -28.4714   20.3541 C   0  0  0  0  0  0  0  0  0  0  0  0
  -27.8323  -13.1946   20.2450 C   0  0  0  0  0  0  0  0  0  0  0  0
  -30.0100  -12.1487   18.8500 C   0  0  0  0  0  0  0  0  0  0  0  0
  -27.6420  -12.1603   19.3286 C   0  0  0  0  0  0  0  0  0  0  0  0
  -18.9368  -26.1039   22.7621 C   0  0  0  0  0  0  0  0  0  0  0  0
  -25.6204  -19.1515   20.2786 C   0  0  0  0  0  0  0  0  0  0  0  0
  -20.5940  -27.7394   22.2764 C   0  0  0  0  0  0  0  0  0  0  0  0
  -20.7016  -25.7025   21.2191 C   0  0  0  0  0  0  0  0  0  0  0  0
  -25.6533  -21.3481   20.3731 C   0  0  0  0  0  0  0  0  0  0  0  0
  -27.4759  -20.2474   21.6826 C   0  0  0  0  0  0  0  0  0  0  0  0
  -28.9086  -24.1030   18.1539 C   0  0  0  0  0  0  0  0  0  0  0  0
  -23.4244  -29.3797   21.9476 C   0  0  0  0  0  0  0  0  0  0  0  0
  -31.6052  -24.8596   19.7905 C   0  0  0  0  0  0  0  0  0  0  0  0
  -33.1727  -26.9543   21.9817 C   0  0  0  0  0  0  0  0  0  0  0  0
  -20.6132  -23.8310   19.5806 C   0  0  0  0  0  0  0  0  0  0  0  0
  -26.7342  -20.4757   14.8401 C   0  0  0  0  0  0  0  0  0  0  0  0
  -29.1931  -26.5361   17.5578 C   0  0  0  0  0  0  0  0  0  0  0  0
  -29.4987  -26.0747   20.4627 C   0  0  0  0  0  0  0  0  0  0  0  0
  -27.3224  -20.2089   16.2219 C   0  0  0  0  0  0  0  0  0  0  0  0
  -22.0723  -21.8298   16.8462 C   0  0  0  0  0  0  0  0  0  0  0  0
  -28.2345  -21.3564   16.6289 C   0  0  0  0  0  0  0  0  0  0  0  0
  -23.1365  -20.9998   17.5622 C   0  0  0  0  0  0  0  0  0  0  0  0
  -20.9037  -22.1689   17.7668 C   0  0  0  0  0  0  0  0  0  0  0  0
  -22.3775  -22.0110   19.7501 C   0  0  0  0  0  0  0  0  0  0  0  0
  -27.4449  -22.6663   16.7467 C   0  0  1  0  0  0  0  0  0  0  0  0
  -29.8502  -25.2729   18.1056 C   0  0  1  0  0  0  0  0  0  0  0  0
  -23.5883  -21.6896   18.8611 C   0  0  1  0  0  0  0  0  0  0  0  0
  -35.0498  -27.9349   23.3280 C   0  0  0  0  0  0  0  0  0  0  0  0
  -30.9170  -22.6000   21.7219 C   0  0  0  0  0  0  0  0  0  0  0  0
  -32.5527  -23.5816   23.3434 C   0  0  0  0  0  0  0  0  0  0  0  0
  -33.3401  -22.7595   21.1238 C   0  0  0  0  0  0  0  0  0  0  0  0
  -22.7415  -25.0663   19.9189 C   0  0  0  0  0  0  0  0  0  0  0  0
  -33.9641  -28.7627   19.7766 C   0  0  0  0  0  0  0  0  0  0  0  0
  -21.9865  -29.6936   21.5928 C   0  0  0  0  0  0  0  0  0  0  0  0
  -24.4008  -29.3818   20.7875 C   0  0  0  0  0  0  0  0  0  1  0  0
  -31.9960  -24.8973   21.2481 C   0  0  1  0  0  0  0  0  0  0  0  0
  -34.5298  -27.6328   21.9312 C   0  0  2  0  0  0  0  0  0  0  0  0
  -32.1799  -23.4752   21.8493 C   0  0  0  0  0  0  0  0  0  0  0  0
  -24.5848  -19.5342   19.5270 N   0  0  0  0  0  0  0  0  0  0  0  0
  -21.2334  -26.9321   21.4006 N   0  0  0  0  0  0  0  0  0  0  0  0
  -24.6309  -20.8751   19.6041 N   0  0  0  0  0  0  0  0  0  0  0  0
  -30.3783  -25.4522   19.4596 N   0  0  0  0  0  0  0  0  0  0  0  0
  -21.3641  -22.7818   19.0134 N   0  0  0  0  0  0  0  0  0  0  0  0
  -25.8455  -22.6716   20.5571 N   0  0  0  0  0  0  0  0  0  0  0  0
  -28.7447  -20.2828   21.0883 N   0  0  0  0  0  0  0  0  0  0  0  0
  -21.0974  -29.0130   22.4992 N   0  0  0  0  0  0  0  0  0  0  0  0
  -28.3719  -23.7617   16.9272 N   0  0  0  0  0  0  0  0  0  0  0  0
  -33.1847  -25.7391   21.3304 N   0  0  0  0  0  0  0  0  0  0  0  0
  -21.3485  -24.8022   20.2941 N   0  0  0  0  0  0  0  0  0  0  0  0
  -34.4404  -28.9142   21.1756 N   0  3  0  0  0  0  0  0  0  0  0  0
  -27.3847  -20.2072   22.9331 O   0  0  0  0  0  0  0  0  0  0  0  0
  -28.6865  -23.5500   19.2247 O   0  0  0  0  0  0  0  0  0  0  0  0
  -23.7881  -29.1370   23.0977 O   0  0  0  0  0  0  0  0  0  0  0  0
  -32.3639  -24.3305   18.9744 O   0  0  0  0  0  0  0  0  0  0  0  0
  -32.2003  -27.4509   22.5460 O   0  0  0  0  0  0  0  0  0  0  0  0
  -19.3875  -23.9089   19.4350 O   0  0  0  0  0  0  0  0  0  0  0  0
  -26.7522  -13.7154   20.9377 O   0  0  0  0  0  0  0  0  0  0  0  0
  -25.7229  -29.0883   21.2370 O   0  0  0  0  0  0  0  0  0  1  0  0
  -31.0555  -11.6476   18.1791 F   0  0  0  0  0  0  0  0  0  0  0  0
  -26.4152  -11.6658   19.1133 F   0  0  0  0  0  0  0  0  0  0  0  0
  -17.8364  -25.7073   23.4144 F   0  0  0  0  0  0  0  0  0  0  0  0
  1  2  1  0  0  0  0
  1  5  2  0  0  0  0
  2  6  2  0  0  0  0
  3  8  2  0  0  0  0
  3 17  1  0  0  0  0
  4  9  1  0  0  0  0
  4 17  2  0  0  0  0
  5 19  1  0  0  0  0
  6 21  1  0  0  0  0
  7 10  2  0  0  0  0
  7 20  1  0  0  0  0
  8 23  1  0  0  0  0
  9 23  2  0  0  0  0
 10 24  1  0  0  0  0
 11 12  2  0  0  0  0
 11 25  1  0  0  0  0
 12 26  1  0  0  0  0
 13 22  1  0  0  0  0
 13 24  2  0  0  0  0
 14 26  2  0  0  0  0
 14 27  1  0  0  0  0
 15 28  2  0  0  0  0
 15 30  1  0  0  0  0
 16 28  1  0  0  0  0
 16 31  2  0  0  0  0
 17 29  1  0  0  0  0
 18 29  1  0  0  0  0
 18 32  2  0  0  0  0
 18 33  1  0  0  0  0
 19 21  2  0  0  0  0
 19 39  1  0  0  0  0
 20 22  2  0  0  0  0
 20 40  1  0  0  0  0
 21 48  1  0  0  0  0
 22 41  1  0  0  0  0
 23 80  1  0  0  0  0
 24 81  1  0  0  0  0
 25 27  2  0  0  0  0
 25 80  1  0  0  0  0
 26 82  1  0  0  0  0
 27 83  1  0  0  0  0
 28 84  1  0  0  0  0
 29 62  2  0  0  0  0
 30 63  2  0  0  0  0
 30 69  1  0  0  0  0
 31 63  1  0  0  0  0
 31 72  1  0  0  0  0
 32 64  1  0  0  0  0
 32 67  1  0  0  0  0
 33 68  1  0  0  0  0
 33 74  2  0  0  0  0
 34 49  1  0  0  0  0
 34 70  1  0  0  0  0
 34 75  2  0  0  0  0
 35 57  1  0  0  0  0
 35 58  1  0  0  0  0
 35 76  2  0  0  0  0
 36 59  1  0  0  0  0
 36 65  1  0  0  0  0
 36 77  2  0  0  0  0
 37 60  1  0  0  0  0
 37 71  1  0  0  0  0
 37 78  2  0  0  0  0
 38 66  1  0  0  0  0
 38 72  1  0  0  0  0
 38 79  2  0  0  0  0
 39 42  1  0  0  0  0
 40 49  1  0  0  0  0
 41 65  1  0  0  0  0
 42 44  1  0  0  0  0
 43 45  1  0  0  0  0
 43 46  1  0  0  0  0
 44 48  1  0  0  0  0
 45 50  1  0  0  0  0
 46 66  1  0  0  0  0
 47 50  1  0  0  0  0
 47 66  1  0  0  0  0
 48 70  1  0  0  0  0
 49 65  1  0  0  0  0
 50 64  1  0  0  0  0
 51 60  1  0  0  0  0
 52 61  1  0  0  0  0
 53 61  1  0  0  0  0
 54 61  1  0  0  0  0
 55 72  1  0  0  0  0
 56 73  1  0  0  0  0
 57 69  1  0  0  0  0
 58 81  1  0  0  0  0
 59 61  1  0  0  0  0
 59 71  1  0  0  0  0
 60 73  1  0  0  0  0
 62 64  1  0  0  0  0
M  CHG  1  73   1
M  ISO  4  38 100  58 101  72 100  81 101
M  END
> <Batch ID>
0162

> <Smiles>
CNC(C)C(=O)NC(C(=O)N1Cc2cc([101O:1][101CH2:1]C(=O)CNc3cc(F)cc([100N:0](C)[100C:0](=O)N4CCCC(n5nc(-c6ccc(Oc7ccc(F)cc7F)cc6)c(C(N)=O)c5N)C4)n3)ccc2CC1C(=O)NC1CCCc2ccccc21)C(C)(C)C

> <Shape>
0.202

> <Color>
0.064

> <Negative vol penalty>
0.000

$$$$

  -OEChem-04052303563D

 85 94  0     1  0  0  0  0  0999 V2000
  -29.7071  -37.0134   24.2217 C   0  0  0  0  0  0  0  0  0  0  0  0
  -30.2562  -35.7352   24.2345 C   0  0  0  0  0  0  0  0  0  0  0  0
  -23.0843   -9.8583   19.9369 C   0  0  0  0  0  0  0  0  0  0  0  0
  -23.8407   -9.8681   22.2315 C   0  0  0  0  0  0  0  0  0  0  0  0
  -28.3224  -37.1760   24.2119 C   0  0  0  0  0  0  0  0  0  0  0  0
  -29.4207  -34.6188   24.2385 C   0  0  0  0  0  0  0  0  0  0  0  0
  -30.4592  -29.2338   21.5128 C   0  0  0  0  0  0  0  0  0  0  0  0
  -22.3445   -8.7022   20.1857 C   0  0  0  0  0  0  0  0  0  0  0  0
  -23.1008   -8.7121   22.4803 C   0  0  0  0  0  0  0  0  0  0  0  0
  -30.9411  -28.0169   21.9931 C   0  0  0  0  0  0  0  0  0  0  0  0
  -19.8749   -7.9017   23.0779 C   0  0  0  0  0  0  0  0  0  0  0  0
  -19.1163   -7.8588   24.2476 C   0  0  0  0  0  0  0  0  0  0  0  0
  -29.4944  -17.9017   22.3746 C   0  0  0  0  0  0  0  0  0  0  0  0
  -28.6756  -27.2350   22.2676 C   0  0  0  0  0  0  0  0  0  0  0  0
  -31.1280  -17.7190   20.6111 C   0  0  0  0  0  0  0  0  0  0  0  0
  -20.3641   -5.9262   24.9859 C   0  0  0  0  0  0  0  0  0  0  0  0
  -23.8324  -10.4412   20.9598 C   0  0  0  0  0  0  0  0  0  0  0  0
  -24.1646  -12.9677   20.8403 C   0  0  0  0  0  0  0  0  0  0  0  0
  -27.4696  -36.0609   24.2060 C   0  0  0  0  0  0  0  0  0  0  0  0
  -29.0794  -29.4649   21.4164 C   0  0  0  0  0  0  0  0  0  0  0  0
  -28.0233  -34.7666   24.2299 C   0  0  0  0  0  0  0  0  0  0  0  0
  -29.6581  -19.2941   22.3931 C   0  0  0  0  0  0  0  0  0  0  0  0
  -28.1788  -28.4548   21.7834 C   0  0  0  0  0  0  0  0  0  0  0  0
  -30.5437  -19.9135   21.4879 C   0  0  0  0  0  0  0  0  0  0  0  0
  -30.2291  -17.1180   21.4872 C   0  0  0  0  0  0  0  0  0  0  0  0
  -22.3528   -8.1291   21.4574 C   0  0  0  0  0  0  0  0  0  0  0  0
  -30.0492  -27.0183   22.3733 C   0  0  0  0  0  0  0  0  0  0  0  0
  -20.8781   -6.9568   22.8621 C   0  0  0  0  0  0  0  0  0  0  0  0
  -19.3609   -6.8711   25.2016 C   0  0  0  0  0  0  0  0  0  0  0  0
  -31.2866  -19.1057   20.6145 C   0  0  0  0  0  0  0  0  0  0  0  0
  -21.1227   -5.9691   23.8161 C   0  0  0  0  0  0  0  0  0  0  0  0
  -24.5973  -11.6351   20.7033 C   0  0  0  0  0  0  0  0  0  0  0  0
  -25.2544  -13.7214   20.4788 C   0  0  0  0  0  0  0  0  0  0  0  0
  -22.8915  -13.4785   21.2573 C   0  0  0  0  0  0  0  0  0  0  0  0
  -30.5759  -23.4349   22.5047 C   0  0  0  0  0  0  0  0  0  0  0  0
  -27.0537  -31.5308   22.7326 C   0  0  0  0  0  0  0  0  0  0  0  0
  -24.9412  -30.1679   20.6826 C   0  0  0  0  0  0  0  0  0  0  0  0
  -24.0697  -27.4611   18.7957 C   0  0  0  0  0  0  0  0  0  0  0  0
  -30.7162  -14.7882   20.6618 C   0  0  0  0  0  0  0  0  0  0  0  0
  -25.9789  -36.2869   24.2430 C   0  0  0  0  0  0  0  0  0  0  0  0
  -28.5760  -30.7731   20.8712 C   0  0  0  0  0  0  0  0  0  0  0  0
  -28.8472  -20.1288   23.3536 C   0  0  0  0  0  0  0  0  0  0  0  0
  -26.6883  -28.6454   21.6801 C   0  0  0  0  0  0  0  0  0  0  0  0
  -25.1659  -35.0501   23.8694 C   0  0  0  0  0  0  0  0  0  0  0  0
  -29.5070  -21.4852   23.5972 C   0  0  0  0  0  0  0  0  0  0  0  0
  -29.6148  -12.3702   18.2918 C   0  0  0  0  0  0  0  0  0  0  0  0
  -25.6964  -33.8214   24.6014 C   0  0  0  0  0  0  0  0  0  0  0  0
  -28.1757  -12.0730   18.7192 C   0  0  0  0  0  0  0  0  0  0  0  0
  -30.5272  -12.6025   19.4949 C   0  0  0  0  0  0  0  0  0  0  0  0
  -28.6153  -13.3195   20.8732 C   0  0  0  0  0  0  0  0  0  0  0  0
  -27.1502  -33.5307   24.2096 C   0  0  1  0  0  0  0  0  0  0  0  0
  -29.8573  -22.1461   22.2666 C   0  0  2  0  0  0  0  0  0  0  0  0
  -27.1461  -31.0884   21.2996 C   0  0  1  0  0  0  0  0  0  0  0  0
  -27.6450  -13.1425   19.6939 C   0  0  2  0  0  0  0  0  0  0  0  0
  -22.2691  -26.6285   17.2589 C   0  0  0  0  0  0  0  0  0  0  0  0
  -23.1291  -29.6606   23.0844 C   0  0  0  0  0  0  0  0  0  0  0  0
  -21.8444  -28.0316   21.6829 C   0  0  0  0  0  0  0  0  0  0  0  0
  -21.9398  -30.4361   21.0257 C   0  0  0  0  0  0  0  0  0  0  0  0
  -25.9623  -27.1898   16.5366 C   0  0  0  0  0  0  0  0  0  0  0  0
  -29.7134  -24.6752   22.6032 C   0  0  0  0  0  0  0  0  0  1  0  0
  -23.9963  -28.9923   20.7462 C   0  0  1  0  0  0  0  0  0  0  0  0
  -23.6073  -27.3446   17.3545 C   0  0  2  0  0  0  0  0  0  0  0  0
  -22.7554  -29.2770   21.6387 C   0  0  0  0  0  0  0  0  0  0  0  0
  -25.8631  -11.5442   20.2869 N   0  0  0  0  0  0  0  0  0  0  0  0
  -26.2352  -12.8292   20.1592 N   0  0  0  0  0  0  0  0  0  0  0  0
  -30.7343  -21.2920   21.4870 N   0  0  0  0  0  0  0  0  0  0  0  0
  -26.2451  -29.9442   21.1470 N   0  0  0  0  0  0  0  0  0  0  0  0
  -29.9629  -13.6311   20.3714 N   0  0  0  0  0  0  0  0  0  0  0  0
  -25.4597  -15.0537   20.4061 N   0  0  0  0  0  0  0  0  0  0  0  0
  -21.8826  -12.5654   21.5930 N   0  0  0  0  0  0  0  0  0  0  0  0
  -30.0640  -15.7107   21.4793 N   0  0  0  0  0  0  0  0  0  0  0  0
  -27.2059  -32.8924   22.9119 N   0  0  0  0  0  0  0  0  0  0  0  0
  -23.6734  -28.6529   19.3645 N   0  0  0  0  0  0  0  0  0  0  0  0
  -24.6055  -26.5848   16.5500 N   0  3  0  0  0  0  0  0  0  0  0  0
  -22.6504  -14.7082   21.3143 O   0  0  0  0  0  0  0  0  0  0  0  0
  -31.8007  -23.4733   22.6125 O   0  0  0  0  0  0  0  0  0  0  0  0
  -26.8573  -30.6985   23.6103 O   0  0  0  0  0  0  0  0  0  0  0  0
  -24.5393  -31.2430   20.2307 O   0  0  0  0  0  0  0  0  0  0  0  0
  -24.7146  -26.5810   19.3615 O   0  0  0  0  0  0  0  0  0  0  0  0
  -31.8454  -14.9613   20.1960 O   0  0  0  0  0  0  0  0  0  0  0  0
  -21.6308   -7.0012   21.7006 O   0  0  0  0  0  0  0  0  0  0  0  0
  -30.5169  -25.8298   22.8431 O   0  0  0  0  0  0  0  0  0  1  0  0
  -18.6334   -6.8309   26.3256 F   0  0  0  0  0  0  0  0  0  0  0  0
  -32.1581  -19.6653   19.7621 F   0  0  0  0  0  0  0  0  0  0  0  0
  -22.0859   -5.0593   23.6149 F   0  0  0  0  0  0  0  0  0  0  0  0
  1  2  1  0  0  0  0
  1  5  2  0  0  0  0
  2  6  2  0  0  0  0
  3  8  2  0  0  0  0
  3 17  1  0  0  0  0
  4  9  1  0  0  0  0
  4 17  2  0  0  0  0
  5 19  1  0  0  0  0
  6 21  1  0  0  0  0
  7 10  2  0  0  0  0
  7 20  1  0  0  0  0
  8 26  1  0  0  0  0
  9 26  2  0  0  0  0
 10 27  1  0  0  0  0
 11 12  2  0  0  0  0
 11 28  1  0  0  0  0
 12 29  1  0  0  0  0
 13 22  1  0  0  0  0
 13 25  2  0  0  0  0
 14 23  1  0  0  0  0
 14 27  2  0  0  0  0
 15 25  1  0  0  0  0
 15 30  2  0  0  0  0
 16 29  2  0  0  0  0
 16 31  1  0  0  0  0
 17 32  1  0  0  0  0
 18 32  1  0  0  0  0
 18 33  2  0  0  0  0
 18 34  1  0  0  0  0
 19 21  2  0  0  0  0
 19 40  1  0  0  0  0
 20 23  2  0  0  0  0
 20 41  1  0  0  0  0
 21 51  1  0  0  0  0
 22 24  2  0  0  0  0
 22 42  1  0  0  0  0
 23 43  1  0  0  0  0
 24 30  1  0  0  0  0
 24 66  1  0  0  0  0
 25 71  1  0  0  0  0
 26 81  1  0  0  0  0
 27 82  1  0  0  0  0
 28 31  2  0  0  0  0
 28 81  1  0  0  0  0
 29 83  1  0  0  0  0
 30 84  1  0  0  0  0
 31 85  1  0  0  0  0
 32 64  2  0  0  0  0
 33 65  1  0  0  0  0
 33 69  1  0  0  0  0
 34 70  1  0  0  0  0
 34 75  2  0  0  0  0
 35 52  1  0  0  0  0
 35 60  1  0  0  0  0
 35 76  2  0  0  0  0
 36 53  1  0  0  0  0
 36 72  1  0  0  0  0
 36 77  2  0  0  0  0
 37 61  1  0  0  0  0
 37 67  1  0  0  0  0
 37 78  2  0  0  0  0
 38 62  1  0  0  0  0
 38 73  1  0  0  0  0
 38 79  2  0  0  0  0
 39 68  1  0  0  0  0
 39 71  1  0  0  0  0
 39 80  2  0  0  0  0
 40 44  1  0  0  0  0
 41 53  1  0  0  0  0
 42 45  1  0  0  0  0
 43 67  1  0  0  0  0
 44 47  1  0  0  0  0
 45 52  1  0  0  0  0
 46 48  1  0  0  0  0
 46 49  1  0  0  0  0
 47 51  1  0  0  0  0
 48 54  1  0  0  0  0
 49 68  1  0  0  0  0
 50 54  1  0  0  0  0
 50 68  1  0  0  0  0
 51 72  1  0  0  0  0
 52 66  1  0  0  0  0
 53 67  1  0  0  0  0
 54 65  1  0  0  0  0
 55 62  1  0  0  0  0
 56 63  1  0  0  0  0
 57 63  1  0  0  0  0
 58 63  1  0  0  0  0
 59 74  1  0  0  0  0
 60 82  1  0  0  0  0
 61 63  1  0  0  0  0
 61 73  1  0  0  0  0
 62 74  1  0  0  0  0
 64 65  1  0  0  0  0
M  CHG  1  74   1
M  ISO  4  39 100  60 101  71 100  82 101
M  END
> <Batch ID>
0162

> <Smiles>
CNC(C)C(=O)NC(C(=O)N1Cc2cc([101O:1][101CH2:1]C(=O)C3CCc4cc([100NH:0][100C:0](=O)N5CCCC(n6nc(-c7ccc(Oc8ccc(F)cc8F)cc7)c(C(N)=O)c6N)C5)cc(F)c4N3)ccc2CC1C(=O)NC1CCCc2ccccc21)C(C)(C)C

> <Shape>
0.353

> <Color>
0.188

> <Negative vol penalty>
0.000

$$$$

  -OEChem-04052303563D

 86 94  0     1  0  0  0  0  0999 V2000
  -32.2129  -11.4585   19.6455 C   0  0  0  0  0  0  0  0  0  0  0  0
  -32.6356  -12.7517   19.3549 C   0  0  0  0  0  0  0  0  0  0  0  0
  -20.3749  -21.0411   24.2055 C   0  0  0  0  0  0  0  0  0  0  0  0
  -18.7137  -20.5782   22.5134 C   0  0  0  0  0  0  0  0  0  0  0  0
  -30.8580  -11.1978   19.8462 C   0  0  0  0  0  0  0  0  0  0  0  0
  -31.7035  -13.7848   19.2637 C   0  0  0  0  0  0  0  0  0  0  0  0
  -31.0075  -20.8030   20.5193 C   0  0  0  0  0  0  0  0  0  0  0  0
  -20.0521  -19.8465   24.8493 C   0  0  0  0  0  0  0  0  0  0  0  0
  -18.3909  -19.3836   23.1572 C   0  0  0  0  0  0  0  0  0  0  0  0
  -30.6067  -21.9766   19.8823 C   0  0  0  0  0  0  0  0  0  0  0  0
  -19.6643  -16.2625   23.3973 C   0  0  0  0  0  0  0  0  0  0  0  0
  -19.5162  -15.1221   22.6078 C   0  0  0  0  0  0  0  0  0  0  0  0
  -24.5165  -28.4967   20.8848 C   0  0  0  0  0  0  0  0  0  0  0  0
  -28.3011  -21.4232   20.3265 C   0  0  0  0  0  0  0  0  0  0  0  0
  -17.2328  -14.8952   23.3639 C   0  0  0  0  0  0  0  0  0  0  0  0
  -19.7056  -21.4070   23.0376 C   0  0  0  0  0  0  0  0  0  0  0  0
  -24.1279  -29.7636   21.3820 C   0  0  0  0  0  0  0  0  0  0  0  0
  -21.0069  -22.8317   21.3690 C   0  0  0  0  0  0  0  0  0  0  0  0
  -29.9099  -12.2300   19.7670 C   0  0  0  0  0  0  0  0  0  0  0  0
  -30.0559  -19.9238   21.0561 C   0  0  0  0  0  0  0  0  0  0  0  0
  -30.3345  -13.5374   19.4622 C   0  0  0  0  0  0  0  0  0  0  0  0
  -28.6925  -20.2404   20.9721 C   0  0  0  0  0  0  0  0  0  0  0  0
  -19.0602  -19.0177   24.3251 C   0  0  0  0  0  0  0  0  0  0  0  0
  -29.2532  -22.2854   19.7832 C   0  0  0  0  0  0  0  0  0  0  0  0
  -18.5967  -16.7192   24.1702 C   0  0  0  0  0  0  0  0  0  0  0  0
  -18.3005  -14.4385   22.5911 C   0  0  0  0  0  0  0  0  0  0  0  0
  -17.3810  -16.0356   24.1535 C   0  0  0  0  0  0  0  0  0  0  0  0
  -20.0382  -22.6411   22.3725 C   0  0  0  0  0  0  0  0  0  0  0  0
  -25.2827  -30.5032   21.4876 C   0  0  0  0  0  0  0  0  0  0  0  0
  -20.9349  -24.1708   21.0722 C   0  0  0  0  0  0  0  0  0  0  0  0
  -25.8812  -28.5526   20.7218 C   0  0  0  0  0  0  0  0  0  0  0  0
  -22.7622  -30.2343   21.7290 C   0  0  0  0  0  0  0  0  0  0  0  0
  -21.8927  -21.8832   20.7596 C   0  0  0  0  0  0  0  0  0  0  0  0
  -25.5204  -31.8376   21.9251 C   0  0  0  0  0  0  0  0  0  0  0  0
  -29.2271  -16.9054   20.5031 C   0  0  0  0  0  0  0  0  0  0  0  0
  -27.6848  -25.5354   19.4081 C   0  0  0  0  0  0  0  0  0  0  0  0
  -27.3211  -17.3641   23.0875 C   0  0  0  0  0  0  0  0  0  0  0  0
  -25.6324  -19.5514   25.0902 C   0  0  0  0  0  0  0  0  0  0  0  0
  -20.5659  -29.4868   22.5898 C   0  0  0  0  0  0  0  0  0  0  0  0
  -28.4511  -11.8910   19.9449 C   0  0  0  0  0  0  0  0  0  0  0  0
  -30.5058  -18.6751   21.7637 C   0  0  0  0  0  0  0  0  0  0  0  0
  -27.6323  -19.3400   21.5498 C   0  0  0  0  0  0  0  0  0  0  0  0
  -27.5691  -13.1105   20.2006 C   0  0  0  0  0  0  0  0  0  0  0  0
  -17.5366  -27.6715   22.4325 C   0  0  0  0  0  0  0  0  0  0  0  0
  -27.9035  -14.2269   19.2164 C   0  0  0  0  0  0  0  0  0  0  0  0
  -17.9941  -26.2153   22.3121 C   0  0  0  0  0  0  0  0  0  0  0  0
  -18.4403  -28.4748   23.3668 C   0  0  0  0  0  0  0  0  0  0  0  0
  -20.3275  -26.9534   22.9400 C   0  0  0  0  0  0  0  0  0  0  0  0
  -29.3565  -14.6892   19.3794 C   0  0  1  0  0  0  0  0  0  0  0  0
  -29.4260  -17.5989   21.8211 C   0  0  1  0  0  0  0  0  0  0  0  0
  -19.4911  -26.1203   21.9553 C   0  0  1  0  0  0  0  0  0  0  0  0
  -26.9433  -32.3587   21.9181 C   0  0  0  0  0  0  0  0  0  0  0  0
  -24.1333  -19.6261   27.1013 C   0  0  0  0  0  0  0  0  0  0  0  0
  -24.9838  -16.4029   21.3778 C   0  0  0  0  0  0  0  0  0  0  0  0
  -23.4283  -17.3824   23.0776 C   0  0  0  0  0  0  0  0  0  0  0  0
  -24.9823  -15.5419   23.7258 C   0  0  0  0  0  0  0  0  0  0  0  0
  -27.5734  -21.1789   26.6209 C   0  0  0  0  0  0  0  0  0  0  0  0
  -26.4443  -26.2858   19.8442 C   0  0  0  0  0  0  0  0  0  0  0  0
  -27.6498  -24.0341   19.6181 C   0  0  0  0  0  0  0  0  0  1  0  0
  -25.9097  -17.8552   23.3012 C   0  0  1  0  0  0  0  0  0  0  0  0
  -25.5678  -19.6902   26.6005 C   0  0  2  0  0  0  0  0  0  0  0  0
  -24.8456  -16.8118   22.8579 C   0  0  0  0  0  0  0  0  0  0  0  0
  -19.3978  -23.7689   22.6919 N   0  0  0  0  0  0  0  0  0  0  0  0
  -19.9654  -24.6811   21.8845 N   0  0  0  0  0  0  0  0  0  0  0  0
  -28.1220  -18.1276   22.2264 N   0  0  0  0  0  0  0  0  0  0  0  0
  -19.8390  -28.3405   22.9556 N   0  0  0  0  0  0  0  0  0  0  0  0
  -21.6070  -24.9499   20.1982 N   0  0  0  0  0  0  0  0  0  0  0  0
  -21.8352  -20.5481   21.1823 N   0  0  0  0  0  0  0  0  0  0  0  0
  -26.7989  -27.6163   20.2676 N   0  0  0  0  0  0  0  0  0  0  0  0
  -21.8799  -29.2485   22.1718 N   0  0  0  0  0  0  0  0  0  0  0  0
  -29.4866  -15.5485   20.5366 N   0  0  0  0  0  0  0  0  0  0  0  0
  -25.8199  -18.2407   24.7054 N   0  0  0  0  0  0  0  0  0  0  0  0
  -26.1567  -20.9912   27.0268 N   0  3  0  0  0  0  0  0  0  0  0  0
  -22.5040  -31.4321   21.6483 O   0  0  0  0  0  0  0  0  0  0  0  0
  -22.7222  -22.2129   19.8783 O   0  0  0  0  0  0  0  0  0  0  0  0
  -24.6559  -32.6450   22.3299 O   0  0  0  0  0  0  0  0  0  0  0  0
  -28.8637  -17.5530   19.5284 O   0  0  0  0  0  0  0  0  0  0  0  0
  -28.6627  -26.0962   18.9151 O   0  0  0  0  0  0  0  0  0  0  0  0
  -27.7013  -16.3448   23.6688 O   0  0  0  0  0  0  0  0  0  0  0  0
  -25.5236  -20.5093   24.3280 O   0  0  0  0  0  0  0  0  0  0  0  0
  -20.0759  -30.6205   22.5978 O   0  0  0  0  0  0  0  0  0  0  0  0
  -26.3560  -29.7723   21.0870 O   0  0  0  0  0  0  0  0  0  0  0  0
  -18.7451  -17.8519   24.9528 O   0  0  0  0  0  0  0  0  0  0  0  0
  -28.8593  -23.4300   19.1614 O   0  0  0  0  0  0  0  0  0  1  0  0
  -18.1579  -13.3444   21.8317 F   0  0  0  0  0  0  0  0  0  0  0  0
  -16.3514  -16.4702   24.8929 F   0  0  0  0  0  0  0  0  0  0  0  0
  1  2  1  0  0  0  0
  1  5  2  0  0  0  0
  2  6  2  0  0  0  0
  3  8  2  0  0  0  0
  3 16  1  0  0  0  0
  4  9  1  0  0  0  0
  4 16  2  0  0  0  0
  5 19  1  0  0  0  0
  6 21  1  0  0  0  0
  7 10  2  0  0  0  0
  7 20  1  0  0  0  0
  8 23  1  0  0  0  0
  9 23  2  0  0  0  0
 10 24  1  0  0  0  0
 11 12  2  0  0  0  0
 11 25  1  0  0  0  0
 12 26  1  0  0  0  0
 13 17  1  0  0  0  0
 13 31  2  0  0  0  0
 14 22  1  0  0  0  0
 14 24  2  0  0  0  0
 15 26  2  0  0  0  0
 15 27  1  0  0  0  0
 16 28  1  0  0  0  0
 17 29  2  0  0  0  0
 17 32  1  0  0  0  0
 18 28  1  0  0  0  0
 18 30  2  0  0  0  0
 18 33  1  0  0  0  0
 19 21  2  0  0  0  0
 19 40  1  0  0  0  0
 20 22  2  0  0  0  0
 20 41  1  0  0  0  0
 21 49  1  0  0  0  0
 22 42  1  0  0  0  0
 23 83  1  0  0  0  0
 24 84  1  0  0  0  0
 25 27  2  0  0  0  0
 25 83  1  0  0  0  0
 26 85  1  0  0  0  0
 27 86  1  0  0  0  0
 28 63  2  0  0  0  0
 29 34  1  0  0  0  0
 29 82  1  0  0  0  0
 30 64  1  0  0  0  0
 30 67  1  0  0  0  0
 31 69  1  0  0  0  0
 31 82  1  0  0  0  0
 32 70  1  0  0  0  0
 32 74  2  0  0  0  0
 33 68  1  0  0  0  0
 33 75  2  0  0  0  0
 34 52  1  0  0  0  0
 34 76  2  0  0  0  0
 35 50  1  0  0  0  0
 35 71  1  0  0  0  0
 35 77  2  0  0  0  0
 36 58  1  0  0  0  0
 36 59  1  0  0  0  0
 36 78  2  0  0  0  0
 37 60  1  0  0  0  0
 37 65  1  0  0  0  0
 37 79  2  0  0  0  0
 38 61  1  0  0  0  0
 38 72  1  0  0  0  0
 38 80  2  0  0  0  0
 39 66  1  0  0  0  0
 39 70  1  0  0  0  0
 39 81  2  0  0  0  0
 40 43  1  0  0  0  0
 41 50  1  0  0  0  0
 42 65  1  0  0  0  0
 43 45  1  0  0  0  0
 44 46  1  0  0  0  0
 44 47  1  0  0  0  0
 45 49  1  0  0  0  0
 46 51  1  0  0  0  0
 47 66  1  0  0  0  0
 48 51  1  0  0  0  0
 48 66  1  0  0  0  0
 49 71  1  0  0  0  0
 50 65  1  0  0  0  0
 51 64  1  0  0  0  0
 53 61  1  0  0  0  0
 54 62  1  0  0  0  0
 55 62  1  0  0  0  0
 56 62  1  0  0  0  0
 57 73  1  0  0  0  0
 58 69  1  0  0  0  0
 59 84  1  0  0  0  0
 60 62  1  0  0  0  0
 60 72  1  0  0  0  0
 61 73  1  0  0  0  0
 63 64  1  0  0  0  0
M  CHG  1  73   1
M  ISO  4  39 100  59 101  70 100  84 101
M  END
> <Batch ID>
0162

> <Smiles>
CNC(C)C(=O)NC(C(=O)N1Cc2cc([101O:1][101CH2:1]C(=O)CNc3cc(C(=O)[100NH:0][100C:0](=O)N4CCCC(n5nc(-c6ccc(Oc7ccc(F)cc7F)cc6)c(C(N)=O)c5N)C4)c(C(C)=O)o3)ccc2CC1C(=O)NC1CCCc2ccccc21)C(C)(C)C

> <Shape>
0.234

> <Color>
0.070

> <Negative vol penalty>
0.000

$$$$

  -OEChem-04052303563D

 84 92  0     1  0  0  0  0  0999 V2000
  -24.4532  -38.2917   20.1880 C   0  0  0  0  0  0  0  0  0  0  0  0
  -24.7979  -37.2528   19.3294 C   0  0  0  0  0  0  0  0  0  0  0  0
  -24.1335   -9.5801   22.4700 C   0  0  0  0  0  0  0  0  0  0  0  0
  -24.1831   -9.3160   20.0690 C   0  0  0  0  0  0  0  0  0  0  0  0
  -24.6908  -38.1714   21.5566 C   0  0  0  0  0  0  0  0  0  0  0  0
  -25.3815  -36.0933   19.8388 C   0  0  0  0  0  0  0  0  0  0  0  0
  -25.6706  -29.0261   18.7040 C   0  0  0  0  0  0  0  0  0  0  0  0
  -27.1033  -23.6215   22.9178 C   0  0  0  0  0  0  0  0  0  0  0  0
  -26.3382  -23.0904   23.9561 C   0  0  0  0  0  0  0  0  0  0  0  0
  -23.0654   -8.6863   22.5463 C   0  0  0  0  0  0  0  0  0  0  0  0
  -23.1150   -8.4221   20.1452 C   0  0  0  0  0  0  0  0  0  0  0  0
  -26.5986  -27.9999   18.5325 C   0  0  0  0  0  0  0  0  0  0  0  0
  -22.6084   -5.3373   22.4543 C   0  0  0  0  0  0  0  0  0  0  0  0
  -22.6565   -4.3524   23.4408 C   0  0  0  0  0  0  0  0  0  0  0  0
  -27.4918  -21.3947   22.0650 C   0  0  0  0  0  0  0  0  0  0  0  0
  -26.8894  -27.8713   20.9237 C   0  0  0  0  0  0  0  0  0  0  0  0
  -20.6092   -5.2091   24.3958 C   0  0  0  0  0  0  0  0  0  0  0  0
  -24.6923   -9.8950   21.2313 C   0  0  0  0  0  0  0  0  0  0  0  0
  -26.7268  -20.8635   23.1034 C   0  0  0  0  0  0  0  0  0  0  0  0
  -27.1677  -10.5113   21.2138 C   0  0  0  0  0  0  0  0  0  0  0  0
  -25.2687  -37.0060   22.0842 C   0  0  0  0  0  0  0  0  0  0  0  0
  -25.3526  -29.4909   19.9882 C   0  0  0  0  0  0  0  0  0  0  0  0
  -25.6283  -35.9579   21.2156 C   0  0  0  0  0  0  0  0  0  0  0  0
  -25.9551  -28.9018   21.1090 C   0  0  0  0  0  0  0  0  0  0  0  0
  -27.6801  -22.7736   21.9722 C   0  0  0  0  0  0  0  0  0  0  0  0
  -26.1499  -21.7115   24.0489 C   0  0  0  0  0  0  0  0  0  0  0  0
  -22.5561   -8.1073   21.3839 C   0  0  0  0  0  0  0  0  0  0  0  0
  -27.2103  -27.4243   19.6422 C   0  0  0  0  0  0  0  0  0  0  0  0
  -21.5608   -6.2581   22.4385 C   0  0  0  0  0  0  0  0  0  0  0  0
  -21.6569   -4.2883   24.4116 C   0  0  0  0  0  0  0  0  0  0  0  0
  -20.5612   -6.1940   23.4093 C   0  0  0  0  0  0  0  0  0  0  0  0
  -25.7953  -10.8187   21.1519 C   0  0  0  0  0  0  0  0  0  0  0  0
  -27.7974  -11.7259   21.0924 C   0  0  0  0  0  0  0  0  0  0  0  0
  -26.5517  -19.4176   23.1684 C   0  0  0  0  0  0  0  0  0  0  0  0
  -26.0031  -18.6543   22.2020 C   0  0  0  0  0  0  0  0  0  0  0  0
  -27.8027  -23.6094   19.8483 C   0  0  0  0  0  0  0  0  0  0  0  0
  -27.8154   -9.2414   21.3673 C   0  0  0  0  0  0  0  0  0  0  0  0
  -25.9045  -17.1962   22.4136 C   0  0  0  0  0  0  0  0  0  0  0  0
  -25.6295  -32.2738   21.4990 C   0  0  0  0  0  0  0  0  0  0  0  0
  -23.9819  -30.7299   23.8280 C   0  0  0  0  0  0  0  0  0  0  0  0
  -23.0932  -27.7676   25.2708 C   0  0  0  0  0  0  0  0  0  0  0  0
  -25.5497  -36.9412   23.5646 C   0  0  0  0  0  0  0  0  0  0  0  0
  -24.3296  -30.5804   20.1578 C   0  0  0  0  0  0  0  0  0  0  0  0
  -25.6332  -29.3508   22.5101 C   0  0  0  0  0  0  0  0  0  0  0  0
  -25.8280  -35.5280   24.0704 C   0  0  0  0  0  0  0  0  0  0  0  0
  -27.2463  -16.0678   19.1952 C   0  0  0  0  0  0  0  0  0  0  0  0
  -26.8128  -34.8154   23.1489 C   0  0  0  0  0  0  0  0  0  0  0  0
  -27.1021  -14.5543   19.3313 C   0  0  0  0  0  0  0  0  0  0  0  0
  -26.1144  -16.8155   19.8982 C   0  0  0  0  0  0  0  0  0  0  0  0
  -25.8056  -14.9228   21.4676 C   0  0  0  0  0  0  0  0  0  0  0  0
  -26.2404  -34.6743   21.7332 C   0  0  1  0  0  0  0  0  0  0  0  0
  -24.4642  -31.3254   21.4823 C   0  0  1  0  0  0  0  0  0  0  0  0
  -26.9594  -14.1517   20.8077 C   0  0  1  0  0  0  0  0  0  0  0  0
  -28.3590  -23.2470   17.4762 C   0  0  0  0  0  0  0  0  0  0  0  0
  -21.7680  -26.8271   27.1831 C   0  0  0  0  0  0  0  0  0  0  0  0
  -26.2007  -31.5385   25.7601 C   0  0  0  0  0  0  0  0  0  0  0  0
  -25.3378  -29.8182   27.3614 C   0  0  0  0  0  0  0  0  0  0  0  0
  -23.8867  -31.7325   26.6888 C   0  0  0  0  0  0  0  0  0  0  0  0
  -21.2910  -26.2897   23.4468 C   0  0  0  0  0  0  0  0  0  0  0  0
  -27.9477  -25.5734   18.3435 C   0  0  0  0  0  0  0  0  0  1  0  0
  -28.5260  -24.1959   18.6566 C   0  0  1  0  0  0  0  0  0  0  0  0
  -24.3563  -29.8884   25.0241 C   0  0  1  0  0  0  0  0  0  0  0  0
  -21.7459  -27.2283   25.7163 C   0  0  2  0  0  0  0  0  0  0  0  0
  -24.9531  -30.7370   26.1822 C   0  0  0  0  0  0  0  0  0  0  0  0
  -25.5659  -12.1261   21.0029 N   0  0  0  0  0  0  0  0  0  0  0  0
  -28.4505  -23.3092   20.9266 N   0  0  0  0  0  0  0  0  0  0  0  0
  -26.8027  -12.6509   20.9702 N   0  0  0  0  0  0  0  0  0  0  0  0
  -25.9597  -16.3712   21.2916 N   0  0  0  0  0  0  0  0  0  0  0  0
  -24.6312  -30.4235   22.6237 N   0  0  0  0  0  0  0  0  0  0  0  0
  -25.3700  -21.2005   25.1114 N   0  0  0  0  0  0  0  0  0  0  0  0
  -29.0994  -12.0822   21.0794 N   0  0  0  0  0  0  0  0  0  0  0  0
  -27.0183   -8.0939   21.4778 N   0  0  0  0  0  0  0  0  0  0  0  0
  -25.2757  -33.5968   21.6832 N   0  0  0  0  0  0  0  0  0  0  0  0
  -23.1580  -29.1399   25.3878 N   0  0  0  0  0  0  0  0  0  0  0  0
  -21.3732  -26.0332   24.9077 N   0  3  0  0  0  0  0  0  0  0  0  0
  -29.0636   -9.1295   21.4219 O   0  0  0  0  0  0  0  0  0  0  0  0
  -25.7741  -16.7972   23.5723 O   0  0  0  0  0  0  0  0  0  0  0  0
  -26.7657  -31.8373   21.3569 O   0  0  0  0  0  0  0  0  0  0  0  0
  -23.1389  -31.6213   23.9557 O   0  0  0  0  0  0  0  0  0  0  0  0
  -23.9988  -27.0434   24.8635 O   0  0  0  0  0  0  0  0  0  0  0  0
  -21.5140   -7.2348   21.4579 O   0  0  0  0  0  0  0  0  0  0  0  0
  -28.1170  -26.4229   19.4776 O   0  0  0  0  0  0  0  0  0  1  0  0
  -21.7023   -3.3415   25.3580 F   0  0  0  0  0  0  0  0  0  0  0  0
  -19.5516   -7.0752   23.3985 F   0  0  0  0  0  0  0  0  0  0  0  0
  1  2  1  0  0  0  0
  1  5  2  0  0  0  0
  2  6  2  0  0  0  0
  3 10  2  0  0  0  0
  3 18  1  0  0  0  0
  4 11  1  0  0  0  0
  4 18  2  0  0  0  0
  5 21  1  0  0  0  0
  6 23  1  0  0  0  0
  7 12  2  0  0  0  0
  7 22  1  0  0  0  0
  8  9  2  0  0  0  0
  8 25  1  0  0  0  0
  9 26  1  0  0  0  0
 10 27  1  0  0  0  0
 11 27  2  0  0  0  0
 12 28  1  0  0  0  0
 13 14  2  0  0  0  0
 13 29  1  0  0  0  0
 14 30  1  0  0  0  0
 15 19  1  0  0  0  0
 15 25  2  0  0  0  0
 16 24  1  0  0  0  0
 16 28  2  0  0  0  0
 17 30  2  0  0  0  0
 17 31  1  0  0  0  0
 18 32  1  0  0  0  0
 19 26  2  0  0  0  0
 19 34  1  0  0  0  0
 20 32  1  0  0  0  0
 20 33  2  0  0  0  0
 20 37  1  0  0  0  0
 21 23  2  0  0  0  0
 21 42  1  0  0  0  0
 22 24  2  0  0  0  0
 22 43  1  0  0  0  0
 23 51  1  0  0  0  0
 24 44  1  0  0  0  0
 25 66  1  0  0  0  0
 26 70  1  0  0  0  0
 27 81  1  0  0  0  0
 28 82  1  0  0  0  0
 29 31  2  0  0  0  0
 29 81  1  0  0  0  0
 30 83  1  0  0  0  0
 31 84  1  0  0  0  0
 32 65  2  0  0  0  0
 33 67  1  0  0  0  0
 33 71  1  0  0  0  0
 34 35  2  0  0  0  0
 35 38  1  0  0  0  0
 36 61  1  0  0  0  0
 36 66  2  0  0  0  0
 37 72  1  0  0  0  0
 37 76  2  0  0  0  0
 38 68  1  0  0  0  0
 38 77  2  0  0  0  0
 39 52  1  0  0  0  0
 39 73  1  0  0  0  0
 39 78  2  0  0  0  0
 40 62  1  0  0  0  0
 40 69  1  0  0  0  0
 40 79  2  0  0  0  0
 41 63  1  0  0  0  0
 41 74  1  0  0  0  0
 41 80  2  0  0  0  0
 42 45  1  0  0  0  0
 43 52  1  0  0  0  0
 44 69  1  0  0  0  0
 45 47  1  0  0  0  0
 46 48  1  0  0  0  0
 46 49  1  0  0  0  0
 47 51  1  0  0  0  0
 48 53  1  0  0  0  0
 49 68  1  0  0  0  0
 50 53  1  0  0  0  0
 50 68  1  0  0  0  0
 51 73  1  0  0  0  0
 52 69  1  0  0  0  0
 53 67  1  0  0  0  0
 54 61  1  0  0  0  0
 55 63  1  0  0  0  0
 56 64  1  0  0  0  0
 57 64  1  0  0  0  0
 58 64  1  0  0  0  0
 59 75  1  0  0  0  0
 60 61  1  0  0  0  0
 60 82  1  0  0  0  0
 62 64  1  0  0  0  0
 62 74  1  0  0  0  0
 63 75  1  0  0  0  0
 65 67  1  0  0  0  0
M  CHG  1  75   1
M  ISO  4  35 100  38 100  60 101  82 101
M  END
> <Batch ID>
0162

> <Smiles>
CNC(C)C(=O)NC(C(=O)N1Cc2cc([101O:1][101CH2:1]C(C)=CNc3ccc(N)c(C=[100CH:0][100C:0](=O)N4CCCC(n5nc(-c6ccc(Oc7ccc(F)cc7F)cc6)c(C(N)=O)c5N)C4)c3)ccc2CC1C(=O)NC1CCCc2ccccc21)C(C)(C)C

> <Shape>
0.257

> <Color>
0.122

> <Negative vol penalty>
0.000

$$$$

  -OEChem-04052303563D

 87 95  0     1  0  0  0  0  0999 V2000
  -27.5680  -35.8116   22.2827 C   0  0  0  0  0  0  0  0  0  0  0  0
  -27.8781  -34.4560   22.2437 C   0  0  0  0  0  0  0  0  0  0  0  0
  -23.7330   -9.9218   22.8296 C   0  0  0  0  0  0  0  0  0  0  0  0
  -23.7863  -10.1507   20.4251 C   0  0  0  0  0  0  0  0  0  0  0  0
  -26.3014  -36.2242   22.6942 C   0  0  0  0  0  0  0  0  0  0  0  0
  -26.9221  -33.5122   22.6173 C   0  0  0  0  0  0  0  0  0  0  0  0
  -26.6946  -29.6018   19.4077 C   0  0  0  0  0  0  0  0  0  0  0  0
  -22.8630   -8.8385   22.7073 C   0  0  0  0  0  0  0  0  0  0  0  0
  -22.9163   -9.0672   20.3027 C   0  0  0  0  0  0  0  0  0  0  0  0
  -27.6874  -28.6291   19.5178 C   0  0  0  0  0  0  0  0  0  0  0  0
  -23.0711   -5.5500   21.9488 C   0  0  0  0  0  0  0  0  0  0  0  0
  -23.3311   -4.4192   22.7229 C   0  0  0  0  0  0  0  0  0  0  0  0
  -26.1658  -27.2247   20.7553 C   0  0  0  0  0  0  0  0  0  0  0  0
  -21.1746   -4.6519   23.7871 C   0  0  0  0  0  0  0  0  0  0  0  0
  -29.7047  -17.8571   18.9327 C   0  0  0  0  0  0  0  0  0  0  0  0
  -24.1946  -10.5780   21.6885 C   0  0  0  0  0  0  0  0  0  0  0  0
  -30.8208  -19.9558   18.5662 C   0  0  0  0  0  0  0  0  0  0  0  0
  -26.4998  -11.6597   21.8417 C   0  0  0  0  0  0  0  0  0  0  0  0
  -25.3262  -35.2845   23.0638 C   0  0  0  0  0  0  0  0  0  0  0  0
  -25.4313  -29.3974   19.9810 C   0  0  0  0  0  0  0  0  0  0  0  0
  -25.6417  -33.9126   23.0355 C   0  0  0  0  0  0  0  0  0  0  0  0
  -25.1579  -28.1952   20.6489 C   0  0  0  0  0  0  0  0  0  0  0  0
  -22.4547   -8.4111   21.4438 C   0  0  0  0  0  0  0  0  0  0  0  0
  -27.4240  -27.4416   20.1941 C   0  0  0  0  0  0  0  0  0  0  0  0
  -21.8629   -6.2318   22.0939 C   0  0  0  0  0  0  0  0  0  0  0  0
  -22.3828   -3.9701   23.6420 C   0  0  0  0  0  0  0  0  0  0  0  0
  -20.9146   -5.7827   23.0130 C   0  0  0  0  0  0  0  0  0  0  0  0
  -30.8012  -18.5696   18.4599 C   0  0  0  0  0  0  0  0  0  0  0  0
  -25.0929  -11.6976   21.8143 C   0  0  0  0  0  0  0  0  0  0  0  0
  -28.6617  -18.5723   19.4988 C   0  0  0  0  0  0  0  0  0  0  0  0
  -29.7278  -20.5770   19.1485 C   0  0  0  0  0  0  0  0  0  0  0  0
  -26.8762  -12.9739   21.9743 C   0  0  0  0  0  0  0  0  0  0  0  0
  -31.9716  -20.6972   18.0691 C   0  0  0  0  0  0  0  0  0  0  0  0
  -27.3873  -10.5369   21.7550 C   0  0  0  0  0  0  0  0  0  0  0  0
  -23.7292  -30.8538   22.2361 C   0  0  0  0  0  0  0  0  0  0  0  0
  -29.0093  -24.2020   19.8012 C   0  0  0  0  0  0  0  0  0  0  0  0
  -21.4329  -28.7588   21.3087 C   0  0  0  0  0  0  0  0  0  0  0  0
  -20.6527  -25.7741   19.8493 C   0  0  0  0  0  0  0  0  0  0  0  0
  -26.3967  -18.3425   20.5774 C   0  0  0  0  0  0  0  0  0  0  0  0
  -23.9863  -35.7806   23.5470 C   0  0  0  0  0  0  0  0  0  0  0  0
  -24.3627  -30.4452   19.8304 C   0  0  0  0  0  0  0  0  0  0  0  0
  -23.8115  -27.9185   21.2645 C   0  0  0  0  0  0  0  0  0  0  0  0
  -22.9084  -34.6999   23.5685 C   0  0  0  0  0  0  0  0  0  0  0  0
  -24.1330  -17.0958   23.0265 C   0  0  0  0  0  0  0  0  0  0  0  0
  -23.4444  -33.4239   24.2098 C   0  0  0  0  0  0  0  0  0  0  0  0
  -24.2966  -15.5771   22.9317 C   0  0  0  0  0  0  0  0  0  0  0  0
  -24.2344  -17.7637   21.6564 C   0  0  0  0  0  0  0  0  0  0  0  0
  -25.6024  -15.9057   20.7931 C   0  0  0  0  0  0  0  0  0  0  0  0
  -24.6234  -32.8574   23.4095 C   0  0  1  0  0  0  0  0  0  0  0  0
  -23.2756  -30.3475   20.8962 C   0  0  1  0  0  0  0  0  0  0  0  0
  -25.5726  -15.1951   22.1561 C   0  0  2  0  0  0  0  0  0  0  0  0
  -32.9784  -21.8357   16.0189 C   0  0  0  0  0  0  0  0  0  0  0  0
  -18.6933  -24.3178   19.2687 C   0  0  0  0  0  0  0  0  0  0  0  0
  -21.1923  -27.9211   24.2328 C   0  0  0  0  0  0  0  0  0  0  0  0
  -19.9665  -25.8745   23.4732 C   0  0  0  0  0  0  0  0  0  0  0  0
  -19.0122  -28.1355   23.0263 C   0  0  0  0  0  0  0  0  0  0  0  0
  -21.2625  -25.9077   16.9563 C   0  0  0  0  0  0  0  0  0  0  0  0
  -32.3324  -20.5796   16.5824 C   0  0  0  0  0  0  0  0  0  0  0  0
  -28.6683  -22.7274   19.8406 C   0  0  0  0  0  0  0  0  0  0  0  0
  -27.9613  -25.1323   20.3802 C   0  0  0  0  0  0  0  0  0  1  0  0
  -21.0322  -27.3619   21.7173 C   0  0  1  0  0  0  0  0  0  0  0  0
  -19.6346  -25.4094   18.7840 C   0  0  2  0  0  0  0  0  0  0  0  0
  -20.3269  -27.3289   23.1026 C   0  0  0  0  0  0  0  0  0  0  0  0
  -24.6083  -12.9376   21.9211 N   0  0  0  0  0  0  0  0  0  0  0  0
  -28.6449  -19.9187   19.6193 N   0  0  0  0  0  0  0  0  0  0  0  0
  -25.7169  -13.6912   22.0169 N   0  0  0  0  0  0  0  0  0  0  0  0
  -22.8016  -28.9765   21.0959 N   0  0  0  0  0  0  0  0  0  0  0  0
  -25.4698  -17.3588   20.9821 N   0  0  0  0  0  0  0  0  0  0  0  0
  -28.0824  -13.5745   22.0575 N   0  0  0  0  0  0  0  0  0  0  0  0
  -26.8335   -9.2563   21.6216 N   0  0  0  0  0  0  0  0  0  0  0  0
  -27.5487  -17.8366   19.9762 N   0  0  0  0  0  0  0  0  0  0  0  0
  -29.7389  -21.9603   19.2572 N   0  0  0  0  0  0  0  0  0  0  0  0
  -24.1484  -32.1705   22.2275 N   0  0  0  0  0  0  0  0  0  0  0  0
  -20.2253  -26.8322   20.6233 N   0  0  0  0  0  0  0  0  0  0  0  0
  -20.3227  -24.9247   17.5541 N   0  3  0  0  0  0  0  0  0  0  0  0
  -32.6732  -21.4190   18.7960 O   0  0  0  0  0  0  0  0  0  0  0  0
  -28.6340  -10.6638   21.8112 O   0  0  0  0  0  0  0  0  0  0  0  0
  -23.6998  -30.1057   23.2063 O   0  0  0  0  0  0  0  0  0  0  0  0
  -30.0639  -24.6286   19.3324 O   0  0  0  0  0  0  0  0  0  0  0  0
  -20.5629  -29.6231   21.1760 O   0  0  0  0  0  0  0  0  0  0  0  0
  -21.7188  -25.1775   19.9839 O   0  0  0  0  0  0  0  0  0  0  0  0
  -26.1966  -19.5436   20.7760 O   0  0  0  0  0  0  0  0  0  0  0  0
  -21.6059   -7.3538   21.3240 O   0  0  0  0  0  0  0  0  0  0  0  0
  -28.3914  -26.4908   20.3036 O   0  0  0  0  0  0  0  0  0  1  0  0
  -22.6320   -2.8833   24.3843 F   0  0  0  0  0  0  0  0  0  0  0  0
  -19.7516   -6.4329   23.1559 F   0  0  0  0  0  0  0  0  0  0  0  0
  -31.8296  -17.9114   17.9066 F   0  0  0  0  0  0  0  0  0  0  0  0
  1  2  1  0  0  0  0
  1  5  2  0  0  0  0
  2  6  2  0  0  0  0
  3  8  2  0  0  0  0
  3 16  1  0  0  0  0
  4  9  1  0  0  0  0
  4 16  2  0  0  0  0
  5 19  1  0  0  0  0
  6 21  1  0  0  0  0
  7 10  2  0  0  0  0
  7 20  1  0  0  0  0
  8 23  1  0  0  0  0
  9 23  2  0  0  0  0
 10 24  1  0  0  0  0
 11 12  2  0  0  0  0
 11 25  1  0  0  0  0
 12 26  1  0  0  0  0
 13 22  1  0  0  0  0
 13 24  2  0  0  0  0
 14 26  2  0  0  0  0
 14 27  1  0  0  0  0
 15 28  2  0  0  0  0
 15 30  1  0  0  0  0
 16 29  1  0  0  0  0
 17 28  1  0  0  0  0
 17 31  2  0  0  0  0
 17 33  1  0  0  0  0
 18 29  1  0  0  0  0
 18 32  2  0  0  0  0
 18 34  1  0  0  0  0
 19 21  2  0  0  0  0
 19 40  1  0  0  0  0
 20 22  2  0  0  0  0
 20 41  1  0  0  0  0
 21 49  1  0  0  0  0
 22 42  1  0  0  0  0
 23 83  1  0  0  0  0
 24 84  1  0  0  0  0
 25 27  2  0  0  0  0
 25 83  1  0  0  0  0
 26 85  1  0  0  0  0
 27 86  1  0  0  0  0
 28 87  1  0  0  0  0
 29 64  2  0  0  0  0
 30 65  2  0  0  0  0
 30 71  1  0  0  0  0
 31 65  1  0  0  0  0
 31 72  1  0  0  0  0
 32 66  1  0  0  0  0
 32 69  1  0  0  0  0
 33 58  1  0  0  0  0
 33 76  2  0  0  0  0
 34 70  1  0  0  0  0
 34 77  2  0  0  0  0
 35 50  1  0  0  0  0
 35 73  1  0  0  0  0
 35 78  2  0  0  0  0
 36 59  1  0  0  0  0
 36 60  1  0  0  0  0
 36 79  2  0  0  0  0
 37 61  1  0  0  0  0
 37 67  1  0  0  0  0
 37 80  2  0  0  0  0
 38 62  1  0  0  0  0
 38 74  1  0  0  0  0
 38 81  2  0  0  0  0
 39 68  1  0  0  0  0
 39 71  1  0  0  0  0
 39 82  2  0  0  0  0
 40 43  1  0  0  0  0
 41 50  1  0  0  0  0
 42 67  1  0  0  0  0
 43 45  1  0  0  0  0
 44 46  1  0  0  0  0
 44 47  1  0  0  0  0
 45 49  1  0  0  0  0
 46 51  1  0  0  0  0
 47 68  1  0  0  0  0
 48 51  1  0  0  0  0
 48 68  1  0  0  0  0
 49 73  1  0  0  0  0
 50 67  1  0  0  0  0
 51 66  1  0  0  0  0
 52 58  1  0  0  0  0
 53 62  1  0  0  0  0
 54 63  1  0  0  0  0
 55 63  1  0  0  0  0
 56 63  1  0  0  0  0
 57 75  1  0  0  0  0
 59 72  1  0  0  0  0
 60 84  1  0  0  0  0
 61 63  1  0  0  0  0
 61 74  1  0  0  0  0
 62 75  1  0  0  0  0
 64 66  1  0  0  0  0
M  CHG  1  75   1
M  ISO  4  39 100  60 101  71 100  84 101
M  END
> <Batch ID>
0162

> <Smiles>
CCC(=O)c1c(F)cc([100NH:0][100C:0](=O)N2CCCC(n3nc(-c4ccc(Oc5ccc(F)cc5F)cc4)c(C(N)=O)c3N)C2)nc1NCC(=O)[101CH2:1][101O:1]c1ccc2c(c1)CN(C(=O)C(NC(=O)C(C)NC)C(C)(C)C)C(C(=O)NC1CCCc3ccccc31)C2

> <Shape>
0.309

> <Color>
0.096

> <Negative vol penalty>
0.000

$$$$

  -OEChem-04052303563D

 89 97  0     1  0  0  0  0  0999 V2000
  -30.6613  -28.8762   13.5593 C   0  0  0  0  0  0  0  0  0  0  0  0
  -29.4728  -28.2555   13.9302 C   0  0  0  0  0  0  0  0  0  0  0  0
  -27.6439   -9.9713   21.4614 C   0  0  0  0  0  0  0  0  0  0  0  0
  -25.9598  -11.4409   20.5443 C   0  0  0  0  0  0  0  0  0  0  0  0
  -31.6698  -29.0687   14.5026 C   0  0  0  0  0  0  0  0  0  0  0  0
  -29.2925  -27.8258   15.2444 C   0  0  0  0  0  0  0  0  0  0  0  0
  -24.0578  -27.7964   18.4228 C   0  0  0  0  0  0  0  0  0  0  0  0
  -26.6503   -9.2357   22.1073 C   0  0  0  0  0  0  0  0  0  0  0  0
  -24.9661  -10.7053   21.1901 C   0  0  0  0  0  0  0  0  0  0  0  0
  -23.1318  -26.7905   18.6958 C   0  0  0  0  0  0  0  0  0  0  0  0
  -23.3209   -7.7917   20.7162 C   0  0  0  0  0  0  0  0  0  0  0  0
  -22.1804   -7.4631   19.9836 C   0  0  0  0  0  0  0  0  0  0  0  0
  -24.2091  -26.3825   20.8153 C   0  0  0  0  0  0  0  0  0  0  0  0
  -27.5264  -19.4429   19.2681 C   0  0  0  0  0  0  0  0  0  0  0  0
  -27.7064  -21.8304   19.0402 C   0  0  0  0  0  0  0  0  0  0  0  0
  -20.8141   -8.6692   21.5698 C   0  0  0  0  0  0  0  0  0  0  0  0
  -27.2987  -11.0740   20.6799 C   0  0  0  0  0  0  0  0  0  0  0  0
  -28.8391  -11.6178   18.7206 C   0  0  0  0  0  0  0  0  0  0  0  0
  -31.4980  -28.6498   15.8314 C   0  0  0  0  0  0  0  0  0  0  0  0
  -25.0747  -28.0960   19.3408 C   0  0  0  0  0  0  0  0  0  0  0  0
  -30.3002  -28.0116   16.2061 C   0  0  0  0  0  0  0  0  0  0  0  0
  -25.1451  -27.3944   20.5527 C   0  0  0  0  0  0  0  0  0  0  0  0
  -26.9964  -20.6528   18.8340 C   0  0  0  0  0  0  0  0  0  0  0  0
  -25.3114   -9.6026   21.9716 C   0  0  0  0  0  0  0  0  0  0  0  0
  -23.2091  -26.0814   19.8909 C   0  0  0  0  0  0  0  0  0  0  0  0
  -23.2081   -8.5589   21.8757 C   0  0  0  0  0  0  0  0  0  0  0  0
  -20.9270   -7.9019   20.4104 C   0  0  0  0  0  0  0  0  0  0  0  0
  -21.9547   -8.9977   22.3024 C   0  0  0  0  0  0  0  0  0  0  0  0
  -28.3247  -11.8346   20.0130 C   0  0  0  0  0  0  0  0  0  0  0  0
  -28.7604  -19.4641   19.8980 C   0  0  0  0  0  0  0  0  0  0  0  0
  -28.9322  -21.7448   19.6805 C   0  0  0  0  0  0  0  0  0  0  0  0
  -29.7843  -12.6009   18.5579 C   0  0  0  0  0  0  0  0  0  0  0  0
  -23.7027  -21.9436   19.0547 C   0  0  0  0  0  0  0  0  0  0  0  0
  -28.4932  -10.6174   17.7535 C   0  0  0  0  0  0  0  0  0  0  0  0
  -24.5029  -20.8661   19.0983 C   0  0  0  0  0  0  0  0  0  0  0  0
  -22.5498  -22.1614   19.9859 C   0  0  0  0  0  0  0  0  0  0  0  0
  -28.2512  -27.9970   19.2809 C   0  0  0  0  0  0  0  0  0  0  0  0
  -27.9612  -29.3964   22.1929 C   0  0  0  0  0  0  0  0  0  0  0  0
  -26.0443  -29.9557   24.9605 C   0  0  0  0  0  0  0  0  0  0  0  0
  -30.5065  -18.0119   20.9880 C   0  0  0  0  0  0  0  0  0  0  0  0
  -32.6351  -28.8370   16.8043 C   0  0  0  0  0  0  0  0  0  0  0  0
  -26.0495  -29.2021   19.0431 C   0  0  0  0  0  0  0  0  0  0  0  0
  -26.2054  -27.6912   21.5804 C   0  0  0  0  0  0  0  0  0  0  0  0
  -32.2173  -28.6895   18.2651 C   0  0  0  0  0  0  0  0  0  0  0  0
  -32.8320  -15.3167   21.0621 C   0  0  0  0  0  0  0  0  0  0  0  0
  -31.3481  -27.4496   18.4493 C   0  0  0  0  0  0  0  0  0  0  0  0
  -31.9881  -14.0991   20.6779 C   0  0  0  0  0  0  0  0  0  0  0  0
  -32.0461  -16.3016   21.9259 C   0  0  0  0  0  0  0  0  0  0  0  0
  -29.9130  -15.5092   20.9820 C   0  0  0  0  0  0  0  0  0  0  0  0
  -30.0573  -27.5539   17.6279 C   0  0  1  0  0  0  0  0  0  0  0  0
  -27.3546  -29.0741   19.8227 C   0  0  1  0  0  0  0  0  0  0  0  0
  -30.6414  -14.5199   20.0577 C   0  0  2  0  0  0  0  0  0  0  0  0
  -26.0923  -31.1059   27.1903 C   0  0  0  0  0  0  0  0  0  0  0  0
  -20.2725  -23.0589   20.5701 C   0  0  0  0  0  0  0  0  0  0  0  0
  -20.7222  -22.2374   18.2576 C   0  0  0  0  0  0  0  0  0  0  0  0
  -29.7335  -27.1726   23.2992 C   0  0  0  0  0  0  0  0  0  0  0  0
  -28.9759  -27.8083   25.5992 C   0  0  0  0  0  0  0  0  0  0  0  0
  -30.2315  -29.4506   24.2032 C   0  0  0  0  0  0  0  0  0  0  0  0
  -30.9143  -22.9991   20.5311 C   0  0  0  0  0  0  0  0  0  0  0  0
  -23.7658  -31.7012   24.2392 C   0  0  0  0  0  0  0  0  0  0  0  0
  -25.6552  -20.6878   18.1415 C   0  0  0  0  0  0  0  0  0  0  0  0
  -21.7652  -24.3917   19.0447 C   0  0  0  0  0  0  0  0  0  1  0  0
  -27.8367  -28.8961   23.6118 C   0  0  1  0  0  0  0  0  0  0  0  0
  -25.7204  -31.2290   25.7209 C   0  0  2  0  0  0  0  0  0  0  0  0
  -21.3398  -22.9694   19.4598 C   0  0  0  0  0  0  0  0  0  0  0  0
  -29.1755  -28.3248   24.1583 C   0  0  0  0  0  0  0  0  0  0  0  0
  -28.8960  -12.8737   20.6277 N   0  0  0  0  0  0  0  0  0  0  0  0
  -29.4795  -20.5879   20.1162 N   0  0  0  0  0  0  0  0  0  0  0  0
  -29.7792  -13.3186   19.7177 N   0  0  0  0  0  0  0  0  0  0  0  0
  -27.1393  -28.7774   21.2404 N   0  0  0  0  0  0  0  0  0  0  0  0
  -30.7846  -16.6583   21.2730 N   0  0  0  0  0  0  0  0  0  0  0  0
  -30.6112  -12.9128   17.5374 N   0  0  0  0  0  0  0  0  0  0  0  0
  -27.5006   -9.6844   18.0831 N   0  0  0  0  0  0  0  0  0  0  0  0
  -29.2923  -18.2262   20.3367 N   0  0  0  0  0  0  0  0  0  0  0  0
  -29.6440  -22.9532   19.8836 N   0  0  0  0  0  0  0  0  0  0  0  0
  -29.1086  -28.4264   18.2860 N   0  0  0  0  0  0  0  0  0  0  0  0
  -27.2988  -30.0064   24.3904 N   0  0  0  0  0  0  0  0  0  0  0  0
  -24.2640  -31.5312   25.6284 N   0  3  0  0  0  0  0  0  0  0  0  0
  -29.0595  -10.5426   16.6367 O   0  0  0  0  0  0  0  0  0  0  0  0
  -22.5698  -21.6998   21.1266 O   0  0  0  0  0  0  0  0  0  0  0  0
  -28.1720  -26.8608   19.7330 O   0  0  0  0  0  0  0  0  0  0  0  0
  -28.7531  -30.3078   21.9403 O   0  0  0  0  0  0  0  0  0  0  0  0
  -25.2642  -29.0091   24.8834 O   0  0  0  0  0  0  0  0  0  0  0  0
  -31.3003  -18.9117   21.2745 O   0  0  0  0  0  0  0  0  0  0  0  0
  -24.3081  -19.8431   20.0060 O   0  0  0  0  0  0  0  0  0  0  0  0
  -24.3415   -8.8849   22.6015 O   0  0  0  0  0  0  0  0  0  0  0  0
  -22.3070  -25.0986   20.1596 O   0  0  0  0  0  0  0  0  0  1  0  0
  -19.8319   -7.5877   19.7059 F   0  0  0  0  0  0  0  0  0  0  0  0
  -21.8402   -9.7361   23.4149 F   0  0  0  0  0  0  0  0  0  0  0  0
  1  2  1  0  0  0  0
  1  5  2  0  0  0  0
  2  6  2  0  0  0  0
  3  8  2  0  0  0  0
  3 17  1  0  0  0  0
  4  9  1  0  0  0  0
  4 17  2  0  0  0  0
  5 19  1  0  0  0  0
  6 21  1  0  0  0  0
  7 10  2  0  0  0  0
  7 20  1  0  0  0  0
  8 24  1  0  0  0  0
  9 24  2  0  0  0  0
 10 25  1  0  0  0  0
 11 12  2  0  0  0  0
 11 26  1  0  0  0  0
 12 27  1  0  0  0  0
 13 22  1  0  0  0  0
 13 25  2  0  0  0  0
 14 23  1  0  0  0  0
 14 30  2  0  0  0  0
 15 23  2  0  0  0  0
 15 31  1  0  0  0  0
 16 27  2  0  0  0  0
 16 28  1  0  0  0  0
 17 29  1  0  0  0  0
 18 29  1  0  0  0  0
 18 32  2  0  0  0  0
 18 34  1  0  0  0  0
 19 21  2  0  0  0  0
 19 41  1  0  0  0  0
 20 22  2  0  0  0  0
 20 42  1  0  0  0  0
 21 50  1  0  0  0  0
 22 43  1  0  0  0  0
 23 61  1  0  0  0  0
 24 86  1  0  0  0  0
 25 87  1  0  0  0  0
 26 28  2  0  0  0  0
 26 86  1  0  0  0  0
 27 88  1  0  0  0  0
 28 89  1  0  0  0  0
 29 67  2  0  0  0  0
 30 68  1  0  0  0  0
 30 74  1  0  0  0  0
 31 68  2  0  0  0  0
 31 75  1  0  0  0  0
 32 69  1  0  0  0  0
 32 72  1  0  0  0  0
 33 35  2  0  0  0  0
 33 36  1  0  0  0  0
 34 73  1  0  0  0  0
 34 79  2  0  0  0  0
 35 61  1  0  0  0  0
 35 85  1  0  0  0  0
 36 65  1  0  0  0  0
 36 80  2  0  0  0  0
 37 51  1  0  0  0  0
 37 76  1  0  0  0  0
 37 81  2  0  0  0  0
 38 63  1  0  0  0  0
 38 70  1  0  0  0  0
 38 82  2  0  0  0  0
 39 64  1  0  0  0  0
 39 77  1  0  0  0  0
 39 83  2  0  0  0  0
 40 71  1  0  0  0  0
 40 74  1  0  0  0  0
 40 84  2  0  0  0  0
 41 44  1  0  0  0  0
 42 51  1  0  0  0  0
 43 70  1  0  0  0  0
 44 46  1  0  0  0  0
 45 47  1  0  0  0  0
 45 48  1  0  0  0  0
 46 50  1  0  0  0  0
 47 52  1  0  0  0  0
 48 71  1  0  0  0  0
 49 52  1  0  0  0  0
 49 71  1  0  0  0  0
 50 76  1  0  0  0  0
 51 70  1  0  0  0  0
 52 69  1  0  0  0  0
 53 64  1  0  0  0  0
 54 65  1  0  0  0  0
 55 65  1  0  0  0  0
 56 66  1  0  0  0  0
 57 66  1  0  0  0  0
 58 66  1  0  0  0  0
 59 75  1  0  0  0  0
 60 78  1  0  0  0  0
 62 65  1  0  0  0  0
 62 87  1  0  0  0  0
 63 66  1  0  0  0  0
 63 77  1  0  0  0  0
 64 78  1  0  0  0  0
 67 69  1  0  0  0  0
M  CHG  1  78   1
M  ISO  4  40 100  62 101  74 100  87 101
M  END
> <Batch ID>
0162

> <Smiles>
CNc1cc(CC(=O)CC(=O)C(C)(C)[101CH2:1][101O:1]c2ccc3c(c2)CN(C(=O)C(NC(=O)C(C)NC)C(C)(C)C)C(C(=O)NC2CCCc4ccccc42)C3)cc([100NH:0][100C:0](=O)N2CCCC(n3nc(-c4ccc(Oc5ccc(F)cc5F)cc4)c(C(N)=O)c3N)C2)n1

> <Shape>
0.253

> <Color>
0.069

> <Negative vol penalty>
0.000

$$$$

  -OEChem-04052303563D

 84 92  0     1  0  0  0  0  0999 V2000
  -15.2629  -26.4229   25.1827 C   0  0  0  0  0  0  0  0  0  0  0  0
  -16.2495  -25.5274   24.7827 C   0  0  0  0  0  0  0  0  0  0  0  0
  -23.0259   -9.9122   20.1792 C   0  0  0  0  0  0  0  0  0  0  0  0
  -23.6914  -10.1865   22.4855 C   0  0  0  0  0  0  0  0  0  0  0  0
  -15.4240  -27.7874   24.9454 C   0  0  0  0  0  0  0  0  0  0  0  0
  -17.3973  -25.9957   24.1442 C   0  0  0  0  0  0  0  0  0  0  0  0
  -23.0681  -23.7371   24.6416 C   0  0  0  0  0  0  0  0  0  0  0  0
  -22.2439   -8.8136   20.5355 C   0  0  0  0  0  0  0  0  0  0  0  0
  -22.9093   -9.0879   22.8418 C   0  0  0  0  0  0  0  0  0  0  0  0
  -23.8073  -22.8722   23.8358 C   0  0  0  0  0  0  0  0  0  0  0  0
  -19.6403   -8.4342   23.3958 C   0  0  0  0  0  0  0  0  0  0  0  0
  -18.8354   -8.5537   24.5287 C   0  0  0  0  0  0  0  0  0  0  0  0
  -24.8513  -24.7676   22.7696 C   0  0  0  0  0  0  0  0  0  0  0  0
  -19.9969   -6.6975   25.5498 C   0  0  0  0  0  0  0  0  0  0  0  0
  -23.7497  -10.5987   21.1542 C   0  0  0  0  0  0  0  0  0  0  0  0
  -28.7341  -19.1150   23.8727 C   0  0  0  0  0  0  0  0  0  0  0  0
  -24.1590  -13.0826   20.7416 C   0  0  0  0  0  0  0  0  0  0  0  0
  -16.5787  -28.2736   24.3123 C   0  0  0  0  0  0  0  0  0  0  0  0
  -23.2071  -25.1262   24.5097 C   0  0  0  0  0  0  0  0  0  0  0  0
  -17.5733  -27.3677   23.8970 C   0  0  0  0  0  0  0  0  0  0  0  0
  -24.1146  -25.6479   23.5767 C   0  0  0  0  0  0  0  0  0  0  0  0
  -29.5734  -17.9957   23.6029 C   0  0  0  0  0  0  0  0  0  0  0  0
  -22.1856   -8.4014   21.8667 C   0  0  0  0  0  0  0  0  0  0  0  0
  -24.6969  -23.3874   22.8976 C   0  0  0  0  0  0  0  0  0  0  0  0
  -20.6236   -7.4463   23.3399 C   0  0  0  0  0  0  0  0  0  0  0  0
  -19.0137   -7.6854   25.6057 C   0  0  0  0  0  0  0  0  0  0  0  0
  -20.8019   -6.5780   24.4169 C   0  0  0  0  0  0  0  0  0  0  0  0
  -24.5581  -11.7334   20.7867 C   0  0  0  0  0  0  0  0  0  0  0  0
  -29.9789  -17.9582   22.2869 C   0  0  0  0  0  0  0  0  0  0  0  0
  -25.2835  -13.7600   20.3375 C   0  0  0  0  0  0  0  0  0  0  0  0
  -28.5302  -19.8906   22.7525 C   0  0  0  0  0  0  0  0  0  0  0  0
  -28.1513  -19.4310   25.1551 C   0  0  0  0  0  0  0  0  0  0  0  0
  -22.8857  -13.6711   21.0385 C   0  0  0  0  0  0  0  0  0  0  0  0
  -21.2610  -27.5098   23.7129 C   0  0  0  0  0  0  0  0  0  0  0  0
  -23.8140  -29.3440   24.5132 C   0  0  0  0  0  0  0  0  0  0  0  0
  -27.1948  -29.5894   24.9091 C   0  0  0  0  0  0  0  0  0  0  0  0
  -30.7786  -14.6860   20.6391 C   0  0  0  0  0  0  0  0  0  0  0  0
  -16.6865  -29.7522   24.0349 C   0  0  0  0  0  0  0  0  0  0  0  0
  -22.4222  -26.0453   25.4049 C   0  0  0  0  0  0  0  0  0  0  0  0
  -24.3157  -27.1312   23.4099 C   0  0  0  0  0  0  0  0  0  0  0  0
  -18.1025  -30.2052   23.6886 C   0  0  0  0  0  0  0  0  0  0  0  0
  -29.6805  -12.0487   18.5142 C   0  0  0  0  0  0  0  0  0  0  0  0
  -18.7292  -29.2633   22.6654 C   0  0  0  0  0  0  0  0  0  0  0  0
  -28.2196  -11.8390   18.9166 C   0  0  0  0  0  0  0  0  0  0  0  0
  -30.5529  -12.3976   19.7179 C   0  0  0  0  0  0  0  0  0  0  0  0
  -28.6149  -13.3312   20.9205 C   0  0  0  0  0  0  0  0  0  0  0  0
  -18.8438  -27.8397   23.2237 C   0  0  1  0  0  0  0  0  0  0  0  0
  -22.2648  -27.4494   24.8293 C   0  0  1  0  0  0  0  0  0  0  0  0
  -27.6857  -13.0322   19.7316 C   0  0  2  0  0  0  0  0  0  0  0  0
  -27.2299  -18.4161   25.7791 C   0  0  0  0  0  0  0  0  0  0  0  0
  -28.9911  -31.2257   25.5360 C   0  0  0  0  0  0  0  0  0  0  0  0
  -23.5728  -30.6564   21.7692 C   0  0  0  0  0  0  0  0  0  0  0  0
  -25.8896  -31.5556   22.0729 C   0  0  0  0  0  0  0  0  0  0  0  0
  -24.0735  -32.2372   23.6413 C   0  0  0  0  0  0  0  0  0  0  0  0
  -28.0313  -27.9581   27.2324 C   0  0  0  0  0  0  0  0  0  0  0  0
  -30.8475  -16.9708   21.6056 C   0  0  0  0  0  0  0  0  0  0  0  0
  -27.6081  -21.8025   21.4409 C   0  0  0  0  0  0  0  0  0  0  0  0
  -26.7021  -22.9989   21.6793 C   0  0  0  0  0  0  0  0  0  1  0  0
  -25.0101  -29.8926   23.7734 C   0  0  1  0  0  0  0  0  0  0  0  0
  -28.0384  -30.1521   26.0387 C   0  0  2  0  0  0  0  0  0  0  0  0
  -24.6315  -31.0575   22.8157 C   0  0  0  0  0  0  0  0  0  0  0  0
  -25.8363  -11.5618   20.4389 N   0  0  0  0  0  0  0  0  0  0  0  0
  -26.2500  -12.8122   20.1713 N   0  0  0  0  0  0  0  0  0  0  0  0
  -23.5206  -27.9890   24.3041 N   0  0  0  0  0  0  0  0  0  0  0  0
  -29.9924  -13.5380   20.4467 N   0  0  0  0  0  0  0  0  0  0  0  0
  -29.9336  -17.0718   24.5268 N   0  0  0  0  0  0  0  0  0  0  0  0
  -25.5298  -15.0679   20.1116 N   0  0  0  0  0  0  0  0  0  0  0  0
  -21.8385  -12.8305   21.4399 N   0  0  0  0  0  0  0  0  0  0  0  0
  -27.7707  -21.0452   22.6608 N   0  0  0  0  0  0  0  0  0  0  0  0
  -19.9653  -27.7423   24.1332 N   0  0  0  0  0  0  0  0  0  0  0  0
  -25.9908  -30.2513   24.7922 N   0  0  0  0  0  0  0  0  0  0  0  0
  -30.1689  -15.7231   21.3344 N   0  0  0  0  0  0  0  0  0  0  0  0
  -28.8427  -29.0698   26.6732 N   0  3  0  0  0  0  0  0  0  0  0  0
  -28.3416  -20.4771   25.7912 O   0  0  0  0  0  0  0  0  0  0  0  0
  -22.6781  -14.9038   20.9347 O   0  0  0  0  0  0  0  0  0  0  0  0
  -21.6346  -27.3582   22.5557 O   0  0  0  0  0  0  0  0  0  0  0  0
  -23.1681  -30.0884   25.2550 O   0  0  0  0  0  0  0  0  0  0  0  0
  -27.5681  -28.6584   24.1988 O   0  0  0  0  0  0  0  0  0  0  0  0
  -31.9362  -14.7819   20.2174 O   0  0  0  0  0  0  0  0  0  0  0  0
  -21.4224   -7.3295   22.2148 O   0  0  0  0  0  0  0  0  0  0  0  0
  -25.4192  -22.5455   22.1093 O   0  0  0  0  0  0  0  0  0  1  0  0
  -18.2416   -7.8012   26.6941 F   0  0  0  0  0  0  0  0  0  0  0  0
  -21.7456   -5.6278   24.3694 F   0  0  0  0  0  0  0  0  0  0  0  0
  -29.3485  -19.2687   21.3828 S   0  0  0  0  0  0  0  0  0  0  0  0
  1  2  1  0  0  0  0
  1  5  2  0  0  0  0
  2  6  2  0  0  0  0
  3  8  2  0  0  0  0
  3 15  1  0  0  0  0
  4  9  1  0  0  0  0
  4 15  2  0  0  0  0
  5 18  1  0  0  0  0
  6 20  1  0  0  0  0
  7 10  2  0  0  0  0
  7 19  1  0  0  0  0
  8 23  1  0  0  0  0
  9 23  2  0  0  0  0
 10 24  1  0  0  0  0
 11 12  2  0  0  0  0
 11 25  1  0  0  0  0
 12 26  1  0  0  0  0
 13 21  1  0  0  0  0
 13 24  2  0  0  0  0
 14 26  2  0  0  0  0
 14 27  1  0  0  0  0
 15 28  1  0  0  0  0
 16 22  1  0  0  0  0
 16 31  2  0  0  0  0
 16 32  1  0  0  0  0
 17 28  1  0  0  0  0
 17 30  2  0  0  0  0
 17 33  1  0  0  0  0
 18 20  2  0  0  0  0
 18 38  1  0  0  0  0
 19 21  2  0  0  0  0
 19 39  1  0  0  0  0
 20 47  1  0  0  0  0
 21 40  1  0  0  0  0
 22 29  2  0  0  0  0
 22 66  1  0  0  0  0
 23 80  1  0  0  0  0
 24 81  1  0  0  0  0
 25 27  2  0  0  0  0
 25 80  1  0  0  0  0
 26 82  1  0  0  0  0
 27 83  1  0  0  0  0
 28 62  2  0  0  0  0
 29 56  1  0  0  0  0
 29 84  1  0  0  0  0
 30 63  1  0  0  0  0
 30 67  1  0  0  0  0
 31 69  1  0  0  0  0
 31 84  1  0  0  0  0
 32 50  1  0  0  0  0
 32 74  2  0  0  0  0
 33 68  1  0  0  0  0
 33 75  2  0  0  0  0
 34 48  1  0  0  0  0
 34 70  1  0  0  0  0
 34 76  2  0  0  0  0
 35 59  1  0  0  0  0
 35 64  1  0  0  0  0
 35 77  2  0  0  0  0
 36 60  1  0  0  0  0
 36 71  1  0  0  0  0
 36 78  2  0  0  0  0
 37 65  1  0  0  0  0
 37 72  1  0  0  0  0
 37 79  2  0  0  0  0
 38 41  1  0  0  0  0
 39 48  1  0  0  0  0
 40 64  1  0  0  0  0
 41 43  1  0  0  0  0
 42 44  1  0  0  0  0
 42 45  1  0  0  0  0
 43 47  1  0  0  0  0
 44 49  1  0  0  0  0
 45 65  1  0  0  0  0
 46 49  1  0  0  0  0
 46 65  1  0  0  0  0
 47 70  1  0  0  0  0
 48 64  1  0  0  0  0
 49 63  1  0  0  0  0
 51 60  1  0  0  0  0
 52 61  1  0  0  0  0
 53 61  1  0  0  0  0
 54 61  1  0  0  0  0
 55 73  1  0  0  0  0
 56 72  1  0  0  0  0
 57 58  1  0  0  0  0
 57 69  1  0  0  0  0
 58 81  1  0  0  0  0
 59 61  1  0  0  0  0
 59 71  1  0  0  0  0
 60 73  1  0  0  0  0
 62 63  1  0  0  0  0
M  CHG  1  73   1
M  ISO  4  37 100  58 101  72 100  81 101
M  END
> <Batch ID>
0162

> <Smiles>
CNC(C)C(=O)NC(C(=O)N1Cc2cc([101O:1][101CH2:1]CNc3sc(C[100NH:0][100C:0](=O)N4CCCC(n5nc(-c6ccc(Oc7ccc(F)cc7F)cc6)c(C(N)=O)c5N)C4)c(N)c3C(C)=O)ccc2CC1C(=O)NC1CCCc2ccccc21)C(C)(C)C

> <Shape>
0.290

> <Color>
0.183

> <Negative vol penalty>
0.000

$$$$

  -OEChem-04052303563D

 85 93  0     1  0  0  0  0  0999 V2000
  -33.7629  -30.3438   19.6824 C   0  0  0  0  0  0  0  0  0  0  0  0
  -33.0122  -29.4270   20.4113 C   0  0  0  0  0  0  0  0  0  0  0  0
  -23.1166   -9.8708   19.8939 C   0  0  0  0  0  0  0  0  0  0  0  0
  -23.9199   -9.8023   22.1714 C   0  0  0  0  0  0  0  0  0  0  0  0
  -33.1762  -31.5289   19.2405 C   0  0  0  0  0  0  0  0  0  0  0  0
  -31.6745  -29.6952   20.6995 C   0  0  0  0  0  0  0  0  0  0  0  0
  -28.6778  -25.6880   19.9201 C   0  0  0  0  0  0  0  0  0  0  0  0
  -22.4143   -8.6845   20.1059 C   0  0  0  0  0  0  0  0  0  0  0  0
  -23.2176   -8.6160   22.3835 C   0  0  0  0  0  0  0  0  0  0  0  0
  -28.6807  -24.6916   20.8952 C   0  0  0  0  0  0  0  0  0  0  0  0
  -20.0284   -7.6888   23.0077 C   0  0  0  0  0  0  0  0  0  0  0  0
  -19.2958   -7.5734   24.1891 C   0  0  0  0  0  0  0  0  0  0  0  0
  -31.5281  -18.9472   22.6190 C   0  0  0  0  0  0  0  0  0  0  0  0
  -31.6167  -17.7603   21.8531 C   0  0  0  0  0  0  0  0  0  0  0  0
  -26.6308  -25.5824   21.8028 C   0  0  0  0  0  0  0  0  0  0  0  0
  -20.6115   -5.6468   24.8169 C   0  0  0  0  0  0  0  0  0  0  0  0
  -23.8695  -10.4297   20.9267 C   0  0  0  0  0  0  0  0  0  0  0  0
  -24.1293  -12.9675   20.9123 C   0  0  0  0  0  0  0  0  0  0  0  0
  -31.8281  -31.8074   19.5152 C   0  0  0  0  0  0  0  0  0  0  0  0
  -27.6556  -26.6473   19.8856 C   0  0  0  0  0  0  0  0  0  0  0  0
  -31.0696  -30.8857   20.2620 C   0  0  0  0  0  0  0  0  0  0  0  0
  -26.6159  -26.5884   20.8247 C   0  0  0  0  0  0  0  0  0  0  0  0
  -22.4648   -8.0570   21.3507 C   0  0  0  0  0  0  0  0  0  0  0  0
  -27.6586  -24.6404   21.8385 C   0  0  0  0  0  0  0  0  0  0  0  0
  -21.0526   -6.7831   22.7309 C   0  0  0  0  0  0  0  0  0  0  0  0
  -19.5874   -6.5525   25.0936 C   0  0  0  0  0  0  0  0  0  0  0  0
  -21.3441   -5.7622   23.6355 C   0  0  0  0  0  0  0  0  0  0  0  0
  -24.5956  -11.6549   20.7081 C   0  0  0  0  0  0  0  0  0  0  0  0
  -30.3002  -18.9116   23.2379 C   0  0  0  0  0  0  0  0  0  0  0  0
  -25.1901  -13.7669   20.5630 C   0  0  0  0  0  0  0  0  0  0  0  0
  -30.4368  -17.0839   22.0587 C   0  0  0  0  0  0  0  0  0  0  0  0
  -22.8515  -13.4232   21.3762 C   0  0  0  0  0  0  0  0  0  0  0  0
  -29.7775  -19.9548   24.1429 C   0  0  0  0  0  0  0  0  0  0  0  0
  -27.5357  -29.8094   20.1862 C   0  0  0  0  0  0  0  0  0  0  0  0
  -28.8586  -22.6914   24.6543 C   0  0  0  0  0  0  0  0  0  0  0  0
  -24.4188  -29.3758   19.3993 C   0  0  0  0  0  0  0  0  0  0  0  0
  -21.7212  -27.2882   19.2919 C   0  0  0  0  0  0  0  0  0  0  0  0
  -30.6231  -14.9797   20.6861 C   0  0  0  0  0  0  0  0  0  0  0  0
  -31.2507  -33.1232   19.0571 C   0  0  0  0  0  0  0  0  0  0  0  0
  -27.6527  -27.6997   18.8110 C   0  0  0  0  0  0  0  0  0  0  0  0
  -25.4844  -27.5825   20.8184 C   0  0  0  0  0  0  0  0  0  0  0  0
  -29.7248  -33.1608   19.0829 C   0  0  0  0  0  0  0  0  0  0  0  0
  -29.5397  -12.6369   18.2336 C   0  0  0  0  0  0  0  0  0  0  0  0
  -29.1991  -32.5969   20.3991 C   0  0  0  0  0  0  0  0  0  0  0  0
  -28.1184  -12.2806   18.6756 C   0  0  0  0  0  0  0  0  0  0  0  0
  -30.4701  -12.8425   19.4277 C   0  0  0  0  0  0  0  0  0  0  0  0
  -28.5683  -13.4440   20.8735 C   0  0  0  0  0  0  0  0  0  0  0  0
  -29.6089  -31.1295   20.5734 C   0  0  1  0  0  0  0  0  0  0  0  0
  -26.8371  -28.9335   19.1851 C   0  0  1  0  0  0  0  0  0  0  0  0
  -27.5789  -13.2910   19.7068 C   0  0  2  0  0  0  0  0  0  0  0  0
  -19.3011  -27.2292   18.6308 C   0  0  0  0  0  0  0  0  0  0  0  0
  -31.2750  -23.1335   25.2933 C   0  0  0  0  0  0  0  0  0  0  0  0
  -29.8627  -21.5385   26.6517 C   0  0  0  0  0  0  0  0  0  0  0  0
  -23.6951  -30.9379   21.9184 C   0  0  0  0  0  0  0  0  0  0  0  0
  -21.3650  -30.0440   21.7193 C   0  0  0  0  0  0  0  0  0  0  0  0
  -22.3037  -31.4875   19.9143 C   0  0  0  0  0  0  0  0  0  0  0  0
  -22.2014  -25.1673   17.2843 C   0  0  0  0  0  0  0  0  0  0  0  0
  -28.9295  -23.1761   23.2157 C   0  0  0  0  0  0  0  0  0  1  0  0
  -23.1472  -29.1179   20.1710 C   0  0  1  0  0  0  0  0  0  0  0  0
  -20.7323  -26.9764   18.1831 C   0  0  2  0  0  0  0  0  0  0  0  0
  -30.1366  -22.1216   25.2710 C   0  0  0  0  0  0  0  0  0  0  0  0
  -22.6500  -30.3791   20.9323 C   0  0  0  0  0  0  0  0  0  0  0  0
  -25.8545  -11.6183   20.2635 N   0  0  0  0  0  0  0  0  0  0  0  0
  -26.1883  -12.9178   20.1853 N   0  0  0  0  0  0  0  0  0  0  0  0
  -25.5296  -28.5962   19.7517 N   0  0  0  0  0  0  0  0  0  0  0  0
  -29.8960  -13.8154   20.3597 N   0  0  0  0  0  0  0  0  0  0  0  0
  -25.3570  -15.1064   20.5452 N   0  0  0  0  0  0  0  0  0  0  0  0
  -21.8754  -12.4680   21.6910 N   0  0  0  0  0  0  0  0  0  0  0  0
  -28.5653  -19.7800   24.6691 N   0  0  0  0  0  0  0  0  0  0  0  0
  -29.9628  -15.8468   21.5561 N   0  0  0  0  0  0  0  0  0  0  0  0
  -28.7687  -30.2708   19.7665 N   0  0  0  0  0  0  0  0  0  0  0  0
  -22.1882  -28.5830   19.2105 N   0  0  0  0  0  0  0  0  0  0  0  0
  -30.5446  -21.0204   24.3858 N   0  3  0  0  0  0  0  0  0  0  0  0
  -20.8504  -25.5494   17.7699 N   0  3  0  0  0  0  0  0  0  0  0  0
  -22.5778  -14.6419   21.4921 O   0  0  0  0  0  0  0  0  0  0  0  0
  -26.9953  -30.0501   21.2594 O   0  0  0  0  0  0  0  0  0  0  0  0
  -27.8117  -22.7818   25.2992 O   0  0  0  0  0  0  0  0  0  0  0  0
  -24.4243  -30.2322   18.5114 O   0  0  0  0  0  0  0  0  0  0  0  0
  -22.0440  -26.4665   20.1470 O   0  0  0  0  0  0  0  0  0  0  0  0
  -31.7371  -15.2051   20.2063 O   0  0  0  0  0  0  0  0  0  0  0  0
  -29.6288  -17.7790   22.9017 O   0  0  0  0  0  0  0  0  0  0  0  0
  -21.7795   -6.8995   21.5580 O   0  0  0  0  0  0  0  0  0  0  0  0
  -27.6593  -23.6692   22.7918 O   0  0  0  0  0  0  0  0  0  1  0  0
  -18.8848   -6.4428   26.2288 F   0  0  0  0  0  0  0  0  0  0  0  0
  -22.3276   -4.8898   23.3756 F   0  0  0  0  0  0  0  0  0  0  0  0
  1  2  1  0  0  0  0
  1  5  2  0  0  0  0
  2  6  2  0  0  0  0
  3  8  2  0  0  0  0
  3 17  1  0  0  0  0
  4  9  1  0  0  0  0
  4 17  2  0  0  0  0
  5 19  1  0  0  0  0
  6 21  1  0  0  0  0
  7 10  2  0  0  0  0
  7 20  1  0  0  0  0
  8 23  1  0  0  0  0
  9 23  2  0  0  0  0
 10 24  1  0  0  0  0
 11 12  2  0  0  0  0
 11 25  1  0  0  0  0
 12 26  1  0  0  0  0
 13 14  1  0  0  0  0
 13 29  2  0  0  0  0
 14 31  2  0  0  0  0
 15 22  1  0  0  0  0
 15 24  2  0  0  0  0
 16 26  2  0  0  0  0
 16 27  1  0  0  0  0
 17 28  1  0  0  0  0
 18 28  1  0  0  0  0
 18 30  2  0  0  0  0
 18 32  1  0  0  0  0
 19 21  2  0  0  0  0
 19 39  1  0  0  0  0
 20 22  2  0  0  0  0
 20 40  1  0  0  0  0
 21 48  1  0  0  0  0
 22 41  1  0  0  0  0
 23 82  1  0  0  0  0
 24 83  1  0  0  0  0
 25 27  2  0  0  0  0
 25 82  1  0  0  0  0
 26 84  1  0  0  0  0
 27 85  1  0  0  0  0
 28 63  2  0  0  0  0
 29 33  1  0  0  0  0
 29 81  1  0  0  0  0
 30 64  1  0  0  0  0
 30 67  1  0  0  0  0
 31 70  1  0  0  0  0
 31 81  1  0  0  0  0
 32 68  1  0  0  0  0
 32 75  2  0  0  0  0
 33 69  1  0  0  0  0
 33 73  2  0  0  0  0
 34 49  1  0  0  0  0
 34 71  1  0  0  0  0
 34 76  2  0  0  0  0
 35 58  1  0  0  0  0
 35 61  1  0  0  0  0
 35 77  2  0  0  0  0
 36 59  1  0  0  0  0
 36 65  1  0  0  0  0
 36 78  2  0  0  0  0
 37 60  1  0  0  0  0
 37 72  1  0  0  0  0
 37 79  2  0  0  0  0
 38 66  1  0  0  0  0
 38 70  1  0  0  0  0
 38 80  2  0  0  0  0
 39 42  1  0  0  0  0
 40 49  1  0  0  0  0
 41 65  1  0  0  0  0
 42 44  1  0  0  0  0
 43 45  1  0  0  0  0
 43 46  1  0  0  0  0
 44 48  1  0  0  0  0
 45 50  1  0  0  0  0
 46 66  1  0  0  0  0
 47 50  1  0  0  0  0
 47 66  1  0  0  0  0
 48 71  1  0  0  0  0
 49 65  1  0  0  0  0
 50 64  1  0  0  0  0
 51 60  1  0  0  0  0
 52 61  1  0  0  0  0
 53 61  1  0  0  0  0
 54 62  1  0  0  0  0
 55 62  1  0  0  0  0
 56 62  1  0  0  0  0
 57 74  1  0  0  0  0
 58 83  1  0  0  0  0
 59 62  1  0  0  0  0
 59 72  1  0  0  0  0
 60 74  1  0  0  0  0
 61 73  1  0  0  0  0
 63 64  1  0  0  0  0
M  CHG  2  73   1  74   1
M  ISO  4  38 100  58 101  70 100  83 101
M  END
> <Batch ID>
0162

> <Smiles>
CNC(C)C(=O)NC(C(=O)N1Cc2cc([101O:1][101CH2:1]C(=O)C(C)(C)NC(=N)c3ccc([100NH:0][100C:0](=O)N4CCCC(n5nc(-c6ccc(Oc7ccc(F)cc7F)cc6)c(C(N)=O)c5N)C4)o3)ccc2CC1C(=O)NC1CCCc2ccccc21)C(C)(C)C

> <Shape>
0.264

> <Color>
0.181

> <Negative vol penalty>
0.000

$$$$

  -OEChem-04052303563D

 82 90  0     1  0  0  0  0  0999 V2000
  -28.2483  -31.7386   27.4255 C   0  0  0  0  0  0  0  0  0  0  0  0
  -28.3446  -30.7752   26.4265 C   0  0  0  0  0  0  0  0  0  0  0  0
  -23.1881  -10.8677   22.2705 C   0  0  0  0  0  0  0  0  0  0  0  0
  -22.8634  -13.2598   22.1733 C   0  0  0  0  0  0  0  0  0  0  0  0
  -26.9950  -32.1476   27.8794 C   0  0  0  0  0  0  0  0  0  0  0  0
  -27.1876  -30.2195   25.8815 C   0  0  0  0  0  0  0  0  0  0  0  0
  -27.3708  -29.9173   20.8298 C   0  0  0  0  0  0  0  0  0  0  0  0
  -22.2829  -10.7878   23.3287 C   0  0  0  0  0  0  0  0  0  0  0  0
  -21.9581  -13.1799   23.2315 C   0  0  0  0  0  0  0  0  0  0  0  0
  -28.1201  -28.8776   20.2809 C   0  0  0  0  0  0  0  0  0  0  0  0
  -18.7238  -12.3089   23.6800 C   0  0  0  0  0  0  0  0  0  0  0  0
  -17.5319  -13.0245   23.5667 C   0  0  0  0  0  0  0  0  0  0  0  0
  -26.0947  -27.6200   19.9133 C   0  0  0  0  0  0  0  0  0  0  0  0
  -18.0945  -14.2765   25.5550 C   0  0  0  0  0  0  0  0  0  0  0  0
  -31.2404  -17.9603   19.8615 C   0  0  0  0  0  0  0  0  0  0  0  0
  -23.4784  -12.1037   21.6928 C   0  0  0  0  0  0  0  0  0  0  0  0
  -24.1257  -12.0922   19.2253 C   0  0  0  0  0  0  0  0  0  0  0  0
  -25.8220  -31.6037   27.3329 C   0  0  0  0  0  0  0  0  0  0  0  0
  -25.9765  -29.8115   20.9347 C   0  0  0  0  0  0  0  0  0  0  0  0
  -25.9175  -30.6207   26.3294 C   0  0  0  0  0  0  0  0  0  0  0  0
  -25.3297  -28.6609   20.4615 C   0  0  0  0  0  0  0  0  0  0  0  0
  -21.6679  -11.9439   23.8092 C   0  0  0  0  0  0  0  0  0  0  0  0
  -27.4824  -27.7275   19.8252 C   0  0  0  0  0  0  0  0  0  0  0  0
  -19.6011  -12.5770   24.7309 C   0  0  0  0  0  0  0  0  0  0  0  0
  -17.2172  -14.0083   24.5042 C   0  0  0  0  0  0  0  0  0  0  0  0
  -19.2864  -13.5608   25.6684 C   0  0  0  0  0  0  0  0  0  0  0  0
  -24.4138  -12.1870   20.6000 C   0  0  0  0  0  0  0  0  0  0  0  0
  -25.3447  -12.2335   18.6085 C   0  0  0  0  0  0  0  0  0  0  0  0
  -30.0219  -17.3513   20.0315 C   0  0  0  0  0  0  0  0  0  0  0  0
  -29.7751  -19.4690   19.8559 C   0  0  0  0  0  0  0  0  0  0  0  0
  -22.8685  -11.8943   18.5649 C   0  0  0  0  0  0  0  0  0  0  0  0
  -23.9032  -29.7943   23.3440 C   0  0  0  0  0  0  0  0  0  0  0  0
  -21.7153  -29.8127   20.9492 C   0  0  0  0  0  0  0  0  0  0  0  0
  -29.5188  -21.9654   19.6446 C   0  0  0  0  0  0  0  0  0  0  0  0
  -20.9793  -29.1093   17.6919 C   0  0  0  0  0  0  0  0  0  0  0  0
  -30.4546  -14.8770   20.2229 C   0  0  0  0  0  0  0  0  0  0  0  0
  -24.4906  -32.0429   27.8890 C   0  0  0  0  0  0  0  0  0  0  0  0
  -25.1801  -30.9530   21.5048 C   0  0  0  0  0  0  0  0  0  0  0  0
  -23.8332  -28.5064   20.5328 C   0  0  0  0  0  0  0  0  0  0  0  0
  -23.3073  -31.6772   26.9966 C   0  0  0  0  0  0  0  0  0  0  0  0
  -30.0161  -11.4596   19.3248 C   0  0  0  0  0  0  0  0  0  0  0  0
  -23.4172  -30.2288   26.5311 C   0  0  0  0  0  0  0  0  0  0  0  0
  -28.5029  -11.2513   19.4189 C   0  0  0  0  0  0  0  0  0  0  0  0
  -30.5279  -12.4004   20.4141 C   0  0  0  0  0  0  0  0  0  0  0  0
  -28.3227  -13.4850   20.5874 C   0  0  0  0  0  0  0  0  0  0  0  0
  -24.6851  -30.0124   25.6961 C   0  0  1  0  0  0  0  0  0  0  0  0
  -23.8149  -30.5238   22.0335 C   0  0  1  0  0  0  0  0  0  0  0  0
  -27.7511  -12.5958   19.4709 C   0  0  2  0  0  0  0  0  0  0  0  0
  -19.0977  -29.1986   16.0339 C   0  0  0  0  0  0  0  0  0  0  0  0
  -20.4566  -27.3559   22.2491 C   0  0  0  0  0  0  0  0  0  0  0  0
  -19.2289  -26.9380   20.1075 C   0  0  0  0  0  0  0  0  0  0  0  0
  -18.8166  -29.0373   21.3903 C   0  0  0  0  0  0  0  0  0  0  0  0
  -22.4675  -30.9620   15.9278 C   0  0  0  0  0  0  0  0  0  0  0  0
  -28.3767  -22.9719   19.6566 C   0  0  0  0  0  0  0  0  0  0  0  0
  -28.8571  -24.4077   19.4767 C   0  0  0  0  0  0  0  0  0  0  0  0
  -27.6950  -25.3896   19.4444 C   0  0  0  0  0  0  0  0  0  1  0  0
  -20.9995  -28.7531   20.1469 C   0  0  1  0  0  0  0  0  0  0  0  0
  -20.2978  -29.9315   16.6130 C   0  0  2  0  0  0  0  0  0  0  0  0
  -19.9038  -28.0229   20.9737 C   0  0  0  0  0  0  0  0  0  0  0  0
  -31.0758  -19.3172   19.7493 N   0  0  0  0  0  0  0  0  0  0  0  0
  -25.7139  -12.3738   20.8427 N   0  0  0  0  0  0  0  0  0  0  0  0
  -26.2535  -12.3975   19.6121 N   0  0  0  0  0  0  0  0  0  0  0  0
  -23.0990  -29.6474   21.1043 N   0  0  0  0  0  0  0  0  0  0  0  0
  -29.7722  -13.6549   20.4005 N   0  0  0  0  0  0  0  0  0  0  0  0
  -25.7172  -12.2320   17.3109 N   0  0  0  0  0  0  0  0  0  0  0  0
  -21.7141  -11.7687   19.3497 N   0  0  0  0  0  0  0  0  0  0  0  0
  -29.6283  -15.9999   20.1944 N   0  0  0  0  0  0  0  0  0  0  0  0
  -29.0315  -20.6722   19.8117 N   0  0  0  0  0  0  0  0  0  0  0  0
  -24.5002  -30.5234   24.3547 N   0  0  0  0  0  0  0  0  0  0  0  0
  -20.5001  -29.4169   18.9477 N   0  0  0  0  0  0  0  0  0  0  0  0
  -21.2504  -30.2228   15.5045 N   0  3  0  0  0  0  0  0  0  0  0  0
  -22.7740  -11.8142   17.3167 O   0  0  0  0  0  0  0  0  0  0  0  0
  -23.4611  -28.6548   23.4322 O   0  0  0  0  0  0  0  0  0  0  0  0
  -21.0717  -30.7563   21.4150 O   0  0  0  0  0  0  0  0  0  0  0  0
  -30.6879  -22.3087   19.5036 O   0  0  0  0  0  0  0  0  0  0  0  0
  -21.8472  -28.2748   17.4450 O   0  0  0  0  0  0  0  0  0  0  0  0
  -31.6789  -14.9214   20.0774 O   0  0  0  0  0  0  0  0  0  0  0  0
  -29.0649  -18.3207   20.0294 O   0  0  0  0  0  0  0  0  0  0  0  0
  -20.7844  -11.8663   24.8416 O   0  0  0  0  0  0  0  0  0  0  0  0
  -28.2114  -26.7109   19.2896 O   0  0  0  0  0  0  0  0  0  1  0  0
  -16.0734  -14.6965   24.3943 F   0  0  0  0  0  0  0  0  0  0  0  0
  -20.1258  -13.8237   26.6794 F   0  0  0  0  0  0  0  0  0  0  0  0
  1  2  1  0  0  0  0
  1  5  2  0  0  0  0
  2  6  2  0  0  0  0
  3  8  2  0  0  0  0
  3 16  1  0  0  0  0
  4  9  1  0  0  0  0
  4 16  2  0  0  0  0
  5 18  1  0  0  0  0
  6 20  1  0  0  0  0
  7 10  2  0  0  0  0
  7 19  1  0  0  0  0
  8 22  1  0  0  0  0
  9 22  2  0  0  0  0
 10 23  1  0  0  0  0
 11 12  2  0  0  0  0
 11 24  1  0  0  0  0
 12 25  1  0  0  0  0
 13 21  1  0  0  0  0
 13 23  2  0  0  0  0
 14 25  2  0  0  0  0
 14 26  1  0  0  0  0
 15 29  2  0  0  0  0
 15 60  1  0  0  0  0
 16 27  1  0  0  0  0
 17 27  1  0  0  0  0
 17 28  2  0  0  0  0
 17 31  1  0  0  0  0
 18 20  2  0  0  0  0
 18 37  1  0  0  0  0
 19 21  2  0  0  0  0
 19 38  1  0  0  0  0
 20 46  1  0  0  0  0
 21 39  1  0  0  0  0
 22 79  1  0  0  0  0
 23 80  1  0  0  0  0
 24 26  2  0  0  0  0
 24 79  1  0  0  0  0
 25 81  1  0  0  0  0
 26 82  1  0  0  0  0
 27 61  2  0  0  0  0
 28 62  1  0  0  0  0
 28 65  1  0  0  0  0
 29 67  1  0  0  0  0
 29 78  1  0  0  0  0
 30 60  2  0  0  0  0
 30 68  1  0  0  0  0
 30 78  1  0  0  0  0
 31 66  1  0  0  0  0
 31 72  2  0  0  0  0
 32 47  1  0  0  0  0
 32 69  1  0  0  0  0
 32 73  2  0  0  0  0
 33 57  1  0  0  0  0
 33 63  1  0  0  0  0
 33 74  2  0  0  0  0
 34 54  1  0  0  0  0
 34 68  1  0  0  0  0
 34 75  2  0  0  0  0
 35 58  1  0  0  0  0
 35 70  1  0  0  0  0
 35 76  2  0  0  0  0
 36 64  1  0  0  0  0
 36 67  1  0  0  0  0
 36 77  2  0  0  0  0
 37 40  1  0  0  0  0
 38 47  1  0  0  0  0
 39 63  1  0  0  0  0
 40 42  1  0  0  0  0
 41 43  1  0  0  0  0
 41 44  1  0  0  0  0
 42 46  1  0  0  0  0
 43 48  1  0  0  0  0
 44 64  1  0  0  0  0
 45 48  1  0  0  0  0
 45 64  1  0  0  0  0
 46 69  1  0  0  0  0
 47 63  1  0  0  0  0
 48 62  1  0  0  0  0
 49 58  1  0  0  0  0
 50 59  1  0  0  0  0
 51 59  1  0  0  0  0
 52 59  1  0  0  0  0
 53 71  1  0  0  0  0
 54 55  1  0  0  0  0
 55 56  1  0  0  0  0
 56 80  1  0  0  0  0
 57 59  1  0  0  0  0
 57 70  1  0  0  0  0
 58 71  1  0  0  0  0
 61 62  1  0  0  0  0
M  CHG  1  71   1
M  ISO  4  36 100  56 101  67 100  80 101
M  END
> <Batch ID>
0162

> <Smiles>
CNC(C)C(=O)NC(C(=O)N1Cc2cc([101O:1][101CH2:1]CCC(=O)Nc3ncc([100NH:0][100C:0](=O)N4CCCC(n5nc(-c6ccc(Oc7ccc(F)cc7F)cc6)c(C(N)=O)c5N)C4)o3)ccc2CC1C(=O)NC1CCCc2ccccc21)C(C)(C)C

> <Shape>
0.282

> <Color>
0.107

> <Negative vol penalty>
0.000

$$$$

  -OEChem-04052303563D

 86 94  0     1  0  0  0  0  0999 V2000
  -23.9335  -32.9250   14.2980 C   0  0  0  0  0  0  0  0  0  0  0  0
  -24.8160  -32.0734   14.9548 C   0  0  0  0  0  0  0  0  0  0  0  0
  -23.8822   -9.6721   22.5994 C   0  0  0  0  0  0  0  0  0  0  0  0
  -23.5901  -10.0685   20.2341 C   0  0  0  0  0  0  0  0  0  0  0  0
  -30.3472  -18.5922   17.8567 C   0  0  0  0  0  0  0  0  0  0  0  0
  -23.3990  -34.0247   14.9680 C   0  0  0  0  0  0  0  0  0  0  0  0
  -25.1654  -32.3216   16.2817 C   0  0  0  0  0  0  0  0  0  0  0  0
  -25.0746  -28.1358   19.1304 C   0  0  0  0  0  0  0  0  0  0  0  0
  -22.9907   -8.6016   22.5301 C   0  0  0  0  0  0  0  0  0  0  0  0
  -22.6986   -8.9979   20.1648 C   0  0  0  0  0  0  0  0  0  0  0  0
  -26.1568  -27.2642   19.0161 C   0  0  0  0  0  0  0  0  0  0  0  0
  -23.0475   -5.3738   21.5245 C   0  0  0  0  0  0  0  0  0  0  0  0
  -23.4031   -4.1911   22.1729 C   0  0  0  0  0  0  0  0  0  0  0  0
  -29.3230  -17.8498   18.4339 C   0  0  0  0  0  0  0  0  0  0  0  0
  -27.0977  -28.1764   21.0414 C   0  0  0  0  0  0  0  0  0  0  0  0
  -21.4260   -4.3529   23.5521 C   0  0  0  0  0  0  0  0  0  0  0  0
  -24.1819  -10.4056   21.4514 C   0  0  0  0  0  0  0  0  0  0  0  0
  -30.3977  -19.9677   18.0539 C   0  0  0  0  0  0  0  0  0  0  0  0
  -26.4979  -11.4695   21.3428 C   0  0  0  0  0  0  0  0  0  0  0  0
  -23.7346  -34.2811   16.3067 C   0  0  0  0  0  0  0  0  0  0  0  0
  -25.0012  -29.0432   20.1969 C   0  0  0  0  0  0  0  0  0  0  0  0
  -24.6360  -33.4266   16.9698 C   0  0  0  0  0  0  0  0  0  0  0  0
  -26.0122  -29.0566   21.1683 C   0  0  0  0  0  0  0  0  0  0  0  0
  -22.3989   -8.2645   21.3129 C   0  0  0  0  0  0  0  0  0  0  0  0
  -27.1700  -27.2864   19.9700 C   0  0  0  0  0  0  0  0  0  0  0  0
  -21.8812   -6.0461   21.8900 C   0  0  0  0  0  0  0  0  0  0  0  0
  -22.5924   -3.6806   23.1866 C   0  0  0  0  0  0  0  0  0  0  0  0
  -21.0705   -5.5356   22.9038 C   0  0  0  0  0  0  0  0  0  0  0  0
  -25.1023  -11.5119   21.5225 C   0  0  0  0  0  0  0  0  0  0  0  0
  -28.3812  -18.5251   19.1934 C   0  0  0  0  0  0  0  0  0  0  0  0
  -29.4076  -20.5481   18.8302 C   0  0  0  0  0  0  0  0  0  0  0  0
  -26.9052  -12.7706   21.5097 C   0  0  0  0  0  0  0  0  0  0  0  0
  -27.9774  -25.0937   19.8662 C   0  0  0  0  0  0  0  0  0  1  0  0
  -31.4748  -20.7363   17.4454 C   0  0  0  0  0  0  0  0  0  0  0  0
  -27.3499  -10.3539   21.0510 C   0  0  0  0  0  0  0  0  0  0  0  0
  -28.9405  -24.1697   19.7644 C   0  0  0  0  0  0  0  0  0  0  0  0
  -28.5615  -22.7191   19.7796 C   0  0  0  0  0  0  0  0  0  0  0  0
  -24.9381  -32.2114   20.4461 C   0  0  0  0  0  0  0  0  0  0  0  0
  -24.4310  -31.5650   23.5842 C   0  0  0  0  0  0  0  0  0  0  0  0
  -24.7604  -29.3756   26.1812 C   0  0  0  0  0  0  0  0  0  0  0  0
  -26.2934  -18.2247   20.5708 C   0  0  0  0  0  0  0  0  0  0  0  0
  -23.1682  -35.5090   16.9747 C   0  0  0  0  0  0  0  0  0  0  0  0
  -23.8139  -29.9584   20.3205 C   0  0  0  0  0  0  0  0  0  0  0  0
  -25.9704  -29.9977   22.3435 C   0  0  0  0  0  0  0  0  0  0  0  0
  -23.2979  -35.4896   18.4956 C   0  0  0  0  0  0  0  0  0  0  0  0
  -24.3927  -16.8138   23.2305 C   0  0  0  0  0  0  0  0  0  0  0  0
  -24.7050  -35.0673   18.9060 C   0  0  0  0  0  0  0  0  0  0  0  0
  -24.5227  -15.3052   23.0085 C   0  0  0  0  0  0  0  0  0  0  0  0
  -24.3030  -17.5759   21.9095 C   0  0  0  0  0  0  0  0  0  0  0  0
  -25.5094  -15.7802   20.7308 C   0  0  0  0  0  0  0  0  0  0  0  0
  -25.0199  -33.6486   18.4166 C   0  0  1  0  0  0  0  0  0  0  0  0
  -24.0984  -31.1952   21.1671 C   0  0  1  0  0  0  0  0  0  0  0  0
  -25.6684  -14.9760   22.0314 C   0  0  2  0  0  0  0  0  0  0  0  0
  -32.7896  -20.0432   17.2425 C   0  0  0  0  0  0  0  0  0  0  0  0
  -24.2847  -29.1431   28.6342 C   0  0  0  0  0  0  0  0  0  0  0  0
  -26.7954  -33.3881   24.2130 C   0  0  0  0  0  0  0  0  0  0  0  0
  -26.8685  -32.3862   26.5063 C   0  0  0  0  0  0  0  0  0  0  0  0
  -24.8450  -33.6387   25.7582 C   0  0  0  0  0  0  0  0  0  0  0  0
  -22.9853  -27.0499   25.7348 C   0  0  0  0  0  0  0  0  0  0  0  0
  -25.3160  -31.3519   24.7884 C   0  0  1  0  0  0  0  0  0  0  0  0
  -23.7689  -28.8947   27.2253 C   0  0  2  0  0  0  0  0  0  0  0  0
  -25.9583  -32.6747   25.2934 C   0  0  0  0  0  0  0  0  0  0  0  0
  -24.6531  -12.7424   21.7837 N   0  0  0  0  0  0  0  0  0  0  0  0
  -28.3972  -19.8599   19.4072 N   0  0  0  0  0  0  0  0  0  0  0  0
  -25.7730  -13.4853   21.7694 N   0  0  0  0  0  0  0  0  0  0  0  0
  -24.7921  -30.8773   22.4169 N   0  0  0  0  0  0  0  0  0  0  0  0
  -25.4229  -17.2168   21.0368 N   0  0  0  0  0  0  0  0  0  0  0  0
  -28.1179  -13.3615   21.4582 N   0  0  0  0  0  0  0  0  0  0  0  0
  -26.7673   -9.0868   20.9114 N   0  0  0  0  0  0  0  0  0  0  0  0
  -29.4472  -21.9477   19.0398 N   0  0  0  0  0  0  0  0  0  0  0  0
  -27.3402  -17.7599   19.7753 N   0  0  0  0  0  0  0  0  0  0  0  0
  -24.3807  -32.6671   19.2667 N   0  0  0  0  0  0  0  0  0  0  0  0
  -24.4953  -30.6686   25.7824 N   0  0  0  0  0  0  0  0  0  0  0  0
  -23.5178  -27.4343   27.0674 N   0  3  0  0  0  0  0  0  0  0  0  0
  -31.3873  -21.9124   17.0903 O   0  0  0  0  0  0  0  0  0  0  0  0
  -28.5930  -10.4742   20.9343 O   0  0  0  0  0  0  0  0  0  0  0  0
  -27.5731  -22.3325   20.3941 O   0  0  0  0  0  0  0  0  0  0  0  0
  -26.0116  -32.5577   20.9252 O   0  0  0  0  0  0  0  0  0  0  0  0
  -23.4511  -32.3084   23.6778 O   0  0  0  0  0  0  0  0  0  0  0  0
  -25.6805  -28.6755   25.7641 O   0  0  0  0  0  0  0  0  0  0  0  0
  -26.1385  -19.4093   20.8786 O   0  0  0  0  0  0  0  0  0  0  0  0
  -30.2753  -24.4992   19.6442 O   0  0  0  0  0  0  0  0  0  0  0  0
  -21.5291   -7.2198   21.2448 O   0  0  0  0  0  0  0  0  0  0  0  0
  -28.2277  -26.4372   19.8605 O   0  0  0  0  0  0  0  0  0  1  0  0
  -22.9331   -2.5440   23.8081 F   0  0  0  0  0  0  0  0  0  0  0  0
  -19.9482   -6.1764   23.2585 F   0  0  0  0  0  0  0  0  0  0  0  0
  1  2  1  0  0  0  0
  1  6  2  0  0  0  0
  2  7  2  0  0  0  0
  3  9  2  0  0  0  0
  3 17  1  0  0  0  0
  4 10  1  0  0  0  0
  4 17  2  0  0  0  0
  5 14  2  0  0  0  0
  5 18  1  0  0  0  0
  6 20  1  0  0  0  0
  7 22  1  0  0  0  0
  8 11  2  0  0  0  0
  8 21  1  0  0  0  0
  9 24  1  0  0  0  0
 10 24  2  0  0  0  0
 11 25  1  0  0  0  0
 12 13  2  0  0  0  0
 12 26  1  0  0  0  0
 13 27  1  0  0  0  0
 14 30  1  0  0  0  0
 15 23  1  0  0  0  0
 15 25  2  0  0  0  0
 16 27  2  0  0  0  0
 16 28  1  0  0  0  0
 17 29  1  0  0  0  0
 18 31  2  0  0  0  0
 18 34  1  0  0  0  0
 19 29  1  0  0  0  0
 19 32  2  0  0  0  0
 19 35  1  0  0  0  0
 20 22  2  0  0  0  0
 20 42  1  0  0  0  0
 21 23  2  0  0  0  0
 21 43  1  0  0  0  0
 22 51  1  0  0  0  0
 23 44  1  0  0  0  0
 24 83  1  0  0  0  0
 25 84  1  0  0  0  0
 26 28  2  0  0  0  0
 26 83  1  0  0  0  0
 27 85  1  0  0  0  0
 28 86  1  0  0  0  0
 29 63  2  0  0  0  0
 30 64  2  0  0  0  0
 30 71  1  0  0  0  0
 31 64  1  0  0  0  0
 31 70  1  0  0  0  0
 32 65  1  0  0  0  0
 32 68  1  0  0  0  0
 33 36  2  0  0  0  0
 33 84  1  0  0  0  0
 34 54  1  0  0  0  0
 34 75  2  0  0  0  0
 35 69  1  0  0  0  0
 35 76  2  0  0  0  0
 36 37  1  0  0  0  0
 36 82  1  0  0  0  0
 37 70  1  0  0  0  0
 37 77  2  0  0  0  0
 38 52  1  0  0  0  0
 38 72  1  0  0  0  0
 38 78  2  0  0  0  0
 39 60  1  0  0  0  0
 39 66  1  0  0  0  0
 39 79  2  0  0  0  0
 40 61  1  0  0  0  0
 40 73  1  0  0  0  0
 40 80  2  0  0  0  0
 41 67  1  0  0  0  0
 41 71  1  0  0  0  0
 41 81  2  0  0  0  0
 42 45  1  0  0  0  0
 43 52  1  0  0  0  0
 44 66  1  0  0  0  0
 45 47  1  0  0  0  0
 46 48  1  0  0  0  0
 46 49  1  0  0  0  0
 47 51  1  0  0  0  0
 48 53  1  0  0  0  0
 49 67  1  0  0  0  0
 50 53  1  0  0  0  0
 50 67  1  0  0  0  0
 51 72  1  0  0  0  0
 52 66  1  0  0  0  0
 53 65  1  0  0  0  0
 55 61  1  0  0  0  0
 56 62  1  0  0  0  0
 57 62  1  0  0  0  0
 58 62  1  0  0  0  0
 59 74  1  0  0  0  0
 60 62  1  0  0  0  0
 60 73  1  0  0  0  0
 61 74  1  0  0  0  0
 63 65  1  0  0  0  0
M  CHG  1  74   1
M  ISO  4  33 101  41 100  71 100  84 101
M  END
> <Batch ID>
0162

> <Smiles>
CNC(C)C(=O)NC(C(=O)N1Cc2cc([101O:1][101CH2:1]C(=O)C(=O)Nc3nc([100NH:0][100C:0](=O)N4CCCC(n5nc(-c6ccc(Oc7ccc(F)cc7F)cc6)c(C(N)=O)c5N)C4)ccc3C(C)=O)ccc2CC1C(=O)NC1CCCc2ccccc21)C(C)(C)C

> <Shape>
0.279

> <Color>
0.119

> <Negative vol penalty>
0.000

$$$$

  -OEChem-04052303563D

 88 96  0     1  0  0  0  0  0999 V2000
  -28.8805  -35.5317   18.4441 C   0  0  0  0  0  0  0  0  0  0  0  0
  -29.0513  -34.2042   18.8234 C   0  0  0  0  0  0  0  0  0  0  0  0
  -24.8224   -9.0497   21.6025 C   0  0  0  0  0  0  0  0  0  0  0  0
  -23.2317  -10.5801   20.6203 C   0  0  0  0  0  0  0  0  0  0  0  0
  -27.9544  -36.3325   19.1112 C   0  0  0  0  0  0  0  0  0  0  0  0
  -28.2968  -33.6769   19.8708 C   0  0  0  0  0  0  0  0  0  0  0  0
  -26.4223  -29.0958   18.8007 C   0  0  0  0  0  0  0  0  0  0  0  0
  -23.8239   -8.5474   22.4369 C   0  0  0  0  0  0  0  0  0  0  0  0
  -22.2332  -10.0777   21.4547 C   0  0  0  0  0  0  0  0  0  0  0  0
  -27.2954  -28.0129   18.8941 C   0  0  0  0  0  0  0  0  0  0  0  0
  -21.6092   -6.6124   24.5737 C   0  0  0  0  0  0  0  0  0  0  0  0
  -21.5178   -5.2277   24.7148 C   0  0  0  0  0  0  0  0  0  0  0  0
  -26.3836  -27.4725   21.0611 C   0  0  0  0  0  0  0  0  0  0  0  0
  -27.6226  -19.2011   18.4794 C   0  0  0  0  0  0  0  0  0  0  0  0
  -21.1341   -5.0110   22.3393 C   0  0  0  0  0  0  0  0  0  0  0  0
  -25.5887  -18.1851   17.9965 C   0  0  0  0  0  0  0  0  0  0  0  0
  -24.5263  -10.0662   20.6942 C   0  0  0  0  0  0  0  0  0  0  0  0
  -25.9054  -10.1241   18.5489 C   0  0  0  0  0  0  0  0  0  0  0  0
  -27.1812  -35.8121   20.1610 C   0  0  0  0  0  0  0  0  0  0  0  0
  -25.5293  -29.3822   19.8433 C   0  0  0  0  0  0  0  0  0  0  0  0
  -27.3604  -34.4718   20.5535 C   0  0  0  0  0  0  0  0  0  0  0  0
  -25.4985  -28.5581   20.9774 C   0  0  0  0  0  0  0  0  0  0  0  0
  -26.8424  -18.0104   18.5399 C   0  0  0  0  0  0  0  0  0  0  0  0
  -22.5293   -9.0613   22.3630 C   0  0  0  0  0  0  0  0  0  0  0  0
  -27.2782  -27.2027   20.0256 C   0  0  0  0  0  0  0  0  0  0  0  0
  -21.4629   -7.1964   23.3154 C   0  0  0  0  0  0  0  0  0  0  0  0
  -21.2803   -4.4270   23.5976 C   0  0  0  0  0  0  0  0  0  0  0  0
  -21.2254   -6.3957   22.1982 C   0  0  0  0  0  0  0  0  0  0  0  0
  -25.5575  -10.5859   19.8324 C   0  0  0  0  0  0  0  0  0  0  0  0
  -26.9355  -20.2406   17.8917 C   0  0  0  0  0  0  0  0  0  0  0  0
  -26.9352  -10.9439   18.1565 C   0  0  0  0  0  0  0  0  0  0  0  0
  -25.3476   -9.0502   17.7800 C   0  0  0  0  0  0  0  0  0  0  0  0
  -27.3883  -21.6333   17.6421 C   0  0  0  0  0  0  0  0  0  0  0  0
  -25.0932  -31.8395   21.8119 C   0  0  0  0  0  0  0  0  0  0  0  0
  -28.8097  -24.0418   19.1283 C   0  0  0  0  0  0  0  0  0  0  0  0
  -22.4897  -30.1376   22.7326 C   0  0  0  0  0  0  0  0  0  0  0  0
  -20.9512  -27.1011   22.9767 C   0  0  0  0  0  0  0  0  0  0  0  0
  -28.5249  -16.5049   19.6575 C   0  0  0  0  0  0  0  0  0  0  0  0
  -26.2266  -36.7294   20.8834 C   0  0  0  0  0  0  0  0  0  0  0  0
  -24.5755  -30.5381   19.7156 C   0  0  0  0  0  0  0  0  0  0  0  0
  -24.5449  -28.8107   22.1155 C   0  0  0  0  0  0  0  0  0  0  0  0
  -25.1989  -35.9898   21.7361 C   0  0  0  0  0  0  0  0  0  0  0  0
  -30.5200  -13.5697   19.9423 C   0  0  0  0  0  0  0  0  0  0  0  0
  -25.8765  -34.9050   22.5675 C   0  0  0  0  0  0  0  0  0  0  0  0
  -29.5062  -12.4293   19.8235 C   0  0  0  0  0  0  0  0  0  0  0  0
  -29.9473  -14.7600   20.7097 C   0  0  0  0  0  0  0  0  0  0  0  0
  -27.6502  -14.1244   20.0862 C   0  0  0  0  0  0  0  0  0  0  0  0
  -26.5429  -33.8566   21.6685 C   0  0  1  0  0  0  0  0  0  0  0  0
  -24.0640  -31.0423   21.0615 C   0  0  1  0  0  0  0  0  0  0  0  0
  -28.1593  -12.9286   19.2649 C   0  0  2  0  0  0  0  0  0  0  0  0
  -18.8444  -26.0215   23.8093 C   0  0  0  0  0  0  0  0  0  0  0  0
  -31.0430  -21.6029   15.8767 C   0  0  0  0  0  0  0  0  0  0  0  0
  -30.8201  -24.0531   15.4526 C   0  0  0  0  0  0  0  0  0  0  0  0
  -32.9347  -23.1525   16.4256 C   0  0  0  0  0  0  0  0  0  0  0  0
  -23.5046  -30.3741   25.6004 C   0  0  0  0  0  0  0  0  0  0  0  0
  -21.9370  -28.5275   26.2336 C   0  0  0  0  0  0  0  0  0  0  0  0
  -21.0356  -30.6748   25.3394 C   0  0  0  0  0  0  0  0  0  0  0  0
  -20.2340  -26.1444   20.2695 C   0  0  0  0  0  0  0  0  0  0  0  0
  -28.5161  -25.5123   18.9005 C   0  0  0  0  0  0  0  0  0  1  0  0
  -30.7837  -23.2331   17.8193 C   0  0  0  0  0  0  0  0  0  0  0  0
  -29.2523  -23.2499   17.9036 C   0  0  1  0  0  0  0  0  0  0  0  0
  -22.2178  -29.0794   23.7744 C   0  0  1  0  0  0  0  0  0  0  0  0
  -19.5466  -26.6517   22.6166 C   0  0  2  0  0  0  0  0  0  0  0  0
  -31.4063  -22.9984   16.4137 C   0  0  0  0  0  0  0  0  0  0  0  0
  -22.1932  -29.6601   25.2165 C   0  0  0  0  0  0  0  0  0  0  0  0
  -26.3056  -11.6189   20.2291 N   0  0  0  0  0  0  0  0  0  0  0  0
  -27.1340  -11.8128   19.1888 N   0  0  0  0  0  0  0  0  0  0  0  0
  -23.6364  -29.9567   21.9463 N   0  0  0  0  0  0  0  0  0  0  0  0
  -28.6738  -15.1807   20.1213 N   0  0  0  0  0  0  0  0  0  0  0  0
  -27.6810  -10.9990   17.0326 N   0  0  0  0  0  0  0  0  0  0  0  0
  -24.2943   -8.3092   18.3332 N   0  0  0  0  0  0  0  0  0  0  0  0
  -27.2819  -16.7801   19.0883 N   0  0  0  0  0  0  0  0  0  0  0  0
  -28.6795  -21.9386   18.0541 N   0  0  0  0  0  0  0  0  0  0  0  0
  -25.5521  -32.9499   21.1293 N   0  0  0  0  0  0  0  0  0  0  0  0
  -20.9790  -28.4212   23.3740 N   0  0  0  0  0  0  0  0  0  0  0  0
  -19.5900  -25.6503   21.5137 N   0  3  0  0  0  0  0  0  0  0  0  0
  -25.7815   -8.7458   16.6431 O   0  0  0  0  0  0  0  0  0  0  0  0
  -26.6152  -22.4307   17.1177 O   0  0  0  0  0  0  0  0  0  0  0  0
  -25.4438  -31.4750   22.9281 O   0  0  0  0  0  0  0  0  0  0  0  0
  -28.7279  -23.5306   20.2455 O   0  0  0  0  0  0  0  0  0  0  0  0
  -21.7094  -31.0858   22.6158 O   0  0  0  0  0  0  0  0  0  0  0  0
  -21.9257  -26.3546   22.9155 O   0  0  0  0  0  0  0  0  0  0  0  0
  -29.4424  -17.3260   19.7330 O   0  0  0  0  0  0  0  0  0  0  0  0
  -21.5546   -8.5712   23.1768 O   0  0  0  0  0  0  0  0  0  0  0  0
  -28.1297  -26.1455   20.1196 O   0  0  0  0  0  0  0  0  0  1  0  0
  -21.1941   -3.0972   23.7330 F   0  0  0  0  0  0  0  0  0  0  0  0
  -21.0852   -6.9509   20.9866 F   0  0  0  0  0  0  0  0  0  0  0  0
  -25.3563  -19.7795   17.4165 S   0  0  0  0  0  0  0  0  0  0  0  0
  1  2  1  0  0  0  0
  1  5  2  0  0  0  0
  2  6  2  0  0  0  0
  3  8  2  0  0  0  0
  3 17  1  0  0  0  0
  4  9  1  0  0  0  0
  4 17  2  0  0  0  0
  5 19  1  0  0  0  0
  6 21  1  0  0  0  0
  7 10  2  0  0  0  0
  7 20  1  0  0  0  0
  8 24  1  0  0  0  0
  9 24  2  0  0  0  0
 10 25  1  0  0  0  0
 11 12  2  0  0  0  0
 11 26  1  0  0  0  0
 12 27  1  0  0  0  0
 13 22  1  0  0  0  0
 13 25  2  0  0  0  0
 14 23  1  0  0  0  0
 14 30  2  0  0  0  0
 15 27  2  0  0  0  0
 15 28  1  0  0  0  0
 16 23  2  0  0  0  0
 16 88  1  0  0  0  0
 17 29  1  0  0  0  0
 18 29  1  0  0  0  0
 18 31  2  0  0  0  0
 18 32  1  0  0  0  0
 19 21  2  0  0  0  0
 19 39  1  0  0  0  0
 20 22  2  0  0  0  0
 20 40  1  0  0  0  0
 21 48  1  0  0  0  0
 22 41  1  0  0  0  0
 23 72  1  0  0  0  0
 24 84  1  0  0  0  0
 25 85  1  0  0  0  0
 26 28  2  0  0  0  0
 26 84  1  0  0  0  0
 27 86  1  0  0  0  0
 28 87  1  0  0  0  0
 29 66  2  0  0  0  0
 30 33  1  0  0  0  0
 30 88  1  0  0  0  0
 31 67  1  0  0  0  0
 31 70  1  0  0  0  0
 32 71  1  0  0  0  0
 32 77  2  0  0  0  0
 33 73  1  0  0  0  0
 33 78  2  0  0  0  0
 34 49  1  0  0  0  0
 34 74  1  0  0  0  0
 34 79  2  0  0  0  0
 35 59  1  0  0  0  0
 35 61  1  0  0  0  0
 35 80  2  0  0  0  0
 36 62  1  0  0  0  0
 36 68  1  0  0  0  0
 36 81  2  0  0  0  0
 37 63  1  0  0  0  0
 37 75  1  0  0  0  0
 37 82  2  0  0  0  0
 38 69  1  0  0  0  0
 38 72  1  0  0  0  0
 38 83  2  0  0  0  0
 39 42  1  0  0  0  0
 40 49  1  0  0  0  0
 41 68  1  0  0  0  0
 42 44  1  0  0  0  0
 43 45  1  0  0  0  0
 43 46  1  0  0  0  0
 44 48  1  0  0  0  0
 45 50  1  0  0  0  0
 46 69  1  0  0  0  0
 47 50  1  0  0  0  0
 47 69  1  0  0  0  0
 48 74  1  0  0  0  0
 49 68  1  0  0  0  0
 50 67  1  0  0  0  0
 51 63  1  0  0  0  0
 52 64  1  0  0  0  0
 53 64  1  0  0  0  0
 54 64  1  0  0  0  0
 55 65  1  0  0  0  0
 56 65  1  0  0  0  0
 57 65  1  0  0  0  0
 58 76  1  0  0  0  0
 59 85  1  0  0  0  0
 60 61  1  0  0  0  0
 60 64  1  0  0  0  0
 61 73  1  0  0  0  0
 62 65  1  0  0  0  0
 62 75  1  0  0  0  0
 63 76  1  0  0  0  0
 66 67  1  0  0  0  0
M  CHG  1  76   1
M  ISO  4  38 100  59 101  72 100  85 101
M  END
> <Batch ID>
0162

> <Smiles>
CNC(C)C(=O)NC(C(=O)N1Cc2cc([101O:1][101CH2:1]C(=O)C(CC(C)(C)C)NC(=O)c3cc([100NH:0][100C:0](=O)N4CCCC(n5nc(-c6ccc(Oc7ccc(F)cc7F)cc6)c(C(N)=O)c5N)C4)cs3)ccc2CC1C(=O)NC1CCCc2ccccc21)C(C)(C)C

> <Shape>
0.300

> <Color>
0.101

> <Negative vol penalty>
0.000

$$$$

  -OEChem-04052303563D

 86 94  0     1  0  0  0  0  0999 V2000
  -24.6568  -35.5000   16.8816 C   0  0  0  0  0  0  0  0  0  0  0  0
  -24.1282  -34.2380   16.6298 C   0  0  0  0  0  0  0  0  0  0  0  0
  -22.6802  -11.8434   18.9874 C   0  0  0  0  0  0  0  0  0  0  0  0
  -22.9154  -10.2250   20.7658 C   0  0  0  0  0  0  0  0  0  0  0  0
  -25.5571  -35.6807   17.9308 C   0  0  0  0  0  0  0  0  0  0  0  0
  -24.5004  -33.1557   17.4264 C   0  0  0  0  0  0  0  0  0  0  0  0
  -21.9028  -27.0402   20.1040 C   0  0  0  0  0  0  0  0  0  0  0  0
  -21.5992  -11.1251   18.4766 C   0  0  0  0  0  0  0  0  0  0  0  0
  -21.8343   -9.5067   20.2550 C   0  0  0  0  0  0  0  0  0  0  0  0
  -22.2083  -25.6820   20.1798 C   0  0  0  0  0  0  0  0  0  0  0  0
  -21.2594   -7.3244   17.7374 C   0  0  0  0  0  0  0  0  0  0  0  0
  -21.3881   -5.9387   17.6441 C   0  0  0  0  0  0  0  0  0  0  0  0
  -29.1547  -20.2759   21.7227 C   0  0  0  0  0  0  0  0  0  0  0  0
  -23.7103  -26.1285   22.0139 C   0  0  0  0  0  0  0  0  0  0  0  0
  -19.4941   -5.6635   19.1186 C   0  0  0  0  0  0  0  0  0  0  0  0
  -23.3384  -11.3933   20.1320 C   0  0  0  0  0  0  0  0  0  0  0  0
  -30.2386  -19.3534   21.6557 C   0  0  0  0  0  0  0  0  0  0  0  0
  -24.4143  -13.1725   21.6101 C   0  0  0  0  0  0  0  0  0  0  0  0
  -25.9331  -34.6020   18.7467 C   0  0  0  0  0  0  0  0  0  0  0  0
  -22.5080  -27.9557   20.9768 C   0  0  0  0  0  0  0  0  0  0  0  0
  -25.4076  -33.3219   18.4866 C   0  0  0  0  0  0  0  0  0  0  0  0
  -23.4088  -27.4974   21.9488 C   0  0  0  0  0  0  0  0  0  0  0  0
  -21.1762   -9.9568   19.1104 C   0  0  0  0  0  0  0  0  0  0  0  0
  -23.1143  -25.2264   21.1330 C   0  0  0  0  0  0  0  0  0  0  0  0
  -20.2481   -7.8798   18.5214 C   0  0  0  0  0  0  0  0  0  0  0  0
  -20.5054   -5.1082   18.3347 C   0  0  0  0  0  0  0  0  0  0  0  0
  -19.3654   -7.0493   19.2120 C   0  0  0  0  0  0  0  0  0  0  0  0
  -24.4555  -12.1346   20.6598 C   0  0  0  0  0  0  0  0  0  0  0  0
  -29.9697  -18.2996   20.8102 C   0  0  0  0  0  0  0  0  0  0  0  0
  -25.7274  -13.5411   21.7730 C   0  0  0  0  0  0  0  0  0  0  0  0
  -28.0987  -19.8920   20.9256 C   0  0  0  0  0  0  0  0  0  0  0  0
  -31.4784  -19.4858   22.3773 C   0  0  0  0  0  0  0  0  0  0  0  0
  -23.2898  -13.7515   22.2851 C   0  0  0  0  0  0  0  0  0  0  0  0
  -30.8177  -17.1319   20.4580 C   0  0  0  0  0  0  0  0  0  0  0  0
  -24.4194  -30.4700   20.6181 C   0  0  0  0  0  0  0  0  0  0  0  0
  -25.1925  -22.2638   21.0312 C   0  0  0  0  0  0  0  0  0  0  0  0
  -23.9455  -30.7950   23.8105 C   0  0  0  0  0  0  0  0  0  0  0  0
  -23.1307  -29.3289   26.7826 C   0  0  0  0  0  0  0  0  0  0  0  0
  -30.7348  -14.7647   19.7415 C   0  0  0  0  0  0  0  0  0  0  0  0
  -26.9458  -34.8368   19.8394 C   0  0  0  0  0  0  0  0  0  0  0  0
  -22.1475  -29.4140   20.8996 C   0  0  0  0  0  0  0  0  0  0  0  0
  -24.0704  -28.4368   22.9226 C   0  0  0  0  0  0  0  0  0  0  0  0
  -27.0006  -33.7127   20.8708 C   0  0  0  0  0  0  0  0  0  0  0  0
  -29.9949  -11.3345   20.1691 C   0  0  0  0  0  0  0  0  0  0  0  0
  -27.0346  -32.3540   20.1782 C   0  0  0  0  0  0  0  0  0  0  0  0
  -28.4848  -11.3195   20.4214 C   0  0  0  0  0  0  0  0  0  0  0  0
  -30.3866  -12.3869   19.1328 C   0  0  0  0  0  0  0  0  0  0  0  0
  -28.3877  -13.7249   19.6543 C   0  0  0  0  0  0  0  0  0  0  0  0
  -25.7679  -32.1282   19.3441 C   0  0  1  0  0  0  0  0  0  0  0  0
  -23.2126  -30.3255   21.5015 C   0  0  1  0  0  0  0  0  0  0  0  0
  -27.9508  -12.7300   20.7418 C   0  0  1  0  0  0  0  0  0  0  0  0
  -31.9689  -20.8763   22.6913 C   0  0  0  0  0  0  0  0  0  0  0  0
  -22.8646  -29.8418   29.2247 C   0  0  0  0  0  0  0  0  0  0  0  0
  -26.9796  -30.8344   24.1304 C   0  0  0  0  0  0  0  0  0  0  0  0
  -26.6581  -30.3904   26.5732 C   0  0  0  0  0  0  0  0  0  0  0  0
  -25.7586  -32.4844   25.5590 C   0  0  0  0  0  0  0  0  0  0  0  0
  -20.2708  -28.5681   26.7497 C   0  0  0  0  0  0  0  0  0  0  0  0
  -26.5774  -21.8033   21.4339 C   0  0  0  0  0  0  0  0  0  0  0  0
  -24.7213  -23.5568   21.6679 C   0  0  0  0  0  0  0  0  0  1  0  0
  -24.6326  -30.2783   25.0514 C   0  0  1  0  0  0  0  0  0  0  0  0
  -22.1646  -29.7421   27.8783 C   0  0  2  0  0  0  0  0  0  0  0  0
  -25.9964  -30.9792   25.3090 C   0  0  0  0  0  0  0  0  0  0  0  0
  -25.6964  -11.8616   20.2479 N   0  0  0  0  0  0  0  0  0  0  0  0
  -26.4471  -12.7333   20.9426 N   0  0  0  0  0  0  0  0  0  0  0  0
  -23.6902  -29.8541   22.8030 N   0  0  0  0  0  0  0  0  0  0  0  0
  -29.8513  -13.6951   19.5140 N   0  0  0  0  0  0  0  0  0  0  0  0
  -26.3249  -14.4742   22.5442 N   0  0  0  0  0  0  0  0  0  0  0  0
  -22.0108  -13.2539   22.0004 N   0  0  0  0  0  0  0  0  0  0  0  0
  -26.8972  -20.5675   20.7663 N   0  0  0  0  0  0  0  0  0  0  0  0
  -30.1287  -15.9605   20.1425 N   0  0  0  0  0  0  0  0  0  0  0  0
  -24.6580  -31.7649   20.1988 N   0  0  0  0  0  0  0  0  0  0  0  0
  -23.6719  -30.4221   26.1399 N   0  0  0  0  0  0  0  0  0  0  0  0
  -21.0592  -28.7496   27.9956 N   0  3  0  0  0  0  0  0  0  0  0  0
  -32.1902  -18.5462   22.7645 O   0  0  0  0  0  0  0  0  0  0  0  0
  -23.4137  -14.6936   23.1040 O   0  0  0  0  0  0  0  0  0  0  0  0
  -32.0378  -17.2669   20.4258 O   0  0  0  0  0  0  0  0  0  0  0  0
  -25.0858  -29.4802   20.3388 O   0  0  0  0  0  0  0  0  0  0  0  0
  -24.4871  -21.6383   20.2407 O   0  0  0  0  0  0  0  0  0  0  0  0
  -23.6399  -31.9881   23.7409 O   0  0  0  0  0  0  0  0  0  0  0  0
  -23.3829  -28.1539   26.5254 O   0  0  0  0  0  0  0  0  0  0  0  0
  -31.9602  -14.6547   19.6342 O   0  0  0  0  0  0  0  0  0  0  0  0
  -20.1211   -9.2557   18.6124 O   0  0  0  0  0  0  0  0  0  0  0  0
  -23.4148  -23.9013   21.2088 O   0  0  0  0  0  0  0  0  0  1  0  0
  -20.6281   -3.7775   18.2438 F   0  0  0  0  0  0  0  0  0  0  0  0
  -18.3911   -7.5770   19.9657 F   0  0  0  0  0  0  0  0  0  0  0  0
  -28.4159  -18.4249   20.1014 S   0  0  0  0  0  0  0  0  0  0  0  0
  1  2  1  0  0  0  0
  1  5  2  0  0  0  0
  2  6  2  0  0  0  0
  3  8  2  0  0  0  0
  3 16  1  0  0  0  0
  4  9  1  0  0  0  0
  4 16  2  0  0  0  0
  5 19  1  0  0  0  0
  6 21  1  0  0  0  0
  7 10  2  0  0  0  0
  7 20  1  0  0  0  0
  8 23  1  0  0  0  0
  9 23  2  0  0  0  0
 10 24  1  0  0  0  0
 11 12  2  0  0  0  0
 11 25  1  0  0  0  0
 12 26  1  0  0  0  0
 13 17  1  0  0  0  0
 13 31  2  0  0  0  0
 14 22  1  0  0  0  0
 14 24  2  0  0  0  0
 15 26  2  0  0  0  0
 15 27  1  0  0  0  0
 16 28  1  0  0  0  0
 17 29  2  0  0  0  0
 17 32  1  0  0  0  0
 18 28  1  0  0  0  0
 18 30  2  0  0  0  0
 18 33  1  0  0  0  0
 19 21  2  0  0  0  0
 19 40  1  0  0  0  0
 20 22  2  0  0  0  0
 20 41  1  0  0  0  0
 21 49  1  0  0  0  0
 22 42  1  0  0  0  0
 23 82  1  0  0  0  0
 24 83  1  0  0  0  0
 25 27  2  0  0  0  0
 25 82  1  0  0  0  0
 26 84  1  0  0  0  0
 27 85  1  0  0  0  0
 28 63  2  0  0  0  0
 29 34  1  0  0  0  0
 29 86  1  0  0  0  0
 30 64  1  0  0  0  0
 30 67  1  0  0  0  0
 31 69  1  0  0  0  0
 31 86  1  0  0  0  0
 32 52  1  0  0  0  0
 32 74  2  0  0  0  0
 33 68  1  0  0  0  0
 33 75  2  0  0  0  0
 34 70  1  0  0  0  0
 34 76  2  0  0  0  0
 35 50  1  0  0  0  0
 35 71  1  0  0  0  0
 35 77  2  0  0  0  0
 36 58  1  0  0  0  0
 36 59  1  0  0  0  0
 36 78  2  0  0  0  0
 37 60  1  0  0  0  0
 37 65  1  0  0  0  0
 37 79  2  0  0  0  0
 38 61  1  0  0  0  0
 38 72  1  0  0  0  0
 38 80  2  0  0  0  0
 39 66  1  0  0  0  0
 39 70  1  0  0  0  0
 39 81  2  0  0  0  0
 40 43  1  0  0  0  0
 41 50  1  0  0  0  0
 42 65  1  0  0  0  0
 43 45  1  0  0  0  0
 44 46  1  0  0  0  0
 44 47  1  0  0  0  0
 45 49  1  0  0  0  0
 46 51  1  0  0  0  0
 47 66  1  0  0  0  0
 48 51  1  0  0  0  0
 48 66  1  0  0  0  0
 49 71  1  0  0  0  0
 50 65  1  0  0  0  0
 51 64  1  0  0  0  0
 53 61  1  0  0  0  0
 54 62  1  0  0  0  0
 55 62  1  0  0  0  0
 56 62  1  0  0  0  0
 57 73  1  0  0  0  0
 58 69  1  0  0  0  0
 59 83  1  0  0  0  0
 60 62  1  0  0  0  0
 60 72  1  0  0  0  0
 61 73  1  0  0  0  0
 63 64  1  0  0  0  0
M  CHG  1  73   1
M  ISO  4  39 100  59 101  70 100  83 101
M  END
> <Batch ID>
0162

> <Smiles>
CNC(C)C(=O)NC(C(=O)N1Cc2cc([101O:1][101CH2:1]C(=O)CNc3cc(C(C)=O)c(C(=O)[100NH:0][100C:0](=O)N4CCCC(n5nc(-c6ccc(Oc7ccc(F)cc7F)cc6)c(C(N)=O)c5N)C4)s3)ccc2CC1C(=O)NC1CCCc2ccccc21)C(C)(C)C

> <Shape>
0.221

> <Color>
0.116

> <Negative vol penalty>
0.000

$$$$

  -OEChem-04052303563D

 85 93  0     1  0  0  0  0  0999 V2000
  -21.7100  -12.1229   20.0122 C   0  0  0  0  0  0  0  0  0  0  0  0
  -21.5998  -13.4716   20.3351 C   0  0  0  0  0  0  0  0  0  0  0  0
  -31.0850  -28.6565   22.1824 C   0  0  0  0  0  0  0  0  0  0  0  0
  -30.2160  -26.7344   21.0046 C   0  0  0  0  0  0  0  0  0  0  0  0
  -22.9488  -11.4879   20.0890 C   0  0  0  0  0  0  0  0  0  0  0  0
  -22.7283  -14.1858   20.7363 C   0  0  0  0  0  0  0  0  0  0  0  0
  -23.0545  -18.7185   18.5018 C   0  0  0  0  0  0  0  0  0  0  0  0
  -32.0393  -27.8474   22.7990 C   0  0  0  0  0  0  0  0  0  0  0  0
  -31.1703  -25.9252   21.6212 C   0  0  0  0  0  0  0  0  0  0  0  0
  -22.2422  -19.7351   19.0022 C   0  0  0  0  0  0  0  0  0  0  0  0
  -33.6087  -23.4165   22.6106 C   0  0  0  0  0  0  0  0  0  0  0  0
  -34.2920  -22.4969   21.8150 C   0  0  0  0  0  0  0  0  0  0  0  0
  -19.0289  -26.5409   23.7762 C   0  0  0  0  0  0  0  0  0  0  0  0
  -24.1180  -20.6192   20.2345 C   0  0  0  0  0  0  0  0  0  0  0  0
  -35.1409  -24.3043   20.4549 C   0  0  0  0  0  0  0  0  0  0  0  0
  -30.1733  -28.1000   21.2852 C   0  0  0  0  0  0  0  0  0  0  0  0
  -19.2013  -27.8920   23.3916 C   0  0  0  0  0  0  0  0  0  0  0  0
  -29.3168  -29.6243   19.4277 C   0  0  0  0  0  0  0  0  0  0  0  0
  -24.0948  -12.1970   20.4820 C   0  0  0  0  0  0  0  0  0  0  0  0
  -24.4043  -18.6382   18.8731 C   0  0  0  0  0  0  0  0  0  0  0  0
  -23.9833  -13.5593   20.8198 C   0  0  0  0  0  0  0  0  0  0  0  0
  -24.9460  -19.6021   19.7354 C   0  0  0  0  0  0  0  0  0  0  0  0
  -32.0820  -26.4817   22.5184 C   0  0  0  0  0  0  0  0  0  0  0  0
  -22.7731  -20.6839   19.8710 C   0  0  0  0  0  0  0  0  0  0  0  0
  -33.6915  -24.7800   22.3284 C   0  0  0  0  0  0  0  0  0  0  0  0
  -35.0581  -22.9407   20.7372 C   0  0  0  0  0  0  0  0  0  0  0  0
  -34.4576  -25.2239   21.2505 C   0  0  0  0  0  0  0  0  0  0  0  0
  -29.1870  -28.9353   20.6484 C   0  0  0  0  0  0  0  0  0  0  0  0
  -19.7888  -27.8632   22.1482 C   0  0  0  0  0  0  0  0  0  0  0  0
  -28.1133  -30.2663   19.2661 C   0  0  0  0  0  0  0  0  0  0  0  0
  -19.5231  -25.7828   22.7403 C   0  0  0  0  0  0  0  0  0  0  0  0
  -18.8494  -29.0755   24.1191 C   0  0  0  0  0  0  0  0  0  0  0  0
  -30.4260  -29.6791   18.5208 C   0  0  0  0  0  0  0  0  0  0  0  0
  -26.1860  -16.4967   20.4040 C   0  0  0  0  0  0  0  0  0  0  0  0
  -28.6040  -18.4960   19.5805 C   0  0  0  0  0  0  0  0  0  0  0  0
  -20.1362  -23.6961   21.4698 C   0  0  0  0  0  0  0  0  0  0  0  0
  -29.5915  -21.6464   18.7163 C   0  0  0  0  0  0  0  0  0  0  0  0
  -22.7004  -29.0413   21.2797 C   0  0  0  0  0  0  0  0  0  0  0  0
  -25.4035  -11.4560   20.5957 C   0  0  0  0  0  0  0  0  0  0  0  0
  -25.2739  -17.5511   18.3035 C   0  0  0  0  0  0  0  0  0  0  0  0
  -26.3940  -19.5721   20.1489 C   0  0  0  0  0  0  0  0  0  0  0  0
  -26.6198  -12.3756   20.6688 C   0  0  0  0  0  0  0  0  0  0  0  0
  -24.5006  -32.1399   21.7852 C   0  0  0  0  0  0  0  0  0  0  0  0
  -26.3765  -13.5043   21.6656 C   0  0  0  0  0  0  0  0  0  0  0  0
  -25.9290  -31.7232   21.4299 C   0  0  0  0  0  0  0  0  0  0  0  0
  -23.7650  -31.0222   22.5187 C   0  0  0  0  0  0  0  0  0  0  0  0
  -25.1599  -29.3048   21.4332 C   0  0  0  0  0  0  0  0  0  0  0  0
  -25.1891  -14.3740   21.2353 C   0  0  1  0  0  0  0  0  0  0  0  0
  -26.5078  -17.2657   19.1539 C   0  0  1  0  0  0  0  0  0  0  0  0
  -25.9493  -30.3838   20.6697 C   0  0  2  0  0  0  0  0  0  0  0  0
  -18.2085  -28.9150   25.4780 C   0  0  0  0  0  0  0  0  0  0  0  0
  -31.6370  -22.9813   18.1409 C   0  0  0  0  0  0  0  0  0  0  0  0
  -29.3905  -18.5566   22.5280 C   0  0  0  0  0  0  0  0  0  0  0  0
  -30.7788  -20.5832   22.0440 C   0  0  0  0  0  0  0  0  0  0  0  0
  -31.3151  -18.4128   20.9374 C   0  0  0  0  0  0  0  0  0  0  0  0
  -28.5517  -22.2960   16.0227 C   0  0  0  0  0  0  0  0  0  0  0  0
  -20.2235  -28.9099   21.2109 C   0  0  0  0  0  0  0  0  0  0  0  0
  -20.0416  -22.1905   21.6892 C   0  0  0  0  0  0  0  0  0  0  0  0
  -20.5960  -21.3812   20.5265 C   0  0  0  0  0  0  0  0  0  1  0  0
  -29.2609  -19.6977   20.2156 C   0  0  1  0  0  0  0  0  0  0  0  0
  -30.4850  -22.1506   17.5974 C   0  0  2  0  0  0  0  0  0  0  0  0
  -30.1585  -19.3123   21.4252 C   0  0  0  0  0  0  0  0  0  0  0  0
  -27.9952  -29.1221   21.2218 N   0  0  0  0  0  0  0  0  0  0  0  0
  -27.3651  -29.9359   20.3576 N   0  0  0  0  0  0  0  0  0  0  0  0
  -27.2020  -18.4860   19.5701 N   0  0  0  0  0  0  0  0  0  0  0  0
  -23.8054  -29.7804   21.7336 N   0  0  0  0  0  0  0  0  0  0  0  0
  -27.6328  -31.0756   18.2984 N   0  0  0  0  0  0  0  0  0  0  0  0
  -31.5860  -28.9602   18.8399 N   0  0  0  0  0  0  0  0  0  0  0  0
  -19.6149  -24.3816   22.5639 N   0  0  0  0  0  0  0  0  0  0  0  0
  -25.5815  -15.2757   20.1735 N   0  0  0  0  0  0  0  0  0  0  0  0
  -29.9677  -20.3906   19.1438 N   0  0  0  0  0  0  0  0  0  0  0  0
  -21.4533  -29.5559   21.6124 N   0  0  0  0  0  0  0  0  0  0  0  0
  -29.7028  -22.9945   16.6503 N   0  3  0  0  0  0  0  0  0  0  0  0
  -19.0196  -30.2461   23.7305 O   0  0  0  0  0  0  0  0  0  0  0  0
  -30.3955  -30.3591   17.4672 O   0  0  0  0  0  0  0  0  0  0  0  0
  -26.4667  -16.9751   21.4968 O   0  0  0  0  0  0  0  0  0  0  0  0
  -29.3089  -17.6026   19.1045 O   0  0  0  0  0  0  0  0  0  0  0  0
  -20.6151  -24.1783   20.4488 O   0  0  0  0  0  0  0  0  0  0  0  0
  -28.6559  -22.3026   19.1686 O   0  0  0  0  0  0  0  0  0  0  0  0
  -22.8164  -28.0018   20.6216 O   0  0  0  0  0  0  0  0  0  0  0  0
  -19.9881  -26.5813   21.7439 O   0  0  0  0  0  0  0  0  0  0  0  0
  -33.0132  -25.6918   23.1197 O   0  0  0  0  0  0  0  0  0  0  0  0
  -21.9823  -21.6768   20.3615 O   0  0  0  0  0  0  0  0  0  1  0  0
  -35.7154  -22.0576   19.9741 F   0  0  0  0  0  0  0  0  0  0  0  0
  -34.5419  -26.5327   20.9752 F   0  0  0  0  0  0  0  0  0  0  0  0
  1  2  1  0  0  0  0
  1  5  2  0  0  0  0
  2  6  2  0  0  0  0
  3  8  2  0  0  0  0
  3 16  1  0  0  0  0
  4  9  1  0  0  0  0
  4 16  2  0  0  0  0
  5 19  1  0  0  0  0
  6 21  1  0  0  0  0
  7 10  2  0  0  0  0
  7 20  1  0  0  0  0
  8 23  1  0  0  0  0
  9 23  2  0  0  0  0
 10 24  1  0  0  0  0
 11 12  2  0  0  0  0
 11 25  1  0  0  0  0
 12 26  1  0  0  0  0
 13 17  1  0  0  0  0
 13 31  2  0  0  0  0
 14 22  1  0  0  0  0
 14 24  2  0  0  0  0
 15 26  2  0  0  0  0
 15 27  1  0  0  0  0
 16 28  1  0  0  0  0
 17 29  2  0  0  0  0
 17 32  1  0  0  0  0
 18 28  1  0  0  0  0
 18 30  2  0  0  0  0
 18 33  1  0  0  0  0
 19 21  2  0  0  0  0
 19 39  1  0  0  0  0
 20 22  2  0  0  0  0
 20 40  1  0  0  0  0
 21 48  1  0  0  0  0
 22 41  1  0  0  0  0
 23 82  1  0  0  0  0
 24 83  1  0  0  0  0
 25 27  2  0  0  0  0
 25 82  1  0  0  0  0
 26 84  1  0  0  0  0
 27 85  1  0  0  0  0
 28 63  2  0  0  0  0
 29 57  1  0  0  0  0
 29 81  1  0  0  0  0
 30 64  1  0  0  0  0
 30 67  1  0  0  0  0
 31 69  1  0  0  0  0
 31 81  1  0  0  0  0
 32 51  1  0  0  0  0
 32 74  2  0  0  0  0
 33 68  1  0  0  0  0
 33 75  2  0  0  0  0
 34 49  1  0  0  0  0
 34 70  1  0  0  0  0
 34 76  2  0  0  0  0
 35 60  1  0  0  0  0
 35 65  1  0  0  0  0
 35 77  2  0  0  0  0
 36 58  1  0  0  0  0
 36 69  1  0  0  0  0
 36 78  2  0  0  0  0
 37 61  1  0  0  0  0
 37 71  1  0  0  0  0
 37 79  2  0  0  0  0
 38 66  1  0  0  0  0
 38 72  1  0  0  0  0
 38 80  2  0  0  0  0
 39 42  1  0  0  0  0
 40 49  1  0  0  0  0
 41 65  1  0  0  0  0
 42 44  1  0  0  0  0
 43 45  1  0  0  0  0
 43 46  1  0  0  0  0
 44 48  1  0  0  0  0
 45 50  1  0  0  0  0
 46 66  1  0  0  0  0
 47 50  1  0  0  0  0
 47 66  1  0  0  0  0
 48 70  1  0  0  0  0
 49 65  1  0  0  0  0
 50 64  1  0  0  0  0
 52 61  1  0  0  0  0
 53 62  1  0  0  0  0
 54 62  1  0  0  0  0
 55 62  1  0  0  0  0
 56 73  1  0  0  0  0
 57 72  1  0  0  0  0
 58 59  1  0  0  0  0
 59 83  1  0  0  0  0
 60 62  1  0  0  0  0
 60 71  1  0  0  0  0
 61 73  1  0  0  0  0
 63 64  1  0  0  0  0
M  CHG  1  73   1
M  ISO  4  38 100  59 101  72 100  83 101
M  END
> <Batch ID>
0162

> <Smiles>
CNC(C)C(=O)NC(C(=O)N1Cc2cc([101O:1][101CH2:1]CC(=O)Nc3cc(C(C)=O)c(C[100NH:0][100C:0](=O)N4CCCC(n5nc(-c6ccc(Oc7ccc(F)cc7F)cc6)c(C(N)=O)c5N)C4)o3)ccc2CC1C(=O)NC1CCCc2ccccc21)C(C)(C)C

> <Shape>
0.229

> <Color>
0.075

> <Negative vol penalty>
0.000

$$$$

  -OEChem-04052303563D

 82 90  0     1  0  0  0  0  0999 V2000
  -31.5917  -26.3117   17.3707 C   0  0  0  0  0  0  0  0  0  0  0  0
  -30.2802  -25.8501   17.3733 C   0  0  0  0  0  0  0  0  0  0  0  0
  -26.0545  -22.1970   23.1101 C   0  0  0  0  0  0  0  0  0  0  0  0
  -28.2699  -22.2710   24.0712 C   0  0  0  0  0  0  0  0  0  0  0  0
  -32.0285  -27.1638   18.3827 C   0  0  0  0  0  0  0  0  0  0  0  0
  -29.4019  -26.2499   18.3811 C   0  0  0  0  0  0  0  0  0  0  0  0
  -24.6904  -24.9193   17.8972 C   0  0  0  0  0  0  0  0  0  0  0  0
  -25.5832  -23.0196   24.1332 C   0  0  0  0  0  0  0  0  0  0  0  0
  -27.7986  -23.0936   25.0943 C   0  0  0  0  0  0  0  0  0  0  0  0
  -24.2568  -23.6054   18.0688 C   0  0  0  0  0  0  0  0  0  0  0  0
  -26.0713  -22.7404   27.9791 C   0  0  0  0  0  0  0  0  0  0  0  0
  -26.4665  -22.4435   29.2834 C   0  0  0  0  0  0  0  0  0  0  0  0
  -22.0183  -14.6029   19.0480 C   0  0  0  0  0  0  0  0  0  0  0  0
  -21.1079  -15.6734   18.8792 C   0  0  0  0  0  0  0  0  0  0  0  0
  -23.3839  -24.1837   20.2420 C   0  0  0  0  0  0  0  0  0  0  0  0
  -27.4979  -24.6206   29.4664 C   0  0  0  0  0  0  0  0  0  0  0  0
  -27.3979  -21.8226   23.0791 C   0  0  0  0  0  0  0  0  0  0  0  0
  -28.4108  -21.3761   20.7808 C   0  0  0  0  0  0  0  0  0  0  0  0
  -31.1580  -27.5639   19.4100 C   0  0  0  0  0  0  0  0  0  0  0  0
  -24.4833  -25.8743   18.9030 C   0  0  0  0  0  0  0  0  0  0  0  0
  -29.8172  -27.1286   19.3980 C   0  0  0  0  0  0  0  0  0  0  0  0
  -23.8135  -25.5096   20.0797 C   0  0  0  0  0  0  0  0  0  0  0  0
  -26.4552  -23.4679   25.1253 C   0  0  0  0  0  0  0  0  0  0  0  0
  -23.6060  -23.2367   19.2425 C   0  0  0  0  0  0  0  0  0  0  0  0
  -26.3894  -23.9773   27.4184 C   0  0  0  0  0  0  0  0  0  0  0  0
  -27.1798  -23.3836   30.0271 C   0  0  0  0  0  0  0  0  0  0  0  0
  -27.1027  -24.9174   28.1621 C   0  0  0  0  0  0  0  0  0  0  0  0
  -27.8852  -20.9724   22.0228 C   0  0  0  0  0  0  0  0  0  0  0  0
  -23.1642  -15.1550   19.5716 C   0  0  0  0  0  0  0  0  0  0  0  0
  -28.7273  -20.2012   20.1437 C   0  0  0  0  0  0  0  0  0  0  0  0
  -21.7623  -16.8032   19.3119 C   0  0  0  0  0  0  0  0  0  0  0  0
  -24.4508  -14.5494   19.9586 C   0  0  0  0  0  0  0  0  0  0  0  0
  -28.5963  -22.6951   20.2504 C   0  0  0  0  0  0  0  0  0  0  0  0
  -26.3790  -27.6617   20.7237 C   0  0  0  0  0  0  0  0  0  0  0  0
  -23.5714  -28.9750   21.6800 C   0  0  0  0  0  0  0  0  0  0  0  0
  -22.0928  -19.2443   19.8373 C   0  0  0  0  0  0  0  0  0  0  0  0
  -20.1961  -28.6404   22.0572 C   0  0  0  0  0  0  0  0  0  0  0  0
  -26.5989  -14.6235   20.7780 C   0  0  0  0  0  0  0  0  0  0  0  0
  -31.6812  -28.4938   20.4762 C   0  0  0  0  0  0  0  0  0  0  0  0
  -24.9333  -27.2938   18.6913 C   0  0  0  0  0  0  0  0  0  0  0  0
  -23.5485  -26.5019   21.1813 C   0  0  0  0  0  0  0  0  0  0  0  0
  -30.8158  -28.5050   21.7321 C   0  0  0  0  0  0  0  0  0  0  0  0
  -30.0356  -15.6896   21.0169 C   0  0  0  0  0  0  0  0  0  0  0  0
  -29.3546  -28.6969   21.3547 C   0  0  0  0  0  0  0  0  0  0  0  0
  -29.9170  -17.1996   21.2228 C   0  0  0  0  0  0  0  0  0  0  0  0
  -28.8954  -14.9402   21.6995 C   0  0  0  0  0  0  0  0  0  0  0  0
  -27.4136  -16.9176   21.4926 C   0  0  0  0  0  0  0  0  0  0  0  0
  -28.8526  -27.5257   20.5008 C   0  0  1  0  0  0  0  0  0  0  0  0
  -25.1262  -28.0603   19.9962 C   0  0  1  0  0  0  0  0  0  0  0  0
  -28.5304  -17.7093   20.7910 C   0  0  1  0  0  0  0  0  0  0  0  0
  -18.1770  -29.8680   22.9021 C   0  0  0  0  0  0  0  0  0  0  0  0
  -24.4185  -28.3872   24.5517 C   0  0  0  0  0  0  0  0  0  0  0  0
  -22.0404  -28.7381   25.2514 C   0  0  0  0  0  0  0  0  0  0  0  0
  -23.3251  -30.6119   24.2213 C   0  0  0  0  0  0  0  0  0  0  0  0
  -18.9107  -28.5969   19.3918 C   0  0  0  0  0  0  0  0  0  0  0  0
  -21.2731  -20.5258   19.7377 C   0  0  0  0  0  0  0  0  0  0  0  0
  -22.0252  -21.7555   20.2238 C   0  0  0  0  0  0  0  0  0  1  0  0
  -22.5712  -28.6821   22.7722 C   0  0  1  0  0  0  0  0  0  0  0  0
  -19.0455  -29.5609   21.6920 C   0  0  2  0  0  0  0  0  0  0  0  0
  -23.0954  -29.0854   24.1794 C   0  0  0  0  0  0  0  0  0  0  0  0
  -27.8671  -19.6448   22.1681 N   0  0  0  0  0  0  0  0  0  0  0  0
  -25.4198  -15.2585   20.4376 N   0  0  0  0  0  0  0  0  0  0  0  0
  -28.3851  -19.2040   21.0090 N   0  0  0  0  0  0  0  0  0  0  0  0
  -24.0133  -27.8760   20.9298 N   0  0  0  0  0  0  0  0  0  0  0  0
  -27.5956  -15.4741   21.2903 N   0  0  0  0  0  0  0  0  0  0  0  0
  -29.2621  -19.9340   18.9333 N   0  0  0  0  0  0  0  0  0  0  0  0
  -28.2174  -23.7912   21.0375 N   0  0  0  0  0  0  0  0  0  0  0  0
  -21.3540  -18.1566   19.3796 N   0  0  0  0  0  0  0  0  0  0  0  0
  -27.5367  -27.8428   19.9913 N   0  0  0  0  0  0  0  0  0  0  0  0
  -21.3336  -29.3487   22.3819 N   0  0  0  0  0  0  0  0  0  0  0  0
  -18.1898  -28.9310   20.6471 N   0  3  0  0  0  0  0  0  0  0  0  0
  -29.0684  -22.8954   19.1056 O   0  0  0  0  0  0  0  0  0  0  0  0
  -26.3013  -27.2237   21.8655 O   0  0  0  0  0  0  0  0  0  0  0  0
  -23.9412  -30.1371   21.4944 O   0  0  0  0  0  0  0  0  0  0  0  0
  -23.2403  -19.2353   20.2703 O   0  0  0  0  0  0  0  0  0  0  0  0
  -20.0947  -27.4155   22.0582 O   0  0  0  0  0  0  0  0  0  0  0  0
  -26.7859  -13.4104   20.6578 O   0  0  0  0  0  0  0  0  0  0  0  0
  -23.0163  -16.4958   19.7356 O   0  0  0  0  0  0  0  0  0  0  0  0
  -25.9957  -24.2709   26.1236 O   0  0  0  0  0  0  0  0  0  0  0  0
  -23.1824  -21.9548   19.4129 O   0  0  0  0  0  0  0  0  0  1  0  0
  -27.5579  -23.0990   31.2802 F   0  0  0  0  0  0  0  0  0  0  0  0
  -27.4103  -26.1079   27.6292 F   0  0  0  0  0  0  0  0  0  0  0  0
  1  2  1  0  0  0  0
  1  5  2  0  0  0  0
  2  6  2  0  0  0  0
  3  8  2  0  0  0  0
  3 17  1  0  0  0  0
  4  9  1  0  0  0  0
  4 17  2  0  0  0  0
  5 19  1  0  0  0  0
  6 21  1  0  0  0  0
  7 10  2  0  0  0  0
  7 20  1  0  0  0  0
  8 23  1  0  0  0  0
  9 23  2  0  0  0  0
 10 24  1  0  0  0  0
 11 12  2  0  0  0  0
 11 25  1  0  0  0  0
 12 26  1  0  0  0  0
 13 14  1  0  0  0  0
 13 29  2  0  0  0  0
 14 31  2  0  0  0  0
 15 22  1  0  0  0  0
 15 24  2  0  0  0  0
 16 26  2  0  0  0  0
 16 27  1  0  0  0  0
 17 28  1  0  0  0  0
 18 28  1  0  0  0  0
 18 30  2  0  0  0  0
 18 33  1  0  0  0  0
 19 21  2  0  0  0  0
 19 39  1  0  0  0  0
 20 22  2  0  0  0  0
 20 40  1  0  0  0  0
 21 48  1  0  0  0  0
 22 41  1  0  0  0  0
 23 79  1  0  0  0  0
 24 80  1  0  0  0  0
 25 27  2  0  0  0  0
 25 79  1  0  0  0  0
 26 81  1  0  0  0  0
 27 82  1  0  0  0  0
 28 61  2  0  0  0  0
 29 32  1  0  0  0  0
 29 78  1  0  0  0  0
 30 63  1  0  0  0  0
 30 66  1  0  0  0  0
 31 68  1  0  0  0  0
 31 78  1  0  0  0  0
 32 62  2  0  0  0  0
 33 67  1  0  0  0  0
 33 72  2  0  0  0  0
 34 49  1  0  0  0  0
 34 69  1  0  0  0  0
 34 73  2  0  0  0  0
 35 58  1  0  0  0  0
 35 64  1  0  0  0  0
 35 74  2  0  0  0  0
 36 56  1  0  0  0  0
 36 68  1  0  0  0  0
 36 75  2  0  0  0  0
 37 59  1  0  0  0  0
 37 70  1  0  0  0  0
 37 76  2  0  0  0  0
 38 62  1  0  0  0  0
 38 65  1  0  0  0  0
 38 77  2  0  0  0  0
 39 42  1  0  0  0  0
 40 49  1  0  0  0  0
 41 64  1  0  0  0  0
 42 44  1  0  0  0  0
 43 45  1  0  0  0  0
 43 46  1  0  0  0  0
 44 48  1  0  0  0  0
 45 50  1  0  0  0  0
 46 65  1  0  0  0  0
 47 50  1  0  0  0  0
 47 65  1  0  0  0  0
 48 69  1  0  0  0  0
 49 64  1  0  0  0  0
 50 63  1  0  0  0  0
 51 59  1  0  0  0  0
 52 60  1  0  0  0  0
 53 60  1  0  0  0  0
 54 60  1  0  0  0  0
 55 71  1  0  0  0  0
 56 57  1  0  0  0  0
 57 80  1  0  0  0  0
 58 60  1  0  0  0  0
 58 70  1  0  0  0  0
 59 71  1  0  0  0  0
 61 63  1  0  0  0  0
M  CHG  1  71   1
M  ISO  4  38 100  57 101  62 100  80 101
M  END
> <Batch ID>
0162

> <Smiles>
CNC(C)C(=O)NC(C(=O)N1Cc2cc([101O:1][101CH2:1]CC(=O)Nc3ccc(C=[100N:0][100C:0](=O)N4CCCC(n5nc(-c6ccc(Oc7ccc(F)cc7F)cc6)c(C(N)=O)c5N)C4)o3)ccc2CC1C(=O)NC1CCCc2ccccc21)C(C)(C)C

> <Shape>
0.206

> <Color>
0.079

> <Negative vol penalty>
0.000

$$$$

  -OEChem-04052303563D

 85 94  0     1  0  0  0  0  0999 V2000
  -31.8170  -13.4491   22.0579 C   0  0  0  0  0  0  0  0  0  0  0  0
  -31.0645  -14.5717   22.3878 C   0  0  0  0  0  0  0  0  0  0  0  0
  -28.2108  -24.6494   18.5435 C   0  0  0  0  0  0  0  0  0  0  0  0
  -29.5303  -26.3390   19.6575 C   0  0  0  0  0  0  0  0  0  0  0  0
  -31.3442  -12.5506   21.1023 C   0  0  0  0  0  0  0  0  0  0  0  0
  -29.8392  -14.7971   21.7615 C   0  0  0  0  0  0  0  0  0  0  0  0
  -24.8460  -17.3286   24.2445 C   0  0  0  0  0  0  0  0  0  0  0  0
  -29.1914  -23.6981   18.8246 C   0  0  0  0  0  0  0  0  0  0  0  0
  -30.5110  -25.3877   19.9386 C   0  0  0  0  0  0  0  0  0  0  0  0
  -24.3269  -18.6216   24.1958 C   0  0  0  0  0  0  0  0  0  0  0  0
  -31.1813  -20.7470   19.5637 C   0  0  0  0  0  0  0  0  0  0  0  0
  -30.7625  -19.5066   20.0449 C   0  0  0  0  0  0  0  0  0  0  0  0
  -22.8718  -17.9628   22.3881 C   0  0  0  0  0  0  0  0  0  0  0  0
  -29.7467  -20.5889   21.9511 C   0  0  0  0  0  0  0  0  0  0  0  0
  -18.8293  -26.4361   22.6280 C   0  0  0  0  0  0  0  0  0  0  0  0
  -28.3802  -25.9698   18.9599 C   0  0  0  0  0  0  0  0  0  0  0  0
  -20.1022  -26.3452   22.0388 C   0  0  0  0  0  0  0  0  0  0  0  0
  -26.9069  -27.3489   17.3994 C   0  0  0  0  0  0  0  0  0  0  0  0
  -30.1080  -12.7599   20.4710 C   0  0  0  0  0  0  0  0  0  0  0  0
  -24.3889  -16.3441   23.3566 C   0  0  0  0  0  0  0  0  0  0  0  0
  -29.3501  -13.9012   20.7956 C   0  0  0  0  0  0  0  0  0  0  0  0
  -23.3849  -16.6574   22.4293 C   0  0  0  0  0  0  0  0  0  0  0  0
  -30.3415  -24.0673   19.5222 C   0  0  0  0  0  0  0  0  0  0  0  0
  -23.3417  -18.9396   23.2656 C   0  0  0  0  0  0  0  0  0  0  0  0
  -30.8828  -21.9084   20.2763 C   0  0  0  0  0  0  0  0  0  0  0  0
  -30.0452  -19.4275   21.2386 C   0  0  0  0  0  0  0  0  0  0  0  0
  -30.1655  -21.8294   21.4699 C   0  0  0  0  0  0  0  0  0  0  0  0
  -27.3678  -26.9531   18.6693 C   0  0  0  0  0  0  0  0  0  0  0  0
  -25.9519  -28.3005   17.6621 C   0  0  0  0  0  0  0  0  0  0  0  0
  -20.6811  -27.5530   22.3260 C   0  0  0  0  0  0  0  0  0  0  0  0
  -21.3575  -21.8664   22.3494 C   0  0  0  0  0  0  0  0  0  0  0  0
  -21.3774  -22.8558   21.4390 C   0  0  0  0  0  0  0  0  0  0  0  0
  -20.7059  -25.2370   21.2859 C   0  0  0  0  0  0  0  0  0  0  0  0
  -27.3061  -26.8967   16.0987 C   0  0  0  0  0  0  0  0  0  0  0  0
  -25.7297  -14.5860   21.0730 C   0  0  0  0  0  0  0  0  0  0  0  0
  -22.8217  -13.1501   21.0115 C   0  0  0  0  0  0  0  0  0  0  0  0
  -19.4761  -13.3530   21.6542 C   0  0  0  0  0  0  0  0  0  0  0  0
  -22.4340  -29.3616   22.3741 C   0  0  0  0  0  0  0  0  0  0  0  0
  -29.6605  -11.7858   19.4101 C   0  0  0  0  0  0  0  0  0  0  0  0
  -24.9400  -14.9471   23.4398 C   0  0  0  0  0  0  0  0  0  0  0  0
  -22.8456  -15.6314   21.4675 C   0  0  0  0  0  0  0  0  0  0  0  0
  -20.7584  -22.3314   23.6449 C   0  0  0  0  0  0  0  0  0  0  0  0
  -28.1779  -11.8999   19.0649 C   0  0  0  0  0  0  0  0  0  0  0  0
  -24.7637  -31.6180   20.9051 C   0  0  0  0  0  0  0  0  0  0  0  0
  -27.7861  -13.3611   18.8700 C   0  0  0  0  0  0  0  0  0  0  0  0
  -25.6502  -30.7146   20.0447 C   0  0  0  0  0  0  0  0  0  0  0  0
  -20.4183  -23.7866   23.3530 C   0  0  0  0  0  0  0  0  0  0  0  0
  -24.3511  -30.9338   22.2071 C   0  0  0  0  0  0  0  0  0  0  0  0
  -24.6189  -28.7086   21.1845 C   0  0  0  0  0  0  0  0  0  0  0  0
  -28.0045  -14.1671   20.1562 C   0  0  1  0  0  0  0  0  0  0  0  0
  -24.7677  -14.1587   22.1452 C   0  0  1  0  0  0  0  0  0  0  0  0
  -25.0067  -29.3302   19.8329 C   0  0  2  0  0  0  0  0  0  0  0  0
  -21.8935  -22.7820   20.0412 C   0  0  0  0  0  0  0  0  0  0  0  0
  -17.3499  -12.0339   21.4630 C   0  0  0  0  0  0  0  0  0  0  0  0
  -22.7511  -13.7031   18.0116 C   0  0  0  0  0  0  0  0  0  0  0  0
  -20.2892  -13.2501   18.0567 C   0  0  0  0  0  0  0  0  0  0  0  0
  -21.8987  -11.4481   18.6771 C   0  0  0  0  0  0  0  0  0  0  0  0
  -19.0412  -13.4101   24.5810 C   0  0  0  0  0  0  0  0  0  0  0  0
  -21.8266  -20.4574   22.2376 C   0  0  0  0  0  0  0  0  0  1  0  0
  -21.5307  -13.3815   20.2640 C   0  0  1  0  0  0  0  0  0  0  0  0
  -18.5256  -12.3998   22.3557 C   0  0  2  0  0  0  0  0  0  0  0  0
  -21.6287  -12.9657   18.7690 C   0  0  0  0  0  0  0  0  0  0  0  0
  -18.6337  -27.6104   23.2343 N   0  0  0  0  0  0  0  0  0  0  0  0
  -26.7562  -27.6004   19.6648 N   0  0  0  0  0  0  0  0  0  0  0  0
  -25.9012  -28.4127   19.0204 N   0  0  0  0  0  0  0  0  0  0  0  0
  -20.8372  -24.0248   21.9599 N   0  0  0  0  0  0  0  0  0  0  0  0
  -23.4208  -14.2811   21.5839 N   0  0  0  0  0  0  0  0  0  0  0  0
  -23.7454  -29.6299   21.9280 N   0  0  0  0  0  0  0  0  0  0  0  0
  -25.1592  -29.0440   16.8613 N   0  0  0  0  0  0  0  0  0  0  0  0
  -28.3559  -27.5637   15.4526 N   0  0  0  0  0  0  0  0  0  0  0  0
  -21.9517  -28.1015   22.0220 N   0  0  0  0  0  0  0  0  0  0  0  0
  -26.9365  -13.9133   21.0992 N   0  0  0  0  0  0  0  0  0  0  0  0
  -20.4940  -12.6793   21.0127 N   0  0  0  0  0  0  0  0  0  0  0  0
  -17.9941  -13.0216   23.6014 N   0  3  0  0  0  0  0  0  0  0  0  0
  -21.0371  -25.4892   20.1305 O   0  0  0  0  0  0  0  0  0  0  0  0
  -26.7375  -25.9403   15.5194 O   0  0  0  0  0  0  0  0  0  0  0  0
  -25.4009  -15.4602   20.2797 O   0  0  0  0  0  0  0  0  0  0  0  0
  -23.2779  -12.0068   21.0909 O   0  0  0  0  0  0  0  0  0  0  0  0
  -19.3283  -14.5730   21.6702 O   0  0  0  0  0  0  0  0  0  0  0  0
  -21.7765  -30.1990   22.9974 O   0  0  0  0  0  0  0  0  0  0  0  0
  -19.8145  -28.3168   23.0391 O   0  0  0  0  0  0  0  0  0  0  0  0
  -31.2985  -23.1393   19.7968 O   0  0  0  0  0  0  0  0  0  0  0  0
  -22.8337  -20.2011   23.2155 O   0  0  0  0  0  0  0  0  0  1  0  0
  -29.6418  -18.2364   21.6998 F   0  0  0  0  0  0  0  0  0  0  0  0
  -29.8747  -22.9418   22.1583 F   0  0  0  0  0  0  0  0  0  0  0  0
  1  2  1  0  0  0  0
  1  5  2  0  0  0  0
  2  6  2  0  0  0  0
  3  8  2  0  0  0  0
  3 16  1  0  0  0  0
  4  9  1  0  0  0  0
  4 16  2  0  0  0  0
  5 19  1  0  0  0  0
  6 21  1  0  0  0  0
  7 10  2  0  0  0  0
  7 20  1  0  0  0  0
  8 23  1  0  0  0  0
  9 23  2  0  0  0  0
 10 24  1  0  0  0  0
 11 12  2  0  0  0  0
 11 25  1  0  0  0  0
 12 26  1  0  0  0  0
 13 22  1  0  0  0  0
 13 24  2  0  0  0  0
 14 26  2  0  0  0  0
 14 27  1  0  0  0  0
 15 17  1  0  0  0  0
 15 63  2  0  0  0  0
 16 28  1  0  0  0  0
 17 30  2  0  0  0  0
 17 33  1  0  0  0  0
 18 28  1  0  0  0  0
 18 29  2  0  0  0  0
 18 34  1  0  0  0  0
 19 21  2  0  0  0  0
 19 39  1  0  0  0  0
 20 22  2  0  0  0  0
 20 40  1  0  0  0  0
 21 50  1  0  0  0  0
 22 41  1  0  0  0  0
 23 82  1  0  0  0  0
 24 83  1  0  0  0  0
 25 27  2  0  0  0  0
 25 82  1  0  0  0  0
 26 84  1  0  0  0  0
 27 85  1  0  0  0  0
 28 64  2  0  0  0  0
 29 65  1  0  0  0  0
 29 69  1  0  0  0  0
 30 71  1  0  0  0  0
 30 81  1  0  0  0  0
 31 32  2  0  0  0  0
 31 42  1  0  0  0  0
 31 59  1  0  0  0  0
 32 53  1  0  0  0  0
 32 66  1  0  0  0  0
 33 66  1  0  0  0  0
 33 75  2  0  0  0  0
 34 70  1  0  0  0  0
 34 76  2  0  0  0  0
 35 51  1  0  0  0  0
 35 72  1  0  0  0  0
 35 77  2  0  0  0  0
 36 60  1  0  0  0  0
 36 67  1  0  0  0  0
 36 78  2  0  0  0  0
 37 61  1  0  0  0  0
 37 73  1  0  0  0  0
 37 79  2  0  0  0  0
 38 68  1  0  0  0  0
 38 71  1  0  0  0  0
 38 80  2  0  0  0  0
 39 43  1  0  0  0  0
 40 51  1  0  0  0  0
 41 67  1  0  0  0  0
 42 47  1  0  0  0  0
 43 45  1  0  0  0  0
 44 46  1  0  0  0  0
 44 48  1  0  0  0  0
 45 50  1  0  0  0  0
 46 52  1  0  0  0  0
 47 66  1  0  0  0  0
 48 68  1  0  0  0  0
 49 52  1  0  0  0  0
 49 68  1  0  0  0  0
 50 72  1  0  0  0  0
 51 67  1  0  0  0  0
 52 65  1  0  0  0  0
 54 61  1  0  0  0  0
 55 62  1  0  0  0  0
 56 62  1  0  0  0  0
 57 62  1  0  0  0  0
 58 74  1  0  0  0  0
 59 83  1  0  0  0  0
 60 62  1  0  0  0  0
 60 73  1  0  0  0  0
 61 74  1  0  0  0  0
 63 81  1  0  0  0  0
 64 65  1  0  0  0  0
M  CHG  1  74   1
M  ISO  4  38 100  59 101  71 100  83 101
M  END
> <Batch ID>
0162

> <Smiles>
CNC(C)C(=O)NC(C(=O)N1Cc2cc([101O:1][101CH2:1]C3=C(C)N(C(=O)c4cnoc4[100NH:0][100C:0](=O)N4CCCC(n5nc(-c6ccc(Oc7ccc(F)cc7F)cc6)c(C(N)=O)c5N)C4)CC3)ccc2CC1C(=O)NC1CCCc2ccccc21)C(C)(C)C

> <Shape>
0.243

> <Color>
0.073

> <Negative vol penalty>
0.000

$$$$

  -OEChem-04052303563D

 88 96  0     1  0  0  0  0  0999 V2000
  -26.3628  -27.1367   14.3550 C   0  0  0  0  0  0  0  0  0  0  0  0
  -26.2137  -25.7781   14.6149 C   0  0  0  0  0  0  0  0  0  0  0  0
  -31.2640  -21.1995   20.0204 C   0  0  0  0  0  0  0  0  0  0  0  0
  -28.9616  -20.4932   19.8270 C   0  0  0  0  0  0  0  0  0  0  0  0
  -26.3834  -28.0488   15.4093 C   0  0  0  0  0  0  0  0  0  0  0  0
  -26.0863  -25.3308   15.9294 C   0  0  0  0  0  0  0  0  0  0  0  0
  -22.8821  -20.2285   19.8045 C   0  0  0  0  0  0  0  0  0  0  0  0
  -30.9317  -22.4350   19.4648 C   0  0  0  0  0  0  0  0  0  0  0  0
  -28.6293  -21.7288   19.2715 C   0  0  0  0  0  0  0  0  0  0  0  0
  -23.1790  -19.2482   20.7503 C   0  0  0  0  0  0  0  0  0  0  0  0
  -29.4913  -25.3188   20.4855 C   0  0  0  0  0  0  0  0  0  0  0  0
  -30.0037  -26.4631   21.0964 C   0  0  0  0  0  0  0  0  0  0  0  0
  -23.1491  -20.9228   22.4864 C   0  0  0  0  0  0  0  0  0  0  0  0
  -31.1335  -27.0530   19.0439 C   0  0  0  0  0  0  0  0  0  0  0  0
  -25.2925  -13.4256   21.1978 C   0  0  0  0  0  0  0  0  0  0  0  0
  -30.2790  -20.2286   20.2015 C   0  0  0  0  0  0  0  0  0  0  0  0
  -31.1769  -18.7125   22.0462 C   0  0  0  0  0  0  0  0  0  0  0  0
  -26.2465  -27.6133   16.7368 C   0  0  0  0  0  0  0  0  0  0  0  0
  -22.7270  -21.5673   20.1916 C   0  0  0  0  0  0  0  0  0  0  0  0
  -26.1065  -26.2378   17.0026 C   0  0  0  0  0  0  0  0  0  0  0  0
  -22.8477  -21.9177   21.5439 C   0  0  0  0  0  0  0  0  0  0  0  0
  -29.6144  -22.6996   19.0904 C   0  0  0  0  0  0  0  0  0  0  0  0
  -23.3154  -19.5957   22.0911 C   0  0  0  0  0  0  0  0  0  0  0  0
  -29.7999  -25.0414   19.1537 C   0  0  0  0  0  0  0  0  0  0  0  0
  -30.8248  -27.3303   20.3757 C   0  0  0  0  0  0  0  0  0  0  0  0
  -30.6210  -25.9085   18.4330 C   0  0  0  0  0  0  0  0  0  0  0  0
  -30.6217  -18.9519   20.7749 C   0  0  0  0  0  0  0  0  0  0  0  0
  -24.1618  -12.7303   21.5750 C   0  0  0  0  0  0  0  0  0  0  0  0
  -26.2374  -12.6975   20.5040 C   0  0  0  0  0  0  0  0  0  0  0  0
  -31.3117  -17.3471   22.1104 C   0  0  0  0  0  0  0  0  0  0  0  0
  -24.9529  -10.8256   20.6193 C   0  0  0  0  0  0  0  0  0  0  0  0
  -31.5383  -19.6412   23.0770 C   0  0  0  0  0  0  0  0  0  0  0  0
  -23.0735  -13.3916   22.3226 C   0  0  0  0  0  0  0  0  0  0  0  0
  -24.2289  -24.2861   19.5162 C   0  0  0  0  0  0  0  0  0  0  0  0
  -22.2589  -14.3945   25.2170 C   0  0  0  0  0  0  0  0  0  0  0  0
  -22.8851  -16.5735   24.0529 C   0  0  0  0  0  0  0  0  0  0  0  0
  -21.8265  -25.5927   21.2608 C   0  0  0  0  0  0  0  0  0  0  0  0
  -19.4427  -25.1869   23.6690 C   0  0  0  0  0  0  0  0  0  0  0  0
  -28.4931  -12.8344   19.3907 C   0  0  0  0  0  0  0  0  0  0  0  0
  -26.3222  -28.6320   17.8464 C   0  0  0  0  0  0  0  0  0  0  0  0
  -22.3804  -22.6085   19.1629 C   0  0  0  0  0  0  0  0  0  0  0  0
  -22.6707  -23.3376   22.0140 C   0  0  0  0  0  0  0  0  0  0  0  0
  -25.8051  -28.1134   19.1857 C   0  0  0  0  0  0  0  0  0  0  0  0
  -31.9871  -13.5154   19.3182 C   0  0  0  0  0  0  0  0  0  0  0  0
  -26.3760  -26.7295   19.4787 C   0  0  0  0  0  0  0  0  0  0  0  0
  -32.0845  -14.9631   19.8050 C   0  0  0  0  0  0  0  0  0  0  0  0
  -30.7486  -13.2903   18.4527 C   0  0  0  0  0  0  0  0  0  0  0  0
  -29.5782  -15.1611   19.5477 C   0  0  0  0  0  0  0  0  0  0  0  0
  -25.9405  -25.7161   18.4134 C   0  0  1  0  0  0  0  0  0  0  0  0
  -22.7517  -24.0233   19.5962 C   0  0  1  0  0  0  0  0  0  0  0  0
  -30.7752  -15.4210   20.4769 C   0  0  2  0  0  0  0  0  0  0  0  0
  -20.9013  -14.4063   25.8721 C   0  0  0  0  0  0  0  0  0  0  0  0
  -17.6585  -26.4449   24.9065 C   0  0  0  0  0  0  0  0  0  0  0  0
  -23.9666  -26.9582   22.9535 C   0  0  0  0  0  0  0  0  0  0  0  0
  -22.2155  -27.3975   24.6880 C   0  0  0  0  0  0  0  0  0  0  0  0
  -21.9916  -28.3937   22.4120 C   0  0  0  0  0  0  0  0  0  0  0  0
  -17.3143  -23.4000   22.6512 C   0  0  0  0  0  0  0  0  0  0  0  0
  -23.1351  -17.3193   22.7555 C   0  0  0  0  0  0  0  0  0  1  0  0
  -22.3949  -15.1503   23.9175 C   0  0  1  0  0  0  0  0  0  0  0  0
  -21.6175  -25.9125   22.7213 C   0  0  1  0  0  0  0  0  0  0  0  0
  -17.9732  -25.5662   23.7059 C   0  0  2  0  0  0  0  0  0  0  0  0
  -22.4531  -27.1389   23.1849 C   0  0  0  0  0  0  0  0  0  0  0  0
  -30.4180  -17.8287   20.0813 N   0  0  0  0  0  0  0  0  0  0  0  0
  -23.9583  -11.4249   21.3014 N   0  0  0  0  0  0  0  0  0  0  0  0
  -26.0998  -11.3910   20.1966 N   0  0  0  0  0  0  0  0  0  0  0  0
  -30.8475  -16.8703   20.9198 N   0  0  0  0  0  0  0  0  0  0  0  0
  -22.3389  -24.3205   20.9694 N   0  0  0  0  0  0  0  0  0  0  0  0
  -29.5463  -13.7434   19.1556 N   0  0  0  0  0  0  0  0  0  0  0  0
  -31.7809  -16.5199   23.0685 N   0  0  0  0  0  0  0  0  0  0  0  0
  -24.7742   -9.4585   20.3149 N   0  0  0  0  0  0  0  0  0  0  0  0
  -30.5745  -19.9846   24.0349 N   0  0  0  0  0  0  0  0  0  0  0  0
  -27.4161  -13.3700   20.0963 N   0  0  0  0  0  0  0  0  0  0  0  0
  -23.3803  -14.4102   23.1435 N   0  0  0  0  0  0  0  0  0  0  0  0
  -24.5736  -25.2989   18.6417 N   0  0  0  0  0  0  0  0  0  0  0  0
  -20.1782  -26.0667   22.9035 N   0  0  0  0  0  0  0  0  0  0  0  0
  -21.8299  -12.9435   22.1497 N   0  3  0  0  0  0  0  0  0  0  0  0
  -17.1245  -24.3436   23.7829 N   0  3  0  0  0  0  0  0  0  0  0  0
  -32.6770  -20.1640   23.1369 O   0  0  0  0  0  0  0  0  0  0  0  0
  -24.9988  -23.6203   20.1986 O   0  0  0  0  0  0  0  0  0  0  0  0
  -23.1993  -13.7806   25.7208 O   0  0  0  0  0  0  0  0  0  0  0  0
  -23.0690  -17.1045   25.1479 O   0  0  0  0  0  0  0  0  0  0  0  0
  -21.5388  -26.4377   20.4095 O   0  0  0  0  0  0  0  0  0  0  0  0
  -19.8936  -24.2101   24.2633 O   0  0  0  0  0  0  0  0  0  0  0  0
  -28.5546  -11.6596   19.0192 O   0  0  0  0  0  0  0  0  0  0  0  0
  -29.2897  -23.9052   18.5484 O   0  0  0  0  0  0  0  0  0  0  0  0
  -23.6059  -18.6409   23.0163 O   0  0  0  0  0  0  0  0  0  1  0  0
  -31.3156  -28.4301   20.9620 F   0  0  0  0  0  0  0  0  0  0  0  0
  -30.9201  -25.6480   17.1529 F   0  0  0  0  0  0  0  0  0  0  0  0
  1  2  1  0  0  0  0
  1  5  2  0  0  0  0
  2  6  2  0  0  0  0
  3  8  2  0  0  0  0
  3 16  1  0  0  0  0
  4  9  1  0  0  0  0
  4 16  2  0  0  0  0
  5 18  1  0  0  0  0
  6 20  1  0  0  0  0
  7 10  2  0  0  0  0
  7 19  1  0  0  0  0
  8 22  1  0  0  0  0
  9 22  2  0  0  0  0
 10 23  1  0  0  0  0
 11 12  2  0  0  0  0
 11 24  1  0  0  0  0
 12 25  1  0  0  0  0
 13 21  1  0  0  0  0
 13 23  2  0  0  0  0
 14 25  2  0  0  0  0
 14 26  1  0  0  0  0
 15 28  1  0  0  0  0
 15 29  2  0  0  0  0
 16 27  1  0  0  0  0
 17 27  1  0  0  0  0
 17 30  2  0  0  0  0
 17 32  1  0  0  0  0
 18 20  2  0  0  0  0
 18 40  1  0  0  0  0
 19 21  2  0  0  0  0
 19 41  1  0  0  0  0
 20 49  1  0  0  0  0
 21 42  1  0  0  0  0
 22 85  1  0  0  0  0
 23 86  1  0  0  0  0
 24 26  2  0  0  0  0
 24 85  1  0  0  0  0
 25 87  1  0  0  0  0
 26 88  1  0  0  0  0
 27 63  2  0  0  0  0
 28 33  1  0  0  0  0
 28 64  2  0  0  0  0
 29 65  1  0  0  0  0
 29 72  1  0  0  0  0
 30 66  1  0  0  0  0
 30 69  1  0  0  0  0
 31 64  1  0  0  0  0
 31 65  2  0  0  0  0
 31 70  1  0  0  0  0
 32 71  1  0  0  0  0
 32 78  2  0  0  0  0
 33 73  1  0  0  0  0
 33 76  2  0  0  0  0
 34 50  1  0  0  0  0
 34 74  1  0  0  0  0
 34 79  2  0  0  0  0
 35 52  1  0  0  0  0
 35 59  1  0  0  0  0
 35 80  2  0  0  0  0
 36 58  1  0  0  0  0
 36 59  1  0  0  0  0
 36 81  2  0  0  0  0
 37 60  1  0  0  0  0
 37 67  1  0  0  0  0
 37 82  2  0  0  0  0
 38 61  1  0  0  0  0
 38 75  1  0  0  0  0
 38 83  2  0  0  0  0
 39 68  1  0  0  0  0
 39 72  1  0  0  0  0
 39 84  2  0  0  0  0
 40 43  1  0  0  0  0
 41 50  1  0  0  0  0
 42 67  1  0  0  0  0
 43 45  1  0  0  0  0
 44 46  1  0  0  0  0
 44 47  1  0  0  0  0
 45 49  1  0  0  0  0
 46 51  1  0  0  0  0
 47 68  1  0  0  0  0
 48 51  1  0  0  0  0
 48 68  1  0  0  0  0
 49 74  1  0  0  0  0
 50 67  1  0  0  0  0
 51 66  1  0  0  0  0
 53 61  1  0  0  0  0
 54 62  1  0  0  0  0
 55 62  1  0  0  0  0
 56 62  1  0  0  0  0
 57 77  1  0  0  0  0
 58 86  1  0  0  0  0
 59 73  1  0  0  0  0
 60 62  1  0  0  0  0
 60 75  1  0  0  0  0
 61 77  1  0  0  0  0
 63 66  1  0  0  0  0
M  CHG  2  76   1  77   1
M  ISO  4  39 100  58 101  72 100  86 101
M  END
> <Batch ID>
0162

> <Smiles>
CNC(C)C(=O)NC(C(=O)N1Cc2cc([101O:1][101CH2:1]C(=O)C(NC(=N)c3cc([100NH:0][100C:0](=O)N4CCCC(n5nc(-c6ccc(Oc7ccc(F)cc7F)cc6)c(C(N)=O)c5N)C4)nc(N)n3)C(C)=O)ccc2CC1C(=O)NC1CCCc2ccccc21)C(C)(C)C

> <Shape>
0.221

> <Color>
0.061

> <Negative vol penalty>
0.000

$$$$

  -OEChem-04052303563D

 85 93  0     1  0  0  0  0  0999 V2000
  -19.6918  -33.5703   20.4886 C   0  0  0  0  0  0  0  0  0  0  0  0
  -20.9409  -33.0455   20.1727 C   0  0  0  0  0  0  0  0  0  0  0  0
  -21.9782  -10.5912   20.2411 C   0  0  0  0  0  0  0  0  0  0  0  0
  -23.5917  -10.3454   22.0224 C   0  0  0  0  0  0  0  0  0  0  0  0
  -19.0172  -33.1254   21.6248 C   0  0  0  0  0  0  0  0  0  0  0  0
  -21.5165  -32.0762   20.9934 C   0  0  0  0  0  0  0  0  0  0  0  0
  -25.0408  -27.3857   19.2370 C   0  0  0  0  0  0  0  0  0  0  0  0
  -21.7224   -9.2206   20.2836 C   0  0  0  0  0  0  0  0  0  0  0  0
  -23.3359   -8.9748   22.0650 C   0  0  0  0  0  0  0  0  0  0  0  0
  -26.4232  -27.2055   19.2217 C   0  0  0  0  0  0  0  0  0  0  0  0
  -20.9647   -6.9231   23.3253 C   0  0  0  0  0  0  0  0  0  0  0  0
  -20.7985   -6.3351   24.5791 C   0  0  0  0  0  0  0  0  0  0  0  0
  -26.2932  -26.0749   21.3487 C   0  0  0  0  0  0  0  0  0  0  0  0
  -22.6781   -4.8802   24.1459 C   0  0  0  0  0  0  0  0  0  0  0  0
  -27.2093  -19.7766   23.3677 C   0  0  0  0  0  0  0  0  0  0  0  0
  -22.9129  -11.1535   21.1105 C   0  0  0  0  0  0  0  0  0  0  0  0
  -22.5248  -13.5793   21.7979 C   0  0  0  0  0  0  0  0  0  0  0  0
  -19.5806  -32.1432   22.4546 C   0  0  0  0  0  0  0  0  0  0  0  0
  -24.2743  -26.9208   20.3153 C   0  0  0  0  0  0  0  0  0  0  0  0
  -20.8494  -31.6188   22.1425 C   0  0  0  0  0  0  0  0  0  0  0  0
  -24.9010  -26.2482   21.3741 C   0  0  0  0  0  0  0  0  0  0  0  0
  -22.4013   -8.4125   21.1956 C   0  0  0  0  0  0  0  0  0  0  0  0
  -27.0500  -26.5525   20.2790 C   0  0  0  0  0  0  0  0  0  0  0  0
  -21.9876   -6.4897   22.4817 C   0  0  0  0  0  0  0  0  0  0  0  0
  -21.6552   -5.3136   24.9895 C   0  0  0  0  0  0  0  0  0  0  0  0
  -22.8443   -5.4683   22.8920 C   0  0  0  0  0  0  0  0  0  0  0  0
  -23.1779  -12.5691   21.0666 C   0  0  0  0  0  0  0  0  0  0  0  0
  -23.1399  -14.7419   21.4023 C   0  0  0  0  0  0  0  0  0  0  0  0
  -27.5849  -19.2640   22.1508 C   0  0  0  0  0  0  0  0  0  0  0  0
  -28.5120  -21.1646   22.4735 C   0  0  0  0  0  0  0  0  0  0  0  0
  -21.4576  -13.4760   22.7498 C   0  0  0  0  0  0  0  0  0  0  0  0
  -30.8582  -23.5753   20.8797 C   0  0  0  0  0  0  0  0  0  0  0  0
  -30.1924  -24.7825   20.2822 C   0  0  0  0  0  0  0  0  0  0  0  0
  -22.4092  -28.2879   22.4962 C   0  0  0  0  0  0  0  0  0  0  0  0
  -21.7685  -25.2138   23.3094 C   0  0  0  0  0  0  0  0  0  0  0  0
  -22.7664  -21.9502   23.3154 C   0  0  0  0  0  0  0  0  0  0  0  0
  -27.7277  -17.6635   20.2106 C   0  0  0  0  0  0  0  0  0  0  0  0
  -18.8345  -31.7281   23.6978 C   0  0  0  0  0  0  0  0  0  0  0  0
  -22.7808  -27.0995   20.3040 C   0  0  0  0  0  0  0  0  0  0  0  0
  -24.1208  -25.7122   22.5456 C   0  0  0  0  0  0  0  0  0  0  0  0
  -19.3472  -30.4271   24.3100 C   0  0  0  0  0  0  0  0  0  0  0  0
  -26.3803  -15.6307   17.6165 C   0  0  0  0  0  0  0  0  0  0  0  0
  -20.8704  -30.4388   24.3904 C   0  0  0  0  0  0  0  0  0  0  0  0
  -25.3733  -14.7361   18.3430 C   0  0  0  0  0  0  0  0  0  0  0  0
  -27.6209  -15.8956   18.4676 C   0  0  0  0  0  0  0  0  0  0  0  0
  -26.3437  -15.5208   20.5406 C   0  0  0  0  0  0  0  0  0  0  0  0
  -21.4957  -30.5480   22.9944 C   0  0  1  0  0  0  0  0  0  0  0  0
  -22.1614  -27.0400   21.6969 C   0  0  1  0  0  0  0  0  0  0  0  0
  -25.0484  -15.2790   19.7485 C   0  0  2  0  0  0  0  0  0  0  0  0
  -34.1579  -23.0602   22.2846 C   0  0  0  0  0  0  0  0  0  0  0  0
  -22.0492  -19.6724   24.0863 C   0  0  0  0  0  0  0  0  0  0  0  0
  -22.5443  -25.9402   26.1696 C   0  0  0  0  0  0  0  0  0  0  0  0
  -22.7299  -23.4934   26.6666 C   0  0  0  0  0  0  0  0  0  0  0  0
  -20.5368  -24.4614   25.9768 C   0  0  0  0  0  0  0  0  0  0  0  0
  -22.7128  -20.9030   20.5478 C   0  0  0  0  0  0  0  0  0  0  0  0
  -30.0570  -22.3032   20.8790 C   0  0  0  0  0  0  0  0  0  0  0  0
  -28.9092  -25.2220   20.9340 C   0  0  0  0  0  0  0  0  0  1  0  0
  -32.7676  -22.6209   21.8737 C   0  0  0  0  0  0  0  0  0  0  0  0
  -22.3758  -24.2106   24.2601 C   0  0  1  0  0  0  0  0  0  0  0  0
  -22.0363  -20.6730   22.9412 C   0  0  2  0  0  0  0  0  0  0  0  0
  -22.0619  -24.5381   25.7473 C   0  0  0  0  0  0  0  0  0  0  0  0
  -27.8068  -20.9946   23.5690 N   0  0  0  0  0  0  0  0  0  0  0  0
  -24.1345  -13.0480   20.2669 N   0  0  0  0  0  0  0  0  0  0  0  0
  -32.0596  -23.7563   21.3042 N   0  0  0  0  0  0  0  0  0  0  0  0
  -24.0869  -14.3719   20.4932 N   0  0  0  0  0  0  0  0  0  0  0  0
  -22.6639  -25.9172   22.4914 N   0  0  0  0  0  0  0  0  0  0  0  0
  -27.2360  -16.4121   19.7829 N   0  0  0  0  0  0  0  0  0  0  0  0
  -22.9576  -16.0344   21.7467 N   0  0  0  0  0  0  0  0  0  0  0  0
  -20.9421  -12.2055   23.0404 N   0  0  0  0  0  0  0  0  0  0  0  0
  -27.2677  -18.0659   21.4641 N   0  0  0  0  0  0  0  0  0  0  0  0
  -29.3280  -22.2296   22.1190 N   0  0  0  0  0  0  0  0  0  0  0  0
  -21.4519  -29.2686   22.3195 N   0  0  0  0  0  0  0  0  0  0  0  0
  -21.9061  -22.8997   23.8250 N   0  0  0  0  0  0  0  0  0  0  0  0
  -22.6777  -20.0382   21.7552 N   0  3  0  0  0  0  0  0  0  0  0  0
  -20.9642  -14.4823   23.3133 O   0  0  0  0  0  0  0  0  0  0  0  0
  -30.7392  -25.3224   19.3331 O   0  0  0  0  0  0  0  0  0  0  0  0
  -23.3952  -28.3555   23.2208 O   0  0  0  0  0  0  0  0  0  0  0  0
  -20.5441  -25.3625   23.2882 O   0  0  0  0  0  0  0  0  0  0  0  0
  -23.9792  -22.0902   23.1735 O   0  0  0  0  0  0  0  0  0  0  0  0
  -28.4784  -18.3416   19.5045 O   0  0  0  0  0  0  0  0  0  0  0  0
  -28.4296  -20.1563   21.5628 O   0  0  0  0  0  0  0  0  0  0  0  0
  -22.1518   -7.0751   21.2375 O   0  0  0  0  0  0  0  0  0  0  0  0
  -28.3992  -26.3758   20.2669 O   0  0  0  0  0  0  0  0  0  1  0  0
  -21.4964   -4.7501   26.1942 F   0  0  0  0  0  0  0  0  0  0  0  0
  -23.8295   -5.0485   22.0865 F   0  0  0  0  0  0  0  0  0  0  0  0
  1  2  1  0  0  0  0
  1  5  2  0  0  0  0
  2  6  2  0  0  0  0
  3  8  2  0  0  0  0
  3 16  1  0  0  0  0
  4  9  1  0  0  0  0
  4 16  2  0  0  0  0
  5 18  1  0  0  0  0
  6 20  1  0  0  0  0
  7 10  2  0  0  0  0
  7 19  1  0  0  0  0
  8 22  1  0  0  0  0
  9 22  2  0  0  0  0
 10 23  1  0  0  0  0
 11 12  2  0  0  0  0
 11 24  1  0  0  0  0
 12 25  1  0  0  0  0
 13 21  1  0  0  0  0
 13 23  2  0  0  0  0
 14 25  2  0  0  0  0
 14 26  1  0  0  0  0
 15 29  2  0  0  0  0
 15 62  1  0  0  0  0
 16 27  1  0  0  0  0
 17 27  1  0  0  0  0
 17 28  2  0  0  0  0
 17 31  1  0  0  0  0
 18 20  2  0  0  0  0
 18 38  1  0  0  0  0
 19 21  2  0  0  0  0
 19 39  1  0  0  0  0
 20 47  1  0  0  0  0
 21 40  1  0  0  0  0
 22 82  1  0  0  0  0
 23 83  1  0  0  0  0
 24 26  2  0  0  0  0
 24 82  1  0  0  0  0
 25 84  1  0  0  0  0
 26 85  1  0  0  0  0
 27 63  2  0  0  0  0
 28 65  1  0  0  0  0
 28 68  1  0  0  0  0
 29 70  1  0  0  0  0
 29 81  1  0  0  0  0
 30 62  2  0  0  0  0
 30 71  1  0  0  0  0
 30 81  1  0  0  0  0
 31 69  1  0  0  0  0
 31 75  2  0  0  0  0
 32 33  1  0  0  0  0
 32 56  1  0  0  0  0
 32 64  2  0  0  0  0
 33 57  1  0  0  0  0
 33 76  2  0  0  0  0
 34 48  1  0  0  0  0
 34 72  1  0  0  0  0
 34 77  2  0  0  0  0
 35 59  1  0  0  0  0
 35 66  1  0  0  0  0
 35 78  2  0  0  0  0
 36 60  1  0  0  0  0
 36 73  1  0  0  0  0
 36 79  2  0  0  0  0
 37 67  1  0  0  0  0
 37 70  1  0  0  0  0
 37 80  2  0  0  0  0
 38 41  1  0  0  0  0
 39 48  1  0  0  0  0
 40 66  1  0  0  0  0
 41 43  1  0  0  0  0
 42 44  1  0  0  0  0
 42 45  1  0  0  0  0
 43 47  1  0  0  0  0
 44 49  1  0  0  0  0
 45 67  1  0  0  0  0
 46 49  1  0  0  0  0
 46 67  1  0  0  0  0
 47 72  1  0  0  0  0
 48 66  1  0  0  0  0
 49 65  1  0  0  0  0
 50 58  1  0  0  0  0
 51 60  1  0  0  0  0
 52 61  1  0  0  0  0
 53 61  1  0  0  0  0
 54 61  1  0  0  0  0
 55 74  1  0  0  0  0
 56 71  1  0  0  0  0
 57 83  1  0  0  0  0
 58 64  1  0  0  0  0
 59 61  1  0  0  0  0
 59 73  1  0  0  0  0
 60 74  1  0  0  0  0
 63 65  1  0  0  0  0
M  CHG  1  74   1
M  ISO  4  37 100  57 101  70 100  83 101
M  END
> <Batch ID>
0162

> <Smiles>
CCN=C(CNc1ncc([100NH:0][100C:0](=O)N2CCCC(n3nc(-c4ccc(Oc5ccc(F)cc5F)cc4)c(C(N)=O)c3N)C2)o1)C(=O)[101CH2:1][101O:1]c1ccc2c(c1)CN(C(=O)C(NC(=O)C(C)NC)C(C)(C)C)C(C(=O)NC1CCCc3ccccc31)C2

> <Shape>
0.220

> <Color>
0.109

> <Negative vol penalty>
0.000

$$$$

  -OEChem-04052303563D

 86 94  0     1  0  0  0  0  0999 V2000
  -27.4465  -32.7912   27.4361 C   0  0  0  0  0  0  0  0  0  0  0  0
  -27.6356  -31.6679   26.6374 C   0  0  0  0  0  0  0  0  0  0  0  0
  -23.3363   -9.7315   21.3550 C   0  0  0  0  0  0  0  0  0  0  0  0
  -24.0911  -10.6506   23.4579 C   0  0  0  0  0  0  0  0  0  0  0  0
  -26.1711  -33.3355   27.5807 C   0  0  0  0  0  0  0  0  0  0  0  0
  -26.5492  -31.0877   25.9837 C   0  0  0  0  0  0  0  0  0  0  0  0
  -27.5791  -29.9197   21.1649 C   0  0  0  0  0  0  0  0  0  0  0  0
  -22.6846   -8.7045   22.0377 C   0  0  0  0  0  0  0  0  0  0  0  0
  -23.4393   -9.6237   24.1407 C   0  0  0  0  0  0  0  0  0  0  0  0
  -28.3250  -28.7644   20.9353 C   0  0  0  0  0  0  0  0  0  0  0  0
  -19.8061   -8.2959   23.7641 C   0  0  0  0  0  0  0  0  0  0  0  0
  -18.5073   -7.9766   23.3683 C   0  0  0  0  0  0  0  0  0  0  0  0
  -29.5228  -18.4401   21.2988 C   0  0  0  0  0  0  0  0  0  0  0  0
  -31.4186  -19.8161   21.8896 C   0  0  0  0  0  0  0  0  0  0  0  0
  -26.2983  -27.5685   20.4048 C   0  0  0  0  0  0  0  0  0  0  0  0
  -31.7670  -17.5948   21.0055 C   0  0  0  0  0  0  0  0  0  0  0  0
  -19.2183   -5.7264   22.8505 C   0  0  0  0  0  0  0  0  0  0  0  0
  -24.0397  -10.7045   22.0651 C   0  0  0  0  0  0  0  0  0  0  0  0
  -30.0386  -19.6391   21.7905 C   0  0  0  0  0  0  0  0  0  0  0  0
  -24.1834  -13.0193   21.0027 C   0  0  0  0  0  0  0  0  0  0  0  0
  -25.0700  -32.7674   26.9207 C   0  0  0  0  0  0  0  0  0  0  0  0
  -26.1837  -29.9051   21.0266 C   0  0  0  0  0  0  0  0  0  0  0  0
  -25.2576  -31.6242   26.1206 C   0  0  0  0  0  0  0  0  0  0  0  0
  -25.5372  -28.7255   20.6308 C   0  0  0  0  0  0  0  0  0  0  0  0
  -30.3870  -17.4179   20.9064 C   0  0  0  0  0  0  0  0  0  0  0  0
  -22.7360   -8.6507   23.4306 C   0  0  0  0  0  0  0  0  0  0  0  0
  -27.6844  -27.5878   20.5579 C   0  0  0  0  0  0  0  0  0  0  0  0
  -20.8111   -7.3305   23.7031 C   0  0  0  0  0  0  0  0  0  0  0  0
  -18.2134   -6.6919   22.9115 C   0  0  0  0  0  0  0  0  0  0  0  0
  -32.2829  -18.7939   21.4971 C   0  0  0  0  0  0  0  0  0  0  0  0
  -20.5172   -6.0458   23.2463 C   0  0  0  0  0  0  0  0  0  0  0  0
  -24.7137  -11.7652   21.3603 C   0  0  0  0  0  0  0  0  0  0  0  0
  -25.2140  -13.6560   20.3555 C   0  0  0  0  0  0  0  0  0  0  0  0
  -28.1432  -25.3595   21.1009 C   0  0  0  0  0  0  0  0  0  1  0  0
  -29.1239  -20.7215   22.2074 C   0  0  0  0  0  0  0  0  0  0  0  0
  -22.8761  -13.5604   21.2349 C   0  0  0  0  0  0  0  0  0  0  0  0
  -28.7940  -24.1985   20.9669 C   0  0  0  0  0  0  0  0  0  0  0  0
  -28.4204  -23.0732   21.8559 C   0  0  0  0  0  0  0  0  0  0  0  0
  -23.7302  -30.4056   22.9846 C   0  0  0  0  0  0  0  0  0  0  0  0
  -21.9988  -30.1281   20.2555 C   0  0  0  0  0  0  0  0  0  0  0  0
  -21.7831  -28.9184   17.0717 C   0  0  0  0  0  0  0  0  0  0  0  0
  -30.5817  -15.0860   19.9730 C   0  0  0  0  0  0  0  0  0  0  0  0
  -23.7027  -33.3629   27.1452 C   0  0  0  0  0  0  0  0  0  0  0  0
  -25.3961  -31.1666   21.2520 C   0  0  0  0  0  0  0  0  0  0  0  0
  -24.0434  -28.6626   20.4487 C   0  0  0  0  0  0  0  0  0  0  0  0
  -22.6660  -32.9119   26.1195 C   0  0  0  0  0  0  0  0  0  0  0  0
  -29.6615  -11.8876   18.7079 C   0  0  0  0  0  0  0  0  0  0  0  0
  -22.7367  -31.4015   25.9177 C   0  0  0  0  0  0  0  0  0  0  0  0
  -28.2486  -11.6738   19.2557 C   0  0  0  0  0  0  0  0  0  0  0  0
  -30.5548  -12.6151   19.7112 C   0  0  0  0  0  0  0  0  0  0  0  0
  -28.5957  -13.6625   20.7762 C   0  0  0  0  0  0  0  0  0  0  0  0
  -24.1081  -30.9810   25.3756 C   0  0  1  0  0  0  0  0  0  0  0  0
  -23.9297  -30.9046   21.5814 C   0  0  1  0  0  0  0  0  0  0  0  0
  -27.6405  -12.9911   19.7759 C   0  0  2  0  0  0  0  0  0  0  0  0
  -20.2306  -28.8204   15.1026 C   0  0  0  0  0  0  0  0  0  0  0  0
  -20.3385  -27.9969   21.6738 C   0  0  0  0  0  0  0  0  0  0  0  0
  -19.4703  -27.2837   19.4364 C   0  0  0  0  0  0  0  0  0  0  0  0
  -19.0142  -29.5894   20.2722 C   0  0  0  0  0  0  0  0  0  0  0  0
  -23.6998  -30.3642   15.3411 C   0  0  0  0  0  0  0  0  0  0  0  0
  -21.3490  -28.9854   19.5133 C   0  0  1  0  0  0  0  0  0  0  0  0
  -21.3678  -29.5786   15.7693 C   0  0  2  0  0  0  0  0  0  0  0  0
  -20.0709  -28.4642   20.2291 C   0  0  0  0  0  0  0  0  0  0  0  0
  -25.9825  -11.6123   20.9723 N   0  0  0  0  0  0  0  0  0  0  0  0
  -26.2582  -12.7786   20.3641 N   0  0  0  0  0  0  0  0  0  0  0  0
  -23.3166  -29.9206   20.6870 N   0  0  0  0  0  0  0  0  0  0  0  0
  -29.9161  -13.8555   20.1565 N   0  0  0  0  0  0  0  0  0  0  0  0
  -25.3199  -14.8751   19.7855 N   0  0  0  0  0  0  0  0  0  0  0  0
  -21.9379  -12.7722   21.9153 N   0  0  0  0  0  0  0  0  0  0  0  0
  -29.8632  -16.2002   20.4056 N   0  0  0  0  0  0  0  0  0  0  0  0
  -29.2153  -21.9025   21.5800 N   0  0  0  0  0  0  0  0  0  0  0  0
  -24.2004  -31.2647   23.9594 N   0  0  0  0  0  0  0  0  0  0  0  0
  -21.1203  -29.4599   18.1528 N   0  0  0  0  0  0  0  0  0  0  0  0
  -28.2570  -20.4592   23.1849 N   0  3  0  0  0  0  0  0  0  0  0  0
  -22.5184  -29.6273   14.8233 N   0  3  0  0  0  0  0  0  0  0  0  0
  -22.5444  -14.7025   20.8360 O   0  0  0  0  0  0  0  0  0  0  0  0
  -27.5585  -23.0964   22.7192 O   0  0  0  0  0  0  0  0  0  0  0  0
  -23.1883  -29.3221   23.1691 O   0  0  0  0  0  0  0  0  0  0  0  0
  -21.3631  -31.1691   20.4393 O   0  0  0  0  0  0  0  0  0  0  0  0
  -22.6098  -28.0105   17.1242 O   0  0  0  0  0  0  0  0  0  0  0  0
  -31.6946  -15.1494   19.4445 O   0  0  0  0  0  0  0  0  0  0  0  0
  -29.7952  -24.0004   20.0416 O   0  0  0  0  0  0  0  0  0  0  0  0
  -22.0999   -7.6489   24.0972 O   0  0  0  0  0  0  0  0  0  0  0  0
  -28.4100  -26.4587   20.3338 O   0  0  0  0  0  0  0  0  0  1  0  0
  -16.9658   -6.3850   22.5328 F   0  0  0  0  0  0  0  0  0  0  0  0
  -33.6081  -18.9639   21.5924 F   0  0  0  0  0  0  0  0  0  0  0  0
  -21.4782   -5.1137   23.1865 F   0  0  0  0  0  0  0  0  0  0  0  0
  1  2  1  0  0  0  0
  1  5  2  0  0  0  0
  2  6  2  0  0  0  0
  3  8  2  0  0  0  0
  3 18  1  0  0  0  0
  4  9  1  0  0  0  0
  4 18  2  0  0  0  0
  5 21  1  0  0  0  0
  6 23  1  0  0  0  0
  7 10  2  0  0  0  0
  7 22  1  0  0  0  0
  8 26  1  0  0  0  0
  9 26  2  0  0  0  0
 10 27  1  0  0  0  0
 11 12  2  0  0  0  0
 11 28  1  0  0  0  0
 12 29  1  0  0  0  0
 13 19  2  0  0  0  0
 13 25  1  0  0  0  0
 14 19  1  0  0  0  0
 14 30  2  0  0  0  0
 15 24  1  0  0  0  0
 15 27  2  0  0  0  0
 16 25  2  0  0  0  0
 16 30  1  0  0  0  0
 17 29  2  0  0  0  0
 17 31  1  0  0  0  0
 18 32  1  0  0  0  0
 19 35  1  0  0  0  0
 20 32  1  0  0  0  0
 20 33  2  0  0  0  0
 20 36  1  0  0  0  0
 21 23  2  0  0  0  0
 21 43  1  0  0  0  0
 22 24  2  0  0  0  0
 22 44  1  0  0  0  0
 23 52  1  0  0  0  0
 24 45  1  0  0  0  0
 25 69  1  0  0  0  0
 26 82  1  0  0  0  0
 27 83  1  0  0  0  0
 28 31  2  0  0  0  0
 28 82  1  0  0  0  0
 29 84  1  0  0  0  0
 30 85  1  0  0  0  0
 31 86  1  0  0  0  0
 32 63  2  0  0  0  0
 33 64  1  0  0  0  0
 33 67  1  0  0  0  0
 34 37  2  0  0  0  0
 34 83  1  0  0  0  0
 35 70  1  0  0  0  0
 35 73  2  0  0  0  0
 36 68  1  0  0  0  0
 36 75  2  0  0  0  0
 37 38  1  0  0  0  0
 37 81  1  0  0  0  0
 38 70  1  0  0  0  0
 38 76  2  0  0  0  0
 39 53  1  0  0  0  0
 39 71  1  0  0  0  0
 39 77  2  0  0  0  0
 40 60  1  0  0  0  0
 40 65  1  0  0  0  0
 40 78  2  0  0  0  0
 41 61  1  0  0  0  0
 41 72  1  0  0  0  0
 41 79  2  0  0  0  0
 42 66  1  0  0  0  0
 42 69  1  0  0  0  0
 42 80  2  0  0  0  0
 43 46  1  0  0  0  0
 44 53  1  0  0  0  0
 45 65  1  0  0  0  0
 46 48  1  0  0  0  0
 47 49  1  0  0  0  0
 47 50  1  0  0  0  0
 48 52  1  0  0  0  0
 49 54  1  0  0  0  0
 50 66  1  0  0  0  0
 51 54  1  0  0  0  0
 51 66  1  0  0  0  0
 52 71  1  0  0  0  0
 53 65  1  0  0  0  0
 54 64  1  0  0  0  0
 55 61  1  0  0  0  0
 56 62  1  0  0  0  0
 57 62  1  0  0  0  0
 58 62  1  0  0  0  0
 59 74  1  0  0  0  0
 60 62  1  0  0  0  0
 60 72  1  0  0  0  0
 61 74  1  0  0  0  0
 63 64  1  0  0  0  0
M  CHG  2  73   1  74   1
M  ISO  4  34 101  42 100  69 100  83 101
M  END
> <Batch ID>
0162

> <Smiles>
CNC(C)C(=O)NC(C(=O)N1Cc2cc([101O:1][101CH2:1]C(=O)C(=O)NC(=N)c3cc(F)cc([100NH:0][100C:0](=O)N4CCCC(n5nc(-c6ccc(Oc7ccc(F)cc7F)cc6)c(C(N)=O)c5N)C4)c3)ccc2CC1C(=O)NC1CCCc2ccccc21)C(C)(C)C

> <Shape>
0.320

> <Color>
0.190

> <Negative vol penalty>
0.000

$$$$

  -OEChem-04052303563D

 83 92  0     1  0  0  0  0  0999 V2000
  -28.5147  -37.3801   22.1253 C   0  0  0  0  0  0  0  0  0  0  0  0
  -28.9255  -36.1199   21.7027 C   0  0  0  0  0  0  0  0  0  0  0  0
  -23.0099  -13.2507   23.2585 C   0  0  0  0  0  0  0  0  0  0  0  0
  -24.3664  -11.3057   23.7211 C   0  0  0  0  0  0  0  0  0  0  0  0
  -27.4991  -37.4995   23.0731 C   0  0  0  0  0  0  0  0  0  0  0  0
  -28.3216  -34.9782   22.2286 C   0  0  0  0  0  0  0  0  0  0  0  0
  -27.2195  -29.7147   19.2984 C   0  0  0  0  0  0  0  0  0  0  0  0
  -22.3871  -13.1114   24.4988 C   0  0  0  0  0  0  0  0  0  0  0  0
  -23.7437  -11.1665   24.9615 C   0  0  0  0  0  0  0  0  0  0  0  0
  -27.9016  -28.4993   19.2647 C   0  0  0  0  0  0  0  0  0  0  0  0
  -20.8187   -9.9670   26.1601 C   0  0  0  0  0  0  0  0  0  0  0  0
  -20.4098   -8.6887   26.5400 C   0  0  0  0  0  0  0  0  0  0  0  0
  -26.4410  -27.6389   20.9810 C   0  0  0  0  0  0  0  0  0  0  0  0
  -21.8479   -8.8047   28.4780 C   0  0  0  0  0  0  0  0  0  0  0  0
  -31.1032  -18.3532   19.4970 C   0  0  0  0  0  0  0  0  0  0  0  0
  -23.9995  -12.3478   22.8696 C   0  0  0  0  0  0  0  0  0  0  0  0
  -24.0301  -12.4583   20.3212 C   0  0  0  0  0  0  0  0  0  0  0  0
  -26.8759  -36.3590   23.6037 C   0  0  0  0  0  0  0  0  0  0  0  0
  -26.1481  -29.9054   20.1828 C   0  0  0  0  0  0  0  0  0  0  0  0
  -27.2977  -35.0825   23.1854 C   0  0  0  0  0  0  0  0  0  0  0  0
  -25.7453  -28.8568   21.0221 C   0  0  0  0  0  0  0  0  0  0  0  0
  -22.7541  -12.0694   25.3503 C   0  0  0  0  0  0  0  0  0  0  0  0
  -27.5143  -27.4621   20.1081 C   0  0  0  0  0  0  0  0  0  0  0  0
  -21.7424  -10.6641   26.9390 C   0  0  0  0  0  0  0  0  0  0  0  0
  -20.9243   -8.1076   27.6990 C   0  0  0  0  0  0  0  0  0  0  0  0
  -22.2569  -10.0829   28.0979 C   0  0  0  0  0  0  0  0  0  0  0  0
  -24.6427  -12.4907   21.5882 C   0  0  0  0  0  0  0  0  0  0  0  0
  -25.0639  -12.6393   19.4352 C   0  0  0  0  0  0  0  0  0  0  0  0
  -29.9605  -17.7259   19.9275 C   0  0  0  0  0  0  0  0  0  0  0  0
  -29.6836  -19.8470   19.9170 C   0  0  0  0  0  0  0  0  0  0  0  0
  -22.6499  -12.2804   19.9759 C   0  0  0  0  0  0  0  0  0  0  0  0
  -25.5710  -31.8655   22.6177 C   0  0  0  0  0  0  0  0  0  0  0  0
  -22.6300  -30.5010   22.5123 C   0  0  0  0  0  0  0  0  0  0  0  0
  -20.7070  -27.8275   21.6172 C   0  0  0  0  0  0  0  0  0  0  0  0
  -30.4199  -15.2492   19.8898 C   0  0  0  0  0  0  0  0  0  0  0  0
  -25.8151  -36.5370   24.6609 C   0  0  0  0  0  0  0  0  0  0  0  0
  -25.4055  -31.2134   20.1880 C   0  0  0  0  0  0  0  0  0  0  0  0
  -24.5886  -29.0039   21.9755 C   0  0  0  0  0  0  0  0  0  0  0  0
  -24.9691  -35.2874   24.8914 C   0  0  0  0  0  0  0  0  0  0  0  0
  -29.7676  -11.8742   18.9621 C   0  0  0  0  0  0  0  0  0  0  0  0
  -25.8592  -34.0541   25.0071 C   0  0  0  0  0  0  0  0  0  0  0  0
  -29.2818  -22.2154   19.1193 C   0  0  0  0  0  0  0  0  0  0  0  0
  -29.0090  -21.6397   21.5716 C   0  0  0  0  0  0  0  0  0  0  0  0
  -28.4673  -23.4913   19.3316 C   0  0  0  0  0  0  0  0  0  0  0  0
  -28.1953  -22.9170   21.7777 C   0  0  0  0  0  0  0  0  0  0  0  0
  -28.3216  -11.6482   19.4094 C   0  0  0  0  0  0  0  0  0  0  0  0
  -30.5305  -12.7672   19.9389 C   0  0  0  0  0  0  0  0  0  0  0  0
  -28.4358  -13.8226   20.6923 C   0  0  0  0  0  0  0  0  0  0  0  0
  -26.6500  -33.8211   23.7141 C   0  0  1  0  0  0  0  0  0  0  0  0
  -28.8890  -21.1230   20.1280 C   0  0  0  0  0  0  0  0  0  0  0  0
  -24.6572  -31.4705   21.4923 C   0  0  1  0  0  0  0  0  0  0  0  0
  -28.5866  -24.0073   20.7716 C   0  0  0  0  0  0  0  0  0  0  0  0
  -27.6085  -12.9820   19.7061 C   0  0  2  0  0  0  0  0  0  0  0  0
  -18.3439  -26.9867   21.6949 C   0  0  0  0  0  0  0  0  0  0  0  0
  -22.9569  -29.8636   25.4782 C   0  0  0  0  0  0  0  0  0  0  0  0
  -21.0637  -28.2391   25.2664 C   0  0  0  0  0  0  0  0  0  0  0  0
  -20.6787  -30.6645   24.8283 C   0  0  0  0  0  0  0  0  0  0  0  0
  -20.5378  -27.6851   18.6659 C   0  0  0  0  0  0  0  0  0  0  0  0
  -27.7286  -25.2556   20.9692 C   0  0  0  0  0  0  0  0  0  1  0  0
  -21.9874  -29.2950   23.1539 C   0  0  1  0  0  0  0  0  0  0  0  0
  -19.3829  -27.7410   20.8799 C   0  0  2  0  0  0  0  0  0  0  0  0
  -21.6947  -29.5131   24.6652 C   0  0  0  0  0  0  0  0  0  0  0  0
  -30.9196  -19.7123   19.4922 N   0  0  0  0  0  0  0  0  0  0  0  0
  -25.9634  -12.6775   21.5178 N   0  0  0  0  0  0  0  0  0  0  0  0
  -26.1891  -12.7640   20.1958 N   0  0  0  0  0  0  0  0  0  0  0  0
  -23.8983  -30.3039   21.9479 N   0  0  0  0  0  0  0  0  0  0  0  0
  -29.7974  -14.0141   20.1686 N   0  0  0  0  0  0  0  0  0  0  0  0
  -25.1111  -12.7023   18.0875 N   0  0  0  0  0  0  0  0  0  0  0  0
  -22.1765  -10.9784   19.7642 N   0  0  0  0  0  0  0  0  0  0  0  0
  -29.6144  -16.3648   20.1160 N   0  0  0  0  0  0  0  0  0  0  0  0
  -25.8025  -33.2251   22.7037 N   0  0  0  0  0  0  0  0  0  0  0  0
  -20.8061  -28.9883   22.3546 N   0  0  0  0  0  0  0  0  0  0  0  0
  -19.5599  -27.0378   19.5779 N   0  3  0  0  0  0  0  0  0  0  0  0
  -21.8637  -13.2488   19.8426 O   0  0  0  0  0  0  0  0  0  0  0  0
  -26.0309  -31.0009   23.3544 O   0  0  0  0  0  0  0  0  0  0  0  0
  -22.0258  -31.5764   22.5056 O   0  0  0  0  0  0  0  0  0  0  0  0
  -21.5659  -26.9510   21.5489 O   0  0  0  0  0  0  0  0  0  0  0  0
  -31.5726  -15.3114   19.4547 O   0  0  0  0  0  0  0  0  0  0  0  0
  -29.0337  -18.6856   20.2025 O   0  0  0  0  0  0  0  0  0  0  0  0
  -22.1468  -11.9334   26.5608 O   0  0  0  0  0  0  0  0  0  0  0  0
  -28.1788  -26.2749   20.0777 O   0  0  0  0  0  0  0  0  0  1  0  0
  -20.5303   -6.8807   28.0646 F   0  0  0  0  0  0  0  0  0  0  0  0
  -23.1436  -10.7482   28.8509 F   0  0  0  0  0  0  0  0  0  0  0  0
  1  2  1  0  0  0  0
  1  5  2  0  0  0  0
  2  6  2  0  0  0  0
  3  8  2  0  0  0  0
  3 16  1  0  0  0  0
  4  9  1  0  0  0  0
  4 16  2  0  0  0  0
  5 18  1  0  0  0  0
  6 20  1  0  0  0  0
  7 10  2  0  0  0  0
  7 19  1  0  0  0  0
  8 22  1  0  0  0  0
  9 22  2  0  0  0  0
 10 23  1  0  0  0  0
 11 12  2  0  0  0  0
 11 24  1  0  0  0  0
 12 25  1  0  0  0  0
 13 21  1  0  0  0  0
 13 23  2  0  0  0  0
 14 25  2  0  0  0  0
 14 26  1  0  0  0  0
 15 29  2  0  0  0  0
 15 63  1  0  0  0  0
 16 27  1  0  0  0  0
 17 27  1  0  0  0  0
 17 28  2  0  0  0  0
 17 31  1  0  0  0  0
 18 20  2  0  0  0  0
 18 36  1  0  0  0  0
 19 21  2  0  0  0  0
 19 37  1  0  0  0  0
 20 49  1  0  0  0  0
 21 38  1  0  0  0  0
 22 80  1  0  0  0  0
 23 81  1  0  0  0  0
 24 26  2  0  0  0  0
 24 80  1  0  0  0  0
 25 82  1  0  0  0  0
 26 83  1  0  0  0  0
 27 64  2  0  0  0  0
 28 65  1  0  0  0  0
 28 68  1  0  0  0  0
 29 70  1  0  0  0  0
 29 79  1  0  0  0  0
 30 50  1  0  0  0  0
 30 63  2  0  0  0  0
 30 79  1  0  0  0  0
 31 69  1  0  0  0  0
 31 74  2  0  0  0  0
 32 51  1  0  0  0  0
 32 71  1  0  0  0  0
 32 75  2  0  0  0  0
 33 60  1  0  0  0  0
 33 66  1  0  0  0  0
 33 76  2  0  0  0  0
 34 61  1  0  0  0  0
 34 72  1  0  0  0  0
 34 77  2  0  0  0  0
 35 67  1  0  0  0  0
 35 70  1  0  0  0  0
 35 78  2  0  0  0  0
 36 39  1  0  0  0  0
 37 51  1  0  0  0  0
 38 66  1  0  0  0  0
 39 41  1  0  0  0  0
 40 46  1  0  0  0  0
 40 47  1  0  0  0  0
 41 49  1  0  0  0  0
 42 44  1  0  0  0  0
 42 50  1  0  0  0  0
 43 45  1  0  0  0  0
 43 50  1  0  0  0  0
 44 52  1  0  0  0  0
 45 52  1  0  0  0  0
 46 53  1  0  0  0  0
 47 67  1  0  0  0  0
 48 53  1  0  0  0  0
 48 67  1  0  0  0  0
 49 71  1  0  0  0  0
 51 66  1  0  0  0  0
 52 59  1  0  0  0  0
 53 65  1  0  0  0  0
 54 61  1  0  0  0  0
 55 62  1  0  0  0  0
 56 62  1  0  0  0  0
 57 62  1  0  0  0  0
 58 73  1  0  0  0  0
 59 81  1  0  0  0  0
 60 62  1  0  0  0  0
 60 72  1  0  0  0  0
 61 73  1  0  0  0  0
 64 65  1  0  0  0  0
M  CHG  1  73   1
M  ISO  4  35 100  59 101  70 100  81 101
M  END
> <Batch ID>
0162

> <Smiles>
CNC(C)C(=O)NC(C(=O)N1Cc2cc([101O:1][101CH2:1]C3CCC(c4ncc([100NH:0][100C:0](=O)N5CCCC(n6nc(-c7ccc(Oc8ccc(F)cc8F)cc7)c(C(N)=O)c6N)C5)o4)CC3)ccc2CC1C(=O)NC1CCCc2ccccc21)C(C)(C)C

> <Shape>
0.309

> <Color>
0.107

> <Negative vol penalty>
0.000

$$$$

  -OEChem-04052303563D

 88 96  0     1  0  0  0  0  0999 V2000
  -19.5983  -21.7519   23.9586 C   0  0  0  0  0  0  0  0  0  0  0  0
  -20.6349  -22.0950   23.0965 C   0  0  0  0  0  0  0  0  0  0  0  0
  -25.8319  -13.5445   21.4220 C   0  0  0  0  0  0  0  0  0  0  0  0
  -26.5650  -13.4517   19.1218 C   0  0  0  0  0  0  0  0  0  0  0  0
  -18.5910  -22.6746   24.2377 C   0  0  0  0  0  0  0  0  0  0  0  0
  -20.6641  -23.3607   22.5121 C   0  0  0  0  0  0  0  0  0  0  0  0
  -25.6296  -26.6988   21.2058 C   0  0  0  0  0  0  0  0  0  0  0  0
  -24.7762  -12.6842   21.1203 C   0  0  0  0  0  0  0  0  0  0  0  0
  -25.5094  -12.5914   18.8200 C   0  0  0  0  0  0  0  0  0  0  0  0
  -26.3446  -26.8939   20.0250 C   0  0  0  0  0  0  0  0  0  0  0  0
  -24.3249   -9.3678   20.6396 C   0  0  0  0  0  0  0  0  0  0  0  0
  -24.0761   -8.3137   21.5185 C   0  0  0  0  0  0  0  0  0  0  0  0
  -29.6344  -19.9772   15.3590 C   0  0  0  0  0  0  0  0  0  0  0  0
  -25.0988  -28.9179   19.6120 C   0  0  0  0  0  0  0  0  0  0  0  0
  -28.8939  -22.1396   16.1418 C   0  0  0  0  0  0  0  0  0  0  0  0
  -21.8513   -9.1686   21.9142 C   0  0  0  0  0  0  0  0  0  0  0  0
  -26.7263  -13.9283   20.4228 C   0  0  0  0  0  0  0  0  0  0  0  0
  -29.5951  -20.4398   14.0437 C   0  0  0  0  0  0  0  0  0  0  0  0
  -29.1098  -14.4600   21.1601 C   0  0  0  0  0  0  0  0  0  0  0  0
  -18.6130  -23.9556   23.6639 C   0  0  0  0  0  0  0  0  0  0  0  0
  -24.6345  -27.6076   21.5938 C   0  0  0  0  0  0  0  0  0  0  0  0
  -19.6553  -24.3009   22.7827 C   0  0  0  0  0  0  0  0  0  0  0  0
  -24.3743  -28.7335   20.7996 C   0  0  0  0  0  0  0  0  0  0  0  0
  -29.2052  -21.7523   13.7775 C   0  0  0  0  0  0  0  0  0  0  0  0
  -29.2838  -20.8270   16.4081 C   0  0  0  0  0  0  0  0  0  0  0  0
  -28.8546  -22.6022   14.8265 C   0  0  0  0  0  0  0  0  0  0  0  0
  -24.6149  -12.2076   19.8193 C   0  0  0  0  0  0  0  0  0  0  0  0
  -26.0773  -28.0021   19.2264 C   0  0  0  0  0  0  0  0  0  0  0  0
  -23.3369  -10.3224   20.3980 C   0  0  0  0  0  0  0  0  0  0  0  0
  -22.8394   -8.2141   22.1558 C   0  0  0  0  0  0  0  0  0  0  0  0
  -22.1001  -10.2228   21.0353 C   0  0  0  0  0  0  0  0  0  0  0  0
  -27.8166  -14.8174   20.7337 C   0  0  0  0  0  0  0  0  0  0  0  0
  -29.7623  -15.6581   21.3189 C   0  0  0  0  0  0  0  0  0  0  0  0
  -29.9668  -19.5287   12.9692 C   0  0  0  0  0  0  0  0  0  0  0  0
  -29.6710  -13.1611   21.3919 C   0  0  0  0  0  0  0  0  0  0  0  0
  -27.7227  -26.1633   14.9935 C   0  0  0  0  0  0  0  0  0  0  0  0
  -27.2874  -27.2904   15.9094 C   0  0  0  0  0  0  0  0  0  0  0  0
  -21.4994  -27.4260   22.0857 C   0  0  0  0  0  0  0  0  0  0  0  0
  -21.8770  -30.4805   23.1104 C   0  0  0  0  0  0  0  0  0  0  0  0
  -23.7105  -33.3578   23.0295 C   0  0  0  0  0  0  0  0  0  0  0  0
  -29.0071  -21.0697   18.9003 C   0  0  0  0  0  0  0  0  0  0  0  0
  -17.4767  -24.9026   23.9585 C   0  0  0  0  0  0  0  0  0  0  0  0
  -23.8906  -27.3971   22.8840 C   0  0  0  0  0  0  0  0  0  0  0  0
  -23.3302  -29.7494   21.1818 C   0  0  0  0  0  0  0  0  0  0  0  0
  -17.7818  -26.3527   23.5919 C   0  0  0  0  0  0  0  0  0  0  0  0
  -28.9426  -20.2586   22.3666 C   0  0  0  0  0  0  0  0  0  0  0  0
  -18.4041  -26.4322   22.2015 C   0  0  0  0  0  0  0  0  0  0  0  0
  -28.7704  -18.7380   22.3800 C   0  0  0  0  0  0  0  0  0  0  0  0
  -28.1563  -20.9085   21.2295 C   0  0  0  0  0  0  0  0  0  0  0  0
  -28.2448  -18.8301   19.9097 C   0  0  0  0  0  0  0  0  0  0  0  0
  -19.7352  -25.6726   22.1486 C   0  0  1  0  0  0  0  0  0  0  0  0
  -22.5435  -28.1121   22.9205 C   0  0  1  0  0  0  0  0  0  0  0  0
  -29.0702  -18.1247   20.9981 C   0  0  2  0  0  0  0  0  0  0  0  0
  -27.7407  -22.3131   11.8211 C   0  0  0  0  0  0  0  0  0  0  0  0
  -23.7484  -35.6957   23.9407 C   0  0  0  0  0  0  0  0  0  0  0  0
  -19.6785  -31.2774   21.1504 C   0  0  0  0  0  0  0  0  0  0  0  0
  -20.4120  -33.6578   21.4035 C   0  0  0  0  0  0  0  0  0  0  0  0
  -19.5477  -32.4041   23.3793 C   0  0  0  0  0  0  0  0  0  0  0  0
  -26.3000  -32.9094   24.3906 C   0  0  0  0  0  0  0  0  0  0  0  0
  -29.1631  -22.2481   12.3655 C   0  0  0  0  0  0  0  0  0  0  0  0
  -28.0891  -24.8415   15.6174 C   0  0  0  0  0  0  0  0  0  0  0  0
  -27.2395  -27.0294   17.3936 C   0  0  0  0  0  0  0  0  0  1  0  0
  -21.8331  -31.8406   22.4567 C   0  0  1  0  0  0  0  0  0  0  0  0
  -24.2153  -34.2620   24.1395 C   0  0  2  0  0  0  0  0  0  0  0  0
  -20.3862  -32.2750   22.0890 C   0  0  0  0  0  0  0  0  0  0  0  0
  -27.6553  -16.1391   20.6285 N   0  0  0  0  0  0  0  0  0  0  0  0
  -30.8267  -18.5666   13.1148 N   0  0  0  0  0  0  0  0  0  0  0  0
  -28.8556  -16.6227   20.9911 N   0  0  0  0  0  0  0  0  0  0  0  0
  -22.6252  -29.4961   22.4493 N   0  0  0  0  0  0  0  0  0  0  0  0
  -28.4950  -20.2794   19.9510 N   0  0  0  0  0  0  0  0  0  0  0  0
  -31.0175  -15.9700   21.7056 N   0  0  0  0  0  0  0  0  0  0  0  0
  -28.8621  -12.0363   21.1802 N   0  0  0  0  0  0  0  0  0  0  0  0
  -29.3235  -20.3569   17.7442 N   0  0  0  0  0  0  0  0  0  0  0  0
  -28.4642  -23.9102   14.5821 N   0  0  0  0  0  0  0  0  0  0  0  0
  -20.7876  -26.4539   22.7622 N   0  0  0  0  0  0  0  0  0  0  0  0
  -22.5180  -32.7528   23.3662 N   0  0  0  0  0  0  0  0  0  0  0  0
  -25.7050  -34.2538   24.1771 N   0  3  0  0  0  0  0  0  0  0  0  0
  -30.8497  -13.0033   21.7911 O   0  0  0  0  0  0  0  0  0  0  0  0
  -27.7505  -26.4012   13.7925 O   0  0  0  0  0  0  0  0  0  0  0  0
  -26.9939  -28.3589   15.3887 O   0  0  0  0  0  0  0  0  0  0  0  0
  -21.3497  -27.7554   20.9149 O   0  0  0  0  0  0  0  0  0  0  0  0
  -21.2756  -30.3002   24.1722 O   0  0  0  0  0  0  0  0  0  0  0  0
  -24.3118  -33.2063   21.9684 O   0  0  0  0  0  0  0  0  0  0  0  0
  -29.1798  -22.2846   19.0268 O   0  0  0  0  0  0  0  0  0  0  0  0
  -23.5851  -11.3680   19.5245 O   0  0  0  0  0  0  0  0  0  0  0  0
  -26.7733  -28.1945   18.0730 O   0  0  0  0  0  0  0  0  0  1  0  0
  -22.6001   -7.2009   22.9987 F   0  0  0  0  0  0  0  0  0  0  0  0
  -21.1466  -11.1362   20.8063 F   0  0  0  0  0  0  0  0  0  0  0  0
  1  2  1  0  0  0  0
  1  5  2  0  0  0  0
  2  6  2  0  0  0  0
  3  8  2  0  0  0  0
  3 17  1  0  0  0  0
  4  9  1  0  0  0  0
  4 17  2  0  0  0  0
  5 20  1  0  0  0  0
  6 22  1  0  0  0  0
  7 10  2  0  0  0  0
  7 21  1  0  0  0  0
  8 27  1  0  0  0  0
  9 27  2  0  0  0  0
 10 28  1  0  0  0  0
 11 12  2  0  0  0  0
 11 29  1  0  0  0  0
 12 30  1  0  0  0  0
 13 18  2  0  0  0  0
 13 25  1  0  0  0  0
 14 23  1  0  0  0  0
 14 28  2  0  0  0  0
 15 25  2  0  0  0  0
 15 26  1  0  0  0  0
 16 30  2  0  0  0  0
 16 31  1  0  0  0  0
 17 32  1  0  0  0  0
 18 24  1  0  0  0  0
 18 34  1  0  0  0  0
 19 32  1  0  0  0  0
 19 33  2  0  0  0  0
 19 35  1  0  0  0  0
 20 22  2  0  0  0  0
 20 42  1  0  0  0  0
 21 23  2  0  0  0  0
 21 43  1  0  0  0  0
 22 51  1  0  0  0  0
 23 44  1  0  0  0  0
 24 26  2  0  0  0  0
 24 60  1  0  0  0  0
 25 73  1  0  0  0  0
 26 74  1  0  0  0  0
 27 85  1  0  0  0  0
 28 86  1  0  0  0  0
 29 31  2  0  0  0  0
 29 85  1  0  0  0  0
 30 87  1  0  0  0  0
 31 88  1  0  0  0  0
 32 66  2  0  0  0  0
 33 68  1  0  0  0  0
 33 71  1  0  0  0  0
 34 67  2  0  0  0  0
 35 72  1  0  0  0  0
 35 78  2  0  0  0  0
 36 37  1  0  0  0  0
 36 61  1  0  0  0  0
 36 79  2  0  0  0  0
 37 62  1  0  0  0  0
 37 80  2  0  0  0  0
 38 52  1  0  0  0  0
 38 75  1  0  0  0  0
 38 81  2  0  0  0  0
 39 63  1  0  0  0  0
 39 69  1  0  0  0  0
 39 82  2  0  0  0  0
 40 64  1  0  0  0  0
 40 76  1  0  0  0  0
 40 83  2  0  0  0  0
 41 70  1  0  0  0  0
 41 73  1  0  0  0  0
 41 84  2  0  0  0  0
 42 45  1  0  0  0  0
 43 52  1  0  0  0  0
 44 69  1  0  0  0  0
 45 47  1  0  0  0  0
 46 48  1  0  0  0  0
 46 49  1  0  0  0  0
 47 51  1  0  0  0  0
 48 53  1  0  0  0  0
 49 70  1  0  0  0  0
 50 53  1  0  0  0  0
 50 70  1  0  0  0  0
 51 75  1  0  0  0  0
 52 69  1  0  0  0  0
 53 68  1  0  0  0  0
 54 60  1  0  0  0  0
 55 64  1  0  0  0  0
 56 65  1  0  0  0  0
 57 65  1  0  0  0  0
 58 65  1  0  0  0  0
 59 77  1  0  0  0  0
 61 74  1  0  0  0  0
 62 86  1  0  0  0  0
 63 65  1  0  0  0  0
 63 76  1  0  0  0  0
 64 77  1  0  0  0  0
 66 68  1  0  0  0  0
M  CHG  1  77   1
M  ISO  4  41 100  62 101  73 100  86 101
M  END
> <Batch ID>
0162

> <Smiles>
CCc1c(C=N)cc([100NH:0][100C:0](=O)N2CCCC(n3nc(-c4ccc(Oc5ccc(F)cc5F)cc4)c(C(N)=O)c3N)C2)cc1NCC(=O)C(=O)[101CH2:1][101O:1]c1ccc2c(c1)CN(C(=O)C(NC(=O)C(C)NC)C(C)(C)C)C(C(=O)NC1CCCc3ccccc31)C2

> <Shape>
0.260

> <Color>
0.061

> <Negative vol penalty>
0.000

$$$$

  -OEChem-04052303563D

 85 93  0     1  0  0  0  0  0999 V2000
  -30.4489  -35.5894   23.7972 C   0  0  0  0  0  0  0  0  0  0  0  0
  -30.3694  -34.8381   22.6290 C   0  0  0  0  0  0  0  0  0  0  0  0
  -24.6746   -8.5555   21.5914 C   0  0  0  0  0  0  0  0  0  0  0  0
  -23.1869  -10.0628   20.4288 C   0  0  0  0  0  0  0  0  0  0  0  0
  -29.9014  -35.0959   24.9807 C   0  0  0  0  0  0  0  0  0  0  0  0
  -29.7433  -33.5922   22.6440 C   0  0  0  0  0  0  0  0  0  0  0  0
  -25.8308  -29.2601   18.4916 C   0  0  0  0  0  0  0  0  0  0  0  0
  -23.6165   -8.1309   22.3950 C   0  0  0  0  0  0  0  0  0  0  0  0
  -22.1287   -9.6382   21.2323 C   0  0  0  0  0  0  0  0  0  0  0  0
  -25.8081  -27.9463   18.0256 C   0  0  0  0  0  0  0  0  0  0  0  0
  -20.9737   -6.0382   22.1329 C   0  0  0  0  0  0  0  0  0  0  0  0
  -20.8325   -4.6673   22.3478 C   0  0  0  0  0  0  0  0  0  0  0  0
  -29.7210  -20.4607   19.2078 C   0  0  0  0  0  0  0  0  0  0  0  0
  -24.8285  -27.2300   20.1104 C   0  0  0  0  0  0  0  0  0  0  0  0
  -21.0872   -5.0138   24.7253 C   0  0  0  0  0  0  0  0  0  0  0  0
  -24.4598   -9.5216   20.6084 C   0  0  0  0  0  0  0  0  0  0  0  0
  -30.2574  -19.1695   19.4819 C   0  0  0  0  0  0  0  0  0  0  0  0
  -25.9588   -9.4126   18.5471 C   0  0  0  0  0  0  0  0  0  0  0  0
  -29.2598  -33.8476   25.0080 C   0  0  0  0  0  0  0  0  0  0  0  0
  -25.3618  -29.5675   19.7769 C   0  0  0  0  0  0  0  0  0  0  0  0
  -29.1879  -33.0809   23.8293 C   0  0  0  0  0  0  0  0  0  0  0  0
  -24.8440  -28.5488   20.5894 C   0  0  0  0  0  0  0  0  0  0  0  0
  -22.3436   -8.6722   22.2154 C   0  0  0  0  0  0  0  0  0  0  0  0
  -25.3096  -26.9306   18.8360 C   0  0  0  0  0  0  0  0  0  0  0  0
  -21.1716   -6.8970   23.2141 C   0  0  0  0  0  0  0  0  0  0  0  0
  -20.8892   -4.1551   23.6440 C   0  0  0  0  0  0  0  0  0  0  0  0
  -21.2283   -6.3848   24.5103 C   0  0  0  0  0  0  0  0  0  0  0  0
  -25.5525   -9.9610   19.7784 C   0  0  0  0  0  0  0  0  0  0  0  0
  -27.0324  -10.1803   18.1668 C   0  0  0  0  0  0  0  0  0  0  0  0
  -28.3609  -20.4210   18.9927 C   0  0  0  0  0  0  0  0  0  0  0  0
  -29.2868  -18.1919   19.4659 C   0  0  0  0  0  0  0  0  0  0  0  0
  -26.3788  -24.8612   18.6236 C   0  0  0  0  0  0  0  0  0  1  0  0
  -31.6457  -18.8919   19.7475 C   0  0  0  0  0  0  0  0  0  0  0  0
  -25.4144   -8.3081   17.8128 C   0  0  0  0  0  0  0  0  0  0  0  0
  -26.4642  -23.5863   18.2247 C   0  0  0  0  0  0  0  0  0  0  0  0
  -27.7064  -22.8076   18.5385 C   0  0  0  0  0  0  0  0  0  0  0  0
  -26.6639  -30.7872   22.4076 C   0  0  0  0  0  0  0  0  0  0  0  0
  -23.6045  -30.7202   23.4838 C   0  0  0  0  0  0  0  0  0  0  0  0
  -20.4846  -29.3548   23.2624 C   0  0  0  0  0  0  0  0  0  0  0  0
  -28.3196  -15.8646   19.6461 C   0  0  0  0  0  0  0  0  0  0  0  0
  -28.7248  -33.3350   26.3216 C   0  0  0  0  0  0  0  0  0  0  0  0
  -25.3684  -30.9938   20.2547 C   0  0  0  0  0  0  0  0  0  0  0  0
  -24.3097  -28.8295   21.9694 C   0  0  0  0  0  0  0  0  0  0  0  0
  -27.7483  -32.1715   26.1692 C   0  0  0  0  0  0  0  0  0  0  0  0
  -30.2255  -12.7266   20.7619 C   0  0  0  0  0  0  0  0  0  0  0  0
  -28.3013  -31.1343   25.1970 C   0  0  0  0  0  0  0  0  0  0  0  0
  -29.5591  -11.6909   19.8594 C   0  0  0  0  0  0  0  0  0  0  0  0
  -30.1123  -14.1389   20.2019 C   0  0  0  0  0  0  0  0  0  0  0  0
  -27.7209  -13.4653   19.9134 C   0  0  0  0  0  0  0  0  0  0  0  0
  -28.4949  -31.7359   23.7998 C   0  0  1  0  0  0  0  0  0  0  0  0
  -25.3408  -31.1146   21.7752 C   0  0  1  0  0  0  0  0  0  0  0  0
  -28.2493  -12.1979   19.2238 C   0  0  2  0  0  0  0  0  0  0  0  0
  -32.6128  -20.0484   19.7371 C   0  0  0  0  0  0  0  0  0  0  0  0
  -18.2025  -29.4777   24.2988 C   0  0  0  0  0  0  0  0  0  0  0  0
  -24.6213  -29.1615   25.9017 C   0  0  0  0  0  0  0  0  0  0  0  0
  -22.2543  -28.5052   26.3864 C   0  0  0  0  0  0  0  0  0  0  0  0
  -22.9139  -30.9105   26.4308 C   0  0  0  0  0  0  0  0  0  0  0  0
  -19.2388  -30.1648   20.7029 C   0  0  0  0  0  0  0  0  0  0  0  0
  -22.7489  -29.7113   24.2112 C   0  0  1  0  0  0  0  0  0  0  0  0
  -19.1088  -29.9924   23.1913 C   0  0  2  0  0  0  0  0  0  0  0  0
  -23.1464  -29.5662   25.7073 C   0  0  0  0  0  0  0  0  0  0  0  0
  -26.3067  -10.9970   20.1553 N   0  0  0  0  0  0  0  0  0  0  0  0
  -27.1977  -11.1056   19.1551 N   0  0  0  0  0  0  0  0  0  0  0  0
  -24.3435  -30.2389   22.3938 N   0  0  0  0  0  0  0  0  0  0  0  0
  -28.7274  -14.5331   19.9053 N   0  0  0  0  0  0  0  0  0  0  0  0
  -27.8417  -10.1473   17.0869 N   0  0  0  0  0  0  0  0  0  0  0  0
  -24.3106   -7.6295   18.3471 N   0  0  0  0  0  0  0  0  0  0  0  0
  -27.4403  -21.4540   18.6935 N   0  0  0  0  0  0  0  0  0  0  0  0
  -29.3633  -16.7931   19.6811 N   0  0  0  0  0  0  0  0  0  0  0  0
  -27.2255  -31.8351   23.1119 N   0  0  0  0  0  0  0  0  0  0  0  0
  -21.3649  -30.1202   23.9976 N   0  0  0  0  0  0  0  0  0  0  0  0
  -18.4661  -29.6927   21.8806 N   0  3  0  0  0  0  0  0  0  0  0  0
  -32.1241  -17.7714   19.9825 O   0  0  0  0  0  0  0  0  0  0  0  0
  -25.9028   -7.9235   16.7232 O   0  0  0  0  0  0  0  0  0  0  0  0
  -28.7939  -23.3667   18.6317 O   0  0  0  0  0  0  0  0  0  0  0  0
  -27.1392  -29.6664   22.2683 O   0  0  0  0  0  0  0  0  0  0  0  0
  -23.6112  -31.8936   23.8641 O   0  0  0  0  0  0  0  0  0  0  0  0
  -20.7508  -28.2830   22.7229 O   0  0  0  0  0  0  0  0  0  0  0  0
  -27.1445  -16.1463   19.4020 O   0  0  0  0  0  0  0  0  0  0  0  0
  -25.4496  -22.9553   17.5340 O   0  0  0  0  0  0  0  0  0  0  0  0
  -21.3108   -8.2579   22.9992 O   0  0  0  0  0  0  0  0  0  0  0  0
  -25.2869  -25.6473   18.3838 O   0  0  0  0  0  0  0  0  0  1  0  0
  -20.7522   -2.8387   23.8504 F   0  0  0  0  0  0  0  0  0  0  0  0
  -21.4171   -7.2050   25.5531 F   0  0  0  0  0  0  0  0  0  0  0  0
  -27.7363  -18.8318   19.1213 S   0  0  0  0  0  0  0  0  0  0  0  0
  1  2  1  0  0  0  0
  1  5  2  0  0  0  0
  2  6  2  0  0  0  0
  3  8  2  0  0  0  0
  3 16  1  0  0  0  0
  4  9  1  0  0  0  0
  4 16  2  0  0  0  0
  5 19  1  0  0  0  0
  6 21  1  0  0  0  0
  7 10  2  0  0  0  0
  7 20  1  0  0  0  0
  8 23  1  0  0  0  0
  9 23  2  0  0  0  0
 10 24  1  0  0  0  0
 11 12  2  0  0  0  0
 11 25  1  0  0  0  0
 12 26  1  0  0  0  0
 13 17  1  0  0  0  0
 13 30  2  0  0  0  0
 14 22  1  0  0  0  0
 14 24  2  0  0  0  0
 15 26  2  0  0  0  0
 15 27  1  0  0  0  0
 16 28  1  0  0  0  0
 17 31  2  0  0  0  0
 17 33  1  0  0  0  0
 18 28  1  0  0  0  0
 18 29  2  0  0  0  0
 18 34  1  0  0  0  0
 19 21  2  0  0  0  0
 19 41  1  0  0  0  0
 20 22  2  0  0  0  0
 20 42  1  0  0  0  0
 21 50  1  0  0  0  0
 22 43  1  0  0  0  0
 23 81  1  0  0  0  0
 24 82  1  0  0  0  0
 25 27  2  0  0  0  0
 25 81  1  0  0  0  0
 26 83  1  0  0  0  0
 27 84  1  0  0  0  0
 28 62  2  0  0  0  0
 29 63  1  0  0  0  0
 29 66  1  0  0  0  0
 30 68  1  0  0  0  0
 30 85  1  0  0  0  0
 31 69  1  0  0  0  0
 31 85  1  0  0  0  0
 32 35  2  0  0  0  0
 32 82  1  0  0  0  0
 33 53  1  0  0  0  0
 33 73  2  0  0  0  0
 34 67  1  0  0  0  0
 34 74  2  0  0  0  0
 35 36  1  0  0  0  0
 35 80  1  0  0  0  0
 36 68  1  0  0  0  0
 36 75  2  0  0  0  0
 37 51  1  0  0  0  0
 37 70  1  0  0  0  0
 37 76  2  0  0  0  0
 38 59  1  0  0  0  0
 38 64  1  0  0  0  0
 38 77  2  0  0  0  0
 39 60  1  0  0  0  0
 39 71  1  0  0  0  0
 39 78  2  0  0  0  0
 40 65  1  0  0  0  0
 40 69  1  0  0  0  0
 40 79  2  0  0  0  0
 41 44  1  0  0  0  0
 42 51  1  0  0  0  0
 43 64  1  0  0  0  0
 44 46  1  0  0  0  0
 45 47  1  0  0  0  0
 45 48  1  0  0  0  0
 46 50  1  0  0  0  0
 47 52  1  0  0  0  0
 48 65  1  0  0  0  0
 49 52  1  0  0  0  0
 49 65  1  0  0  0  0
 50 70  1  0  0  0  0
 51 64  1  0  0  0  0
 52 63  1  0  0  0  0
 54 60  1  0  0  0  0
 55 61  1  0  0  0  0
 56 61  1  0  0  0  0
 57 61  1  0  0  0  0
 58 72  1  0  0  0  0
 59 61  1  0  0  0  0
 59 71  1  0  0  0  0
 60 72  1  0  0  0  0
 62 63  1  0  0  0  0
M  CHG  1  72   1
M  ISO  4  32 101  40 100  69 100  82 101
M  END
> <Batch ID>
0162

> <Smiles>
CNC(C)C(=O)NC(C(=O)N1Cc2cc([101O:1][101CH2:1]C(=O)C(=O)Nc3cc(C(C)=O)c([100NH:0][100C:0](=O)N4CCCC(n5nc(-c6ccc(Oc7ccc(F)cc7F)cc6)c(C(N)=O)c5N)C4)s3)ccc2CC1C(=O)NC1CCCc2ccccc21)C(C)(C)C

> <Shape>
0.290

> <Color>
0.110

> <Negative vol penalty>
0.000

$$$$

  -OEChem-04052303563D

 87 96  0     1  0  0  0  0  0999 V2000
  -19.1267  -31.8262   21.6070 C   0  0  0  0  0  0  0  0  0  0  0  0
  -20.2940  -31.0974   21.8115 C   0  0  0  0  0  0  0  0  0  0  0  0
  -23.0316   -9.8889   20.6606 C   0  0  0  0  0  0  0  0  0  0  0  0
  -23.6877  -10.4568   22.9154 C   0  0  0  0  0  0  0  0  0  0  0  0
  -17.9223  -31.3772   22.1471 C   0  0  0  0  0  0  0  0  0  0  0  0
  -20.2577  -29.9198   22.5573 C   0  0  0  0  0  0  0  0  0  0  0  0
  -23.6288  -24.8868   21.6571 C   0  0  0  0  0  0  0  0  0  0  0  0
  -22.2586   -8.8363   21.1506 C   0  0  0  0  0  0  0  0  0  0  0  0
  -22.9147   -9.4042   23.4054 C   0  0  0  0  0  0  0  0  0  0  0  0
  -24.7957  -24.4192   22.2600 C   0  0  0  0  0  0  0  0  0  0  0  0
  -19.6502   -8.7946   24.0313 C   0  0  0  0  0  0  0  0  0  0  0  0
  -18.8408   -9.0477   25.1388 C   0  0  0  0  0  0  0  0  0  0  0  0
  -32.0007  -17.0227   21.9566 C   0  0  0  0  0  0  0  0  0  0  0  0
  -23.4740  -23.0486   23.7412 C   0  0  0  0  0  0  0  0  0  0  0  0
  -29.8092  -17.9985   22.2138 C   0  0  0  0  0  0  0  0  0  0  0  0
  -20.0162   -7.3455   26.3869 C   0  0  0  0  0  0  0  0  0  0  0  0
  -23.7462  -10.6991   21.5430 C   0  0  0  0  0  0  0  0  0  0  0  0
  -24.1342  -13.1153   20.8225 C   0  0  0  0  0  0  0  0  0  0  0  0
  -17.8695  -30.1883   22.8918 C   0  0  0  0  0  0  0  0  0  0  0  0
  -22.3732  -24.4463   22.0998 C   0  0  0  0  0  0  0  0  0  0  0  0
  -19.0517  -29.4552   23.1091 C   0  0  0  0  0  0  0  0  0  0  0  0
  -32.5779  -18.0970   22.6505 C   0  0  0  0  0  0  0  0  0  0  0  0
  -22.2928  -23.5102   23.1406 C   0  0  0  0  0  0  0  0  0  0  0  0
  -31.7570  -19.1440   23.1090 C   0  0  0  0  0  0  0  0  0  0  0  0
  -30.6236  -16.9730   21.7424 C   0  0  0  0  0  0  0  0  0  0  0  0
  -30.3717  -19.0770   22.8958 C   0  0  0  0  0  0  0  0  0  0  0  0
  -22.2001   -8.5940   22.5230 C   0  0  0  0  0  0  0  0  0  0  0  0
  -24.7183  -23.5021   23.3041 C   0  0  0  0  0  0  0  0  0  0  0  0
  -20.6425   -7.8168   24.1016 C   0  0  0  0  0  0  0  0  0  0  0  0
  -19.0238   -8.3232   26.3166 C   0  0  0  0  0  0  0  0  0  0  0  0
  -20.8255   -7.0923   25.2794 C   0  0  0  0  0  0  0  0  0  0  0  0
  -24.5454  -11.7862   21.0373 C   0  0  0  0  0  0  0  0  0  0  0  0
  -25.2536  -13.7471   20.3385 C   0  0  0  0  0  0  0  0  0  0  0  0
  -26.4405  -21.9213   23.3810 C   0  0  0  0  0  0  0  0  0  1  0  0
  -22.8547  -13.7244   21.0409 C   0  0  0  0  0  0  0  0  0  0  0  0
  -27.5594  -21.3846   23.8823 C   0  0  0  0  0  0  0  0  0  0  0  0
  -28.1228  -20.1498   23.2450 C   0  0  0  0  0  0  0  0  0  0  0  0
  -19.8260  -25.8524   23.3798 C   0  0  0  0  0  0  0  0  0  0  0  0
  -18.5177  -22.9021   23.0530 C   0  0  0  0  0  0  0  0  0  0  0  0
  -18.9973  -19.5346   22.7769 C   0  0  0  0  0  0  0  0  0  0  0  0
  -30.7227  -14.7778   20.5106 C   0  0  0  0  0  0  0  0  0  0  0  0
  -16.5530  -29.7679   23.4957 C   0  0  0  0  0  0  0  0  0  0  0  0
  -21.1249  -24.9400   21.4212 C   0  0  0  0  0  0  0  0  0  0  0  0
  -34.0747  -18.1311   22.8331 C   0  0  0  0  0  0  0  0  0  0  0  0
  -32.3235  -20.3099   23.8802 C   0  0  0  0  0  0  0  0  0  0  0  0
  -20.9700  -22.9905   23.6394 C   0  0  0  0  0  0  0  0  0  0  0  0
  -16.5317  -28.3132   23.9577 C   0  0  0  0  0  0  0  0  0  0  0  0
  -34.5291  -19.1206   23.9044 C   0  0  0  0  0  0  0  0  0  0  0  0
  -33.8346  -20.4634   23.7179 C   0  0  0  0  0  0  0  0  0  0  0  0
  -29.6767  -11.8604   18.7579 C   0  0  0  0  0  0  0  0  0  0  0  0
  -17.7917  -27.9872   24.7532 C   0  0  0  0  0  0  0  0  0  0  0  0
  -28.2146  -11.6904   19.1770 C   0  0  0  0  0  0  0  0  0  0  0  0
  -30.5405  -12.3737   19.9086 C   0  0  0  0  0  0  0  0  0  0  0  0
  -28.5854  -13.4250   20.9772 C   0  0  0  0  0  0  0  0  0  0  0  0
  -19.0483  -28.1598   23.8915 C   0  0  1  0  0  0  0  0  0  0  0  0
  -19.8804  -24.8145   22.2946 C   0  0  1  0  0  0  0  0  0  0  0  0
  -27.6638  -12.9716   19.8332 C   0  0  2  0  0  0  0  0  0  0  0  0
  -17.7354  -17.3761   22.5624 C   0  0  0  0  0  0  0  0  0  0  0  0
  -17.8055  -23.0267   26.0174 C   0  0  0  0  0  0  0  0  0  0  0  0
  -17.4342  -20.5514   25.9607 C   0  0  0  0  0  0  0  0  0  0  0  0
  -16.0236  -22.0548   24.5563 C   0  0  0  0  0  0  0  0  0  0  0  0
  -20.2424  -18.9323   20.1604 C   0  0  0  0  0  0  0  0  0  0  0  0
  -18.4384  -21.6662   23.9163 C   0  0  1  0  0  0  0  0  0  0  0  0
  -18.4206  -18.5104   21.8163 C   0  0  2  0  0  0  0  0  0  0  0  0
  -17.4504  -21.8358   25.1048 C   0  0  0  0  0  0  0  0  0  0  0  0
  -25.8260  -11.5844   20.7161 N   0  0  0  0  0  0  0  0  0  0  0  0
  -26.2292  -12.7950   20.2943 N   0  0  0  0  0  0  0  0  0  0  0  0
  -19.7777  -23.5080   22.9478 N   0  0  0  0  0  0  0  0  0  0  0  0
  -29.9595  -13.5915   20.4781 N   0  0  0  0  0  0  0  0  0  0  0  0
  -25.4887  -15.0186   19.9506 N   0  0  0  0  0  0  0  0  0  0  0  0
  -21.8140  -12.9310   21.5427 N   0  0  0  0  0  0  0  0  0  0  0  0
  -29.5039  -20.0895   23.3713 N   0  0  0  0  0  0  0  0  0  0  0  0
  -30.0543  -15.8789   21.0448 N   0  0  0  0  0  0  0  0  0  0  0  0
  -19.2100  -27.0301   23.0016 N   0  0  0  0  0  0  0  0  0  0  0  0
  -18.1111  -20.5626   23.0200 N   0  0  0  0  0  0  0  0  0  0  0  0
  -19.4999  -17.9305   20.9680 N   0  3  0  0  0  0  0  0  0  0  0  0
  -22.6362  -14.9323   20.7827 O   0  0  0  0  0  0  0  0  0  0  0  0
  -27.3903  -19.3340   22.6957 O   0  0  0  0  0  0  0  0  0  0  0  0
  -20.3059  -25.6026   24.4793 O   0  0  0  0  0  0  0  0  0  0  0  0
  -17.5007  -23.3107   22.4870 O   0  0  0  0  0  0  0  0  0  0  0  0
  -20.1201  -19.4309   23.2659 O   0  0  0  0  0  0  0  0  0  0  0  0
  -31.8742  -14.8208   20.0701 O   0  0  0  0  0  0  0  0  0  0  0  0
  -28.2204  -21.9247   24.9668 O   0  0  0  0  0  0  0  0  0  0  0  0
  -21.4457   -7.5671   23.0015 O   0  0  0  0  0  0  0  0  0  0  0  0
  -25.8557  -23.0446   23.8948 O   0  0  0  0  0  0  0  0  0  1  0  0
  -18.2476   -8.5675   27.3805 F   0  0  0  0  0  0  0  0  0  0  0  0
  -21.7780   -6.1525   25.3533 F   0  0  0  0  0  0  0  0  0  0  0  0
  1  2  1  0  0  0  0
  1  5  2  0  0  0  0
  2  6  2  0  0  0  0
  3  8  2  0  0  0  0
  3 17  1  0  0  0  0
  4  9  1  0  0  0  0
  4 17  2  0  0  0  0
  5 19  1  0  0  0  0
  6 21  1  0  0  0  0
  7 10  2  0  0  0  0
  7 20  1  0  0  0  0
  8 27  1  0  0  0  0
  9 27  2  0  0  0  0
 10 28  1  0  0  0  0
 11 12  2  0  0  0  0
 11 29  1  0  0  0  0
 12 30  1  0  0  0  0
 13 22  2  0  0  0  0
 13 25  1  0  0  0  0
 14 23  1  0  0  0  0
 14 28  2  0  0  0  0
 15 25  2  0  0  0  0
 15 26  1  0  0  0  0
 16 30  2  0  0  0  0
 16 31  1  0  0  0  0
 17 32  1  0  0  0  0
 18 32  1  0  0  0  0
 18 33  2  0  0  0  0
 18 35  1  0  0  0  0
 19 21  2  0  0  0  0
 19 42  1  0  0  0  0
 20 23  2  0  0  0  0
 20 43  1  0  0  0  0
 21 55  1  0  0  0  0
 22 24  1  0  0  0  0
 22 44  1  0  0  0  0
 23 46  1  0  0  0  0
 24 26  2  0  0  0  0
 24 45  1  0  0  0  0
 25 73  1  0  0  0  0
 26 72  1  0  0  0  0
 27 84  1  0  0  0  0
 28 85  1  0  0  0  0
 29 31  2  0  0  0  0
 29 84  1  0  0  0  0
 30 86  1  0  0  0  0
 31 87  1  0  0  0  0
 32 66  2  0  0  0  0
 33 67  1  0  0  0  0
 33 70  1  0  0  0  0
 34 36  2  0  0  0  0
 34 85  1  0  0  0  0
 35 71  1  0  0  0  0
 35 77  2  0  0  0  0
 36 37  1  0  0  0  0
 36 83  1  0  0  0  0
 37 72  1  0  0  0  0
 37 78  2  0  0  0  0
 38 56  1  0  0  0  0
 38 74  1  0  0  0  0
 38 79  2  0  0  0  0
 39 63  1  0  0  0  0
 39 68  1  0  0  0  0
 39 80  2  0  0  0  0
 40 64  1  0  0  0  0
 40 75  1  0  0  0  0
 40 81  2  0  0  0  0
 41 69  1  0  0  0  0
 41 73  1  0  0  0  0
 41 82  2  0  0  0  0
 42 47  1  0  0  0  0
 43 56  1  0  0  0  0
 44 48  1  0  0  0  0
 45 49  1  0  0  0  0
 46 68  1  0  0  0  0
 47 51  1  0  0  0  0
 48 49  1  0  0  0  0
 50 52  1  0  0  0  0
 50 53  1  0  0  0  0
 51 55  1  0  0  0  0
 52 57  1  0  0  0  0
 53 69  1  0  0  0  0
 54 57  1  0  0  0  0
 54 69  1  0  0  0  0
 55 74  1  0  0  0  0
 56 68  1  0  0  0  0
 57 67  1  0  0  0  0
 58 64  1  0  0  0  0
 59 65  1  0  0  0  0
 60 65  1  0  0  0  0
 61 65  1  0  0  0  0
 62 76  1  0  0  0  0
 63 65  1  0  0  0  0
 63 75  1  0  0  0  0
 64 76  1  0  0  0  0
 66 67  1  0  0  0  0
M  CHG  1  76   1
M  ISO  4  34 101  41 100  73 100  85 101
M  END
> <Batch ID>
0162

> <Smiles>
CNC(C)C(=O)NC(C(=O)N1Cc2cc([101O:1][101CH2:1]C(=O)C(=O)Nc3cc([100NH:0][100C:0](=O)N4CCCC(n5nc(-c6ccc(Oc7ccc(F)cc7F)cc6)c(C(N)=O)c5N)C4)cc4c3CCCC4)ccc2CC1C(=O)NC1CCCc2ccccc21)C(C)(C)C

> <Shape>
0.204

> <Color>
0.166

> <Negative vol penalty>
0.000

$$$$

  -OEChem-04052303563D

 86 94  0     1  0  0  0  0  0999 V2000
  -37.2376  -29.1408   16.2963 C   0  0  0  0  0  0  0  0  0  0  0  0
  -36.6122  -28.9616   17.5260 C   0  0  0  0  0  0  0  0  0  0  0  0
  -23.0732   -9.8698   19.9426 C   0  0  0  0  0  0  0  0  0  0  0  0
  -23.8311   -9.8786   22.2367 C   0  0  0  0  0  0  0  0  0  0  0  0
  -37.4578  -28.0461   15.4614 C   0  0  0  0  0  0  0  0  0  0  0  0
  -36.2056  -27.6876   17.9211 C   0  0  0  0  0  0  0  0  0  0  0  0
  -36.1842  -25.4302   23.6140 C   0  0  0  0  0  0  0  0  0  0  0  0
  -22.3281   -8.7176   20.1932 C   0  0  0  0  0  0  0  0  0  0  0  0
  -23.0859   -8.7264   22.4873 C   0  0  0  0  0  0  0  0  0  0  0  0
  -35.1744  -25.2957   24.5659 C   0  0  0  0  0  0  0  0  0  0  0  0
  -22.8971   -5.3989   20.4882 C   0  0  0  0  0  0  0  0  0  0  0  0
  -22.9639   -4.3682   19.5508 C   0  0  0  0  0  0  0  0  0  0  0  0
  -30.4725  -18.3421   24.0426 C   0  0  0  0  0  0  0  0  0  0  0  0
  -34.8172  -23.0180   23.8563 C   0  0  0  0  0  0  0  0  0  0  0  0
  -32.0643  -16.6041   22.5499 C   0  0  0  0  0  0  0  0  0  0  0  0
  -20.5798   -4.5358   19.1968 C   0  0  0  0  0  0  0  0  0  0  0  0
  -23.8248  -10.4503   20.9644 C   0  0  0  0  0  0  0  0  0  0  0  0
  -31.8583  -18.3569   24.1998 C   0  0  0  0  0  0  0  0  0  0  0  0
  -24.1689  -12.9750   20.8419 C   0  0  0  0  0  0  0  0  0  0  0  0
  -37.0624  -26.7566   15.8506 C   0  0  0  0  0  0  0  0  0  0  0  0
  -36.5111  -24.3613   22.7673 C   0  0  0  0  0  0  0  0  0  0  0  0
  -36.4195  -26.5748   17.0900 C   0  0  0  0  0  0  0  0  0  0  0  0
  -35.8332  -23.1407   22.8962 C   0  0  0  0  0  0  0  0  0  0  0  0
  -30.6784  -16.5892   22.3926 C   0  0  0  0  0  0  0  0  0  0  0  0
  -22.3344   -8.1459   21.4655 C   0  0  0  0  0  0  0  0  0  0  0  0
  -34.4888  -24.0904   24.6852 C   0  0  0  0  0  0  0  0  0  0  0  0
  -21.6717   -5.9980   20.7801 C   0  0  0  0  0  0  0  0  0  0  0  0
  -21.8053   -3.9367   18.9051 C   0  0  0  0  0  0  0  0  0  0  0  0
  -29.8825  -17.4582   23.1390 C   0  0  0  0  0  0  0  0  0  0  0  0
  -32.6542  -17.4880   23.4535 C   0  0  0  0  0  0  0  0  0  0  0  0
  -20.5131   -5.5665   20.1343 C   0  0  0  0  0  0  0  0  0  0  0  0
  -24.5951  -11.6402   20.7060 C   0  0  0  0  0  0  0  0  0  0  0  0
  -25.2621  -13.7231   20.4787 C   0  0  0  0  0  0  0  0  0  0  0  0
  -32.4804  -19.2940   25.1576 C   0  0  0  0  0  0  0  0  0  0  0  0
  -22.8986  -13.4924   21.2591 C   0  0  0  0  0  0  0  0  0  0  0  0
  -36.4426  -23.8867   19.6251 C   0  0  0  0  0  0  0  0  0  0  0  0
  -37.8937  -21.0932   20.4081 C   0  0  0  0  0  0  0  0  0  0  0  0
  -38.4861  -18.6974   22.7652 C   0  0  0  0  0  0  0  0  0  0  0  0
  -32.8112  -21.6731   25.7954 C   0  0  0  0  0  0  0  0  0  0  0  0
  -30.7291  -14.7640   20.6571 C   0  0  0  0  0  0  0  0  0  0  0  0
  -37.2792  -25.6110   14.8939 C   0  0  0  0  0  0  0  0  0  0  0  0
  -37.6210  -24.5139   21.7637 C   0  0  0  0  0  0  0  0  0  0  0  0
  -36.1599  -21.9563   22.0251 C   0  0  0  0  0  0  0  0  0  0  0  0
  -37.1552  -24.2381   15.5495 C   0  0  0  0  0  0  0  0  0  0  0  0
  -29.6146  -12.3485   18.2905 C   0  0  0  0  0  0  0  0  0  0  0  0
  -35.9104  -24.1769   16.4290 C   0  0  0  0  0  0  0  0  0  0  0  0
  -28.1743  -12.0587   18.7191 C   0  0  0  0  0  0  0  0  0  0  0  0
  -30.5288  -12.5778   19.4927 C   0  0  0  0  0  0  0  0  0  0  0  0
  -28.6213  -13.3055   20.8715 C   0  0  0  0  0  0  0  0  0  0  0  0
  -35.9863  -25.2047   17.5646 C   0  0  1  0  0  0  0  0  0  0  0  0
  -37.5208  -23.5245   20.6069 C   0  0  1  0  0  0  0  0  0  0  0  0
  -27.6494  -13.1319   19.6930 C   0  0  2  0  0  0  0  0  0  0  0  0
  -39.6786  -16.5148   23.0991 C   0  0  0  0  0  0  0  0  0  0  0  0
  -31.1790  -23.5504   25.9922 C   0  0  0  0  0  0  0  0  0  0  0  0
  -35.7089  -19.6611   18.8314 C   0  0  0  0  0  0  0  0  0  0  0  0
  -36.3803  -17.5337   19.9679 C   0  0  0  0  0  0  0  0  0  0  0  0
  -38.0084  -18.7328   18.5071 C   0  0  0  0  0  0  0  0  0  0  0  0
  -40.1950  -19.8251   24.9022 C   0  0  0  0  0  0  0  0  0  0  0  0
  -37.4191  -19.7053   20.7652 C   0  0  1  0  0  0  0  0  0  0  0  0
  -39.7702  -18.0279   23.2204 C   0  0  2  0  0  0  0  0  0  0  0  0
  -32.4395  -23.0554   25.3057 C   0  0  1  0  0  0  0  0  0  1  0  0
  -36.8715  -18.9310   19.5332 C   0  0  0  0  0  0  0  0  0  0  0  0
  -25.8603  -11.5427   20.2889 N   0  0  0  0  0  0  0  0  0  0  0  0
  -26.2384  -12.8258   20.1595 N   0  0  0  0  0  0  0  0  0  0  0  0
  -37.2487  -22.1571   21.0546 N   0  0  0  0  0  0  0  0  0  0  0  0
  -29.9700  -13.6101   20.3684 N   0  0  0  0  0  0  0  0  0  0  0  0
  -25.4738  -15.0543   20.4044 N   0  0  0  0  0  0  0  0  0  0  0  0
  -21.8855  -12.5845   21.5965 N   0  0  0  0  0  0  0  0  0  0  0  0
  -30.0818  -15.6905   21.4739 N   0  0  0  0  0  0  0  0  0  0  0  0
  -32.2883  -20.6072   24.9714 N   0  0  0  0  0  0  0  0  0  0  0  0
  -36.8616  -24.7325   18.6159 N   0  0  0  0  0  0  0  0  0  0  0  0
  -38.5385  -19.0504   21.4333 N   0  0  0  0  0  0  0  0  0  0  0  0
  -33.1996  -18.7768   26.1532 N   0  3  0  0  0  0  0  0  0  0  0  0
  -40.0562  -18.3690   24.6427 N   0  3  0  0  0  0  0  0  0  0  0  0
  -22.6634  -14.7233   21.3149 O   0  0  0  0  0  0  0  0  0  0  0  0
  -35.3144  -23.4312   19.7714 O   0  0  0  0  0  0  0  0  0  0  0  0
  -38.8080  -21.2281   19.5911 O   0  0  0  0  0  0  0  0  0  0  0  0
  -37.5305  -18.8848   23.5151 O   0  0  0  0  0  0  0  0  0  0  0  0
  -33.5049  -21.4422   26.7761 O   0  0  0  0  0  0  0  0  0  0  0  0
  -31.8587  -14.9312   20.1903 O   0  0  0  0  0  0  0  0  0  0  0  0
  -21.6072   -7.0217   21.7104 O   0  0  0  0  0  0  0  0  0  0  0  0
  -33.5023  -23.9566   25.6131 O   0  0  0  0  0  0  0  0  0  1  0  0
  -21.8698   -2.9479   18.0037 F   0  0  0  0  0  0  0  0  0  0  0  0
  -28.5493  -17.4524   22.9962 F   0  0  0  0  0  0  0  0  0  0  0  0
  -33.9869  -17.4946   23.5978 F   0  0  0  0  0  0  0  0  0  0  0  0
  -19.3331   -6.1390   20.4096 F   0  0  0  0  0  0  0  0  0  0  0  0
  1  2  1  0  0  0  0
  1  5  2  0  0  0  0
  2  6  2  0  0  0  0
  3  8  2  0  0  0  0
  3 17  1  0  0  0  0
  4  9  1  0  0  0  0
  4 17  2  0  0  0  0
  5 20  1  0  0  0  0
  6 22  1  0  0  0  0
  7 10  2  0  0  0  0
  7 21  1  0  0  0  0
  8 25  1  0  0  0  0
  9 25  2  0  0  0  0
 10 26  1  0  0  0  0
 11 12  2  0  0  0  0
 11 27  1  0  0  0  0
 12 28  1  0  0  0  0
 13 18  1  0  0  0  0
 13 29  2  0  0  0  0
 14 23  1  0  0  0  0
 14 26  2  0  0  0  0
 15 24  2  0  0  0  0
 15 30  1  0  0  0  0
 16 28  2  0  0  0  0
 16 31  1  0  0  0  0
 17 32  1  0  0  0  0
 18 30  2  0  0  0  0
 18 34  1  0  0  0  0
 19 32  1  0  0  0  0
 19 33  2  0  0  0  0
 19 35  1  0  0  0  0
 20 22  2  0  0  0  0
 20 41  1  0  0  0  0
 21 23  2  0  0  0  0
 21 42  1  0  0  0  0
 22 50  1  0  0  0  0
 23 43  1  0  0  0  0
 24 29  1  0  0  0  0
 24 69  1  0  0  0  0
 25 81  1  0  0  0  0
 26 82  1  0  0  0  0
 27 31  2  0  0  0  0
 27 81  1  0  0  0  0
 28 83  1  0  0  0  0
 29 84  1  0  0  0  0
 30 85  1  0  0  0  0
 31 86  1  0  0  0  0
 32 63  2  0  0  0  0
 33 64  1  0  0  0  0
 33 67  1  0  0  0  0
 34 70  1  0  0  0  0
 34 73  2  0  0  0  0
 35 68  1  0  0  0  0
 35 75  2  0  0  0  0
 36 51  1  0  0  0  0
 36 71  1  0  0  0  0
 36 76  2  0  0  0  0
 37 59  1  0  0  0  0
 37 65  1  0  0  0  0
 37 77  2  0  0  0  0
 38 60  1  0  0  0  0
 38 72  1  0  0  0  0
 38 78  2  0  0  0  0
 39 61  1  0  0  0  0
 39 70  1  0  0  0  0
 39 79  2  0  0  0  0
 40 66  1  0  0  0  0
 40 69  1  0  0  0  0
 40 80  2  0  0  0  0
 41 44  1  0  0  0  0
 42 51  1  0  0  0  0
 43 65  1  0  0  0  0
 44 46  1  0  0  0  0
 45 47  1  0  0  0  0
 45 48  1  0  0  0  0
 46 50  1  0  0  0  0
 47 52  1  0  0  0  0
 48 66  1  0  0  0  0
 49 52  1  0  0  0  0
 49 66  1  0  0  0  0
 50 71  1  0  0  0  0
 51 65  1  0  0  0  0
 52 64  1  0  0  0  0
 53 60  1  0  0  0  0
 54 61  1  0  0  0  0
 55 62  1  0  0  0  0
 56 62  1  0  0  0  0
 57 62  1  0  0  0  0
 58 74  1  0  0  0  0
 59 62  1  0  0  0  0
 59 72  1  0  0  0  0
 60 74  1  0  0  0  0
 61 82  1  0  0  0  0
 63 64  1  0  0  0  0
M  CHG  2  73   1  74   1
M  ISO  4  40 100  61 101  69 100  82 101
M  END
> <Batch ID>
0162

> <Smiles>
CNC(C)C(=O)NC(C(=O)N1Cc2cc([101O:1][101CH:1](C)C(=O)NC(=N)c3cc(F)c([100NH:0][100C:0](=O)N4CCCC(n5nc(-c6ccc(Oc7ccc(F)cc7F)cc6)c(C(N)=O)c5N)C4)cc3F)ccc2CC1C(=O)NC1CCCc2ccccc21)C(C)(C)C

> <Shape>
0.150

> <Color>
0.187

> <Negative vol penalty>
0.000

$$$$

  -OEChem-04052303563D

 85 93  0     1  0  0  0  0  0999 V2000
  -24.9254  -28.3111   25.3209 C   0  0  0  0  0  0  0  0  0  0  0  0
  -24.4224  -27.0359   25.0842 C   0  0  0  0  0  0  0  0  0  0  0  0
  -27.7326  -23.1187   20.4266 C   0  0  0  0  0  0  0  0  0  0  0  0
  -29.3351  -23.3772   18.6372 C   0  0  0  0  0  0  0  0  0  0  0  0
  -24.2181  -29.4305   24.8842 C   0  0  0  0  0  0  0  0  0  0  0  0
  -23.2110  -26.8792   24.4115 C   0  0  0  0  0  0  0  0  0  0  0  0
  -23.4062  -23.2590   20.8759 C   0  0  0  0  0  0  0  0  0  0  0  0
  -27.6873  -24.5037   20.5862 C   0  0  0  0  0  0  0  0  0  0  0  0
  -29.2898  -24.7622   18.7967 C   0  0  0  0  0  0  0  0  0  0  0  0
  -23.3263  -21.9374   21.3127 C   0  0  0  0  0  0  0  0  0  0  0  0
  -26.2274  -27.1412   19.0549 C   0  0  0  0  0  0  0  0  0  0  0  0
  -24.9740  -27.7369   19.1956 C   0  0  0  0  0  0  0  0  0  0  0  0
  -25.7399  -14.3963   21.2197 C   0  0  0  0  0  0  0  0  0  0  0  0
  -26.0997  -12.1363   20.4452 C   0  0  0  0  0  0  0  0  0  0  0  0
  -20.9912  -21.8855   20.7092 C   0  0  0  0  0  0  0  0  0  0  0  0
  -23.9312  -13.1702   20.1891 C   0  0  0  0  0  0  0  0  0  0  0  0
  -25.6213  -28.5869   21.3625 C   0  0  0  0  0  0  0  0  0  0  0  0
  -28.5565  -22.5555   19.4521 C   0  0  0  0  0  0  0  0  0  0  0  0
  -26.5827  -13.2984   21.0469 C   0  0  0  0  0  0  0  0  0  0  0  0
  -27.7931  -20.3386   18.4470 C   0  0  0  0  0  0  0  0  0  0  0  0
  -23.0022  -29.2871   24.1974 C   0  0  0  0  0  0  0  0  0  0  0  0
  -22.2747  -23.9083   20.3617 C   0  0  0  0  0  0  0  0  0  0  0  0
  -22.4861  -27.9977   23.9664 C   0  0  0  0  0  0  0  0  0  0  0  0
  -21.0601  -23.2145   20.2642 C   0  0  0  0  0  0  0  0  0  0  0  0
  -24.4141  -14.3322   20.7909 C   0  0  0  0  0  0  0  0  0  0  0  0
  -28.4659  -25.3254   19.7713 C   0  0  0  0  0  0  0  0  0  0  0  0
  -22.1180  -21.2514   21.2321 C   0  0  0  0  0  0  0  0  0  0  0  0
  -27.1777  -27.2683   20.0681 C   0  0  0  0  0  0  0  0  0  0  0  0
  -24.6710  -28.4598   20.3494 C   0  0  0  0  0  0  0  0  0  0  0  0
  -24.7739  -12.0723   20.0163 C   0  0  0  0  0  0  0  0  0  0  0  0
  -26.8746  -27.9912   21.2218 C   0  0  0  0  0  0  0  0  0  0  0  0
  -28.6041  -21.1249   19.2872 C   0  0  0  0  0  0  0  0  0  0  0  0
  -28.2309  -19.0530   18.6523 C   0  0  0  0  0  0  0  0  0  0  0  0
  -27.9946  -13.3655   21.5037 C   0  0  0  0  0  0  0  0  0  0  0  0
  -26.7384  -20.7348   17.5604 C   0  0  0  0  0  0  0  0  0  0  0  0
  -20.5706  -26.4542   21.2093 C   0  0  0  0  0  0  0  0  0  0  0  0
  -22.8677  -17.7107   21.3171 C   0  0  0  0  0  0  0  0  0  0  0  0
  -19.0430  -25.8803   18.4059 C   0  0  0  0  0  0  0  0  0  0  0  0
  -18.1905  -23.6400   15.9767 C   0  0  0  0  0  0  0  0  0  0  0  0
  -29.8538  -14.9286   21.9770 C   0  0  0  0  0  0  0  0  0  0  0  0
  -22.2501  -30.5281   23.7862 C   0  0  0  0  0  0  0  0  0  0  0  0
  -22.3840  -25.3256   19.8699 C   0  0  0  0  0  0  0  0  0  0  0  0
  -19.8211  -23.8599   19.7012 C   0  0  0  0  0  0  0  0  0  0  0  0
  -21.1597  -30.2645   22.7510 C   0  0  0  0  0  0  0  0  0  0  0  0
  -32.3124  -17.3101   21.0932 C   0  0  0  0  0  0  0  0  0  0  0  0
  -20.3250  -29.0521   23.1516 C   0  0  0  0  0  0  0  0  0  0  0  0
  -31.5031  -18.4492   20.4672 C   0  0  0  0  0  0  0  0  0  0  0  0
  -31.5822  -16.6801   22.2785 C   0  0  0  0  0  0  0  0  0  0  0  0
  -29.4014  -17.3860   21.3818 C   0  0  0  0  0  0  0  0  0  0  0  0
  -21.1877  -27.7861   23.2183 C   0  0  1  0  0  0  0  0  0  0  0  0
  -21.0433  -26.0530   19.8407 C   0  0  1  0  0  0  0  0  0  0  0  0
  -30.0627  -18.0068   20.1406 C   0  0  1  0  0  0  0  0  0  0  0  0
  -16.9044  -23.4565   13.8297 C   0  0  0  0  0  0  0  0  0  0  0  0
  -16.4268  -25.8782   19.9761 C   0  0  0  0  0  0  0  0  0  0  0  0
  -15.3312  -24.7739   18.0144 C   0  0  0  0  0  0  0  0  0  0  0  0
  -16.3186  -27.0517   17.7702 C   0  0  0  0  0  0  0  0  0  0  0  0
  -20.6113  -22.8724   14.4570 C   0  0  0  0  0  0  0  0  0  0  0  0
  -24.0454  -16.7701   21.1739 C   0  0  0  0  0  0  0  0  0  0  0  0
  -23.2177  -19.1672   21.5525 C   0  0  0  0  0  0  0  0  0  1  0  0
  -17.8516  -25.0530   17.9874 C   0  0  1  0  0  0  0  0  0  0  0  0
  -18.2619  -23.7203   14.4625 C   0  0  2  0  0  0  0  0  0  0  0  0
  -16.5048  -25.6774   18.4495 C   0  0  0  0  0  0  0  0  0  0  0  0
  -29.4899  -20.3995   19.9750 N   0  0  0  0  0  0  0  0  0  0  0  0
  -29.2381  -19.1439   19.5675 N   0  0  0  0  0  0  0  0  0  0  0  0
  -19.9772  -25.2491   19.2394 N   0  0  0  0  0  0  0  0  0  0  0  0
  -30.2302  -16.2800   21.8843 N   0  0  0  0  0  0  0  0  0  0  0  0
  -27.8487  -17.8650   18.1374 N   0  0  0  0  0  0  0  0  0  0  0  0
  -26.4172  -22.0961   17.4704 N   0  0  0  0  0  0  0  0  0  0  0  0
  -23.5760  -15.4247   20.9622 N   0  0  0  0  0  0  0  0  0  0  0  0
  -28.5569  -14.6420   21.5366 N   0  0  0  0  0  0  0  0  0  0  0  0
  -21.4466  -27.2803   21.8873 N   0  0  0  0  0  0  0  0  0  0  0  0
  -17.9642  -24.8763   16.5436 N   0  0  0  0  0  0  0  0  0  0  0  0
  -19.2291  -22.7163   13.9355 N   0  3  0  0  0  0  0  0  0  0  0  0
  -28.5596  -12.3331   21.8542 O   0  0  0  0  0  0  0  0  0  0  0  0
  -26.0887  -19.9045   16.8806 O   0  0  0  0  0  0  0  0  0  0  0  0
  -19.4904  -26.0458   21.6193 O   0  0  0  0  0  0  0  0  0  0  0  0
  -21.6998  -17.3297   21.2491 O   0  0  0  0  0  0  0  0  0  0  0  0
  -19.1448  -27.0415   18.0021 O   0  0  0  0  0  0  0  0  0  0  0  0
  -18.3188  -22.5853   16.5946 O   0  0  0  0  0  0  0  0  0  0  0  0
  -30.6188  -14.0472   22.3808 O   0  0  0  0  0  0  0  0  0  0  0  0
  -28.4218  -26.6769   19.9265 O   0  0  0  0  0  0  0  0  0  0  0  0
  -22.0370  -19.9616   21.6584 O   0  0  0  0  0  0  0  0  0  1  0  0
  -23.4679  -29.0331   20.4837 F   0  0  0  0  0  0  0  0  0  0  0  0
  -24.3093  -10.9567   19.4388 F   0  0  0  0  0  0  0  0  0  0  0  0
  -27.7839  -28.1177   22.1981 F   0  0  0  0  0  0  0  0  0  0  0  0
  1  2  1  0  0  0  0
  1  5  2  0  0  0  0
  2  6  2  0  0  0  0
  3  8  2  0  0  0  0
  3 18  1  0  0  0  0
  4  9  1  0  0  0  0
  4 18  2  0  0  0  0
  5 21  1  0  0  0  0
  6 23  1  0  0  0  0
  7 10  2  0  0  0  0
  7 22  1  0  0  0  0
  8 26  1  0  0  0  0
  9 26  2  0  0  0  0
 10 27  1  0  0  0  0
 11 12  2  0  0  0  0
 11 28  1  0  0  0  0
 12 29  1  0  0  0  0
 13 19  1  0  0  0  0
 13 25  2  0  0  0  0
 14 19  2  0  0  0  0
 14 30  1  0  0  0  0
 15 24  1  0  0  0  0
 15 27  2  0  0  0  0
 16 25  1  0  0  0  0
 16 30  2  0  0  0  0
 17 29  2  0  0  0  0
 17 31  1  0  0  0  0
 18 32  1  0  0  0  0
 19 34  1  0  0  0  0
 20 32  1  0  0  0  0
 20 33  2  0  0  0  0
 20 35  1  0  0  0  0
 21 23  2  0  0  0  0
 21 41  1  0  0  0  0
 22 24  2  0  0  0  0
 22 42  1  0  0  0  0
 23 50  1  0  0  0  0
 24 43  1  0  0  0  0
 25 69  1  0  0  0  0
 26 81  1  0  0  0  0
 27 82  1  0  0  0  0
 28 31  2  0  0  0  0
 28 81  1  0  0  0  0
 29 83  1  0  0  0  0
 30 84  1  0  0  0  0
 31 85  1  0  0  0  0
 32 63  2  0  0  0  0
 33 64  1  0  0  0  0
 33 67  1  0  0  0  0
 34 70  1  0  0  0  0
 34 74  2  0  0  0  0
 35 68  1  0  0  0  0
 35 75  2  0  0  0  0
 36 51  1  0  0  0  0
 36 71  1  0  0  0  0
 36 76  2  0  0  0  0
 37 58  1  0  0  0  0
 37 59  1  0  0  0  0
 37 77  2  0  0  0  0
 38 60  1  0  0  0  0
 38 65  1  0  0  0  0
 38 78  2  0  0  0  0
 39 61  1  0  0  0  0
 39 72  1  0  0  0  0
 39 79  2  0  0  0  0
 40 66  1  0  0  0  0
 40 70  1  0  0  0  0
 40 80  2  0  0  0  0
 41 44  1  0  0  0  0
 42 51  1  0  0  0  0
 43 65  1  0  0  0  0
 44 46  1  0  0  0  0
 45 47  1  0  0  0  0
 45 48  1  0  0  0  0
 46 50  1  0  0  0  0
 47 52  1  0  0  0  0
 48 66  1  0  0  0  0
 49 52  1  0  0  0  0
 49 66  1  0  0  0  0
 50 71  1  0  0  0  0
 51 65  1  0  0  0  0
 52 64  1  0  0  0  0
 53 61  1  0  0  0  0
 54 62  1  0  0  0  0
 55 62  1  0  0  0  0
 56 62  1  0  0  0  0
 57 73  1  0  0  0  0
 58 69  1  0  0  0  0
 59 82  1  0  0  0  0
 60 62  1  0  0  0  0
 60 72  1  0  0  0  0
 61 73  1  0  0  0  0
 63 64  1  0  0  0  0
M  CHG  1  73   1
M  ISO  4  40 100  59 101  70 100  82 101
M  END
> <Batch ID>
0162

> <Smiles>
CNC(C)C(=O)NC(C(=O)N1Cc2cc([101O:1][101CH2:1]C(=O)CNc3cc(F)cc(C(=O)[100NH:0][100C:0](=O)N4CCCC(n5nc(-c6ccc(Oc7ccc(F)cc7F)cc6)c(C(N)=O)c5N)C4)c3)ccc2CC1C(=O)NC1CCCc2ccccc21)C(C)(C)C

> <Shape>
0.229

> <Color>
0.067

> <Negative vol penalty>
0.000

$$$$

  -OEChem-04052303563D

 87 95  0     1  0  0  0  0  0999 V2000
  -25.7024  -23.0633   13.3576 C   0  0  0  0  0  0  0  0  0  0  0  0
  -25.4247  -22.3323   14.5083 C   0  0  0  0  0  0  0  0  0  0  0  0
  -30.8542  -20.2787   19.7256 C   0  0  0  0  0  0  0  0  0  0  0  0
  -28.5074  -20.1395   20.2827 C   0  0  0  0  0  0  0  0  0  0  0  0
  -26.0707  -24.4043   13.4570 C   0  0  0  0  0  0  0  0  0  0  0  0
  -25.5164  -22.9418   15.7591 C   0  0  0  0  0  0  0  0  0  0  0  0
  -22.0121  -21.8361   20.6584 C   0  0  0  0  0  0  0  0  0  0  0  0
  -30.6473  -21.5410   19.1694 C   0  0  0  0  0  0  0  0  0  0  0  0
  -28.3005  -21.4018   19.7266 C   0  0  0  0  0  0  0  0  0  0  0  0
  -22.2072  -21.0498   21.7931 C   0  0  0  0  0  0  0  0  0  0  0  0
  -30.2590  -24.7146   20.2698 C   0  0  0  0  0  0  0  0  0  0  0  0
  -31.1721  -25.7202   20.5869 C   0  0  0  0  0  0  0  0  0  0  0  0
  -23.7133  -14.4386   23.0071 C   0  0  0  0  0  0  0  0  0  0  0  0
  -21.5153  -13.4769   22.7230 C   0  0  0  0  0  0  0  0  0  0  0  0
  -22.9676  -22.9939   23.0021 C   0  0  0  0  0  0  0  0  0  0  0  0
  -23.3752  -12.6439   21.4254 C   0  0  0  0  0  0  0  0  0  0  0  0
  -31.7188  -25.9618   18.2459 C   0  0  0  0  0  0  0  0  0  0  0  0
  -29.7842  -19.5779   20.2822 C   0  0  0  0  0  0  0  0  0  0  0  0
  -22.3607  -14.3957   23.3449 C   0  0  0  0  0  0  0  0  0  0  0  0
  -30.8486  -17.9454   21.9283 C   0  0  0  0  0  0  0  0  0  0  0  0
  -26.1575  -25.0331   14.7091 C   0  0  0  0  0  0  0  0  0  0  0  0
  -22.3041  -23.2074   20.6840 C   0  0  0  0  0  0  0  0  0  0  0  0
  -25.8875  -24.2921   15.8754 C   0  0  0  0  0  0  0  0  0  0  0  0
  -22.7729  -23.7959   21.8672 C   0  0  0  0  0  0  0  0  0  0  0  0
  -24.2206  -13.5627   22.0473 C   0  0  0  0  0  0  0  0  0  0  0  0
  -29.3705  -22.1026   19.1700 C   0  0  0  0  0  0  0  0  0  0  0  0
  -22.6878  -21.6281   22.9643 C   0  0  0  0  0  0  0  0  0  0  0  0
  -30.0758  -24.3325   18.9408 C   0  0  0  0  0  0  0  0  0  0  0  0
  -31.9020  -26.3438   19.5749 C   0  0  0  0  0  0  0  0  0  0  0  0
  -22.0226  -12.6009   21.7633 C   0  0  0  0  0  0  0  0  0  0  0  0
  -30.8057  -24.9561   17.9289 C   0  0  0  0  0  0  0  0  0  0  0  0
  -29.9972  -18.2736   20.8563 C   0  0  0  0  0  0  0  0  0  0  0  0
  -30.6934  -16.5900   22.0874 C   0  0  0  0  0  0  0  0  0  0  0  0
  -21.8228  -15.3236   24.3599 C   0  0  0  0  0  0  0  0  0  0  0  0
  -31.7032  -18.7902   22.7104 C   0  0  0  0  0  0  0  0  0  0  0  0
  -24.3297  -25.0989   19.1274 C   0  0  0  0  0  0  0  0  0  0  0  0
  -24.2720  -18.4967   25.5628 C   0  0  0  0  0  0  0  0  0  0  0  0
  -22.7545  -27.4446   20.7206 C   0  0  0  0  0  0  0  0  0  0  0  0
  -20.8588  -28.3516   23.4096 C   0  0  0  0  0  0  0  0  0  0  0  0
  -26.2586  -12.8068   20.7740 C   0  0  0  0  0  0  0  0  0  0  0  0
  -26.6056  -26.4720   14.7693 C   0  0  0  0  0  0  0  0  0  0  0  0
  -22.0627  -24.0469   19.4594 C   0  0  0  0  0  0  0  0  0  0  0  0
  -23.0823  -25.2674   21.9526 C   0  0  0  0  0  0  0  0  0  0  0  0
  -26.3154  -27.1447   16.1085 C   0  0  0  0  0  0  0  0  0  0  0  0
  -29.6221  -12.6281   19.6196 C   0  0  0  0  0  0  0  0  0  0  0  0
  -26.7380  -26.2410   17.2625 C   0  0  0  0  0  0  0  0  0  0  0  0
  -30.1792  -14.0238   19.9088 C   0  0  0  0  0  0  0  0  0  0  0  0
  -28.1602  -12.6811   19.1792 C   0  0  0  0  0  0  0  0  0  0  0  0
  -27.8225  -14.8092   20.3736 C   0  0  0  0  0  0  0  0  0  0  0  0
  -25.9518  -24.9245   17.2487 C   0  0  1  0  0  0  0  0  0  0  0  0
  -22.8806  -25.3347   19.4472 C   0  0  1  0  0  0  0  0  0  0  0  0
  -29.2730  -14.8016   20.8832 C   0  0  2  0  0  0  0  0  0  0  0  0
  -24.6372  -17.8904   26.8948 C   0  0  0  0  0  0  0  0  0  0  0  0
  -19.7559  -30.3464   24.4594 C   0  0  0  0  0  0  0  0  0  0  0  0
  -25.4689  -28.4170   21.7189 C   0  0  0  0  0  0  0  0  0  0  0  0
  -24.2701  -29.7565   23.4616 C   0  0  0  0  0  0  0  0  0  0  0  0
  -23.8927  -30.2373   21.0431 C   0  0  0  0  0  0  0  0  0  0  0  0
  -18.1705  -27.1374   23.1689 C   0  0  0  0  0  0  0  0  0  0  0  0
  -21.9589  -17.5270   25.4658 C   0  0  0  0  0  0  0  0  0  0  0  0
  -22.5684  -19.4743   23.9658 C   0  0  0  0  0  0  0  0  0  1  0  0
  -22.7904  -18.8005   25.3234 C   0  0  2  0  0  0  0  0  0  0  0  0
  -22.9248  -28.1317   22.0540 C   0  0  1  0  0  0  0  0  0  0  0  0
  -19.5833  -29.1682   23.5134 C   0  0  2  0  0  0  0  0  0  0  0  0
  -24.1352  -29.1075   22.0675 C   0  0  0  0  0  0  0  0  0  0  0  0
  -29.3494  -17.2122   20.3687 N   0  0  0  0  0  0  0  0  0  0  0  0
  -29.7939  -16.2037   21.1378 N   0  0  0  0  0  0  0  0  0  0  0  0
  -22.8359  -26.0449   20.7269 N   0  0  0  0  0  0  0  0  0  0  0  0
  -27.3616  -13.4295   20.1523 N   0  0  0  0  0  0  0  0  0  0  0  0
  -31.2401  -15.7028   22.9456 N   0  0  0  0  0  0  0  0  0  0  0  0
  -20.7856  -14.9196   25.0934 N   0  0  0  0  0  0  0  0  0  0  0  0
  -31.1795  -19.3823   23.8678 N   0  0  0  0  0  0  0  0  0  0  0  0
  -25.5949  -13.6052   21.7049 N   0  0  0  0  0  0  0  0  0  0  0  0
  -24.6194  -25.1260   17.7765 N   0  0  0  0  0  0  0  0  0  0  0  0
  -21.6445  -28.7636   22.3541 N   0  0  0  0  0  0  0  0  0  0  0  0
  -22.3996  -16.5237   24.4930 N   0  3  0  0  0  0  0  0  0  0  0  0
  -18.4654  -28.3210   24.0169 N   0  3  0  0  0  0  0  0  0  0  0  0
  -32.8909  -19.0264   22.3835 O   0  0  0  0  0  0  0  0  0  0  0  0
  -25.1263  -24.9080   20.0388 O   0  0  0  0  0  0  0  0  0  0  0  0
  -25.1357  -18.7049   24.7105 O   0  0  0  0  0  0  0  0  0  0  0  0
  -22.5494  -28.1243   19.7119 O   0  0  0  0  0  0  0  0  0  0  0  0
  -21.1326  -27.4419   24.1893 O   0  0  0  0  0  0  0  0  0  0  0  0
  -25.9439  -11.6411   20.5207 O   0  0  0  0  0  0  0  0  0  0  0  0
  -29.1683  -23.3345   18.6276 O   0  0  0  0  0  0  0  0  0  0  0  0
  -22.8799  -20.8628   24.0730 O   0  0  0  0  0  0  0  0  0  1  0  0
  -32.7777  -27.3106   19.8794 F   0  0  0  0  0  0  0  0  0  0  0  0
  -21.2108  -11.7186   21.1661 F   0  0  0  0  0  0  0  0  0  0  0  0
  -30.6331  -24.5942   16.6502 F   0  0  0  0  0  0  0  0  0  0  0  0
  1  2  1  0  0  0  0
  1  5  2  0  0  0  0
  2  6  2  0  0  0  0
  3  8  2  0  0  0  0
  3 18  1  0  0  0  0
  4  9  1  0  0  0  0
  4 18  2  0  0  0  0
  5 21  1  0  0  0  0
  6 23  1  0  0  0  0
  7 10  2  0  0  0  0
  7 22  1  0  0  0  0
  8 26  1  0  0  0  0
  9 26  2  0  0  0  0
 10 27  1  0  0  0  0
 11 12  2  0  0  0  0
 11 28  1  0  0  0  0
 12 29  1  0  0  0  0
 13 19  2  0  0  0  0
 13 25  1  0  0  0  0
 14 19  1  0  0  0  0
 14 30  2  0  0  0  0
 15 24  1  0  0  0  0
 15 27  2  0  0  0  0
 16 25  2  0  0  0  0
 16 30  1  0  0  0  0
 17 29  2  0  0  0  0
 17 31  1  0  0  0  0
 18 32  1  0  0  0  0
 19 34  1  0  0  0  0
 20 32  1  0  0  0  0
 20 33  2  0  0  0  0
 20 35  1  0  0  0  0
 21 23  2  0  0  0  0
 21 41  1  0  0  0  0
 22 24  2  0  0  0  0
 22 42  1  0  0  0  0
 23 50  1  0  0  0  0
 24 43  1  0  0  0  0
 25 72  1  0  0  0  0
 26 83  1  0  0  0  0
 27 84  1  0  0  0  0
 28 31  2  0  0  0  0
 28 83  1  0  0  0  0
 29 85  1  0  0  0  0
 30 86  1  0  0  0  0
 31 87  1  0  0  0  0
 32 65  2  0  0  0  0
 33 66  1  0  0  0  0
 33 69  1  0  0  0  0
 34 70  1  0  0  0  0
 34 75  2  0  0  0  0
 35 71  1  0  0  0  0
 35 77  2  0  0  0  0
 36 51  1  0  0  0  0
 36 73  1  0  0  0  0
 36 78  2  0  0  0  0
 37 53  1  0  0  0  0
 37 61  1  0  0  0  0
 37 79  2  0  0  0  0
 38 62  1  0  0  0  0
 38 67  1  0  0  0  0
 38 80  2  0  0  0  0
 39 63  1  0  0  0  0
 39 74  1  0  0  0  0
 39 81  2  0  0  0  0
 40 68  1  0  0  0  0
 40 72  1  0  0  0  0
 40 82  2  0  0  0  0
 41 44  1  0  0  0  0
 42 51  1  0  0  0  0
 43 67  1  0  0  0  0
 44 46  1  0  0  0  0
 45 47  1  0  0  0  0
 45 48  1  0  0  0  0
 46 50  1  0  0  0  0
 47 52  1  0  0  0  0
 48 68  1  0  0  0  0
 49 52  1  0  0  0  0
 49 68  1  0  0  0  0
 50 73  1  0  0  0  0
 51 67  1  0  0  0  0
 52 66  1  0  0  0  0
 54 63  1  0  0  0  0
 55 64  1  0  0  0  0
 56 64  1  0  0  0  0
 57 64  1  0  0  0  0
 58 76  1  0  0  0  0
 59 61  1  0  0  0  0
 59 75  1  0  0  0  0
 60 61  1  0  0  0  0
 60 84  1  0  0  0  0
 62 64  1  0  0  0  0
 62 74  1  0  0  0  0
 63 76  1  0  0  0  0
 65 66  1  0  0  0  0
M  CHG  2  75   1  76   1
M  ISO  4  40 100  60 101  72 100  84 101
M  END
> <Batch ID>
0162

> <Smiles>
CNC(C)C(=O)NC(C(=O)N1Cc2cc([101O:1][101CH2:1]C(CNC(=N)c3cc(F)cc([100NH:0][100C:0](=O)N4CCCC(n5nc(-c6ccc(Oc7ccc(F)cc7F)cc6)c(C(N)=O)c5N)C4)c3)C(C)=O)ccc2CC1C(=O)NC1CCCc2ccccc21)C(C)(C)C

> <Shape>
0.235

> <Color>
0.055

> <Negative vol penalty>
0.000

$$$$

  -OEChem-04052303563D

 88 96  0     1  0  0  0  0  0999 V2000
  -27.2458  -38.1399   21.5130 C   0  0  0  0  0  0  0  0  0  0  0  0
  -27.7897  -36.9466   21.0486 C   0  0  0  0  0  0  0  0  0  0  0  0
  -24.3365   -9.1417   21.8912 C   0  0  0  0  0  0  0  0  0  0  0  0
  -22.8272  -10.1642   20.3058 C   0  0  0  0  0  0  0  0  0  0  0  0
  -26.3561  -38.1280   22.5864 C   0  0  0  0  0  0  0  0  0  0  0  0
  -27.4450  -35.7408   21.6581 C   0  0  0  0  0  0  0  0  0  0  0  0
  -26.8060  -30.2912   18.9379 C   0  0  0  0  0  0  0  0  0  0  0  0
  -23.4826   -8.0438   21.9960 C   0  0  0  0  0  0  0  0  0  0  0  0
  -21.9733   -9.0662   20.4106 C   0  0  0  0  0  0  0  0  0  0  0  0
  -27.6591  -29.1946   18.8226 C   0  0  0  0  0  0  0  0  0  0  0  0
  -22.7646   -5.2667   20.2057 C   0  0  0  0  0  0  0  0  0  0  0  0
  -23.3364   -3.9950   20.1696 C   0  0  0  0  0  0  0  0  0  0  0  0
  -26.5865  -28.1678   20.7238 C   0  0  0  0  0  0  0  0  0  0  0  0
  -27.1017  -20.3622   19.7259 C   0  0  0  0  0  0  0  0  0  0  0  0
  -22.4499   -3.5339   22.3693 C   0  0  0  0  0  0  0  0  0  0  0  0
  -24.0088  -10.2020   21.0461 C   0  0  0  0  0  0  0  0  0  0  0  0
  -25.9545  -11.5029   20.0315 C   0  0  0  0  0  0  0  0  0  0  0  0
  -25.9928  -36.9205   23.2032 C   0  0  0  0  0  0  0  0  0  0  0  0
  -25.8422  -30.3393   19.9554 C   0  0  0  0  0  0  0  0  0  0  0  0
  -26.5506  -35.7129   22.7417 C   0  0  0  0  0  0  0  0  0  0  0  0
  -25.7206  -29.2650   20.8483 C   0  0  0  0  0  0  0  0  0  0  0  0
  -27.6767  -21.0406   18.6127 C   0  0  0  0  0  0  0  0  0  0  0  0
  -22.3010   -8.0060   21.2557 C   0  0  0  0  0  0  0  0  0  0  0  0
  -27.5514  -28.1340   19.7174 C   0  0  0  0  0  0  0  0  0  0  0  0
  -22.0354   -5.6721   21.3236 C   0  0  0  0  0  0  0  0  0  0  0  0
  -23.1791   -3.1286   21.2514 C   0  0  0  0  0  0  0  0  0  0  0  0
  -21.8781   -4.8057   22.4054 C   0  0  0  0  0  0  0  0  0  0  0  0
  -24.8901  -11.3366   20.9378 C   0  0  0  0  0  0  0  0  0  0  0  0
  -27.7905  -20.2222   17.5104 C   0  0  0  0  0  0  0  0  0  0  0  0
  -26.4728  -12.7384   20.3336 C   0  0  0  0  0  0  0  0  0  0  0  0
  -26.7976  -19.0510   19.4320 C   0  0  0  0  0  0  0  0  0  0  0  0
  -28.3083  -20.5151   16.2115 C   0  0  0  0  0  0  0  0  0  0  0  0
  -26.4318  -10.6196   19.0080 C   0  0  0  0  0  0  0  0  0  0  0  0
  -25.2881  -32.2542   22.4313 C   0  0  0  0  0  0  0  0  0  0  0  0
  -30.0649  -24.7543   19.5622 C   0  0  0  0  0  0  0  0  0  0  0  0
  -22.6076  -30.4514   22.7272 C   0  0  0  0  0  0  0  0  0  0  0  0
  -21.0254  -27.4903   22.1145 C   0  0  0  0  0  0  0  0  0  0  0  0
  -28.0111  -23.2933   19.6866 C   0  0  0  0  0  0  0  0  0  0  0  0
  -25.8142  -18.1296   21.5604 C   0  0  0  0  0  0  0  0  0  0  0  0
  -25.0639  -36.9625   24.3906 C   0  0  0  0  0  0  0  0  0  0  0  0
  -24.9117  -31.5173   20.0499 C   0  0  0  0  0  0  0  0  0  0  0  0
  -24.6891  -29.2589   21.9458 C   0  0  0  0  0  0  0  0  0  0  0  0
  -24.4605  -35.6046   24.7403 C   0  0  0  0  0  0  0  0  0  0  0  0
  -25.5858  -15.8136   24.2551 C   0  0  0  0  0  0  0  0  0  0  0  0
  -25.5395  -34.5264   24.7456 C   0  0  0  0  0  0  0  0  0  0  0  0
  -25.4720  -14.4561   23.5577 C   0  0  0  0  0  0  0  0  0  0  0  0
  -24.8402  -16.9073   23.4923 C   0  0  0  0  0  0  0  0  0  0  0  0
  -25.0834  -15.6705   21.3757 C   0  0  0  0  0  0  0  0  0  0  0  0
  -26.1820  -34.3821   23.3607 C   0  0  1  0  0  0  0  0  0  0  0  0
  -24.3085  -31.6924   21.4401 C   0  0  1  0  0  0  0  0  0  0  0  0
  -25.8728  -14.5502   22.0724 C   0  0  2  0  0  0  0  0  0  0  0  0
  -32.4369  -25.0613   18.7437 C   0  0  0  0  0  0  0  0  0  0  0  0
  -18.8529  -26.2987   22.5114 C   0  0  0  0  0  0  0  0  0  0  0  0
  -23.4130  -29.9543   25.6279 C   0  0  0  0  0  0  0  0  0  0  0  0
  -21.7851  -28.0529   25.6810 C   0  0  0  0  0  0  0  0  0  0  0  0
  -20.9727  -30.3772   25.2806 C   0  0  0  0  0  0  0  0  0  0  0  0
  -20.4981  -27.2419   19.2130 C   0  0  0  0  0  0  0  0  0  0  0  0
  -30.9668  -25.0158   18.3677 C   0  0  0  0  0  0  0  0  0  0  0  0
  -27.8764  -25.7999   20.0371 C   0  0  0  0  0  0  0  0  0  1  0  0
  -22.2500  -29.1792   23.4570 C   0  0  1  0  0  0  0  0  0  0  0  0
  -19.6465  -27.1809   21.5603 C   0  0  2  0  0  0  0  0  0  0  0  0
  -28.5648  -24.6630   19.2783 C   0  0  1  0  0  0  0  0  0  0  0  0
  -22.1260  -29.3916   24.9923 C   0  0  0  0  0  0  0  0  0  0  0  0
  -24.7402  -12.3828   21.7546 N   0  0  0  0  0  0  0  0  0  0  0  0
  -28.7849  -21.6851   15.8492 N   0  0  0  0  0  0  0  0  0  0  0  0
  -25.7172  -13.2183   21.3626 N   0  0  0  0  0  0  0  0  0  0  0  0
  -23.8068  -30.4361   22.0008 N   0  0  0  0  0  0  0  0  0  0  0  0
  -25.2745  -16.9402   22.0941 N   0  0  0  0  0  0  0  0  0  0  0  0
  -27.4968  -13.4503   19.8168 N   0  0  0  0  0  0  0  0  0  0  0  0
  -25.7842   -9.3891   18.8320 N   0  0  0  0  0  0  0  0  0  0  0  0
  -28.0859  -22.3944   18.6275 N   0  0  0  0  0  0  0  0  0  0  0  0
  -26.2226  -18.0316   20.2306 N   0  0  0  0  0  0  0  0  0  0  0  0
  -25.3137  -33.6350   22.4761 N   0  0  0  0  0  0  0  0  0  0  0  0
  -21.0372  -28.6726   22.8240 N   0  0  0  0  0  0  0  0  0  0  0  0
  -19.7602  -26.4775   20.2513 N   0  3  0  0  0  0  0  0  0  0  0  0
  -27.4141  -10.9057   18.2822 O   0  0  0  0  0  0  0  0  0  0  0  0
  -25.9691  -31.4913   23.1066 O   0  0  0  0  0  0  0  0  0  0  0  0
  -30.5058  -24.6482   20.7071 O   0  0  0  0  0  0  0  0  0  0  0  0
  -21.8474  -31.4205   22.7932 O   0  0  0  0  0  0  0  0  0  0  0  0
  -21.9943  -26.7548   21.9391 O   0  0  0  0  0  0  0  0  0  0  0  0
  -27.6212  -23.0680   20.8281 O   0  0  0  0  0  0  0  0  0  0  0  0
  -25.9324  -19.1514   22.2415 O   0  0  0  0  0  0  0  0  0  0  0  0
  -21.4677   -6.9347   21.3576 O   0  0  0  0  0  0  0  0  0  0  0  0
  -28.3834  -27.0627   19.6075 O   0  0  0  0  0  0  0  0  0  1  0  0
  -23.7270   -1.9068   21.2160 F   0  0  0  0  0  0  0  0  0  0  0  0
  -21.1777   -5.1891   23.4816 F   0  0  0  0  0  0  0  0  0  0  0  0
  -28.3306  -24.8767   17.9466 F   0  0  0  0  0  0  0  0  0  0  0  0
  -27.2053  -18.6429   17.8197 S   0  0  0  0  0  0  0  0  0  0  0  0
  1  2  1  0  0  0  0
  1  5  2  0  0  0  0
  2  6  2  0  0  0  0
  3  8  2  0  0  0  0
  3 16  1  0  0  0  0
  4  9  1  0  0  0  0
  4 16  2  0  0  0  0
  5 18  1  0  0  0  0
  6 20  1  0  0  0  0
  7 10  2  0  0  0  0
  7 19  1  0  0  0  0
  8 23  1  0  0  0  0
  9 23  2  0  0  0  0
 10 24  1  0  0  0  0
 11 12  2  0  0  0  0
 11 25  1  0  0  0  0
 12 26  1  0  0  0  0
 13 21  1  0  0  0  0
 13 24  2  0  0  0  0
 14 22  1  0  0  0  0
 14 31  2  0  0  0  0
 15 26  2  0  0  0  0
 15 27  1  0  0  0  0
 16 28  1  0  0  0  0
 17 28  1  0  0  0  0
 17 30  2  0  0  0  0
 17 33  1  0  0  0  0
 18 20  2  0  0  0  0
 18 40  1  0  0  0  0
 19 21  2  0  0  0  0
 19 41  1  0  0  0  0
 20 49  1  0  0  0  0
 21 42  1  0  0  0  0
 22 29  2  0  0  0  0
 22 71  1  0  0  0  0
 23 83  1  0  0  0  0
 24 84  1  0  0  0  0
 25 27  2  0  0  0  0
 25 83  1  0  0  0  0
 26 85  1  0  0  0  0
 27 86  1  0  0  0  0
 28 64  2  0  0  0  0
 29 32  1  0  0  0  0
 29 88  1  0  0  0  0
 30 66  1  0  0  0  0
 30 69  1  0  0  0  0
 31 72  1  0  0  0  0
 31 88  1  0  0  0  0
 32 65  2  0  0  0  0
 33 70  1  0  0  0  0
 33 76  2  0  0  0  0
 34 50  1  0  0  0  0
 34 73  1  0  0  0  0
 34 77  2  0  0  0  0
 35 58  1  0  0  0  0
 35 62  1  0  0  0  0
 35 78  2  0  0  0  0
 36 60  1  0  0  0  0
 36 67  1  0  0  0  0
 36 79  2  0  0  0  0
 37 61  1  0  0  0  0
 37 74  1  0  0  0  0
 37 80  2  0  0  0  0
 38 62  1  0  0  0  0
 38 71  1  0  0  0  0
 38 81  2  0  0  0  0
 39 68  1  0  0  0  0
 39 72  1  0  0  0  0
 39 82  2  0  0  0  0
 40 43  1  0  0  0  0
 41 50  1  0  0  0  0
 42 67  1  0  0  0  0
 43 45  1  0  0  0  0
 44 46  1  0  0  0  0
 44 47  1  0  0  0  0
 45 49  1  0  0  0  0
 46 51  1  0  0  0  0
 47 68  1  0  0  0  0
 48 51  1  0  0  0  0
 48 68  1  0  0  0  0
 49 73  1  0  0  0  0
 50 67  1  0  0  0  0
 51 66  1  0  0  0  0
 52 58  1  0  0  0  0
 53 61  1  0  0  0  0
 54 63  1  0  0  0  0
 55 63  1  0  0  0  0
 56 63  1  0  0  0  0
 57 75  1  0  0  0  0
 59 62  1  0  0  0  0
 59 84  1  0  0  0  0
 60 63  1  0  0  0  0
 60 74  1  0  0  0  0
 61 75  1  0  0  0  0
 62 87  1  0  0  0  0
 64 66  1  0  0  0  0
M  CHG  1  75   1
M  ISO  4  39 100  59 101  72 100  84 101
M  END
> <Batch ID>
0162

> <Smiles>
CCC(=O)C(F)(C(=O)Nc1cc([100NH:0][100C:0](=O)N2CCCC(n3nc(-c4ccc(Oc5ccc(F)cc5F)cc4)c(C(N)=O)c3N)C2)sc1C=N)[101CH2:1][101O:1]c1ccc2c(c1)CN(C(=O)C(NC(=O)C(C)NC)C(C)(C)C)C(C(=O)NC1CCCc3ccccc31)C2

> <Shape>
0.318

> <Color>
0.096

> <Negative vol penalty>
0.000

$$$$

  -OEChem-04052303563D

 82 90  0     1  0  0  0  0  0999 V2000
  -18.0466  -21.5087   16.4715 C   0  0  0  0  0  0  0  0  0  0  0  0
  -18.8345  -20.4356   16.8752 C   0  0  0  0  0  0  0  0  0  0  0  0
  -27.7990  -23.6698   20.8382 C   0  0  0  0  0  0  0  0  0  0  0  0
  -28.6048  -23.4216   18.5740 C   0  0  0  0  0  0  0  0  0  0  0  0
  -18.1192  -22.7216   17.1553 C   0  0  0  0  0  0  0  0  0  0  0  0
  -19.6964  -20.5751   17.9625 C   0  0  0  0  0  0  0  0  0  0  0  0
  -19.4922  -16.6236   21.1230 C   0  0  0  0  0  0  0  0  0  0  0  0
  -27.8593  -25.0572   20.7075 C   0  0  0  0  0  0  0  0  0  0  0  0
  -28.6650  -24.8090   18.4434 C   0  0  0  0  0  0  0  0  0  0  0  0
  -20.1719  -15.4676   20.7418 C   0  0  0  0  0  0  0  0  0  0  0  0
  -26.0047  -27.5096   19.3005 C   0  0  0  0  0  0  0  0  0  0  0  0
  -24.9181  -28.2520   19.7627 C   0  0  0  0  0  0  0  0  0  0  0  0
  -29.7773  -11.7996   19.9508 C   0  0  0  0  0  0  0  0  0  0  0  0
  -28.5260  -11.3443   20.4307 C   0  0  0  0  0  0  0  0  0  0  0  0
  -21.9975  -16.0674   22.2000 C   0  0  0  0  0  0  0  0  0  0  0  0
  -26.3679  -29.4113   21.3090 C   0  0  0  0  0  0  0  0  0  0  0  0
  -28.1719  -22.8520   19.7714 C   0  0  0  0  0  0  0  0  0  0  0  0
  -27.0173  -20.5831   19.6084 C   0  0  0  0  0  0  0  0  0  0  0  0
  -18.9753  -22.8731   18.2575 C   0  0  0  0  0  0  0  0  0  0  0  0
  -20.0658  -17.5172   22.0389 C   0  0  0  0  0  0  0  0  0  0  0  0
  -19.7815  -21.7916   18.6609 C   0  0  0  0  0  0  0  0  0  0  0  0
  -21.3219  -17.2327   22.5931 C   0  0  0  0  0  0  0  0  0  0  0  0
  -28.2922  -25.6268   19.5101 C   0  0  0  0  0  0  0  0  0  0  0  0
  -21.4260  -15.1908   21.2780 C   0  0  0  0  0  0  0  0  0  0  0  0
  -27.2730  -27.7179   19.8426 C   0  0  0  0  0  0  0  0  0  0  0  0
  -25.0997  -29.2029   20.7669 C   0  0  0  0  0  0  0  0  0  0  0  0
  -27.4545  -28.6688   20.8469 C   0  0  0  0  0  0  0  0  0  0  0  0
  -28.1104  -21.4187   19.9060 C   0  0  0  0  0  0  0  0  0  0  0  0
  -29.5000  -12.8113   19.0611 C   0  0  0  0  0  0  0  0  0  0  0  0
  -27.5734  -12.1105   19.8003 C   0  0  0  0  0  0  0  0  0  0  0  0
  -27.4618  -19.3177   19.9044 C   0  0  0  0  0  0  0  0  0  0  0  0
  -25.5621  -13.1798   19.7404 C   0  0  0  0  0  0  0  0  0  0  0  0
  -25.7164  -20.9205   19.1089 C   0  0  0  0  0  0  0  0  0  0  0  0
  -24.0729  -13.2034   19.8602 C   0  0  0  0  0  0  0  0  0  0  0  0
  -20.9775  -20.5605   21.9330 C   0  0  0  0  0  0  0  0  0  0  0  0
  -21.4881  -20.1123   25.1049 C   0  0  0  0  0  0  0  0  0  0  0  0
  -22.1190  -17.9387   27.6591 C   0  0  0  0  0  0  0  0  0  0  0  0
  -31.4061  -15.3745   19.7061 C   0  0  0  0  0  0  0  0  0  0  0  0
  -19.0543  -24.2178   18.9358 C   0  0  0  0  0  0  0  0  0  0  0  0
  -19.3080  -18.7464   22.4601 C   0  0  0  0  0  0  0  0  0  0  0  0
  -21.9725  -18.1496   23.5955 C   0  0  0  0  0  0  0  0  0  0  0  0
  -19.7171  -24.1687   20.3101 C   0  0  0  0  0  0  0  0  0  0  0  0
  -31.6249  -17.7737   22.3276 C   0  0  0  0  0  0  0  0  0  0  0  0
  -21.0010  -23.3469   20.2545 C   0  0  0  0  0  0  0  0  0  0  0  0
  -30.6450  -18.8692   21.9036 C   0  0  0  0  0  0  0  0  0  0  0  0
  -32.3507  -17.1702   21.1272 C   0  0  0  0  0  0  0  0  0  0  0  0
  -30.4880  -17.7719   19.6298 C   0  0  0  0  0  0  0  0  0  0  0  0
  -20.7105  -21.8963   19.8509 C   0  0  1  0  0  0  0  0  0  0  0  0
  -20.2113  -19.8460   23.0101 C   0  0  1  0  0  0  0  0  0  0  0  0
  -29.6911  -18.3721   20.8008 C   0  0  2  0  0  0  0  0  0  0  0  0
  -22.5231  -17.8725   30.1349 C   0  0  0  0  0  0  0  0  0  0  0  0
  -24.3246  -21.1478   24.6671 C   0  0  0  0  0  0  0  0  0  0  0  0
  -24.9458  -20.1824   26.8920 C   0  0  0  0  0  0  0  0  0  0  0  0
  -23.2208  -21.9789   26.7517 C   0  0  0  0  0  0  0  0  0  0  0  0
  -19.7338  -16.2484   28.1204 C   0  0  0  0  0  0  0  0  0  0  0  0
  -30.3461  -13.6819   18.2328 C   0  0  0  0  0  0  0  0  0  0  0  0
  -23.5178  -14.1184   20.9170 C   0  0  0  0  0  0  0  0  0  1  0  0
  -22.6541  -19.6506   25.9453 C   0  0  1  0  0  0  0  0  0  0  0  0
  -21.4834  -17.7822   29.0288 C   0  0  2  0  0  0  0  0  0  0  0  0
  -23.7752  -20.7234   26.0437 C   0  0  0  0  0  0  0  0  0  0  0  0
  -29.1696  -20.7413   20.3567 N   0  0  0  0  0  0  0  0  0  0  0  0
  -26.1747  -12.0622   19.9246 N   0  0  0  0  0  0  0  0  0  0  0  0
  -28.7441  -19.4666   20.3446 N   0  0  0  0  0  0  0  0  0  0  0  0
  -21.1946  -19.3418   23.9708 N   0  0  0  0  0  0  0  0  0  0  0  0
  -31.3894  -16.7170   20.1190 N   0  0  0  0  0  0  0  0  0  0  0  0
  -26.8770  -18.1033   19.8287 N   0  0  0  0  0  0  0  0  0  0  0  0
  -25.4257  -22.2685   18.8585 N   0  0  0  0  0  0  0  0  0  0  0  0
  -20.1791  -21.1557   20.9750 N   0  0  0  0  0  0  0  0  0  0  0  0
  -22.0962  -19.2496   27.2323 N   0  0  0  0  0  0  0  0  0  0  0  0
  -30.4577  -15.0268   18.7520 N   0  0  0  0  0  0  0  0  0  0  0  0
  -20.7983  -16.4629   29.1343 N   0  3  0  0  0  0  0  0  0  0  0  0
  -24.8321  -20.0540   18.9067 O   0  0  0  0  0  0  0  0  0  0  0  0
  -23.4210  -12.5048   19.1003 O   0  0  0  0  0  0  0  0  0  0  0  0
  -22.2023  -20.5722   21.9693 O   0  0  0  0  0  0  0  0  0  0  0  0
  -20.8564  -21.1154   25.4461 O   0  0  0  0  0  0  0  0  0  0  0  0
  -22.5919  -16.9932   27.0323 O   0  0  0  0  0  0  0  0  0  0  0  0
  -32.2034  -14.5458   20.1584 O   0  0  0  0  0  0  0  0  0  0  0  0
  -28.1589  -13.0072   18.9638 O   0  0  0  0  0  0  0  0  0  0  0  0
  -28.3509  -26.9806   19.3822 O   0  0  0  0  0  0  0  0  0  0  0  0
  -22.0919  -14.0634   20.9072 O   0  0  0  0  0  0  0  0  0  1  0  0
  -24.0564  -29.9169   21.2096 F   0  0  0  0  0  0  0  0  0  0  0  0
  -28.6708  -28.8743   21.3707 F   0  0  0  0  0  0  0  0  0  0  0  0
  1  2  1  0  0  0  0
  1  5  2  0  0  0  0
  2  6  2  0  0  0  0
  3  8  2  0  0  0  0
  3 17  1  0  0  0  0
  4  9  1  0  0  0  0
  4 17  2  0  0  0  0
  5 19  1  0  0  0  0
  6 21  1  0  0  0  0
  7 10  2  0  0  0  0
  7 20  1  0  0  0  0
  8 23  1  0  0  0  0
  9 23  2  0  0  0  0
 10 24  1  0  0  0  0
 11 12  2  0  0  0  0
 11 25  1  0  0  0  0
 12 26  1  0  0  0  0
 13 14  1  0  0  0  0
 13 29  2  0  0  0  0
 14 30  2  0  0  0  0
 15 22  1  0  0  0  0
 15 24  2  0  0  0  0
 16 26  2  0  0  0  0
 16 27  1  0  0  0  0
 17 28  1  0  0  0  0
 18 28  1  0  0  0  0
 18 31  2  0  0  0  0
 18 33  1  0  0  0  0
 19 21  2  0  0  0  0
 19 39  1  0  0  0  0
 20 22  2  0  0  0  0
 20 40  1  0  0  0  0
 21 48  1  0  0  0  0
 22 41  1  0  0  0  0
 23 79  1  0  0  0  0
 24 80  1  0  0  0  0
 25 27  2  0  0  0  0
 25 79  1  0  0  0  0
 26 81  1  0  0  0  0
 27 82  1  0  0  0  0
 28 61  2  0  0  0  0
 29 56  1  0  0  0  0
 29 78  1  0  0  0  0
 30 62  1  0  0  0  0
 30 78  1  0  0  0  0
 31 63  1  0  0  0  0
 31 66  1  0  0  0  0
 32 34  1  0  0  0  0
 32 62  2  0  0  0  0
 33 67  1  0  0  0  0
 33 72  2  0  0  0  0
 34 57  1  0  0  0  0
 34 73  2  0  0  0  0
 35 49  1  0  0  0  0
 35 68  1  0  0  0  0
 35 74  2  0  0  0  0
 36 58  1  0  0  0  0
 36 64  1  0  0  0  0
 36 75  2  0  0  0  0
 37 59  1  0  0  0  0
 37 69  1  0  0  0  0
 37 76  2  0  0  0  0
 38 65  1  0  0  0  0
 38 70  1  0  0  0  0
 38 77  2  0  0  0  0
 39 42  1  0  0  0  0
 40 49  1  0  0  0  0
 41 64  1  0  0  0  0
 42 44  1  0  0  0  0
 43 45  1  0  0  0  0
 43 46  1  0  0  0  0
 44 48  1  0  0  0  0
 45 50  1  0  0  0  0
 46 65  1  0  0  0  0
 47 50  1  0  0  0  0
 47 65  1  0  0  0  0
 48 68  1  0  0  0  0
 49 64  1  0  0  0  0
 50 63  1  0  0  0  0
 51 59  1  0  0  0  0
 52 60  1  0  0  0  0
 53 60  1  0  0  0  0
 54 60  1  0  0  0  0
 55 71  1  0  0  0  0
 56 70  1  0  0  0  0
 57 80  1  0  0  0  0
 58 60  1  0  0  0  0
 58 69  1  0  0  0  0
 59 71  1  0  0  0  0
 61 63  1  0  0  0  0
M  CHG  1  71   1
M  ISO  4  38 100  57 101  70 100  80 101
M  END
> <Batch ID>
0162

> <Smiles>
CNC(C)C(=O)NC(C(=O)N1Cc2cc([101O:1][101CH2:1]C(=O)CNc3ccc(C=[100N:0][100C:0](=O)N4CCCC(n5nc(-c6ccc(Oc7ccc(F)cc7F)cc6)c(C(N)=O)c5N)C4)o3)ccc2CC1C(=O)NC1CCCc2ccccc21)C(C)(C)C

> <Shape>
0.184

> <Color>
0.095

> <Negative vol penalty>
0.000

$$$$

  -OEChem-04052303563D

 85 94  0     1  0  0  0  0  0999 V2000
  -32.7123  -35.9963   17.5883 C   0  0  0  0  0  0  0  0  0  0  0  0
  -32.6096  -34.6096   17.6331 C   0  0  0  0  0  0  0  0  0  0  0  0
  -23.4425   -9.5090   20.9969 C   0  0  0  0  0  0  0  0  0  0  0  0
  -24.1464  -10.3144   23.1632 C   0  0  0  0  0  0  0  0  0  0  0  0
  -32.2318  -36.7644   18.6481 C   0  0  0  0  0  0  0  0  0  0  0  0
  -32.0273  -33.9901   18.7383 C   0  0  0  0  0  0  0  0  0  0  0  0
  -28.6348  -28.8914   18.7378 C   0  0  0  0  0  0  0  0  0  0  0  0
  -22.8505   -8.4002   21.6014 C   0  0  0  0  0  0  0  0  0  0  0  0
  -23.5544   -9.2055   23.7678 C   0  0  0  0  0  0  0  0  0  0  0  0
  -28.9411  -27.5609   19.0202 C   0  0  0  0  0  0  0  0  0  0  0  0
  -20.4462   -8.2143   24.6492 C   0  0  0  0  0  0  0  0  0  0  0  0
  -19.6764   -8.4347   25.7914 C   0  0  0  0  0  0  0  0  0  0  0  0
  -28.1554  -27.8660   21.2804 C   0  0  0  0  0  0  0  0  0  0  0  0
  -21.1445   -6.9939   27.0588 C   0  0  0  0  0  0  0  0  0  0  0  0
  -31.3060  -19.5179   20.0930 C   0  0  0  0  0  0  0  0  0  0  0  0
  -28.9980  -18.6432   21.1105 C   0  0  0  0  0  0  0  0  0  0  0  0
  -24.0905  -10.4662   21.7778 C   0  0  0  0  0  0  0  0  0  0  0  0
  -24.1020  -12.8564   20.8865 C   0  0  0  0  0  0  0  0  0  0  0  0
  -31.6347  -36.1544   19.7625 C   0  0  0  0  0  0  0  0  0  0  0  0
  -28.0957  -29.7236   19.7294 C   0  0  0  0  0  0  0  0  0  0  0  0
  -31.5397  -34.7507   19.8147 C   0  0  0  0  0  0  0  0  0  0  0  0
  -27.8407  -29.2059   21.0074 C   0  0  0  0  0  0  0  0  0  0  0  0
  -22.9065   -8.2484   22.9869 C   0  0  0  0  0  0  0  0  0  0  0  0
  -28.7041  -27.0488   20.2924 C   0  0  0  0  0  0  0  0  0  0  0  0
  -21.5651   -7.3837   24.7118 C   0  0  0  0  0  0  0  0  0  0  0  0
  -20.0256   -7.8245   26.9961 C   0  0  0  0  0  0  0  0  0  0  0  0
  -21.9142   -6.7736   25.9166 C   0  0  0  0  0  0  0  0  0  0  0  0
  -24.7027  -11.6116   21.1538 C   0  0  0  0  0  0  0  0  0  0  0  0
  -30.3959  -20.3921   20.6452 C   0  0  0  0  0  0  0  0  0  0  0  0
  -29.9076  -17.7690   20.5576 C   0  0  0  0  0  0  0  0  0  0  0  0
  -25.0943  -13.5955   20.2902 C   0  0  0  0  0  0  0  0  0  0  0  0
  -30.7076  -24.0918   20.6768 C   0  0  0  0  0  0  0  0  0  0  0  0
  -30.3002  -25.3446   20.4306 C   0  0  0  0  0  0  0  0  0  1  0  0
  -22.7665  -13.3045   21.1534 C   0  0  0  0  0  0  0  0  0  0  0  0
  -29.0377  -32.3947   21.1721 C   0  0  0  0  0  0  0  0  0  0  0  0
  -26.0830  -32.2556   22.5035 C   0  0  0  0  0  0  0  0  0  0  0  0
  -23.3997  -30.3508   23.4085 C   0  0  0  0  0  0  0  0  0  0  0  0
  -30.3721  -15.3501   20.0285 C   0  0  0  0  0  0  0  0  0  0  0  0
  -31.1727  -37.0238   20.9051 C   0  0  0  0  0  0  0  0  0  0  0  0
  -27.7459  -31.1492   19.4013 C   0  0  0  0  0  0  0  0  0  0  0  0
  -27.2444  -30.0523   22.1013 C   0  0  0  0  0  0  0  0  0  0  0  0
  -32.1284  -23.6571   20.5207 C   0  0  0  0  0  0  0  0  0  0  0  0
  -30.2308  -36.3100   21.8714 C   0  0  0  0  0  0  0  0  0  0  0  0
  -29.6328  -12.2051   18.5321 C   0  0  0  0  0  0  0  0  0  0  0  0
  -30.7776  -34.9318   22.2296 C   0  0  0  0  0  0  0  0  0  0  0  0
  -28.2348  -11.8727   19.0588 C   0  0  0  0  0  0  0  0  0  0  0  0
  -31.9828  -22.2079   20.0950 C   0  0  0  0  0  0  0  0  0  0  0  0
  -30.4846  -12.9071   19.5882 C   0  0  0  0  0  0  0  0  0  0  0  0
  -28.4707  -13.7623   20.7204 C   0  0  0  0  0  0  0  0  0  0  0  0
  -30.8921  -34.0431   20.9852 C   0  0  1  0  0  0  0  0  0  0  0  0
  -27.6790  -32.0467   20.6331 C   0  0  1  0  0  0  0  0  0  0  0  0
  -27.5539  -13.1124   19.6712 C   0  0  2  0  0  0  0  0  0  0  0  0
  -29.8473  -22.8891   21.0705 C   0  0  0  0  0  0  0  0  0  0  0  0
  -28.5119  -22.9022   20.3121 C   0  0  0  0  0  0  0  0  0  0  0  0
  -29.6618  -22.9409   22.5936 C   0  0  0  0  0  0  0  0  0  0  0  0
  -21.1513  -30.5126   24.5111 C   0  0  0  0  0  0  0  0  0  0  0  0
  -27.4378  -32.4711   25.2290 C   0  0  0  0  0  0  0  0  0  0  0  0
  -25.3038  -31.6829   26.2744 C   0  0  0  0  0  0  0  0  0  0  0  0
  -25.3471  -33.8230   24.9935 C   0  0  0  0  0  0  0  0  0  0  0  0
  -22.0093  -29.3966   20.9764 C   0  0  0  0  0  0  0  0  0  0  0  0
  -25.4989  -31.6289   23.7466 C   0  0  1  0  0  0  0  0  0  0  0  0
  -21.9094  -30.5432   23.1931 C   0  0  2  0  0  0  0  0  0  0  0  0
  -25.9100  -32.3858   25.0410 C   0  0  0  0  0  0  0  0  0  0  0  0
  -29.2258  -19.9705   21.1642 N   0  0  0  0  0  0  0  0  0  0  0  0
  -31.0780  -18.1906   20.0389 N   0  0  0  0  0  0  0  0  0  0  0  0
  -25.9778  -11.5591   20.7595 N   0  0  0  0  0  0  0  0  0  0  0  0
  -26.1864  -12.7801   20.2383 N   0  0  0  0  0  0  0  0  0  0  0  0
  -30.7072  -21.7453   20.6605 N   0  0  3  0  0  0  0  0  0  0  0  0
  -26.9254  -31.4416   21.7331 N   0  0  0  0  0  0  0  0  0  0  0  0
  -29.7774  -14.0740   20.1203 N   0  0  0  0  0  0  0  0  0  0  0  0
  -25.1304  -14.8568   19.8104 N   0  0  0  0  0  0  0  0  0  0  0  0
  -21.8751  -12.4173   21.7720 N   0  0  0  0  0  0  0  0  0  0  0  0
  -29.5924  -16.3877   20.5386 N   0  0  0  0  0  0  0  0  0  0  0  0
  -29.5924  -33.5287   20.6101 N   0  0  0  0  0  0  0  0  0  0  0  0
  -24.0582  -31.5563   23.5288 N   0  0  0  0  0  0  0  0  0  0  0  0
  -21.3696  -29.4666   22.3154 N   0  3  0  0  0  0  0  0  0  0  0  0
  -22.3703  -14.4520   20.8373 O   0  0  0  0  0  0  0  0  0  0  0  0
  -29.5446  -31.6876   22.0351 O   0  0  0  0  0  0  0  0  0  0  0  0
  -25.7965  -33.4220   22.2226 O   0  0  0  0  0  0  0  0  0  0  0  0
  -23.9265  -29.2420   23.4680 O   0  0  0  0  0  0  0  0  0  0  0  0
  -31.4791  -15.5144   19.5093 O   0  0  0  0  0  0  0  0  0  0  0  0
  -22.3287   -7.1665   23.5772 O   0  0  0  0  0  0  0  0  0  0  0  0
  -29.0028  -25.7507   20.5709 O   0  0  0  0  0  0  0  0  0  1  0  0
  -19.2872   -8.0375   28.0932 F   0  0  0  0  0  0  0  0  0  0  0  0
  -22.9887   -5.9755   25.9831 F   0  0  0  0  0  0  0  0  0  0  0  0
  1  2  1  0  0  0  0
  1  5  2  0  0  0  0
  2  6  2  0  0  0  0
  3  8  2  0  0  0  0
  3 17  1  0  0  0  0
  4  9  1  0  0  0  0
  4 17  2  0  0  0  0
  5 19  1  0  0  0  0
  6 21  1  0  0  0  0
  7 10  2  0  0  0  0
  7 20  1  0  0  0  0
  8 23  1  0  0  0  0
  9 23  2  0  0  0  0
 10 24  1  0  0  0  0
 11 12  2  0  0  0  0
 11 25  1  0  0  0  0
 12 26  1  0  0  0  0
 13 22  1  0  0  0  0
 13 24  2  0  0  0  0
 14 26  2  0  0  0  0
 14 27  1  0  0  0  0
 15 29  1  0  0  0  0
 15 65  2  0  0  0  0
 16 30  2  0  0  0  0
 16 64  1  0  0  0  0
 17 28  1  0  0  0  0
 18 28  1  0  0  0  0
 18 31  2  0  0  0  0
 18 34  1  0  0  0  0
 19 21  2  0  0  0  0
 19 39  1  0  0  0  0
 20 22  2  0  0  0  0
 20 40  1  0  0  0  0
 21 50  1  0  0  0  0
 22 41  1  0  0  0  0
 23 82  1  0  0  0  0
 24 83  1  0  0  0  0
 25 27  2  0  0  0  0
 25 82  1  0  0  0  0
 26 84  1  0  0  0  0
 27 85  1  0  0  0  0
 28 66  2  0  0  0  0
 29 64  2  0  0  0  0
 29 68  1  0  0  0  0
 30 65  1  0  0  0  0
 30 73  1  0  0  0  0
 31 67  1  0  0  0  0
 31 71  1  0  0  0  0
 32 33  2  0  0  0  0
 32 42  1  0  0  0  0
 32 53  1  0  0  0  0
 33 83  1  0  0  0  0
 34 72  1  0  0  0  0
 34 77  2  0  0  0  0
 35 51  1  0  0  0  0
 35 74  1  0  0  0  0
 35 78  2  0  0  0  0
 36 61  1  0  0  0  0
 36 69  1  0  0  0  0
 36 79  2  0  0  0  0
 37 62  1  0  0  0  0
 37 75  1  0  0  0  0
 37 80  2  0  0  0  0
 38 70  1  0  0  0  0
 38 73  1  0  0  0  0
 38 81  2  0  0  0  0
 39 43  1  0  0  0  0
 40 51  1  0  0  0  0
 41 69  1  0  0  0  0
 42 47  1  0  0  0  0
 43 45  1  0  0  0  0
 44 46  1  0  0  0  0
 44 48  1  0  0  0  0
 45 50  1  0  0  0  0
 46 52  1  0  0  0  0
 47 68  1  0  0  0  0
 48 70  1  0  0  0  0
 49 52  1  0  0  0  0
 49 70  1  0  0  0  0
 50 74  1  0  0  0  0
 51 69  1  0  0  0  0
 52 67  1  0  0  0  0
 53 54  1  0  0  0  0
 53 55  1  0  0  0  0
 53 68  1  0  0  0  0
 56 62  1  0  0  0  0
 57 63  1  0  0  0  0
 58 63  1  0  0  0  0
 59 63  1  0  0  0  0
 60 76  1  0  0  0  0
 61 63  1  0  0  0  0
 61 75  1  0  0  0  0
 62 76  1  0  0  0  0
 66 67  1  0  0  0  0
M  CHG  1  76   1
M  ISO  4  33 101  38 100  73 100  83 101
M  END
> <Batch ID>
0162

> <Smiles>
CNC(C)C(=O)NC(C(=O)N1Cc2cc([101O:1][101CH:1]=C3CCN(c4cnc([100NH:0][100C:0](=O)N5CCCC(n6nc(-c7ccc(Oc8ccc(F)cc8F)cc7)c(C(N)=O)c6N)C5)cn4)C3(C)C)ccc2CC1C(=O)NC1CCCc2ccccc21)C(C)(C)C

> <Shape>
0.308

> <Color>
0.184

> <Negative vol penalty>
0.000

$$$$

  -OEChem-04052303563D

 92100  0     1  0  0  0  0  0999 V2000
  -27.3244  -34.2859   25.0552 C   0  0  0  0  0  0  0  0  0  0  0  0
  -27.6445  -33.0528   24.4963 C   0  0  0  0  0  0  0  0  0  0  0  0
  -26.2419  -13.3229   20.9368 C   0  0  0  0  0  0  0  0  0  0  0  0
  -26.0749  -13.4432   18.5296 C   0  0  0  0  0  0  0  0  0  0  0  0
  -26.0353  -34.5203   25.5320 C   0  0  0  0  0  0  0  0  0  0  0  0
  -26.6759  -32.0529   24.4149 C   0  0  0  0  0  0  0  0  0  0  0  0
  -26.6417  -29.7436   19.9082 C   0  0  0  0  0  0  0  0  0  0  0  0
  -25.8072  -11.9980   20.9007 C   0  0  0  0  0  0  0  0  0  0  0  0
  -25.6403  -12.1183   18.4935 C   0  0  0  0  0  0  0  0  0  0  0  0
  -27.6333  -28.7922   19.6727 C   0  0  0  0  0  0  0  0  0  0  0  0
  -22.8764  -10.3465   20.5732 C   0  0  0  0  0  0  0  0  0  0  0  0
  -21.9064   -9.9581   21.4972 C   0  0  0  0  0  0  0  0  0  0  0  0
  -26.0573  -27.0352   20.1710 C   0  0  0  0  0  0  0  0  0  0  0  0
  -28.2932  -19.4406   23.5567 C   0  0  0  0  0  0  0  0  0  0  0  0
  -26.5181  -20.9318   22.8770 C   0  0  0  0  0  0  0  0  0  0  0  0
  -23.4242   -8.3076   22.3968 C   0  0  0  0  0  0  0  0  0  0  0  0
  -26.3757  -14.0456   19.7512 C   0  0  0  0  0  0  0  0  0  0  0  0
  -28.1522  -15.8760   19.7186 C   0  0  0  0  0  0  0  0  0  0  0  0
  -25.0478  -33.5261   25.4476 C   0  0  0  0  0  0  0  0  0  0  0  0
  -25.3513  -29.3476   20.2881 C   0  0  0  0  0  0  0  0  0  0  0  0
  -25.3728  -32.2738   24.8923 C   0  0  0  0  0  0  0  0  0  0  0  0
  -25.0505  -27.9834   20.4082 C   0  0  0  0  0  0  0  0  0  0  0  0
  -25.9941  -18.8854   24.0495 C   0  0  0  0  0  0  0  0  0  0  0  0
  -27.8762  -20.6198   22.9392 C   0  0  0  0  0  0  0  0  0  0  0  0
  -27.3522  -18.5734   24.1117 C   0  0  0  0  0  0  0  0  0  0  0  0
  -25.5770  -20.0647   23.4321 C   0  0  0  0  0  0  0  0  0  0  0  0
  -25.5065  -11.3957   19.6791 C   0  0  0  0  0  0  0  0  0  0  0  0
  -27.3420  -27.4379   19.8069 C   0  0  0  0  0  0  0  0  0  0  0  0
  -24.1203   -9.7155   20.5610 C   0  0  0  0  0  0  0  0  0  0  0  0
  -22.1802   -8.9387   22.4090 C   0  0  0  0  0  0  0  0  0  0  0  0
  -24.3942   -8.6960   21.4727 C   0  0  0  0  0  0  0  0  0  0  0  0
  -26.8241  -15.4144   19.7878 C   0  0  0  0  0  0  0  0  0  0  0  0
  -28.0448  -17.2433   19.7935 C   0  0  0  0  0  0  0  0  0  0  0  0
  -29.3737  -15.1352   19.5973 C   0  0  0  0  0  0  0  0  0  0  0  0
  -29.7310  -23.3954   21.2523 C   0  0  0  0  0  0  0  0  0  0  0  0
  -29.6002  -24.7182   20.5230 C   0  0  0  0  0  0  0  0  0  0  0  0
  -23.5240  -29.8140   22.8468 C   0  0  0  0  0  0  0  0  0  0  0  0
  -21.2926  -28.2952   21.0478 C   0  0  0  0  0  0  0  0  0  0  0  0
  -28.9306  -16.6358   24.4230 C   0  0  0  0  0  0  0  0  0  0  0  0
  -20.6086  -26.1484   18.4845 C   0  0  0  0  0  0  0  0  0  0  0  0
  -23.4932  -20.5966   22.1414 C   0  0  0  0  0  0  0  0  0  0  0  0
  -23.6814  -33.8098   26.0195 C   0  0  0  0  0  0  0  0  0  0  0  0
  -24.2857  -30.3852   20.5124 C   0  0  0  0  0  0  0  0  0  0  0  0
  -23.6753  -27.5055   20.7939 C   0  0  0  0  0  0  0  0  0  0  0  0
  -22.6105  -32.8261   25.5550 C   0  0  0  0  0  0  0  0  0  0  0  0
  -25.0678  -20.8492   18.8022 C   0  0  0  0  0  0  0  0  0  0  0  0
  -23.1199  -31.3924   25.6624 C   0  0  0  0  0  0  0  0  0  0  0  0
  -25.7388  -19.4866   18.6396 C   0  0  0  0  0  0  0  0  0  0  0  0
  -23.8348  -20.7701   19.6973 C   0  0  0  0  0  0  0  0  0  0  0  0
  -24.7827  -18.8078   20.8771 C   0  0  0  0  0  0  0  0  0  0  0  0
  -24.3428  -31.1726   24.7637 C   0  0  1  0  0  0  0  0  0  0  0  0
  -23.1446  -29.8887   21.3949 C   0  0  1  0  0  0  0  0  0  0  0  0
  -26.0508  -18.8683   20.0124 C   0  0  1  0  0  0  0  0  0  0  0  0
  -24.9840  -17.9549   24.6465 C   0  0  0  0  0  0  0  0  0  0  0  0
  -30.3391  -13.3461   25.9962 C   0  0  0  0  0  0  0  0  0  0  0  0
  -18.6914  -25.0727   17.2743 C   0  0  0  0  0  0  0  0  0  0  0  0
  -20.9036  -26.3685   23.3815 C   0  0  0  0  0  0  0  0  0  0  0  0
  -19.7320  -24.8112   21.8097 C   0  0  0  0  0  0  0  0  0  0  0  0
  -18.7887  -27.0779   22.2508 C   0  0  0  0  0  0  0  0  0  0  0  0
  -23.5095  -20.8287   24.5863 C   0  0  0  0  0  0  0  0  0  0  0  0
  -21.3689  -27.4111   15.9181 C   0  0  0  0  0  0  0  0  0  0  0  0
  -28.4719  -22.7197   21.7306 C   0  0  0  0  0  0  0  0  0  0  0  0
  -28.2197  -25.2858   20.3108 C   0  0  0  0  0  0  0  0  0  1  0  0
  -29.0401  -15.4231   25.3393 C   0  0  0  0  0  0  0  0  0  0  0  0
  -30.2603  -14.5471   25.0639 C   0  0  0  0  0  0  0  0  0  0  0  0
  -20.8795  -26.8573   20.8464 C   0  0  1  0  0  0  0  0  0  0  0  0
  -19.6502  -26.2526   17.3119 C   0  0  2  0  0  0  0  0  0  0  0  0
  -20.1025  -26.2875   22.0667 C   0  0  0  0  0  0  0  0  0  0  0  0
  -25.9380  -16.4077   19.8984 N   0  0  0  0  0  0  0  0  0  0  0  0
  -26.7109  -17.5072   19.8993 N   0  0  0  0  0  0  0  0  0  0  0  0
  -22.6691  -28.5586   21.0088 N   0  0  0  0  0  0  0  0  0  0  0  0
  -24.1334  -20.1251   20.9769 N   0  0  0  0  0  0  0  0  0  0  0  0
  -28.9622  -18.2335   19.7787 N   0  0  0  0  0  0  0  0  0  0  0  0
  -29.3035  -13.7369   19.5330 N   0  0  0  0  0  0  0  0  0  0  0  0
  -27.7921  -17.3977   24.7258 N   0  0  0  0  0  0  0  0  0  0  0  0
  -28.8117  -21.4814   22.3869 N   0  0  0  0  0  0  0  0  0  0  0  0
  -23.9349  -31.0191   23.3837 N   0  0  0  0  0  0  0  0  0  0  0  0
  -20.1346  -26.8183   19.5926 N   0  0  0  0  0  0  0  0  0  0  0  0
  -24.1779  -20.4077   23.3570 N   0  0  0  0  0  0  0  0  0  0  0  0
  -20.4051  -26.2859   16.0274 N   0  3  0  0  0  0  0  0  0  0  0  0
  -30.4954  -15.6958   19.5639 O   0  0  0  0  0  0  0  0  0  0  0  0
  -30.8632  -22.9557   21.4092 O   0  0  0  0  0  0  0  0  0  0  0  0
  -30.6317  -25.2562   20.1413 O   0  0  0  0  0  0  0  0  0  0  0  0
  -23.4481  -28.7426   23.4368 O   0  0  0  0  0  0  0  0  0  0  0  0
  -20.4254  -29.1543   21.2257 O   0  0  0  0  0  0  0  0  0  0  0  0
  -29.7475  -16.8584   23.5357 O   0  0  0  0  0  0  0  0  0  0  0  0
  -21.6697  -25.5312   18.4247 O   0  0  0  0  0  0  0  0  0  0  0  0
  -22.3641  -21.1013   22.1086 O   0  0  0  0  0  0  0  0  0  0  0  0
  -25.0826  -10.1028   19.6435 O   0  0  0  0  0  0  0  0  0  0  0  0
  -28.3081  -26.5072   19.5783 O   0  0  0  0  0  0  0  0  0  1  0  0
  -21.2492   -8.5668   23.2972 F   0  0  0  0  0  0  0  0  0  0  0  0
  -25.5878   -8.0868   21.4666 F   0  0  0  0  0  0  0  0  0  0  0  0
  1  2  1  0  0  0  0
  1  5  2  0  0  0  0
  2  6  2  0  0  0  0
  3  8  2  0  0  0  0
  3 17  1  0  0  0  0
  4  9  1  0  0  0  0
  4 17  2  0  0  0  0
  5 19  1  0  0  0  0
  6 21  1  0  0  0  0
  7 10  2  0  0  0  0
  7 20  1  0  0  0  0
  8 27  1  0  0  0  0
  9 27  2  0  0  0  0
 10 28  1  0  0  0  0
 11 12  2  0  0  0  0
 11 29  1  0  0  0  0
 12 30  1  0  0  0  0
 13 22  1  0  0  0  0
 13 28  2  0  0  0  0
 14 24  2  0  0  0  0
 14 25  1  0  0  0  0
 15 24  1  0  0  0  0
 15 26  2  0  0  0  0
 16 30  2  0  0  0  0
 16 31  1  0  0  0  0
 17 32  1  0  0  0  0
 18 32  1  0  0  0  0
 18 33  2  0  0  0  0
 18 34  1  0  0  0  0
 19 21  2  0  0  0  0
 19 42  1  0  0  0  0
 20 22  2  0  0  0  0
 20 43  1  0  0  0  0
 21 51  1  0  0  0  0
 22 44  1  0  0  0  0
 23 25  2  0  0  0  0
 23 26  1  0  0  0  0
 23 54  1  0  0  0  0
 24 76  1  0  0  0  0
 25 75  1  0  0  0  0
 26 79  1  0  0  0  0
 27 89  1  0  0  0  0
 28 90  1  0  0  0  0
 29 31  2  0  0  0  0
 29 89  1  0  0  0  0
 30 91  1  0  0  0  0
 31 92  1  0  0  0  0
 32 69  2  0  0  0  0
 33 70  1  0  0  0  0
 33 73  1  0  0  0  0
 34 74  1  0  0  0  0
 34 81  2  0  0  0  0
 35 36  1  0  0  0  0
 35 62  1  0  0  0  0
 35 82  2  0  0  0  0
 36 63  1  0  0  0  0
 36 83  2  0  0  0  0
 37 52  1  0  0  0  0
 37 77  1  0  0  0  0
 37 84  2  0  0  0  0
 38 66  1  0  0  0  0
 38 71  1  0  0  0  0
 38 85  2  0  0  0  0
 39 64  1  0  0  0  0
 39 75  1  0  0  0  0
 39 86  2  0  0  0  0
 40 67  1  0  0  0  0
 40 78  1  0  0  0  0
 40 87  2  0  0  0  0
 41 72  1  0  0  0  0
 41 79  1  0  0  0  0
 41 88  2  0  0  0  0
 42 45  1  0  0  0  0
 43 52  1  0  0  0  0
 44 71  1  0  0  0  0
 45 47  1  0  0  0  0
 46 48  1  0  0  0  0
 46 49  1  0  0  0  0
 47 51  1  0  0  0  0
 48 53  1  0  0  0  0
 49 72  1  0  0  0  0
 50 53  1  0  0  0  0
 50 72  1  0  0  0  0
 51 77  1  0  0  0  0
 52 71  1  0  0  0  0
 53 70  1  0  0  0  0
 55 65  1  0  0  0  0
 56 67  1  0  0  0  0
 57 68  1  0  0  0  0
 58 68  1  0  0  0  0
 59 68  1  0  0  0  0
 60 79  1  0  0  0  0
 61 80  1  0  0  0  0
 62 76  1  0  0  0  0
 63 90  1  0  0  0  0
 64 65  1  0  0  0  0
 66 68  1  0  0  0  0
 66 78  1  0  0  0  0
 67 80  1  0  0  0  0
 69 70  1  0  0  0  0
M  CHG  1  80   1
M  ISO  4  41 100  63 101  79 100  90 101
M  END
> <Batch ID>
0162

> <Smiles>
CCCC(=O)Nc1cc(NCC(=O)C(=O)[101CH2:1][101O:1]c2ccc3c(c2)CN(C(=O)C(NC(=O)C(C)NC)C(C)(C)C)C(C(=O)NC2CCCc4ccccc42)C3)cc([100N:0](C)[100C:0](=O)N2CCCC(n3nc(-c4ccc(Oc5ccc(F)cc5F)cc4)c(C(N)=O)c3N)C2)c1C

> <Shape>
0.254

> <Color>
0.090

> <Negative vol penalty>
0.000

$$$$

  -OEChem-04052303563D

 87 96  0     1  0  0  0  0  0999 V2000
  -26.3522  -38.4356   21.2314 C   0  0  0  0  0  0  0  0  0  0  0  0
  -27.0475  -37.3956   20.6230 C   0  0  0  0  0  0  0  0  0  0  0  0
  -26.8993   -9.2018   22.1279 C   0  0  0  0  0  0  0  0  0  0  0  0
  -26.5271   -9.1134   19.7424 C   0  0  0  0  0  0  0  0  0  0  0  0
  -25.5834  -38.1878   22.3678 C   0  0  0  0  0  0  0  0  0  0  0  0
  -26.9753  -36.1071   21.1514 C   0  0  0  0  0  0  0  0  0  0  0  0
  -27.0327  -29.2341   19.1330 C   0  0  0  0  0  0  0  0  0  0  0  0
  -27.7318   -8.0862   22.0394 C   0  0  0  0  0  0  0  0  0  0  0  0
  -27.3598   -7.9978   19.6539 C   0  0  0  0  0  0  0  0  0  0  0  0
  -27.6880  -28.0353   19.4110 C   0  0  0  0  0  0  0  0  0  0  0  0
  -27.1507   -4.6786   20.2624 C   0  0  0  0  0  0  0  0  0  0  0  0
  -26.7145   -3.6043   19.4870 C   0  0  0  0  0  0  0  0  0  0  0  0
  -26.2651  -27.7098   21.3315 C   0  0  0  0  0  0  0  0  0  0  0  0
  -28.6621   -3.8323   18.0756 C   0  0  0  0  0  0  0  0  0  0  0  0
  -28.3817  -17.6663   23.2006 C   0  0  0  0  0  0  0  0  0  0  0  0
  -26.2969   -9.7154   20.9794 C   0  0  0  0  0  0  0  0  0  0  0  0
  -24.2497  -10.9853   21.8186 C   0  0  0  0  0  0  0  0  0  0  0  0
  -25.4940  -36.8938   22.9047 C   0  0  0  0  0  0  0  0  0  0  0  0
  -25.9941  -29.6859   19.9598 C   0  0  0  0  0  0  0  0  0  0  0  0
  -26.2057  -35.8420   22.2968 C   0  0  0  0  0  0  0  0  0  0  0  0
  -25.5964  -28.9134   21.0604 C   0  0  0  0  0  0  0  0  0  0  0  0
  -27.9621   -7.4842   20.8024 C   0  0  0  0  0  0  0  0  0  0  0  0
  -27.3062  -27.2744   20.5120 C   0  0  0  0  0  0  0  0  0  0  0  0
  -28.3426   -5.3298   19.9444 C   0  0  0  0  0  0  0  0  0  0  0  0
  -27.4702   -3.1812   18.3936 C   0  0  0  0  0  0  0  0  0  0  0  0
  -29.0983   -4.9067   18.8510 C   0  0  0  0  0  0  0  0  0  0  0  0
  -25.4363  -10.8674   21.0702 C   0  0  0  0  0  0  0  0  0  0  0  0
  -28.4171  -20.2298   22.4559 C   0  0  0  0  0  0  0  0  0  0  0  0
  -27.8222  -18.0676   22.0076 C   0  0  0  0  0  0  0  0  0  0  0  0
  -28.9759  -19.8285   23.6493 C   0  0  0  0  0  0  0  0  0  0  0  0
  -23.8131  -12.2638   21.5708 C   0  0  0  0  0  0  0  0  0  0  0  0
  -23.6004  -10.0250   22.6623 C   0  0  0  0  0  0  0  0  0  0  0  0
  -25.5355  -32.2438   21.7902 C   0  0  0  0  0  0  0  0  0  0  0  0
  -22.5649  -30.9857   22.1298 C   0  0  0  0  0  0  0  0  0  0  0  0
  -21.1322  -27.7102   22.6157 C   0  0  0  0  0  0  0  0  0  0  0  0
  -26.6075  -17.2883   19.9427 C   0  0  0  0  0  0  0  0  0  0  0  0
  -24.6882  -36.6838   24.1622 C   0  0  0  0  0  0  0  0  0  0  0  0
  -25.2795  -30.9679   19.6309 C   0  0  0  0  0  0  0  0  0  0  0  0
  -24.4739  -29.3441   21.9675 C   0  0  0  0  0  0  0  0  0  0  0  0
  -24.3640  -35.2182   24.4402 C   0  0  0  0  0  0  0  0  0  0  0  0
  -23.9400  -15.6804   18.2175 C   0  0  0  0  0  0  0  0  0  0  0  0
  -25.6085  -34.3537   24.2651 C   0  0  0  0  0  0  0  0  0  0  0  0
  -27.1789  -22.0398   21.1934 C   0  0  0  0  0  0  0  0  0  0  0  0
  -29.7127  -22.0380   21.2492 C   0  0  0  0  0  0  0  0  0  0  0  0
  -23.9091  -14.2764   18.8257 C   0  0  0  0  0  0  0  0  0  0  0  0
  -27.1913  -23.5100   20.7654 C   0  0  0  0  0  0  0  0  0  0  0  0
  -29.7214  -23.5087   20.8243 C   0  0  0  0  0  0  0  0  0  0  0  0
  -25.3672  -16.2077   18.0802 C   0  0  0  0  0  0  0  0  0  0  0  0
  -26.1354  -14.7600   19.9196 C   0  0  0  0  0  0  0  0  0  0  0  0
  -26.1325  -34.4260   22.8257 C   0  0  1  0  0  0  0  0  0  0  0  0
  -28.4280  -21.6825   22.0158 C   0  0  0  0  0  0  0  0  0  0  0  0
  -24.5783  -31.5872   20.8360 C   0  0  1  0  0  0  0  0  0  0  0  0
  -24.7153  -14.2126   20.1377 C   0  0  2  0  0  0  0  0  0  0  0  0
  -28.4743  -23.8872   20.0098 C   0  0  0  0  0  0  0  0  0  0  0  0
  -18.8714  -26.8109   22.0013 C   0  0  0  0  0  0  0  0  0  0  0  0
  -21.7988  -31.7721   24.9766 C   0  0  0  0  0  0  0  0  0  0  0  0
  -20.4168  -29.6884   25.1059 C   0  0  0  0  0  0  0  0  0  0  0  0
  -19.8628  -31.4482   23.4270 C   0  0  0  0  0  0  0  0  0  0  0  0
  -22.3116  -25.4705   21.0822 C   0  0  0  0  0  0  0  0  0  0  0  0
  -29.6489  -23.4649   18.0185 C   0  0  0  0  0  0  0  0  0  0  0  0
  -28.4782  -25.3806   19.6780 C   0  0  0  0  0  0  0  0  0  1  0  0
  -21.9180  -30.0153   23.0884 C   0  0  1  0  0  0  0  0  0  0  0  0
  -20.3359  -26.9073   21.6029 C   0  0  2  0  0  0  0  0  0  0  0  0
  -21.0268  -30.7296   24.1434 C   0  0  0  0  0  0  0  0  0  0  0  0
  -28.9685  -18.5396   24.0430 N   0  0  0  0  0  0  0  0  0  0  0  0
  -25.7344  -11.9821   20.3973 N   0  0  0  0  0  0  0  0  0  0  0  0
  -27.8299  -19.3566   21.6138 N   0  0  0  0  0  0  0  0  0  0  0  0
  -24.7288  -12.8124   20.7219 N   0  0  0  0  0  0  0  0  0  0  0  0
  -23.8102  -30.6081   21.6078 N   0  0  0  0  0  0  0  0  0  0  0  0
  -26.0684  -16.1203   19.3630 N   0  0  0  0  0  0  0  0  0  0  0  0
  -29.5768  -20.7926   24.4894 N   0  0  0  0  0  0  0  0  0  0  0  0
  -22.7390  -12.9608   21.9984 N   0  0  0  0  0  0  0  0  0  0  0  0
  -22.6490   -9.1690   22.0911 N   0  0  0  0  0  0  0  0  0  0  0  0
  -27.2227  -17.0877   21.1780 N   0  0  0  0  0  0  0  0  0  0  0  0
  -25.3265  -33.6001   21.9524 N   0  0  0  0  0  0  0  0  0  0  0  0
  -21.2072  -29.0420   22.2663 N   0  0  0  0  0  0  0  0  0  0  0  0
  -20.8843  -25.5261   21.4904 N   0  3  0  0  0  0  0  0  0  0  0  0
  -23.8443   -9.9400   23.8898 O   0  0  0  0  0  0  0  0  0  0  0  0
  -26.3986  -31.5696   22.3397 O   0  0  0  0  0  0  0  0  0  0  0  0
  -21.9833  -32.0366   21.8487 O   0  0  0  0  0  0  0  0  0  0  0  0
  -21.6340  -27.2071   23.6185 O   0  0  0  0  0  0  0  0  0  0  0  0
  -26.5053  -18.3901   19.3974 O   0  0  0  0  0  0  0  0  0  0  0  0
  -28.7746   -6.3957   20.7157 O   0  0  0  0  0  0  0  0  0  0  0  0
  -27.9446  -26.1043   20.7861 O   0  0  0  0  0  0  0  0  0  1  0  0
  -28.4873  -23.1657   18.7744 O   0  0  0  0  0  0  0  0  0  0  0  0
  -27.0520   -2.1486   17.6500 F   0  0  0  0  0  0  0  0  0  0  0  0
  -30.2447   -5.5276   18.5413 F   0  0  0  0  0  0  0  0  0  0  0  0
  1  2  1  0  0  0  0
  1  5  2  0  0  0  0
  2  6  2  0  0  0  0
  3  8  2  0  0  0  0
  3 16  1  0  0  0  0
  4  9  1  0  0  0  0
  4 16  2  0  0  0  0
  5 18  1  0  0  0  0
  6 20  1  0  0  0  0
  7 10  2  0  0  0  0
  7 19  1  0  0  0  0
  8 22  1  0  0  0  0
  9 22  2  0  0  0  0
 10 23  1  0  0  0  0
 11 12  2  0  0  0  0
 11 24  1  0  0  0  0
 12 25  1  0  0  0  0
 13 21  1  0  0  0  0
 13 23  2  0  0  0  0
 14 25  2  0  0  0  0
 14 26  1  0  0  0  0
 15 29  1  0  0  0  0
 15 65  2  0  0  0  0
 16 27  1  0  0  0  0
 17 27  1  0  0  0  0
 17 31  2  0  0  0  0
 17 32  1  0  0  0  0
 18 20  2  0  0  0  0
 18 37  1  0  0  0  0
 19 21  2  0  0  0  0
 19 38  1  0  0  0  0
 20 50  1  0  0  0  0
 21 39  1  0  0  0  0
 22 83  1  0  0  0  0
 23 84  1  0  0  0  0
 24 26  2  0  0  0  0
 24 83  1  0  0  0  0
 25 86  1  0  0  0  0
 26 87  1  0  0  0  0
 27 66  2  0  0  0  0
 28 30  2  0  0  0  0
 28 51  1  0  0  0  0
 28 67  1  0  0  0  0
 29 67  2  0  0  0  0
 29 74  1  0  0  0  0
 30 65  1  0  0  0  0
 30 71  1  0  0  0  0
 31 68  1  0  0  0  0
 31 72  1  0  0  0  0
 32 73  1  0  0  0  0
 32 78  2  0  0  0  0
 33 52  1  0  0  0  0
 33 75  1  0  0  0  0
 33 79  2  0  0  0  0
 34 62  1  0  0  0  0
 34 69  1  0  0  0  0
 34 80  2  0  0  0  0
 35 63  1  0  0  0  0
 35 76  1  0  0  0  0
 35 81  2  0  0  0  0
 36 70  1  0  0  0  0
 36 74  1  0  0  0  0
 36 82  2  0  0  0  0
 37 40  1  0  0  0  0
 38 52  1  0  0  0  0
 39 69  1  0  0  0  0
 40 42  1  0  0  0  0
 41 45  1  0  0  0  0
 41 48  1  0  0  0  0
 42 50  1  0  0  0  0
 43 46  1  0  0  0  0
 43 51  1  0  0  0  0
 44 47  1  0  0  0  0
 44 51  1  0  0  0  0
 45 53  1  0  0  0  0
 46 54  1  0  0  0  0
 47 54  1  0  0  0  0
 48 70  1  0  0  0  0
 49 53  1  0  0  0  0
 49 70  1  0  0  0  0
 50 75  1  0  0  0  0
 52 69  1  0  0  0  0
 53 68  1  0  0  0  0
 54 61  1  0  0  0  0
 54 85  1  0  0  0  0
 55 63  1  0  0  0  0
 56 64  1  0  0  0  0
 57 64  1  0  0  0  0
 58 64  1  0  0  0  0
 59 77  1  0  0  0  0
 60 85  1  0  0  0  0
 61 84  1  0  0  0  0
 62 64  1  0  0  0  0
 62 76  1  0  0  0  0
 63 77  1  0  0  0  0
 66 68  1  0  0  0  0
M  CHG  1  77   1
M  ISO  4  36 100  61 101  74 100  84 101
M  END
> <Batch ID>
0162

> <Smiles>
CNC(C)C(=O)NC(C(=O)N1Cc2cc([101O:1][101CH2:1]C3(OC)CCC(c4nc([100NH:0][100C:0](=O)N5CCCC(n6nc(-c7ccc(Oc8ccc(F)cc8F)cc7)c(C(N)=O)c6N)C5)cnc4N)CC3)ccc2CC1C(=O)NC1CCCc2ccccc21)C(C)(C)C

> <Shape>
0.257

> <Color>
0.097

> <Negative vol penalty>
0.000

$$$$

  -OEChem-04052303563D

 84 92  0     1  0  0  0  0  0999 V2000
  -26.3616  -16.3997   16.7549 C   0  0  0  0  0  0  0  0  0  0  0  0
  -26.9085  -17.1825   17.7667 C   0  0  0  0  0  0  0  0  0  0  0  0
  -23.0940   -9.8503   19.9699 C   0  0  0  0  0  0  0  0  0  0  0  0
  -23.8095   -9.9351   22.2760 C   0  0  0  0  0  0  0  0  0  0  0  0
  -25.8040  -17.0062   15.6301 C   0  0  0  0  0  0  0  0  0  0  0  0
  -26.8990  -18.5723   17.6537 C   0  0  0  0  0  0  0  0  0  0  0  0
  -25.4811  -20.8606   21.9430 C   0  0  0  0  0  0  0  0  0  0  0  0
  -22.3514   -8.7014   20.2426 C   0  0  0  0  0  0  0  0  0  0  0  0
  -23.0669   -8.7862   22.5487 C   0  0  0  0  0  0  0  0  0  0  0  0
  -26.4322  -20.9568   22.9578 C   0  0  0  0  0  0  0  0  0  0  0  0
  -19.8319   -7.9895   23.1148 C   0  0  0  0  0  0  0  0  0  0  0  0
  -19.0527   -7.9828   24.2717 C   0  0  0  0  0  0  0  0  0  0  0  0
  -26.8730  -23.2411   22.3199 C   0  0  0  0  0  0  0  0  0  0  0  0
  -20.2897   -6.0771   25.0936 C   0  0  0  0  0  0  0  0  0  0  0  0
  -23.8231  -10.4671   20.9866 C   0  0  0  0  0  0  0  0  0  0  0  0
  -24.1542  -12.9890   20.7921 C   0  0  0  0  0  0  0  0  0  0  0  0
  -25.7790  -18.4044   15.5078 C   0  0  0  0  0  0  0  0  0  0  0  0
  -25.2261  -21.9523   21.1006 C   0  0  0  0  0  0  0  0  0  0  0  0
  -26.3417  -19.1980   16.5256 C   0  0  0  0  0  0  0  0  0  0  0  0
  -25.9163  -23.1570   21.2968 C   0  0  0  0  0  0  0  0  0  0  0  0
  -22.3378   -8.1694   21.5319 C   0  0  0  0  0  0  0  0  0  0  0  0
  -27.1304  -22.1462   23.1446 C   0  0  0  0  0  0  0  0  0  0  0  0
  -20.8399   -7.0400   22.9472 C   0  0  0  0  0  0  0  0  0  0  0  0
  -19.2816   -7.0266   25.2611 C   0  0  0  0  0  0  0  0  0  0  0  0
  -21.0688   -6.0838   23.9366 C   0  0  0  0  0  0  0  0  0  0  0  0
  -24.5909  -11.6535   20.7055 C   0  0  0  0  0  0  0  0  0  0  0  0
  -31.7378  -18.8286   22.1578 C   0  0  0  0  0  0  0  0  0  0  0  0
  -25.2493  -13.7328   20.4259 C   0  0  0  0  0  0  0  0  0  0  0  0
  -30.6197  -19.2143   22.8672 C   0  0  0  0  0  0  0  0  0  0  0  0
  -30.5158  -17.0339   21.8486 C   0  0  0  0  0  0  0  0  0  0  0  0
  -22.8732  -13.5106   21.1699 C   0  0  0  0  0  0  0  0  0  0  0  0
  -25.4973  -22.4884   17.9793 C   0  0  0  0  0  0  0  0  0  0  0  0
  -24.0503  -25.2927   18.7306 C   0  0  0  0  0  0  0  0  0  0  0  0
  -23.3557  -27.6516   21.0971 C   0  0  0  0  0  0  0  0  0  0  0  0
  -31.1104  -21.5179   23.7669 C   0  0  0  0  0  0  0  0  0  0  0  0
  -30.7056  -14.8148   20.6713 C   0  0  0  0  0  0  0  0  0  0  0  0
  -25.2079  -19.0131   14.2516 C   0  0  0  0  0  0  0  0  0  0  0  0
  -24.1779  -21.8409   20.0277 C   0  0  0  0  0  0  0  0  0  0  0  0
  -25.6651  -24.3646   20.4325 C   0  0  0  0  0  0  0  0  0  0  0  0
  -24.9010  -20.5028   14.3816 C   0  0  0  0  0  0  0  0  0  0  0  0
  -29.6495  -12.3202   18.3608 C   0  0  0  0  0  0  0  0  0  0  0  0
  -26.0705  -21.2339   15.0331 C   0  0  0  0  0  0  0  0  0  0  0  0
  -28.2033  -12.0342   18.7719 C   0  0  0  0  0  0  0  0  0  0  0  0
  -30.5401  -12.5925   19.5717 C   0  0  0  0  0  0  0  0  0  0  0  0
  -28.6032  -13.3498   20.8924 C   0  0  0  0  0  0  0  0  0  0  0  0
  -26.3281  -20.7094   16.4509 C   0  0  1  0  0  0  0  0  0  0  0  0
  -24.3670  -22.8513   18.9004 C   0  0  1  0  0  0  0  0  0  0  0  0
  -27.6541  -13.1334   19.7024 C   0  0  2  0  0  0  0  0  0  0  0  0
  -22.1837  -29.8493   21.4032 C   0  0  0  0  0  0  0  0  0  0  0  0
  -31.3948  -23.8122   24.7732 C   0  0  0  0  0  0  0  0  0  0  0  0
  -30.0613  -22.0658   26.0095 C   0  0  0  0  0  0  0  0  0  0  0  0
  -26.3534  -26.7143   17.3219 C   0  0  0  0  0  0  0  0  0  0  0  0
  -25.6508  -28.8309   18.4598 C   0  0  0  0  0  0  0  0  0  0  0  0
  -24.0952  -27.6924   16.8766 C   0  0  0  0  0  0  0  0  0  0  0  0
  -21.4982  -26.5139   23.1006 C   0  0  0  0  0  0  0  0  0  0  0  0
  -29.1554  -23.1295   23.9117 C   0  0  0  0  0  0  0  0  0  1  0  0
  -24.5264  -26.6638   19.1455 C   0  0  1  0  0  0  0  0  0  0  0  0
  -22.0579  -28.3360   21.4865 C   0  0  2  0  0  0  0  0  0  0  0  0
  -30.4321  -22.6210   24.6229 C   0  0  0  0  0  0  0  0  0  0  0  0
  -25.1628  -27.4522   17.9662 C   0  0  0  0  0  0  0  0  0  0  0  0
  -25.8640  -11.5516   20.3147 N   0  0  0  0  0  0  0  0  0  0  0  0
  -31.6802  -17.5785   21.5734 N   0  0  0  0  0  0  0  0  0  0  0  0
  -26.2367  -12.8326   20.1525 N   0  0  0  0  0  0  0  0  0  0  0  0
  -24.6351  -24.2040   19.3929 N   0  0  0  0  0  0  0  0  0  0  0  0
  -29.9590  -13.6476   20.4048 N   0  0  0  0  0  0  0  0  0  0  0  0
  -25.4542  -15.0624   20.3141 N   0  0  0  0  0  0  0  0  0  0  0  0
  -21.8597  -12.6069   21.5168 N   0  0  0  0  0  0  0  0  0  0  0  0
  -30.3100  -20.3931   23.5887 N   0  0  0  0  0  0  0  0  0  0  0  0
  -30.0379  -15.7618   21.4471 N   0  0  0  0  0  0  0  0  0  0  0  0
  -25.3566  -21.2535   17.3754 N   0  0  0  0  0  0  0  0  0  0  0  0
  -23.3795  -27.3264   19.7573 N   0  0  0  0  0  0  0  0  0  0  0  0
  -21.6786  -27.9721   22.8810 N   0  3  0  0  0  0  0  0  0  0  0  0
  -22.6296  -14.7411   21.1832 O   0  0  0  0  0  0  0  0  0  0  0  0
  -26.4275  -23.2715   17.8266 O   0  0  0  0  0  0  0  0  0  0  0  0
  -23.1860  -25.1915   17.8563 O   0  0  0  0  0  0  0  0  0  0  0  0
  -24.2596  -27.4311   21.9001 O   0  0  0  0  0  0  0  0  0  0  0  0
  -32.2470  -21.6692   23.3228 O   0  0  0  0  0  0  0  0  0  0  0  0
  -31.8427  -14.9750   20.2201 O   0  0  0  0  0  0  0  0  0  0  0  0
  -21.6131   -7.0486   21.7984 O   0  0  0  0  0  0  0  0  0  0  0  0
  -28.0598  -22.2426   24.1339 O   0  0  0  0  0  0  0  0  0  1  0  0
  -18.5343   -7.0211   26.3727 F   0  0  0  0  0  0  0  0  0  0  0  0
  -22.0366   -5.1699   23.7818 F   0  0  0  0  0  0  0  0  0  0  0  0
  -32.8152  -19.6122   22.0380 F   0  0  0  0  0  0  0  0  0  0  0  0
  -29.4414  -17.9696   22.8052 S   0  0  0  0  0  0  0  0  0  0  0  0
  1  2  1  0  0  0  0
  1  5  2  0  0  0  0
  2  6  2  0  0  0  0
  3  8  2  0  0  0  0
  3 15  1  0  0  0  0
  4  9  1  0  0  0  0
  4 15  2  0  0  0  0
  5 17  1  0  0  0  0
  6 19  1  0  0  0  0
  7 10  2  0  0  0  0
  7 18  1  0  0  0  0
  8 21  1  0  0  0  0
  9 21  2  0  0  0  0
 10 22  1  0  0  0  0
 11 12  2  0  0  0  0
 11 23  1  0  0  0  0
 12 24  1  0  0  0  0
 13 20  1  0  0  0  0
 13 22  2  0  0  0  0
 14 24  2  0  0  0  0
 14 25  1  0  0  0  0
 15 26  1  0  0  0  0
 16 26  1  0  0  0  0
 16 28  2  0  0  0  0
 16 31  1  0  0  0  0
 17 19  2  0  0  0  0
 17 37  1  0  0  0  0
 18 20  2  0  0  0  0
 18 38  1  0  0  0  0
 19 46  1  0  0  0  0
 20 39  1  0  0  0  0
 21 79  1  0  0  0  0
 22 80  1  0  0  0  0
 23 25  2  0  0  0  0
 23 79  1  0  0  0  0
 24 81  1  0  0  0  0
 25 82  1  0  0  0  0
 26 61  2  0  0  0  0
 27 29  2  0  0  0  0
 27 62  1  0  0  0  0
 27 83  1  0  0  0  0
 28 63  1  0  0  0  0
 28 66  1  0  0  0  0
 29 68  1  0  0  0  0
 29 84  1  0  0  0  0
 30 62  2  0  0  0  0
 30 69  1  0  0  0  0
 30 84  1  0  0  0  0
 31 67  1  0  0  0  0
 31 73  2  0  0  0  0
 32 47  1  0  0  0  0
 32 70  1  0  0  0  0
 32 74  2  0  0  0  0
 33 57  1  0  0  0  0
 33 64  1  0  0  0  0
 33 75  2  0  0  0  0
 34 58  1  0  0  0  0
 34 71  1  0  0  0  0
 34 76  2  0  0  0  0
 35 59  1  0  0  0  0
 35 68  1  0  0  0  0
 35 77  2  0  0  0  0
 36 65  1  0  0  0  0
 36 69  1  0  0  0  0
 36 78  2  0  0  0  0
 37 40  1  0  0  0  0
 38 47  1  0  0  0  0
 39 64  1  0  0  0  0
 40 42  1  0  0  0  0
 41 43  1  0  0  0  0
 41 44  1  0  0  0  0
 42 46  1  0  0  0  0
 43 48  1  0  0  0  0
 44 65  1  0  0  0  0
 45 48  1  0  0  0  0
 45 65  1  0  0  0  0
 46 70  1  0  0  0  0
 47 64  1  0  0  0  0
 48 63  1  0  0  0  0
 49 58  1  0  0  0  0
 50 59  1  0  0  0  0
 51 59  1  0  0  0  0
 52 60  1  0  0  0  0
 53 60  1  0  0  0  0
 54 60  1  0  0  0  0
 55 72  1  0  0  0  0
 56 59  1  0  0  0  0
 56 80  1  0  0  0  0
 57 60  1  0  0  0  0
 57 71  1  0  0  0  0
 58 72  1  0  0  0  0
 61 63  1  0  0  0  0
M  CHG  1  72   1
M  ISO  4  36 100  56 101  69 100  80 101
M  END
> <Batch ID>
0162

> <Smiles>
CNC(C)C(=O)NC(C(=O)N1Cc2cc([101O:1][101CH2:1]C(C)(C)C(=O)Nc3sc([100NH:0][100C:0](=O)N4CCCC(n5nc(-c6ccc(Oc7ccc(F)cc7F)cc6)c(C(N)=O)c5N)C4)nc3F)ccc2CC1C(=O)NC1CCCc2ccccc21)C(C)(C)C

> <Shape>
0.215

> <Color>
0.186

> <Negative vol penalty>
0.000

$$$$

  -OEChem-04052303563D

 82 90  0     1  0  0  0  0  0999 V2000
  -19.3658  -23.6122   34.5529 C   0  0  0  0  0  0  0  0  0  0  0  0
  -20.6863  -23.3872   34.1772 C   0  0  0  0  0  0  0  0  0  0  0  0
  -23.0741   -9.8692   19.9421 C   0  0  0  0  0  0  0  0  0  0  0  0
  -23.8386   -9.8750   22.2339 C   0  0  0  0  0  0  0  0  0  0  0  0
  -18.3552  -22.7775   34.0778 C   0  0  0  0  0  0  0  0  0  0  0  0
  -20.9970  -22.3267   33.3268 C   0  0  0  0  0  0  0  0  0  0  0  0
  -25.3757  -22.2005   29.0470 C   0  0  0  0  0  0  0  0  0  0  0  0
  -22.3314   -8.7155   20.1928 C   0  0  0  0  0  0  0  0  0  0  0  0
  -23.0958   -8.7213   22.4846 C   0  0  0  0  0  0  0  0  0  0  0  0
  -26.6687  -21.6791   29.0431 C   0  0  0  0  0  0  0  0  0  0  0  0
  -19.8693   -7.9214   23.0931 C   0  0  0  0  0  0  0  0  0  0  0  0
  -19.1148   -7.8803   24.2655 C   0  0  0  0  0  0  0  0  0  0  0  0
  -25.8467  -19.6641   28.0023 C   0  0  0  0  0  0  0  0  0  0  0  0
  -30.2296  -18.2215   24.0349 C   0  0  0  0  0  0  0  0  0  0  0  0
  -20.3587   -5.9430   24.9982 C   0  0  0  0  0  0  0  0  0  0  0  0
  -23.8278  -10.4490   20.9627 C   0  0  0  0  0  0  0  0  0  0  0  0
  -24.1680  -12.9744   20.8436 C   0  0  0  0  0  0  0  0  0  0  0  0
  -18.6524  -21.7120   33.2135 C   0  0  0  0  0  0  0  0  0  0  0  0
  -24.3049  -21.4519   28.5377 C   0  0  0  0  0  0  0  0  0  0  0  0
  -19.9895  -21.4761   32.8407 C   0  0  0  0  0  0  0  0  0  0  0  0
  -24.5414  -20.1793   27.9986 C   0  0  0  0  0  0  0  0  0  0  0  0
  -29.9595  -17.7740   22.7195 C   0  0  0  0  0  0  0  0  0  0  0  0
  -22.3422   -8.1416   21.4640 C   0  0  0  0  0  0  0  0  0  0  0  0
  -26.9040  -20.4096   28.5234 C   0  0  0  0  0  0  0  0  0  0  0  0
  -20.8686   -6.9733   22.8732 C   0  0  0  0  0  0  0  0  0  0  0  0
  -19.3595   -6.8911   25.2181 C   0  0  0  0  0  0  0  0  0  0  0  0
  -21.1133   -5.9841   23.8257 C   0  0  0  0  0  0  0  0  0  0  0  0
  -24.5957  -11.6404   20.7042 C   0  0  0  0  0  0  0  0  0  0  0  0
  -28.7476  -18.3230   22.3706 C   0  0  0  0  0  0  0  0  0  0  0  0
  -25.2590  -13.7247   20.4786 C   0  0  0  0  0  0  0  0  0  0  0  0
  -29.1635  -19.0122   24.3958 C   0  0  0  0  0  0  0  0  0  0  0  0
  -22.8981  -13.4892   21.2654 C   0  0  0  0  0  0  0  0  0  0  0  0
  -21.6193  -20.2639   29.7541 C   0  0  0  0  0  0  0  0  0  0  0  0
  -21.0268  -19.4774   26.6634 C   0  0  0  0  0  0  0  0  0  0  0  0
  -22.2674  -18.8031   23.5564 C   0  0  0  0  0  0  0  0  0  0  0  0
  -30.7426  -14.7465   20.6566 C   0  0  0  0  0  0  0  0  0  0  0  0
  -17.5321  -20.8081   32.7635 C   0  0  0  0  0  0  0  0  0  0  0  0
  -22.9203  -22.0393   28.5248 C   0  0  0  0  0  0  0  0  0  0  0  0
  -23.4295  -19.3434   27.4212 C   0  0  0  0  0  0  0  0  0  0  0  0
  -17.8982  -19.9336   31.5671 C   0  0  0  0  0  0  0  0  0  0  0  0
  -29.6015  -12.3630   18.2706 C   0  0  0  0  0  0  0  0  0  0  0  0
  -19.2646  -19.2885   31.7756 C   0  0  0  0  0  0  0  0  0  0  0  0
  -28.1651  -12.0682   18.7062 C   0  0  0  0  0  0  0  0  0  0  0  0
  -30.5209  -12.5835   19.4697 C   0  0  0  0  0  0  0  0  0  0  0  0
  -28.6216  -13.3127   20.8607 C   0  0  0  0  0  0  0  0  0  0  0  0
  -20.3632  -20.3510   31.9002 C   0  0  1  0  0  0  0  0  0  0  0  0
  -21.8233  -20.9818   28.4500 C   0  0  1  0  0  0  0  0  0  0  0  0
  -27.6451  -13.1383   19.6849 C   0  0  2  0  0  0  0  0  0  0  0  0
  -27.9186  -18.2526   21.1586 C   0  0  0  0  0  0  0  0  0  0  0  0
  -21.5412  -18.1561   21.2431 C   0  0  0  0  0  0  0  0  0  0  0  0
  -30.2203  -21.0686   28.7910 C   0  0  0  0  0  0  0  0  0  0  0  0
  -20.5692  -16.6133   27.6107 C   0  0  0  0  0  0  0  0  0  0  0  0
  -20.7938  -15.8647   25.2322 C   0  0  0  0  0  0  0  0  0  0  0  0
  -18.9481  -17.4119   25.8818 C   0  0  0  0  0  0  0  0  0  0  0  0
  -23.3846  -21.2817   22.3871 C   0  0  0  0  0  0  0  0  0  0  0  0
  -30.8098  -16.8963   21.8948 C   0  0  0  0  0  0  0  0  0  0  0  0
  -29.7556  -19.7327   26.7101 C   0  0  0  0  0  0  0  0  0  0  0  0
  -21.3200  -18.2821   25.7893 C   0  0  1  0  0  0  0  0  0  0  0  0
  -21.8685  -19.3074   22.1813 C   0  0  2  0  0  0  0  0  0  0  0  0
  -29.1580  -20.6245   27.7960 C   0  0  1  0  0  0  0  0  0  1  0  0
  -20.4286  -17.0577   26.1411 C   0  0  0  0  0  0  0  0  0  0  0  0
  -25.8598  -11.5455   20.2833 N   0  0  0  0  0  0  0  0  0  0  0  0
  -26.2357  -12.8294   20.1550 N   0  0  0  0  0  0  0  0  0  0  0  0
  -22.0922  -19.9590   27.4371 N   0  0  0  0  0  0  0  0  0  0  0  0
  -29.9716  -13.6112   20.3575 N   0  0  0  0  0  0  0  0  0  0  0  0
  -25.4686  -15.0563   20.4061 N   0  0  0  0  0  0  0  0  0  0  0  0
  -21.8874  -12.5793   21.6042 N   0  0  0  0  0  0  0  0  0  0  0  0
  -28.8835  -19.7119   25.5576 N   0  0  0  0  0  0  0  0  0  0  0  0
  -20.7100  -20.8748   30.5964 N   0  0  0  0  0  0  0  0  0  0  0  0
  -21.1870  -18.7417   24.4111 N   0  0  0  0  0  0  0  0  0  0  0  0
  -30.1447  -15.6745   21.5005 N   0  0  0  0  0  0  0  0  0  0  0  0
  -22.9758  -20.1032   21.5801 N   0  3  0  0  0  0  0  0  0  0  0  0
  -22.6613  -14.7197   21.3241 O   0  0  0  0  0  0  0  0  0  0  0  0
  -22.2397  -19.2313   29.9789 O   0  0  0  0  0  0  0  0  0  0  0  0
  -19.8960  -19.9703   26.6544 O   0  0  0  0  0  0  0  0  0  0  0  0
  -23.4211  -18.4911   23.8427 O   0  0  0  0  0  0  0  0  0  0  0  0
  -31.8776  -14.9229   20.2008 O   0  0  0  0  0  0  0  0  0  0  0  0
  -28.2558  -19.0792   23.3868 O   0  0  0  0  0  0  0  0  0  0  0  0
  -21.6173   -7.0159   21.7091 O   0  0  0  0  0  0  0  0  0  0  0  0
  -28.1650  -19.8981   28.5189 O   0  0  0  0  0  0  0  0  0  1  0  0
  -18.6358   -6.8527   26.3446 F   0  0  0  0  0  0  0  0  0  0  0  0
  -22.0727   -5.0713   23.6206 F   0  0  0  0  0  0  0  0  0  0  0  0
  1  2  1  0  0  0  0
  1  5  2  0  0  0  0
  2  6  2  0  0  0  0
  3  8  2  0  0  0  0
  3 16  1  0  0  0  0
  4  9  1  0  0  0  0
  4 16  2  0  0  0  0
  5 18  1  0  0  0  0
  6 20  1  0  0  0  0
  7 10  2  0  0  0  0
  7 19  1  0  0  0  0
  8 23  1  0  0  0  0
  9 23  2  0  0  0  0
 10 24  1  0  0  0  0
 11 12  2  0  0  0  0
 11 25  1  0  0  0  0
 12 26  1  0  0  0  0
 13 21  1  0  0  0  0
 13 24  2  0  0  0  0
 14 22  1  0  0  0  0
 14 31  2  0  0  0  0
 15 26  2  0  0  0  0
 15 27  1  0  0  0  0
 16 28  1  0  0  0  0
 17 28  1  0  0  0  0
 17 30  2  0  0  0  0
 17 32  1  0  0  0  0
 18 20  2  0  0  0  0
 18 37  1  0  0  0  0
 19 21  2  0  0  0  0
 19 38  1  0  0  0  0
 20 46  1  0  0  0  0
 21 39  1  0  0  0  0
 22 29  2  0  0  0  0
 22 56  1  0  0  0  0
 23 79  1  0  0  0  0
 24 80  1  0  0  0  0
 25 27  2  0  0  0  0
 25 79  1  0  0  0  0
 26 81  1  0  0  0  0
 27 82  1  0  0  0  0
 28 62  2  0  0  0  0
 29 49  1  0  0  0  0
 29 78  1  0  0  0  0
 30 63  1  0  0  0  0
 30 66  1  0  0  0  0
 31 68  1  0  0  0  0
 31 78  1  0  0  0  0
 32 67  1  0  0  0  0
 32 73  2  0  0  0  0
 33 47  1  0  0  0  0
 33 69  1  0  0  0  0
 33 74  2  0  0  0  0
 34 58  1  0  0  0  0
 34 64  1  0  0  0  0
 34 75  2  0  0  0  0
 35 59  1  0  0  0  0
 35 70  1  0  0  0  0
 35 76  2  0  0  0  0
 36 65  1  0  0  0  0
 36 71  1  0  0  0  0
 36 77  2  0  0  0  0
 37 40  1  0  0  0  0
 38 47  1  0  0  0  0
 39 64  1  0  0  0  0
 40 42  1  0  0  0  0
 41 43  1  0  0  0  0
 41 44  1  0  0  0  0
 42 46  1  0  0  0  0
 43 48  1  0  0  0  0
 44 65  1  0  0  0  0
 45 48  1  0  0  0  0
 45 65  1  0  0  0  0
 46 69  1  0  0  0  0
 47 64  1  0  0  0  0
 48 63  1  0  0  0  0
 50 59  1  0  0  0  0
 51 60  1  0  0  0  0
 52 61  1  0  0  0  0
 53 61  1  0  0  0  0
 54 61  1  0  0  0  0
 55 72  1  0  0  0  0
 56 71  1  0  0  0  0
 57 60  1  0  0  0  0
 57 68  1  0  0  0  0
 58 61  1  0  0  0  0
 58 70  1  0  0  0  0
 59 72  1  0  0  0  0
 60 80  1  0  0  0  0
 62 63  1  0  0  0  0
M  CHG  1  72   1
M  ISO  4  36 100  60 101  71 100  80 101
M  END
> <Batch ID>
0162

> <Smiles>
CNC(C)C(=O)NC(C(=O)N1Cc2cc([101O:1][101CH:1](C)CNc3cc(C[100NH:0][100C:0](=O)N4CCCC(n5nc(-c6ccc(Oc7ccc(F)cc7F)cc6)c(C(N)=O)c5N)C4)c(C)o3)ccc2CC1C(=O)NC1CCCc2ccccc21)C(C)(C)C

> <Shape>
0.171

> <Color>
0.191

> <Negative vol penalty>
0.000

$$$$

  -OEChem-04052303563D

 83 91  0     1  0  0  0  0  0999 V2000
  -22.9424   -8.2354   21.9560 C   0  0  0  0  0  0  0  0  0  0  0  0
  -24.0821   -8.9335   22.3421 C   0  0  0  0  0  0  0  0  0  0  0  0
  -20.2216  -28.0677   23.8084 C   0  0  0  0  0  0  0  0  0  0  0  0
  -20.1633  -26.8480   21.7237 C   0  0  0  0  0  0  0  0  0  0  0  0
  -22.2267   -8.6399   20.8299 C   0  0  0  0  0  0  0  0  0  0  0  0
  -24.5075  -10.0358   21.6017 C   0  0  0  0  0  0  0  0  0  0  0  0
  -27.7393  -16.3802   22.3899 C   0  0  0  0  0  0  0  0  0  0  0  0
  -18.9560  -28.5885   23.5391 C   0  0  0  0  0  0  0  0  0  0  0  0
  -18.8976  -27.3687   21.4544 C   0  0  0  0  0  0  0  0  0  0  0  0
  -28.8074  -17.1158   21.8783 C   0  0  0  0  0  0  0  0  0  0  0  0
  -15.7441  -27.5472   23.7190 C   0  0  0  0  0  0  0  0  0  0  0  0
  -14.8099  -27.5484   24.7547 C   0  0  0  0  0  0  0  0  0  0  0  0
  -27.4471  -17.7712   19.9970 C   0  0  0  0  0  0  0  0  0  0  0  0
  -30.3661  -25.2023   19.1516 C   0  0  0  0  0  0  0  0  0  0  0  0
  -14.6508  -29.9548   24.6084 C   0  0  0  0  0  0  0  0  0  0  0  0
  -32.6425  -24.9860   19.5684 C   0  0  0  0  0  0  0  0  0  0  0  0
  -20.8254  -27.1975   22.9006 C   0  0  0  0  0  0  0  0  0  0  0  0
  -22.4341  -25.4690   23.8659 C   0  0  0  0  0  0  0  0  0  0  0  0
  -22.6380   -9.7536   20.0808 C   0  0  0  0  0  0  0  0  0  0  0  0
  -26.5184  -16.3256   21.7022 C   0  0  0  0  0  0  0  0  0  0  0  0
  -23.7974  -10.4548   20.4637 C   0  0  0  0  0  0  0  0  0  0  0  0
  -26.3642  -17.0363   20.5033 C   0  0  0  0  0  0  0  0  0  0  0  0
  -31.4505  -24.3144   19.4083 C   0  0  0  0  0  0  0  0  0  0  0  0
  -18.2940  -28.2390   22.3622 C   0  0  0  0  0  0  0  0  0  0  0  0
  -28.6624  -17.8091   20.6802 C   0  0  0  0  0  0  0  0  0  0  0  0
  -16.1318  -28.7497   23.1279 C   0  0  0  0  0  0  0  0  0  0  0  0
  -14.2632  -28.7522   25.1994 C   0  0  0  0  0  0  0  0  0  0  0  0
  -15.5851  -29.9535   23.5726 C   0  0  0  0  0  0  0  0  0  0  0  0
  -22.1330  -26.6597   23.1779 C   0  0  0  0  0  0  0  0  0  0  0  0
  -30.7706  -26.5189   19.1254 C   0  0  0  0  0  0  0  0  0  0  0  0
  -23.8062  -25.4079   23.8623 C   0  0  0  0  0  0  0  0  0  0  0  0
  -29.5301  -19.8706   19.9962 C   0  0  0  0  0  0  0  0  0  1  0  0
  -21.5523  -24.5043   24.4555 C   0  0  0  0  0  0  0  0  0  0  0  0
  -30.4853  -20.6722   19.5098 C   0  0  0  0  0  0  0  0  0  0  0  0
  -30.1954  -22.1345   19.3488 C   0  0  0  0  0  0  0  0  0  0  0  0
  -24.7975  -14.0105   20.3671 C   0  0  0  0  0  0  0  0  0  0  0  0
  -22.6351  -16.3921   19.9492 C   0  0  0  0  0  0  0  0  0  0  0  0
  -22.0312  -19.7378   19.6524 C   0  0  0  0  0  0  0  0  0  0  0  0
  -27.8342  -27.6632   20.1820 C   0  0  0  0  0  0  0  0  0  0  0  0
  -21.8588  -10.1245   18.8439 C   0  0  0  0  0  0  0  0  0  0  0  0
  -25.3674  -15.5494   22.2810 C   0  0  0  0  0  0  0  0  0  0  0  0
  -25.0678  -17.0265   19.7368 C   0  0  0  0  0  0  0  0  0  0  0  0
  -22.1637  -11.5293   18.3304 C   0  0  0  0  0  0  0  0  0  0  0  0
  -27.6795  -28.2174   23.7550 C   0  0  0  0  0  0  0  0  0  0  0  0
  -23.6696  -11.7700   18.2958 C   0  0  0  0  0  0  0  0  0  0  0  0
  -26.2542  -27.7614   24.0722 C   0  0  0  0  0  0  0  0  0  0  0  0
  -27.7439  -28.9356   22.4103 C   0  0  0  0  0  0  0  0  0  0  0  0
  -25.7871  -27.6893   21.5789 C   0  0  0  0  0  0  0  0  0  0  0  0
  -24.2765  -11.6706   19.7006 C   0  0  1  0  0  0  0  0  0  0  0  0
  -24.3329  -15.1456   21.2350 C   0  0  1  0  0  0  0  0  0  0  0  0
  -25.6595  -26.9363   22.9155 C   0  0  2  0  0  0  0  0  0  0  0  0
  -20.1687  -21.3780   19.2804 C   0  0  0  0  0  0  0  0  0  0  0  0
  -22.5724  -15.6463   16.9911 C   0  0  0  0  0  0  0  0  0  0  0  0
  -21.4793  -17.8510   16.5300 C   0  0  0  0  0  0  0  0  0  0  0  0
  -20.3375  -16.1741   17.9815 C   0  0  0  0  0  0  0  0  0  0  0  0
  -22.5171  -21.0571   22.2567 C   0  0  0  0  0  0  0  0  0  0  0  0
  -29.9527  -27.7289   18.8919 C   0  0  0  0  0  0  0  0  0  0  0  0
  -22.3590  -17.4076   18.8668 C   0  0  1  0  0  0  0  0  0  0  0  0
  -21.0039  -20.6385   20.3141 C   0  0  2  0  0  0  0  0  0  0  0  0
  -21.7122  -16.7686   17.6056 C   0  0  0  0  0  0  0  0  0  0  0  0
  -23.2260  -27.3084   22.7673 N   0  0  0  0  0  0  0  0  0  0  0  0
  -24.2272  -26.5225   23.1986 N   0  0  0  0  0  0  0  0  0  0  0  0
  -23.9738  -16.2479   20.3404 N   0  0  0  0  0  0  0  0  0  0  0  0
  -27.1794  -28.0893   21.3495 N   0  0  0  0  0  0  0  0  0  0  0  0
  -24.6816  -24.5101   24.3623 N   0  0  0  0  0  0  0  0  0  0  0  0
  -20.1704  -24.7211   24.3682 N   0  0  0  0  0  0  0  0  0  0  0  0
  -31.3406  -22.9055   19.4944 N   0  0  0  0  0  0  0  0  0  0  0  0
  -24.0103  -12.8781   20.4527 N   0  0  0  0  0  0  0  0  0  0  0  0
  -21.5538  -18.4550   19.4857 N   0  0  0  0  0  0  0  0  0  0  0  0
  -29.1482  -28.0911   20.0375 N   0  0  0  0  0  0  0  0  0  0  0  0
  -21.6794  -21.6457   21.1802 N   0  3  0  0  0  0  0  0  0  0  0  0
  -21.9776  -23.4888   25.0567 O   0  0  0  0  0  0  0  0  0  0  0  0
  -29.0578  -22.5295   19.1170 O   0  0  0  0  0  0  0  0  0  0  0  0
  -25.7954  -14.1522   19.6701 O   0  0  0  0  0  0  0  0  0  0  0  0
  -21.6967  -15.7555   20.4347 O   0  0  0  0  0  0  0  0  0  0  0  0
  -23.1444  -20.1336   19.3137 O   0  0  0  0  0  0  0  0  0  0  0  0
  -27.2896  -26.9491   19.3331 O   0  0  0  0  0  0  0  0  0  0  0  0
  -31.7333  -20.2059   19.1497 O   0  0  0  0  0  0  0  0  0  0  0  0
  -17.0588  -28.7468   22.0992 O   0  0  0  0  0  0  0  0  0  0  0  0
  -29.7036  -18.5273   20.1783 O   0  0  0  0  0  0  0  0  0  1  0  0
  -13.3649  -28.7531   26.1930 F   0  0  0  0  0  0  0  0  0  0  0  0
  -15.9528  -31.1118   23.0079 F   0  0  0  0  0  0  0  0  0  0  0  0
  -32.4516  -26.6803   19.4093 S   0  0  0  0  0  0  0  0  0  0  0  0
  1  2  1  0  0  0  0
  1  5  2  0  0  0  0
  2  6  2  0  0  0  0
  3  8  2  0  0  0  0
  3 17  1  0  0  0  0
  4  9  1  0  0  0  0
  4 17  2  0  0  0  0
  5 19  1  0  0  0  0
  6 21  1  0  0  0  0
  7 10  2  0  0  0  0
  7 20  1  0  0  0  0
  8 24  1  0  0  0  0
  9 24  2  0  0  0  0
 10 25  1  0  0  0  0
 11 12  2  0  0  0  0
 11 26  1  0  0  0  0
 12 27  1  0  0  0  0
 13 22  1  0  0  0  0
 13 25  2  0  0  0  0
 14 23  1  0  0  0  0
 14 30  2  0  0  0  0
 15 27  2  0  0  0  0
 15 28  1  0  0  0  0
 16 23  2  0  0  0  0
 16 83  1  0  0  0  0
 17 29  1  0  0  0  0
 18 29  1  0  0  0  0
 18 31  2  0  0  0  0
 18 33  1  0  0  0  0
 19 21  2  0  0  0  0
 19 40  1  0  0  0  0
 20 22  2  0  0  0  0
 20 41  1  0  0  0  0
 21 49  1  0  0  0  0
 22 42  1  0  0  0  0
 23 67  1  0  0  0  0
 24 79  1  0  0  0  0
 25 80  1  0  0  0  0
 26 28  2  0  0  0  0
 26 79  1  0  0  0  0
 27 81  1  0  0  0  0
 28 82  1  0  0  0  0
 29 61  2  0  0  0  0
 30 57  1  0  0  0  0
 30 83  1  0  0  0  0
 31 62  1  0  0  0  0
 31 65  1  0  0  0  0
 32 34  2  0  0  0  0
 32 80  1  0  0  0  0
 33 66  1  0  0  0  0
 33 72  2  0  0  0  0
 34 35  1  0  0  0  0
 34 78  1  0  0  0  0
 35 67  1  0  0  0  0
 35 73  2  0  0  0  0
 36 50  1  0  0  0  0
 36 68  1  0  0  0  0
 36 74  2  0  0  0  0
 37 58  1  0  0  0  0
 37 63  1  0  0  0  0
 37 75  2  0  0  0  0
 38 59  1  0  0  0  0
 38 69  1  0  0  0  0
 38 76  2  0  0  0  0
 39 64  1  0  0  0  0
 39 70  1  0  0  0  0
 39 77  2  0  0  0  0
 40 43  1  0  0  0  0
 41 50  1  0  0  0  0
 42 63  1  0  0  0  0
 43 45  1  0  0  0  0
 44 46  1  0  0  0  0
 44 47  1  0  0  0  0
 45 49  1  0  0  0  0
 46 51  1  0  0  0  0
 47 64  1  0  0  0  0
 48 51  1  0  0  0  0
 48 64  1  0  0  0  0
 49 68  1  0  0  0  0
 50 63  1  0  0  0  0
 51 62  1  0  0  0  0
 52 59  1  0  0  0  0
 53 60  1  0  0  0  0
 54 60  1  0  0  0  0
 55 60  1  0  0  0  0
 56 71  1  0  0  0  0
 57 70  1  0  0  0  0
 58 60  1  0  0  0  0
 58 69  1  0  0  0  0
 59 71  1  0  0  0  0
 61 62  1  0  0  0  0
M  CHG  1  71   1
M  ISO  4  32 101  39 100  70 100  80 101
M  END
> <Batch ID>
0162

> <Smiles>
CNC(C)C(=O)NC(C(=O)N1Cc2cc([101O:1][101CH2:1]C(=O)C(=O)Nc3csc(C[100NH:0][100C:0](=O)N4CCCC(n5nc(-c6ccc(Oc7ccc(F)cc7F)cc6)c(C(N)=O)c5N)C4)c3)ccc2CC1C(=O)NC1CCCc2ccccc21)C(C)(C)C

> <Shape>
0.226

> <Color>
0.067

> <Negative vol penalty>
0.000

$$$$

  -OEChem-04052303563D

 86 94  0     1  0  0  0  0  0999 V2000
  -27.7825  -34.6631   20.7208 C   0  0  0  0  0  0  0  0  0  0  0  0
  -27.7156  -33.2944   20.4810 C   0  0  0  0  0  0  0  0  0  0  0  0
  -23.1497   -9.7441   19.9169 C   0  0  0  0  0  0  0  0  0  0  0  0
  -23.8531   -9.8190   22.2270 C   0  0  0  0  0  0  0  0  0  0  0  0
  -27.0450  -35.2240   21.7627 C   0  0  0  0  0  0  0  0  0  0  0  0
  -26.9119  -32.4855   21.2836 C   0  0  0  0  0  0  0  0  0  0  0  0
  -23.7735  -27.5249   19.5377 C   0  0  0  0  0  0  0  0  0  0  0  0
  -22.4352   -8.5737   20.1724 C   0  0  0  0  0  0  0  0  0  0  0  0
  -23.1385   -8.6486   22.4826 C   0  0  0  0  0  0  0  0  0  0  0  0
  -24.0472  -26.1610   19.6307 C   0  0  0  0  0  0  0  0  0  0  0  0
  -19.9222   -7.7640   23.0243 C   0  0  0  0  0  0  0  0  0  0  0  0
  -19.1385   -7.7236   24.1775 C   0  0  0  0  0  0  0  0  0  0  0  0
  -22.7482  -26.0450   21.6601 C   0  0  0  0  0  0  0  0  0  0  0  0
  -20.4197   -5.8399   24.9822 C   0  0  0  0  0  0  0  0  0  0  0  0
  -29.2579  -20.1909   20.0711 C   0  0  0  0  0  0  0  0  0  0  0  0
  -23.8587  -10.3667   20.9442 C   0  0  0  0  0  0  0  0  0  0  0  0
  -28.7116  -18.7764   21.8327 C   0  0  0  0  0  0  0  0  0  0  0  0
  -24.1269  -12.8983   20.7814 C   0  0  0  0  0  0  0  0  0  0  0  0
  -26.2243  -34.4230   22.5724 C   0  0  0  0  0  0  0  0  0  0  0  0
  -22.9928  -28.1623   20.5127 C   0  0  0  0  0  0  0  0  0  0  0  0
  -26.1637  -33.0360   22.3381 C   0  0  0  0  0  0  0  0  0  0  0  0
  -22.4639  -27.4165   21.5757 C   0  0  0  0  0  0  0  0  0  0  0  0
  -28.3423  -19.9174   21.0633 C   0  0  0  0  0  0  0  0  0  0  0  0
  -22.4295   -8.0260   21.4552 C   0  0  0  0  0  0  0  0  0  0  0  0
  -23.5369  -25.4214   20.6936 C   0  0  0  0  0  0  0  0  0  0  0  0
  -20.9545   -6.8423   22.8500 C   0  0  0  0  0  0  0  0  0  0  0  0
  -19.3873   -6.7616   25.1565 C   0  0  0  0  0  0  0  0  0  0  0  0
  -21.2033   -5.8802   23.8289 C   0  0  0  0  0  0  0  0  0  0  0  0
  -24.5975  -11.5754   20.6808 C   0  0  0  0  0  0  0  0  0  0  0  0
  -29.8955  -18.2211   21.3990 C   0  0  0  0  0  0  0  0  0  0  0  0
  -25.2044  -13.6737   20.4291 C   0  0  0  0  0  0  0  0  0  0  0  0
  -27.9659  -18.2329   22.9410 C   0  0  0  0  0  0  0  0  0  0  0  0
  -22.8316  -13.3830   21.1596 C   0  0  0  0  0  0  0  0  0  0  0  0
  -23.4895  -30.5005   22.6079 C   0  0  0  0  0  0  0  0  0  0  0  0
  -25.5366  -22.4082   20.9845 C   0  0  0  0  0  0  0  0  0  0  0  0
  -20.3120  -30.1529   23.1601 C   0  0  0  0  0  0  0  0  0  0  0  0
  -17.5528  -28.1482   23.0398 C   0  0  0  0  0  0  0  0  0  0  0  0
  -30.6487  -14.8641   20.7268 C   0  0  0  0  0  0  0  0  0  0  0  0
  -25.4824  -35.0675   23.7164 C   0  0  0  0  0  0  0  0  0  0  0  0
  -22.6845  -29.6289   20.3834 C   0  0  0  0  0  0  0  0  0  0  0  0
  -21.6034  -28.0494   22.6376 C   0  0  0  0  0  0  0  0  0  0  0  0
  -24.3644  -34.1971   24.2846 C   0  0  0  0  0  0  0  0  0  0  0  0
  -29.6420  -12.3998   18.3623 C   0  0  0  0  0  0  0  0  0  0  0  0
  -24.8556  -32.7688   24.4975 C   0  0  0  0  0  0  0  0  0  0  0  0
  -28.2040  -12.0706   18.7669 C   0  0  0  0  0  0  0  0  0  0  0  0
  -30.5226  -12.6720   19.5799 C   0  0  0  0  0  0  0  0  0  0  0  0
  -28.5665  -13.3712   20.9060 C   0  0  0  0  0  0  0  0  0  0  0  0
  -25.2841  -32.1293   23.1713 C   0  0  1  0  0  0  0  0  0  0  0  0
  -22.3050  -30.2788   21.7104 C   0  0  1  0  0  0  0  0  0  0  0  0
  -27.6270  -13.1439   19.7094 C   0  0  2  0  0  0  0  0  0  0  0  0
  -26.1080  -16.5949   23.6059 C   0  0  0  0  0  0  0  0  0  0  0  0
  -15.1057  -28.1295   23.5953 C   0  0  0  0  0  0  0  0  0  0  0  0
  -20.9885  -29.8322   26.1181 C   0  0  0  0  0  0  0  0  0  0  0  0
  -18.6955  -28.8900   26.4687 C   0  0  0  0  0  0  0  0  0  0  0  0
  -18.9686  -31.2325   25.6557 C   0  0  0  0  0  0  0  0  0  0  0  0
  -16.7966  -27.6886   20.2156 C   0  0  0  0  0  0  0  0  0  0  0  0
  -30.6194  -17.0393   21.9212 C   0  0  0  0  0  0  0  0  0  0  0  0
  -26.5230  -17.7462   22.7033 C   0  0  0  0  0  0  0  0  0  0  0  0
  -26.8420  -21.8256   20.4859 C   0  0  0  0  0  0  0  0  0  0  0  0
  -25.0421  -23.6358   20.2444 C   0  0  0  0  0  0  0  0  0  1  0  0
  -19.4748  -29.3110   24.0925 C   0  0  1  0  0  0  0  0  0  0  0  0
  -16.1481  -28.3979   22.5211 C   0  0  2  0  0  0  0  0  0  0  0  0
  -19.5496  -29.8046   25.5650 C   0  0  0  0  0  0  0  0  0  0  0  0
  -25.8745  -11.5103   20.2947 N   0  0  0  0  0  0  0  0  0  0  0  0
  -26.2155  -12.8021   20.1494 N   0  0  0  0  0  0  0  0  0  0  0  0
  -21.3355  -29.4874   22.4706 N   0  0  0  0  0  0  0  0  0  0  0  0
  -29.9198  -13.7002   20.4317 N   0  0  0  0  0  0  0  0  0  0  0  0
  -25.3762  -15.0094   20.3342 N   0  0  0  0  0  0  0  0  0  0  0  0
  -21.8397  -12.4499   21.4910 N   0  0  0  0  0  0  0  0  0  0  0  0
  -27.1990  -20.6745   21.2750 N   0  0  0  0  0  0  0  0  0  0  0  0
  -24.1240  -31.7125   22.4131 N   0  0  0  0  0  0  0  0  0  0  0  0
  -18.1272  -29.3003   23.5336 N   0  0  0  0  0  0  0  0  0  0  0  0
  -30.0015  -15.7903   21.5355 N   0  0  0  0  0  0  0  0  0  0  0  0
  -15.8612  -27.5135   21.3564 N   0  3  0  0  0  0  0  0  0  0  0  0
  -28.4273  -18.1332   24.0978 O   0  0  0  0  0  0  0  0  0  0  0  0
  -22.5570  -14.6066   21.1864 O   0  0  0  0  0  0  0  0  0  0  0  0
  -23.8037  -29.6366   23.4182 O   0  0  0  0  0  0  0  0  0  0  0  0
  -24.9100  -21.9262   21.9273 O   0  0  0  0  0  0  0  0  0  0  0  0
  -20.0624  -31.3551   23.0424 O   0  0  0  0  0  0  0  0  0  0  0  0
  -18.0856  -27.0410   23.0132 O   0  0  0  0  0  0  0  0  0  0  0  0
  -31.7895  -15.0655   20.2968 O   0  0  0  0  0  0  0  0  0  0  0  0
  -21.7322   -6.8841   21.7049 O   0  0  0  0  0  0  0  0  0  0  0  0
  -23.8031  -24.0901   20.7872 O   0  0  0  0  0  0  0  0  0  1  0  0
  -18.6357   -6.7240   26.2645 F   0  0  0  0  0  0  0  0  0  0  0  0
  -22.1944   -4.9929   23.6676 F   0  0  0  0  0  0  0  0  0  0  0  0
  -30.5565  -19.0746   20.0698 S   0  0  0  0  0  0  0  0  0  0  0  0
  1  2  1  0  0  0  0
  1  5  2  0  0  0  0
  2  6  2  0  0  0  0
  3  8  2  0  0  0  0
  3 16  1  0  0  0  0
  4  9  1  0  0  0  0
  4 16  2  0  0  0  0
  5 19  1  0  0  0  0
  6 21  1  0  0  0  0
  7 10  2  0  0  0  0
  7 20  1  0  0  0  0
  8 24  1  0  0  0  0
  9 24  2  0  0  0  0
 10 25  1  0  0  0  0
 11 12  2  0  0  0  0
 11 26  1  0  0  0  0
 12 27  1  0  0  0  0
 13 22  1  0  0  0  0
 13 25  2  0  0  0  0
 14 27  2  0  0  0  0
 14 28  1  0  0  0  0
 15 23  2  0  0  0  0
 15 86  1  0  0  0  0
 16 29  1  0  0  0  0
 17 23  1  0  0  0  0
 17 30  2  0  0  0  0
 17 32  1  0  0  0  0
 18 29  1  0  0  0  0
 18 31  2  0  0  0  0
 18 33  1  0  0  0  0
 19 21  2  0  0  0  0
 19 39  1  0  0  0  0
 20 22  2  0  0  0  0
 20 40  1  0  0  0  0
 21 48  1  0  0  0  0
 22 41  1  0  0  0  0
 23 70  1  0  0  0  0
 24 82  1  0  0  0  0
 25 83  1  0  0  0  0
 26 28  2  0  0  0  0
 26 82  1  0  0  0  0
 27 84  1  0  0  0  0
 28 85  1  0  0  0  0
 29 64  2  0  0  0  0
 30 57  1  0  0  0  0
 30 86  1  0  0  0  0
 31 65  1  0  0  0  0
 31 68  1  0  0  0  0
 32 58  1  0  0  0  0
 32 75  2  0  0  0  0
 33 69  1  0  0  0  0
 33 76  2  0  0  0  0
 34 49  1  0  0  0  0
 34 71  1  0  0  0  0
 34 77  2  0  0  0  0
 35 59  1  0  0  0  0
 35 60  1  0  0  0  0
 35 78  2  0  0  0  0
 36 61  1  0  0  0  0
 36 66  1  0  0  0  0
 36 79  2  0  0  0  0
 37 62  1  0  0  0  0
 37 72  1  0  0  0  0
 37 80  2  0  0  0  0
 38 67  1  0  0  0  0
 38 73  1  0  0  0  0
 38 81  2  0  0  0  0
 39 42  1  0  0  0  0
 40 49  1  0  0  0  0
 41 66  1  0  0  0  0
 42 44  1  0  0  0  0
 43 45  1  0  0  0  0
 43 46  1  0  0  0  0
 44 48  1  0  0  0  0
 45 50  1  0  0  0  0
 46 67  1  0  0  0  0
 47 50  1  0  0  0  0
 47 67  1  0  0  0  0
 48 71  1  0  0  0  0
 49 66  1  0  0  0  0
 50 65  1  0  0  0  0
 51 58  1  0  0  0  0
 52 62  1  0  0  0  0
 53 63  1  0  0  0  0
 54 63  1  0  0  0  0
 55 63  1  0  0  0  0
 56 74  1  0  0  0  0
 57 73  1  0  0  0  0
 59 70  1  0  0  0  0
 60 83  1  0  0  0  0
 61 63  1  0  0  0  0
 61 72  1  0  0  0  0
 62 74  1  0  0  0  0
 64 65  1  0  0  0  0
M  CHG  1  74   1
M  ISO  4  38 100  60 101  73 100  83 101
M  END
> <Batch ID>
0162

> <Smiles>
CCC(=O)c1c(NCC(=O)[101CH2:1][101O:1]c2ccc3c(c2)CN(C(=O)C(NC(=O)C(C)NC)C(C)(C)C)C(C(=O)NC2CCCc4ccccc42)C3)csc1C[100NH:0][100C:0](=O)N1CCCC(n2nc(-c3ccc(Oc4ccc(F)cc4F)cc3)c(C(N)=O)c2N)C1

> <Shape>
0.362

> <Color>
0.191

> <Negative vol penalty>
0.000

$$$$

  -OEChem-04052303563D

 81 89  0     1  0  0  0  0  0999 V2000
  -39.0198  -29.8411   26.5671 C   0  0  0  0  0  0  0  0  0  0  0  0
  -38.5780  -28.6168   26.0761 C   0  0  0  0  0  0  0  0  0  0  0  0
  -23.0006   -9.8909   19.9819 C   0  0  0  0  0  0  0  0  0  0  0  0
  -23.7260   -9.9449   22.2858 C   0  0  0  0  0  0  0  0  0  0  0  0
  -38.3782  -31.0177   26.1823 C   0  0  0  0  0  0  0  0  0  0  0  0
  -37.4935  -28.5681   25.2008 C   0  0  0  0  0  0  0  0  0  0  0  0
  -36.6874  -24.6646   20.5512 C   0  0  0  0  0  0  0  0  0  0  0  0
  -22.2350   -8.7561   20.2494 C   0  0  0  0  0  0  0  0  0  0  0  0
  -22.9603   -8.8101   22.5534 C   0  0  0  0  0  0  0  0  0  0  0  0
  -35.9524  -23.4859   20.4329 C   0  0  0  0  0  0  0  0  0  0  0  0
  -23.2072   -5.4708   22.0849 C   0  0  0  0  0  0  0  0  0  0  0  0
  -23.7956   -4.4549   22.8380 C   0  0  0  0  0  0  0  0  0  0  0  0
  -34.1248  -24.7295   19.4671 C   0  0  0  0  0  0  0  0  0  0  0  0
  -22.0717   -4.6982   24.5132 C   0  0  0  0  0  0  0  0  0  0  0  0
  -29.8700  -17.8247   22.6770 C   0  0  0  0  0  0  0  0  0  0  0  0
  -23.7462  -10.4853   21.0000 C   0  0  0  0  0  0  0  0  0  0  0  0
  -24.1295  -13.0010   20.8213 C   0  0  0  0  0  0  0  0  0  0  0  0
  -37.2915  -30.9843   25.2943 C   0  0  0  0  0  0  0  0  0  0  0  0
  -36.1415  -25.8884   20.1378 C   0  0  0  0  0  0  0  0  0  0  0  0
  -36.8360  -29.7453   24.8049 C   0  0  0  0  0  0  0  0  0  0  0  0
  -34.8559  -25.9220   19.5789 C   0  0  0  0  0  0  0  0  0  0  0  0
  -22.2149   -8.2157   21.5352 C   0  0  0  0  0  0  0  0  0  0  0  0
  -34.6698  -23.5185   19.8934 C   0  0  0  0  0  0  0  0  0  0  0  0
  -22.0511   -6.1006   22.5460 C   0  0  0  0  0  0  0  0  0  0  0  0
  -23.2279   -4.0685   24.0521 C   0  0  0  0  0  0  0  0  0  0  0  0
  -21.4833   -5.7142   23.7600 C   0  0  0  0  0  0  0  0  0  0  0  0
  -24.5377  -11.6573   20.7241 C   0  0  0  0  0  0  0  0  0  0  0  0
  -30.5783  -16.9045   21.8812 C   0  0  0  0  0  0  0  0  0  0  0  0
  -30.7292  -18.8866   22.8212 C   0  0  0  0  0  0  0  0  0  0  0  0
  -25.2387  -13.7241   20.4561 C   0  0  0  0  0  0  0  0  0  0  0  0
  -22.8612  -13.5468   21.2074 C   0  0  0  0  0  0  0  0  0  0  0  0
  -35.4118  -28.6225   21.5856 C   0  0  0  0  0  0  0  0  0  0  0  0
  -32.9552  -20.5121   20.9743 C   0  0  0  0  0  0  0  0  0  0  0  0
  -34.7878  -29.6074   18.5585 C   0  0  0  0  0  0  0  0  0  0  0  0
  -33.9605  -28.7757   15.3538 C   0  0  0  0  0  0  0  0  0  0  0  0
  -30.7174  -14.6899   20.6885 C   0  0  0  0  0  0  0  0  0  0  0  0
  -36.6000  -32.2782   24.9443 C   0  0  0  0  0  0  0  0  0  0  0  0
  -36.9575  -27.1471   20.2476 C   0  0  0  0  0  0  0  0  0  0  0  0
  -34.2322  -27.2070   19.1014 C   0  0  0  0  0  0  0  0  0  0  0  0
  -35.6950  -32.1732   23.7195 C   0  0  0  0  0  0  0  0  0  0  0  0
  -29.6009  -12.2335   18.3654 C   0  0  0  0  0  0  0  0  0  0  0  0
  -34.8221  -30.9253   23.8062 C   0  0  0  0  0  0  0  0  0  0  0  0
  -28.1505  -11.9751   18.7799 C   0  0  0  0  0  0  0  0  0  0  0  0
  -30.5013  -12.4790   19.5748 C   0  0  0  0  0  0  0  0  0  0  0  0
  -28.5854  -13.2678   20.9076 C   0  0  0  0  0  0  0  0  0  0  0  0
  -35.6786  -29.6537   23.8342 C   0  0  1  0  0  0  0  0  0  0  0  0
  -36.1048  -28.4120   20.2691 C   0  0  1  0  0  0  0  0  0  0  0  0
  -27.6278  -13.0793   19.7197 C   0  0  2  0  0  0  0  0  0  0  0  0
  -33.4844  -29.8004   13.1130 C   0  0  0  0  0  0  0  0  0  0  0  0
  -32.0297  -30.4669   19.5403 C   0  0  0  0  0  0  0  0  0  0  0  0
  -31.2916  -30.5817   17.1507 C   0  0  0  0  0  0  0  0  0  0  0  0
  -33.1215  -32.0703   17.9619 C   0  0  0  0  0  0  0  0  0  0  0  0
  -36.2294  -27.3546   14.0923 C   0  0  0  0  0  0  0  0  0  0  0  0
  -33.1053  -19.3764   21.9700 C   0  0  0  0  0  0  0  0  0  0  0  0
  -34.1996  -21.3466   20.7405 C   0  0  0  0  0  0  0  0  0  1  0  0
  -33.5740  -29.6011   17.6611 C   0  0  1  0  0  0  0  0  0  0  0  0
  -34.5475  -29.1997   14.0195 C   0  0  2  0  0  0  0  0  0  0  0  0
  -32.5149  -30.6559   18.0892 C   0  0  0  0  0  0  0  0  0  0  0  0
  -25.8071  -11.5313   20.3279 N   0  0  0  0  0  0  0  0  0  0  0  0
  -31.7938  -17.3433   21.5434 N   0  0  0  0  0  0  0  0  0  0  0  0
  -26.2060  -12.8053   20.1730 N   0  0  0  0  0  0  0  0  0  0  0  0
  -31.8559  -18.5510   22.1296 N   0  0  0  0  0  0  0  0  0  0  0  0
  -35.0674  -28.4119   19.2357 N   0  0  0  0  0  0  0  0  0  0  0  0
  -29.9455  -13.5404   20.4170 N   0  0  0  0  0  0  0  0  0  0  0  0
  -30.6149  -20.0626   23.4719 N   0  0  0  0  0  0  0  0  0  0  0  0
  -25.4711  -15.0499   20.3526 N   0  0  0  0  0  0  0  0  0  0  0  0
  -21.8301  -12.6622   21.5520 N   0  0  0  0  0  0  0  0  0  0  0  0
  -30.0724  -15.6454   21.4730 N   0  0  0  0  0  0  0  0  0  0  0  0
  -36.1560  -29.3365   22.5053 N   0  0  0  0  0  0  0  0  0  0  0  0
  -34.0715  -29.7722   16.3003 N   0  0  0  0  0  0  0  0  0  0  0  0
  -35.1514  -28.0284   13.3236 N   0  3  0  0  0  0  0  0  0  0  0  0
  -22.6435  -14.7820   21.2299 O   0  0  0  0  0  0  0  0  0  0  0  0
  -34.2848  -28.1717   21.7539 O   0  0  0  0  0  0  0  0  0  0  0  0
  -31.8992  -20.7506   20.3897 O   0  0  0  0  0  0  0  0  0  0  0  0
  -35.4672  -30.6330   18.6498 O   0  0  0  0  0  0  0  0  0  0  0  0
  -33.4510  -27.6724   15.5368 O   0  0  0  0  0  0  0  0  0  0  0  0
  -31.8559  -14.8292   20.2342 O   0  0  0  0  0  0  0  0  0  0  0  0
  -21.4677   -7.1085   21.7967 O   0  0  0  0  0  0  0  0  0  0  0  0
  -33.9500  -22.3695   19.7773 O   0  0  0  0  0  0  0  0  0  1  0  0
  -23.7922   -3.0918   24.7745 F   0  0  0  0  0  0  0  0  0  0  0  0
  -20.3720   -6.3147   24.2075 F   0  0  0  0  0  0  0  0  0  0  0  0
  1  2  1  0  0  0  0
  1  5  2  0  0  0  0
  2  6  2  0  0  0  0
  3  8  2  0  0  0  0
  3 16  1  0  0  0  0
  4  9  1  0  0  0  0
  4 16  2  0  0  0  0
  5 18  1  0  0  0  0
  6 20  1  0  0  0  0
  7 10  2  0  0  0  0
  7 19  1  0  0  0  0
  8 22  1  0  0  0  0
  9 22  2  0  0  0  0
 10 23  1  0  0  0  0
 11 12  2  0  0  0  0
 11 24  1  0  0  0  0
 12 25  1  0  0  0  0
 13 21  1  0  0  0  0
 13 23  2  0  0  0  0
 14 25  2  0  0  0  0
 14 26  1  0  0  0  0
 15 28  1  0  0  0  0
 15 29  2  0  0  0  0
 16 27  1  0  0  0  0
 17 27  1  0  0  0  0
 17 30  2  0  0  0  0
 17 31  1  0  0  0  0
 18 20  2  0  0  0  0
 18 37  1  0  0  0  0
 19 21  2  0  0  0  0
 19 38  1  0  0  0  0
 20 46  1  0  0  0  0
 21 39  1  0  0  0  0
 22 78  1  0  0  0  0
 23 79  1  0  0  0  0
 24 26  2  0  0  0  0
 24 78  1  0  0  0  0
 25 80  1  0  0  0  0
 26 81  1  0  0  0  0
 27 59  2  0  0  0  0
 28 60  2  0  0  0  0
 28 68  1  0  0  0  0
 29 62  1  0  0  0  0
 29 65  1  0  0  0  0
 30 61  1  0  0  0  0
 30 66  1  0  0  0  0
 31 67  1  0  0  0  0
 31 72  2  0  0  0  0
 32 47  1  0  0  0  0
 32 69  1  0  0  0  0
 32 73  2  0  0  0  0
 33 54  1  0  0  0  0
 33 55  1  0  0  0  0
 33 74  2  0  0  0  0
 34 56  1  0  0  0  0
 34 63  1  0  0  0  0
 34 75  2  0  0  0  0
 35 57  1  0  0  0  0
 35 70  1  0  0  0  0
 35 76  2  0  0  0  0
 36 64  1  0  0  0  0
 36 68  1  0  0  0  0
 36 77  2  0  0  0  0
 37 40  1  0  0  0  0
 38 47  1  0  0  0  0
 39 63  1  0  0  0  0
 40 42  1  0  0  0  0
 41 43  1  0  0  0  0
 41 44  1  0  0  0  0
 42 46  1  0  0  0  0
 43 48  1  0  0  0  0
 44 64  1  0  0  0  0
 45 48  1  0  0  0  0
 45 64  1  0  0  0  0
 46 69  1  0  0  0  0
 47 63  1  0  0  0  0
 48 61  1  0  0  0  0
 49 57  1  0  0  0  0
 50 58  1  0  0  0  0
 51 58  1  0  0  0  0
 52 58  1  0  0  0  0
 53 71  1  0  0  0  0
 54 62  1  0  0  0  0
 55 79  1  0  0  0  0
 56 58  1  0  0  0  0
 56 70  1  0  0  0  0
 57 71  1  0  0  0  0
 59 61  1  0  0  0  0
 60 62  1  0  0  0  0
M  CHG  1  71   1
M  ISO  4  36 100  55 101  68 100  79 101
M  END
> <Batch ID>
0162

> <Smiles>
CNC(C)C(=O)NC(C(=O)N1Cc2cc([101O:1][101CH2:1]C(=O)Cn3nc([100NH:0][100C:0](=O)N4CCCC(n5nc(-c6ccc(Oc7ccc(F)cc7F)cc6)c(C(N)=O)c5N)C4)cc3N)ccc2CC1C(=O)NC1CCCc2ccccc21)C(C)(C)C

> <Shape>
0.178

> <Color>
0.190

> <Negative vol penalty>
0.000

$$$$

  -OEChem-04052303563D

 83 91  0     1  0  0  0  0  0999 V2000
  -27.7027   -8.9670   20.1432 C   0  0  0  0  0  0  0  0  0  0  0  0
  -28.2930  -10.1841   19.8182 C   0  0  0  0  0  0  0  0  0  0  0  0
  -20.3814  -26.9129   23.1586 C   0  0  0  0  0  0  0  0  0  0  0  0
  -19.1267  -27.9105   21.3510 C   0  0  0  0  0  0  0  0  0  0  0  0
  -26.3593   -8.9219   20.5136 C   0  0  0  0  0  0  0  0  0  0  0  0
  -27.5398  -11.3568   19.8622 C   0  0  0  0  0  0  0  0  0  0  0  0
  -29.4983  -16.9319   21.4711 C   0  0  0  0  0  0  0  0  0  0  0  0
  -19.1976  -26.7077   23.8671 C   0  0  0  0  0  0  0  0  0  0  0  0
  -17.9428  -27.7052   22.0595 C   0  0  0  0  0  0  0  0  0  0  0  0
  -29.9023  -18.0364   20.7223 C   0  0  0  0  0  0  0  0  0  0  0  0
  -16.4697  -25.5936   25.9961 C   0  0  0  0  0  0  0  0  0  0  0  0
  -16.2864  -24.3534   26.6074 C   0  0  0  0  0  0  0  0  0  0  0  0
  -27.6824  -18.9631   20.9028 C   0  0  0  0  0  0  0  0  0  0  0  0
  -16.4445  -23.2688   24.4543 C   0  0  0  0  0  0  0  0  0  0  0  0
  -20.3460  -27.5143   21.9006 C   0  0  0  0  0  0  0  0  0  0  0  0
  -22.1786  -26.8440   20.2575 C   0  0  0  0  0  0  0  0  0  0  0  0
  -25.5918  -10.0958   20.5715 C   0  0  0  0  0  0  0  0  0  0  0  0
  -28.1782  -16.8293   21.9328 C   0  0  0  0  0  0  0  0  0  0  0  0
  -26.1845  -11.3272   20.2324 C   0  0  0  0  0  0  0  0  0  0  0  0
  -27.2649  -17.8575   21.6594 C   0  0  0  0  0  0  0  0  0  0  0  0
  -17.9783  -27.1038   23.3176 C   0  0  0  0  0  0  0  0  0  0  0  0
  -28.9936  -19.0508   20.4356 C   0  0  0  0  0  0  0  0  0  0  0  0
  -16.6403  -25.6715   24.6139 C   0  0  0  0  0  0  0  0  0  0  0  0
  -16.2739  -23.1909   25.8366 C   0  0  0  0  0  0  0  0  0  0  0  0
  -16.6277  -24.5091   23.8430 C   0  0  0  0  0  0  0  0  0  0  0  0
  -21.5686  -27.7271   21.1684 C   0  0  0  0  0  0  0  0  0  0  0  0
  -29.7519  -27.4470   19.9883 C   0  0  0  0  0  0  0  0  0  0  0  0
  -30.8812  -26.7664   19.5838 C   0  0  0  0  0  0  0  0  0  0  0  0
  -23.3065  -27.5070   19.8394 C   0  0  0  0  0  0  0  0  0  0  0  0
  -29.5604  -25.0469   19.9139 C   0  0  0  0  0  0  0  0  0  0  0  0
  -21.7629  -25.5409   19.8275 C   0  0  0  0  0  0  0  0  0  0  0  0
  -29.5103  -28.9038   20.1504 C   0  0  0  0  0  0  0  0  0  0  0  0
  -25.7861  -14.7917   21.4535 C   0  0  0  0  0  0  0  0  0  0  0  0
  -24.3309  -16.5664   23.7459 C   0  0  0  0  0  0  0  0  0  0  0  0
  -29.6624  -22.5386   19.7348 C   0  0  0  0  0  0  0  0  0  0  0  0
  -24.0998  -19.5477   25.3908 C   0  0  0  0  0  0  0  0  0  0  0  0
  -27.8146  -30.5680   20.8421 C   0  0  0  0  0  0  0  0  0  0  0  0
  -24.1310   -9.9911   20.9317 C   0  0  0  0  0  0  0  0  0  0  0  0
  -27.7652  -15.6442   22.7619 C   0  0  0  0  0  0  0  0  0  0  0  0
  -25.8415  -17.8049   22.1491 C   0  0  0  0  0  0  0  0  0  0  0  0
  -23.5010  -11.3274   21.3157 C   0  0  0  0  0  0  0  0  0  0  0  0
  -24.7546  -32.3108   20.5323 C   0  0  0  0  0  0  0  0  0  0  0  0
  -23.8888  -12.4085   20.3119 C   0  0  0  0  0  0  0  0  0  0  0  0
  -23.7003  -31.2019   20.5869 C   0  0  0  0  0  0  0  0  0  0  0  0
  -25.9198  -32.0333   21.4811 C   0  0  0  0  0  0  0  0  0  0  0  0
  -25.4937  -29.6110   21.3852 C   0  0  0  0  0  0  0  0  0  0  0  0
  -25.4070  -12.6241   20.2922 C   0  0  1  0  0  0  0  0  0  0  0  0
  -26.2598  -15.3979   22.7441 C   0  0  1  0  0  0  0  0  0  0  0  0
  -24.3338  -29.8092   20.3959 C   0  0  1  0  0  0  0  0  0  0  0  0
  -32.1720  -27.3735   19.1994 C   0  0  0  0  0  0  0  0  0  0  0  0
  -22.7900  -20.7091   27.1888 C   0  0  0  0  0  0  0  0  0  0  0  0
  -21.9973  -16.9224   21.8126 C   0  0  0  0  0  0  0  0  0  0  0  0
  -21.1909  -18.8120   23.2434 C   0  0  0  0  0  0  0  0  0  0  0  0
  -21.3309  -16.5071   24.1870 C   0  0  0  0  0  0  0  0  0  0  0  0
  -26.5134  -19.9375   27.0585 C   0  0  0  0  0  0  0  0  0  0  0  0
  -28.7264  -21.3675   19.9694 C   0  0  0  0  0  0  0  0  0  1  0  0
  -23.4598  -17.7994   23.7512 C   0  0  1  0  0  0  0  0  0  0  0  0
  -24.0234  -19.8785   26.8703 C   0  0  2  0  0  0  0  0  0  0  0  0
  -22.0209  -17.5106   23.2375 C   0  0  0  0  0  0  0  0  0  0  0  0
  -22.2524  -28.8643   21.3207 N   0  0  0  0  0  0  0  0  0  0  0  0
  -30.7734  -25.3900   19.5409 N   0  0  0  0  0  0  0  0  0  0  0  0
  -23.3038  -28.7003   20.4999 N   0  0  0  0  0  0  0  0  0  0  0  0
  -25.4842  -16.6227   22.9505 N   0  0  0  0  0  0  0  0  0  0  0  0
  -26.4697  -30.7000   21.2296 N   0  0  0  0  0  0  0  0  0  0  0  0
  -24.2904  -27.1798   18.9749 N   0  0  0  0  0  0  0  0  0  0  0  0
  -20.5791  -25.0089   20.3566 N   0  0  0  0  0  0  0  0  0  0  0  0
  -29.0224  -23.7418   20.0121 N   0  0  0  0  0  0  0  0  0  0  0  0
  -28.2324  -29.2577   20.5841 N   0  0  0  0  0  0  0  0  0  0  0  0
  -25.8206  -13.4104   21.4346 N   0  0  0  0  0  0  0  0  0  0  0  0
  -23.5141  -18.3317   25.1084 N   0  0  0  0  0  0  0  0  0  0  0  0
  -25.2289  -20.6464   27.2923 N   0  3  0  0  0  0  0  0  0  0  0  0
  -22.4302  -24.8614   19.0112 O   0  0  0  0  0  0  0  0  0  0  0  0
  -30.4301  -29.6896   19.9396 O   0  0  0  0  0  0  0  0  0  0  0  0
  -25.4152  -15.5229   20.5427 O   0  0  0  0  0  0  0  0  0  0  0  0
  -24.0040  -15.5920   24.4280 O   0  0  0  0  0  0  0  0  0  0  0  0
  -30.8157  -22.3726   19.3515 O   0  0  0  0  0  0  0  0  0  0  0  0
  -24.6230  -20.2950   24.5672 O   0  0  0  0  0  0  0  0  0  0  0  0
  -28.5683  -31.5362   20.7009 O   0  0  0  0  0  0  0  0  0  0  0  0
  -16.8229  -26.9036   24.0085 O   0  0  0  0  0  0  0  0  0  0  0  0
  -29.3851  -20.1297   19.7044 O   0  0  0  0  0  0  0  0  0  1  0  0
  -16.0994  -21.9998   26.4240 F   0  0  0  0  0  0  0  0  0  0  0  0
  -16.7922  -24.5775   22.5148 F   0  0  0  0  0  0  0  0  0  0  0  0
  -28.4974  -26.3284   20.3295 S   0  0  0  0  0  0  0  0  0  0  0  0
  1  2  1  0  0  0  0
  1  5  2  0  0  0  0
  2  6  2  0  0  0  0
  3  8  2  0  0  0  0
  3 15  1  0  0  0  0
  4  9  1  0  0  0  0
  4 15  2  0  0  0  0
  5 17  1  0  0  0  0
  6 19  1  0  0  0  0
  7 10  2  0  0  0  0
  7 18  1  0  0  0  0
  8 21  1  0  0  0  0
  9 21  2  0  0  0  0
 10 22  1  0  0  0  0
 11 12  2  0  0  0  0
 11 23  1  0  0  0  0
 12 24  1  0  0  0  0
 13 20  1  0  0  0  0
 13 22  2  0  0  0  0
 14 24  2  0  0  0  0
 14 25  1  0  0  0  0
 15 26  1  0  0  0  0
 16 26  1  0  0  0  0
 16 29  2  0  0  0  0
 16 31  1  0  0  0  0
 17 19  2  0  0  0  0
 17 38  1  0  0  0  0
 18 20  2  0  0  0  0
 18 39  1  0  0  0  0
 19 47  1  0  0  0  0
 20 40  1  0  0  0  0
 21 79  1  0  0  0  0
 22 80  1  0  0  0  0
 23 25  2  0  0  0  0
 23 79  1  0  0  0  0
 24 81  1  0  0  0  0
 25 82  1  0  0  0  0
 26 60  2  0  0  0  0
 27 28  2  0  0  0  0
 27 32  1  0  0  0  0
 27 83  1  0  0  0  0
 28 50  1  0  0  0  0
 28 61  1  0  0  0  0
 29 62  1  0  0  0  0
 29 65  1  0  0  0  0
 30 61  2  0  0  0  0
 30 67  1  0  0  0  0
 30 83  1  0  0  0  0
 31 66  1  0  0  0  0
 31 72  2  0  0  0  0
 32 68  1  0  0  0  0
 32 73  2  0  0  0  0
 33 48  1  0  0  0  0
 33 69  1  0  0  0  0
 33 74  2  0  0  0  0
 34 57  1  0  0  0  0
 34 63  1  0  0  0  0
 34 75  2  0  0  0  0
 35 56  1  0  0  0  0
 35 67  1  0  0  0  0
 35 76  2  0  0  0  0
 36 58  1  0  0  0  0
 36 70  1  0  0  0  0
 36 77  2  0  0  0  0
 37 64  1  0  0  0  0
 37 68  1  0  0  0  0
 37 78  2  0  0  0  0
 38 41  1  0  0  0  0
 39 48  1  0  0  0  0
 40 63  1  0  0  0  0
 41 43  1  0  0  0  0
 42 44  1  0  0  0  0
 42 45  1  0  0  0  0
 43 47  1  0  0  0  0
 44 49  1  0  0  0  0
 45 64  1  0  0  0  0
 46 49  1  0  0  0  0
 46 64  1  0  0  0  0
 47 69  1  0  0  0  0
 48 63  1  0  0  0  0
 49 62  1  0  0  0  0
 51 58  1  0  0  0  0
 52 59  1  0  0  0  0
 53 59  1  0  0  0  0
 54 59  1  0  0  0  0
 55 71  1  0  0  0  0
 56 80  1  0  0  0  0
 57 59  1  0  0  0  0
 57 70  1  0  0  0  0
 58 71  1  0  0  0  0
 60 62  1  0  0  0  0
M  CHG  1  71   1
M  ISO  4  37 100  56 101  68 100  80 101
M  END
> <Batch ID>
0162

> <Smiles>
CNC(C)C(=O)NC(C(=O)N1Cc2cc([101O:1][101CH2:1]C(=O)Nc3nc(C)c(C(=O)[100NH:0][100C:0](=O)N4CCCC(n5nc(-c6ccc(Oc7ccc(F)cc7F)cc6)c(C(N)=O)c5N)C4)s3)ccc2CC1C(=O)NC1CCCc2ccccc21)C(C)(C)C

> <Shape>
0.238

> <Color>
0.078

> <Negative vol penalty>
0.000

$$$$

  -OEChem-04052303563D

 89 98  0     1  0  0  0  0  0999 V2000
  -25.8235  -37.0404   25.1725 C   0  0  0  0  0  0  0  0  0  0  0  0
  -26.3766  -35.7671   25.2632 C   0  0  0  0  0  0  0  0  0  0  0  0
  -23.5990   -9.6223   21.1761 C   0  0  0  0  0  0  0  0  0  0  0  0
  -24.2309  -10.5205   23.3281 C   0  0  0  0  0  0  0  0  0  0  0  0
  -24.5201  -37.2013   24.7045 C   0  0  0  0  0  0  0  0  0  0  0  0
  -25.6261  -34.6538   24.8869 C   0  0  0  0  0  0  0  0  0  0  0  0
  -27.7025  -29.5405   22.2320 C   0  0  0  0  0  0  0  0  0  0  0  0
  -23.0276   -8.5164   21.8054 C   0  0  0  0  0  0  0  0  0  0  0  0
  -23.6594   -9.4146   23.9574 C   0  0  0  0  0  0  0  0  0  0  0  0
  -28.0316  -28.2856   22.7426 C   0  0  0  0  0  0  0  0  0  0  0  0
  -20.1647   -7.7909   23.4519 C   0  0  0  0  0  0  0  0  0  0  0  0
  -18.9066   -7.3753   23.0160 C   0  0  0  0  0  0  0  0  0  0  0  0
  -30.7577  -20.3414   22.2674 C   0  0  0  0  0  0  0  0  0  0  0  0
  -25.8342  -27.4789   22.1598 C   0  0  0  0  0  0  0  0  0  0  0  0
  -31.3110  -18.1949   21.3064 C   0  0  0  0  0  0  0  0  0  0  0  0
  -19.8223   -5.2178   22.4299 C   0  0  0  0  0  0  0  0  0  0  0  0
  -24.2007  -10.6243   21.9374 C   0  0  0  0  0  0  0  0  0  0  0  0
  -29.4000  -20.0524   22.1314 C   0  0  0  0  0  0  0  0  0  0  0  0
  -24.1599  -12.9827   20.9660 C   0  0  0  0  0  0  0  0  0  0  0  0
  -23.7566  -36.0902   24.3131 C   0  0  0  0  0  0  0  0  0  0  0  0
  -26.4309  -29.7774   21.6905 C   0  0  0  0  0  0  0  0  0  0  0  0
  -24.3107  -34.7999   24.4144 C   0  0  0  0  0  0  0  0  0  0  0  0
  -25.4923  -28.7369   21.6407 C   0  0  0  0  0  0  0  0  0  0  0  0
  -29.9532  -17.9059   21.1704 C   0  0  0  0  0  0  0  0  0  0  0  0
  -23.0577   -8.4126   23.1961 C   0  0  0  0  0  0  0  0  0  0  0  0
  -27.0964  -27.2554   22.7092 C   0  0  0  0  0  0  0  0  0  0  0  0
  -21.2517   -6.9200   23.3767 C   0  0  0  0  0  0  0  0  0  0  0  0
  -18.7354   -6.0888   22.5050 C   0  0  0  0  0  0  0  0  0  0  0  0
  -31.7133  -19.4127   21.8548 C   0  0  0  0  0  0  0  0  0  0  0  0
  -21.0805   -5.6334   22.8657 C   0  0  0  0  0  0  0  0  0  0  0  0
  -28.9977  -18.8346   21.5830 C   0  0  0  0  0  0  0  0  0  0  0  0
  -24.7917  -11.7666   21.2878 C   0  0  0  0  0  0  0  0  0  0  0  0
  -25.1423  -13.7318   20.3658 C   0  0  0  0  0  0  0  0  0  0  0  0
  -28.3841  -21.0471   22.5733 C   0  0  0  0  0  0  0  0  0  0  0  0
  -22.8060  -13.3982   21.1896 C   0  0  0  0  0  0  0  0  0  0  0  0
  -24.0128  -31.7123   22.4067 C   0  0  0  0  0  0  0  0  0  0  0  0
  -22.7679  -30.5386   19.6508 C   0  0  0  0  0  0  0  0  0  0  0  0
  -22.6774  -28.0134   17.3569 C   0  0  0  0  0  0  0  0  0  0  0  0
  -30.3695  -15.6383   20.1549 C   0  0  0  0  0  0  0  0  0  0  0  0
  -22.3355  -36.3098   23.8581 C   0  0  0  0  0  0  0  0  0  0  0  0
  -26.1006  -31.1292   21.1194 C   0  0  0  0  0  0  0  0  0  0  0  0
  -24.1203  -28.9341   21.0514 C   0  0  0  0  0  0  0  0  0  0  0  0
  -21.7383  -35.1110   23.1258 C   0  0  0  0  0  0  0  0  0  0  0  0
  -29.7579  -12.4240   18.7509 C   0  0  0  0  0  0  0  0  0  0  0  0
  -22.0279  -33.8216   23.8876 C   0  0  0  0  0  0  0  0  0  0  0  0
  -28.3594  -12.0665   19.2593 C   0  0  0  0  0  0  0  0  0  0  0  0
  -28.6736  -23.4096   23.1616 C   0  0  0  0  0  0  0  0  0  0  0  0
  -30.5650  -13.1866   19.8001 C   0  0  0  0  0  0  0  0  0  0  0  0
  -28.5020  -14.0166   20.8604 C   0  0  0  0  0  0  0  0  0  0  0  0
  -27.9120  -22.8563   25.9451 C   0  0  0  0  0  0  0  0  0  0  0  0
  -23.5369  -33.5697   23.9923 C   0  0  1  0  0  0  0  0  0  0  0  0
  -28.7024  -21.9766   23.7074 C   0  0  1  0  0  0  0  0  0  0  0  0
  -24.6009  -31.4022   21.0592 C   0  0  1  0  0  0  0  0  0  0  0  0
  -27.7058  -21.7894   24.8675 C   0  0  1  0  0  0  0  0  0  0  0  0
  -27.6283  -13.3043   19.8150 C   0  0  2  0  0  0  0  0  0  0  0  0
  -28.8776  -24.4454   24.2644 C   0  0  1  0  0  0  0  0  0  0  0  0
  -27.8332  -20.4005   25.5013 C   0  0  0  0  0  0  0  0  0  0  0  0
  -21.5341  -27.3216   15.2328 C   0  0  0  0  0  0  0  0  0  0  0  0
  -20.2649  -29.8124   21.2375 C   0  0  0  0  0  0  0  0  0  0  0  0
  -19.5862  -28.3159   19.3485 C   0  0  0  0  0  0  0  0  0  0  0  0
  -19.8214  -30.7704   18.9703 C   0  0  0  0  0  0  0  0  0  0  0  0
  -25.2327  -27.9514   15.8650 C   0  0  0  0  0  0  0  0  0  0  0  0
  -28.7250  -25.8694   23.7497 C   0  0  0  0  0  0  0  0  0  1  0  0
  -21.8961  -29.3608   19.2878 C   0  0  1  0  0  0  0  0  0  0  0  0
  -22.7363  -28.0279   15.8400 C   0  0  2  0  0  0  0  0  0  0  0  0
  -20.4172  -29.5614   19.7239 C   0  0  0  0  0  0  0  0  0  0  0  0
  -26.0761  -11.7403   20.9222 N   0  0  0  0  0  0  0  0  0  0  0  0
  -27.2258  -21.1047   21.9970 N   0  0  0  0  0  0  0  0  0  0  0  0
  -26.2593  -12.9491   20.3644 N   0  0  0  0  0  0  0  0  0  0  0  0
  -23.8429  -30.2754   20.5115 N   0  0  0  0  0  0  0  0  0  0  0  0
  -29.8116  -14.3482   20.2775 N   0  0  0  0  0  0  0  0  0  0  0  0
  -25.1511  -14.9769   19.8443 N   0  0  0  0  0  0  0  0  0  0  0  0
  -21.9284  -12.5051   21.8192 N   0  0  0  0  0  0  0  0  0  0  0  0
  -29.5480  -16.6678   20.6130 N   0  0  0  0  0  0  0  0  0  0  0  0
  -24.0509  -33.0522   22.7423 N   0  0  0  0  0  0  0  0  0  0  0  0
  -22.0730  -29.1481   17.8554 N   0  0  0  0  0  0  0  0  0  0  0  0
  -27.8476  -24.2136   25.3281 N   0  3  0  0  0  0  0  0  0  0  0  0
  -23.9725  -27.3458   15.3631 N   0  3  0  0  0  0  0  0  0  0  0  0
  -22.3825  -14.5218   20.8266 O   0  0  0  0  0  0  0  0  0  0  0  0
  -23.5569  -30.8034   23.0905 O   0  0  0  0  0  0  0  0  0  0  0  0
  -22.5089  -31.6499   19.1820 O   0  0  0  0  0  0  0  0  0  0  0  0
  -23.1198  -27.0865   18.0318 O   0  0  0  0  0  0  0  0  0  0  0  0
  -31.4822  -15.8192   19.6536 O   0  0  0  0  0  0  0  0  0  0  0  0
  -22.5000   -7.3338   23.8106 O   0  0  0  0  0  0  0  0  0  0  0  0
  -27.4148  -26.0297   23.2075 O   0  0  0  0  0  0  0  0  0  1  0  0
  -17.5268   -5.6893   22.0879 F   0  0  0  0  0  0  0  0  0  0  0  0
  -33.0172  -19.6903   21.9855 F   0  0  0  0  0  0  0  0  0  0  0  0
  -22.1207   -4.7918   22.7921 F   0  0  0  0  0  0  0  0  0  0  0  0
  -27.6914  -18.5566   21.4525 F   0  0  0  0  0  0  0  0  0  0  0  0
  1  2  1  0  0  0  0
  1  5  2  0  0  0  0
  2  6  2  0  0  0  0
  3  8  2  0  0  0  0
  3 17  1  0  0  0  0
  4  9  1  0  0  0  0
  4 17  2  0  0  0  0
  5 20  1  0  0  0  0
  6 22  1  0  0  0  0
  7 10  2  0  0  0  0
  7 21  1  0  0  0  0
  8 25  1  0  0  0  0
  9 25  2  0  0  0  0
 10 26  1  0  0  0  0
 11 12  2  0  0  0  0
 11 27  1  0  0  0  0
 12 28  1  0  0  0  0
 13 18  1  0  0  0  0
 13 29  2  0  0  0  0
 14 23  1  0  0  0  0
 14 26  2  0  0  0  0
 15 24  2  0  0  0  0
 15 29  1  0  0  0  0
 16 28  2  0  0  0  0
 16 30  1  0  0  0  0
 17 32  1  0  0  0  0
 18 31  2  0  0  0  0
 18 34  1  0  0  0  0
 19 32  1  0  0  0  0
 19 33  2  0  0  0  0
 19 35  1  0  0  0  0
 20 22  2  0  0  0  0
 20 40  1  0  0  0  0
 21 23  2  0  0  0  0
 21 41  1  0  0  0  0
 22 51  1  0  0  0  0
 23 42  1  0  0  0  0
 24 31  1  0  0  0  0
 24 74  1  0  0  0  0
 25 84  1  0  0  0  0
 26 85  1  0  0  0  0
 27 30  2  0  0  0  0
 27 84  1  0  0  0  0
 28 86  1  0  0  0  0
 29 87  1  0  0  0  0
 30 88  1  0  0  0  0
 31 89  1  0  0  0  0
 32 67  2  0  0  0  0
 33 69  1  0  0  0  0
 33 72  1  0  0  0  0
 34 52  1  0  0  0  0
 34 68  2  0  0  0  0
 35 73  1  0  0  0  0
 35 79  2  0  0  0  0
 36 53  1  0  0  0  0
 36 75  1  0  0  0  0
 36 80  2  0  0  0  0
 37 64  1  0  0  0  0
 37 70  1  0  0  0  0
 37 81  2  0  0  0  0
 38 65  1  0  0  0  0
 38 76  1  0  0  0  0
 38 82  2  0  0  0  0
 39 71  1  0  0  0  0
 39 74  1  0  0  0  0
 39 83  2  0  0  0  0
 40 43  1  0  0  0  0
 41 53  1  0  0  0  0
 42 70  1  0  0  0  0
 43 45  1  0  0  0  0
 44 46  1  0  0  0  0
 44 48  1  0  0  0  0
 45 51  1  0  0  0  0
 46 55  1  0  0  0  0
 47 52  1  0  0  0  0
 47 56  1  0  0  0  0
 48 71  1  0  0  0  0
 49 55  1  0  0  0  0
 49 71  1  0  0  0  0
 50 54  1  0  0  0  0
 50 77  1  0  0  0  0
 51 75  1  0  0  0  0
 52 54  1  0  0  0  0
 53 70  1  0  0  0  0
 54 57  1  0  0  0  0
 55 69  1  0  0  0  0
 56 63  1  0  0  0  0
 56 77  1  0  0  0  0
 58 65  1  0  0  0  0
 59 66  1  0  0  0  0
 60 66  1  0  0  0  0
 61 66  1  0  0  0  0
 62 78  1  0  0  0  0
 63 85  1  0  0  0  0
 64 66  1  0  0  0  0
 64 76  1  0  0  0  0
 65 78  1  0  0  0  0
 67 69  1  0  0  0  0
M  CHG  2  77   1  78   1
M  ISO  4  39 100  63 101  74 100  85 101
M  END
> <Batch ID>
0162

> <Smiles>
CNC(C)C(=O)NC(C(=O)N1Cc2cc([101O:1][101CH2:1]C3CC(C(=N)c4cc(F)cc([100NH:0][100C:0](=O)N5CCCC(n6nc(-c7ccc(Oc8ccc(F)cc8F)cc7)c(C(N)=O)c6N)C5)c4F)C(C)CN3)ccc2CC1C(=O)NC1CCCc2ccccc21)C(C)(C)C

> <Shape>
0.272

> <Color>
0.137

> <Negative vol penalty>
0.000

$$$$

  -OEChem-04052303563D

 83 91  0     1  0  0  0  0  0999 V2000
  -22.2252  -10.6938   22.3871 C   0  0  0  0  0  0  0  0  0  0  0  0
  -22.0750  -12.0479   22.6687 C   0  0  0  0  0  0  0  0  0  0  0  0
  -28.3247  -25.5265   18.6860 C   0  0  0  0  0  0  0  0  0  0  0  0
  -29.9428  -26.2444   20.3302 C   0  0  0  0  0  0  0  0  0  0  0  0
  -23.3355  -10.2512   21.6693 C   0  0  0  0  0  0  0  0  0  0  0  0
  -23.0357  -12.9601   22.2335 C   0  0  0  0  0  0  0  0  0  0  0  0
  -20.9847  -17.1132   20.1866 C   0  0  0  0  0  0  0  0  0  0  0  0
  -29.3562  -25.0380   17.8841 C   0  0  0  0  0  0  0  0  0  0  0  0
  -30.9743  -25.7558   19.5284 C   0  0  0  0  0  0  0  0  0  0  0  0
  -20.4811  -18.0730   21.0634 C   0  0  0  0  0  0  0  0  0  0  0  0
  -34.0584  -25.0213   17.7510 C   0  0  0  0  0  0  0  0  0  0  0  0
  -35.1825  -25.8286   17.5774 C   0  0  0  0  0  0  0  0  0  0  0  0
  -22.4914  -19.3764   20.7821 C   0  0  0  0  0  0  0  0  0  0  0  0
  -33.7960  -27.5496   16.6012 C   0  0  0  0  0  0  0  0  0  0  0  0
  -20.2867  -27.0443   22.3876 C   0  0  0  0  0  0  0  0  0  0  0  0
  -28.6180  -26.1298   19.9090 C   0  0  0  0  0  0  0  0  0  0  0  0
  -26.8483  -25.9366   21.7362 C   0  0  0  0  0  0  0  0  0  0  0  0
  -24.3054  -11.1596   21.2168 C   0  0  0  0  0  0  0  0  0  0  0  0
  -22.2523  -17.2728   19.6084 C   0  0  0  0  0  0  0  0  0  0  0  0
  -24.1607  -12.5290   21.5101 C   0  0  0  0  0  0  0  0  0  0  0  0
  -23.0078  -18.4184   19.8962 C   0  0  0  0  0  0  0  0  0  0  0  0
  -30.6810  -25.1526   18.3053 C   0  0  0  0  0  0  0  0  0  0  0  0
  -21.2356  -19.2034   21.3636 C   0  0  0  0  0  0  0  0  0  0  0  0
  -32.8030  -25.4781   17.3496 C   0  0  0  0  0  0  0  0  0  0  0  0
  -35.0514  -27.0927   17.0026 C   0  0  0  0  0  0  0  0  0  0  0  0
  -32.6718  -26.7422   16.7747 C   0  0  0  0  0  0  0  0  0  0  0  0
  -27.5530  -26.6351   20.7375 C   0  0  0  0  0  0  0  0  0  0  0  0
  -19.6755  -28.2819   22.6529 C   0  0  0  0  0  0  0  0  0  0  0  0
  -25.9476  -26.8514   22.2244 C   0  0  0  0  0  0  0  0  0  0  0  0
  -19.3557  -26.1268   22.7971 C   0  0  0  0  0  0  0  0  0  0  0  0
  -26.9949  -24.5821   22.1826 C   0  0  0  0  0  0  0  0  0  0  0  0
  -20.2267  -29.6394   22.4078 C   0  0  0  0  0  0  0  0  0  0  0  0
  -24.9802  -15.6437   19.6990 C   0  0  0  0  0  0  0  0  0  0  0  0
  -20.1009  -22.4623   22.4838 C   0  0  0  0  0  0  0  0  0  0  0  0
  -25.8947  -17.8082   17.4627 C   0  0  0  0  0  0  0  0  0  0  0  0
  -25.4739  -20.9002   16.0808 C   0  0  0  0  0  0  0  0  0  0  0  0
  -22.1829  -30.8510   21.4974 C   0  0  0  0  0  0  0  0  0  0  0  0
  -25.5125  -10.6282   20.4853 C   0  0  0  0  0  0  0  0  0  0  0  0
  -22.7700  -16.2414   18.6437 C   0  0  0  0  0  0  0  0  0  0  0  0
  -24.3657  -18.6468   19.2860 C   0  0  0  0  0  0  0  0  0  0  0  0
  -26.2938  -11.7048   19.7366 C   0  0  0  0  0  0  0  0  0  0  0  0
  -25.5754  -31.8443   21.4587 C   0  0  0  0  0  0  0  0  0  0  0  0
  -26.5075  -12.9253   20.6263 C   0  0  0  0  0  0  0  0  0  0  0  0
  -26.3381  -30.5205   21.3578 C   0  0  0  0  0  0  0  0  0  0  0  0
  -24.2916  -31.8241   20.6301 C   0  0  0  0  0  0  0  0  0  0  0  0
  -24.1602  -29.3716   20.7911 C   0  0  0  0  0  0  0  0  0  0  0  0
  -25.1687  -13.5523   21.0337 C   0  0  1  0  0  0  0  0  0  0  0  0
  -24.2899  -16.2554   18.5129 C   0  0  1  0  0  0  0  0  0  0  0  0
  -25.4246  -29.3166   21.6638 C   0  0  1  0  0  0  0  0  0  0  0  0
  -26.3942  -22.4001   14.2918 C   0  0  0  0  0  0  0  0  0  0  0  0
  -28.3167  -18.4114   19.2177 C   0  0  0  0  0  0  0  0  0  0  0  0
  -28.6598  -20.5131   17.9013 C   0  0  0  0  0  0  0  0  0  0  0  0
  -28.8064  -18.2957   16.7680 C   0  0  0  0  0  0  0  0  0  0  0  0
  -22.8776  -20.9961   14.6635 C   0  0  0  0  0  0  0  0  0  0  0  0
  -20.4404  -23.9294   22.3274 C   0  0  0  0  0  0  0  0  0  0  0  0
  -21.1652  -21.4900   22.0135 C   0  0  0  0  0  0  0  0  0  1  0  0
  -26.5481  -19.1687   17.4960 C   0  0  1  0  0  0  0  0  0  0  0  0
  -25.3501  -21.3494   14.6361 C   0  0  2  0  0  0  0  0  0  0  0  0
  -28.0580  -19.0923   17.8589 C   0  0  0  0  0  0  0  0  0  0  0  0
  -27.1357  -27.8963   20.5983 N   0  0  0  0  0  0  0  0  0  0  0  0
  -18.4585  -28.1426   23.1862 N   0  0  0  0  0  0  0  0  0  0  0  0
  -26.1590  -27.9974   21.5159 N   0  0  0  0  0  0  0  0  0  0  0  0
  -24.8311  -17.6067   18.3538 N   0  0  0  0  0  0  0  0  0  0  0  0
  -23.4785  -30.6600   20.9864 N   0  0  0  0  0  0  0  0  0  0  0  0
  -25.0032  -26.7792   23.1864 N   0  0  0  0  0  0  0  0  0  0  0  0
  -27.9690  -23.7795   21.5733 N   0  0  0  0  0  0  0  0  0  0  0  0
  -19.3483  -24.7393   22.8035 N   0  0  0  0  0  0  0  0  0  0  0  0
  -21.5037  -29.6787   21.8473 N   0  0  0  0  0  0  0  0  0  0  0  0
  -24.6228  -14.3314   19.9431 N   0  0  0  0  0  0  0  0  0  0  0  0
  -26.2750  -19.7844   16.2019 N   0  0  0  0  0  0  0  0  0  0  0  0
  -23.9999  -21.9295   14.3880 N   0  3  0  0  0  0  0  0  0  0  0  0
  -26.2721  -24.0929   23.0836 O   0  0  0  0  0  0  0  0  0  0  0  0
  -19.5356  -30.6211   22.6660 O   0  0  0  0  0  0  0  0  0  0  0  0
  -25.7792  -16.3124   20.3442 O   0  0  0  0  0  0  0  0  0  0  0  0
  -19.0350  -22.0730   22.9593 O   0  0  0  0  0  0  0  0  0  0  0  0
  -26.3080  -16.9581   16.6702 O   0  0  0  0  0  0  0  0  0  0  0  0
  -24.9188  -21.4831   17.0096 O   0  0  0  0  0  0  0  0  0  0  0  0
  -21.6876  -31.9701   21.6637 O   0  0  0  0  0  0  0  0  0  0  0  0
  -18.2602  -26.7700   23.2757 O   0  0  0  0  0  0  0  0  0  0  0  0
  -31.6878  -24.6758   17.5233 O   0  0  0  0  0  0  0  0  0  0  0  0
  -20.7466  -20.1414   22.2196 O   0  0  0  0  0  0  0  0  0  1  0  0
  -36.1308  -27.8685   16.8374 F   0  0  0  0  0  0  0  0  0  0  0  0
  -31.4682  -27.1870   16.3883 F   0  0  0  0  0  0  0  0  0  0  0  0
  1  2  1  0  0  0  0
  1  5  2  0  0  0  0
  2  6  2  0  0  0  0
  3  8  2  0  0  0  0
  3 16  1  0  0  0  0
  4  9  1  0  0  0  0
  4 16  2  0  0  0  0
  5 18  1  0  0  0  0
  6 20  1  0  0  0  0
  7 10  2  0  0  0  0
  7 19  1  0  0  0  0
  8 22  1  0  0  0  0
  9 22  2  0  0  0  0
 10 23  1  0  0  0  0
 11 12  2  0  0  0  0
 11 24  1  0  0  0  0
 12 25  1  0  0  0  0
 13 21  1  0  0  0  0
 13 23  2  0  0  0  0
 14 25  2  0  0  0  0
 14 26  1  0  0  0  0
 15 28  1  0  0  0  0
 15 30  2  0  0  0  0
 16 27  1  0  0  0  0
 17 27  1  0  0  0  0
 17 29  2  0  0  0  0
 17 31  1  0  0  0  0
 18 20  2  0  0  0  0
 18 38  1  0  0  0  0
 19 21  2  0  0  0  0
 19 39  1  0  0  0  0
 20 47  1  0  0  0  0
 21 40  1  0  0  0  0
 22 80  1  0  0  0  0
 23 81  1  0  0  0  0
 24 26  2  0  0  0  0
 24 80  1  0  0  0  0
 25 82  1  0  0  0  0
 26 83  1  0  0  0  0
 27 60  2  0  0  0  0
 28 32  1  0  0  0  0
 28 61  2  0  0  0  0
 29 62  1  0  0  0  0
 29 65  1  0  0  0  0
 30 67  1  0  0  0  0
 30 79  1  0  0  0  0
 31 66  1  0  0  0  0
 31 72  2  0  0  0  0
 32 68  1  0  0  0  0
 32 73  2  0  0  0  0
 33 48  1  0  0  0  0
 33 69  1  0  0  0  0
 33 74  2  0  0  0  0
 34 55  1  0  0  0  0
 34 56  1  0  0  0  0
 34 75  2  0  0  0  0
 35 57  1  0  0  0  0
 35 63  1  0  0  0  0
 35 76  2  0  0  0  0
 36 58  1  0  0  0  0
 36 70  1  0  0  0  0
 36 77  2  0  0  0  0
 37 64  1  0  0  0  0
 37 68  1  0  0  0  0
 37 78  2  0  0  0  0
 38 41  1  0  0  0  0
 39 48  1  0  0  0  0
 40 63  1  0  0  0  0
 41 43  1  0  0  0  0
 42 44  1  0  0  0  0
 42 45  1  0  0  0  0
 43 47  1  0  0  0  0
 44 49  1  0  0  0  0
 45 64  1  0  0  0  0
 46 49  1  0  0  0  0
 46 64  1  0  0  0  0
 47 69  1  0  0  0  0
 48 63  1  0  0  0  0
 49 62  1  0  0  0  0
 50 58  1  0  0  0  0
 51 59  1  0  0  0  0
 52 59  1  0  0  0  0
 53 59  1  0  0  0  0
 54 71  1  0  0  0  0
 55 67  1  0  0  0  0
 56 81  1  0  0  0  0
 57 59  1  0  0  0  0
 57 70  1  0  0  0  0
 58 71  1  0  0  0  0
 60 62  1  0  0  0  0
 61 79  1  0  0  0  0
M  CHG  1  71   1
M  ISO  4  37 100  56 101  68 100  81 101
M  END
> <Batch ID>
0162

> <Smiles>
CNC(C)C(=O)NC(C(=O)N1Cc2cc([101O:1][101CH2:1]C(=O)CNc3cc(C(=O)[100NH:0][100C:0](=O)N4CCCC(n5nc(-c6ccc(Oc7ccc(F)cc7F)cc6)c(C(N)=O)c5N)C4)no3)ccc2CC1C(=O)NC1CCCc2ccccc21)C(C)(C)C

> <Shape>
0.207

> <Color>
0.064

> <Negative vol penalty>
0.000

$$$$

  -OEChem-04052303563D

 86 94  0     1  0  0  0  0  0999 V2000
  -28.0757  -26.4668   35.7150 C   0  0  0  0  0  0  0  0  0  0  0  0
  -27.7222  -25.8251   34.5324 C   0  0  0  0  0  0  0  0  0  0  0  0
  -23.2451   -9.6455   20.5604 C   0  0  0  0  0  0  0  0  0  0  0  0
  -23.8574  -10.2292   22.8235 C   0  0  0  0  0  0  0  0  0  0  0  0
  -28.0897  -27.8597   35.7737 C   0  0  0  0  0  0  0  0  0  0  0  0
  -27.3814  -26.5760   33.4080 C   0  0  0  0  0  0  0  0  0  0  0  0
  -29.5506  -24.8326   29.1771 C   0  0  0  0  0  0  0  0  0  0  0  0
  -22.5450   -8.5367   21.0357 C   0  0  0  0  0  0  0  0  0  0  0  0
  -23.1572   -9.1204   23.2989 C   0  0  0  0  0  0  0  0  0  0  0  0
  -28.9809  -23.7049   28.5876 C   0  0  0  0  0  0  0  0  0  0  0  0
  -19.9409   -8.2819   23.9095 C   0  0  0  0  0  0  0  0  0  0  0  0
  -19.1144   -8.4657   25.0179 C   0  0  0  0  0  0  0  0  0  0  0  0
  -27.8556  -25.1169   26.9879 C   0  0  0  0  0  0  0  0  0  0  0  0
  -31.4382  -18.0760   20.9193 C   0  0  0  0  0  0  0  0  0  0  0  0
  -20.4012   -6.8324   26.2482 C   0  0  0  0  0  0  0  0  0  0  0  0
  -23.9014  -10.4917   21.4542 C   0  0  0  0  0  0  0  0  0  0  0  0
  -24.1247  -12.9374   20.7640 C   0  0  0  0  0  0  0  0  0  0  0  0
  -27.7583  -28.6281   34.6466 C   0  0  0  0  0  0  0  0  0  0  0  0
  -29.2679  -26.1139   28.6823 C   0  0  0  0  0  0  0  0  0  0  0  0
  -27.3897  -27.9806   33.4520 C   0  0  0  0  0  0  0  0  0  0  0  0
  -28.4250  -26.2591   27.5712 C   0  0  0  0  0  0  0  0  0  0  0  0
  -31.2695  -19.4227   21.3207 C   0  0  0  0  0  0  0  0  0  0  0  0
  -22.5009   -8.2742   22.4050 C   0  0  0  0  0  0  0  0  0  0  0  0
  -28.1310  -23.8471   27.4947 C   0  0  0  0  0  0  0  0  0  0  0  0
  -20.9975   -7.3733   23.9703 C   0  0  0  0  0  0  0  0  0  0  0  0
  -19.3446   -7.7410   26.1873 C   0  0  0  0  0  0  0  0  0  0  0  0
  -21.2277   -6.6486   25.1397 C   0  0  0  0  0  0  0  0  0  0  0  0
  -24.6253  -11.6369   20.9637 C   0  0  0  0  0  0  0  0  0  0  0  0
  -29.9952  -19.5127   21.8305 C   0  0  0  0  0  0  0  0  0  0  0  0
  -25.1992  -13.6499   20.2904 C   0  0  0  0  0  0  0  0  0  0  0  0
  -30.2549  -17.4389   21.2126 C   0  0  0  0  0  0  0  0  0  0  0  0
  -22.8064  -13.4550   20.9867 C   0  0  0  0  0  0  0  0  0  0  0  0
  -29.2395  -20.6539   22.4082 C   0  0  0  0  0  0  0  0  0  0  0  0
  -27.8929  -28.7232   29.8676 C   0  0  0  0  0  0  0  0  0  0  0  0
  -27.3804  -21.4489   24.8821 C   0  0  0  0  0  0  0  0  0  0  0  0
  -28.8337  -30.0260   27.0497 C   0  0  0  0  0  0  0  0  0  0  0  0
  -29.7027  -29.5489   23.7841 C   0  0  0  0  0  0  0  0  0  0  0  0
  -30.5850  -15.0488   20.4882 C   0  0  0  0  0  0  0  0  0  0  0  0
  -27.7420  -30.1310   34.7719 C   0  0  0  0  0  0  0  0  0  0  0  0
  -29.9115  -27.3184   29.3127 C   0  0  0  0  0  0  0  0  0  0  0  0
  -28.1056  -27.6111   26.9893 C   0  0  0  0  0  0  0  0  0  0  0  0
  -27.7305  -30.8542   33.4276 C   0  0  0  0  0  0  0  0  0  0  0  0
  -29.7432  -12.0887   18.6977 C   0  0  0  0  0  0  0  0  0  0  0  0
  -26.7001  -30.2280   32.4933 C   0  0  0  0  0  0  0  0  0  0  0  0
  -28.2955  -11.8143   19.1112 C   0  0  0  0  0  0  0  0  0  0  0  0
  -30.5682  -12.6456   19.8566 C   0  0  0  0  0  0  0  0  0  0  0  0
  -28.5443  -13.5479   20.9332 C   0  0  0  0  0  0  0  0  0  0  0  0
  -27.0377  -28.7605   32.2038 C   0  0  1  0  0  0  0  0  0  0  0  0
  -29.1471  -28.6118   29.0476 C   0  0  1  0  0  0  0  0  0  0  0  0
  -27.6575  -13.0468   19.7815 C   0  0  2  0  0  0  0  0  0  0  0  0
  -32.2659  -20.5046   21.2112 C   0  0  0  0  0  0  0  0  0  0  0  0
  -25.2509  -20.9727   21.6836 C   0  0  0  0  0  0  0  0  0  0  0  0
  -30.3838  -30.8077   21.7229 C   0  0  0  0  0  0  0  0  0  0  0  0
  -25.9420  -30.9071   26.6352 C   0  0  0  0  0  0  0  0  0  0  0  0
  -26.4775  -31.2875   24.2192 C   0  0  0  0  0  0  0  0  0  0  0  0
  -27.6549  -32.6069   25.9786 C   0  0  0  0  0  0  0  0  0  0  0  0
  -32.3121  -28.1584   23.6565 C   0  0  0  0  0  0  0  0  0  0  0  0
  -27.2888  -22.8211   25.5214 C   0  0  0  0  0  0  0  0  0  1  0  0
  -25.6029  -21.0737   23.1613 C   0  0  0  0  0  0  0  0  0  0  0  0
  -27.0808  -21.3825   23.3907 C   0  0  2  0  0  0  0  0  0  0  0  0
  -28.2205  -30.1613   25.6769 C   0  0  1  0  0  0  0  0  0  0  0  0
  -30.8673  -30.0748   22.9645 C   0  0  2  0  0  0  0  0  0  0  0  0
  -27.0780  -31.2152   25.6394 C   0  0  0  0  0  0  0  0  0  0  0  0
  -25.9173  -11.5268   20.6431 N   0  0  0  0  0  0  0  0  0  0  0  0
  -26.2375  -12.7672   20.2370 N   0  0  0  0  0  0  0  0  0  0  0  0
  -28.7544  -28.7588   27.6446 N   0  0  0  0  0  0  0  0  0  0  0  0
  -29.9046  -13.8138   20.4395 N   0  0  0  0  0  0  0  0  0  0  0  0
  -25.3476  -14.9391   19.9185 N   0  0  0  0  0  0  0  0  0  0  0  0
  -21.8214  -12.5865   21.4764 N   0  0  0  0  0  0  0  0  0  0  0  0
  -29.8423  -16.0952   21.0342 N   0  0  0  0  0  0  0  0  0  0  0  0
  -27.9463  -20.3767   22.8321 N   0  0  0  0  0  0  0  0  0  0  0  0
  -28.1061  -28.6700   31.2318 N   0  0  0  0  0  0  0  0  0  0  0  0
  -29.3227  -30.4422   24.7634 N   0  0  0  0  0  0  0  0  0  0  0  0
  -31.7470  -28.9514   22.5345 N   0  3  0  0  0  0  0  0  0  0  0  0
  -22.5063  -14.6483   20.7426 O   0  0  0  0  0  0  0  0  0  0  0  0
  -29.7714  -21.7596   22.4625 O   0  0  0  0  0  0  0  0  0  0  0  0
  -26.8120  -28.8497   29.3043 O   0  0  0  0  0  0  0  0  0  0  0  0
  -27.6475  -20.4438   25.5414 O   0  0  0  0  0  0  0  0  0  0  0  0
  -29.3698  -31.0065   27.5719 O   0  0  0  0  0  0  0  0  0  0  0  0
  -29.1797  -28.4567   23.5741 O   0  0  0  0  0  0  0  0  0  0  0  0
  -31.7317  -15.1757   20.0511 O   0  0  0  0  0  0  0  0  0  0  0  0
  -29.3700  -18.3077   21.7684 O   0  0  0  0  0  0  0  0  0  0  0  0
  -21.8176   -7.1925   22.8692 O   0  0  0  0  0  0  0  0  0  0  0  0
  -27.5732  -22.7480   26.9179 O   0  0  0  0  0  0  0  0  0  1  0  0
  -18.5518   -7.9188   27.2522 F   0  0  0  0  0  0  0  0  0  0  0  0
  -22.2419   -5.7751   25.2045 F   0  0  0  0  0  0  0  0  0  0  0  0
  1  2  1  0  0  0  0
  1  5  2  0  0  0  0
  2  6  2  0  0  0  0
  3  8  2  0  0  0  0
  3 16  1  0  0  0  0
  4  9  1  0  0  0  0
  4 16  2  0  0  0  0
  5 18  1  0  0  0  0
  6 20  1  0  0  0  0
  7 10  2  0  0  0  0
  7 19  1  0  0  0  0
  8 23  1  0  0  0  0
  9 23  2  0  0  0  0
 10 24  1  0  0  0  0
 11 12  2  0  0  0  0
 11 25  1  0  0  0  0
 12 26  1  0  0  0  0
 13 21  1  0  0  0  0
 13 24  2  0  0  0  0
 14 22  1  0  0  0  0
 14 31  2  0  0  0  0
 15 26  2  0  0  0  0
 15 27  1  0  0  0  0
 16 28  1  0  0  0  0
 17 28  1  0  0  0  0
 17 30  2  0  0  0  0
 17 32  1  0  0  0  0
 18 20  2  0  0  0  0
 18 39  1  0  0  0  0
 19 21  2  0  0  0  0
 19 40  1  0  0  0  0
 20 48  1  0  0  0  0
 21 41  1  0  0  0  0
 22 29  2  0  0  0  0
 22 51  1  0  0  0  0
 23 83  1  0  0  0  0
 24 84  1  0  0  0  0
 25 27  2  0  0  0  0
 25 83  1  0  0  0  0
 26 85  1  0  0  0  0
 27 86  1  0  0  0  0
 28 64  2  0  0  0  0
 29 33  1  0  0  0  0
 29 82  1  0  0  0  0
 30 65  1  0  0  0  0
 30 68  1  0  0  0  0
 31 70  1  0  0  0  0
 31 82  1  0  0  0  0
 32 69  1  0  0  0  0
 32 75  2  0  0  0  0
 33 71  1  0  0  0  0
 33 76  2  0  0  0  0
 34 49  1  0  0  0  0
 34 72  1  0  0  0  0
 34 77  2  0  0  0  0
 35 58  1  0  0  0  0
 35 60  1  0  0  0  0
 35 78  2  0  0  0  0
 36 61  1  0  0  0  0
 36 66  1  0  0  0  0
 36 79  2  0  0  0  0
 37 62  1  0  0  0  0
 37 73  1  0  0  0  0
 37 80  2  0  0  0  0
 38 67  1  0  0  0  0
 38 70  1  0  0  0  0
 38 81  2  0  0  0  0
 39 42  1  0  0  0  0
 40 49  1  0  0  0  0
 41 66  1  0  0  0  0
 42 44  1  0  0  0  0
 43 45  1  0  0  0  0
 43 46  1  0  0  0  0
 44 48  1  0  0  0  0
 45 50  1  0  0  0  0
 46 67  1  0  0  0  0
 47 50  1  0  0  0  0
 47 67  1  0  0  0  0
 48 72  1  0  0  0  0
 49 66  1  0  0  0  0
 50 65  1  0  0  0  0
 52 59  1  0  0  0  0
 53 62  1  0  0  0  0
 54 63  1  0  0  0  0
 55 63  1  0  0  0  0
 56 63  1  0  0  0  0
 57 74  1  0  0  0  0
 58 84  1  0  0  0  0
 59 60  1  0  0  0  0
 60 71  1  0  0  0  0
 61 63  1  0  0  0  0
 61 73  1  0  0  0  0
 62 74  1  0  0  0  0
 64 65  1  0  0  0  0
M  CHG  1  74   1
M  ISO  4  38 100  58 101  70 100  84 101
M  END
> <Batch ID>
0162

> <Smiles>
CCC(NC(=O)c1oc([100NH:0][100C:0](=O)N2CCCC(n3nc(-c4ccc(Oc5ccc(F)cc5F)cc4)c(C(N)=O)c3N)C2)cc1C)C(=O)[101CH2:1][101O:1]c1ccc2c(c1)CN(C(=O)C(NC(=O)C(C)NC)C(C)(C)C)C(C(=O)NC1CCCc3ccccc31)C2

> <Shape>
0.201

> <Color>
0.166

> <Negative vol penalty>
0.000

$$$$

  -OEChem-04052303563D

 89 97  0     1  0  0  0  0  0999 V2000
  -31.3287  -25.2897   17.3557 C   0  0  0  0  0  0  0  0  0  0  0  0
  -29.9964  -24.9015   17.4396 C   0  0  0  0  0  0  0  0  0  0  0  0
  -27.1277  -19.0804   24.4279 C   0  0  0  0  0  0  0  0  0  0  0  0
  -26.1673  -12.6515   21.5551 C   0  0  0  0  0  0  0  0  0  0  0  0
  -25.6390  -13.1078   19.2422 C   0  0  0  0  0  0  0  0  0  0  0  0
  -27.7855  -19.3737   23.2334 C   0  0  0  0  0  0  0  0  0  0  0  0
  -31.8436  -26.2033   18.2730 C   0  0  0  0  0  0  0  0  0  0  0  0
  -29.1754  -25.4357   18.4333 C   0  0  0  0  0  0  0  0  0  0  0  0
  -24.3881  -24.3233   18.2142 C   0  0  0  0  0  0  0  0  0  0  0  0
  -25.9576  -18.3214   24.4116 C   0  0  0  0  0  0  0  0  0  0  0  0
  -24.8168  -12.7628   21.8856 C   0  0  0  0  0  0  0  0  0  0  0  0
  -24.2884  -13.2191   19.5727 C   0  0  0  0  0  0  0  0  0  0  0  0
  -23.8944  -23.0550   18.5167 C   0  0  0  0  0  0  0  0  0  0  0  0
  -21.7042  -11.1393   20.2183 C   0  0  0  0  0  0  0  0  0  0  0  0
  -20.7812  -10.4998   19.3907 C   0  0  0  0  0  0  0  0  0  0  0  0
  -26.1030  -18.1490   22.0061 C   0  0  0  0  0  0  0  0  0  0  0  0
  -23.1285  -23.8695   20.6542 C   0  0  0  0  0  0  0  0  0  0  0  0
  -19.7336  -12.6248   18.9171 C   0  0  0  0  0  0  0  0  0  0  0  0
  -26.5784  -12.8241   20.2334 C   0  0  0  0  0  0  0  0  0  0  0  0
  -27.2732  -18.9080   22.0225 C   0  0  0  0  0  0  0  0  0  0  0  0
  -28.6610  -11.5440   19.5041 C   0  0  0  0  0  0  0  0  0  0  0  0
  -31.0310  -26.7390   19.2858 C   0  0  0  0  0  0  0  0  0  0  0  0
  -24.2652  -25.3733   19.1355 C   0  0  0  0  0  0  0  0  0  0  0  0
  -29.6702  -26.3772   19.3537 C   0  0  0  0  0  0  0  0  0  0  0  0
  -23.6192  -25.1508   20.3600 C   0  0  0  0  0  0  0  0  0  0  0  0
  -25.4452  -17.8557   23.2007 C   0  0  0  0  0  0  0  0  0  0  0  0
  -23.8773  -13.0466   20.8944 C   0  0  0  0  0  0  0  0  0  0  0  0
  -23.2671  -22.8272   19.7380 C   0  0  0  0  0  0  0  0  0  0  0  0
  -21.6418  -12.5215   20.3953 C   0  0  0  0  0  0  0  0  0  0  0  0
  -19.7960  -11.2425   18.7401 C   0  0  0  0  0  0  0  0  0  0  0  0
  -20.6566  -13.2642   19.7447 C   0  0  0  0  0  0  0  0  0  0  0  0
  -27.9735  -12.7098   19.8914 C   0  0  0  0  0  0  0  0  0  0  0  0
  -29.9520  -11.9617   19.2907 C   0  0  0  0  0  0  0  0  0  0  0  0
  -27.9662  -19.2176   20.7634 C   0  0  0  0  0  0  0  0  0  0  0  0
  -28.1762  -10.2034   19.3509 C   0  0  0  0  0  0  0  0  0  0  0  0
  -26.3120  -27.2101   20.7293 C   0  0  0  0  0  0  0  0  0  0  0  0
  -23.1116  -17.6756   23.0726 C   0  0  0  0  0  0  0  0  0  0  0  0
  -22.9019  -19.7023   21.5470 C   0  0  0  0  0  0  0  0  0  0  0  0
  -23.6101  -28.7522   21.6477 C   0  0  0  0  0  0  0  0  0  0  0  0
  -20.2374  -28.6346   22.1555 C   0  0  0  0  0  0  0  0  0  0  0  0
  -29.4209  -17.1644   20.8187 C   0  0  0  0  0  0  0  0  0  0  0  0
  -31.6378  -27.7301   20.2475 C   0  0  0  0  0  0  0  0  0  0  0  0
  -24.7793  -26.7422   18.7831 C   0  0  0  0  0  0  0  0  0  0  0  0
  -23.4438  -26.2495   21.3752 C   0  0  0  0  0  0  0  0  0  0  0  0
  -30.8186  -27.8990   21.5229 C   0  0  0  0  0  0  0  0  0  0  0  0
  -31.8875  -16.2115   18.0470 C   0  0  0  0  0  0  0  0  0  0  0  0
  -29.3567  -28.1353   21.1741 C   0  0  0  0  0  0  0  0  0  0  0  0
  -31.3385  -14.7895   18.0376 C   0  0  0  0  0  0  0  0  0  0  0  0
  -30.9344  -17.1428   18.7917 C   0  0  0  0  0  0  0  0  0  0  0  0
  -31.0811  -15.3617   20.5330 C   0  0  0  0  0  0  0  0  0  0  0  0
  -28.7662  -26.9218   20.4449 C   0  0  1  0  0  0  0  0  0  0  0  0
  -25.0565  -27.6097   20.0071 C   0  0  1  0  0  0  0  0  0  0  0  0
  -31.1441  -14.2473   19.4687 C   0  0  1  0  0  0  0  0  0  0  0  0
  -21.8828  -16.7976   23.0883 C   0  0  0  0  0  0  0  0  0  0  0  0
  -18.3142  -30.0392   22.9468 C   0  0  0  0  0  0  0  0  0  0  0  0
  -29.3092  -21.7141   19.1907 C   0  0  0  0  0  0  0  0  0  0  0  0
  -27.0246  -21.5679   18.1350 C   0  0  0  0  0  0  0  0  0  0  0  0
  -24.5260  -28.3761   24.5338 C   0  0  0  0  0  0  0  0  0  0  0  0
  -22.1948  -28.9152   25.2706 C   0  0  0  0  0  0  0  0  0  0  0  0
  -23.5364  -30.6185   24.0373 C   0  0  0  0  0  0  0  0  0  0  0  0
  -18.8591  -28.4248   19.5450 C   0  0  0  0  0  0  0  0  0  0  0  0
  -22.8814  -19.1724   22.9660 C   0  0  0  0  0  0  0  0  0  0  0  0
  -22.7609  -21.2038   21.4006 C   0  0  0  0  0  0  0  0  0  1  0  0
  -22.6351  -28.6115   22.7917 C   0  0  1  0  0  0  0  0  0  0  0  0
  -19.1232  -29.5798   21.7438 C   0  0  2  0  0  0  0  0  0  0  0  0
  -28.1185  -20.8230   18.8810 C   0  0  0  0  0  0  0  0  0  0  0  0
  -23.2280  -29.1089   24.1402 C   0  0  0  0  0  0  0  0  0  0  0  0
  -28.7623  -13.7871   19.9233 N   0  0  0  0  0  0  0  0  0  0  0  0
  -24.2717  -17.0951   23.1844 N   0  0  0  0  0  0  0  0  0  0  0  0
  -29.9590  -13.3000   19.5533 N   0  0  0  0  0  0  0  0  0  0  0  0
  -23.9690  -27.5690   20.9868 N   0  0  0  0  0  0  0  0  0  0  0  0
  -30.4293  -16.5786   20.0485 N   0  0  0  0  0  0  0  0  0  0  0  0
  -31.0705  -11.3110   18.9061 N   0  0  0  0  0  0  0  0  0  0  0  0
  -26.8227   -9.9487   19.6106 N   0  0  0  0  0  0  0  0  0  0  0  0
  -28.9163  -18.4086   20.2685 N   0  0  0  0  0  0  0  0  0  0  0  0
  -27.4512  -27.2631   19.9489 N   0  0  0  0  0  0  0  0  0  0  0  0
  -21.4202  -29.3066   22.3805 N   0  0  0  0  0  0  0  0  0  0  0  0
  -27.5650  -20.3396   20.1485 N   0  3  0  0  0  0  0  0  0  0  0  0
  -18.2005  -28.9070   20.7862 N   0  3  0  0  0  0  0  0  0  0  0  0
  -28.9247   -9.2563   19.0101 O   0  0  0  0  0  0  0  0  0  0  0  0
  -26.2520  -26.8798   21.9079 O   0  0  0  0  0  0  0  0  0  0  0  0
  -23.0363  -18.9638   20.5724 O   0  0  0  0  0  0  0  0  0  0  0  0
  -24.0320  -29.8717   21.3470 O   0  0  0  0  0  0  0  0  0  0  0  0
  -20.0738  -27.4219   22.2701 O   0  0  0  0  0  0  0  0  0  0  0  0
  -28.9780  -16.7188   21.8708 O   0  0  0  0  0  0  0  0  0  0  0  0
  -22.5594  -13.1550   21.2165 O   0  0  0  0  0  0  0  0  0  0  0  0
  -22.7799  -21.5773   20.0391 O   0  0  0  0  0  0  0  0  0  1  0  0
  -18.9107  -10.6285   17.9443 F   0  0  0  0  0  0  0  0  0  0  0  0
  -20.5924  -14.5925   19.9099 F   0  0  0  0  0  0  0  0  0  0  0  0
  1  2  1  0  0  0  0
  1  7  2  0  0  0  0
  2  8  2  0  0  0  0
  3  6  1  0  0  0  0
  3 10  2  0  0  0  0
  4 11  2  0  0  0  0
  4 19  1  0  0  0  0
  5 12  1  0  0  0  0
  5 19  2  0  0  0  0
  6 20  2  0  0  0  0
  7 22  1  0  0  0  0
  8 24  1  0  0  0  0
  9 13  2  0  0  0  0
  9 23  1  0  0  0  0
 10 26  1  0  0  0  0
 11 27  1  0  0  0  0
 12 27  2  0  0  0  0
 13 28  1  0  0  0  0
 14 15  2  0  0  0  0
 14 29  1  0  0  0  0
 15 30  1  0  0  0  0
 16 20  1  0  0  0  0
 16 26  2  0  0  0  0
 17 25  1  0  0  0  0
 17 28  2  0  0  0  0
 18 30  2  0  0  0  0
 18 31  1  0  0  0  0
 19 32  1  0  0  0  0
 20 34  1  0  0  0  0
 21 32  1  0  0  0  0
 21 33  2  0  0  0  0
 21 35  1  0  0  0  0
 22 24  2  0  0  0  0
 22 42  1  0  0  0  0
 23 25  2  0  0  0  0
 23 43  1  0  0  0  0
 24 51  1  0  0  0  0
 25 44  1  0  0  0  0
 26 69  1  0  0  0  0
 27 86  1  0  0  0  0
 28 87  1  0  0  0  0
 29 31  2  0  0  0  0
 29 86  1  0  0  0  0
 30 88  1  0  0  0  0
 31 89  1  0  0  0  0
 32 68  2  0  0  0  0
 33 70  1  0  0  0  0
 33 73  1  0  0  0  0
 34 75  1  0  0  0  0
 34 78  2  0  0  0  0
 35 74  1  0  0  0  0
 35 80  2  0  0  0  0
 36 52  1  0  0  0  0
 36 76  1  0  0  0  0
 36 81  2  0  0  0  0
 37 54  1  0  0  0  0
 37 62  1  0  0  0  0
 37 69  2  0  0  0  0
 38 62  1  0  0  0  0
 38 63  1  0  0  0  0
 38 82  2  0  0  0  0
 39 64  1  0  0  0  0
 39 71  1  0  0  0  0
 39 83  2  0  0  0  0
 40 65  1  0  0  0  0
 40 77  1  0  0  0  0
 40 84  2  0  0  0  0
 41 72  1  0  0  0  0
 41 75  1  0  0  0  0
 41 85  2  0  0  0  0
 42 45  1  0  0  0  0
 43 52  1  0  0  0  0
 44 71  1  0  0  0  0
 45 47  1  0  0  0  0
 46 48  1  0  0  0  0
 46 49  1  0  0  0  0
 47 51  1  0  0  0  0
 48 53  1  0  0  0  0
 49 72  1  0  0  0  0
 50 53  1  0  0  0  0
 50 72  1  0  0  0  0
 51 76  1  0  0  0  0
 52 71  1  0  0  0  0
 53 70  1  0  0  0  0
 55 65  1  0  0  0  0
 56 66  1  0  0  0  0
 57 66  1  0  0  0  0
 58 67  1  0  0  0  0
 59 67  1  0  0  0  0
 60 67  1  0  0  0  0
 61 79  1  0  0  0  0
 63 87  1  0  0  0  0
 64 67  1  0  0  0  0
 64 77  1  0  0  0  0
 65 79  1  0  0  0  0
 66 78  1  0  0  0  0
 68 70  1  0  0  0  0
M  CHG  2  78   1  79   1
M  ISO  4  41 100  63 101  75 100  87 101
M  END
> <Batch ID>
0162

> <Smiles>
CNC(C)C(=O)NC(C(=O)N1Cc2cc([101O:1][101CH2:1]C(=O)C=C(C)Nc3cccc(C(=NC(C)C)[100NH:0][100C:0](=O)N4CCCC(n5nc(-c6ccc(Oc7ccc(F)cc7F)cc6)c(C(N)=O)c5N)C4)c3)ccc2CC1C(=O)NC1CCCc2ccccc21)C(C)(C)C

> <Shape>
0.259

> <Color>
0.054

> <Negative vol penalty>
0.000

$$$$

  -OEChem-04052303563D

 78 86  0     1  0  0  0  0  0999 V2000
  -35.1331  -25.4002   19.7673 C   0  0  0  0  0  0  0  0  0  0  0  0
  -34.3296  -26.1823   18.9453 C   0  0  0  0  0  0  0  0  0  0  0  0
  -29.5058  -20.4643   20.8064 C   0  0  0  0  0  0  0  0  0  0  0  0
  -27.4638  -19.2484   21.2408 C   0  0  0  0  0  0  0  0  0  0  0  0
  -34.5891  -24.8014   20.9016 C   0  0  0  0  0  0  0  0  0  0  0  0
  -32.9850  -26.3757   19.2638 C   0  0  0  0  0  0  0  0  0  0  0  0
  -25.5504  -29.0784   18.4604 C   0  0  0  0  0  0  0  0  0  0  0  0
  -30.1711  -19.2618   20.5679 C   0  0  0  0  0  0  0  0  0  0  0  0
  -28.1291  -18.0458   21.0021 C   0  0  0  0  0  0  0  0  0  0  0  0
  -24.2362  -28.8585   18.8707 C   0  0  0  0  0  0  0  0  0  0  0  0
  -29.1526  -16.2561   18.3245 C   0  0  0  0  0  0  0  0  0  0  0  0
  -28.5120  -15.3107   17.5236 C   0  0  0  0  0  0  0  0  0  0  0  0
  -24.9334  -29.0275   21.1738 C   0  0  0  0  0  0  0  0  0  0  0  0
  -28.5589  -13.7310   19.3511 C   0  0  0  0  0  0  0  0  0  0  0  0
  -28.1521  -20.4576   21.1430 C   0  0  0  0  0  0  0  0  0  0  0  0
  -27.2985  -22.7723   20.4938 C   0  0  0  0  0  0  0  0  0  0  0  0
  -33.2341  -24.9779   21.2267 C   0  0  0  0  0  0  0  0  0  0  0  0
  -26.5695  -29.2639   19.4056 C   0  0  0  0  0  0  0  0  0  0  0  0
  -32.4231  -25.7993   20.4173 C   0  0  0  0  0  0  0  0  0  0  0  0
  -26.2592  -29.2521   20.7729 C   0  0  0  0  0  0  0  0  0  0  0  0
  -29.4828  -18.0526   20.6657 C   0  0  0  0  0  0  0  0  0  0  0  0
  -23.9280  -28.8301   20.2276 C   0  0  0  0  0  0  0  0  0  0  0  0
  -29.4964  -15.9390   19.6386 C   0  0  0  0  0  0  0  0  0  0  0  0
  -28.2152  -14.0481   18.0369 C   0  0  0  0  0  0  0  0  0  0  0  0
  -29.1995  -14.6764   20.1519 C   0  0  0  0  0  0  0  0  0  0  0  0
  -27.4644  -21.6994   21.3901 C   0  0  0  0  0  0  0  0  0  0  0  0
  -26.5804  -23.7040   21.2028 C   0  0  0  0  0  0  0  0  0  0  0  0
  -27.7528  -22.9139   19.1413 C   0  0  0  0  0  0  0  0  0  0  0  0
  -29.2393  -27.7123   20.1595 C   0  0  0  0  0  0  0  0  0  0  0  0
  -29.6930  -30.2468   22.1325 C   0  0  0  0  0  0  0  0  0  0  0  0
  -27.6735  -32.2525   24.3498 C   0  0  0  0  0  0  0  0  0  0  0  0
  -22.3873  -25.0327   24.6376 C   0  0  0  0  0  0  0  0  0  0  0  0
  -32.6992  -24.3130   22.4705 C   0  0  0  0  0  0  0  0  0  0  0  0
  -27.9775  -29.5266   18.9463 C   0  0  0  0  0  0  0  0  0  0  0  0
  -27.3133  -29.4661   21.8272 C   0  0  0  0  0  0  0  0  0  0  0  0
  -31.1775  -24.2107   22.4824 C   0  0  0  0  0  0  0  0  0  0  0  0
  -18.6328  -27.4110   21.5890 C   0  0  0  0  0  0  0  0  0  0  0  0
  -18.4168  -26.6145   22.8703 C   0  0  0  0  0  0  0  0  0  0  0  0
  -25.4276  -23.9249   26.1230 C   0  0  0  0  0  0  0  0  0  0  0  0
  -30.5631  -25.5611   22.1454 C   0  0  0  0  0  0  0  0  0  0  0  0
  -19.9746  -28.1373   21.6011 C   0  0  0  0  0  0  0  0  0  0  0  0
  -26.2115  -23.3304   24.9517 C   0  0  0  0  0  0  0  0  0  0  0  0
  -19.5672  -25.6448   23.1249 C   0  0  0  0  0  0  0  0  0  0  0  0
  -23.9305  -23.6515   25.9968 C   0  0  0  0  0  0  0  0  0  0  0  0
  -24.1140  -23.4765   23.5454 C   0  0  0  0  0  0  0  0  0  0  0  0
  -30.9505  -25.9987   20.7272 C   0  0  1  0  0  0  0  0  0  0  0  0
  -29.0237  -29.1912   20.0047 C   0  0  1  0  0  0  0  0  0  0  0  0
  -21.1478  -27.1743   21.8491 C   0  0  2  0  0  0  0  0  0  0  0  0
  -25.6222  -23.7746   23.5995 C   0  0  2  0  0  0  0  0  0  0  0  0
  -20.9205  -26.3643   23.1429 C   0  0  2  0  0  0  0  0  0  0  0  0
  -27.9480  -34.6302   25.1037 C   0  0  0  0  0  0  0  0  0  0  0  0
  -31.1412  -29.0178   24.5204 C   0  0  0  0  0  0  0  0  0  0  0  0
  -30.0666  -30.7494   25.9747 C   0  0  0  0  0  0  0  0  0  0  0  0
  -31.6167  -31.4447   24.1481 C   0  0  0  0  0  0  0  0  0  0  0  0
  -24.9571  -32.9805   23.4277 C   0  0  0  0  0  0  0  0  0  0  0  0
  -22.4611  -27.9613   21.8856 C   0  0  0  0  0  0  0  0  0  1  0  0
  -29.3182  -30.5724   23.5581 C   0  0  1  0  0  0  0  0  0  0  0  0
  -27.2443  -33.6927   24.1349 C   0  0  2  0  0  0  0  0  0  0  0  0
  -30.5198  -30.4287   24.5343 C   0  0  0  0  0  0  0  0  0  0  0  0
  -26.8975  -21.9273   22.5778 N   0  0  0  0  0  0  0  0  0  0  0  0
  -26.3683  -23.1542   22.4328 N   0  0  0  0  0  0  0  0  0  0  0  0
  -28.6762  -29.7129   21.3281 N   0  0  0  0  0  0  0  0  0  0  0  0
  -23.4338  -24.0974   24.6928 N   0  0  0  0  0  0  0  0  0  0  0  0
  -26.1159  -24.9318   20.8878 N   0  0  0  0  0  0  0  0  0  0  0  0
  -26.9144  -22.4790   18.1059 N   0  0  0  0  0  0  0  0  0  0  0  0
  -30.5269  -27.3664   20.5229 N   0  0  0  0  0  0  0  0  0  0  0  0
  -28.7270  -31.9059   23.5304 N   0  0  0  0  0  0  0  0  0  0  0  0
  -21.9812  -25.4065   23.3625 N   0  0  0  0  0  0  0  0  0  0  0  0
  -25.7736  -33.8299   24.3326 N   0  3  0  0  0  0  0  0  0  0  0  0
  -28.8761  -23.3963   18.8602 O   0  0  0  0  0  0  0  0  0  0  0  0
  -28.3062  -26.9421   19.9652 O   0  0  0  0  0  0  0  0  0  0  0  0
  -30.8434  -30.4651   21.7447 O   0  0  0  0  0  0  0  0  0  0  0  0
  -27.1311  -31.5105   25.1657 O   0  0  0  0  0  0  0  0  0  0  0  0
  -21.8580  -25.5041   25.6499 O   0  0  0  0  0  0  0  0  0  0  0  0
  -30.1316  -16.8790   20.4327 O   0  0  0  0  0  0  0  0  0  0  0  0
  -22.6462  -28.6151   20.6308 O   0  0  0  0  0  0  0  0  0  1  0  0
  -27.5987  -13.1408   17.2682 F   0  0  0  0  0  0  0  0  0  0  0  0
  -29.5263  -14.3664   21.4140 F   0  0  0  0  0  0  0  0  0  0  0  0
  1  2  1  0  0  0  0
  1  5  2  0  0  0  0
  2  6  2  0  0  0  0
  3  8  2  0  0  0  0
  3 15  1  0  0  0  0
  4  9  1  0  0  0  0
  4 15  2  0  0  0  0
  5 17  1  0  0  0  0
  6 19  1  0  0  0  0
  7 10  2  0  0  0  0
  7 18  1  0  0  0  0
  8 21  1  0  0  0  0
  9 21  2  0  0  0  0
 10 22  1  0  0  0  0
 11 12  2  0  0  0  0
 11 23  1  0  0  0  0
 12 24  1  0  0  0  0
 13 20  1  0  0  0  0
 13 22  2  0  0  0  0
 14 24  2  0  0  0  0
 14 25  1  0  0  0  0
 15 26  1  0  0  0  0
 16 26  1  0  0  0  0
 16 27  2  0  0  0  0
 16 28  1  0  0  0  0
 17 19  2  0  0  0  0
 17 33  1  0  0  0  0
 18 20  2  0  0  0  0
 18 34  1  0  0  0  0
 19 46  1  0  0  0  0
 20 35  1  0  0  0  0
 21 75  1  0  0  0  0
 22 76  1  0  0  0  0
 23 25  2  0  0  0  0
 23 75  1  0  0  0  0
 24 77  1  0  0  0  0
 25 78  1  0  0  0  0
 26 60  2  0  0  0  0
 27 61  1  0  0  0  0
 27 64  1  0  0  0  0
 28 65  1  0  0  0  0
 28 70  2  0  0  0  0
 29 47  1  0  0  0  0
 29 66  1  0  0  0  0
 29 71  2  0  0  0  0
 30 57  1  0  0  0  0
 30 62  1  0  0  0  0
 30 72  2  0  0  0  0
 31 58  1  0  0  0  0
 31 67  1  0  0  0  0
 31 73  2  0  0  0  0
 32 63  1  0  0  0  0
 32 68  1  0  0  0  0
 32 74  2  0  0  0  0
 33 36  1  0  0  0  0
 34 47  1  0  0  0  0
 35 62  1  0  0  0  0
 36 40  1  0  0  0  0
 37 38  1  0  0  0  0
 37 41  1  0  0  0  0
 38 43  1  0  0  0  0
 39 42  1  0  0  0  0
 39 44  1  0  0  0  0
 40 46  1  0  0  0  0
 41 48  1  0  0  0  0
 42 49  1  0  0  0  0
 43 50  1  0  0  0  0
 44 63  1  0  0  0  0
 45 49  1  0  0  0  0
 45 63  1  0  0  0  0
 46 66  1  0  0  0  0
 47 62  1  0  0  0  0
 48 50  1  0  0  0  0
 48 56  1  0  0  0  0
 49 61  1  0  0  0  0
 50 68  1  0  0  0  0
 51 58  1  0  0  0  0
 52 59  1  0  0  0  0
 53 59  1  0  0  0  0
 54 59  1  0  0  0  0
 55 69  1  0  0  0  0
 56 76  1  0  0  0  0
 57 59  1  0  0  0  0
 57 67  1  0  0  0  0
 58 69  1  0  0  0  0
 60 61  1  0  0  0  0
M  CHG  1  69   1
M  ISO  4  32 100  56 101  68 100  76 101
M  END
> <Batch ID>
0162

> <Smiles>
CNC(C)C(=O)NC(C(=O)N1Cc2cc([101O:1][101CH2:1]C3CCCCC3[100NH:0][100C:0](=O)N3CCCC(n4nc(-c5ccc(Oc6ccc(F)cc6F)cc5)c(C(N)=O)c4N)C3)ccc2CC1C(=O)NC1CCCc2ccccc21)C(C)(C)C

> <Shape>
0.219

> <Color>
0.078

> <Negative vol penalty>
0.000

$$$$

  -OEChem-04052303563D

 82 90  0     1  0  0  0  0  0999 V2000
  -31.4500  -33.9949   21.2722 C   0  0  0  0  0  0  0  0  0  0  0  0
  -31.2580  -32.6565   20.9449 C   0  0  0  0  0  0  0  0  0  0  0  0
  -22.8929  -10.2018   19.9275 C   0  0  0  0  0  0  0  0  0  0  0  0
  -23.9090   -9.7320   22.0685 C   0  0  0  0  0  0  0  0  0  0  0  0
  -30.6164  -34.6095   22.2057 C   0  0  0  0  0  0  0  0  0  0  0  0
  -30.2331  -31.9315   21.5517 C   0  0  0  0  0  0  0  0  0  0  0  0
  -26.8619  -27.4928   19.0143 C   0  0  0  0  0  0  0  0  0  0  0  0
  -22.0895   -9.0693   20.0602 C   0  0  0  0  0  0  0  0  0  0  0  0
  -23.1056   -8.5995   22.2012 C   0  0  0  0  0  0  0  0  0  0  0  0
  -26.9451  -26.1023   19.0723 C   0  0  0  0  0  0  0  0  0  0  0  0
  -19.9130   -7.8991   23.0599 C   0  0  0  0  0  0  0  0  0  0  0  0
  -19.2949   -7.6857   24.2919 C   0  0  0  0  0  0  0  0  0  0  0  0
  -25.3071  -26.0842   20.8431 C   0  0  0  0  0  0  0  0  0  0  0  0
  -20.4476   -5.5730   24.5043 C   0  0  0  0  0  0  0  0  0  0  0  0
  -31.8899  -18.2251   20.4666 C   0  0  0  0  0  0  0  0  0  0  0  0
  -23.8027  -10.5332   20.9316 C   0  0  0  0  0  0  0  0  0  0  0  0
  -24.3368  -13.0106   21.2228 C   0  0  0  0  0  0  0  0  0  0  0  0
  -29.5746  -33.8944   22.8172 C   0  0  0  0  0  0  0  0  0  0  0  0
  -26.0073  -28.1914   19.8792 C   0  0  0  0  0  0  0  0  0  0  0  0
  -29.3856  -32.5368   22.4953 C   0  0  0  0  0  0  0  0  0  0  0  0
  -25.2129  -27.4833   20.7924 C   0  0  0  0  0  0  0  0  0  0  0  0
  -22.1959   -8.2682   21.1971 C   0  0  0  0  0  0  0  0  0  0  0  0
  -26.1698  -25.3980   19.9887 C   0  0  0  0  0  0  0  0  0  0  0  0
  -20.7984   -6.9494   22.5500 C   0  0  0  0  0  0  0  0  0  0  0  0
  -19.5622   -6.5227   25.0141 C   0  0  0  0  0  0  0  0  0  0  0  0
  -21.0657   -5.7864   23.2722 C   0  0  0  0  0  0  0  0  0  0  0  0
  -24.6332  -11.7026   20.7948 C   0  0  0  0  0  0  0  0  0  0  0  0
  -31.1635  -17.5145   21.3896 C   0  0  0  0  0  0  0  0  0  0  0  0
  -25.4384  -13.7476   20.8626 C   0  0  0  0  0  0  0  0  0  0  0  0
  -30.1220  -19.3008   20.8413 C   0  0  0  0  0  0  0  0  0  0  0  0
  -23.1701  -13.5143   21.8866 C   0  0  0  0  0  0  0  0  0  0  0  0
  -26.4140  -30.3663   22.1613 C   0  0  0  0  0  0  0  0  0  0  0  0
  -27.7015  -22.1397   20.4361 C   0  0  0  0  0  0  0  0  0  0  0  0
  -23.1707  -30.4191   22.1483 C   0  0  0  0  0  0  0  0  0  0  0  0
  -20.2495  -28.7999   21.4472 C   0  0  0  0  0  0  0  0  0  0  0  0
  -30.9731  -14.3801   20.5260 C   0  0  0  0  0  0  0  0  0  0  0  0
  -28.7291  -34.5886   23.8553 C   0  0  0  0  0  0  0  0  0  0  0  0
  -25.9092  -29.6894   19.7858 C   0  0  0  0  0  0  0  0  0  0  0  0
  -24.2646  -28.1847   21.7290 C   0  0  0  0  0  0  0  0  0  0  0  0
  -27.4305  -33.8526   24.1749 C   0  0  0  0  0  0  0  0  0  0  0  0
  -29.3750  -12.5595   17.9167 C   0  0  0  0  0  0  0  0  0  0  0  0
  -27.6974  -32.3653   24.3837 C   0  0  0  0  0  0  0  0  0  0  0  0
  -27.9774  -12.2770   18.4706 C   0  0  0  0  0  0  0  0  0  0  0  0
  -30.4391  -12.4950   19.0101 C   0  0  0  0  0  0  0  0  0  0  0  0
  -28.7764  -13.0661   20.7373 C   0  0  0  0  0  0  0  0  0  0  0  0
  -28.2691  -31.7237   23.1137 C   0  0  1  0  0  0  0  0  0  0  0  0
  -25.3865  -30.3349   21.0655 C   0  0  1  0  0  0  0  0  0  0  0  0
  -27.6624  -13.1750   19.6821 C   0  0  2  0  0  0  0  0  0  0  0  0
  -17.7596  -29.0826   21.5798 C   0  0  0  0  0  0  0  0  0  0  0  0
  -23.2749  -29.9050   25.1541 C   0  0  0  0  0  0  0  0  0  0  0  0
  -20.8577  -29.2600   25.0571 C   0  0  0  0  0  0  0  0  0  0  0  0
  -21.5550  -31.5743   24.4403 C   0  0  0  0  0  0  0  0  0  0  0  0
  -19.9479  -28.5466   18.5139 C   0  0  0  0  0  0  0  0  0  0  0  0
  -31.3588  -16.2520   22.1091 C   0  0  0  0  0  0  0  0  0  0  0  0
  -28.9922  -21.4092   20.1316 C   0  0  0  0  0  0  0  0  0  0  0  0
  -27.4989  -23.4476   19.6962 C   0  0  0  0  0  0  0  0  0  1  0  0
  -22.0862  -29.6612   22.8752 C   0  0  1  0  0  0  0  0  0  0  0  0
  -18.9987  -29.2506   20.7144 C   0  0  2  0  0  0  0  0  0  0  0  0
  -21.9626  -30.0868   24.3655 C   0  0  0  0  0  0  0  0  0  0  0  0
  -31.2173  -19.3686   20.1188 N   0  0  0  0  0  0  0  0  0  0  0  0
  -25.8294  -11.6108   20.2075 N   0  0  0  0  0  0  0  0  0  0  0  0
  -26.2942  -12.8705   20.2638 N   0  0  0  0  0  0  0  0  0  0  0  0
  -24.2091  -29.6505   21.6036 N   0  0  0  0  0  0  0  0  0  0  0  0
  -30.0812  -13.3701   20.1290 N   0  0  0  0  0  0  0  0  0  0  0  0
  -25.7488  -15.0539   21.0028 N   0  0  0  0  0  0  0  0  0  0  0  0
  -22.1317  -12.6207   22.1825 N   0  0  0  0  0  0  0  0  0  0  0  0
  -29.0613  -20.1933   20.9010 N   0  0  0  0  0  0  0  0  0  0  0  0
  -27.2171  -31.4908   22.1475 N   0  0  0  0  0  0  0  0  0  0  0  0
  -20.8661  -29.8479   22.0973 N   0  0  0  0  0  0  0  0  0  0  0  0
  -30.5537  -15.1686   21.5904 N   0  0  0  0  0  0  0  0  0  0  0  0
  -18.8132  -28.4545   19.4683 N   0  3  0  0  0  0  0  0  0  0  0  0
  -23.0449  -14.7242   22.1931 O   0  0  0  0  0  0  0  0  0  0  0  0
  -26.4729  -29.4397   22.9611 O   0  0  0  0  0  0  0  0  0  0  0  0
  -26.8653  -21.7101   21.2298 O   0  0  0  0  0  0  0  0  0  0  0  0
  -23.0954  -31.6472   22.0607 O   0  0  0  0  0  0  0  0  0  0  0  0
  -20.6384  -27.6340   21.4462 O   0  0  0  0  0  0  0  0  0  0  0  0
  -32.0600  -14.5687   19.9693 O   0  0  0  0  0  0  0  0  0  0  0  0
  -30.0152  -18.2034   21.6395 O   0  0  0  0  0  0  0  0  0  0  0  0
  -21.4120   -7.1631   21.3270 O   0  0  0  0  0  0  0  0  0  0  0  0
  -26.2495  -24.0408   20.0479 O   0  0  0  0  0  0  0  0  0  1  0  0
  -18.9696   -6.3186   26.1980 F   0  0  0  0  0  0  0  0  0  0  0  0
  -21.9163   -4.8710   22.7881 F   0  0  0  0  0  0  0  0  0  0  0  0
  1  2  1  0  0  0  0
  1  5  2  0  0  0  0
  2  6  2  0  0  0  0
  3  8  2  0  0  0  0
  3 16  1  0  0  0  0
  4  9  1  0  0  0  0
  4 16  2  0  0  0  0
  5 18  1  0  0  0  0
  6 20  1  0  0  0  0
  7 10  2  0  0  0  0
  7 19  1  0  0  0  0
  8 22  1  0  0  0  0
  9 22  2  0  0  0  0
 10 23  1  0  0  0  0
 11 12  2  0  0  0  0
 11 24  1  0  0  0  0
 12 25  1  0  0  0  0
 13 21  1  0  0  0  0
 13 23  2  0  0  0  0
 14 25  2  0  0  0  0
 14 26  1  0  0  0  0
 15 28  2  0  0  0  0
 15 60  1  0  0  0  0
 16 27  1  0  0  0  0
 17 27  1  0  0  0  0
 17 29  2  0  0  0  0
 17 31  1  0  0  0  0
 18 20  2  0  0  0  0
 18 37  1  0  0  0  0
 19 21  2  0  0  0  0
 19 38  1  0  0  0  0
 20 46  1  0  0  0  0
 21 39  1  0  0  0  0
 22 79  1  0  0  0  0
 23 80  1  0  0  0  0
 24 26  2  0  0  0  0
 24 79  1  0  0  0  0
 25 81  1  0  0  0  0
 26 82  1  0  0  0  0
 27 61  2  0  0  0  0
 28 54  1  0  0  0  0
 28 78  1  0  0  0  0
 29 62  1  0  0  0  0
 29 65  1  0  0  0  0
 30 60  2  0  0  0  0
 30 67  1  0  0  0  0
 30 78  1  0  0  0  0
 31 66  1  0  0  0  0
 31 72  2  0  0  0  0
 32 47  1  0  0  0  0
 32 68  1  0  0  0  0
 32 73  2  0  0  0  0
 33 55  1  0  0  0  0
 33 56  1  0  0  0  0
 33 74  2  0  0  0  0
 34 57  1  0  0  0  0
 34 63  1  0  0  0  0
 34 75  2  0  0  0  0
 35 58  1  0  0  0  0
 35 69  1  0  0  0  0
 35 76  2  0  0  0  0
 36 64  1  0  0  0  0
 36 70  1  0  0  0  0
 36 77  2  0  0  0  0
 37 40  1  0  0  0  0
 38 47  1  0  0  0  0
 39 63  1  0  0  0  0
 40 42  1  0  0  0  0
 41 43  1  0  0  0  0
 41 44  1  0  0  0  0
 42 46  1  0  0  0  0
 43 48  1  0  0  0  0
 44 64  1  0  0  0  0
 45 48  1  0  0  0  0
 45 64  1  0  0  0  0
 46 68  1  0  0  0  0
 47 63  1  0  0  0  0
 48 62  1  0  0  0  0
 49 58  1  0  0  0  0
 50 59  1  0  0  0  0
 51 59  1  0  0  0  0
 52 59  1  0  0  0  0
 53 71  1  0  0  0  0
 54 70  1  0  0  0  0
 55 67  1  0  0  0  0
 56 80  1  0  0  0  0
 57 59  1  0  0  0  0
 57 69  1  0  0  0  0
 58 71  1  0  0  0  0
 61 62  1  0  0  0  0
M  CHG  1  71   1
M  ISO  4  36 100  56 101  70 100  80 101
M  END
> <Batch ID>
0162

> <Smiles>
CNC(C)C(=O)NC(C(=O)N1Cc2cc([101O:1][101CH2:1]C(=O)CNc3ncc(C[100NH:0][100C:0](=O)N4CCCC(n5nc(-c6ccc(Oc7ccc(F)cc7F)cc6)c(C(N)=O)c5N)C4)o3)ccc2CC1C(=O)NC1CCCc2ccccc21)C(C)(C)C

> <Shape>
0.342

> <Color>
0.183

> <Negative vol penalty>
0.000

$$$$

  -OEChem-04052303563D

 85 93  0     1  0  0  0  0  0999 V2000
  -20.3564  -29.4087   27.5083 C   0  0  0  0  0  0  0  0  0  0  0  0
  -21.0791  -28.5206   26.7181 C   0  0  0  0  0  0  0  0  0  0  0  0
  -23.1275   -9.7164   20.0985 C   0  0  0  0  0  0  0  0  0  0  0  0
  -23.6708  -10.1098   22.4195 C   0  0  0  0  0  0  0  0  0  0  0  0
  -19.6856  -30.4787   26.9175 C   0  0  0  0  0  0  0  0  0  0  0  0
  -21.1303  -28.7012   25.3364 C   0  0  0  0  0  0  0  0  0  0  0  0
  -25.8051  -28.1311   23.4746 C   0  0  0  0  0  0  0  0  0  0  0  0
  -22.3837   -8.5941   20.4628 C   0  0  0  0  0  0  0  0  0  0  0  0
  -22.9269   -8.9875   22.7839 C   0  0  0  0  0  0  0  0  0  0  0  0
  -26.2719  -26.8273   23.3142 C   0  0  0  0  0  0  0  0  0  0  0  0
  -23.3258   -5.6302   22.7942 C   0  0  0  0  0  0  0  0  0  0  0  0
  -23.8896   -4.7514   23.7190 C   0  0  0  0  0  0  0  0  0  0  0  0
  -25.7475  -26.9354   20.9621 C   0  0  0  0  0  0  0  0  0  0  0  0
  -22.0342   -5.1380   25.2174 C   0  0  0  0  0  0  0  0  0  0  0  0
  -29.4921  -18.2421   22.1703 C   0  0  0  0  0  0  0  0  0  0  0  0
  -23.7711  -10.4743   21.0769 C   0  0  0  0  0  0  0  0  0  0  0  0
  -24.0789  -12.9584   20.5847 C   0  0  0  0  0  0  0  0  0  0  0  0
  -19.7366  -30.6781   25.5289 C   0  0  0  0  0  0  0  0  0  0  0  0
  -25.2950  -28.8442   22.3802 C   0  0  0  0  0  0  0  0  0  0  0  0
  -20.4584  -29.7741   24.7263 C   0  0  0  0  0  0  0  0  0  0  0  0
  -25.2772  -28.2490   21.1108 C   0  0  0  0  0  0  0  0  0  0  0  0
  -22.2834   -8.2296   21.8055 C   0  0  0  0  0  0  0  0  0  0  0  0
  -26.2405  -26.2281   22.0583 C   0  0  0  0  0  0  0  0  0  0  0  0
  -22.1163   -6.2630   23.0809 C   0  0  0  0  0  0  0  0  0  0  0  0
  -23.2438   -4.5052   24.9306 C   0  0  0  0  0  0  0  0  0  0  0  0
  -21.4705   -6.0169   24.2925 C   0  0  0  0  0  0  0  0  0  0  0  0
  -24.5401  -11.6334   20.7011 C   0  0  0  0  0  0  0  0  0  0  0  0
  -30.3139  -19.3367   22.2196 C   0  0  0  0  0  0  0  0  0  0  0  0
  -30.2863  -17.2550   21.5616 C   0  0  0  0  0  0  0  0  0  0  0  0
  -25.1869  -13.6755   20.2046 C   0  0  0  0  0  0  0  0  0  0  0  0
  -22.7662  -13.4931   20.8008 C   0  0  0  0  0  0  0  0  0  0  0  0
  -29.9524  -20.6559   22.7760 C   0  0  0  0  0  0  0  0  0  0  0  0
  -22.4753  -30.1166   21.6494 C   0  0  0  0  0  0  0  0  0  0  0  0
  -27.6822  -22.8997   22.7139 C   0  0  0  0  0  0  0  0  0  0  0  0
  -24.0992  -31.2766   19.0921 C   0  0  0  0  0  0  0  0  0  0  0  0
  -26.7535  -30.9791   16.9677 C   0  0  0  0  0  0  0  0  0  0  0  0
  -30.5942  -14.9096   20.6951 C   0  0  0  0  0  0  0  0  0  0  0  0
  -18.9563  -31.8217   24.9306 C   0  0  0  0  0  0  0  0  0  0  0  0
  -24.8200  -30.2594   22.5647 C   0  0  0  0  0  0  0  0  0  0  0  0
  -24.7582  -28.9790   19.8999 C   0  0  0  0  0  0  0  0  0  0  0  0
  -19.3692  -32.1584   23.5001 C   0  0  0  0  0  0  0  0  0  0  0  0
  -29.7468  -12.1174   18.6548 C   0  0  0  0  0  0  0  0  0  0  0  0
  -19.4823  -30.8876   22.6640 C   0  0  0  0  0  0  0  0  0  0  0  0
  -28.2787  -11.8516   18.9957 C   0  0  0  0  0  0  0  0  0  0  0  0
  -30.5421  -12.5624   19.8809 C   0  0  0  0  0  0  0  0  0  0  0  0
  -28.5028  -13.4348   20.9528 C   0  0  0  0  0  0  0  0  0  0  0  0
  -20.5581  -29.9509   23.2267 C   0  0  1  0  0  0  0  0  0  0  0  0
  -23.8458  -30.7089   21.4802 C   0  0  1  0  0  0  0  0  0  0  0  0
  -27.6468  -13.0466   19.7362 C   0  0  2  0  0  0  0  0  0  0  0  0
  -27.7945  -32.0542   14.9532 C   0  0  0  0  0  0  0  0  0  0  0  0
  -21.9472  -30.0355   17.3206 C   0  0  0  0  0  0  0  0  0  0  0  0
  -23.4966  -30.3007   15.3720 C   0  0  0  0  0  0  0  0  0  0  0  0
  -22.6972  -32.3131   16.6105 C   0  0  0  0  0  0  0  0  0  0  0  0
  -29.2547  -31.5738   18.4336 C   0  0  0  0  0  0  0  0  0  0  0  0
  -27.1904  -24.2924   23.0615 C   0  0  0  0  0  0  0  0  0  1  0  0
  -27.2014  -21.7635   24.9062 C   0  0  0  0  0  0  0  0  0  0  0  0
  -28.2480  -22.0779   23.8573 C   0  0  1  0  0  0  0  0  0  0  0  0
  -24.3903  -30.7811   17.6961 C   0  0  1  0  0  0  0  0  0  0  0  0
  -27.7663  -31.9957   16.4726 C   0  0  2  0  0  0  0  0  0  0  0  0
  -23.1409  -30.8429   16.7728 C   0  0  0  0  0  0  0  0  0  0  0  0
  -25.8398  -11.5131   20.4178 N   0  0  0  0  0  0  0  0  0  0  0  0
  -31.5074  -17.7031   21.2567 N   0  0  0  0  0  0  0  0  0  0  0  0
  -26.2048  -12.7716   20.1195 N   0  0  0  0  0  0  0  0  0  0  0  0
  -24.2991  -30.3584   20.1327 N   0  0  0  0  0  0  0  0  0  0  0  0
  -29.8862  -13.7006   20.5284 N   0  0  0  0  0  0  0  0  0  0  0  0
  -25.3801  -14.9847   19.9382 N   0  0  0  0  0  0  0  0  0  0  0  0
  -21.7432  -12.6168   21.1880 N   0  0  0  0  0  0  0  0  0  0  0  0
  -30.8705  -21.6220   22.7488 N   0  0  0  0  0  0  0  0  0  0  0  0
  -29.8577  -15.9312   21.2937 N   0  0  0  0  0  0  0  0  0  0  0  0
  -21.8775  -30.4177   22.8583 N   0  0  0  0  0  0  0  0  0  0  0  0
  -25.5273  -31.5589   17.2157 N   0  0  0  0  0  0  0  0  0  0  0  0
  -28.7233  -20.8194   23.2828 N   0  3  0  0  0  0  0  0  0  0  0  0
  -29.1318  -31.6436   16.9548 N   0  3  0  0  0  0  0  0  0  0  0  0
  -22.5044  -14.7091   20.6389 O   0  0  0  0  0  0  0  0  0  0  0  0
  -21.9951  -29.4379   20.7491 O   0  0  0  0  0  0  0  0  0  0  0  0
  -27.6274  -22.4700   21.5613 O   0  0  0  0  0  0  0  0  0  0  0  0
  -23.7157  -32.4378   19.2540 O   0  0  0  0  0  0  0  0  0  0  0  0
  -27.0221  -29.7889   17.1157 O   0  0  0  0  0  0  0  0  0  0  0  0
  -31.7588  -15.0383   20.3089 O   0  0  0  0  0  0  0  0  0  0  0  0
  -31.5195  -19.0276   21.6774 O   0  0  0  0  0  0  0  0  0  0  0  0
  -21.5575   -7.1347   22.1614 O   0  0  0  0  0  0  0  0  0  0  0  0
  -26.6949  -24.9554   21.8991 O   0  0  0  0  0  0  0  0  0  1  0  0
  -23.7845   -3.6601   25.8180 F   0  0  0  0  0  0  0  0  0  0  0  0
  -20.3077   -6.6210   24.5732 F   0  0  0  0  0  0  0  0  0  0  0  0
  -26.1754  -21.0883   24.3216 F   0  0  0  0  0  0  0  0  0  0  0  0
  1  2  1  0  0  0  0
  1  5  2  0  0  0  0
  2  6  2  0  0  0  0
  3  8  2  0  0  0  0
  3 16  1  0  0  0  0
  4  9  1  0  0  0  0
  4 16  2  0  0  0  0
  5 18  1  0  0  0  0
  6 20  1  0  0  0  0
  7 10  2  0  0  0  0
  7 19  1  0  0  0  0
  8 22  1  0  0  0  0
  9 22  2  0  0  0  0
 10 23  1  0  0  0  0
 11 12  2  0  0  0  0
 11 24  1  0  0  0  0
 12 25  1  0  0  0  0
 13 21  1  0  0  0  0
 13 23  2  0  0  0  0
 14 25  2  0  0  0  0
 14 26  1  0  0  0  0
 15 28  2  0  0  0  0
 15 29  1  0  0  0  0
 16 27  1  0  0  0  0
 17 27  1  0  0  0  0
 17 30  2  0  0  0  0
 17 31  1  0  0  0  0
 18 20  2  0  0  0  0
 18 38  1  0  0  0  0
 19 21  2  0  0  0  0
 19 39  1  0  0  0  0
 20 47  1  0  0  0  0
 21 40  1  0  0  0  0
 22 81  1  0  0  0  0
 23 82  1  0  0  0  0
 24 26  2  0  0  0  0
 24 81  1  0  0  0  0
 25 83  1  0  0  0  0
 26 84  1  0  0  0  0
 27 61  2  0  0  0  0
 28 32  1  0  0  0  0
 28 80  1  0  0  0  0
 29 62  2  0  0  0  0
 29 69  1  0  0  0  0
 30 63  1  0  0  0  0
 30 66  1  0  0  0  0
 31 67  1  0  0  0  0
 31 74  2  0  0  0  0
 32 68  1  0  0  0  0
 32 72  2  0  0  0  0
 33 48  1  0  0  0  0
 33 70  1  0  0  0  0
 33 75  2  0  0  0  0
 34 55  1  0  0  0  0
 34 57  1  0  0  0  0
 34 76  2  0  0  0  0
 35 58  1  0  0  0  0
 35 64  1  0  0  0  0
 35 77  2  0  0  0  0
 36 59  1  0  0  0  0
 36 71  1  0  0  0  0
 36 78  2  0  0  0  0
 37 65  1  0  0  0  0
 37 69  1  0  0  0  0
 37 79  2  0  0  0  0
 38 41  1  0  0  0  0
 39 48  1  0  0  0  0
 40 64  1  0  0  0  0
 41 43  1  0  0  0  0
 42 44  1  0  0  0  0
 42 45  1  0  0  0  0
 43 47  1  0  0  0  0
 44 49  1  0  0  0  0
 45 65  1  0  0  0  0
 46 49  1  0  0  0  0
 46 65  1  0  0  0  0
 47 70  1  0  0  0  0
 48 64  1  0  0  0  0
 49 63  1  0  0  0  0
 50 59  1  0  0  0  0
 51 60  1  0  0  0  0
 52 60  1  0  0  0  0
 53 60  1  0  0  0  0
 54 73  1  0  0  0  0
 55 82  1  0  0  0  0
 56 57  1  0  0  0  0
 56 85  1  0  0  0  0
 57 72  1  0  0  0  0
 58 60  1  0  0  0  0
 58 71  1  0  0  0  0
 59 73  1  0  0  0  0
 61 63  1  0  0  0  0
 62 80  1  0  0  0  0
M  CHG  2  72   1  73   1
M  ISO  4  37 100  55 101  69 100  82 101
M  END
> <Batch ID>
0162

> <Smiles>
CNC(C)C(=O)NC(C(=O)N1Cc2cc([101O:1][101CH2:1]C(=O)C(CF)NC(=N)c3cc([100NH:0][100C:0](=O)N4CCCC(n5nc(-c6ccc(Oc7ccc(F)cc7F)cc6)c(C(N)=O)c5N)C4)no3)ccc2CC1C(=O)NC1CCCc2ccccc21)C(C)(C)C

> <Shape>
0.260

> <Color>
0.187

> <Negative vol penalty>
0.000

$$$$

  -OEChem-04052303563D

 83 91  0     1  0  0  0  0  0999 V2000
  -28.8773  -34.7585   24.9498 C   0  0  0  0  0  0  0  0  0  0  0  0
  -28.6828  -33.3820   24.8974 C   0  0  0  0  0  0  0  0  0  0  0  0
  -23.0350  -10.0678   21.4627 C   0  0  0  0  0  0  0  0  0  0  0  0
  -23.7899  -11.0018   23.5591 C   0  0  0  0  0  0  0  0  0  0  0  0
  -27.7921  -35.6210   24.8003 C   0  0  0  0  0  0  0  0  0  0  0  0
  -27.4026  -32.8671   24.6965 C   0  0  0  0  0  0  0  0  0  0  0  0
  -27.3291  -29.1163   21.2948 C   0  0  0  0  0  0  0  0  0  0  0  0
  -22.2830   -9.1194   22.1560 C   0  0  0  0  0  0  0  0  0  0  0  0
  -23.0378  -10.0534   24.2524 C   0  0  0  0  0  0  0  0  0  0  0  0
  -27.7592  -27.8608   21.7220 C   0  0  0  0  0  0  0  0  0  0  0  0
  -19.3264   -8.9961   23.7919 C   0  0  0  0  0  0  0  0  0  0  0  0
  -18.0203   -8.7635   23.3611 C   0  0  0  0  0  0  0  0  0  0  0  0
  -30.0357  -18.5105   20.7799 C   0  0  0  0  0  0  0  0  0  0  0  0
  -25.4628  -27.1702   21.9846 C   0  0  0  0  0  0  0  0  0  0  0  0
  -18.5700   -6.4480   22.9446 C   0  0  0  0  0  0  0  0  0  0  0  0
  -23.7885  -11.0090   22.1643 C   0  0  0  0  0  0  0  0  0  0  0  0
  -31.0158  -19.4843   20.4730 C   0  0  0  0  0  0  0  0  0  0  0  0
  -24.1472  -13.2659   21.0306 C   0  0  0  0  0  0  0  0  0  0  0  0
  -26.4994  -35.1165   24.5877 C   0  0  0  0  0  0  0  0  0  0  0  0
  -25.9604  -29.4123   21.2196 C   0  0  0  0  0  0  0  0  0  0  0  0
  -26.2988  -33.7236   24.5453 C   0  0  0  0  0  0  0  0  0  0  0  0
  -25.0179  -28.4294   21.5537 C   0  0  0  0  0  0  0  0  0  0  0  0
  -22.2844   -9.1122   23.5508 C   0  0  0  0  0  0  0  0  0  0  0  0
  -26.8260  -26.8885   22.0697 C   0  0  0  0  0  0  0  0  0  0  0  0
  -20.2544   -7.9547   23.7990 C   0  0  0  0  0  0  0  0  0  0  0  0
  -17.6421   -7.4895   22.9375 C   0  0  0  0  0  0  0  0  0  0  0  0
  -19.8762   -6.6807   23.3754 C   0  0  0  0  0  0  0  0  0  0  0  0
  -24.5660  -11.9885   21.4487 C   0  0  0  0  0  0  0  0  0  0  0  0
  -25.2451  -13.7976   20.3994 C   0  0  0  0  0  0  0  0  0  0  0  0
  -30.5865  -17.2954   20.4448 C   0  0  0  0  0  0  0  0  0  0  0  0
  -32.0958  -18.7950   19.9725 C   0  0  0  0  0  0  0  0  0  0  0  0
  -30.9302  -20.9647   20.6442 C   0  0  0  0  0  0  0  0  0  0  0  0
  -22.8793  -13.9139   21.1980 C   0  0  0  0  0  0  0  0  0  0  0  0
  -24.0384  -31.5117   22.6345 C   0  0  0  0  0  0  0  0  0  0  0  0
  -21.8530  -30.3279   20.5501 C   0  0  0  0  0  0  0  0  0  0  0  0
  -20.8481  -27.7406   18.5643 C   0  0  0  0  0  0  0  0  0  0  0  0
  -30.7177  -14.7958   20.1600 C   0  0  0  0  0  0  0  0  0  0  0  0
  -25.3502  -36.0872   24.4788 C   0  0  0  0  0  0  0  0  0  0  0  0
  -25.5124  -30.7626   20.7314 C   0  0  0  0  0  0  0  0  0  0  0  0
  -23.5368  -28.6902   21.4709 C   0  0  0  0  0  0  0  0  0  0  0  0
  -24.0830  -35.4678   23.8952 C   0  0  0  0  0  0  0  0  0  0  0  0
  -29.5925  -11.6340   18.9709 C   0  0  0  0  0  0  0  0  0  0  0  0
  -23.7918  -34.1245   24.5567 C   0  0  0  0  0  0  0  0  0  0  0  0
  -28.1500  -11.5495   19.4751 C   0  0  0  0  0  0  0  0  0  0  0  0
  -30.5065  -12.3264   19.9803 C   0  0  0  0  0  0  0  0  0  0  0  0
  -28.6014  -13.5592   20.9394 C   0  0  0  0  0  0  0  0  0  0  0  0
  -24.9290  -33.1272   24.3042 C   0  0  1  0  0  0  0  0  0  0  0  0
  -24.1011  -31.1237   21.1843 C   0  0  1  0  0  0  0  0  0  0  0  0
  -27.6300  -12.9276   19.9289 C   0  0  2  0  0  0  0  0  0  0  0  0
  -19.0015  -27.0516   17.0110 C   0  0  0  0  0  0  0  0  0  0  0  0
  -20.0364  -29.8054   22.9453 C   0  0  0  0  0  0  0  0  0  0  0  0
  -18.6704  -28.2930   21.4911 C   0  0  0  0  0  0  0  0  0  0  0  0
  -18.8690  -30.7154   20.9295 C   0  0  0  0  0  0  0  0  0  0  0  0
  -22.7111  -27.4765   16.2799 C   0  0  0  0  0  0  0  0  0  0  0  0
  -29.6530  -21.5613   21.2162 C   0  0  0  0  0  0  0  0  0  0  0  0
  -29.7313  -23.0840   21.3398 C   0  0  0  0  0  0  0  0  0  0  0  0
  -28.4269  -23.6659   21.8792 C   0  0  0  0  0  0  0  0  0  0  0  0
  -28.4818  -25.1846   21.9644 C   0  0  0  0  0  0  0  0  0  1  0  0
  -20.8567  -29.1939   20.5749 C   0  0  1  0  0  0  0  0  0  0  0  0
  -20.3711  -27.7030   17.1236 C   0  0  2  0  0  0  0  0  0  0  0  0
  -19.6360  -29.4973   21.4887 C   0  0  0  0  0  0  0  0  0  0  0  0
  -25.8311  -11.7246   21.1113 N   0  0  0  0  0  0  0  0  0  0  0  0
  -26.2167  -12.8434   20.4745 N   0  0  0  0  0  0  0  0  0  0  0  0
  -23.1486  -30.0278   20.9939 N   0  0  0  0  0  0  0  0  0  0  0  0
  -29.9525  -13.6276   20.3609 N   0  0  0  0  0  0  0  0  0  0  0  0
  -25.4645  -14.9836   19.7929 N   0  0  0  0  0  0  0  0  0  0  0  0
  -33.3016  -19.2018   19.5217 N   0  0  0  0  0  0  0  0  0  0  0  0
  -21.8607  -13.2253   21.8707 N   0  0  0  0  0  0  0  0  0  0  0  0
  -30.0747  -15.9768   20.5293 N   0  0  0  0  0  0  0  0  0  0  0  0
  -24.8400  -32.5879   22.9642 N   0  0  0  0  0  0  0  0  0  0  0  0
  -20.5095  -28.9251   19.1836 N   0  0  0  0  0  0  0  0  0  0  0  0
  -21.3288  -26.9325   16.2809 N   0  3  0  0  0  0  0  0  0  0  0  0
  -31.8885  -21.6625   20.3203 O   0  0  0  0  0  0  0  0  0  0  0  0
  -22.6510  -15.0630   20.7495 O   0  0  0  0  0  0  0  0  0  0  0  0
  -23.3151  -30.8823   23.3977 O   0  0  0  0  0  0  0  0  0  0  0  0
  -21.4966  -31.4371   20.1449 O   0  0  0  0  0  0  0  0  0  0  0  0
  -21.4568  -26.8107   19.0890 O   0  0  0  0  0  0  0  0  0  0  0  0
  -31.8489  -14.7543   19.6695 O   0  0  0  0  0  0  0  0  0  0  0  0
  -31.8421  -17.4601   19.9520 O   0  0  0  0  0  0  0  0  0  0  0  0
  -21.5505   -8.1871   24.2276 O   0  0  0  0  0  0  0  0  0  0  0  0
  -27.2431  -25.6624   22.4876 O   0  0  0  0  0  0  0  0  0  1  0  0
  -16.3874   -7.2659   22.5254 F   0  0  0  0  0  0  0  0  0  0  0  0
  -20.7629   -5.6760   23.3810 F   0  0  0  0  0  0  0  0  0  0  0  0
  1  2  1  0  0  0  0
  1  5  2  0  0  0  0
  2  6  2  0  0  0  0
  3  8  2  0  0  0  0
  3 16  1  0  0  0  0
  4  9  1  0  0  0  0
  4 16  2  0  0  0  0
  5 19  1  0  0  0  0
  6 21  1  0  0  0  0
  7 10  2  0  0  0  0
  7 20  1  0  0  0  0
  8 23  1  0  0  0  0
  9 23  2  0  0  0  0
 10 24  1  0  0  0  0
 11 12  2  0  0  0  0
 11 25  1  0  0  0  0
 12 26  1  0  0  0  0
 13 17  1  0  0  0  0
 13 30  2  0  0  0  0
 14 22  1  0  0  0  0
 14 24  2  0  0  0  0
 15 26  2  0  0  0  0
 15 27  1  0  0  0  0
 16 28  1  0  0  0  0
 17 31  2  0  0  0  0
 17 32  1  0  0  0  0
 18 28  1  0  0  0  0
 18 29  2  0  0  0  0
 18 33  1  0  0  0  0
 19 21  2  0  0  0  0
 19 38  1  0  0  0  0
 20 22  2  0  0  0  0
 20 39  1  0  0  0  0
 21 47  1  0  0  0  0
 22 40  1  0  0  0  0
 23 80  1  0  0  0  0
 24 81  1  0  0  0  0
 25 27  2  0  0  0  0
 25 80  1  0  0  0  0
 26 82  1  0  0  0  0
 27 83  1  0  0  0  0
 28 62  2  0  0  0  0
 29 63  1  0  0  0  0
 29 66  1  0  0  0  0
 30 69  1  0  0  0  0
 30 79  1  0  0  0  0
 31 67  1  0  0  0  0
 31 79  1  0  0  0  0
 32 55  1  0  0  0  0
 32 73  2  0  0  0  0
 33 68  1  0  0  0  0
 33 74  2  0  0  0  0
 34 48  1  0  0  0  0
 34 70  1  0  0  0  0
 34 75  2  0  0  0  0
 35 59  1  0  0  0  0
 35 64  1  0  0  0  0
 35 76  2  0  0  0  0
 36 60  1  0  0  0  0
 36 71  1  0  0  0  0
 36 77  2  0  0  0  0
 37 65  1  0  0  0  0
 37 69  1  0  0  0  0
 37 78  2  0  0  0  0
 38 41  1  0  0  0  0
 39 48  1  0  0  0  0
 40 64  1  0  0  0  0
 41 43  1  0  0  0  0
 42 44  1  0  0  0  0
 42 45  1  0  0  0  0
 43 47  1  0  0  0  0
 44 49  1  0  0  0  0
 45 65  1  0  0  0  0
 46 49  1  0  0  0  0
 46 65  1  0  0  0  0
 47 70  1  0  0  0  0
 48 64  1  0  0  0  0
 49 63  1  0  0  0  0
 50 60  1  0  0  0  0
 51 61  1  0  0  0  0
 52 61  1  0  0  0  0
 53 61  1  0  0  0  0
 54 72  1  0  0  0  0
 55 56  1  0  0  0  0
 56 57  1  0  0  0  0
 57 58  1  0  0  0  0
 58 81  1  0  0  0  0
 59 61  1  0  0  0  0
 59 71  1  0  0  0  0
 60 72  1  0  0  0  0
 62 63  1  0  0  0  0
M  CHG  1  72   1
M  ISO  4  37 100  58 101  69 100  81 101
M  END
> <Batch ID>
0162

> <Smiles>
CNC(C)C(=O)NC(C(=O)N1Cc2cc([101O:1][101CH2:1]CCCC(=O)c3cc([100NH:0][100C:0](=O)N4CCCC(n5nc(-c6ccc(Oc7ccc(F)cc7F)cc6)c(C(N)=O)c5N)C4)oc3N)ccc2CC1C(=O)NC1CCCc2ccccc21)C(C)(C)C

> <Shape>
0.290

> <Color>
0.148

> <Negative vol penalty>
0.000

$$$$

  -OEChem-04052303563D

 86 94  0     1  0  0  0  0  0999 V2000
  -14.9883  -30.9120   24.6420 C   0  0  0  0  0  0  0  0  0  0  0  0
  -15.6099  -29.6859   24.4279 C   0  0  0  0  0  0  0  0  0  0  0  0
  -22.8102  -11.4155   19.0173 C   0  0  0  0  0  0  0  0  0  0  0  0
  -23.0718  -10.0264   20.9766 C   0  0  0  0  0  0  0  0  0  0  0  0
  -15.5356  -32.0739   24.0995 C   0  0  0  0  0  0  0  0  0  0  0  0
  -16.7787  -29.6210   23.6702 C   0  0  0  0  0  0  0  0  0  0  0  0
  -21.5059  -25.8197   24.5129 C   0  0  0  0  0  0  0  0  0  0  0  0
  -21.7767  -10.5918   18.5712 C   0  0  0  0  0  0  0  0  0  0  0  0
  -22.0382   -9.2026   20.5305 C   0  0  0  0  0  0  0  0  0  0  0  0
  -21.8634  -24.6180   23.9031 C   0  0  0  0  0  0  0  0  0  0  0  0
  -21.6296   -6.7193   18.2729 C   0  0  0  0  0  0  0  0  0  0  0  0
  -21.8236   -5.3398   18.3444 C   0  0  0  0  0  0  0  0  0  0  0  0
  -23.3296  -25.8186   22.4104 C   0  0  0  0  0  0  0  0  0  0  0  0
  -19.9059   -5.1457   19.8010 C   0  0  0  0  0  0  0  0  0  0  0  0
  -23.4577  -11.1328   20.2200 C   0  0  0  0  0  0  0  0  0  0  0  0
  -24.4124  -13.1204   21.5028 C   0  0  0  0  0  0  0  0  0  0  0  0
  -16.7170  -32.0244   23.3429 C   0  0  0  0  0  0  0  0  0  0  0  0
  -22.0501  -27.0331   24.0681 C   0  0  0  0  0  0  0  0  0  0  0  0
  -17.3416  -30.7831   23.1160 C   0  0  0  0  0  0  0  0  0  0  0  0
  -22.9793  -27.0341   23.0179 C   0  0  0  0  0  0  0  0  0  0  0  0
  -21.3907   -9.4854   19.3278 C   0  0  0  0  0  0  0  0  0  0  0  0
  -22.7732  -24.6176   22.8499 C   0  0  0  0  0  0  0  0  0  0  0  0
  -20.5738   -7.3120   18.9655 C   0  0  0  0  0  0  0  0  0  0  0  0
  -20.9617   -4.5530   19.1084 C   0  0  0  0  0  0  0  0  0  0  0  0
  -19.7119   -6.5252   19.7296 C   0  0  0  0  0  0  0  0  0  0  0  0
  -24.5258  -11.9830   20.6810 C   0  0  0  0  0  0  0  0  0  0  0  0
  -29.9086  -19.7154   19.9100 C   0  0  0  0  0  0  0  0  0  0  0  0
  -29.7482  -18.3828   20.2272 C   0  0  0  0  0  0  0  0  0  0  0  0
  -25.7026  -13.5682   21.6491 C   0  0  0  0  0  0  0  0  0  0  0  0
  -27.9030  -19.8251   20.7908 C   0  0  0  0  0  0  0  0  0  0  0  0
  -23.2453  -13.7185   22.0822 C   0  0  0  0  0  0  0  0  0  0  0  0
  -31.0804  -20.2622   19.2829 C   0  0  0  0  0  0  0  0  0  0  0  0
  -30.6574  -17.2244   20.0313 C   0  0  0  0  0  0  0  0  0  0  0  0
  -20.8598  -29.6971   22.8070 C   0  0  0  0  0  0  0  0  0  0  0  0
  -24.9467  -21.9394   21.7246 C   0  0  0  0  0  0  0  0  0  0  0  0
  -23.9164  -30.7411   23.1060 C   0  0  0  0  0  0  0  0  0  0  0  0
  -27.2317  -29.9678   23.3468 C   0  0  0  0  0  0  0  0  0  0  0  0
  -30.7010  -14.7892   19.5939 C   0  0  0  0  0  0  0  0  0  0  0  0
  -17.2450  -33.3007   22.7371 C   0  0  0  0  0  0  0  0  0  0  0  0
  -21.6745  -28.3180   24.7539 C   0  0  0  0  0  0  0  0  0  0  0  0
  -23.6077  -28.3076   22.5162 C   0  0  0  0  0  0  0  0  0  0  0  0
  -18.6913  -33.1957   22.2603 C   0  0  0  0  0  0  0  0  0  0  0  0
  -30.1068  -11.3995   20.4027 C   0  0  0  0  0  0  0  0  0  0  0  0
  -18.8977  -31.9142   21.4592 C   0  0  0  0  0  0  0  0  0  0  0  0
  -28.5928  -11.3410   20.6235 C   0  0  0  0  0  0  0  0  0  0  0  0
  -30.4774  -12.3430   19.2593 C   0  0  0  0  0  0  0  0  0  0  0  0
  -28.4067  -13.6343   19.5795 C   0  0  0  0  0  0  0  0  0  0  0  0
  -18.6243  -30.6752   22.3204 C   0  0  1  0  0  0  0  0  0  0  0  0
  -21.8997  -29.5490   23.8814 C   0  0  1  0  0  0  0  0  0  0  0  0
  -27.9870  -12.7517   20.7660 C   0  0  1  0  0  0  0  0  0  0  0  0
  -31.4510  -21.6918   19.5934 C   0  0  0  0  0  0  0  0  0  0  0  0
  -29.4944  -31.0353   23.5416 C   0  0  0  0  0  0  0  0  0  0  0  0
  -23.8250  -31.4695   20.1444 C   0  0  0  0  0  0  0  0  0  0  0  0
  -26.3238  -31.6225   20.1764 C   0  0  0  0  0  0  0  0  0  0  0  0
  -24.9638  -33.1555   21.5987 C   0  0  0  0  0  0  0  0  0  0  0  0
  -27.7487  -28.6677   25.9548 C   0  0  0  0  0  0  0  0  0  0  0  0
  -26.3300  -21.7290   21.1464 C   0  0  0  0  0  0  0  0  0  0  0  0
  -24.4358  -23.3669   21.6977 C   0  0  0  0  0  0  0  0  0  1  0  0
  -25.1458  -30.7142   22.2303 C   0  0  1  0  0  0  0  0  0  0  0  0
  -28.3120  -30.4501   24.2980 C   0  0  2  0  0  0  0  0  0  0  0  0
  -25.0515  -31.7165   21.0454 C   0  0  0  0  0  0  0  0  0  0  0  0
  -25.7882  -11.7244   20.3298 N   0  0  0  0  0  0  0  0  0  0  0  0
  -28.8514  -20.5439   20.2321 N   0  0  0  0  0  0  0  0  0  0  0  0
  -26.4800  -12.7056   20.9337 N   0  0  0  0  0  0  0  0  0  0  0  0
  -23.2036  -29.5387   23.2151 N   0  0  0  0  0  0  0  0  0  0  0  0
  -29.8734  -13.6591   19.4742 N   0  0  0  0  0  0  0  0  0  0  0  0
  -26.2366  -14.6118   22.3186 N   0  0  0  0  0  0  0  0  0  0  0  0
  -21.9983  -13.1304   21.8308 N   0  0  0  0  0  0  0  0  0  0  0  0
  -26.6944  -20.3384   21.2392 N   0  0  0  0  0  0  0  0  0  0  0  0
  -30.0308  -15.9927   19.8401 N   0  0  0  0  0  0  0  0  0  0  0  0
  -19.7445  -30.4128   23.1984 N   0  0  0  0  0  0  0  0  0  0  0  0
  -26.2828  -30.9412   23.1159 N   0  0  0  0  0  0  0  0  0  0  0  0
  -28.8036  -29.3218   25.1384 N   0  3  0  0  0  0  0  0  0  0  0  0
  -23.3047  -14.7538   22.7882 O   0  0  0  0  0  0  0  0  0  0  0  0
  -31.8261  -19.6593   18.4924 O   0  0  0  0  0  0  0  0  0  0  0  0
  -31.8705  -17.4134   20.0090 O   0  0  0  0  0  0  0  0  0  0  0  0
  -21.0555  -29.2001   21.7042 O   0  0  0  0  0  0  0  0  0  0  0  0
  -24.2727  -21.0206   22.1886 O   0  0  0  0  0  0  0  0  0  0  0  0
  -23.6042  -31.7885   23.6780 O   0  0  0  0  0  0  0  0  0  0  0  0
  -27.2317  -28.8415   22.8548 O   0  0  0  0  0  0  0  0  0  0  0  0
  -31.9325  -14.7267   19.5258 O   0  0  0  0  0  0  0  0  0  0  0  0
  -20.3821   -8.6815   18.8929 O   0  0  0  0  0  0  0  0  0  0  0  0
  -23.1234  -23.4461   22.2525 O   0  0  0  0  0  0  0  0  0  1  0  0
  -21.1471   -3.2282   19.1758 F   0  0  0  0  0  0  0  0  0  0  0  0
  -18.6952   -7.0887   20.3962 F   0  0  0  0  0  0  0  0  0  0  0  0
  -28.2160  -18.1464   20.9606 S   0  0  0  0  0  0  0  0  0  0  0  0
  1  2  1  0  0  0  0
  1  5  2  0  0  0  0
  2  6  2  0  0  0  0
  3  8  2  0  0  0  0
  3 15  1  0  0  0  0
  4  9  1  0  0  0  0
  4 15  2  0  0  0  0
  5 17  1  0  0  0  0
  6 19  1  0  0  0  0
  7 10  2  0  0  0  0
  7 18  1  0  0  0  0
  8 21  1  0  0  0  0
  9 21  2  0  0  0  0
 10 22  1  0  0  0  0
 11 12  2  0  0  0  0
 11 23  1  0  0  0  0
 12 24  1  0  0  0  0
 13 20  1  0  0  0  0
 13 22  2  0  0  0  0
 14 24  2  0  0  0  0
 14 25  1  0  0  0  0
 15 26  1  0  0  0  0
 16 26  1  0  0  0  0
 16 29  2  0  0  0  0
 16 31  1  0  0  0  0
 17 19  2  0  0  0  0
 17 39  1  0  0  0  0
 18 20  2  0  0  0  0
 18 40  1  0  0  0  0
 19 48  1  0  0  0  0
 20 41  1  0  0  0  0
 21 82  1  0  0  0  0
 22 83  1  0  0  0  0
 23 25  2  0  0  0  0
 23 82  1  0  0  0  0
 24 84  1  0  0  0  0
 25 85  1  0  0  0  0
 26 62  2  0  0  0  0
 27 28  2  0  0  0  0
 27 32  1  0  0  0  0
 27 63  1  0  0  0  0
 28 33  1  0  0  0  0
 28 86  1  0  0  0  0
 29 64  1  0  0  0  0
 29 67  1  0  0  0  0
 30 63  2  0  0  0  0
 30 69  1  0  0  0  0
 30 86  1  0  0  0  0
 31 68  1  0  0  0  0
 31 74  2  0  0  0  0
 32 51  1  0  0  0  0
 32 75  2  0  0  0  0
 33 70  1  0  0  0  0
 33 76  2  0  0  0  0
 34 49  1  0  0  0  0
 34 71  1  0  0  0  0
 34 77  2  0  0  0  0
 35 57  1  0  0  0  0
 35 58  1  0  0  0  0
 35 78  2  0  0  0  0
 36 59  1  0  0  0  0
 36 65  1  0  0  0  0
 36 79  2  0  0  0  0
 37 60  1  0  0  0  0
 37 72  1  0  0  0  0
 37 80  2  0  0  0  0
 38 66  1  0  0  0  0
 38 70  1  0  0  0  0
 38 81  2  0  0  0  0
 39 42  1  0  0  0  0
 40 49  1  0  0  0  0
 41 65  1  0  0  0  0
 42 44  1  0  0  0  0
 43 45  1  0  0  0  0
 43 46  1  0  0  0  0
 44 48  1  0  0  0  0
 45 50  1  0  0  0  0
 46 66  1  0  0  0  0
 47 50  1  0  0  0  0
 47 66  1  0  0  0  0
 48 71  1  0  0  0  0
 49 65  1  0  0  0  0
 50 64  1  0  0  0  0
 52 60  1  0  0  0  0
 53 61  1  0  0  0  0
 54 61  1  0  0  0  0
 55 61  1  0  0  0  0
 56 73  1  0  0  0  0
 57 69  1  0  0  0  0
 58 83  1  0  0  0  0
 59 61  1  0  0  0  0
 59 72  1  0  0  0  0
 60 73  1  0  0  0  0
 62 64  1  0  0  0  0
M  CHG  1  73   1
M  ISO  4  38 100  58 101  70 100  83 101
M  END
> <Batch ID>
0162

> <Smiles>
CNC(C)C(=O)NC(C(=O)N1Cc2cc([101O:1][101CH2:1]C(=O)CNc3nc(C(C)=O)c(C(=O)[100NH:0][100C:0](=O)N4CCCC(n5nc(-c6ccc(Oc7ccc(F)cc7F)cc6)c(C(N)=O)c5N)C4)s3)ccc2CC1C(=O)NC1CCCc2ccccc21)C(C)(C)C

> <Shape>
0.257

> <Color>
0.111

> <Negative vol penalty>
0.000

$$$$

  -OEChem-04052303563D

 87 95  0     1  0  0  0  0  0999 V2000
  -20.3898   -8.6339   19.2853 C   0  0  0  0  0  0  0  0  0  0  0  0
  -20.1970  -10.0038   19.4321 C   0  0  0  0  0  0  0  0  0  0  0  0
  -25.3083  -27.1738   21.0589 C   0  0  0  0  0  0  0  0  0  0  0  0
  -27.0246  -28.5668   20.0837 C   0  0  0  0  0  0  0  0  0  0  0  0
  -21.5433   -8.0353   19.7903 C   0  0  0  0  0  0  0  0  0  0  0  0
  -21.1572  -10.7758   20.0851 C   0  0  0  0  0  0  0  0  0  0  0  0
  -22.7358  -16.5512   18.7974 C   0  0  0  0  0  0  0  0  0  0  0  0
  -25.9815  -26.0349   20.6170 C   0  0  0  0  0  0  0  0  0  0  0  0
  -27.6978  -27.4279   19.6418 C   0  0  0  0  0  0  0  0  0  0  0  0
  -22.3683  -17.7721   19.3615 C   0  0  0  0  0  0  0  0  0  0  0  0
  -26.3527  -24.3269   17.7240 C   0  0  0  0  0  0  0  0  0  0  0  0
  -25.5971  -23.3215   17.1208 C   0  0  0  0  0  0  0  0  0  0  0  0
  -24.3516  -17.7281   20.7341 C   0  0  0  0  0  0  0  0  0  0  0  0
  -20.2561  -24.6247   21.8284 C   0  0  0  0  0  0  0  0  0  0  0  0
  -26.3051  -21.7652   18.8278 C   0  0  0  0  0  0  0  0  0  0  0  0
  -25.8298  -28.4398   20.7923 C   0  0  0  0  0  0  0  0  0  0  0  0
  -25.2988  -30.2772   22.4803 C   0  0  0  0  0  0  0  0  0  0  0  0
  -22.5226   -8.8019   20.4413 C   0  0  0  0  0  0  0  0  0  0  0  0
  -23.9104  -15.9032   19.2060 C   0  0  0  0  0  0  0  0  0  0  0  0
  -22.3243  -10.1867   20.6005 C   0  0  0  0  0  0  0  0  0  0  0  0
  -24.7331  -16.5003   20.1717 C   0  0  0  0  0  0  0  0  0  0  0  0
  -20.0310  -25.7362   22.6752 C   0  0  0  0  0  0  0  0  0  0  0  0
  -27.1763  -26.1619   19.9085 C   0  0  0  0  0  0  0  0  0  0  0  0
  -23.1747  -18.3593   20.3321 C   0  0  0  0  0  0  0  0  0  0  0  0
  -27.0846  -24.0514   18.8791 C   0  0  0  0  0  0  0  0  0  0  0  0
  -25.5733  -22.0407   17.6726 C   0  0  0  0  0  0  0  0  0  0  0  0
  -27.0608  -22.7706   19.4310 C   0  0  0  0  0  0  0  0  0  0  0  0
  -25.1345  -29.6166   21.2480 C   0  0  0  0  0  0  0  0  0  0  0  0
  -21.0003  -26.6595   22.3594 C   0  0  0  0  0  0  0  0  0  0  0  0
  -24.4163  -31.3284   22.4266 C   0  0  0  0  0  0  0  0  0  0  0  0
  -21.3468  -24.9482   21.0553 C   0  0  0  0  0  0  0  0  0  0  0  0
  -26.1711  -29.9684   23.5754 C   0  0  0  0  0  0  0  0  0  0  0  0
  -21.1604  -27.9785   22.9873 C   0  0  0  0  0  0  0  0  0  0  0  0
  -24.5708  -13.1203   20.5926 C   0  0  0  0  0  0  0  0  0  0  0  0
  -22.3717  -21.8881   20.4265 C   0  0  0  0  0  0  0  0  0  0  0  0
  -27.6390  -14.0170   20.0410 C   0  0  0  0  0  0  0  0  0  0  0  0
  -29.8666  -16.5465   19.5063 C   0  0  0  0  0  0  0  0  0  0  0  0
  -20.8553  -29.2615   20.8444 C   0  0  0  0  0  0  0  0  0  0  0  0
  -23.7309   -8.1027   21.0123 C   0  0  0  0  0  0  0  0  0  0  0  0
  -24.3066  -14.5998   18.5685 C   0  0  0  0  0  0  0  0  0  0  0  0
  -26.0146  -15.8553   20.6302 C   0  0  0  0  0  0  0  0  0  0  0  0
  -24.8751   -9.0511   21.3610 C   0  0  0  0  0  0  0  0  0  0  0  0
  -21.9802  -31.2450   18.3324 C   0  0  0  0  0  0  0  0  0  0  0  0
  -24.3509  -10.2609   22.1280 C   0  0  0  0  0  0  0  0  0  0  0  0
  -22.6975  -32.3605   19.1113 C   0  0  0  0  0  0  0  0  0  0  0  0
  -20.6530  -30.8457   18.9722 C   0  0  0  0  0  0  0  0  0  0  0  0
  -21.3194  -31.7624   21.1350 C   0  0  0  0  0  0  0  0  0  0  0  0
  -23.3545  -11.0617   21.2810 C   0  0  1  0  0  0  0  0  0  0  0  0
  -25.2599  -13.7783   19.4308 C   0  0  1  0  0  0  0  0  0  0  0  0
  -22.7289  -32.1645   20.6494 C   0  0  1  0  0  0  0  0  0  0  0  0
  -32.3106  -16.9719   19.1274 C   0  0  0  0  0  0  0  0  0  0  0  0
  -22.5696  -28.9934   26.2092 C   0  0  0  0  0  0  0  0  0  0  0  0
  -20.2450  -29.7399   25.5812 C   0  0  0  0  0  0  0  0  0  0  0  0
  -28.1785  -13.5445   23.0068 C   0  0  0  0  0  0  0  0  0  0  0  0
  -30.2940  -14.8605   22.7602 C   0  0  0  0  0  0  0  0  0  0  0  0
  -29.9874  -12.7435   21.4768 C   0  0  0  0  0  0  0  0  0  0  0  0
  -29.3639  -17.7511   16.8501 C   0  0  0  0  0  0  0  0  0  0  0  0
  -21.6401  -22.9340   19.6122 C   0  0  0  0  0  0  0  0  0  0  0  0
  -22.0666  -20.4468   20.0672 C   0  0  0  0  0  0  0  0  0  1  0  0
  -28.6781  -14.7999   20.8067 C   0  0  1  0  0  0  0  0  0  0  0  0
  -30.9622  -16.7217   18.4701 C   0  0  2  0  0  0  0  0  0  0  0  0
  -21.6029  -29.2847   25.0742 C   0  0  0  0  0  0  0  0  0  0  0  0
  -29.2595  -13.9986   22.0056 C   0  0  0  0  0  0  0  0  0  0  0  0
  -24.2196  -30.1991   20.4686 N   0  0  0  0  0  0  0  0  0  0  0  0
  -23.8009  -31.2368   21.2129 N   0  0  0  0  0  0  0  0  0  0  0  0
  -26.3556  -14.5784   19.9816 N   0  0  0  0  0  0  0  0  0  0  0  0
  -20.8561  -30.5848   20.3944 N   0  0  0  0  0  0  0  0  0  0  0  0
  -19.0586  -25.8562   23.6027 N   0  0  0  0  0  0  0  0  0  0  0  0
  -24.1145  -32.3127   23.2997 N   0  0  0  0  0  0  0  0  0  0  0  0
  -27.0126  -28.8531   23.4653 N   0  0  0  0  0  0  0  0  0  0  0  0
  -22.0136  -24.2521   20.0572 N   0  0  0  0  0  0  0  0  0  0  0  0
  -21.0868  -29.1067   22.2664 N   0  0  0  0  0  0  0  0  0  0  0  0
  -24.0552  -11.8706   20.3067 N   0  0  0  0  0  0  0  0  0  0  0  0
  -29.6758  -15.2195   19.8285 N   0  0  0  0  0  0  0  0  0  0  0  0
  -21.4171  -28.0516   24.3007 N   0  3  0  0  0  0  0  0  0  0  0  0
  -30.6525  -17.8752   17.5788 N   0  3  0  0  0  0  0  0  0  0  0  0
  -26.1915  -30.6514   24.6274 O   0  0  0  0  0  0  0  0  0  0  0  0
  -24.5126  -13.7027   21.6693 O   0  0  0  0  0  0  0  0  0  0  0  0
  -23.1634  -22.1767   21.3230 O   0  0  0  0  0  0  0  0  0  0  0  0
  -27.9562  -12.9502   19.5090 O   0  0  0  0  0  0  0  0  0  0  0  0
  -29.2450  -17.4926   19.9848 O   0  0  0  0  0  0  0  0  0  0  0  0
  -20.6950  -28.2764   20.1320 O   0  0  0  0  0  0  0  0  0  0  0  0
  -21.8064  -26.1870   21.3727 O   0  0  0  0  0  0  0  0  0  0  0  0
  -27.8336  -25.0508   19.4773 O   0  0  0  0  0  0  0  0  0  0  0  0
  -22.8180  -19.5506   20.8848 O   0  0  0  0  0  0  0  0  0  1  0  0
  -24.8465  -21.0757   17.0941 F   0  0  0  0  0  0  0  0  0  0  0  0
  -27.7609  -22.5003   20.5412 F   0  0  0  0  0  0  0  0  0  0  0  0
  1  2  1  0  0  0  0
  1  5  2  0  0  0  0
  2  6  2  0  0  0  0
  3  8  2  0  0  0  0
  3 16  1  0  0  0  0
  4  9  1  0  0  0  0
  4 16  2  0  0  0  0
  5 18  1  0  0  0  0
  6 20  1  0  0  0  0
  7 10  2  0  0  0  0
  7 19  1  0  0  0  0
  8 23  1  0  0  0  0
  9 23  2  0  0  0  0
 10 24  1  0  0  0  0
 11 12  2  0  0  0  0
 11 25  1  0  0  0  0
 12 26  1  0  0  0  0
 13 21  1  0  0  0  0
 13 24  2  0  0  0  0
 14 22  1  0  0  0  0
 14 31  2  0  0  0  0
 15 26  2  0  0  0  0
 15 27  1  0  0  0  0
 16 28  1  0  0  0  0
 17 28  1  0  0  0  0
 17 30  2  0  0  0  0
 17 32  1  0  0  0  0
 18 20  2  0  0  0  0
 18 39  1  0  0  0  0
 19 21  2  0  0  0  0
 19 40  1  0  0  0  0
 20 48  1  0  0  0  0
 21 41  1  0  0  0  0
 22 29  2  0  0  0  0
 22 68  1  0  0  0  0
 23 84  1  0  0  0  0
 24 85  1  0  0  0  0
 25 27  2  0  0  0  0
 25 84  1  0  0  0  0
 26 86  1  0  0  0  0
 27 87  1  0  0  0  0
 28 64  2  0  0  0  0
 29 33  1  0  0  0  0
 29 83  1  0  0  0  0
 30 65  1  0  0  0  0
 30 69  1  0  0  0  0
 31 71  1  0  0  0  0
 31 83  1  0  0  0  0
 32 70  1  0  0  0  0
 32 77  2  0  0  0  0
 33 72  1  0  0  0  0
 33 75  2  0  0  0  0
 34 49  1  0  0  0  0
 34 73  1  0  0  0  0
 34 78  2  0  0  0  0
 35 58  1  0  0  0  0
 35 59  1  0  0  0  0
 35 79  2  0  0  0  0
 36 60  1  0  0  0  0
 36 66  1  0  0  0  0
 36 80  2  0  0  0  0
 37 61  1  0  0  0  0
 37 74  1  0  0  0  0
 37 81  2  0  0  0  0
 38 67  1  0  0  0  0
 38 72  1  0  0  0  0
 38 82  2  0  0  0  0
 39 42  1  0  0  0  0
 40 49  1  0  0  0  0
 41 66  1  0  0  0  0
 42 44  1  0  0  0  0
 43 45  1  0  0  0  0
 43 46  1  0  0  0  0
 44 48  1  0  0  0  0
 45 50  1  0  0  0  0
 46 67  1  0  0  0  0
 47 50  1  0  0  0  0
 47 67  1  0  0  0  0
 48 73  1  0  0  0  0
 49 66  1  0  0  0  0
 50 65  1  0  0  0  0
 51 61  1  0  0  0  0
 52 62  1  0  0  0  0
 53 62  1  0  0  0  0
 54 63  1  0  0  0  0
 55 63  1  0  0  0  0
 56 63  1  0  0  0  0
 57 76  1  0  0  0  0
 58 71  1  0  0  0  0
 59 85  1  0  0  0  0
 60 63  1  0  0  0  0
 60 74  1  0  0  0  0
 61 76  1  0  0  0  0
 62 75  1  0  0  0  0
 64 65  1  0  0  0  0
M  CHG  2  75   1  76   1
M  ISO  4  38 100  59 101  72 100  85 101
M  END
> <Batch ID>
0162

> <Smiles>
CNC(C)C(=O)NC(C(=O)N1Cc2cc([101O:1][101CH2:1]C(=O)CNc3cc(N)c(C(=NC(C)C)[100NH:0][100C:0](=O)N4CCCC(n5nc(-c6ccc(Oc7ccc(F)cc7F)cc6)c(C(N)=O)c5N)C4)o3)ccc2CC1C(=O)NC1CCCc2ccccc21)C(C)(C)C

> <Shape>
0.257

> <Color>
0.060

> <Negative vol penalty>
0.000

$$$$

  -OEChem-04052303563D

 84 92  0     1  0  0  0  0  0999 V2000
  -20.2345  -23.5348   33.4908 C   0  0  0  0  0  0  0  0  0  0  0  0
  -21.1147  -23.1704   32.4770 C   0  0  0  0  0  0  0  0  0  0  0  0
  -23.2007   -9.8507   19.9528 C   0  0  0  0  0  0  0  0  0  0  0  0
  -23.9121   -9.9302   22.2603 C   0  0  0  0  0  0  0  0  0  0  0  0
  -19.6293  -22.5524   34.2734 C   0  0  0  0  0  0  0  0  0  0  0  0
  -21.3910  -21.8233   32.2459 C   0  0  0  0  0  0  0  0  0  0  0  0
  -21.3150  -20.6414   27.3222 C   0  0  0  0  0  0  0  0  0  0  0  0
  -32.1325  -17.5362   21.9640 C   0  0  0  0  0  0  0  0  0  0  0  0
  -22.5093   -8.6662   20.2067 C   0  0  0  0  0  0  0  0  0  0  0  0
  -23.2206   -8.7457   22.5143 C   0  0  0  0  0  0  0  0  0  0  0  0
  -22.4321  -20.9929   26.5657 C   0  0  0  0  0  0  0  0  0  0  0  0
  -20.0238   -7.7989   23.0658 C   0  0  0  0  0  0  0  0  0  0  0  0
  -31.9512  -18.8904   21.6833 C   0  0  0  0  0  0  0  0  0  0  0  0
  -19.2458   -7.7395   24.2219 C   0  0  0  0  0  0  0  0  0  0  0  0
  -23.2415  -18.7255   26.7186 C   0  0  0  0  0  0  0  0  0  0  0  0
  -30.0368  -17.5047   23.1658 C   0  0  0  0  0  0  0  0  0  0  0  0
  -20.5653   -5.8772   25.0142 C   0  0  0  0  0  0  0  0  0  0  0  0
  -23.9022  -10.4827   20.9796 C   0  0  0  0  0  0  0  0  0  0  0  0
  -24.1221  -13.0195   20.8252 C   0  0  0  0  0  0  0  0  0  0  0  0
  -19.8909  -21.1922   34.0455 C   0  0  0  0  0  0  0  0  0  0  0  0
  -21.1579  -19.3297   27.7926 C   0  0  0  0  0  0  0  0  0  0  0  0
  -20.7898  -20.8219   33.0271 C   0  0  0  0  0  0  0  0  0  0  0  0
  -22.1202  -18.3594   27.4787 C   0  0  0  0  0  0  0  0  0  0  0  0
  -31.1752  -16.8433   22.7051 C   0  0  0  0  0  0  0  0  0  0  0  0
  -29.8556  -18.8590   22.8852 C   0  0  0  0  0  0  0  0  0  0  0  0
  -22.5192   -8.1137   21.4875 C   0  0  0  0  0  0  0  0  0  0  0  0
  -23.3970  -20.0356   26.2662 C   0  0  0  0  0  0  0  0  0  0  0  0
  -21.0725   -6.8973   22.8837 C   0  0  0  0  0  0  0  0  0  0  0  0
  -19.5165   -6.7787   25.1962 C   0  0  0  0  0  0  0  0  0  0  0  0
  -30.8128  -19.5518   22.1440 C   0  0  0  0  0  0  0  0  0  0  0  0
  -21.3433   -5.9365   23.8580 C   0  0  0  0  0  0  0  0  0  0  0  0
  -24.6171  -11.7060   20.7177 C   0  0  0  0  0  0  0  0  0  0  0  0
  -25.1835  -13.8164   20.4715 C   0  0  0  0  0  0  0  0  0  0  0  0
  -22.8195  -13.4784   21.2105 C   0  0  0  0  0  0  0  0  0  0  0  0
  -20.9688  -17.9849   30.6665 C   0  0  0  0  0  0  0  0  0  0  0  0
  -26.6027  -19.8832   24.4510 C   0  0  0  0  0  0  0  0  0  0  0  0
  -20.3357  -15.3102   28.9438 C   0  0  0  0  0  0  0  0  0  0  0  0
  -20.6192  -13.6361   25.9834 C   0  0  0  0  0  0  0  0  0  0  0  0
  -30.9471  -14.0589   20.9569 C   0  0  0  0  0  0  0  0  0  0  0  0
  -19.2493  -20.1684   34.9482 C   0  0  0  0  0  0  0  0  0  0  0  0
  -19.9339  -18.9602   28.5848 C   0  0  0  0  0  0  0  0  0  0  0  0
  -21.9883  -16.9325   27.9426 C   0  0  0  0  0  0  0  0  0  0  0  0
  -19.3066  -18.7470   34.3945 C   0  0  0  0  0  0  0  0  0  0  0  0
  -29.3561  -13.1275   17.9109 C   0  0  0  0  0  0  0  0  0  0  0  0
  -20.7068  -18.4313   33.8781 C   0  0  0  0  0  0  0  0  0  0  0  0
  -27.9259  -12.7881   18.3342 C   0  0  0  0  0  0  0  0  0  0  0  0
  -30.3735  -12.7002   18.9665 C   0  0  0  0  0  0  0  0  0  0  0  0
  -28.6789  -12.8724   20.7476 C   0  0  0  0  0  0  0  0  0  0  0  0
  -21.0958  -19.3700   32.7295 C   0  0  1  0  0  0  0  0  0  0  0  0
  -20.1328  -17.7175   29.4470 C   0  0  1  0  0  0  0  0  0  0  0  0
  -27.6125  -13.3348   19.7399 C   0  0  2  0  0  0  0  0  0  0  0  0
  -20.0354  -11.4538   24.8907 C   0  0  0  0  0  0  0  0  0  0  0  0
  -22.6001  -13.9447   30.4663 C   0  0  0  0  0  0  0  0  0  0  0  0
  -22.5994  -12.1510   28.7197 C   0  0  0  0  0  0  0  0  0  0  0  0
  -20.5702  -12.5252   30.1216 C   0  0  0  0  0  0  0  0  0  0  0  0
  -18.9525  -14.9741   23.9363 C   0  0  0  0  0  0  0  0  0  0  0  0
  -31.3695  -15.3954   23.0049 C   0  0  0  0  0  0  0  0  0  0  0  0
  -27.6846  -18.8790   24.1150 C   0  0  0  0  0  0  0  0  0  0  0  0
  -25.4378  -19.3452   25.2590 C   0  0  0  0  0  0  0  0  0  1  0  0
  -21.1693  -14.2093   28.3336 C   0  0  1  0  0  0  0  0  0  0  0  0
  -19.5968  -12.8871   25.1479 C   0  0  2  0  0  0  0  0  0  0  0  0
  -21.7385  -13.2348   29.4030 C   0  0  0  0  0  0  0  0  0  0  0  0
  -25.8934  -11.6663   20.3261 N   0  0  0  0  0  0  0  0  0  0  0  0
  -26.2095  -12.9648   20.1844 N   0  0  0  0  0  0  0  0  0  0  0  0
  -20.7769  -16.6220   28.7195 N   0  0  0  0  0  0  0  0  0  0  0  0
  -30.0196  -13.2531   20.2761 N   0  0  0  0  0  0  0  0  0  0  0  0
  -25.3298  -15.1553   20.3809 N   0  0  0  0  0  0  0  0  0  0  0  0
  -21.8467  -12.5256   21.5424 N   0  0  0  0  0  0  0  0  0  0  0  0
  -28.7223  -19.5149   23.3442 N   0  0  0  0  0  0  0  0  0  0  0  0
  -20.4524  -18.9582   31.5003 N   0  0  0  0  0  0  0  0  0  0  0  0
  -20.3271  -13.5686   27.3293 N   0  0  0  0  0  0  0  0  0  0  0  0
  -30.5295  -14.5474   22.1888 N   0  0  0  0  0  0  0  0  0  0  0  0
  -19.4065  -13.5633   23.8336 N   0  3  0  0  0  0  0  0  0  0  0  0
  -22.5221  -14.6965   21.2431 O   0  0  0  0  0  0  0  0  0  0  0  0
  -22.0049  -17.3537   30.8390 O   0  0  0  0  0  0  0  0  0  0  0  0
  -26.6544  -21.0604   24.0969 O   0  0  0  0  0  0  0  0  0  0  0  0
  -19.3263  -15.0173   29.5895 O   0  0  0  0  0  0  0  0  0  0  0  0
  -21.5829  -14.2193   25.4917 O   0  0  0  0  0  0  0  0  0  0  0  0
  -32.0626  -14.3277   20.4982 O   0  0  0  0  0  0  0  0  0  0  0  0
  -21.8445   -6.9580   21.7357 O   0  0  0  0  0  0  0  0  0  0  0  0
  -24.4887  -20.3762   25.5286 O   0  0  0  0  0  0  0  0  0  1  0  0
  -18.7703   -6.7229   26.3072 F   0  0  0  0  0  0  0  0  0  0  0  0
  -30.6486  -20.8535   21.8681 F   0  0  0  0  0  0  0  0  0  0  0  0
  -22.3502   -5.0685   23.6893 F   0  0  0  0  0  0  0  0  0  0  0  0
  1  2  1  0  0  0  0
  1  5  2  0  0  0  0
  2  6  2  0  0  0  0
  3  9  2  0  0  0  0
  3 18  1  0  0  0  0
  4 10  1  0  0  0  0
  4 18  2  0  0  0  0
  5 20  1  0  0  0  0
  6 22  1  0  0  0  0
  7 11  2  0  0  0  0
  7 21  1  0  0  0  0
  8 13  2  0  0  0  0
  8 24  1  0  0  0  0
  9 26  1  0  0  0  0
 10 26  2  0  0  0  0
 11 27  1  0  0  0  0
 12 14  2  0  0  0  0
 12 28  1  0  0  0  0
 13 30  1  0  0  0  0
 14 29  1  0  0  0  0
 15 23  1  0  0  0  0
 15 27  2  0  0  0  0
 16 24  2  0  0  0  0
 16 25  1  0  0  0  0
 17 29  2  0  0  0  0
 17 31  1  0  0  0  0
 18 32  1  0  0  0  0
 19 32  1  0  0  0  0
 19 33  2  0  0  0  0
 19 34  1  0  0  0  0
 20 22  2  0  0  0  0
 20 40  1  0  0  0  0
 21 23  2  0  0  0  0
 21 41  1  0  0  0  0
 22 49  1  0  0  0  0
 23 42  1  0  0  0  0
 24 57  1  0  0  0  0
 25 30  2  0  0  0  0
 25 69  1  0  0  0  0
 26 80  1  0  0  0  0
 27 81  1  0  0  0  0
 28 31  2  0  0  0  0
 28 80  1  0  0  0  0
 29 82  1  0  0  0  0
 30 83  1  0  0  0  0
 31 84  1  0  0  0  0
 32 63  2  0  0  0  0
 33 64  1  0  0  0  0
 33 67  1  0  0  0  0
 34 68  1  0  0  0  0
 34 74  2  0  0  0  0
 35 50  1  0  0  0  0
 35 70  1  0  0  0  0
 35 75  2  0  0  0  0
 36 58  1  0  0  0  0
 36 59  1  0  0  0  0
 36 76  2  0  0  0  0
 37 60  1  0  0  0  0
 37 65  1  0  0  0  0
 37 77  2  0  0  0  0
 38 61  1  0  0  0  0
 38 71  1  0  0  0  0
 38 78  2  0  0  0  0
 39 66  1  0  0  0  0
 39 72  1  0  0  0  0
 39 79  2  0  0  0  0
 40 43  1  0  0  0  0
 41 50  1  0  0  0  0
 42 65  1  0  0  0  0
 43 45  1  0  0  0  0
 44 46  1  0  0  0  0
 44 47  1  0  0  0  0
 45 49  1  0  0  0  0
 46 51  1  0  0  0  0
 47 66  1  0  0  0  0
 48 51  1  0  0  0  0
 48 66  1  0  0  0  0
 49 70  1  0  0  0  0
 50 65  1  0  0  0  0
 51 64  1  0  0  0  0
 52 61  1  0  0  0  0
 53 62  1  0  0  0  0
 54 62  1  0  0  0  0
 55 62  1  0  0  0  0
 56 73  1  0  0  0  0
 57 72  1  0  0  0  0
 58 69  1  0  0  0  0
 59 81  1  0  0  0  0
 60 62  1  0  0  0  0
 60 71  1  0  0  0  0
 61 73  1  0  0  0  0
 63 64  1  0  0  0  0
M  CHG  1  73   1
M  ISO  4  39 100  59 101  72 100  81 101
M  END
> <Batch ID>
0162

> <Smiles>
CNC(C)C(=O)NC(C(=O)N1Cc2cc([101O:1][101CH2:1]C(=O)CNc3cc(C[100NH:0][100C:0](=O)N4CCCC(n5nc(-c6ccc(Oc7ccc(F)cc7F)cc6)c(C(N)=O)c5N)C4)ccc3F)ccc2CC1C(=O)NC1CCCc2ccccc21)C(C)(C)C

> <Shape>
0.171

> <Color>
0.185

> <Negative vol penalty>
0.000

$$$$

  -OEChem-04052303563D

 85 93  0     1  0  0  0  0  0999 V2000
  -27.5608  -37.4863   22.8895 C   0  0  0  0  0  0  0  0  0  0  0  0
  -28.1598  -36.4926   22.1220 C   0  0  0  0  0  0  0  0  0  0  0  0
  -24.3548   -9.2103   19.9814 C   0  0  0  0  0  0  0  0  0  0  0  0
  -24.3192   -9.8122   22.3210 C   0  0  0  0  0  0  0  0  0  0  0  0
  -26.7342  -37.1380   23.9570 C   0  0  0  0  0  0  0  0  0  0  0  0
  -27.9334  -35.1498   22.4222 C   0  0  0  0  0  0  0  0  0  0  0  0
  -27.3189  -28.7497   19.2634 C   0  0  0  0  0  0  0  0  0  0  0  0
  -24.1436   -7.8743   20.3219 C   0  0  0  0  0  0  0  0  0  0  0  0
  -24.1079   -8.4761   22.6615 C   0  0  0  0  0  0  0  0  0  0  0  0
  -27.8330  -27.4562   19.3417 C   0  0  0  0  0  0  0  0  0  0  0  0
  -21.5217   -6.3016   22.7212 C   0  0  0  0  0  0  0  0  0  0  0  0
  -20.5465   -6.0250   23.6793 C   0  0  0  0  0  0  0  0  0  0  0  0
  -27.9385  -20.2659   21.7867 C   0  0  0  0  0  0  0  0  0  0  0  0
  -26.3232  -26.9726   21.1600 C   0  0  0  0  0  0  0  0  0  0  0  0
  -22.2208   -5.0003   25.0877 C   0  0  0  0  0  0  0  0  0  0  0  0
  -24.4427  -10.1793   20.9810 C   0  0  0  0  0  0  0  0  0  0  0  0
  -27.1473  -21.3749   22.1706 C   0  0  0  0  0  0  0  0  0  0  0  0
  -23.6815  -12.5347   20.3644 C   0  0  0  0  0  0  0  0  0  0  0  0
  -26.4899  -35.7903   24.2644 C   0  0  0  0  0  0  0  0  0  0  0  0
  -26.3089  -29.1686   20.1415 C   0  0  0  0  0  0  0  0  0  0  0  0
  -27.1039  -34.7831   23.4956 C   0  0  0  0  0  0  0  0  0  0  0  0
  -25.7962  -28.2712   21.0891 C   0  0  0  0  0  0  0  0  0  0  0  0
  -24.0201   -7.5072   21.6619 C   0  0  0  0  0  0  0  0  0  0  0  0
  -27.3372  -26.5683   20.2920 C   0  0  0  0  0  0  0  0  0  0  0  0
  -22.8465   -5.9275   22.9463 C   0  0  0  0  0  0  0  0  0  0  0  0
  -20.8960   -5.3743   24.8626 C   0  0  0  0  0  0  0  0  0  0  0  0
  -23.1961   -5.2769   24.1296 C   0  0  0  0  0  0  0  0  0  0  0  0
  -24.6614  -11.5595   20.6300 C   0  0  0  0  0  0  0  0  0  0  0  0
  -24.3972  -13.6729   20.0834 C   0  0  0  0  0  0  0  0  0  0  0  0
  -27.1195  -19.1642   21.8727 C   0  0  0  0  0  0  0  0  0  0  0  0
  -25.9011  -20.8718   22.4637 C   0  0  0  0  0  0  0  0  0  0  0  0
  -27.5471  -22.8034   22.2520 C   0  0  0  0  0  0  0  0  0  0  0  0
  -22.2522  -12.4219   20.3712 C   0  0  0  0  0  0  0  0  0  0  0  0
  -26.0688  -31.4178   22.3747 C   0  0  0  0  0  0  0  0  0  0  0  0
  -29.9270  -24.4939   19.4738 C   0  0  0  0  0  0  0  0  0  0  0  0
  -22.9715  -30.4576   22.4561 C   0  0  0  0  0  0  0  0  0  0  0  0
  -20.6860  -27.9924   21.8678 C   0  0  0  0  0  0  0  0  0  0  0  0
  -28.5535  -17.2100   21.1867 C   0  0  0  0  0  0  0  0  0  0  0  0
  -25.6268  -35.4627   25.4571 C   0  0  0  0  0  0  0  0  0  0  0  0
  -25.7463  -30.5588   20.0265 C   0  0  0  0  0  0  0  0  0  0  0  0
  -24.6980  -28.6653   22.0416 C   0  0  0  0  0  0  0  0  0  0  0  0
  -25.1391  -34.0163   25.4771 C   0  0  0  0  0  0  0  0  0  0  0  0
  -29.3462  -14.3302   19.2487 C   0  0  0  0  0  0  0  0  0  0  0  0
  -26.2888  -33.0610   25.1736 C   0  0  0  0  0  0  0  0  0  0  0  0
  -28.1175  -13.4328   19.4135 C   0  0  0  0  0  0  0  0  0  0  0  0
  -29.6712  -15.0885   20.5344 C   0  0  0  0  0  0  0  0  0  0  0  0
  -27.3241  -14.9523   21.2706 C   0  0  0  0  0  0  0  0  0  0  0  0
  -26.8628  -33.3154   23.7746 C   0  0  1  0  0  0  0  0  0  0  0  0
  -25.0777  -31.0409   21.3102 C   0  0  1  0  0  0  0  0  0  0  0  0
  -26.9189  -14.2174   19.9824 C   0  0  2  0  0  0  0  0  0  0  0  0
  -31.4239  -24.3378   19.5583 C   0  0  0  0  0  0  0  0  0  0  0  0
  -18.2359  -27.4888   22.0689 C   0  0  0  0  0  0  0  0  0  0  0  0
  -23.2994  -30.0761   25.4656 C   0  0  0  0  0  0  0  0  0  0  0  0
  -21.2025  -28.7082   25.4503 C   0  0  0  0  0  0  0  0  0  0  0  0
  -21.1287  -31.1086   24.7754 C   0  0  0  0  0  0  0  0  0  0  0  0
  -20.4117  -27.5853   18.9492 C   0  0  0  0  0  0  0  0  0  0  0  0
  -29.4055  -24.4211   21.9604 C   0  0  0  0  0  0  0  0  0  0  0  0
  -29.2317  -25.1752   20.6475 C   0  0  2  0  0  0  0  0  0  1  0  0
  -22.1944  -29.4179   23.2269 C   0  0  1  0  0  0  0  0  0  0  0  0
  -19.3407  -28.0129   21.1648 C   0  0  2  0  0  0  0  0  0  0  0  0
  -21.9783  -29.8206   24.7130 C   0  0  0  0  0  0  0  0  0  0  0  0
  -25.9048  -12.0364   20.5268 N   0  0  0  0  0  0  0  0  0  0  0  0
  -25.7110  -13.3237   20.1931 N   0  0  0  0  0  0  0  0  0  0  0  0
  -24.1852  -30.0374   21.8939 N   0  0  0  0  0  0  0  0  0  0  0  0
  -28.4904  -15.8113   21.0122 N   0  0  0  0  0  0  0  0  0  0  0  0
  -24.0244  -14.9283   19.7555 N   0  0  0  0  0  0  0  0  0  0  0  0
  -24.7595  -21.4615   22.8780 N   0  0  0  0  0  0  0  0  0  0  0  0
  -21.6815  -11.1800   20.6812 N   0  0  0  0  0  0  0  0  0  0  0  0
  -27.3605  -17.7922   21.6135 N   0  0  0  0  0  0  0  0  0  0  0  0
  -28.8621  -23.0890   21.9086 N   0  0  0  0  0  0  0  0  0  0  0  0
  -26.0012  -32.7423   22.7628 N   0  0  0  0  0  0  0  0  0  0  0  0
  -20.9596  -29.1960   22.4823 N   0  0  0  0  0  0  0  0  0  0  0  0
  -19.3844  -27.1680   19.9379 N   0  3  0  0  0  0  0  0  0  0  0  0
  -26.7258  -23.6358   22.6278 O   0  0  0  0  0  0  0  0  0  0  0  0
  -21.5036  -13.3895   20.0940 O   0  0  0  0  0  0  0  0  0  0  0  0
  -26.8371  -30.5694   22.8126 O   0  0  0  0  0  0  0  0  0  0  0  0
  -29.3051  -24.0924   18.4900 O   0  0  0  0  0  0  0  0  0  0  0  0
  -22.5148  -31.5987   22.3506 O   0  0  0  0  0  0  0  0  0  0  0  0
  -21.4191  -27.0059   21.8745 O   0  0  0  0  0  0  0  0  0  0  0  0
  -29.5818  -17.8481   20.9470 O   0  0  0  0  0  0  0  0  0  0  0  0
  -25.8758  -19.5250   22.2846 O   0  0  0  0  0  0  0  0  0  0  0  0
  -23.8137   -6.2036   21.9944 O   0  0  0  0  0  0  0  0  0  0  0  0
  -27.8378  -25.3053   20.3710 O   0  0  0  0  0  0  0  0  0  1  0  0
  -19.9597   -5.1101   25.7833 F   0  0  0  0  0  0  0  0  0  0  0  0
  -24.4674   -4.9162   24.3520 F   0  0  0  0  0  0  0  0  0  0  0  0
  1  2  1  0  0  0  0
  1  5  2  0  0  0  0
  2  6  2  0  0  0  0
  3  8  2  0  0  0  0
  3 16  1  0  0  0  0
  4  9  1  0  0  0  0
  4 16  2  0  0  0  0
  5 19  1  0  0  0  0
  6 21  1  0  0  0  0
  7 10  2  0  0  0  0
  7 20  1  0  0  0  0
  8 23  1  0  0  0  0
  9 23  2  0  0  0  0
 10 24  1  0  0  0  0
 11 12  2  0  0  0  0
 11 25  1  0  0  0  0
 12 26  1  0  0  0  0
 13 17  1  0  0  0  0
 13 30  2  0  0  0  0
 14 22  1  0  0  0  0
 14 24  2  0  0  0  0
 15 26  2  0  0  0  0
 15 27  1  0  0  0  0
 16 28  1  0  0  0  0
 17 31  2  0  0  0  0
 17 32  1  0  0  0  0
 18 28  1  0  0  0  0
 18 29  2  0  0  0  0
 18 33  1  0  0  0  0
 19 21  2  0  0  0  0
 19 39  1  0  0  0  0
 20 22  2  0  0  0  0
 20 40  1  0  0  0  0
 21 48  1  0  0  0  0
 22 41  1  0  0  0  0
 23 82  1  0  0  0  0
 24 83  1  0  0  0  0
 25 27  2  0  0  0  0
 25 82  1  0  0  0  0
 26 84  1  0  0  0  0
 27 85  1  0  0  0  0
 28 62  2  0  0  0  0
 29 63  1  0  0  0  0
 29 66  1  0  0  0  0
 30 69  1  0  0  0  0
 30 81  1  0  0  0  0
 31 67  1  0  0  0  0
 31 81  1  0  0  0  0
 32 70  1  0  0  0  0
 32 74  2  0  0  0  0
 33 68  1  0  0  0  0
 33 75  2  0  0  0  0
 34 49  1  0  0  0  0
 34 71  1  0  0  0  0
 34 76  2  0  0  0  0
 35 51  1  0  0  0  0
 35 58  1  0  0  0  0
 35 77  2  0  0  0  0
 36 59  1  0  0  0  0
 36 64  1  0  0  0  0
 36 78  2  0  0  0  0
 37 60  1  0  0  0  0
 37 72  1  0  0  0  0
 37 79  2  0  0  0  0
 38 65  1  0  0  0  0
 38 69  1  0  0  0  0
 38 80  2  0  0  0  0
 39 42  1  0  0  0  0
 40 49  1  0  0  0  0
 41 64  1  0  0  0  0
 42 44  1  0  0  0  0
 43 45  1  0  0  0  0
 43 46  1  0  0  0  0
 44 48  1  0  0  0  0
 45 50  1  0  0  0  0
 46 65  1  0  0  0  0
 47 50  1  0  0  0  0
 47 65  1  0  0  0  0
 48 71  1  0  0  0  0
 49 64  1  0  0  0  0
 50 63  1  0  0  0  0
 52 60  1  0  0  0  0
 53 61  1  0  0  0  0
 54 61  1  0  0  0  0
 55 61  1  0  0  0  0
 56 73  1  0  0  0  0
 57 58  1  0  0  0  0
 57 70  1  0  0  0  0
 58 83  1  0  0  0  0
 59 61  1  0  0  0  0
 59 72  1  0  0  0  0
 60 73  1  0  0  0  0
 62 63  1  0  0  0  0
M  CHG  1  73   1
M  ISO  4  38 100  58 101  69 100  83 101
M  END
> <Batch ID>
0162

> <Smiles>
CNC(C)C(=O)NC(C(=O)N1Cc2cc([101O:1][101CH:1](CNC(=O)c3cc([100NH:0][100C:0](=O)N4CCCC(n5nc(-c6ccc(Oc7ccc(F)cc7F)cc6)c(C(N)=O)c5N)C4)oc3N)C(C)=O)ccc2CC1C(=O)NC1CCCc2ccccc21)C(C)(C)C

> <Shape>
0.340

> <Color>
0.099

> <Negative vol penalty>
0.000

$$$$

  -OEChem-04052303563D

 85 93  0     1  0  0  0  0  0999 V2000
  -18.9732  -24.5943   22.9474 C   0  0  0  0  0  0  0  0  0  0  0  0
  -20.0460  -24.7211   22.0707 C   0  0  0  0  0  0  0  0  0  0  0  0
  -24.3260  -14.5719   18.6002 C   0  0  0  0  0  0  0  0  0  0  0  0
  -25.9717  -14.5551   16.8315 C   0  0  0  0  0  0  0  0  0  0  0  0
  -18.3178  -25.7328   23.4144 C   0  0  0  0  0  0  0  0  0  0  0  0
  -20.4631  -25.9865   21.6596 C   0  0  0  0  0  0  0  0  0  0  0  0
  -26.2023  -27.7671   20.4775 C   0  0  0  0  0  0  0  0  0  0  0  0
  -23.4461  -13.8562   17.7883 C   0  0  0  0  0  0  0  0  0  0  0  0
  -25.0919  -13.8394   16.0196 C   0  0  0  0  0  0  0  0  0  0  0  0
  -26.9162  -27.9022   19.2876 C   0  0  0  0  0  0  0  0  0  0  0  0
  -23.4147  -11.6951   13.6098 C   0  0  0  0  0  0  0  0  0  0  0  0
  -23.9244  -10.6074   12.9008 C   0  0  0  0  0  0  0  0  0  0  0  0
  -26.3695  -30.2511   19.2332 C   0  0  0  0  0  0  0  0  0  0  0  0
  -29.9671  -23.1145   16.0827 C   0  0  0  0  0  0  0  0  0  0  0  0
  -30.8171  -20.9414   15.4566 C   0  0  0  0  0  0  0  0  0  0  0  0
  -31.2395  -22.8563   14.0453 C   0  0  0  0  0  0  0  0  0  0  0  0
  -24.5608   -9.5514   14.9786 C   0  0  0  0  0  0  0  0  0  0  0  0
  -25.5888  -14.9214   18.1218 C   0  0  0  0  0  0  0  0  0  0  0  0
  -27.4514  -15.1348   19.8517 C   0  0  0  0  0  0  0  0  0  0  0  0
  -18.7332  -27.0133   23.0163 C   0  0  0  0  0  0  0  0  0  0  0  0
  -25.5564  -28.8726   21.0494 C   0  0  0  0  0  0  0  0  0  0  0  0
  -19.8117  -27.1432   22.1205 C   0  0  0  0  0  0  0  0  0  0  0  0
  -25.6502  -30.1280   20.4317 C   0  0  0  0  0  0  0  0  0  0  0  0
  -30.1096  -21.7518   16.3444 C   0  0  0  0  0  0  0  0  0  0  0  0
  -30.5320  -23.6667   14.9331 C   0  0  0  0  0  0  0  0  0  0  0  0
  -23.8291  -13.4899   16.4980 C   0  0  0  0  0  0  0  0  0  0  0  0
  -26.9975  -29.1436   18.6637 C   0  0  0  0  0  0  0  0  0  0  0  0
  -23.4780  -11.7110   15.0031 C   0  0  0  0  0  0  0  0  0  0  0  0
  -24.4974   -9.5355   13.5852 C   0  0  0  0  0  0  0  0  0  0  0  0
  -31.3821  -21.4936   14.3070 C   0  0  0  0  0  0  0  0  0  0  0  0
  -24.0511  -10.6391   15.6875 C   0  0  0  0  0  0  0  0  0  0  0  0
  -26.4979  -15.6612   18.9598 C   0  0  0  0  0  0  0  0  0  0  0  0
  -28.0544  -16.2398   20.4012 C   0  0  0  0  0  0  0  0  0  0  0  0
  -27.7642  -13.7691   20.1563 C   0  0  0  0  0  0  0  0  0  0  0  0
  -29.7233  -27.3186   14.9427 C   0  0  0  0  0  0  0  0  0  0  0  0
  -29.0233  -28.4375   15.6889 C   0  0  0  0  0  0  0  0  0  0  0  0
  -22.5378  -29.6057   21.7233 C   0  0  0  0  0  0  0  0  0  0  0  0
  -23.8889  -32.2040   23.1181 C   0  0  0  0  0  0  0  0  0  0  0  0
  -26.5396  -34.3461   23.2978 C   0  0  0  0  0  0  0  0  0  0  0  0
  -28.8021  -21.8535   18.4954 C   0  0  0  0  0  0  0  0  0  0  0  0
  -17.9636  -28.2125   23.5105 C   0  0  0  0  0  0  0  0  0  0  0  0
  -24.8126  -28.7160   22.3473 C   0  0  0  0  0  0  0  0  0  0  0  0
  -24.9917  -31.3502   21.0156 C   0  0  0  0  0  0  0  0  0  0  0  0
  -18.7057  -29.5330   23.3206 C   0  0  0  0  0  0  0  0  0  0  0  0
  -27.1904  -20.8209   21.4975 C   0  0  0  0  0  0  0  0  0  0  0  0
  -19.2904  -29.6193   21.9144 C   0  0  0  0  0  0  0  0  0  0  0  0
  -26.9221  -19.3313   21.2711 C   0  0  0  0  0  0  0  0  0  0  0  0
  -27.0201  -21.6295   20.2127 C   0  0  0  0  0  0  0  0  0  0  0  0
  -27.5224  -19.6487   18.8368 C   0  0  0  0  0  0  0  0  0  0  0  0
  -20.3095  -28.4997   21.6710 C   0  0  1  0  0  0  0  0  0  0  0  0
  -23.7638  -29.8013   22.5697 C   0  0  1  0  0  0  0  0  0  0  0  0
  -27.7449  -18.7839   20.0883 C   0  0  2  0  0  0  0  0  0  0  0  0
  -27.3386  -36.3943   24.5077 C   0  0  0  0  0  0  0  0  0  0  0  0
  -22.0153  -33.9263   21.4348 C   0  0  0  0  0  0  0  0  0  0  0  0
  -23.4728  -35.8950   21.9527 C   0  0  0  0  0  0  0  0  0  0  0  0
  -22.2982  -34.6952   23.7977 C   0  0  0  0  0  0  0  0  0  0  0  0
  -28.8815  -32.9178   24.4089 C   0  0  0  0  0  0  0  0  0  0  0  0
  -29.6773  -25.9328   15.5329 C   0  0  0  0  0  0  0  0  0  0  0  0
  -28.3152  -28.1055   16.9779 C   0  0  0  0  0  0  0  0  0  1  0  0
  -24.2653  -33.5910   22.6560 C   0  0  1  0  0  0  0  0  0  0  0  0
  -27.3298  -34.8738   24.4817 C   0  0  2  0  0  0  0  0  0  0  0  0
  -23.0238  -34.5036   22.4480 C   0  0  0  0  0  0  0  0  0  0  0  0
  -26.4917  -16.9967   18.9407 N   0  0  0  0  0  0  0  0  0  0  0  0
  -27.4488  -17.3189   19.8276 N   0  0  0  0  0  0  0  0  0  0  0  0
  -24.2708  -31.1447   22.2827 N   0  0  0  0  0  0  0  0  0  0  0  0
  -27.8321  -21.0552   19.1376 N   0  0  0  0  0  0  0  0  0  0  0  0
  -29.0382  -16.3840   21.3143 N   0  0  0  0  0  0  0  0  0  0  0  0
  -27.0486  -12.7577   19.5010 N   0  0  0  0  0  0  0  0  0  0  0  0
  -29.5352  -21.1905   17.5118 N   0  0  0  0  0  0  0  0  0  0  0  0
  -30.3905  -25.0213   14.6726 N   0  0  0  0  0  0  0  0  0  0  0  0
  -21.5689  -28.8147   22.3108 N   0  0  0  0  0  0  0  0  0  0  0  0
  -25.2244  -34.0997   23.6306 N   0  0  0  0  0  0  0  0  0  0  0  0
  -28.7402  -34.3966   24.4171 N   0  3  0  0  0  0  0  0  0  0  0  0
  -28.6406  -13.4552   20.9970 O   0  0  0  0  0  0  0  0  0  0  0  0
  -30.2886  -27.6149   13.8975 O   0  0  0  0  0  0  0  0  0  0  0  0
  -29.0700  -29.5582   15.1982 O   0  0  0  0  0  0  0  0  0  0  0  0
  -22.4748  -30.1345   20.6196 O   0  0  0  0  0  0  0  0  0  0  0  0
  -23.2848  -32.0650   24.1845 O   0  0  0  0  0  0  0  0  0  0  0  0
  -27.0382  -34.1735   22.1878 O   0  0  0  0  0  0  0  0  0  0  0  0
  -28.9887  -23.0305   18.8145 O   0  0  0  0  0  0  0  0  0  0  0  0
  -22.9708  -12.7913   15.7056 O   0  0  0  0  0  0  0  0  0  0  0  0
  -27.6932  -29.2781   17.5019 O   0  0  0  0  0  0  0  0  0  1  0  0
  -24.9855   -8.4904   12.9043 F   0  0  0  0  0  0  0  0  0  0  0  0
  -32.0612  -20.7155   13.4539 F   0  0  0  0  0  0  0  0  0  0  0  0
  -24.1137  -10.6482   17.0261 F   0  0  0  0  0  0  0  0  0  0  0  0
  1  2  1  0  0  0  0
  1  5  2  0  0  0  0
  2  6  2  0  0  0  0
  3  8  2  0  0  0  0
  3 18  1  0  0  0  0
  4  9  1  0  0  0  0
  4 18  2  0  0  0  0
  5 20  1  0  0  0  0
  6 22  1  0  0  0  0
  7 10  2  0  0  0  0
  7 21  1  0  0  0  0
  8 26  1  0  0  0  0
  9 26  2  0  0  0  0
 10 27  1  0  0  0  0
 11 12  2  0  0  0  0
 11 28  1  0  0  0  0
 12 29  1  0  0  0  0
 13 23  1  0  0  0  0
 13 27  2  0  0  0  0
 14 24  1  0  0  0  0
 14 25  2  0  0  0  0
 15 24  2  0  0  0  0
 15 30  1  0  0  0  0
 16 25  1  0  0  0  0
 16 30  2  0  0  0  0
 17 29  2  0  0  0  0
 17 31  1  0  0  0  0
 18 32  1  0  0  0  0
 19 32  1  0  0  0  0
 19 33  2  0  0  0  0
 19 34  1  0  0  0  0
 20 22  2  0  0  0  0
 20 41  1  0  0  0  0
 21 23  2  0  0  0  0
 21 42  1  0  0  0  0
 22 50  1  0  0  0  0
 23 43  1  0  0  0  0
 24 69  1  0  0  0  0
 25 70  1  0  0  0  0
 26 81  1  0  0  0  0
 27 82  1  0  0  0  0
 28 31  2  0  0  0  0
 28 81  1  0  0  0  0
 29 83  1  0  0  0  0
 30 84  1  0  0  0  0
 31 85  1  0  0  0  0
 32 63  2  0  0  0  0
 33 64  1  0  0  0  0
 33 67  1  0  0  0  0
 34 68  1  0  0  0  0
 34 74  2  0  0  0  0
 35 36  1  0  0  0  0
 35 58  1  0  0  0  0
 35 75  2  0  0  0  0
 36 59  1  0  0  0  0
 36 76  2  0  0  0  0
 37 51  1  0  0  0  0
 37 71  1  0  0  0  0
 37 77  2  0  0  0  0
 38 60  1  0  0  0  0
 38 65  1  0  0  0  0
 38 78  2  0  0  0  0
 39 61  1  0  0  0  0
 39 72  1  0  0  0  0
 39 79  2  0  0  0  0
 40 66  1  0  0  0  0
 40 69  1  0  0  0  0
 40 80  2  0  0  0  0
 41 44  1  0  0  0  0
 42 51  1  0  0  0  0
 43 65  1  0  0  0  0
 44 46  1  0  0  0  0
 45 47  1  0  0  0  0
 45 48  1  0  0  0  0
 46 50  1  0  0  0  0
 47 52  1  0  0  0  0
 48 66  1  0  0  0  0
 49 52  1  0  0  0  0
 49 66  1  0  0  0  0
 50 71  1  0  0  0  0
 51 65  1  0  0  0  0
 52 64  1  0  0  0  0
 53 61  1  0  0  0  0
 54 62  1  0  0  0  0
 55 62  1  0  0  0  0
 56 62  1  0  0  0  0
 57 73  1  0  0  0  0
 58 70  1  0  0  0  0
 59 82  1  0  0  0  0
 60 62  1  0  0  0  0
 60 72  1  0  0  0  0
 61 73  1  0  0  0  0
 63 64  1  0  0  0  0
M  CHG  1  73   1
M  ISO  4  40 100  59 101  69 100  82 101
M  END
> <Batch ID>
0162

> <Smiles>
CNC(C)C(=O)NC(C(=O)N1Cc2cc([101O:1][101CH2:1]C(=O)C(=O)CNc3cc(F)cc([100NH:0][100C:0](=O)N4CCCC(n5nc(-c6ccc(Oc7ccc(F)cc7F)cc6)c(C(N)=O)c5N)C4)c3)ccc2CC1C(=O)NC1CCCc2ccccc21)C(C)(C)C

> <Shape>
0.214

> <Color>
0.104

> <Negative vol penalty>
0.000

$$$$

  -OEChem-04052303563D

 85 93  0     1  0  0  0  0  0999 V2000
  -16.7982  -29.2831   24.5461 C   0  0  0  0  0  0  0  0  0  0  0  0
  -17.8300  -28.3509   24.5882 C   0  0  0  0  0  0  0  0  0  0  0  0
  -32.5367  -17.5339   23.4462 C   0  0  0  0  0  0  0  0  0  0  0  0
  -23.0230   -9.8092   19.9847 C   0  0  0  0  0  0  0  0  0  0  0  0
  -23.6612   -9.9727   22.3091 C   0  0  0  0  0  0  0  0  0  0  0  0
  -31.7185  -18.4652   24.0855 C   0  0  0  0  0  0  0  0  0  0  0  0
  -16.8006  -30.2804   23.5717 C   0  0  0  0  0  0  0  0  0  0  0  0
  -18.8643  -28.4148   23.6552 C   0  0  0  0  0  0  0  0  0  0  0  0
  -24.7538  -27.0175   24.5867 C   0  0  0  0  0  0  0  0  0  0  0  0
  -31.9791  -16.5949   22.5783 C   0  0  0  0  0  0  0  0  0  0  0  0
  -22.2467   -8.6878   20.2767 C   0  0  0  0  0  0  0  0  0  0  0  0
  -22.8848   -8.8513   22.6012 C   0  0  0  0  0  0  0  0  0  0  0  0
  -25.5014  -25.8736   24.3105 C   0  0  0  0  0  0  0  0  0  0  0  0
  -23.1457   -5.4938   22.3009 C   0  0  0  0  0  0  0  0  0  0  0  0
  -23.7043   -4.5151   23.1228 C   0  0  0  0  0  0  0  0  0  0  0  0
  -26.2528  -26.8704   22.2463 C   0  0  0  0  0  0  0  0  0  0  0  0
  -21.9188   -4.8361   24.7185 C   0  0  0  0  0  0  0  0  0  0  0  0
  -23.7304  -10.4517   21.0009 C   0  0  0  0  0  0  0  0  0  0  0  0
  -30.3425  -18.4575   23.8570 C   0  0  0  0  0  0  0  0  0  0  0  0
  -24.1228  -12.9564   20.7179 C   0  0  0  0  0  0  0  0  0  0  0  0
  -17.8405  -30.3623   22.6323 C   0  0  0  0  0  0  0  0  0  0  0  0
  -24.7413  -28.0939   23.6880 C   0  0  0  0  0  0  0  0  0  0  0  0
  -18.8800  -29.4132   22.6666 C   0  0  0  0  0  0  0  0  0  0  0  0
  -25.5061  -28.0278   22.5146 C   0  0  0  0  0  0  0  0  0  0  0  0
  -30.6031  -16.5873   22.3499 C   0  0  0  0  0  0  0  0  0  0  0  0
  -22.1776   -8.2088   21.5849 C   0  0  0  0  0  0  0  0  0  0  0  0
  -26.2488  -25.7987   23.1388 C   0  0  0  0  0  0  0  0  0  0  0  0
  -21.9737   -6.1438   22.6878 C   0  0  0  0  0  0  0  0  0  0  0  0
  -23.0908   -4.1862   24.3316 C   0  0  0  0  0  0  0  0  0  0  0  0
  -21.3602   -5.8149   23.8966 C   0  0  0  0  0  0  0  0  0  0  0  0
  -29.7847  -17.5186   22.9892 C   0  0  0  0  0  0  0  0  0  0  0  0
  -24.5329  -11.6098   20.6998 C   0  0  0  0  0  0  0  0  0  0  0  0
  -25.2457  -13.6622   20.3608 C   0  0  0  0  0  0  0  0  0  0  0  0
  -29.4791  -19.4453   24.5349 C   0  0  0  0  0  0  0  0  0  0  0  0
  -22.8414  -13.5189   21.0297 C   0  0  0  0  0  0  0  0  0  0  0  0
  -22.5043  -29.5474   21.9599 C   0  0  0  0  0  0  0  0  0  0  0  0
  -27.8117  -22.4697   23.3930 C   0  0  0  0  0  0  0  0  0  0  0  0
  -24.9222  -31.5959   21.2671 C   0  0  0  0  0  0  0  0  0  0  0  0
  -28.2833  -32.1324   21.0187 C   0  0  0  0  0  0  0  0  0  0  0  0
  -30.7128  -14.6417   20.7533 C   0  0  0  0  0  0  0  0  0  0  0  0
  -17.7754  -31.4294   21.5685 C   0  0  0  0  0  0  0  0  0  0  0  0
  -23.9508  -29.3315   24.0134 C   0  0  0  0  0  0  0  0  0  0  0  0
  -25.5427  -29.1643   21.5268 C   0  0  0  0  0  0  0  0  0  0  0  0
  -19.1029  -31.6543   20.8492 C   0  0  0  0  0  0  0  0  0  0  0  0
  -29.6818  -12.0775   18.5085 C   0  0  0  0  0  0  0  0  0  0  0  0
  -19.7275  -30.3205   20.4520 C   0  0  0  0  0  0  0  0  0  0  0  0
  -28.2166  -11.8380   18.8800 C   0  0  0  0  0  0  0  0  0  0  0  0
  -30.5364  -12.3805   19.7380 C   0  0  0  0  0  0  0  0  0  0  0  0
  -28.5726  -13.2300   20.9591 C   0  0  0  0  0  0  0  0  0  0  0  0
  -20.0325  -29.4646   21.6872 C   0  0  1  0  0  0  0  0  0  0  0  0
  -23.6038  -30.1602   22.7804 C   0  0  1  0  0  0  0  0  0  0  0  0
  -27.6601  -12.9850   19.7462 C   0  0  2  0  0  0  0  0  0  0  0  0
  -29.9557  -33.8951   20.3915 C   0  0  0  0  0  0  0  0  0  0  0  0
  -24.3096  -31.1233   18.3156 C   0  0  0  0  0  0  0  0  0  0  0  0
  -26.5428  -32.1125   17.7654 C   0  0  0  0  0  0  0  0  0  0  0  0
  -24.8136  -33.4999   18.9088 C   0  0  0  0  0  0  0  0  0  0  0  0
  -29.4806  -32.1242   23.7253 C   0  0  0  0  0  0  0  0  0  0  0  0
  -27.8564  -21.2958   24.3357 C   0  0  0  0  0  0  0  0  0  0  0  0
  -26.9335  -23.6271   23.8252 C   0  0  0  0  0  0  0  0  0  1  0  0
  -25.9875  -31.6705   20.2001 C   0  0  1  0  0  0  0  0  0  0  0  0
  -29.1632  -33.2615   21.5242 C   0  0  2  0  0  0  0  0  0  0  0  0
  -25.4114  -32.0792   18.8149 C   0  0  0  0  0  0  0  0  0  0  0  0
  -25.8161  -11.4662   20.3581 N   0  0  0  0  0  0  0  0  0  0  0  0
  -26.2220  -12.7317   20.1581 N   0  0  0  0  0  0  0  0  0  0  0  0
  -24.7482  -30.3503   21.8868 N   0  0  0  0  0  0  0  0  0  0  0  0
  -29.9504  -13.4801   20.5076 N   0  0  0  0  0  0  0  0  0  0  0  0
  -25.4832  -14.9817   20.2036 N   0  0  0  0  0  0  0  0  0  0  0  0
  -21.7971  -12.6509   21.3767 N   0  0  0  0  0  0  0  0  0  0  0  0
  -30.0398  -15.6328   21.4670 N   0  0  0  0  0  0  0  0  0  0  0  0
  -28.7539  -20.2942   23.7851 N   0  0  0  0  0  0  0  0  0  0  0  0
  -21.2341  -29.9339   22.3431 N   0  0  0  0  0  0  0  0  0  0  0  0
  -27.0137  -32.5732   20.7103 N   0  0  0  0  0  0  0  0  0  0  0  0
  -29.4594  -19.4526   25.8678 N   0  3  0  0  0  0  0  0  0  0  0  0
  -30.1244  -32.7527   22.5431 N   0  3  0  0  0  0  0  0  0  0  0  0
  -22.6243  -14.7536   20.9855 O   0  0  0  0  0  0  0  0  0  0  0  0
  -22.7873  -28.7820   21.0458 O   0  0  0  0  0  0  0  0  0  0  0  0
  -28.4442  -22.4952   22.3382 O   0  0  0  0  0  0  0  0  0  0  0  0
  -24.2733  -32.6074   21.5456 O   0  0  0  0  0  0  0  0  0  0  0  0
  -28.6834  -30.9759   20.9051 O   0  0  0  0  0  0  0  0  0  0  0  0
  -31.8677  -14.7602   20.3361 O   0  0  0  0  0  0  0  0  0  0  0  0
  -21.4199   -7.1147   21.8702 O   0  0  0  0  0  0  0  0  0  0  0  0
  -26.9789  -24.6831   22.8664 O   0  0  0  0  0  0  0  0  0  1  0  0
  -23.6265   -3.2452   25.1201 F   0  0  0  0  0  0  0  0  0  0  0  0
  -20.2335   -6.4351   24.2730 F   0  0  0  0  0  0  0  0  0  0  0  0
  -28.4610  -17.5128   22.7703 F   0  0  0  0  0  0  0  0  0  0  0  0
  1  2  1  0  0  0  0
  1  7  2  0  0  0  0
  2  8  2  0  0  0  0
  3  6  2  0  0  0  0
  3 10  1  0  0  0  0
  4 11  2  0  0  0  0
  4 18  1  0  0  0  0
  5 12  1  0  0  0  0
  5 18  2  0  0  0  0
  6 19  1  0  0  0  0
  7 21  1  0  0  0  0
  8 23  1  0  0  0  0
  9 13  2  0  0  0  0
  9 22  1  0  0  0  0
 10 25  2  0  0  0  0
 11 26  1  0  0  0  0
 12 26  2  0  0  0  0
 13 27  1  0  0  0  0
 14 15  2  0  0  0  0
 14 28  1  0  0  0  0
 15 29  1  0  0  0  0
 16 24  1  0  0  0  0
 16 27  2  0  0  0  0
 17 29  2  0  0  0  0
 17 30  1  0  0  0  0
 18 32  1  0  0  0  0
 19 31  2  0  0  0  0
 19 34  1  0  0  0  0
 20 32  1  0  0  0  0
 20 33  2  0  0  0  0
 20 35  1  0  0  0  0
 21 23  2  0  0  0  0
 21 41  1  0  0  0  0
 22 24  2  0  0  0  0
 22 42  1  0  0  0  0
 23 50  1  0  0  0  0
 24 43  1  0  0  0  0
 25 31  1  0  0  0  0
 25 69  1  0  0  0  0
 26 81  1  0  0  0  0
 27 82  1  0  0  0  0
 28 30  2  0  0  0  0
 28 81  1  0  0  0  0
 29 83  1  0  0  0  0
 30 84  1  0  0  0  0
 31 85  1  0  0  0  0
 32 63  2  0  0  0  0
 33 64  1  0  0  0  0
 33 67  1  0  0  0  0
 34 70  1  0  0  0  0
 34 73  2  0  0  0  0
 35 68  1  0  0  0  0
 35 75  2  0  0  0  0
 36 51  1  0  0  0  0
 36 71  1  0  0  0  0
 36 76  2  0  0  0  0
 37 58  1  0  0  0  0
 37 59  1  0  0  0  0
 37 77  2  0  0  0  0
 38 60  1  0  0  0  0
 38 65  1  0  0  0  0
 38 78  2  0  0  0  0
 39 61  1  0  0  0  0
 39 72  1  0  0  0  0
 39 79  2  0  0  0  0
 40 66  1  0  0  0  0
 40 69  1  0  0  0  0
 40 80  2  0  0  0  0
 41 44  1  0  0  0  0
 42 51  1  0  0  0  0
 43 65  1  0  0  0  0
 44 46  1  0  0  0  0
 45 47  1  0  0  0  0
 45 48  1  0  0  0  0
 46 50  1  0  0  0  0
 47 52  1  0  0  0  0
 48 66  1  0  0  0  0
 49 52  1  0  0  0  0
 49 66  1  0  0  0  0
 50 71  1  0  0  0  0
 51 65  1  0  0  0  0
 52 64  1  0  0  0  0
 53 61  1  0  0  0  0
 54 62  1  0  0  0  0
 55 62  1  0  0  0  0
 56 62  1  0  0  0  0
 57 74  1  0  0  0  0
 58 70  1  0  0  0  0
 59 82  1  0  0  0  0
 60 62  1  0  0  0  0
 60 72  1  0  0  0  0
 61 74  1  0  0  0  0
 63 64  1  0  0  0  0
M  CHG  2  73   1  74   1
M  ISO  4  40 100  59 101  69 100  82 101
M  END
> <Batch ID>
0162

> <Smiles>
CNC(C)C(=O)NC(C(=O)N1Cc2cc([101O:1][101CH2:1]C(=O)CNC(=N)c3cccc([100NH:0][100C:0](=O)N4CCCC(n5nc(-c6ccc(Oc7ccc(F)cc7F)cc6)c(C(N)=O)c5N)C4)c3F)ccc2CC1C(=O)NC1CCCc2ccccc21)C(C)(C)C

> <Shape>
0.281

> <Color>
0.229

> <Negative vol penalty>
0.000

$$$$

  -OEChem-04052303563D

 83 91  0     1  0  0  0  0  0999 V2000
  -14.7504  -22.9859   26.8800 C   0  0  0  0  0  0  0  0  0  0  0  0
  -16.0308  -22.6099   26.4867 C   0  0  0  0  0  0  0  0  0  0  0  0
  -30.2535  -18.6299   25.1101 C   0  0  0  0  0  0  0  0  0  0  0  0
  -22.9976   -9.9028   19.9749 C   0  0  0  0  0  0  0  0  0  0  0  0
  -23.7822   -9.9051   22.2600 C   0  0  0  0  0  0  0  0  0  0  0  0
  -14.0934  -24.0200   26.2144 C   0  0  0  0  0  0  0  0  0  0  0  0
  -16.6545  -23.2672   25.4268 C   0  0  0  0  0  0  0  0  0  0  0  0
  -22.6294  -24.4829   24.8533 C   0  0  0  0  0  0  0  0  0  0  0  0
  -30.7615  -17.6516   24.2554 C   0  0  0  0  0  0  0  0  0  0  0  0
  -29.5927  -19.7403   24.5846 C   0  0  0  0  0  0  0  0  0  0  0  0
  -22.2408   -8.7606   20.2359 C   0  0  0  0  0  0  0  0  0  0  0  0
  -23.0254   -8.7628   22.5210 C   0  0  0  0  0  0  0  0  0  0  0  0
  -23.6539  -23.8440   24.1562 C   0  0  0  0  0  0  0  0  0  0  0  0
  -23.2651   -5.4358   21.9692 C   0  0  0  0  0  0  0  0  0  0  0  0
  -23.8743   -4.4040   22.6831 C   0  0  0  0  0  0  0  0  0  0  0  0
  -23.3512  -25.3770   22.3184 C   0  0  0  0  0  0  0  0  0  0  0  0
  -29.9480  -18.8941   22.3497 C   0  0  0  0  0  0  0  0  0  0  0  0
  -22.1939   -4.6049   24.4074 C   0  0  0  0  0  0  0  0  0  0  0  0
  -23.7683  -10.4751   20.9870 C   0  0  0  0  0  0  0  0  0  0  0  0
  -24.1431  -12.9951   20.8567 C   0  0  0  0  0  0  0  0  0  0  0  0
  -14.7132  -24.6966   25.1521 C   0  0  0  0  0  0  0  0  0  0  0  0
  -21.9496  -25.5686   24.2827 C   0  0  0  0  0  0  0  0  0  0  0  0
  -16.0047  -24.3104   24.7455 C   0  0  0  0  0  0  0  0  0  0  0  0
  -22.3202  -26.0296   23.0113 C   0  0  0  0  0  0  0  0  0  0  0  0
  -30.6087  -17.7837   22.8752 C   0  0  0  0  0  0  0  0  0  0  0  0
  -29.4400  -19.8724   23.2044 C   0  0  0  0  0  0  0  0  0  0  0  0
  -22.2547   -8.1905   21.5089 C   0  0  0  0  0  0  0  0  0  0  0  0
  -24.0130  -24.2892   22.8873 C   0  0  0  0  0  0  0  0  0  0  0  0
  -22.1203   -6.0523   22.4743 C   0  0  0  0  0  0  0  0  0  0  0  0
  -23.3387   -3.9885   23.9022 C   0  0  0  0  0  0  0  0  0  0  0  0
  -21.5848   -5.6368   23.6934 C   0  0  0  0  0  0  0  0  0  0  0  0
  -24.5507  -11.6548   20.7179 C   0  0  0  0  0  0  0  0  0  0  0  0
  -25.2414  -13.7287   20.4798 C   0  0  0  0  0  0  0  0  0  0  0  0
  -27.5028  -20.8598   22.5228 C   0  0  0  0  0  0  0  0  0  0  0  0
  -22.8844  -13.5292   21.2880 C   0  0  0  0  0  0  0  0  0  0  0  0
  -26.7308  -22.0093   21.9615 C   0  0  0  0  0  0  0  0  0  0  0  0
  -18.9385  -26.1361   23.4371 C   0  0  0  0  0  0  0  0  0  0  0  0
  -30.7612  -14.6069   20.7033 C   0  0  0  0  0  0  0  0  0  0  0  0
  -20.0724  -29.1204   22.8619 C   0  0  0  0  0  0  0  0  0  0  0  0
  -22.7463  -31.1147   22.1411 C   0  0  0  0  0  0  0  0  0  0  0  0
  -13.9448  -25.7765   24.4324 C   0  0  0  0  0  0  0  0  0  0  0  0
  -20.8647  -26.2638   25.0586 C   0  0  0  0  0  0  0  0  0  0  0  0
  -21.6353  -27.2038   22.3628 C   0  0  0  0  0  0  0  0  0  0  0  0
  -14.8229  -26.6722   23.5623 C   0  0  0  0  0  0  0  0  0  0  0  0
  -29.5384  -12.3203   18.2302 C   0  0  0  0  0  0  0  0  0  0  0  0
  -15.7794  -25.8299   22.7241 C   0  0  0  0  0  0  0  0  0  0  0  0
  -28.1087  -12.0301   18.6853 C   0  0  0  0  0  0  0  0  0  0  0  0
  -30.4745  -12.5133   19.4192 C   0  0  0  0  0  0  0  0  0  0  0  0
  -28.5965  -13.2774   20.8374 C   0  0  0  0  0  0  0  0  0  0  0  0
  -16.7241  -25.0158   23.6164 C   0  0  1  0  0  0  0  0  0  0  0  0
  -19.8944  -27.0350   24.1692 C   0  0  1  0  0  0  0  0  0  0  0  0
  -27.6120  -13.1062   19.6670 C   0  0  2  0  0  0  0  0  0  0  0  0
  -23.3549  -33.5076   21.6925 C   0  0  0  0  0  0  0  0  0  0  0  0
  -18.8963  -28.8910   20.0558 C   0  0  0  0  0  0  0  0  0  0  0  0
  -20.3196  -30.8352   19.3758 C   0  0  0  0  0  0  0  0  0  0  0  0
  -18.5799  -31.1221   21.1403 C   0  0  0  0  0  0  0  0  0  0  0  0
  -24.5546  -31.2148   24.4818 C   0  0  0  0  0  0  0  0  0  0  0  0
  -31.1516  -16.7377   21.9611 C   0  0  0  0  0  0  0  0  0  0  0  0
  -25.6500  -22.5645   22.8480 C   0  0  0  0  0  0  0  0  0  1  0  0
  -30.1570  -15.6117   21.6516 C   0  0  0  0  0  0  0  0  0  0  0  0
  -20.6818  -29.8216   21.6720 C   0  0  1  0  0  0  0  0  0  0  0  0
  -23.2207  -32.4222   22.7493 C   0  0  2  0  0  0  0  0  0  0  0  0
  -19.6312  -30.1441   20.5721 C   0  0  0  0  0  0  0  0  0  0  0  0
  -25.8095  -11.5407   20.2863 N   0  0  0  0  0  0  0  0  0  0  0  0
  -28.7748  -20.9910   22.6751 N   0  0  0  0  0  0  0  0  0  0  0  0
  -26.2024  -12.8187   20.1505 N   0  0  0  0  0  0  0  0  0  0  0  0
  -20.5765  -27.8463   23.1589 N   0  0  0  0  0  0  0  0  0  0  0  0
  -29.9563  -13.5272   20.3394 N   0  0  0  0  0  0  0  0  0  0  0  0
  -25.4691  -15.0570   20.4010 N   0  0  0  0  0  0  0  0  0  0  0  0
  -21.8639  -12.6347   21.6385 N   0  0  0  0  0  0  0  0  0  0  0  0
  -17.7795  -25.8585   24.1364 N   0  0  0  0  0  0  0  0  0  0  0  0
  -21.3741  -30.9928   22.1988 N   0  0  0  0  0  0  0  0  0  0  0  0
  -24.5464  -32.2378   23.4045 N   0  3  0  0  0  0  0  0  0  0  0  0
  -22.6655  -14.7630   21.3446 O   0  0  0  0  0  0  0  0  0  0  0  0
  -27.0314  -22.4204   20.8519 O   0  0  0  0  0  0  0  0  0  0  0  0
  -19.2302  -25.7261   22.3197 O   0  0  0  0  0  0  0  0  0  0  0  0
  -31.9132  -14.7797   20.2969 O   0  0  0  0  0  0  0  0  0  0  0  0
  -19.1868  -29.6854   23.5085 O   0  0  0  0  0  0  0  0  0  0  0  0
  -23.5158  -30.2862   21.6594 O   0  0  0  0  0  0  0  0  0  0  0  0
  -21.5162   -7.0760   21.7640 O   0  0  0  0  0  0  0  0  0  0  0  0
  -25.0122  -23.6670   22.2045 O   0  0  0  0  0  0  0  0  0  1  0  0
  -23.9230   -2.9965   24.5869 F   0  0  0  0  0  0  0  0  0  0  0  0
  -20.4845   -6.2245   24.1833 F   0  0  0  0  0  0  0  0  0  0  0  0
  1  2  1  0  0  0  0
  1  6  2  0  0  0  0
  2  7  2  0  0  0  0
  3  9  1  0  0  0  0
  3 10  2  0  0  0  0
  4 11  2  0  0  0  0
  4 19  1  0  0  0  0
  5 12  1  0  0  0  0
  5 19  2  0  0  0  0
  6 21  1  0  0  0  0
  7 23  1  0  0  0  0
  8 13  2  0  0  0  0
  8 22  1  0  0  0  0
  9 25  2  0  0  0  0
 10 26  1  0  0  0  0
 11 27  1  0  0  0  0
 12 27  2  0  0  0  0
 13 28  1  0  0  0  0
 14 15  2  0  0  0  0
 14 29  1  0  0  0  0
 15 30  1  0  0  0  0
 16 24  1  0  0  0  0
 16 28  2  0  0  0  0
 17 25  1  0  0  0  0
 17 26  2  0  0  0  0
 18 30  2  0  0  0  0
 18 31  1  0  0  0  0
 19 32  1  0  0  0  0
 20 32  1  0  0  0  0
 20 33  2  0  0  0  0
 20 35  1  0  0  0  0
 21 23  2  0  0  0  0
 21 41  1  0  0  0  0
 22 24  2  0  0  0  0
 22 42  1  0  0  0  0
 23 50  1  0  0  0  0
 24 43  1  0  0  0  0
 25 58  1  0  0  0  0
 26 65  1  0  0  0  0
 27 80  1  0  0  0  0
 28 81  1  0  0  0  0
 29 31  2  0  0  0  0
 29 80  1  0  0  0  0
 30 82  1  0  0  0  0
 31 83  1  0  0  0  0
 32 64  2  0  0  0  0
 33 66  1  0  0  0  0
 33 69  1  0  0  0  0
 34 36  1  0  0  0  0
 34 65  2  0  0  0  0
 35 70  1  0  0  0  0
 35 74  2  0  0  0  0
 36 59  1  0  0  0  0
 36 75  2  0  0  0  0
 37 51  1  0  0  0  0
 37 71  1  0  0  0  0
 37 76  2  0  0  0  0
 38 60  1  0  0  0  0
 38 68  1  0  0  0  0
 38 77  2  0  0  0  0
 39 61  1  0  0  0  0
 39 67  1  0  0  0  0
 39 78  2  0  0  0  0
 40 62  1  0  0  0  0
 40 72  1  0  0  0  0
 40 79  2  0  0  0  0
 41 44  1  0  0  0  0
 42 51  1  0  0  0  0
 43 67  1  0  0  0  0
 44 46  1  0  0  0  0
 45 47  1  0  0  0  0
 45 48  1  0  0  0  0
 46 50  1  0  0  0  0
 47 52  1  0  0  0  0
 48 68  1  0  0  0  0
 49 52  1  0  0  0  0
 49 68  1  0  0  0  0
 50 71  1  0  0  0  0
 51 67  1  0  0  0  0
 52 66  1  0  0  0  0
 53 62  1  0  0  0  0
 54 63  1  0  0  0  0
 55 63  1  0  0  0  0
 56 63  1  0  0  0  0
 57 73  1  0  0  0  0
 58 60  1  0  0  0  0
 59 81  1  0  0  0  0
 61 63  1  0  0  0  0
 61 72  1  0  0  0  0
 62 73  1  0  0  0  0
 64 66  1  0  0  0  0
M  CHG  1  73   1
M  ISO  4  38 100  59 101  60 100  81 101
M  END
> <Batch ID>
0162

> <Smiles>
CNC(C)C(=O)NC(C(=O)N1Cc2cc([101O:1][101CH2:1]C(=O)CNc3cccc(C=[100CH:0][100C:0](=O)N4CCCC(n5nc(-c6ccc(Oc7ccc(F)cc7F)cc6)c(C(N)=O)c5N)C4)c3)ccc2CC1C(=O)NC1CCCc2ccccc21)C(C)(C)C

> <Shape>
0.278

> <Color>
0.202

> <Negative vol penalty>
0.000

$$$$

  -OEChem-04052303563D

 83 92  0     1  0  0  0  0  0999 V2000
  -26.3009  -37.4643   20.8434 C   0  0  0  0  0  0  0  0  0  0  0  0
  -26.9927  -36.2748   20.6388 C   0  0  0  0  0  0  0  0  0  0  0  0
  -23.8812   -9.7751   20.2103 C   0  0  0  0  0  0  0  0  0  0  0  0
  -24.5785  -10.1796   22.4878 C   0  0  0  0  0  0  0  0  0  0  0  0
  -25.2023  -37.4918   21.7014 C   0  0  0  0  0  0  0  0  0  0  0  0
  -26.5867  -35.1121   21.2930 C   0  0  0  0  0  0  0  0  0  0  0  0
  -26.8300  -29.3906   19.1227 C   0  0  0  0  0  0  0  0  0  0  0  0
  -23.4776   -8.4872   20.5626 C   0  0  0  0  0  0  0  0  0  0  0  0
  -24.1749   -8.8917   22.8401 C   0  0  0  0  0  0  0  0  0  0  0  0
  -27.7429  -28.3539   19.3112 C   0  0  0  0  0  0  0  0  0  0  0  0
  -21.2799   -7.2939   23.5376 C   0  0  0  0  0  0  0  0  0  0  0  0
  -20.5467   -7.1454   24.7148 C   0  0  0  0  0  0  0  0  0  0  0  0
  -26.3391  -27.4415   21.0479 C   0  0  0  0  0  0  0  0  0  0  0  0
  -22.2603   -5.6895   25.5985 C   0  0  0  0  0  0  0  0  0  0  0  0
  -28.2697  -19.5227   22.2612 C   0  0  0  0  0  0  0  0  0  0  0  0
  -24.4317  -10.6213   21.1729 C   0  0  0  0  0  0  0  0  0  0  0  0
  -24.0717  -13.1247   20.8395 C   0  0  0  0  0  0  0  0  0  0  0  0
  -24.7767  -36.3268   22.3589 C   0  0  0  0  0  0  0  0  0  0  0  0
  -25.6681  -29.4667   19.9042 C   0  0  0  0  0  0  0  0  0  0  0  0
  -25.4821  -35.1244   22.1616 C   0  0  0  0  0  0  0  0  0  0  0  0
  -25.4118  -28.4788   20.8656 C   0  0  0  0  0  0  0  0  0  0  0  0
  -23.6244   -8.0456   21.8775 C   0  0  0  0  0  0  0  0  0  0  0  0
  -27.4990  -27.3808   20.2759 C   0  0  0  0  0  0  0  0  0  0  0  0
  -22.5033   -6.6400   23.3907 C   0  0  0  0  0  0  0  0  0  0  0  0
  -21.0369   -6.3433   25.7453 C   0  0  0  0  0  0  0  0  0  0  0  0
  -22.9935   -5.8379   24.4212 C   0  0  0  0  0  0  0  0  0  0  0  0
  -24.8493  -11.9516   20.8095 C   0  0  0  0  0  0  0  0  0  0  0  0
  -29.1437  -18.7673   21.5316 C   0  0  0  0  0  0  0  0  0  0  0  0
  -24.9222  -14.1116   20.4047 C   0  0  0  0  0  0  0  0  0  0  0  0
  -29.9789  -20.8108   21.6957 C   0  0  0  0  0  0  0  0  0  0  0  0
  -29.8556  -24.1028   22.6183 C   0  0  0  0  0  0  0  0  0  0  0  0
  -29.1366  -24.3459   21.5093 C   0  0  0  0  0  0  0  0  0  0  0  0
  -22.7029  -13.3060   21.2259 C   0  0  0  0  0  0  0  0  0  0  0  0
  -24.4951  -31.5682   21.9806 C   0  0  0  0  0  0  0  0  0  0  0  0
  -21.9100  -29.6102   21.9076 C   0  0  0  0  0  0  0  0  0  0  0  0
  -20.6511  -26.4948   21.3106 C   0  0  0  0  0  0  0  0  0  0  0  0
  -29.8913  -16.6236   20.4400 C   0  0  0  0  0  0  0  0  0  0  0  0
  -23.6125  -36.4161   23.3134 C   0  0  0  0  0  0  0  0  0  0  0  0
  -24.6801  -30.5764   19.6701 C   0  0  0  0  0  0  0  0  0  0  0  0
  -24.1694  -28.5038   21.7166 C   0  0  0  0  0  0  0  0  0  0  0  0
  -30.8954  -23.0227   22.7228 C   0  0  0  0  0  0  0  0  0  0  0  0
  -29.3471  -23.5664   20.2369 C   0  0  0  0  0  0  0  0  0  0  0  0
  -23.0181  -35.0581   23.6779 C   0  0  0  0  0  0  0  0  0  0  0  0
  -30.6488  -22.7578   20.2253 C   0  0  0  0  0  0  0  0  0  0  0  0
  -29.5120  -13.8095   18.2918 C   0  0  0  0  0  0  0  0  0  0  0  0
  -24.1243  -34.0681   24.0288 C   0  0  0  0  0  0  0  0  0  0  0  0
  -28.2012  -13.1718   18.7578 C   0  0  0  0  0  0  0  0  0  0  0  0
  -30.3131  -14.3786   19.4615 C   0  0  0  0  0  0  0  0  0  0  0  0
  -28.2619  -14.6655   20.7955 C   0  0  0  0  0  0  0  0  0  0  0  0
  -25.0572  -33.8369   22.8339 C   0  0  1  0  0  0  0  0  0  0  0  0
  -30.9002  -22.0169   21.5506 C   0  0  2  0  0  0  0  0  0  0  0  0
  -23.7828  -30.8415   20.8751 C   0  0  1  0  0  0  0  0  0  0  0  0
  -27.3898  -14.1358   19.6455 C   0  0  2  0  0  0  0  0  0  0  0  0
  -18.5081  -25.1907   21.3740 C   0  0  0  0  0  0  0  0  0  0  0  0
  -22.0944  -29.4598   24.9495 C   0  0  0  0  0  0  0  0  0  0  0  0
  -20.5930  -27.4578   24.8719 C   0  0  0  0  0  0  0  0  0  0  0  0
  -19.7683  -29.6655   24.0543 C   0  0  0  0  0  0  0  0  0  0  0  0
  -20.7761  -25.9258   18.4089 C   0  0  0  0  0  0  0  0  0  0  0  0
  -28.0757  -25.4055   21.4681 C   0  0  0  0  0  0  0  0  0  1  0  0
  -21.4689  -28.3926   22.6833 C   0  0  1  0  0  0  0  0  0  0  0  0
  -19.4421  -26.0318   20.5179 C   0  0  2  0  0  0  0  0  0  0  0  0
  -21.0056  -28.7442   24.1252 C   0  0  0  0  0  0  0  0  0  0  0  0
  -26.0978  -12.1712   20.3887 N   0  0  0  0  0  0  0  0  0  0  0  0
  -30.1916  -19.5897   21.1945 N   0  0  0  0  0  0  0  0  0  0  0  0
  -26.1111  -13.4937   20.1502 N   0  0  0  0  0  0  0  0  0  0  0  0
  -28.8118  -20.7824   22.3473 N   0  3  0  0  0  0  0  0  0  0  0  0
  -23.2368  -29.6125   21.4545 N   0  0  0  0  0  0  0  0  0  0  0  0
  -29.4815  -15.2861   20.2551 N   0  0  0  0  0  0  0  0  0  0  0  0
  -24.7615  -15.4390   20.2188 N   0  0  0  0  0  0  0  0  0  0  0  0
  -21.9736  -12.1858   21.6473 N   0  0  0  0  0  0  0  0  0  0  0  0
  -29.0045  -17.4007   21.1845 N   0  0  0  0  0  0  0  0  0  0  0  0
  -24.4398  -32.9450   21.8759 N   0  0  0  0  0  0  0  0  0  0  0  0
  -20.4489  -27.7384   21.8708 N   0  0  0  0  0  0  0  0  0  0  0  0
  -19.8716  -25.2142   19.3483 N   0  3  0  0  0  0  0  0  0  0  0  0
  -22.1384  -14.4254   21.1826 O   0  0  0  0  0  0  0  0  0  0  0  0
  -25.0524  -30.9274   22.8639 O   0  0  0  0  0  0  0  0  0  0  0  0
  -21.1048  -30.5224   21.7048 O   0  0  0  0  0  0  0  0  0  0  0  0
  -21.6714  -25.8191   21.4247 O   0  0  0  0  0  0  0  0  0  0  0  0
  -30.9375  -17.0555   19.9493 O   0  0  0  0  0  0  0  0  0  0  0  0
  -23.2305   -6.7890   22.2217 O   0  0  0  0  0  0  0  0  0  0  0  0
  -28.3888  -26.3682   20.4624 O   0  0  0  0  0  0  0  0  0  1  0  0
  -20.3334   -6.2021   26.8764 F   0  0  0  0  0  0  0  0  0  0  0  0
  -24.1687   -5.2082   24.2865 F   0  0  0  0  0  0  0  0  0  0  0  0
  1  2  1  0  0  0  0
  1  5  2  0  0  0  0
  2  6  2  0  0  0  0
  3  8  2  0  0  0  0
  3 16  1  0  0  0  0
  4  9  1  0  0  0  0
  4 16  2  0  0  0  0
  5 18  1  0  0  0  0
  6 20  1  0  0  0  0
  7 10  2  0  0  0  0
  7 19  1  0  0  0  0
  8 22  1  0  0  0  0
  9 22  2  0  0  0  0
 10 23  1  0  0  0  0
 11 12  2  0  0  0  0
 11 24  1  0  0  0  0
 12 25  1  0  0  0  0
 13 21  1  0  0  0  0
 13 23  2  0  0  0  0
 14 25  2  0  0  0  0
 14 26  1  0  0  0  0
 15 28  2  0  0  0  0
 15 66  1  0  0  0  0
 16 27  1  0  0  0  0
 17 27  1  0  0  0  0
 17 29  2  0  0  0  0
 17 33  1  0  0  0  0
 18 20  2  0  0  0  0
 18 38  1  0  0  0  0
 19 21  2  0  0  0  0
 19 39  1  0  0  0  0
 20 50  1  0  0  0  0
 21 40  1  0  0  0  0
 22 80  1  0  0  0  0
 23 81  1  0  0  0  0
 24 26  2  0  0  0  0
 24 80  1  0  0  0  0
 25 82  1  0  0  0  0
 26 83  1  0  0  0  0
 27 63  2  0  0  0  0
 28 64  1  0  0  0  0
 28 71  1  0  0  0  0
 29 65  1  0  0  0  0
 29 69  1  0  0  0  0
 30 51  1  0  0  0  0
 30 64  1  0  0  0  0
 30 66  2  0  0  0  0
 31 32  2  0  0  0  0
 31 41  1  0  0  0  0
 32 42  1  0  0  0  0
 32 59  1  0  0  0  0
 33 70  1  0  0  0  0
 33 75  2  0  0  0  0
 34 52  1  0  0  0  0
 34 72  1  0  0  0  0
 34 76  2  0  0  0  0
 35 60  1  0  0  0  0
 35 67  1  0  0  0  0
 35 77  2  0  0  0  0
 36 61  1  0  0  0  0
 36 73  1  0  0  0  0
 36 78  2  0  0  0  0
 37 68  1  0  0  0  0
 37 71  1  0  0  0  0
 37 79  2  0  0  0  0
 38 43  1  0  0  0  0
 39 52  1  0  0  0  0
 40 67  1  0  0  0  0
 41 51  1  0  0  0  0
 42 44  1  0  0  0  0
 43 46  1  0  0  0  0
 44 51  1  0  0  0  0
 45 47  1  0  0  0  0
 45 48  1  0  0  0  0
 46 50  1  0  0  0  0
 47 53  1  0  0  0  0
 48 68  1  0  0  0  0
 49 53  1  0  0  0  0
 49 68  1  0  0  0  0
 50 72  1  0  0  0  0
 52 67  1  0  0  0  0
 53 65  1  0  0  0  0
 54 61  1  0  0  0  0
 55 62  1  0  0  0  0
 56 62  1  0  0  0  0
 57 62  1  0  0  0  0
 58 74  1  0  0  0  0
 59 81  1  0  0  0  0
 60 62  1  0  0  0  0
 60 73  1  0  0  0  0
 61 74  1  0  0  0  0
 63 65  1  0  0  0  0
M  CHG  2  66   1  74   1
M  ISO  4  37 100  59 101  71 100  81 101
M  END
> <Batch ID>
0162

> <Smiles>
CNC(C)C(=O)NC(C(=O)N1Cc2cc([101O:1][101CH2:1]C3=CCC(c4nc([100NH:0][100C:0](=O)N5CCCC(n6nc(-c7ccc(Oc8ccc(F)cc8F)cc7)c(C(N)=O)c6N)C5)c[nH]4)CC3)ccc2CC1C(=O)NC1CCCc2ccccc21)C(C)(C)C

> <Shape>
0.353

> <Color>
0.145

> <Negative vol penalty>
0.000

$$$$

  -OEChem-04052303563D

 85 93  0     1  0  0  0  0  0999 V2000
  -16.9396  -30.0981   24.7423 C   0  0  0  0  0  0  0  0  0  0  0  0
  -17.9770  -29.1731   24.8020 C   0  0  0  0  0  0  0  0  0  0  0  0
  -23.2810   -9.5912   19.9797 C   0  0  0  0  0  0  0  0  0  0  0  0
  -23.8240   -9.8808   22.3160 C   0  0  0  0  0  0  0  0  0  0  0  0
  -16.9255  -31.0641   23.7370 C   0  0  0  0  0  0  0  0  0  0  0  0
  -19.0004  -29.2128   23.8558 C   0  0  0  0  0  0  0  0  0  0  0  0
  -24.9077  -27.8765   24.7635 C   0  0  0  0  0  0  0  0  0  0  0  0
  -22.5826   -8.4235   20.2867 C   0  0  0  0  0  0  0  0  0  0  0  0
  -23.1255   -8.7132   22.6231 C   0  0  0  0  0  0  0  0  0  0  0  0
  -25.6586  -26.7284   24.5150 C   0  0  0  0  0  0  0  0  0  0  0  0
  -19.9049   -7.7726   23.0273 C   0  0  0  0  0  0  0  0  0  0  0  0
  -19.0463   -7.8028   24.1262 C   0  0  0  0  0  0  0  0  0  0  0  0
  -31.1400  -19.0254   24.0451 C   0  0  0  0  0  0  0  0  0  0  0  0
  -29.3265  -17.8933   22.9198 C   0  0  0  0  0  0  0  0  0  0  0  0
  -26.3810  -27.6633   22.4119 C   0  0  0  0  0  0  0  0  0  0  0  0
  -31.5994  -17.1332   22.6149 C   0  0  0  0  0  0  0  0  0  0  0  0
  -20.3202   -6.0352   25.1701 C   0  0  0  0  0  0  0  0  0  0  0  0
  -23.9018  -10.3198   20.9943 C   0  0  0  0  0  0  0  0  0  0  0  0
  -29.7779  -18.9015   23.7716 C   0  0  0  0  0  0  0  0  0  0  0  0
  -24.1123  -12.8365   20.6343 C   0  0  0  0  0  0  0  0  0  0  0  0
  -17.9543  -31.1217   22.7837 C   0  0  0  0  0  0  0  0  0  0  0  0
  -24.8791  -28.9238   23.8314 C   0  0  0  0  0  0  0  0  0  0  0  0
  -18.9994  -30.1796   22.8359 C   0  0  0  0  0  0  0  0  0  0  0  0
  -25.6310  -28.8248   22.6521 C   0  0  0  0  0  0  0  0  0  0  0  0
  -32.0508  -18.1413   23.4667 C   0  0  0  0  0  0  0  0  0  0  0  0
  -30.2372  -17.0092   22.3414 C   0  0  0  0  0  0  0  0  0  0  0  0
  -22.5048   -7.9845   21.6084 C   0  0  0  0  0  0  0  0  0  0  0  0
  -26.3931  -26.6204   23.3378 C   0  0  0  0  0  0  0  0  0  0  0  0
  -20.9711   -6.8736   22.9998 C   0  0  0  0  0  0  0  0  0  0  0  0
  -19.2540   -6.9341   25.1976 C   0  0  0  0  0  0  0  0  0  0  0  0
  -21.1788   -6.0049   24.0712 C   0  0  0  0  0  0  0  0  0  0  0  0
  -24.6240  -11.5258   20.6777 C   0  0  0  0  0  0  0  0  0  0  0  0
  -25.1899  -13.6146   20.2882 C   0  0  0  0  0  0  0  0  0  0  0  0
  -28.8135  -19.8374   24.3837 C   0  0  0  0  0  0  0  0  0  0  0  0
  -22.7818  -13.3086   20.8845 C   0  0  0  0  0  0  0  0  0  0  0  0
  -22.6147  -30.3104   22.0840 C   0  0  0  0  0  0  0  0  0  0  0  0
  -27.9774  -23.3093   23.6791 C   0  0  0  0  0  0  0  0  0  0  0  0
  -25.0131  -32.3485   21.2993 C   0  0  0  0  0  0  0  0  0  0  0  0
  -28.3682  -32.8945   20.9958 C   0  0  0  0  0  0  0  0  0  0  0  0
  -30.5498  -15.0257   20.8201 C   0  0  0  0  0  0  0  0  0  0  0  0
  -17.8712  -32.1543   21.6875 C   0  0  0  0  0  0  0  0  0  0  0  0
  -24.0854  -30.1670   24.1266 C   0  0  0  0  0  0  0  0  0  0  0  0
  -25.6501  -29.9296   21.6286 C   0  0  0  0  0  0  0  0  0  0  0  0
  -19.1893  -32.3633   20.9464 C   0  0  0  0  0  0  0  0  0  0  0  0
  -29.7953  -12.3162   18.6369 C   0  0  0  0  0  0  0  0  0  0  0  0
  -19.8168  -31.0209   20.5843 C   0  0  0  0  0  0  0  0  0  0  0  0
  -28.3405  -11.9768   18.9697 C   0  0  0  0  0  0  0  0  0  0  0  0
  -30.5812  -12.7251   19.8815 C   0  0  0  0  0  0  0  0  0  0  0  0
  -28.5173  -13.4607   21.0077 C   0  0  0  0  0  0  0  0  0  0  0  0
  -20.1405  -30.2060   21.8423 C   0  0  1  0  0  0  0  0  0  0  0  0
  -23.7199  -30.9544   22.8722 C   0  0  1  0  0  0  0  0  0  0  0  0
  -27.6687  -13.1057   19.7759 C   0  0  2  0  0  0  0  0  0  0  0  0
  -30.0236  -34.6451   20.2941 C   0  0  0  0  0  0  0  0  0  0  0  0
  -24.3700  -31.7796   18.3714 C   0  0  0  0  0  0  0  0  0  0  0  0
  -26.5913  -32.7625   17.7648 C   0  0  0  0  0  0  0  0  0  0  0  0
  -24.8674  -34.1764   18.8836 C   0  0  0  0  0  0  0  0  0  0  0  0
  -29.5959  -32.9781   23.6874 C   0  0  0  0  0  0  0  0  0  0  0  0
  -28.0392  -22.1660   24.6577 C   0  0  0  0  0  0  0  0  0  0  0  0
  -27.0976  -24.4752   24.0845 C   0  0  0  0  0  0  0  0  0  1  0  0
  -26.0659  -32.3949   20.2184 C   0  0  1  0  0  0  0  0  0  0  0  0
  -29.2474  -34.0435   21.4553 C   0  0  2  0  0  0  0  0  0  0  0  0
  -25.4720  -32.7565   18.8277 C   0  0  0  0  0  0  0  0  0  0  0  0
  -25.9255  -11.4703   20.3826 N   0  0  0  0  0  0  0  0  0  0  0  0
  -26.2406  -12.7560   20.1504 N   0  0  0  0  0  0  0  0  0  0  0  0
  -24.8531  -31.1222   21.9600 N   0  0  0  0  0  0  0  0  0  0  0  0
  -29.8870  -13.8013   20.5919 N   0  0  0  0  0  0  0  0  0  0  0  0
  -33.4282  -18.2670   23.7428 N   0  0  0  0  0  0  0  0  0  0  0  0
  -25.3318  -14.9426   20.0914 N   0  0  0  0  0  0  0  0  0  0  0  0
  -21.7951  -12.3745   21.2289 N   0  0  0  0  0  0  0  0  0  0  0  0
  -29.7791  -15.9852   21.4758 N   0  0  0  0  0  0  0  0  0  0  0  0
  -28.9360  -21.1522   24.1288 N   0  0  0  0  0  0  0  0  0  0  0  0
  -21.3468  -30.7021   22.4694 N   0  0  0  0  0  0  0  0  0  0  0  0
  -27.0928  -33.3186   20.6881 N   0  0  0  0  0  0  0  0  0  0  0  0
  -27.8607  -19.3338   25.1684 N   0  3  0  0  0  0  0  0  0  0  0  0
  -30.2228  -33.5722   22.4787 N   0  3  0  0  0  0  0  0  0  0  0  0
  -22.4731  -14.5206   20.7891 O   0  0  0  0  0  0  0  0  0  0  0  0
  -22.8917  -29.5178   21.1913 O   0  0  0  0  0  0  0  0  0  0  0  0
  -28.5978  -23.3047   22.6168 O   0  0  0  0  0  0  0  0  0  0  0  0
  -24.3618  -33.3649   21.5532 O   0  0  0  0  0  0  0  0  0  0  0  0
  -28.7735  -31.7370   20.9141 O   0  0  0  0  0  0  0  0  0  0  0  0
  -31.7062  -15.2191   20.4360 O   0  0  0  0  0  0  0  0  0  0  0  0
  -21.8231   -6.8453   21.9085 O   0  0  0  0  0  0  0  0  0  0  0  0
  -27.1263  -25.5006   23.0924 O   0  0  0  0  0  0  0  0  0  1  0  0
  -18.4303   -6.9644   26.2535 F   0  0  0  0  0  0  0  0  0  0  0  0
  -22.2021   -5.1399   24.0510 F   0  0  0  0  0  0  0  0  0  0  0  0
  1  2  1  0  0  0  0
  1  5  2  0  0  0  0
  2  6  2  0  0  0  0
  3  8  2  0  0  0  0
  3 18  1  0  0  0  0
  4  9  1  0  0  0  0
  4 18  2  0  0  0  0
  5 21  1  0  0  0  0
  6 23  1  0  0  0  0
  7 10  2  0  0  0  0
  7 22  1  0  0  0  0
  8 27  1  0  0  0  0
  9 27  2  0  0  0  0
 10 28  1  0  0  0  0
 11 12  2  0  0  0  0
 11 29  1  0  0  0  0
 12 30  1  0  0  0  0
 13 19  1  0  0  0  0
 13 25  2  0  0  0  0
 14 19  2  0  0  0  0
 14 26  1  0  0  0  0
 15 24  1  0  0  0  0
 15 28  2  0  0  0  0
 16 25  1  0  0  0  0
 16 26  2  0  0  0  0
 17 30  2  0  0  0  0
 17 31  1  0  0  0  0
 18 32  1  0  0  0  0
 19 34  1  0  0  0  0
 20 32  1  0  0  0  0
 20 33  2  0  0  0  0
 20 35  1  0  0  0  0
 21 23  2  0  0  0  0
 21 41  1  0  0  0  0
 22 24  2  0  0  0  0
 22 42  1  0  0  0  0
 23 50  1  0  0  0  0
 24 43  1  0  0  0  0
 25 67  1  0  0  0  0
 26 70  1  0  0  0  0
 27 82  1  0  0  0  0
 28 83  1  0  0  0  0
 29 31  2  0  0  0  0
 29 82  1  0  0  0  0
 30 84  1  0  0  0  0
 31 85  1  0  0  0  0
 32 63  2  0  0  0  0
 33 64  1  0  0  0  0
 33 68  1  0  0  0  0
 34 71  1  0  0  0  0
 34 74  2  0  0  0  0
 35 69  1  0  0  0  0
 35 76  2  0  0  0  0
 36 51  1  0  0  0  0
 36 72  1  0  0  0  0
 36 77  2  0  0  0  0
 37 58  1  0  0  0  0
 37 59  1  0  0  0  0
 37 78  2  0  0  0  0
 38 60  1  0  0  0  0
 38 65  1  0  0  0  0
 38 79  2  0  0  0  0
 39 61  1  0  0  0  0
 39 73  1  0  0  0  0
 39 80  2  0  0  0  0
 40 66  1  0  0  0  0
 40 70  1  0  0  0  0
 40 81  2  0  0  0  0
 41 44  1  0  0  0  0
 42 51  1  0  0  0  0
 43 65  1  0  0  0  0
 44 46  1  0  0  0  0
 45 47  1  0  0  0  0
 45 48  1  0  0  0  0
 46 50  1  0  0  0  0
 47 52  1  0  0  0  0
 48 66  1  0  0  0  0
 49 52  1  0  0  0  0
 49 66  1  0  0  0  0
 50 72  1  0  0  0  0
 51 65  1  0  0  0  0
 52 64  1  0  0  0  0
 53 61  1  0  0  0  0
 54 62  1  0  0  0  0
 55 62  1  0  0  0  0
 56 62  1  0  0  0  0
 57 75  1  0  0  0  0
 58 71  1  0  0  0  0
 59 83  1  0  0  0  0
 60 62  1  0  0  0  0
 60 73  1  0  0  0  0
 61 75  1  0  0  0  0
 63 64  1  0  0  0  0
M  CHG  2  74   1  75   1
M  ISO  4  40 100  59 101  70 100  83 101
M  END
> <Batch ID>
0162

> <Smiles>
CNC(C)C(=O)NC(C(=O)N1Cc2cc([101O:1][101CH2:1]C(=O)CNC(=N)c3cc(N)cc([100NH:0][100C:0](=O)N4CCCC(n5nc(-c6ccc(Oc7ccc(F)cc7F)cc6)c(C(N)=O)c5N)C4)c3)ccc2CC1C(=O)NC1CCCc2ccccc21)C(C)(C)C

> <Shape>
0.260

> <Color>
0.176

> <Negative vol penalty>
0.000

$$$$

  -OEChem-04052303563D

 84 92  0     1  0  0  0  0  0999 V2000
  -17.1237  -14.6443   23.2174 C   0  0  0  0  0  0  0  0  0  0  0  0
  -18.0760  -15.4769   22.6384 C   0  0  0  0  0  0  0  0  0  0  0  0
  -23.0699   -9.8671   19.9573 C   0  0  0  0  0  0  0  0  0  0  0  0
  -23.8350   -9.8914   22.2488 C   0  0  0  0  0  0  0  0  0  0  0  0
  -15.7989  -15.0668   23.3183 C   0  0  0  0  0  0  0  0  0  0  0  0
  -17.7037  -16.7322   22.1589 C   0  0  0  0  0  0  0  0  0  0  0  0
  -20.9632  -20.3687   23.4994 C   0  0  0  0  0  0  0  0  0  0  0  0
  -22.3223   -8.7190   20.2190 C   0  0  0  0  0  0  0  0  0  0  0  0
  -23.0873   -8.7433   22.5106 C   0  0  0  0  0  0  0  0  0  0  0  0
  -22.1535  -20.4543   22.7785 C   0  0  0  0  0  0  0  0  0  0  0  0
  -19.8576   -7.9629   23.1272 C   0  0  0  0  0  0  0  0  0  0  0  0
  -19.1031   -7.9361   24.3001 C   0  0  0  0  0  0  0  0  0  0  0  0
  -21.2323  -22.2700   21.4847 C   0  0  0  0  0  0  0  0  0  0  0  0
  -20.3389   -6.0006   25.0508 C   0  0  0  0  0  0  0  0  0  0  0  0
  -31.6401  -18.3240   19.9872 C   0  0  0  0  0  0  0  0  0  0  0  0
  -30.1710  -19.9939   19.0721 C   0  0  0  0  0  0  0  0  0  0  0  0
  -23.8263  -10.4533   20.9722 C   0  0  0  0  0  0  0  0  0  0  0  0
  -24.1772  -12.9760   20.8292 C   0  0  0  0  0  0  0  0  0  0  0  0
  -15.4121  -16.3319   22.8485 C   0  0  0  0  0  0  0  0  0  0  0  0
  -19.8928  -21.2273   23.2106 C   0  0  0  0  0  0  0  0  0  0  0  0
  -16.3722  -17.1716   22.2524 C   0  0  0  0  0  0  0  0  0  0  0  0
  -20.0304  -22.1950   22.2051 C   0  0  0  0  0  0  0  0  0  0  0  0
  -22.3310   -8.1571   21.4957 C   0  0  0  0  0  0  0  0  0  0  0  0
  -22.2871  -21.4031   21.7691 C   0  0  0  0  0  0  0  0  0  0  0  0
  -20.8527   -7.0085   22.9161 C   0  0  0  0  0  0  0  0  0  0  0  0
  -19.3438   -6.9550   25.2619 C   0  0  0  0  0  0  0  0  0  0  0  0
  -21.0934   -6.0274   23.8779 C   0  0  0  0  0  0  0  0  0  0  0  0
  -31.4045  -19.3522   19.0815 C   0  0  0  0  0  0  0  0  0  0  0  0
  -24.5992  -11.6390   20.7023 C   0  0  0  0  0  0  0  0  0  0  0  0
  -30.6176  -17.9778   20.8558 C   0  0  0  0  0  0  0  0  0  0  0  0
  -29.2142  -19.5728   19.9815 C   0  0  0  0  0  0  0  0  0  0  0  0
  -25.2714  -13.7182   20.4569 C   0  0  0  0  0  0  0  0  0  0  0  0
  -22.9096  -13.5002   21.2463 C   0  0  0  0  0  0  0  0  0  0  0  0
  -16.9067  -20.8273   22.1973 C   0  0  0  0  0  0  0  0  0  0  0  0
  -25.7176  -20.8084   20.5554 C   0  0  0  0  0  0  0  0  0  0  0  0
  -16.7111  -24.0210   22.7307 C   0  0  0  0  0  0  0  0  0  0  0  0
  -18.3249  -27.0141   23.0207 C   0  0  0  0  0  0  0  0  0  0  0  0
  -30.7593  -14.7183   20.6242 C   0  0  0  0  0  0  0  0  0  0  0  0
  -13.9589  -16.7259   22.9366 C   0  0  0  0  0  0  0  0  0  0  0  0
  -18.6251  -21.1400   24.0153 C   0  0  0  0  0  0  0  0  0  0  0  0
  -18.9184  -23.1537   21.8697 C   0  0  0  0  0  0  0  0  0  0  0  0
  -13.7205  -18.2213   22.7435 C   0  0  0  0  0  0  0  0  0  0  0  0
  -29.6075  -12.3172   18.2610 C   0  0  0  0  0  0  0  0  0  0  0  0
  -14.5036  -18.7356   21.5398 C   0  0  0  0  0  0  0  0  0  0  0  0
  -28.1699  -12.0327   18.6997 C   0  0  0  0  0  0  0  0  0  0  0  0
  -30.5281  -12.5451   19.4579 C   0  0  0  0  0  0  0  0  0  0  0  0
  -28.6322  -13.2955   20.8422 C   0  0  0  0  0  0  0  0  0  0  0  0
  -16.0122  -18.5504   21.7430 C   0  0  1  0  0  0  0  0  0  0  0  0
  -17.4159  -21.7233   23.2906 C   0  0  1  0  0  0  0  0  0  0  0  0
  -27.6547  -13.1142   19.6683 C   0  0  2  0  0  0  0  0  0  0  0  0
  -17.8941  -29.4536   23.4210 C   0  0  0  0  0  0  0  0  0  0  0  0
  -15.7081  -24.3118   19.8638 C   0  0  0  0  0  0  0  0  0  0  0  0
  -16.2023  -26.7617   20.0133 C   0  0  0  0  0  0  0  0  0  0  0  0
  -14.5136  -25.7365   21.5364 C   0  0  0  0  0  0  0  0  0  0  0  0
  -19.9534  -27.0150   25.4919 C   0  0  0  0  0  0  0  0  0  0  0  0
  -30.8359  -16.8794   21.8420 C   0  0  0  0  0  0  0  0  0  0  0  0
  -26.8961  -19.9029   20.8437 C   0  0  0  0  0  0  0  0  0  0  0  0
  -24.4872  -20.5743   21.4102 C   0  0  0  0  0  0  0  0  0  1  0  0
  -16.9687  -25.2601   21.9077 C   0  0  1  0  0  0  0  0  0  0  0  0
  -18.2263  -28.1149   24.0614 C   0  0  2  0  0  0  0  0  0  0  0  0
  -15.8686  -25.4983   20.8351 C   0  0  0  0  0  0  0  0  0  0  0  0
  -25.8628  -11.5347   20.2820 N   0  0  0  0  0  0  0  0  0  0  0  0
  -29.4064  -18.5779   20.8764 N   0  0  0  0  0  0  0  0  0  0  0  0
  -26.2442  -12.8157   20.1416 N   0  0  0  0  0  0  0  0  0  0  0  0
  -17.6963  -23.0246   22.6804 N   0  0  0  0  0  0  0  0  0  0  0  0
  -29.9833  -13.5834   20.3360 N   0  0  0  0  0  0  0  0  0  0  0  0
  -25.4866  -15.0482   20.3717 N   0  0  0  0  0  0  0  0  0  0  0  0
  -21.8951  -12.5979   21.5938 N   0  0  0  0  0  0  0  0  0  0  0  0
  -27.9895  -20.2247   19.9627 N   0  0  0  0  0  0  0  0  0  0  0  0
  -16.5317  -19.5695   22.6295 N   0  0  0  0  0  0  0  0  0  0  0  0
  -17.1241  -26.3562   22.8579 N   0  0  0  0  0  0  0  0  0  0  0  0
  -30.1655  -15.6567   21.4593 N   0  0  0  0  0  0  0  0  0  0  0  0
  -19.5167  -28.2518   24.7943 N   0  3  0  0  0  0  0  0  0  0  0  0
  -22.6781  -14.7322   21.2934 O   0  0  0  0  0  0  0  0  0  0  0  0
  -16.8562  -21.2466   21.0469 O   0  0  0  0  0  0  0  0  0  0  0  0
  -25.7448  -21.6798   19.6872 O   0  0  0  0  0  0  0  0  0  0  0  0
  -15.6774  -23.9431   23.3993 O   0  0  0  0  0  0  0  0  0  0  0  0
  -19.3622  -26.7653   22.4104 O   0  0  0  0  0  0  0  0  0  0  0  0
  -31.8949  -14.8855   20.1665 O   0  0  0  0  0  0  0  0  0  0  0  0
  -21.6014   -7.0369   21.7515 O   0  0  0  0  0  0  0  0  0  0  0  0
  -23.4476  -21.4883   21.0634 O   0  0  0  0  0  0  0  0  0  1  0  0
  -18.6203   -6.9303   26.3889 F   0  0  0  0  0  0  0  0  0  0  0  0
  -22.0488   -5.1085   23.6812 F   0  0  0  0  0  0  0  0  0  0  0  0
  -32.3621  -19.7243   18.2222 F   0  0  0  0  0  0  0  0  0  0  0  0
  1  2  1  0  0  0  0
  1  5  2  0  0  0  0
  2  6  2  0  0  0  0
  3  8  2  0  0  0  0
  3 17  1  0  0  0  0
  4  9  1  0  0  0  0
  4 17  2  0  0  0  0
  5 19  1  0  0  0  0
  6 21  1  0  0  0  0
  7 10  2  0  0  0  0
  7 20  1  0  0  0  0
  8 23  1  0  0  0  0
  9 23  2  0  0  0  0
 10 24  1  0  0  0  0
 11 12  2  0  0  0  0
 11 25  1  0  0  0  0
 12 26  1  0  0  0  0
 13 22  1  0  0  0  0
 13 24  2  0  0  0  0
 14 26  2  0  0  0  0
 14 27  1  0  0  0  0
 15 28  1  0  0  0  0
 15 30  2  0  0  0  0
 16 28  2  0  0  0  0
 16 31  1  0  0  0  0
 17 29  1  0  0  0  0
 18 29  1  0  0  0  0
 18 32  2  0  0  0  0
 18 33  1  0  0  0  0
 19 21  2  0  0  0  0
 19 39  1  0  0  0  0
 20 22  2  0  0  0  0
 20 40  1  0  0  0  0
 21 48  1  0  0  0  0
 22 41  1  0  0  0  0
 23 80  1  0  0  0  0
 24 81  1  0  0  0  0
 25 27  2  0  0  0  0
 25 80  1  0  0  0  0
 26 82  1  0  0  0  0
 27 83  1  0  0  0  0
 28 84  1  0  0  0  0
 29 62  2  0  0  0  0
 30 56  1  0  0  0  0
 30 63  1  0  0  0  0
 31 63  2  0  0  0  0
 31 69  1  0  0  0  0
 32 64  1  0  0  0  0
 32 67  1  0  0  0  0
 33 68  1  0  0  0  0
 33 74  2  0  0  0  0
 34 49  1  0  0  0  0
 34 70  1  0  0  0  0
 34 75  2  0  0  0  0
 35 57  1  0  0  0  0
 35 58  1  0  0  0  0
 35 76  2  0  0  0  0
 36 59  1  0  0  0  0
 36 65  1  0  0  0  0
 36 77  2  0  0  0  0
 37 60  1  0  0  0  0
 37 71  1  0  0  0  0
 37 78  2  0  0  0  0
 38 66  1  0  0  0  0
 38 72  1  0  0  0  0
 38 79  2  0  0  0  0
 39 42  1  0  0  0  0
 40 49  1  0  0  0  0
 41 65  1  0  0  0  0
 42 44  1  0  0  0  0
 43 45  1  0  0  0  0
 43 46  1  0  0  0  0
 44 48  1  0  0  0  0
 45 50  1  0  0  0  0
 46 66  1  0  0  0  0
 47 50  1  0  0  0  0
 47 66  1  0  0  0  0
 48 70  1  0  0  0  0
 49 65  1  0  0  0  0
 50 64  1  0  0  0  0
 51 60  1  0  0  0  0
 52 61  1  0  0  0  0
 53 61  1  0  0  0  0
 54 61  1  0  0  0  0
 55 73  1  0  0  0  0
 56 72  1  0  0  0  0
 57 69  1  0  0  0  0
 58 81  1  0  0  0  0
 59 61  1  0  0  0  0
 59 71  1  0  0  0  0
 60 73  1  0  0  0  0
 62 64  1  0  0  0  0
M  CHG  1  73   1
M  ISO  4  38 100  58 101  72 100  81 101
M  END
> <Batch ID>
0162

> <Smiles>
CNC(C)C(=O)NC(C(=O)N1Cc2cc([101O:1][101CH2:1]C(=O)CNc3cc(F)cc(C[100NH:0][100C:0](=O)N4CCCC(n5nc(-c6ccc(Oc7ccc(F)cc7F)cc6)c(C(N)=O)c5N)C4)n3)ccc2CC1C(=O)NC1CCCc2ccccc21)C(C)(C)C

> <Shape>
0.233

> <Color>
0.190

> <Negative vol penalty>
0.000

$$$$

  -OEChem-04052303563D

 84 92  0     1  0  0  0  0  0999 V2000
  -29.5548  -31.4733   26.3536 C   0  0  0  0  0  0  0  0  0  0  0  0
  -29.2566  -30.4345   25.4776 C   0  0  0  0  0  0  0  0  0  0  0  0
  -24.7001   -8.4412   21.4585 C   0  0  0  0  0  0  0  0  0  0  0  0
  -23.1164  -10.1811   20.9094 C   0  0  0  0  0  0  0  0  0  0  0  0
  -28.5240  -32.2021   26.9455 C   0  0  0  0  0  0  0  0  0  0  0  0
  -27.9273  -30.1232   25.1938 C   0  0  0  0  0  0  0  0  0  0  0  0
  -27.1217  -29.3665   20.2518 C   0  0  0  0  0  0  0  0  0  0  0  0
  -23.7870   -7.8947   22.3603 C   0  0  0  0  0  0  0  0  0  0  0  0
  -22.2032   -9.6346   21.8111 C   0  0  0  0  0  0  0  0  0  0  0  0
  -27.5147  -28.1376   19.7235 C   0  0  0  0  0  0  0  0  0  0  0  0
  -21.0185   -5.9575   22.2359 C   0  0  0  0  0  0  0  0  0  0  0  0
  -20.8362   -4.5748   22.2161 C   0  0  0  0  0  0  0  0  0  0  0  0
  -25.2320  -27.3658   19.8362 C   0  0  0  0  0  0  0  0  0  0  0  0
  -27.8407  -18.7271   19.2267 C   0  0  0  0  0  0  0  0  0  0  0  0
  -21.5520   -4.4473   24.5201 C   0  0  0  0  0  0  0  0  0  0  0  0
  -25.6865  -17.9093   18.9219 C   0  0  0  0  0  0  0  0  0  0  0  0
  -24.3648   -9.5845   20.7331 C   0  0  0  0  0  0  0  0  0  0  0  0
  -25.4420   -9.8410   18.4350 C   0  0  0  0  0  0  0  0  0  0  0  0
  -27.1816  -31.9059   26.6613 C   0  0  0  0  0  0  0  0  0  0  0  0
  -25.7804  -29.6008   20.5871 C   0  0  0  0  0  0  0  0  0  0  0  0
  -26.8776  -30.8479   25.7835 C   0  0  0  0  0  0  0  0  0  0  0  0
  -24.8241  -28.5994   20.3663 C   0  0  0  0  0  0  0  0  0  0  0  0
  -26.9845  -17.5885   19.2531 C   0  0  0  0  0  0  0  0  0  0  0  0
  -22.5386   -8.4913   22.5366 C   0  0  0  0  0  0  0  0  0  0  0  0
  -26.5704  -27.1360   19.5183 C   0  0  0  0  0  0  0  0  0  0  0  0
  -21.4676   -6.5852   23.3979 C   0  0  0  0  0  0  0  0  0  0  0  0
  -21.1030   -3.8197   23.3581 C   0  0  0  0  0  0  0  0  0  0  0  0
  -21.7343   -5.8301   24.5399 C   0  0  0  0  0  0  0  0  0  0  0  0
  -25.3078  -10.1499   19.8018 C   0  0  0  0  0  0  0  0  0  0  0  0
  -26.4705  -10.6415   18.0014 C   0  0  0  0  0  0  0  0  0  0  0  0
  -27.1643  -19.8749   18.8761 C   0  0  0  0  0  0  0  0  0  0  0  0
  -24.7031   -8.9134   17.6292 C   0  0  0  0  0  0  0  0  0  0  0  0
  -29.0111  -23.1585   18.6614 C   0  0  0  0  0  0  0  0  0  0  0  0
  -28.2798  -24.0004   19.4185 C   0  0  0  0  0  0  0  0  0  0  0  0
  -28.9075  -21.6826   18.9057 C   0  0  0  0  0  0  0  0  0  0  0  0
  -24.2249  -30.2728   23.2764 C   0  0  0  0  0  0  0  0  0  0  0  0
  -21.6964  -30.6059   21.2719 C   0  0  0  0  0  0  0  0  0  0  0  0
  -20.2472  -29.8265   18.2821 C   0  0  0  0  0  0  0  0  0  0  0  0
  -28.6792  -15.8498   19.9250 C   0  0  0  0  0  0  0  0  0  0  0  0
  -26.1010  -32.6908   27.3619 C   0  0  0  0  0  0  0  0  0  0  0  0
  -25.3681  -30.9412   21.1311 C   0  0  0  0  0  0  0  0  0  0  0  0
  -23.3681  -28.8079   20.6906 C   0  0  0  0  0  0  0  0  0  0  0  0
  -24.7248  -32.5408   26.7185 C   0  0  0  0  0  0  0  0  0  0  0  0
  -30.4582  -12.7873   19.5599 C   0  0  0  0  0  0  0  0  0  0  0  0
  -24.4309  -31.0735   26.4226 C   0  0  0  0  0  0  0  0  0  0  0  0
  -29.3514  -11.7360   19.4500 C   0  0  0  0  0  0  0  0  0  0  0  0
  -30.0893  -13.8986   20.5410 C   0  0  0  0  0  0  0  0  0  0  0  0
  -27.6865  -13.4909   20.1815 C   0  0  0  0  0  0  0  0  0  0  0  0
  -25.4485  -30.4961   25.4314 C   0  0  1  0  0  0  0  0  0  0  0  0
  -24.0613  -30.8908   21.9167 C   0  0  1  0  0  0  0  0  0  0  0  0
  -27.9848  -12.3851   19.1559 C   0  0  2  0  0  0  0  0  0  0  0  0
  -29.9715  -23.5395   17.5758 C   0  0  0  0  0  0  0  0  0  0  0  0
  -18.1614  -30.2175   16.9426 C   0  0  0  0  0  0  0  0  0  0  0  0
  -20.1906  -28.6314   23.0449 C   0  0  0  0  0  0  0  0  0  0  0  0
  -18.5341  -28.3371   21.1908 C   0  0  0  0  0  0  0  0  0  0  0  0
  -18.8276  -30.5739   22.2553 C   0  0  0  0  0  0  0  0  0  0  0  0
  -21.7576  -31.1234   16.0921 C   0  0  0  0  0  0  0  0  0  0  0  0
  -28.2785  -25.4969   19.2914 C   0  0  0  0  0  0  0  0  0  1  0  0
  -20.6341  -29.6813   20.7282 C   0  0  1  0  0  0  0  0  0  0  0  0
  -19.5768  -30.6931   17.2313 C   0  0  2  0  0  0  0  0  0  0  0  0
  -19.5743  -29.3010   21.8004 C   0  0  0  0  0  0  0  0  0  0  0  0
  -26.1812  -11.0744   20.2098 N   0  0  0  0  0  0  0  0  0  0  0  0
  -26.8743  -11.3532   19.0926 N   0  0  0  0  0  0  0  0  0  0  0  0
  -23.0156  -30.1331   21.2263 N   0  0  0  0  0  0  0  0  0  0  0  0
  -28.7851  -14.4695   20.1977 N   0  0  0  0  0  0  0  0  0  0  0  0
  -27.0599  -10.7989   16.7972 N   0  0  0  0  0  0  0  0  0  0  0  0
  -23.6793   -8.1712   18.2335 N   0  0  0  0  0  0  0  0  0  0  0  0
  -27.3962  -16.2722   19.5785 N   0  0  0  0  0  0  0  0  0  0  0  0
  -27.6164  -21.2079   18.7284 N   0  0  0  0  0  0  0  0  0  0  0  0
  -25.1392  -30.9226   24.0835 N   0  0  0  0  0  0  0  0  0  0  0  0
  -20.0820  -30.3418   19.5503 N   0  0  0  0  0  0  0  0  0  0  0  0
  -20.3528  -30.6587   15.9595 N   0  3  0  0  0  0  0  0  0  0  0  0
  -24.9545   -8.7357   16.4131 O   0  0  0  0  0  0  0  0  0  0  0  0
  -29.9215  -21.0497   19.1793 O   0  0  0  0  0  0  0  0  0  0  0  0
  -23.5690  -29.2807   23.5721 O   0  0  0  0  0  0  0  0  0  0  0  0
  -21.3687  -31.7099   21.7139 O   0  0  0  0  0  0  0  0  0  0  0  0
  -20.8533  -28.7936   18.0058 O   0  0  0  0  0  0  0  0  0  0  0  0
  -29.6601  -16.5967   19.9674 O   0  0  0  0  0  0  0  0  0  0  0  0
  -27.4857  -23.5153   20.4476 O   0  0  0  0  0  0  0  0  0  0  0  0
  -21.6473   -7.9582   23.4163 O   0  0  0  0  0  0  0  0  0  0  0  0
  -26.9514  -25.9354   19.0033 O   0  0  0  0  0  0  0  0  0  1  0  0
  -20.9264   -2.4921   23.3393 F   0  0  0  0  0  0  0  0  0  0  0  0
  -22.1649   -6.4276   25.6595 F   0  0  0  0  0  0  0  0  0  0  0  0
  -25.5040  -19.5774   18.5809 S   0  0  0  0  0  0  0  0  0  0  0  0
  1  2  1  0  0  0  0
  1  5  2  0  0  0  0
  2  6  2  0  0  0  0
  3  8  2  0  0  0  0
  3 17  1  0  0  0  0
  4  9  1  0  0  0  0
  4 17  2  0  0  0  0
  5 19  1  0  0  0  0
  6 21  1  0  0  0  0
  7 10  2  0  0  0  0
  7 20  1  0  0  0  0
  8 24  1  0  0  0  0
  9 24  2  0  0  0  0
 10 25  1  0  0  0  0
 11 12  2  0  0  0  0
 11 26  1  0  0  0  0
 12 27  1  0  0  0  0
 13 22  1  0  0  0  0
 13 25  2  0  0  0  0
 14 23  1  0  0  0  0
 14 31  2  0  0  0  0
 15 27  2  0  0  0  0
 15 28  1  0  0  0  0
 16 23  2  0  0  0  0
 16 84  1  0  0  0  0
 17 29  1  0  0  0  0
 18 29  1  0  0  0  0
 18 30  2  0  0  0  0
 18 32  1  0  0  0  0
 19 21  2  0  0  0  0
 19 40  1  0  0  0  0
 20 22  2  0  0  0  0
 20 41  1  0  0  0  0
 21 49  1  0  0  0  0
 22 42  1  0  0  0  0
 23 68  1  0  0  0  0
 24 80  1  0  0  0  0
 25 81  1  0  0  0  0
 26 28  2  0  0  0  0
 26 80  1  0  0  0  0
 27 82  1  0  0  0  0
 28 83  1  0  0  0  0
 29 62  2  0  0  0  0
 30 63  1  0  0  0  0
 30 66  1  0  0  0  0
 31 69  1  0  0  0  0
 31 84  1  0  0  0  0
 32 67  1  0  0  0  0
 32 73  2  0  0  0  0
 33 34  2  0  0  0  0
 33 35  1  0  0  0  0
 33 52  1  0  0  0  0
 34 58  1  0  0  0  0
 34 79  1  0  0  0  0
 35 69  1  0  0  0  0
 35 74  2  0  0  0  0
 36 50  1  0  0  0  0
 36 70  1  0  0  0  0
 36 75  2  0  0  0  0
 37 59  1  0  0  0  0
 37 64  1  0  0  0  0
 37 76  2  0  0  0  0
 38 60  1  0  0  0  0
 38 71  1  0  0  0  0
 38 77  2  0  0  0  0
 39 65  1  0  0  0  0
 39 68  1  0  0  0  0
 39 78  2  0  0  0  0
 40 43  1  0  0  0  0
 41 50  1  0  0  0  0
 42 64  1  0  0  0  0
 43 45  1  0  0  0  0
 44 46  1  0  0  0  0
 44 47  1  0  0  0  0
 45 49  1  0  0  0  0
 46 51  1  0  0  0  0
 47 65  1  0  0  0  0
 48 51  1  0  0  0  0
 48 65  1  0  0  0  0
 49 70  1  0  0  0  0
 50 64  1  0  0  0  0
 51 63  1  0  0  0  0
 53 60  1  0  0  0  0
 54 61  1  0  0  0  0
 55 61  1  0  0  0  0
 56 61  1  0  0  0  0
 57 72  1  0  0  0  0
 58 81  1  0  0  0  0
 59 61  1  0  0  0  0
 59 71  1  0  0  0  0
 60 72  1  0  0  0  0
 62 63  1  0  0  0  0
M  CHG  1  72   1
M  ISO  4  39 100  58 101  68 100  81 101
M  END
> <Batch ID>
0162

> <Smiles>
CNC(C)C(=O)NC(C(=O)N1Cc2cc([101O:1][101CH2:1]C(=O)C(C)C(=O)Nc3cc([100NH:0][100C:0](=O)N4CCCC(n5nc(-c6ccc(Oc7ccc(F)cc7F)cc6)c(C(N)=O)c5N)C4)cs3)ccc2CC1C(=O)NC1CCCc2ccccc21)C(C)(C)C

> <Shape>
0.323

> <Color>
0.115

> <Negative vol penalty>
0.000

$$$$

  -OEChem-04052303563D

 83 91  0     1  0  0  0  0  0999 V2000
  -19.3604  -29.4675   23.1124 C   0  0  0  0  0  0  0  0  0  0  0  0
  -20.4488  -28.6154   23.2694 C   0  0  0  0  0  0  0  0  0  0  0  0
  -23.0844   -9.8930   19.9115 C   0  0  0  0  0  0  0  0  0  0  0  0
  -23.8638   -9.8505   22.1980 C   0  0  0  0  0  0  0  0  0  0  0  0
  -19.4554  -30.5685   22.2622 C   0  0  0  0  0  0  0  0  0  0  0  0
  -21.6327  -28.8632   22.5754 C   0  0  0  0  0  0  0  0  0  0  0  0
  -27.3382  -27.8058   24.5336 C   0  0  0  0  0  0  0  0  0  0  0  0
  -22.3514   -8.7284   20.1397 C   0  0  0  0  0  0  0  0  0  0  0  0
  -23.1307   -8.6859   22.4262 C   0  0  0  0  0  0  0  0  0  0  0  0
  -28.2306  -26.7599   24.3021 C   0  0  0  0  0  0  0  0  0  0  0  0
  -19.4218   -7.8742   21.5958 C   0  0  0  0  0  0  0  0  0  0  0  0
  -18.1112   -7.8295   21.1206 C   0  0  0  0  0  0  0  0  0  0  0  0
  -29.2671  -28.0422   22.5412 C   0  0  0  0  0  0  0  0  0  0  0  0
  -31.0963  -17.7873   20.7029 C   0  0  0  0  0  0  0  0  0  0  0  0
  -18.6742   -5.9234   19.7470 C   0  0  0  0  0  0  0  0  0  0  0  0
  -29.5033  -17.9168   22.4641 C   0  0  0  0  0  0  0  0  0  0  0  0
  -23.8406  -10.4540   20.9407 C   0  0  0  0  0  0  0  0  0  0  0  0
  -24.1623  -12.9839   20.8790 C   0  0  0  0  0  0  0  0  0  0  0  0
  -20.6442  -30.8354   21.5650 C   0  0  0  0  0  0  0  0  0  0  0  0
  -27.3966  -28.9752   23.7620 C   0  0  0  0  0  0  0  0  0  0  0  0
  -21.7433  -29.9680   21.7142 C   0  0  0  0  0  0  0  0  0  0  0  0
  -28.3759  -29.1024   22.7666 C   0  0  0  0  0  0  0  0  0  0  0  0
  -30.2177  -17.1411   21.5653 C   0  0  0  0  0  0  0  0  0  0  0  0
  -22.3746   -8.1249   21.3970 C   0  0  0  0  0  0  0  0  0  0  0  0
  -29.1934  -26.8769   23.3039 C   0  0  0  0  0  0  0  0  0  0  0  0
  -20.3587   -6.9435   21.1467 C   0  0  0  0  0  0  0  0  0  0  0  0
  -17.7374   -6.8541   20.1962 C   0  0  0  0  0  0  0  0  0  0  0  0
  -31.2317  -19.1697   20.7646 C   0  0  0  0  0  0  0  0  0  0  0  0
  -19.9849   -5.9680   20.2223 C   0  0  0  0  0  0  0  0  0  0  0  0
  -24.5985  -11.6567   20.7054 C   0  0  0  0  0  0  0  0  0  0  0  0
  -30.4718  -19.8545   21.6991 C   0  0  0  0  0  0  0  0  0  0  0  0
  -25.2456  -13.7504   20.5249 C   0  0  0  0  0  0  0  0  0  0  0  0
  -22.8916  -13.4796   21.3209 C   0  0  0  0  0  0  0  0  0  0  0  0
  -25.4062  -30.4504   21.7706 C   0  0  0  0  0  0  0  0  0  0  0  0
  -30.2950  -23.5262   22.4538 C   0  0  0  0  0  0  0  0  0  0  0  0
  -27.7058  -32.7382   21.7866 C   0  0  0  0  0  0  0  0  0  0  0  0
  -30.9850  -33.5465   22.2763 C   0  0  0  0  0  0  0  0  0  0  0  0
  -30.7051  -14.8339   20.6791 C   0  0  0  0  0  0  0  0  0  0  0  0
  -20.6838  -32.0109   20.6210 C   0  0  0  0  0  0  0  0  0  0  0  0
  -26.4439  -30.1050   24.0421 C   0  0  0  0  0  0  0  0  0  0  0  0
  -28.4935  -30.3453   21.9241 C   0  0  0  0  0  0  0  0  0  0  0  0
  -22.0975  -32.4151   20.2104 C   0  0  0  0  0  0  0  0  0  0  0  0
  -29.5887  -12.4694   18.2625 C   0  0  0  0  0  0  0  0  0  0  0  0
  -22.9111  -31.1861   19.8173 C   0  0  0  0  0  0  0  0  0  0  0  0
  -28.1551  -12.1564   18.6969 C   0  0  0  0  0  0  0  0  0  0  0  0
  -30.5123  -12.6762   19.4616 C   0  0  0  0  0  0  0  0  0  0  0  0
  -28.6118  -13.3523   20.8759 C   0  0  0  0  0  0  0  0  0  0  0  0
  -23.0526  -30.2175   20.9976 C   0  0  1  0  0  0  0  0  0  0  0  0
  -26.2636  -31.0433   22.8528 C   0  0  1  0  0  0  0  0  0  0  0  0
  -27.6303  -13.2000   19.7024 C   0  0  2  0  0  0  0  0  0  0  0  0
  -32.5712  -35.4886   22.1774 C   0  0  0  0  0  0  0  0  0  0  0  0
  -27.7212  -32.5672   18.7402 C   0  0  0  0  0  0  0  0  0  0  0  0
  -29.9139  -33.7756   18.7530 C   0  0  0  0  0  0  0  0  0  0  0  0
  -27.8726  -34.8897   19.6555 C   0  0  0  0  0  0  0  0  0  0  0  0
  -31.6336  -33.3128   25.1545 C   0  0  0  0  0  0  0  0  0  0  0  0
  -29.8955  -22.0814   22.6659 C   0  0  0  0  0  0  0  0  0  0  0  0
  -29.6051  -24.5350   23.3514 C   0  0  0  0  0  0  0  0  0  1  0  0
  -28.9446  -33.0145   20.9694 C   0  0  1  0  0  0  0  0  0  0  0  0
  -31.6393  -34.6711   23.0584 C   0  0  2  0  0  0  0  0  0  0  0  0
  -28.6099  -33.5374   19.5439 C   0  0  0  0  0  0  0  0  0  0  0  0
  -29.6080  -19.2616   22.5535 N   0  0  0  0  0  0  0  0  0  0  0  0
  -25.8604  -11.5808   20.2744 N   0  0  0  0  0  0  0  0  0  0  0  0
  -26.2265  -12.8700   20.1740 N   0  0  0  0  0  0  0  0  0  0  0  0
  -27.5352  -31.4197   22.2319 N   0  0  0  0  0  0  0  0  0  0  0  0
  -29.9531  -13.6812   20.3684 N   0  0  0  0  0  0  0  0  0  0  0  0
  -25.4454  -15.0849   20.4824 N   0  0  0  0  0  0  0  0  0  0  0  0
  -21.8895  -12.5547   21.6445 N   0  0  0  0  0  0  0  0  0  0  0  0
  -30.0577  -15.7338   21.5251 N   0  0  0  0  0  0  0  0  0  0  0  0
  -30.6156  -21.2336   21.7505 N   0  0  0  0  0  0  0  0  0  0  0  0
  -24.0551  -30.6950   21.9259 N   0  0  0  0  0  0  0  0  0  0  0  0
  -29.7626  -33.9252   21.7631 N   0  0  0  0  0  0  0  0  0  0  0  0
  -32.4303  -34.1199   24.1948 N   0  3  0  0  0  0  0  0  0  0  0  0
  -22.6466  -14.7066   21.4100 O   0  0  0  0  0  0  0  0  0  0  0  0
  -25.9317  -29.8191   20.8612 O   0  0  0  0  0  0  0  0  0  0  0  0
  -31.1232  -23.8708   21.6117 O   0  0  0  0  0  0  0  0  0  0  0  0
  -26.9220  -33.6599   22.0272 O   0  0  0  0  0  0  0  0  0  0  0  0
  -31.5079  -32.4436   22.1318 O   0  0  0  0  0  0  0  0  0  0  0  0
  -31.8288  -15.0226   20.2063 O   0  0  0  0  0  0  0  0  0  0  0  0
  -21.6592   -6.9886   21.6201 O   0  0  0  0  0  0  0  0  0  0  0  0
  -30.0653  -25.8573   23.0754 O   0  0  0  0  0  0  0  0  0  1  0  0
  -16.4784   -6.8104   19.7410 F   0  0  0  0  0  0  0  0  0  0  0  0
  -32.0738  -19.8055   19.9401 F   0  0  0  0  0  0  0  0  0  0  0  0
  -20.8802   -5.0705   19.7880 F   0  0  0  0  0  0  0  0  0  0  0  0
  1  2  1  0  0  0  0
  1  5  2  0  0  0  0
  2  6  2  0  0  0  0
  3  8  2  0  0  0  0
  3 17  1  0  0  0  0
  4  9  1  0  0  0  0
  4 17  2  0  0  0  0
  5 19  1  0  0  0  0
  6 21  1  0  0  0  0
  7 10  2  0  0  0  0
  7 20  1  0  0  0  0
  8 24  1  0  0  0  0
  9 24  2  0  0  0  0
 10 25  1  0  0  0  0
 11 12  2  0  0  0  0
 11 26  1  0  0  0  0
 12 27  1  0  0  0  0
 13 22  1  0  0  0  0
 13 25  2  0  0  0  0
 14 23  2  0  0  0  0
 14 28  1  0  0  0  0
 15 27  2  0  0  0  0
 15 29  1  0  0  0  0
 16 23  1  0  0  0  0
 16 61  2  0  0  0  0
 17 30  1  0  0  0  0
 18 30  1  0  0  0  0
 18 32  2  0  0  0  0
 18 33  1  0  0  0  0
 19 21  2  0  0  0  0
 19 39  1  0  0  0  0
 20 22  2  0  0  0  0
 20 40  1  0  0  0  0
 21 48  1  0  0  0  0
 22 41  1  0  0  0  0
 23 68  1  0  0  0  0
 24 79  1  0  0  0  0
 25 80  1  0  0  0  0
 26 29  2  0  0  0  0
 26 79  1  0  0  0  0
 27 81  1  0  0  0  0
 28 31  2  0  0  0  0
 28 82  1  0  0  0  0
 29 83  1  0  0  0  0
 30 62  2  0  0  0  0
 31 61  1  0  0  0  0
 31 69  1  0  0  0  0
 32 63  1  0  0  0  0
 32 66  1  0  0  0  0
 33 67  1  0  0  0  0
 33 73  2  0  0  0  0
 34 49  1  0  0  0  0
 34 70  1  0  0  0  0
 34 74  2  0  0  0  0
 35 56  1  0  0  0  0
 35 57  1  0  0  0  0
 35 75  2  0  0  0  0
 36 58  1  0  0  0  0
 36 64  1  0  0  0  0
 36 76  2  0  0  0  0
 37 59  1  0  0  0  0
 37 71  1  0  0  0  0
 37 77  2  0  0  0  0
 38 65  1  0  0  0  0
 38 68  1  0  0  0  0
 38 78  2  0  0  0  0
 39 42  1  0  0  0  0
 40 49  1  0  0  0  0
 41 64  1  0  0  0  0
 42 44  1  0  0  0  0
 43 45  1  0  0  0  0
 43 46  1  0  0  0  0
 44 48  1  0  0  0  0
 45 50  1  0  0  0  0
 46 65  1  0  0  0  0
 47 50  1  0  0  0  0
 47 65  1  0  0  0  0
 48 70  1  0  0  0  0
 49 64  1  0  0  0  0
 50 63  1  0  0  0  0
 51 59  1  0  0  0  0
 52 60  1  0  0  0  0
 53 60  1  0  0  0  0
 54 60  1  0  0  0  0
 55 72  1  0  0  0  0
 56 69  1  0  0  0  0
 57 80  1  0  0  0  0
 58 60  1  0  0  0  0
 58 71  1  0  0  0  0
 59 72  1  0  0  0  0
 62 63  1  0  0  0  0
M  CHG  1  72   1
M  ISO  4  38 100  57 101  68 100  80 101
M  END
> <Batch ID>
0162

> <Smiles>
CNC(C)C(=O)NC(C(=O)N1Cc2cc([101O:1][101CH2:1]C(=O)CNc3ncc([100NH:0][100C:0](=O)N4CCCC(n5nc(-c6ccc(Oc7ccc(F)cc7F)cc6)c(C(N)=O)c5N)C4)cc3F)ccc2CC1C(=O)NC1CCCc2ccccc21)C(C)(C)C

> <Shape>
0.270

> <Color>
0.190

> <Negative vol penalty>
0.000

$$$$

  -OEChem-04052303563D

 85 94  0     1  0  0  0  0  0999 V2000
  -26.6612  -33.3814   28.1754 C   0  0  0  0  0  0  0  0  0  0  0  0
  -26.7922  -32.1643   27.5144 C   0  0  0  0  0  0  0  0  0  0  0  0
  -23.2660   -9.7503   21.6801 C   0  0  0  0  0  0  0  0  0  0  0  0
  -23.9499  -11.0053   23.6280 C   0  0  0  0  0  0  0  0  0  0  0  0
  -25.6342  -34.2568   27.8248 C   0  0  0  0  0  0  0  0  0  0  0  0
  -25.8955  -31.8214   26.5031 C   0  0  0  0  0  0  0  0  0  0  0  0
  -27.1169  -28.6114   21.4326 C   0  0  0  0  0  0  0  0  0  0  0  0
  -22.6095   -8.8336   22.5012 C   0  0  0  0  0  0  0  0  0  0  0  0
  -23.2934  -10.0886   24.4491 C   0  0  0  0  0  0  0  0  0  0  0  0
  -26.9316  -27.2690   21.1049 C   0  0  0  0  0  0  0  0  0  0  0  0
  -23.4366   -6.2048   24.4582 C   0  0  0  0  0  0  0  0  0  0  0  0
  -23.6155   -4.8485   24.1866 C   0  0  0  0  0  0  0  0  0  0  0  0
  -24.8445  -27.8256   20.0310 C   0  0  0  0  0  0  0  0  0  0  0  0
  -29.0234  -19.3466   19.2050 C   0  0  0  0  0  0  0  0  0  0  0  0
  -21.2377   -4.6054   23.8344 C   0  0  0  0  0  0  0  0  0  0  0  0
  -23.9363  -10.8361   22.2435 C   0  0  0  0  0  0  0  0  0  0  0  0
  -24.0781  -12.9548   20.8298 C   0  0  0  0  0  0  0  0  0  0  0  0
  -24.7303  -33.9286   26.8021 C   0  0  0  0  0  0  0  0  0  0  0  0
  -26.1605  -29.5710   21.0709 C   0  0  0  0  0  0  0  0  0  0  0  0
  -24.8547  -32.6926   26.1394 C   0  0  0  0  0  0  0  0  0  0  0  0
  -25.0213  -29.1799   20.3531 C   0  0  0  0  0  0  0  0  0  0  0  0
  -30.0087  -18.7289   20.0117 C   0  0  0  0  0  0  0  0  0  0  0  0
  -22.6231   -9.0027   23.8857 C   0  0  0  0  0  0  0  0  0  0  0  0
  -25.7938  -26.8755   20.4065 C   0  0  0  0  0  0  0  0  0  0  0  0
  -22.1583   -6.7615   24.4180 C   0  0  0  0  0  0  0  0  0  0  0  0
  -22.5161   -4.0487   23.8746 C   0  0  0  0  0  0  0  0  0  0  0  0
  -21.0588   -5.9618   24.1061 C   0  0  0  0  0  0  0  0  0  0  0  0
  -24.6151  -11.7831   21.3959 C   0  0  0  0  0  0  0  0  0  0  0  0
  -30.2307  -19.5844   21.0657 C   0  0  0  0  0  0  0  0  0  0  0  0
  -28.7133  -20.5353   19.8236 C   0  0  0  0  0  0  0  0  0  0  0  0
  -25.1176  -13.4987   20.1155 C   0  0  0  0  0  0  0  0  0  0  0  0
  -27.2560  -22.1921   20.3925 C   0  0  0  0  0  0  0  0  0  0  0  0
  -22.7577  -13.5027   20.9399 C   0  0  0  0  0  0  0  0  0  0  0  0
  -26.2656  -23.2572   20.0502 C   0  0  0  0  0  0  0  0  0  0  0  0
  -24.2745  -31.5708   22.6669 C   0  0  0  0  0  0  0  0  0  0  0  0
  -30.5162  -14.9257   19.7873 C   0  0  0  0  0  0  0  0  0  0  0  0
  -23.5588  -32.6519   19.6935 C   0  0  0  0  0  0  0  0  0  0  0  0
  -23.4043  -32.0254   16.3423 C   0  0  0  0  0  0  0  0  0  0  0  0
  -23.6077  -34.8864   26.4905 C   0  0  0  0  0  0  0  0  0  0  0  0
  -26.3882  -31.0189   21.4085 C   0  0  0  0  0  0  0  0  0  0  0  0
  -23.9745  -30.1740   19.9237 C   0  0  0  0  0  0  0  0  0  0  0  0
  -22.9261  -34.6114   25.1526 C   0  0  0  0  0  0  0  0  0  0  0  0
  -29.6188  -11.5829   18.8598 C   0  0  0  0  0  0  0  0  0  0  0  0
  -22.6260  -33.1234   25.0023 C   0  0  0  0  0  0  0  0  0  0  0  0
  -30.7671  -18.5371   23.4082 C   0  0  0  0  0  0  0  0  0  0  0  0
  -30.9642  -20.0144   23.5459 C   0  0  0  0  0  0  0  0  0  0  0  0
  -28.2048  -11.4231   19.4167 C   0  0  0  0  0  0  0  0  0  0  0  0
  -30.4817  -12.4533   19.7680 C   0  0  0  0  0  0  0  0  0  0  0  0
  -28.4822  -13.6404   20.6133 C   0  0  0  0  0  0  0  0  0  0  0  0
  -23.9167  -32.2957   25.0201 C   0  0  1  0  0  0  0  0  0  0  0  0
  -31.2191  -19.3465   22.2113 C   0  0  0  0  0  0  0  0  0  0  0  0
  -25.0997  -31.8351   21.4394 C   0  0  1  0  0  0  0  0  0  0  0  0
  -27.5683  -12.7932   19.7103 C   0  0  2  0  0  0  0  0  0  0  0  0
  -22.7425  -33.0891   14.1679 C   0  0  0  0  0  0  0  0  0  0  0  0
  -20.6174  -32.2213   20.3809 C   0  0  0  0  0  0  0  0  0  0  0  0
  -20.0956  -32.3759   17.9371 C   0  0  0  0  0  0  0  0  0  0  0  0
  -21.0970  -34.3288   19.1228 C   0  0  0  0  0  0  0  0  0  0  0  0
  -26.1491  -31.7936   15.2601 C   0  0  0  0  0  0  0  0  0  0  0  0
  -30.6590  -17.4292   19.7607 C   0  0  0  0  0  0  0  0  0  0  0  0
  -26.6232  -24.6484   20.4964 C   0  0  0  0  0  0  0  0  0  1  0  0
  -29.7809  -16.2069   20.0902 C   0  0  0  0  0  0  0  0  0  0  0  0
  -22.5290  -32.3002   18.6472 C   0  0  1  0  0  0  0  0  0  0  0  0
  -23.8787  -32.8283   15.1445 C   0  0  2  0  0  0  0  0  0  0  0  0
  -21.1033  -32.7873   19.0317 C   0  0  0  0  0  0  0  0  0  0  0  0
  -25.8962  -11.5930   21.0692 N   0  0  0  0  0  0  0  0  0  0  0  0
  -27.7937  -21.5230   19.4326 N   0  0  0  0  0  0  0  0  0  0  0  0
  -26.1728  -12.6524   20.2901 N   0  0  0  0  0  0  0  0  0  0  0  0
  -24.2394  -31.5770   20.2829 N   0  0  0  0  0  0  0  0  0  0  0  0
  -29.8323  -13.7366   20.0412 N   0  0  0  0  0  0  0  0  0  0  0  0
  -25.2227  -14.6134   19.3613 N   0  0  0  0  0  0  0  0  0  0  0  0
  -21.8118  -12.8162   21.7133 N   0  0  0  0  0  0  0  0  0  0  0  0
  -24.5893  -32.3806   23.7415 N   0  0  0  0  0  0  0  0  0  0  0  0
  -23.0259  -32.8418   17.3870 N   0  0  0  0  0  0  0  0  0  0  0  0
  -24.9585  -32.0957   14.4246 N   0  3  0  0  0  0  0  0  0  0  0  0
  -22.4218  -14.5608   20.3558 O   0  0  0  0  0  0  0  0  0  0  0  0
  -25.2621  -22.9364   19.4334 O   0  0  0  0  0  0  0  0  0  0  0  0
  -23.4148  -30.6979   22.6407 O   0  0  0  0  0  0  0  0  0  0  0  0
  -31.6631  -14.9820   19.3359 O   0  0  0  0  0  0  0  0  0  0  0  0
  -23.7574  -33.8370   19.9722 O   0  0  0  0  0  0  0  0  0  0  0  0
  -23.3691  -30.7969   16.3490 O   0  0  0  0  0  0  0  0  0  0  0  0
  -29.4449  -20.6878   20.9586 O   0  0  0  0  0  0  0  0  0  0  0  0
  -21.9824   -8.1085   24.6872 O   0  0  0  0  0  0  0  0  0  0  0  0
  -25.6101  -25.5658   20.0860 O   0  0  0  0  0  0  0  0  0  1  0  0
  -22.6882   -2.7466   23.6123 F   0  0  0  0  0  0  0  0  0  0  0  0
  -19.8284   -6.4912   24.0647 F   0  0  0  0  0  0  0  0  0  0  0  0
  1  2  1  0  0  0  0
  1  5  2  0  0  0  0
  2  6  2  0  0  0  0
  3  8  2  0  0  0  0
  3 16  1  0  0  0  0
  4  9  1  0  0  0  0
  4 16  2  0  0  0  0
  5 18  1  0  0  0  0
  6 20  1  0  0  0  0
  7 10  2  0  0  0  0
  7 19  1  0  0  0  0
  8 23  1  0  0  0  0
  9 23  2  0  0  0  0
 10 24  1  0  0  0  0
 11 12  2  0  0  0  0
 11 25  1  0  0  0  0
 12 26  1  0  0  0  0
 13 21  1  0  0  0  0
 13 24  2  0  0  0  0
 14 22  1  0  0  0  0
 14 30  2  0  0  0  0
 15 26  2  0  0  0  0
 15 27  1  0  0  0  0
 16 28  1  0  0  0  0
 17 28  1  0  0  0  0
 17 31  2  0  0  0  0
 17 33  1  0  0  0  0
 18 20  2  0  0  0  0
 18 39  1  0  0  0  0
 19 21  2  0  0  0  0
 19 40  1  0  0  0  0
 20 50  1  0  0  0  0
 21 41  1  0  0  0  0
 22 29  2  0  0  0  0
 22 59  1  0  0  0  0
 23 82  1  0  0  0  0
 24 83  1  0  0  0  0
 25 27  2  0  0  0  0
 25 82  1  0  0  0  0
 26 84  1  0  0  0  0
 27 85  1  0  0  0  0
 28 65  2  0  0  0  0
 29 51  1  0  0  0  0
 29 81  1  0  0  0  0
 30 66  1  0  0  0  0
 30 81  1  0  0  0  0
 31 67  1  0  0  0  0
 31 70  1  0  0  0  0
 32 34  1  0  0  0  0
 32 66  2  0  0  0  0
 33 71  1  0  0  0  0
 33 75  2  0  0  0  0
 34 60  1  0  0  0  0
 34 76  2  0  0  0  0
 35 52  1  0  0  0  0
 35 72  1  0  0  0  0
 35 77  2  0  0  0  0
 36 61  1  0  0  0  0
 36 69  1  0  0  0  0
 36 78  2  0  0  0  0
 37 62  1  0  0  0  0
 37 68  1  0  0  0  0
 37 79  2  0  0  0  0
 38 63  1  0  0  0  0
 38 73  1  0  0  0  0
 38 80  2  0  0  0  0
 39 42  1  0  0  0  0
 40 52  1  0  0  0  0
 41 68  1  0  0  0  0
 42 44  1  0  0  0  0
 43 47  1  0  0  0  0
 43 48  1  0  0  0  0
 44 50  1  0  0  0  0
 45 46  1  0  0  0  0
 45 51  1  0  0  0  0
 46 51  1  0  0  0  0
 47 53  1  0  0  0  0
 48 69  1  0  0  0  0
 49 53  1  0  0  0  0
 49 69  1  0  0  0  0
 50 72  1  0  0  0  0
 52 68  1  0  0  0  0
 53 67  1  0  0  0  0
 54 63  1  0  0  0  0
 55 64  1  0  0  0  0
 56 64  1  0  0  0  0
 57 64  1  0  0  0  0
 58 74  1  0  0  0  0
 59 61  1  0  0  0  0
 60 83  1  0  0  0  0
 62 64  1  0  0  0  0
 62 73  1  0  0  0  0
 63 74  1  0  0  0  0
 65 67  1  0  0  0  0
M  CHG  1  74   1
M  ISO  4  36 100  60 101  61 100  83 101
M  END
> <Batch ID>
0162

> <Smiles>
CNC(C)C(=O)NC(C(=O)N1Cc2cc([101O:1][101CH2:1]C(=O)CNc3cc(C=[100CH:0][100C:0](=O)N4CCCC(n5nc(-c6ccc(Oc7ccc(F)cc7F)cc6)c(C(N)=O)c5N)C4)c(C4CC4)o3)ccc2CC1C(=O)NC1CCCc2ccccc21)C(C)(C)C

> <Shape>
0.283

> <Color>
0.161

> <Negative vol penalty>
0.000

$$$$

  -OEChem-04052303563D

 89 97  0     1  0  0  0  0  0999 V2000
  -32.2476  -14.9954   20.8446 C   0  0  0  0  0  0  0  0  0  0  0  0
  -31.3247  -16.0309   20.7383 C   0  0  0  0  0  0  0  0  0  0  0  0
  -28.0755  -24.5748   19.3490 C   0  0  0  0  0  0  0  0  0  0  0  0
  -29.8914  -25.7321   20.4444 C   0  0  0  0  0  0  0  0  0  0  0  0
  -31.8577  -13.6849   20.5716 C   0  0  0  0  0  0  0  0  0  0  0  0
  -30.0116  -15.7567   20.3577 C   0  0  0  0  0  0  0  0  0  0  0  0
  -24.9471  -18.6058   22.2915 C   0  0  0  0  0  0  0  0  0  0  0  0
  -28.9925  -23.8929   18.5492 C   0  0  0  0  0  0  0  0  0  0  0  0
  -30.8085  -25.0501   19.6447 C   0  0  0  0  0  0  0  0  0  0  0  0
  -24.1684  -19.6178   21.7318 C   0  0  0  0  0  0  0  0  0  0  0  0
  -31.0857  -21.2550   18.8542 C   0  0  0  0  0  0  0  0  0  0  0  0
  -30.9029  -19.8827   18.6843 C   0  0  0  0  0  0  0  0  0  0  0  0
  -22.6702  -17.9571   20.8283 C   0  0  0  0  0  0  0  0  0  0  0  0
  -19.8245  -26.1051   22.6554 C   0  0  0  0  0  0  0  0  0  0  0  0
  -30.6924  -20.2061   16.2993 C   0  0  0  0  0  0  0  0  0  0  0  0
  -18.0830  -27.7189   22.7949 C   0  0  0  0  0  0  0  0  0  0  0  0
  -17.7383  -25.8192   21.5499 C   0  0  0  0  0  0  0  0  0  0  0  0
  -28.5250  -25.4945   20.2966 C   0  0  0  0  0  0  0  0  0  0  0  0
  -27.0785  -25.7978   22.3759 C   0  0  0  0  0  0  0  0  0  0  0  0
  -30.5366  -13.3933   20.1969 C   0  0  0  0  0  0  0  0  0  0  0  0
  -24.5985  -17.2591   22.1143 C   0  0  0  0  0  0  0  0  0  0  0  0
  -29.6039  -14.4413   20.0782 C   0  0  0  0  0  0  0  0  0  0  0  0
  -23.4446  -16.9299   21.3889 C   0  0  0  0  0  0  0  0  0  0  0  0
  -19.3634  -27.3219   23.1453 C   0  0  0  0  0  0  0  0  0  0  0  0
  -19.0026  -25.3333   21.8417 C   0  0  0  0  0  0  0  0  0  0  0  0
  -30.3590  -24.1305   18.6971 C   0  0  0  0  0  0  0  0  0  0  0  0
  -23.0314  -19.2935   20.9977 C   0  0  0  0  0  0  0  0  0  0  0  0
  -31.0717  -22.1029   17.7467 C   0  0  0  0  0  0  0  0  0  0  0  0
  -30.7063  -19.3582   17.4068 C   0  0  0  0  0  0  0  0  0  0  0  0
  -30.8751  -21.5785   16.4693 C   0  0  0  0  0  0  0  0  0  0  0  0
  -27.5782  -26.1997   21.1226 C   0  0  0  0  0  0  0  0  0  0  0  0
  -26.2180  -26.8041   22.7412 C   0  0  0  0  0  0  0  0  0  0  0  0
  -27.3666  -24.6202   23.1414 C   0  0  0  0  0  0  0  0  0  0  0  0
  -25.9829  -14.7448   20.7485 C   0  0  0  0  0  0  0  0  0  0  0  0
  -19.6845  -28.3649   25.4497 C   0  0  0  0  0  0  0  0  0  0  0  0
  -20.8951  -22.2186   20.9172 C   0  0  0  0  0  0  0  0  0  0  0  0
  -23.4523  -13.1562   22.0113 C   0  0  0  0  0  0  0  0  0  0  0  0
  -20.6117  -29.5029   23.3492 C   0  0  0  0  0  0  0  0  0  0  0  0
  -20.2434  -13.2711   23.1673 C   0  0  0  0  0  0  0  0  0  0  0  0
  -22.2453  -30.4409   21.7318 C   0  0  0  0  0  0  0  0  0  0  0  0
  -30.1739  -11.9672   19.8660 C   0  0  0  0  0  0  0  0  0  0  0  0
  -25.4341  -16.1802   22.7470 C   0  0  0  0  0  0  0  0  0  0  0  0
  -23.0159  -15.5003   21.1867 C   0  0  0  0  0  0  0  0  0  0  0  0
  -28.6689  -11.7136   19.8324 C   0  0  0  0  0  0  0  0  0  0  0  0
  -25.4514  -31.3911   20.7230 C   0  0  0  0  0  0  0  0  0  0  0  0
  -27.9608  -12.8079   19.0400 C   0  0  0  0  0  0  0  0  0  0  0  0
  -26.2626  -30.0975   20.8579 C   0  0  0  0  0  0  0  0  0  0  0  0
  -24.0476  -31.1299   20.1755 C   0  0  0  0  0  0  0  0  0  0  0  0
  -24.0941  -28.8154   20.9983 C   0  0  0  0  0  0  0  0  0  0  0  0
  -28.1640  -14.1808   19.6922 C   0  0  1  0  0  0  0  0  0  0  0  0
  -25.2709  -14.8233   22.0693 C   0  0  1  0  0  0  0  0  0  0  0  0
  -25.4812  -29.0138   21.6296 C   0  0  1  0  0  0  0  0  0  0  0  0
  -18.8595  -27.4555   27.6204 C   0  0  0  0  0  0  0  0  0  0  0  0
  -18.4311  -11.8056   24.0976 C   0  0  0  0  0  0  0  0  0  0  0  0
  -22.8981  -12.0701   19.2143 C   0  0  0  0  0  0  0  0  0  0  0  0
  -20.6091  -11.4227   19.9950 C   0  0  0  0  0  0  0  0  0  0  0  0
  -22.6223  -10.4002   21.0554 C   0  0  0  0  0  0  0  0  0  0  0  0
  -20.1712  -14.7786   25.7131 C   0  0  0  0  0  0  0  0  0  0  0  0
  -19.4013  -27.1064   26.2487 C   0  0  0  0  0  0  0  0  0  0  0  0
  -20.7388  -23.5566   21.6082 C   0  0  0  0  0  0  0  0  0  0  0  0
  -22.2308  -21.5296   21.1183 C   0  0  0  0  0  0  0  0  0  1  0  0
  -20.2375  -28.1900   24.0365 C   0  0  2  0  0  0  0  0  0  0  0  0
  -22.0592  -12.8171   21.5390 C   0  0  1  0  0  0  0  0  0  0  0  0
  -19.6060  -12.7133   24.4270 C   0  0  2  0  0  0  0  0  0  0  0  0
  -22.0560  -11.7045   20.4529 C   0  0  0  0  0  0  0  0  0  0  0  0
  -17.2556  -26.9963   22.0070 N   0  0  0  0  0  0  0  0  0  0  0  0
  -27.0767  -27.3699   20.7188 N   0  0  0  0  0  0  0  0  0  0  0  0
  -26.2529  -27.7120   21.7240 N   0  0  0  0  0  0  0  0  0  0  0  0
  -23.8692  -14.4811   21.8196 N   0  0  0  0  0  0  0  0  0  0  0  0
  -23.3839  -30.1024   20.9790 N   0  0  0  0  0  0  0  0  0  0  0  0
  -25.4424  -26.9919   23.8300 N   0  0  0  0  0  0  0  0  0  0  0  0
  -28.2743  -23.6890   22.6187 N   0  0  0  0  0  0  0  0  0  0  0  0
  -19.4412  -24.0998   21.3330 N   0  0  0  0  0  0  0  0  0  0  0  0
  -27.2970  -14.3276   20.8417 N   0  0  0  0  0  0  0  0  0  0  0  0
  -21.7113  -29.3983   22.4968 N   0  0  0  0  0  0  0  0  0  0  0  0
  -21.2918  -12.4867   22.7350 N   0  0  0  0  0  0  0  0  0  0  0  0
  -19.1149  -13.8218   25.2936 N   0  3  0  0  0  0  0  0  0  0  0  0
  -26.8223  -24.3924   24.2483 O   0  0  0  0  0  0  0  0  0  0  0  0
  -25.3841  -15.0394   19.7208 O   0  0  0  0  0  0  0  0  0  0  0  0
  -19.5049  -29.4746   25.9535 O   0  0  0  0  0  0  0  0  0  0  0  0
  -20.0042  -21.7142   20.2348 O   0  0  0  0  0  0  0  0  0  0  0  0
  -24.1426  -12.2798   22.5376 O   0  0  0  0  0  0  0  0  0  0  0  0
  -19.9621  -30.5297   23.5428 O   0  0  0  0  0  0  0  0  0  0  0  0
  -19.8482  -14.2977   22.6192 O   0  0  0  0  0  0  0  0  0  0  0  0
  -21.7687  -31.5798   21.7500 O   0  0  0  0  0  0  0  0  0  0  0  0
  -31.2541  -23.4650   17.9170 O   0  0  0  0  0  0  0  0  0  0  0  0
  -22.2621  -20.2895   20.4440 O   0  0  0  0  0  0  0  0  0  1  0  0
  -30.5323  -18.0402   17.2436 F   0  0  0  0  0  0  0  0  0  0  0  0
  -30.8619  -22.3879   15.4013 F   0  0  0  0  0  0  0  0  0  0  0  0
  1  2  1  0  0  0  0
  1  5  2  0  0  0  0
  2  6  2  0  0  0  0
  3  8  2  0  0  0  0
  3 18  1  0  0  0  0
  4  9  1  0  0  0  0
  4 18  2  0  0  0  0
  5 20  1  0  0  0  0
  6 22  1  0  0  0  0
  7 10  2  0  0  0  0
  7 21  1  0  0  0  0
  8 26  1  0  0  0  0
  9 26  2  0  0  0  0
 10 27  1  0  0  0  0
 11 12  2  0  0  0  0
 11 28  1  0  0  0  0
 12 29  1  0  0  0  0
 13 23  1  0  0  0  0
 13 27  2  0  0  0  0
 14 24  2  0  0  0  0
 14 25  1  0  0  0  0
 15 29  2  0  0  0  0
 15 30  1  0  0  0  0
 16 24  1  0  0  0  0
 16 66  2  0  0  0  0
 17 25  2  0  0  0  0
 17 66  1  0  0  0  0
 18 31  1  0  0  0  0
 19 31  1  0  0  0  0
 19 32  2  0  0  0  0
 19 33  1  0  0  0  0
 20 22  2  0  0  0  0
 20 41  1  0  0  0  0
 21 23  2  0  0  0  0
 21 42  1  0  0  0  0
 22 50  1  0  0  0  0
 23 43  1  0  0  0  0
 24 62  1  0  0  0  0
 25 73  1  0  0  0  0
 26 86  1  0  0  0  0
 27 87  1  0  0  0  0
 28 30  2  0  0  0  0
 28 86  1  0  0  0  0
 29 88  1  0  0  0  0
 30 89  1  0  0  0  0
 31 67  2  0  0  0  0
 32 68  1  0  0  0  0
 32 71  1  0  0  0  0
 33 72  1  0  0  0  0
 33 78  2  0  0  0  0
 34 51  1  0  0  0  0
 34 74  1  0  0  0  0
 34 79  2  0  0  0  0
 35 59  1  0  0  0  0
 35 62  1  0  0  0  0
 35 80  2  0  0  0  0
 36 60  1  0  0  0  0
 36 61  1  0  0  0  0
 36 81  2  0  0  0  0
 37 63  1  0  0  0  0
 37 69  1  0  0  0  0
 37 82  2  0  0  0  0
 38 62  1  0  0  0  0
 38 75  1  0  0  0  0
 38 83  2  0  0  0  0
 39 64  1  0  0  0  0
 39 76  1  0  0  0  0
 39 84  2  0  0  0  0
 40 70  1  0  0  0  0
 40 75  1  0  0  0  0
 40 85  2  0  0  0  0
 41 44  1  0  0  0  0
 42 51  1  0  0  0  0
 43 69  1  0  0  0  0
 44 46  1  0  0  0  0
 45 47  1  0  0  0  0
 45 48  1  0  0  0  0
 46 50  1  0  0  0  0
 47 52  1  0  0  0  0
 48 70  1  0  0  0  0
 49 52  1  0  0  0  0
 49 70  1  0  0  0  0
 50 74  1  0  0  0  0
 51 69  1  0  0  0  0
 52 68  1  0  0  0  0
 53 59  1  0  0  0  0
 54 64  1  0  0  0  0
 55 65  1  0  0  0  0
 56 65  1  0  0  0  0
 57 65  1  0  0  0  0
 58 77  1  0  0  0  0
 60 73  1  0  0  0  0
 61 87  1  0  0  0  0
 63 65  1  0  0  0  0
 63 76  1  0  0  0  0
 64 77  1  0  0  0  0
 67 68  1  0  0  0  0
M  CHG  1  77   1
M  ISO  4  40 100  61 101  75 100  87 101
M  END
> <Batch ID>
0162

> <Smiles>
CCC(=O)C(C(=O)[100NH:0][100C:0](=O)N1CCCC(n2nc(-c3ccc(Oc4ccc(F)cc4F)cc3)c(C(N)=O)c2N)C1)c1cncc(NCC(=O)[101CH2:1][101O:1]c2ccc3c(c2)CN(C(=O)C(NC(=O)C(C)NC)C(C)(C)C)C(C(=O)NC2CCCc4ccccc42)C3)c1

> <Shape>
0.253

> <Color>
0.068

> <Negative vol penalty>
0.000

$$$$

  -OEChem-04052303563D

 84 92  0     1  0  0  0  0  0999 V2000
  -16.7136  -28.1278   23.4672 C   0  0  0  0  0  0  0  0  0  0  0  0
  -17.4231  -27.6930   22.3523 C   0  0  0  0  0  0  0  0  0  0  0  0
  -27.4016  -14.5591   19.4355 C   0  0  0  0  0  0  0  0  0  0  0  0
  -25.5670  -15.2208   20.8615 C   0  0  0  0  0  0  0  0  0  0  0  0
  -17.1844  -29.2066   24.2144 C   0  0  0  0  0  0  0  0  0  0  0  0
  -18.6033  -28.3375   21.9834 C   0  0  0  0  0  0  0  0  0  0  0  0
  -22.3035  -25.0883   20.8016 C   0  0  0  0  0  0  0  0  0  0  0  0
  -27.0869  -13.2178   19.6530 C   0  0  0  0  0  0  0  0  0  0  0  0
  -25.2522  -13.8794   21.0789 C   0  0  0  0  0  0  0  0  0  0  0  0
  -22.2466  -24.4884   19.5444 C   0  0  0  0  0  0  0  0  0  0  0  0
  -23.6608  -11.3968   19.4282 C   0  0  0  0  0  0  0  0  0  0  0  0
  -22.3181  -11.0272   19.3517 C   0  0  0  0  0  0  0  0  0  0  0  0
  -23.8753  -26.0674   18.7239 C   0  0  0  0  0  0  0  0  0  0  0  0
  -22.3971  -10.2657   21.6432 C   0  0  0  0  0  0  0  0  0  0  0  0
  -26.6417  -15.5607   20.0398 C   0  0  0  0  0  0  0  0  0  0  0  0
  -26.4738  -17.7810   18.7950 C   0  0  0  0  0  0  0  0  0  0  0  0
  -18.3761  -29.8586   23.8601 C   0  0  0  0  0  0  0  0  0  0  0  0
  -23.1400  -26.1910   21.0269 C   0  0  0  0  0  0  0  0  0  0  0  0
  -19.0898  -29.4269   22.7258 C   0  0  0  0  0  0  0  0  0  0  0  0
  -23.9429  -26.6779   19.9855 C   0  0  0  0  0  0  0  0  0  0  0  0
  -26.0122  -12.8779   20.4746 C   0  0  0  0  0  0  0  0  0  0  0  0
  -23.0304  -24.9797   18.5045 C   0  0  0  0  0  0  0  0  0  0  0  0
  -24.3718  -11.2009   20.6122 C   0  0  0  0  0  0  0  0  0  0  0  0
  -21.6862  -10.4617   20.4592 C   0  0  0  0  0  0  0  0  0  0  0  0
  -23.7399  -10.6354   21.7197 C   0  0  0  0  0  0  0  0  0  0  0  0
  -26.9666  -16.9465   19.8160 C   0  0  0  0  0  0  0  0  0  0  0  0
  -28.6995  -22.0472   15.8252 C   0  0  0  0  0  0  0  0  0  0  0  0
  -29.3691  -23.0618   16.4766 C   0  0  0  0  0  0  0  0  0  0  0  0
  -27.0825  -18.9920   19.0177 C   0  0  0  0  0  0  0  0  0  0  0  0
  -26.9645  -23.2009   16.5098 C   0  0  0  0  0  0  0  0  0  0  0  0
  -25.5485  -17.4879   17.7398 C   0  0  0  0  0  0  0  0  0  0  0  0
  -22.6797  -29.2194   21.8760 C   0  0  0  0  0  0  0  0  0  0  0  0
  -25.9215  -29.2766   21.9756 C   0  0  0  0  0  0  0  0  0  0  0  0
  -31.2486  -23.3834   18.0859 C   0  0  0  0  0  0  0  0  0  0  0  0
  -28.8768  -27.9397   20.9145 C   0  0  0  0  0  0  0  0  0  0  0  0
  -31.3249  -22.1648   20.2398 C   0  0  0  0  0  0  0  0  0  0  0  0
  -18.8204  -31.0502   24.6709 C   0  0  0  0  0  0  0  0  0  0  0  0
  -23.2099  -26.8101   22.3959 C   0  0  0  0  0  0  0  0  0  0  0  0
  -24.8727  -27.8466   20.1810 C   0  0  0  0  0  0  0  0  0  0  0  0
  -20.2767  -31.4407   24.4318 C   0  0  0  0  0  0  0  0  0  0  0  0
  -29.8202  -20.6482   22.9540 C   0  0  0  0  0  0  0  0  0  0  0  0
  -20.5835  -31.4688   22.9379 C   0  0  0  0  0  0  0  0  0  0  0  0
  -28.8746  -19.6301   22.3049 C   0  0  0  0  0  0  0  0  0  0  0  0
  -31.1657  -20.7209   22.2301 C   0  0  0  0  0  0  0  0  0  0  0  0
  -30.1625  -19.8888   20.1513 C   0  0  0  0  0  0  0  0  0  0  0  0
  -20.3872  -30.0845   22.3082 C   0  0  1  0  0  0  0  0  0  0  0  0
  -23.7134  -28.2500   22.3755 C   0  0  1  0  0  0  0  0  0  0  0  0
  -28.7611  -19.8483   20.7811 C   0  0  1  0  0  0  0  0  0  0  0  0
  -29.3216  -20.9055   15.1239 C   0  0  0  0  0  0  0  0  0  0  0  0
  -31.3601  -28.2230   21.1383 C   0  0  0  0  0  0  0  0  0  0  0  0
  -22.1126  -22.2509   16.7114 C   0  0  0  0  0  0  0  0  0  0  0  0
  -25.8113  -31.6917   20.1140 C   0  0  0  0  0  0  0  0  0  0  0  0
  -28.2409  -31.3374   19.6242 C   0  0  0  0  0  0  0  0  0  0  0  0
  -27.5028  -31.8645   21.9480 C   0  0  0  0  0  0  0  0  0  0  0  0
  -29.1986  -25.2327   22.0668 C   0  0  0  0  0  0  0  0  0  0  0  0
  -30.8499  -23.2916   16.6549 C   0  0  0  0  0  0  0  0  0  0  0  0
  -24.5096  -22.8491   16.2351 C   0  0  0  0  0  0  0  0  0  0  0  0
  -27.0165  -29.5795   20.9814 C   0  0  1  0  0  0  0  0  0  0  0  0
  -30.1225  -27.5197   21.6736 C   0  0  2  0  0  0  0  0  0  0  0  0
  -23.3347  -23.0175   17.1957 C   0  0  1  0  0  0  0  0  0  1  0  0
  -27.1240  -31.0975   20.6624 C   0  0  0  0  0  0  0  0  0  0  0  0
  -27.8226  -17.5741   20.6269 N   0  0  0  0  0  0  0  0  0  0  0  0
  -27.3206  -22.1250   15.8436 N   0  0  0  0  0  0  0  0  0  0  0  0
  -27.8724  -18.8159   20.1155 N   0  0  0  0  0  0  0  0  0  0  0  0
  -24.9008  -28.4218   21.5360 N   0  0  0  0  0  0  0  0  0  0  0  0
  -30.9472  -20.9449   20.8014 N   0  0  0  0  0  0  0  0  0  0  0  0
  -27.0138  -20.1796   18.3794 N   0  0  0  0  0  0  0  0  0  0  0  0
  -25.0181  -16.1933   17.6568 N   0  0  0  0  0  0  0  0  0  0  0  0
  -25.6520  -23.5878   16.7232 N   0  0  0  0  0  0  0  0  0  0  0  0
  -21.5116  -29.2261   22.6141 N   0  0  0  0  0  0  0  0  0  0  0  0
  -31.0205  -22.3004   18.8346 N   0  0  0  0  0  0  0  0  0  0  0  0
  -28.2368  -28.9959   21.5278 N   0  0  0  0  0  0  0  0  0  0  0  0
  -31.7859  -24.5318   18.4809 N   0  3  0  0  0  0  0  0  0  0  0  0
  -30.3298  -26.0486   21.5555 N   0  3  0  0  0  0  0  0  0  0  0  0
  -25.2150  -18.3439   16.8857 O   0  0  0  0  0  0  0  0  0  0  0  0
  -22.9245  -29.9110   20.8944 O   0  0  0  0  0  0  0  0  0  0  0  0
  -25.9738  -29.7743   23.1030 O   0  0  0  0  0  0  0  0  0  0  0  0
  -28.5103  -27.3885   19.8790 O   0  0  0  0  0  0  0  0  0  0  0  0
  -31.8391  -23.1014   20.8412 O   0  0  0  0  0  0  0  0  0  0  0  0
  -25.7047  -11.5691   20.6868 O   0  0  0  0  0  0  0  0  0  0  0  0
  -22.9763  -24.3964   17.2762 O   0  0  0  0  0  0  0  0  0  1  0  0
  -20.3963  -10.1081   20.3860 F   0  0  0  0  0  0  0  0  0  0  0  0
  -24.4174  -10.4458   22.8602 F   0  0  0  0  0  0  0  0  0  0  0  0
  -28.2363  -24.1647   17.1411 S   0  0  0  0  0  0  0  0  0  0  0  0
  1  2  1  0  0  0  0
  1  5  2  0  0  0  0
  2  6  2  0  0  0  0
  3  8  2  0  0  0  0
  3 15  1  0  0  0  0
  4  9  1  0  0  0  0
  4 15  2  0  0  0  0
  5 17  1  0  0  0  0
  6 19  1  0  0  0  0
  7 10  2  0  0  0  0
  7 18  1  0  0  0  0
  8 21  1  0  0  0  0
  9 21  2  0  0  0  0
 10 22  1  0  0  0  0
 11 12  2  0  0  0  0
 11 23  1  0  0  0  0
 12 24  1  0  0  0  0
 13 20  1  0  0  0  0
 13 22  2  0  0  0  0
 14 24  2  0  0  0  0
 14 25  1  0  0  0  0
 15 26  1  0  0  0  0
 16 26  1  0  0  0  0
 16 29  2  0  0  0  0
 16 31  1  0  0  0  0
 17 19  2  0  0  0  0
 17 37  1  0  0  0  0
 18 20  2  0  0  0  0
 18 38  1  0  0  0  0
 19 46  1  0  0  0  0
 20 39  1  0  0  0  0
 21 80  1  0  0  0  0
 22 81  1  0  0  0  0
 23 25  2  0  0  0  0
 23 80  1  0  0  0  0
 24 82  1  0  0  0  0
 25 83  1  0  0  0  0
 26 62  2  0  0  0  0
 27 28  2  0  0  0  0
 27 49  1  0  0  0  0
 27 63  1  0  0  0  0
 28 56  1  0  0  0  0
 28 84  1  0  0  0  0
 29 64  1  0  0  0  0
 29 67  1  0  0  0  0
 30 63  2  0  0  0  0
 30 69  1  0  0  0  0
 30 84  1  0  0  0  0
 31 68  1  0  0  0  0
 31 75  2  0  0  0  0
 32 47  1  0  0  0  0
 32 70  1  0  0  0  0
 32 76  2  0  0  0  0
 33 58  1  0  0  0  0
 33 65  1  0  0  0  0
 33 77  2  0  0  0  0
 34 56  1  0  0  0  0
 34 71  1  0  0  0  0
 34 73  2  0  0  0  0
 35 59  1  0  0  0  0
 35 72  1  0  0  0  0
 35 78  2  0  0  0  0
 36 66  1  0  0  0  0
 36 71  1  0  0  0  0
 36 79  2  0  0  0  0
 37 40  1  0  0  0  0
 38 47  1  0  0  0  0
 39 65  1  0  0  0  0
 40 42  1  0  0  0  0
 41 43  1  0  0  0  0
 41 44  1  0  0  0  0
 42 46  1  0  0  0  0
 43 48  1  0  0  0  0
 44 66  1  0  0  0  0
 45 48  1  0  0  0  0
 45 66  1  0  0  0  0
 46 70  1  0  0  0  0
 47 65  1  0  0  0  0
 48 64  1  0  0  0  0
 50 59  1  0  0  0  0
 51 60  1  0  0  0  0
 52 61  1  0  0  0  0
 53 61  1  0  0  0  0
 54 61  1  0  0  0  0
 55 74  1  0  0  0  0
 57 60  1  0  0  0  0
 57 69  1  0  0  0  0
 58 61  1  0  0  0  0
 58 72  1  0  0  0  0
 59 74  1  0  0  0  0
 60 81  1  0  0  0  0
 62 64  1  0  0  0  0
M  CHG  2  73   1  74   1
M  ISO  4  36 100  60 101  71 100  81 101
M  END
> <Batch ID>
0162

> <Smiles>
CNC(C)C(=O)NC(C(=O)N1Cc2cc([101O:1][101CH:1](C)CNc3nc(C)c(CC(N)=[100N:0][100C:0](=O)N4CCCC(n5nc(-c6ccc(Oc7ccc(F)cc7F)cc6)c(C(N)=O)c5N)C4)s3)ccc2CC1C(=O)NC1CCCc2ccccc21)C(C)(C)C

> <Shape>
0.254

> <Color>
0.059

> <Negative vol penalty>
0.000

$$$$

  -OEChem-04052303563D

 81 89  0     1  0  0  0  0  0999 V2000
  -28.5489  -30.5980   27.4889 C   0  0  0  0  0  0  0  0  0  0  0  0
  -28.4221  -29.6680   26.4621 C   0  0  0  0  0  0  0  0  0  0  0  0
  -24.7002   -8.5327   21.3684 C   0  0  0  0  0  0  0  0  0  0  0  0
  -23.1750  -10.4064   21.3762 C   0  0  0  0  0  0  0  0  0  0  0  0
  -27.4389  -31.3327   27.9035 C   0  0  0  0  0  0  0  0  0  0  0  0
  -27.1847  -29.4713   25.8499 C   0  0  0  0  0  0  0  0  0  0  0  0
  -27.5294  -29.2381   20.8029 C   0  0  0  0  0  0  0  0  0  0  0  0
  -23.9479   -7.9161   22.3680 C   0  0  0  0  0  0  0  0  0  0  0  0
  -22.4226   -9.7898   22.3759 C   0  0  0  0  0  0  0  0  0  0  0  0
  -27.9847  -28.0418   20.2504 C   0  0  0  0  0  0  0  0  0  0  0  0
  -22.2258   -5.6844   24.6635 C   0  0  0  0  0  0  0  0  0  0  0  0
  -21.9420   -4.3266   24.5172 C   0  0  0  0  0  0  0  0  0  0  0  0
  -25.7095  -27.4119   19.7545 C   0  0  0  0  0  0  0  0  0  0  0  0
  -20.7891   -4.7908   22.4454 C   0  0  0  0  0  0  0  0  0  0  0  0
  -24.3138   -9.7779   20.8725 C   0  0  0  0  0  0  0  0  0  0  0  0
  -24.9245  -10.2863   18.4484 C   0  0  0  0  0  0  0  0  0  0  0  0
  -26.1895  -31.1519   27.2895 C   0  0  0  0  0  0  0  0  0  0  0  0
  -26.1576  -29.5259   20.8453 C   0  0  0  0  0  0  0  0  0  0  0  0
  -26.0566  -30.2034   26.2575 C   0  0  0  0  0  0  0  0  0  0  0  0
  -25.2395  -28.6137   20.3057 C   0  0  0  0  0  0  0  0  0  0  0  0
  -22.8090   -8.5446   22.8717 C   0  0  0  0  0  0  0  0  0  0  0  0
  -27.0746  -27.1272   19.7287 C   0  0  0  0  0  0  0  0  0  0  0  0
  -21.7912   -6.5955   23.7008 C   0  0  0  0  0  0  0  0  0  0  0  0
  -21.2237   -3.8798   23.4081 C   0  0  0  0  0  0  0  0  0  0  0  0
  -21.0729   -6.1487   22.5917 C   0  0  0  0  0  0  0  0  0  0  0  0
  -25.0909  -10.4157   19.8403 C   0  0  0  0  0  0  0  0  0  0  0  0
  -25.9028  -11.0859   17.9098 C   0  0  0  0  0  0  0  0  0  0  0  0
  -27.0335  -19.8240   19.6674 C   0  0  0  0  0  0  0  0  0  0  0  0
  -27.1821  -17.7668   19.8273 C   0  0  0  0  0  0  0  0  0  0  0  0
  -23.9708   -9.5125   17.7084 C   0  0  0  0  0  0  0  0  0  0  0  0
  -24.0440  -30.0401   23.1631 C   0  0  0  0  0  0  0  0  0  0  0  0
  -27.4366  -23.5430   19.3699 C   0  0  0  0  0  0  0  0  0  0  0  0
  -22.0715  -30.7236   20.6803 C   0  0  0  0  0  0  0  0  0  0  0  0
  -21.3326  -30.3251   17.3724 C   0  0  0  0  0  0  0  0  0  0  0  0
  -28.8408  -15.8744   19.9454 C   0  0  0  0  0  0  0  0  0  0  0  0
  -25.0078  -31.9354   27.8039 C   0  0  0  0  0  0  0  0  0  0  0  0
  -25.6845  -30.8327   21.4205 C   0  0  0  0  0  0  0  0  0  0  0  0
  -23.7579  -28.8842   20.3085 C   0  0  0  0  0  0  0  0  0  0  0  0
  -23.8158  -31.9360   26.8502 C   0  0  0  0  0  0  0  0  0  0  0  0
  -30.2729  -12.8045   18.8491 C   0  0  0  0  0  0  0  0  0  0  0  0
  -23.5396  -30.5253   26.3399 C   0  0  0  0  0  0  0  0  0  0  0  0
  -29.0902  -11.8332   18.8464 C   0  0  0  0  0  0  0  0  0  0  0  0
  -30.1938  -13.7912   20.0127 C   0  0  0  0  0  0  0  0  0  0  0  0
  -27.7438  -13.5542   20.1162 C   0  0  0  0  0  0  0  0  0  0  0  0
  -24.7367  -29.9794   25.5521 C   0  0  1  0  0  0  0  0  0  0  0  0
  -24.2290  -30.7930   21.8760 C   0  0  1  0  0  0  0  0  0  0  0  0
  -27.7455  -12.5825   18.9249 C   0  0  2  0  0  0  0  0  0  0  0  0
  -19.6366  -30.9747   15.6407 C   0  0  0  0  0  0  0  0  0  0  0  0
  -20.1127  -28.6919   21.8401 C   0  0  0  0  0  0  0  0  0  0  0  0
  -18.9261  -28.6816   19.6355 C   0  0  0  0  0  0  0  0  0  0  0  0
  -19.0533  -30.7843   20.9717 C   0  0  0  0  0  0  0  0  0  0  0  0
  -23.3658  -31.7226   15.7378 C   0  0  0  0  0  0  0  0  0  0  0  0
  -26.6145  -22.2766   19.4813 C   0  0  0  0  0  0  0  0  0  0  0  0
  -26.6441  -24.8324   19.2765 C   0  0  0  0  0  0  0  0  0  1  0  0
  -21.1292  -29.9250   19.8123 C   0  0  1  0  0  0  0  0  0  0  0  0
  -20.9631  -31.3285   16.2949 C   0  0  2  0  0  0  0  0  0  0  0  0
  -19.8330  -29.5145   20.5664 C   0  0  0  0  0  0  0  0  0  0  0  0
  -26.0960  -11.2330   20.1656 N   0  0  0  0  0  0  0  0  0  0  0  0
  -27.9546  -18.8192   19.7297 N   0  0  0  0  0  0  0  0  0  0  0  0
  -25.7537  -19.4432   19.7219 N   0  0  0  0  0  0  0  0  0  0  0  0
  -26.5699  -11.6244   18.9705 N   0  0  0  0  0  0  0  0  0  0  0  0
  -23.3442  -30.1730   20.8877 N   0  0  0  0  0  0  0  0  0  0  0  0
  -28.8943  -14.4665   20.0209 N   0  0  0  0  0  0  0  0  0  0  0  0
  -26.2488  -11.3738   16.6371 N   0  0  0  0  0  0  0  0  0  0  0  0
  -23.0358   -8.7475   18.4189 N   0  0  0  0  0  0  0  0  0  0  0  0
  -27.4850  -21.1313   19.5556 N   0  0  0  0  0  0  0  0  0  0  0  0
  -27.5502  -16.4022   19.9280 N   0  0  0  0  0  0  0  0  0  0  0  0
  -24.7695  -30.5504   24.2227 N   0  0  0  0  0  0  0  0  0  0  0  0
  -20.8961  -30.7280   18.6168 N   0  0  0  0  0  0  0  0  0  0  0  0
  -22.0134  -31.3643   15.2382 N   0  3  0  0  0  0  0  0  0  0  0  0
  -23.9589   -9.4871   16.4544 O   0  0  0  0  0  0  0  0  0  0  0  0
  -23.2972  -29.0690   23.1930 O   0  0  0  0  0  0  0  0  0  0  0  0
  -28.6669  -23.5384   19.3548 O   0  0  0  0  0  0  0  0  0  0  0  0
  -21.6948  -31.7998   21.1509 O   0  0  0  0  0  0  0  0  0  0  0  0
  -21.9438  -29.2859   17.1336 O   0  0  0  0  0  0  0  0  0  0  0  0
  -29.8640  -16.5597   19.8721 O   0  0  0  0  0  0  0  0  0  0  0  0
  -25.8532  -18.0503   19.8300 O   0  0  0  0  0  0  0  0  0  0  0  0
  -22.0745   -7.9431   23.8470 O   0  0  0  0  0  0  0  0  0  0  0  0
  -27.5163  -25.9584   19.1894 O   0  0  0  0  0  0  0  0  0  1  0  0
  -20.9525   -2.5757   23.2670 F   0  0  0  0  0  0  0  0  0  0  0  0
  -20.6539   -7.0190   21.6629 F   0  0  0  0  0  0  0  0  0  0  0  0
  1  2  1  0  0  0  0
  1  5  2  0  0  0  0
  2  6  2  0  0  0  0
  3  8  2  0  0  0  0
  3 15  1  0  0  0  0
  4  9  1  0  0  0  0
  4 15  2  0  0  0  0
  5 17  1  0  0  0  0
  6 19  1  0  0  0  0
  7 10  2  0  0  0  0
  7 18  1  0  0  0  0
  8 21  1  0  0  0  0
  9 21  2  0  0  0  0
 10 22  1  0  0  0  0
 11 12  2  0  0  0  0
 11 23  1  0  0  0  0
 12 24  1  0  0  0  0
 13 20  1  0  0  0  0
 13 22  2  0  0  0  0
 14 24  2  0  0  0  0
 14 25  1  0  0  0  0
 15 26  1  0  0  0  0
 16 26  1  0  0  0  0
 16 27  2  0  0  0  0
 16 30  1  0  0  0  0
 17 19  2  0  0  0  0
 17 36  1  0  0  0  0
 18 20  2  0  0  0  0
 18 37  1  0  0  0  0
 19 45  1  0  0  0  0
 20 38  1  0  0  0  0
 21 78  1  0  0  0  0
 22 79  1  0  0  0  0
 23 25  2  0  0  0  0
 23 78  1  0  0  0  0
 24 80  1  0  0  0  0
 25 81  1  0  0  0  0
 26 58  2  0  0  0  0
 27 61  1  0  0  0  0
 27 64  1  0  0  0  0
 28 59  1  0  0  0  0
 28 60  2  0  0  0  0
 28 66  1  0  0  0  0
 29 59  2  0  0  0  0
 29 67  1  0  0  0  0
 29 77  1  0  0  0  0
 30 65  1  0  0  0  0
 30 71  2  0  0  0  0
 31 46  1  0  0  0  0
 31 68  1  0  0  0  0
 31 72  2  0  0  0  0
 32 53  1  0  0  0  0
 32 54  1  0  0  0  0
 32 73  2  0  0  0  0
 33 55  1  0  0  0  0
 33 62  1  0  0  0  0
 33 74  2  0  0  0  0
 34 56  1  0  0  0  0
 34 69  1  0  0  0  0
 34 75  2  0  0  0  0
 35 63  1  0  0  0  0
 35 67  1  0  0  0  0
 35 76  2  0  0  0  0
 36 39  1  0  0  0  0
 37 46  1  0  0  0  0
 38 62  1  0  0  0  0
 39 41  1  0  0  0  0
 40 42  1  0  0  0  0
 40 43  1  0  0  0  0
 41 45  1  0  0  0  0
 42 47  1  0  0  0  0
 43 63  1  0  0  0  0
 44 47  1  0  0  0  0
 44 63  1  0  0  0  0
 45 68  1  0  0  0  0
 46 62  1  0  0  0  0
 47 61  1  0  0  0  0
 48 56  1  0  0  0  0
 49 57  1  0  0  0  0
 50 57  1  0  0  0  0
 51 57  1  0  0  0  0
 52 70  1  0  0  0  0
 53 66  1  0  0  0  0
 54 79  1  0  0  0  0
 55 57  1  0  0  0  0
 55 69  1  0  0  0  0
 56 70  1  0  0  0  0
 58 61  1  0  0  0  0
 60 77  1  0  0  0  0
M  CHG  1  70   1
M  ISO  4  35 100  54 101  67 100  79 101
M  END
> <Batch ID>
0162

> <Smiles>
CNC(C)C(=O)NC(C(=O)N1Cc2cc([101O:1][101CH2:1]C(=O)CNc3noc([100NH:0][100C:0](=O)N4CCCC(n5nc(-c6ccc(Oc7ccc(F)cc7F)cc6)c(C(N)=O)c5N)C4)n3)ccc2CC1C(=O)NC1CCCc2ccccc21)C(C)(C)C

> <Shape>
0.277

> <Color>
0.125

> <Negative vol penalty>
0.000

$$$$

  -OEChem-04052303563D

 86 94  0     1  0  0  0  0  0999 V2000
  -19.3110  -31.8646   11.4197 C   0  0  0  0  0  0  0  0  0  0  0  0
  -19.3055  -30.4735   11.4383 C   0  0  0  0  0  0  0  0  0  0  0  0
  -23.2882   -9.7959   19.9064 C   0  0  0  0  0  0  0  0  0  0  0  0
  -23.7132   -9.9368   22.2806 C   0  0  0  0  0  0  0  0  0  0  0  0
  -20.5210  -32.5550   11.3628 C   0  0  0  0  0  0  0  0  0  0  0  0
  -20.5100  -29.7721   11.3990 C   0  0  0  0  0  0  0  0  0  0  0  0
  -21.7762  -24.4714   14.1928 C   0  0  0  0  0  0  0  0  0  0  0  0
  -22.5540   -8.6270   20.1072 C   0  0  0  0  0  0  0  0  0  0  0  0
  -22.9789   -8.7679   22.4814 C   0  0  0  0  0  0  0  0  0  0  0  0
  -21.7887  -23.1525   13.7410 C   0  0  0  0  0  0  0  0  0  0  0  0
  -19.7254   -7.8725   22.6633 C   0  0  0  0  0  0  0  0  0  0  0  0
  -18.8111   -7.8562   23.7166 C   0  0  0  0  0  0  0  0  0  0  0  0
  -24.1657  -23.3112   13.3618 C   0  0  0  0  0  0  0  0  0  0  0  0
  -26.6184  -19.6817   16.3446 C   0  0  0  0  0  0  0  0  0  0  0  0
  -26.0260  -17.8300   14.9103 C   0  0  0  0  0  0  0  0  0  0  0  0
  -19.9970   -6.0043   24.7173 C   0  0  0  0  0  0  0  0  0  0  0  0
  -23.8679  -10.4507   20.9931 C   0  0  0  0  0  0  0  0  0  0  0  0
  -28.0141  -17.7108   16.2778 C   0  0  0  0  0  0  0  0  0  0  0  0
  -24.1415  -12.9793   20.7950 C   0  0  0  0  0  0  0  0  0  0  0  0
  -21.7413  -31.8618   11.3325 C   0  0  0  0  0  0  0  0  0  0  0  0
  -22.9585  -25.2249   14.2223 C   0  0  0  0  0  0  0  0  0  0  0  0
  -21.7373  -30.4539   11.3403 C   0  0  0  0  0  0  0  0  0  0  0  0
  -24.1660  -24.6386   13.8169 C   0  0  0  0  0  0  0  0  0  0  0  0
  -27.7463  -18.9849   16.7782 C   0  0  0  0  0  0  0  0  0  0  0  0
  -25.7582  -19.1042   15.4107 C   0  0  0  0  0  0  0  0  0  0  0  0
  -22.3994   -8.1130   21.3947 C   0  0  0  0  0  0  0  0  0  0  0  0
  -22.9830  -22.5732   13.3227 C   0  0  0  0  0  0  0  0  0  0  0  0
  -20.7754   -6.9547   22.6370 C   0  0  0  0  0  0  0  0  0  0  0  0
  -18.9469   -6.9221   24.7436 C   0  0  0  0  0  0  0  0  0  0  0  0
  -27.1539  -17.1333   15.3438 C   0  0  0  0  0  0  0  0  0  0  0  0
  -20.9113   -6.0206   23.6640 C   0  0  0  0  0  0  0  0  0  0  0  0
  -24.6269  -11.6579   20.7863 C   0  0  0  0  0  0  0  0  0  0  0  0
  -25.2495  -13.7537   20.5516 C   0  0  0  0  0  0  0  0  0  0  0  0
  -29.2089  -16.9498   16.7252 C   0  0  0  0  0  0  0  0  0  0  0  0
  -22.8083  -13.4634   21.0044 C   0  0  0  0  0  0  0  0  0  0  0  0
  -23.9575  -27.8877   12.8027 C   0  0  0  0  0  0  0  0  0  0  0  0
  -26.5194  -27.5039   14.7551 C   0  0  0  0  0  0  0  0  0  0  0  0
  -28.4589  -25.3951   16.6092 C   0  0  0  0  0  0  0  0  0  0  0  0
  -29.9294  -14.8354   17.7900 C   0  0  0  0  0  0  0  0  0  0  0  0
  -23.0219  -32.6509   11.2236 C   0  0  0  0  0  0  0  0  0  0  0  0
  -22.9329  -26.6377   14.7377 C   0  0  0  0  0  0  0  0  0  0  0  0
  -25.4662  -25.3983   13.8482 C   0  0  0  0  0  0  0  0  0  0  0  0
  -24.2688  -31.8383   11.5629 C   0  0  0  0  0  0  0  0  0  0  0  0
  -30.1664  -12.5407   20.4687 C   0  0  0  0  0  0  0  0  0  0  0  0
  -24.2305  -30.4840   10.8620 C   0  0  0  0  0  0  0  0  0  0  0  0
  -28.7063  -12.2190   20.7988 C   0  0  0  0  0  0  0  0  0  0  0  0
  -30.3862  -12.7008   18.9651 C   0  0  0  0  0  0  0  0  0  0  0  0
  -28.0291  -13.3255   18.6306 C   0  0  0  0  0  0  0  0  0  0  0  0
  -23.0242  -29.6577   11.3239 C   0  0  1  0  0  0  0  0  0  0  0  0
  -24.1061  -27.4765   14.2403 C   0  0  1  0  0  0  0  0  0  0  0  0
  -27.7421  -13.2241   20.1375 C   0  0  1  0  0  0  0  0  0  0  0  0
  -29.5488  -20.6876   17.1504 C   0  0  0  0  0  0  0  0  0  0  0  0
  -30.5050  -25.3661   18.0617 C   0  0  0  0  0  0  0  0  0  0  0  0
  -21.3390  -19.6089   13.2017 C   0  0  0  0  0  0  0  0  0  0  0  0
  -28.2821  -27.6907   12.2716 C   0  0  0  0  0  0  0  0  0  0  0  0
  -30.1596  -26.7244   13.6168 C   0  0  0  0  0  0  0  0  0  0  0  0
  -29.1595  -28.9149   14.2681 C   0  0  0  0  0  0  0  0  0  0  0  0
  -26.9206  -24.4571   18.9571 C   0  0  0  0  0  0  0  0  0  0  0  0
  -28.6507  -19.6269   17.7793 C   0  0  0  0  0  0  0  0  0  0  0  0
  -23.6957  -19.2734   14.0168 C   0  0  0  0  0  0  0  0  0  0  0  0
  -27.8451  -26.7894   14.6512 C   0  0  1  0  0  0  0  0  0  0  0  0
  -28.9906  -25.5006   18.0271 C   0  0  2  0  0  0  0  0  0  0  0  0
  -22.5686  -20.2798   13.7966 C   0  0  1  0  0  0  0  0  0  1  0  0
  -28.8369  -27.5159   13.6994 C   0  0  0  0  0  0  0  0  0  0  0  0
  -25.9409  -11.5927   20.5555 N   0  0  0  0  0  0  0  0  0  0  0  0
  -26.2905  -12.8829   20.4168 N   0  0  0  0  0  0  0  0  0  0  0  0
  -25.3884  -26.7786   14.3543 N   0  0  0  0  0  0  0  0  0  0  0  0
  -29.4414  -13.6758   18.4173 N   0  0  0  0  0  0  0  0  0  0  0  0
  -25.4250  -15.0876   20.4417 N   0  0  0  0  0  0  0  0  0  0  0  0
  -21.7886  -12.5316   21.2415 N   0  0  0  0  0  0  0  0  0  0  0  0
  -24.6383  -19.7956   14.9800 N   0  0  0  0  0  0  0  0  0  0  0  0
  -28.9475  -15.7242   17.3384 N   0  0  0  0  0  0  0  0  0  0  0  0
  -23.2775  -29.0775   12.6253 N   0  0  0  0  0  0  0  0  0  0  0  0
  -28.3332  -26.6340   16.0173 N   0  0  0  0  0  0  0  0  0  0  0  0
  -28.4040  -24.4296   18.8814 N   0  3  0  0  0  0  0  0  0  0  0  0
  -30.3268  -17.4067   16.5027 O   0  0  0  0  0  0  0  0  0  0  0  0
  -22.5266  -14.6852   20.9657 O   0  0  0  0  0  0  0  0  0  0  0  0
  -24.4263  -27.1787   11.9200 O   0  0  0  0  0  0  0  0  0  0  0  0
  -26.4876  -28.6605   15.1830 O   0  0  0  0  0  0  0  0  0  0  0  0
  -28.1862  -24.3207   16.0783 O   0  0  0  0  0  0  0  0  0  0  0  0
  -31.1351  -15.0773   17.6759 O   0  0  0  0  0  0  0  0  0  0  0  0
  -21.6828   -6.9726   21.5910 O   0  0  0  0  0  0  0  0  0  0  0  0
  -22.9979  -21.2862   12.8806 O   0  0  0  0  0  0  0  0  0  1  0  0
  -18.0698   -6.9076   25.7558 F   0  0  0  0  0  0  0  0  0  0  0  0
  -27.4004  -15.9093   14.8553 F   0  0  0  0  0  0  0  0  0  0  0  0
  -21.9187   -5.1371   23.6447 F   0  0  0  0  0  0  0  0  0  0  0  0
  1  2  1  0  0  0  0
  1  5  2  0  0  0  0
  2  6  2  0  0  0  0
  3  8  2  0  0  0  0
  3 17  1  0  0  0  0
  4  9  1  0  0  0  0
  4 17  2  0  0  0  0
  5 20  1  0  0  0  0
  6 22  1  0  0  0  0
  7 10  2  0  0  0  0
  7 21  1  0  0  0  0
  8 26  1  0  0  0  0
  9 26  2  0  0  0  0
 10 27  1  0  0  0  0
 11 12  2  0  0  0  0
 11 28  1  0  0  0  0
 12 29  1  0  0  0  0
 13 23  1  0  0  0  0
 13 27  2  0  0  0  0
 14 24  1  0  0  0  0
 14 25  2  0  0  0  0
 15 25  1  0  0  0  0
 15 30  2  0  0  0  0
 16 29  2  0  0  0  0
 16 31  1  0  0  0  0
 17 32  1  0  0  0  0
 18 24  2  0  0  0  0
 18 30  1  0  0  0  0
 18 34  1  0  0  0  0
 19 32  1  0  0  0  0
 19 33  2  0  0  0  0
 19 35  1  0  0  0  0
 20 22  2  0  0  0  0
 20 40  1  0  0  0  0
 21 23  2  0  0  0  0
 21 41  1  0  0  0  0
 22 49  1  0  0  0  0
 23 42  1  0  0  0  0
 24 59  1  0  0  0  0
 25 71  1  0  0  0  0
 26 82  1  0  0  0  0
 27 83  1  0  0  0  0
 28 31  2  0  0  0  0
 28 82  1  0  0  0  0
 29 84  1  0  0  0  0
 30 85  1  0  0  0  0
 31 86  1  0  0  0  0
 32 65  2  0  0  0  0
 33 66  1  0  0  0  0
 33 69  1  0  0  0  0
 34 72  1  0  0  0  0
 34 76  2  0  0  0  0
 35 70  1  0  0  0  0
 35 77  2  0  0  0  0
 36 50  1  0  0  0  0
 36 73  1  0  0  0  0
 36 78  2  0  0  0  0
 37 61  1  0  0  0  0
 37 67  1  0  0  0  0
 37 79  2  0  0  0  0
 38 62  1  0  0  0  0
 38 74  1  0  0  0  0
 38 80  2  0  0  0  0
 39 68  1  0  0  0  0
 39 72  1  0  0  0  0
 39 81  2  0  0  0  0
 40 43  1  0  0  0  0
 41 50  1  0  0  0  0
 42 67  1  0  0  0  0
 43 45  1  0  0  0  0
 44 46  1  0  0  0  0
 44 47  1  0  0  0  0
 45 49  1  0  0  0  0
 46 51  1  0  0  0  0
 47 68  1  0  0  0  0
 48 51  1  0  0  0  0
 48 68  1  0  0  0  0
 49 73  1  0  0  0  0
 50 67  1  0  0  0  0
 51 66  1  0  0  0  0
 52 59  1  0  0  0  0
 53 62  1  0  0  0  0
 54 63  1  0  0  0  0
 55 64  1  0  0  0  0
 56 64  1  0  0  0  0
 57 64  1  0  0  0  0
 58 75  1  0  0  0  0
 60 63  1  0  0  0  0
 60 71  1  0  0  0  0
 61 64  1  0  0  0  0
 61 74  1  0  0  0  0
 62 75  1  0  0  0  0
 63 83  1  0  0  0  0
 65 66  1  0  0  0  0
M  CHG  1  75   1
M  ISO  4  39 100  63 101  72 100  83 101
M  END
> <Batch ID>
0162

> <Smiles>
CCc1cc(NC[101CH:1](C)[101O:1]c2ccc3c(c2)CN(C(=O)C(NC(=O)C(C)NC)C(C)(C)C)C(C(=O)NC2CCCc4ccccc42)C3)cc(F)c1C(=O)[100NH:0][100C:0](=O)N1CCCC(n2nc(-c3ccc(Oc4ccc(F)cc4F)cc3)c(C(N)=O)c2N)C1

> <Shape>
0.152

> <Color>
0.170

> <Negative vol penalty>
0.000

$$$$

  -OEChem-04052303563D

 84 92  0     1  0  0  0  0  0999 V2000
  -28.4685  -23.6688   18.1483 C   0  0  0  0  0  0  0  0  0  0  0  0
  -27.2644  -23.9493   18.7861 C   0  0  0  0  0  0  0  0  0  0  0  0
  -24.1333  -14.6169   18.8386 C   0  0  0  0  0  0  0  0  0  0  0  0
  -22.6717  -14.2283   20.7226 C   0  0  0  0  0  0  0  0  0  0  0  0
  -29.6432  -24.2857   18.5765 C   0  0  0  0  0  0  0  0  0  0  0  0
  -27.2345  -24.8463   19.8533 C   0  0  0  0  0  0  0  0  0  0  0  0
  -23.3804  -28.1158   19.5356 C   0  0  0  0  0  0  0  0  0  0  0  0
  -24.8245  -13.4415   19.1322 C   0  0  0  0  0  0  0  0  0  0  0  0
  -23.3628  -13.0528   21.0162 C   0  0  0  0  0  0  0  0  0  0  0  0
  -22.1183  -27.6498   19.9013 C   0  0  0  0  0  0  0  0  0  0  0  0
  -23.4684   -9.8750   19.8711 C   0  0  0  0  0  0  0  0  0  0  0  0
  -22.7154   -8.7404   20.1726 C   0  0  0  0  0  0  0  0  0  0  0  0
  -19.4834  -22.8307   24.0182 C   0  0  0  0  0  0  0  0  0  0  0  0
  -17.6103  -22.2291   25.4204 C   0  0  0  0  0  0  0  0  0  0  0  0
  -22.3569  -28.7110   22.0544 C   0  0  0  0  0  0  0  0  0  0  0  0
  -19.2178  -20.5486   24.7655 C   0  0  0  0  0  0  0  0  0  0  0  0
  -23.7589   -8.6259   22.3486 C   0  0  0  0  0  0  0  0  0  0  0  0
  -23.0569  -15.0104   19.6338 C   0  0  0  0  0  0  0  0  0  0  0  0
  -18.3232  -23.1903   24.7038 C   0  0  0  0  0  0  0  0  0  0  0  0
  -21.2222  -16.3652   18.4910 C   0  0  0  0  0  0  0  0  0  0  0  0
  -29.6261  -25.1981   19.6433 C   0  0  0  0  0  0  0  0  0  0  0  0
  -24.1461  -28.8751   20.4321 C   0  0  0  0  0  0  0  0  0  0  0  0
  -28.4103  -25.4751   20.2971 C   0  0  0  0  0  0  0  0  0  0  0  0
  -23.6274  -29.1877   21.6967 C   0  0  0  0  0  0  0  0  0  0  0  0
  -19.9307  -21.5099   24.0490 C   0  0  0  0  0  0  0  0  0  0  0  0
  -24.4392  -12.6594   20.2210 C   0  0  0  0  0  0  0  0  0  0  0  0
  -21.6076  -27.9449   21.1619 C   0  0  0  0  0  0  0  0  0  0  0  0
  -24.3669  -10.3852   20.8083 C   0  0  0  0  0  0  0  0  0  0  0  0
  -22.8606   -8.1158   21.4113 C   0  0  0  0  0  0  0  0  0  0  0  0
  -18.0576  -20.9082   25.4513 C   0  0  0  0  0  0  0  0  0  0  0  0
  -24.5121   -9.7606   22.0470 C   0  0  0  0  0  0  0  0  0  0  0  0
  -22.3429  -16.2248   19.3313 C   0  0  0  0  0  0  0  0  0  0  0  0
  -20.9241  -17.7051   18.5373 C   0  0  0  0  0  0  0  0  0  0  0  0
  -17.8447  -24.5969   24.6691 C   0  0  0  0  0  0  0  0  0  0  0  0
  -20.5139  -15.3730   17.7362 C   0  0  0  0  0  0  0  0  0  0  0  0
  -26.9628  -28.4965   21.8555 C   0  0  0  0  0  0  0  0  0  0  0  0
  -19.1549  -26.1073   23.0903 C   0  0  0  0  0  0  0  0  0  0  0  0
  -26.4140  -31.5250   22.8799 C   0  0  0  0  0  0  0  0  0  0  0  0
  -24.1505  -33.9814   23.5794 C   0  0  0  0  0  0  0  0  0  0  0  0
  -21.9344  -21.9742   22.5943 C   0  0  0  0  0  0  0  0  0  0  0  0
  -30.9291  -25.8042   20.1011 C   0  0  0  0  0  0  0  0  0  0  0  0
  -25.4945  -29.3929   20.0125 C   0  0  0  0  0  0  0  0  0  0  0  0
  -24.4010  -30.0162   22.6884 C   0  0  0  0  0  0  0  0  0  0  0  0
  -30.7504  -27.0270   20.9973 C   0  0  0  0  0  0  0  0  0  0  0  0
  -22.9830  -21.9791   19.1917 C   0  0  0  0  0  0  0  0  0  0  0  0
  -29.7012  -26.7537   22.0703 C   0  0  0  0  0  0  0  0  0  0  0  0
  -22.8301  -20.5179   18.7631 C   0  0  0  0  0  0  0  0  0  0  0  0
  -23.4612  -22.0989   20.6377 C   0  0  0  0  0  0  0  0  0  0  0  0
  -22.5074  -19.8960   21.1913 C   0  0  0  0  0  0  0  0  0  0  0  0
  -28.3331  -26.4612   21.4424 C   0  0  1  0  0  0  0  0  0  0  0  0
  -26.4016  -29.7232   21.1938 C   0  0  1  0  0  0  0  0  0  0  0  0
  -21.9655  -19.7249   19.7627 C   0  0  2  0  0  0  0  0  0  0  0  0
  -23.9995  -36.3349   24.4371 C   0  0  0  0  0  0  0  0  0  0  0  0
  -26.8971  -30.5185   25.7195 C   0  0  0  0  0  0  0  0  0  0  0  0
  -25.8231  -32.6140   26.5704 C   0  0  0  0  0  0  0  0  0  0  0  0
  -27.9135  -32.7473   25.2157 C   0  0  0  0  0  0  0  0  0  0  0  0
  -22.9390  -34.9461   21.0573 C   0  0  0  0  0  0  0  0  0  0  0  0
  -18.8542  -25.7183   24.5240 C   0  0  0  0  0  0  0  0  0  0  0  0
  -20.1610  -27.2257   22.9072 C   0  0  0  0  0  0  0  0  0  1  0  0
  -25.7373  -32.1414   24.0803 C   0  0  1  0  0  0  0  0  0  0  0  0
  -24.1115  -35.4518   23.2041 C   0  0  2  0  0  0  0  0  0  0  0  0
  -26.5787  -31.9881   25.3787 C   0  0  0  0  0  0  0  0  0  0  0  0
  -22.7306  -17.3831   19.8716 N   0  0  0  0  0  0  0  0  0  0  0  0
  -16.5914  -24.9121   24.7556 N   0  0  0  0  0  0  0  0  0  0  0  0
  -21.8486  -18.2642   19.3697 N   0  0  0  0  0  0  0  0  0  0  0  0
  -25.7172  -30.4941   22.2338 N   0  0  0  0  0  0  0  0  0  0  0  0
  -22.5921  -21.3259   21.5276 N   0  0  0  0  0  0  0  0  0  0  0  0
  -19.9640  -18.4479   17.9466 N   0  0  0  0  0  0  0  0  0  0  0  0
  -20.9533  -14.0438   17.8019 N   0  0  0  0  0  0  0  0  0  0  0  0
  -21.1094  -21.1442   23.3527 N   0  0  0  0  0  0  0  0  0  0  0  0
  -27.7018  -27.6900   21.0111 N   0  0  0  0  0  0  0  0  0  0  0  0
  -25.4438  -33.5239   23.7183 N   0  0  0  0  0  0  0  0  0  0  0  0
  -22.9448  -35.7298   22.3194 N   0  3  0  0  0  0  0  0  0  0  0  0
  -19.5308  -15.6596   17.0117 O   0  0  0  0  0  0  0  0  0  0  0  0
  -26.7430  -28.2973   23.0445 O   0  0  0  0  0  0  0  0  0  0  0  0
  -18.6185  -25.5514   22.1329 O   0  0  0  0  0  0  0  0  0  0  0  0
  -27.5170  -31.9476   22.5242 O   0  0  0  0  0  0  0  0  0  0  0  0
  -23.1351  -33.3071   23.7374 O   0  0  0  0  0  0  0  0  0  0  0  0
  -22.0702  -23.1827   22.8019 O   0  0  0  0  0  0  0  0  0  0  0  0
  -25.1132  -11.5122   20.5077 O   0  0  0  0  0  0  0  0  0  0  0  0
  -20.3763  -27.4907   21.5216 O   0  0  0  0  0  0  0  0  0  1  0  0
  -22.1362   -7.0271   21.7013 F   0  0  0  0  0  0  0  0  0  0  0  0
  -17.3715  -19.9845   26.1368 F   0  0  0  0  0  0  0  0  0  0  0  0
  -25.3727  -10.2468   22.9519 F   0  0  0  0  0  0  0  0  0  0  0  0
  1  2  1  0  0  0  0
  1  5  2  0  0  0  0
  2  6  2  0  0  0  0
  3  8  2  0  0  0  0
  3 18  1  0  0  0  0
  4  9  1  0  0  0  0
  4 18  2  0  0  0  0
  5 21  1  0  0  0  0
  6 23  1  0  0  0  0
  7 10  2  0  0  0  0
  7 22  1  0  0  0  0
  8 26  1  0  0  0  0
  9 26  2  0  0  0  0
 10 27  1  0  0  0  0
 11 12  2  0  0  0  0
 11 28  1  0  0  0  0
 12 29  1  0  0  0  0
 13 19  2  0  0  0  0
 13 25  1  0  0  0  0
 14 19  1  0  0  0  0
 14 30  2  0  0  0  0
 15 24  1  0  0  0  0
 15 27  2  0  0  0  0
 16 25  2  0  0  0  0
 16 30  1  0  0  0  0
 17 29  2  0  0  0  0
 17 31  1  0  0  0  0
 18 32  1  0  0  0  0
 19 34  1  0  0  0  0
 20 32  1  0  0  0  0
 20 33  2  0  0  0  0
 20 35  1  0  0  0  0
 21 23  2  0  0  0  0
 21 41  1  0  0  0  0
 22 24  2  0  0  0  0
 22 42  1  0  0  0  0
 23 50  1  0  0  0  0
 24 43  1  0  0  0  0
 25 70  1  0  0  0  0
 26 80  1  0  0  0  0
 27 81  1  0  0  0  0
 28 31  2  0  0  0  0
 28 80  1  0  0  0  0
 29 82  1  0  0  0  0
 30 83  1  0  0  0  0
 31 84  1  0  0  0  0
 32 63  2  0  0  0  0
 33 65  1  0  0  0  0
 33 68  1  0  0  0  0
 34 58  1  0  0  0  0
 34 64  2  0  0  0  0
 35 69  1  0  0  0  0
 35 74  2  0  0  0  0
 36 51  1  0  0  0  0
 36 71  1  0  0  0  0
 36 75  2  0  0  0  0
 37 58  1  0  0  0  0
 37 59  1  0  0  0  0
 37 76  2  0  0  0  0
 38 60  1  0  0  0  0
 38 66  1  0  0  0  0
 38 77  2  0  0  0  0
 39 61  1  0  0  0  0
 39 72  1  0  0  0  0
 39 78  2  0  0  0  0
 40 67  1  0  0  0  0
 40 70  1  0  0  0  0
 40 79  2  0  0  0  0
 41 44  1  0  0  0  0
 42 51  1  0  0  0  0
 43 66  1  0  0  0  0
 44 46  1  0  0  0  0
 45 47  1  0  0  0  0
 45 48  1  0  0  0  0
 46 50  1  0  0  0  0
 47 52  1  0  0  0  0
 48 67  1  0  0  0  0
 49 52  1  0  0  0  0
 49 67  1  0  0  0  0
 50 71  1  0  0  0  0
 51 66  1  0  0  0  0
 52 65  1  0  0  0  0
 53 61  1  0  0  0  0
 54 62  1  0  0  0  0
 55 62  1  0  0  0  0
 56 62  1  0  0  0  0
 57 73  1  0  0  0  0
 59 81  1  0  0  0  0
 60 62  1  0  0  0  0
 60 72  1  0  0  0  0
 61 73  1  0  0  0  0
 63 65  1  0  0  0  0
M  CHG  1  73   1
M  ISO  4  40 100  59 101  70 100  81 101
M  END
> <Batch ID>
0162

> <Smiles>
CNC(C)C(=O)NC(C(=O)N1Cc2cc([101O:1][101CH2:1]C(=O)CC(=N)c3cc(F)cc([100NH:0][100C:0](=O)N4CCCC(n5nc(-c6ccc(Oc7ccc(F)cc7F)cc6)c(C(N)=O)c5N)C4)c3)ccc2CC1C(=O)NC1CCCc2ccccc21)C(C)(C)C

> <Shape>
0.253

> <Color>
0.066

> <Negative vol penalty>
0.000

$$$$

  -OEChem-04052303563D

 88 97  0     1  0  0  0  0  0999 V2000
  -27.7305  -31.6553   19.3690 C   0  0  0  0  0  0  0  0  0  0  0  0
  -28.2196  -30.6579   20.2066 C   0  0  0  0  0  0  0  0  0  0  0  0
  -24.6813  -10.9246   19.1707 C   0  0  0  0  0  0  0  0  0  0  0  0
  -31.1685  -20.8277   20.1276 C   0  0  0  0  0  0  0  0  0  0  0  0
  -28.9157  -20.0201   19.7964 C   0  0  0  0  0  0  0  0  0  0  0  0
  -23.6395  -11.5714   19.8354 C   0  0  0  0  0  0  0  0  0  0  0  0
  -26.3724  -31.9704   19.3812 C   0  0  0  0  0  0  0  0  0  0  0  0
  -27.3508  -29.9757   21.0577 C   0  0  0  0  0  0  0  0  0  0  0  0
  -25.9778  -22.3130   21.7087 C   0  0  0  0  0  0  0  0  0  0  0  0
  -25.9962  -11.3548   19.3494 C   0  0  0  0  0  0  0  0  0  0  0  0
  -30.8391  -22.0149   19.4737 C   0  0  0  0  0  0  0  0  0  0  0  0
  -28.5862  -21.2074   19.1426 C   0  0  0  0  0  0  0  0  0  0  0  0
  -25.5342  -20.9941   21.8078 C   0  0  0  0  0  0  0  0  0  0  0  0
  -29.2201  -24.8928   20.2013 C   0  0  0  0  0  0  0  0  0  0  0  0
  -29.6407  -26.0900   20.7803 C   0  0  0  0  0  0  0  0  0  0  0  0
  -25.2273  -13.0787   20.8573 C   0  0  0  0  0  0  0  0  0  0  0  0
  -23.3858  -21.7654   22.6063 C   0  0  0  0  0  0  0  0  0  0  0  0
  -30.9117  -26.6055   18.7913 C   0  0  0  0  0  0  0  0  0  0  0  0
  -30.2068  -19.8302   20.2888 C   0  0  0  0  0  0  0  0  0  0  0  0
  -23.9125  -12.6485   20.6787 C   0  0  0  0  0  0  0  0  0  0  0  0
  -31.0051  -18.4598   22.2869 C   0  0  0  0  0  0  0  0  0  0  0  0
  -25.4850  -31.2851   20.2259 C   0  0  0  0  0  0  0  0  0  0  0  0
  -25.1209  -23.3650   22.0437 C   0  0  0  0  0  0  0  0  0  0  0  0
  -25.9798  -30.2828   21.0822 C   0  0  0  0  0  0  0  0  0  0  0  0
  -23.8204  -23.0890   22.4971 C   0  0  0  0  0  0  0  0  0  0  0  0
  -26.2691  -12.4318   20.1927 C   0  0  0  0  0  0  0  0  0  0  0  0
  -29.5480  -22.2048   18.9813 C   0  0  0  0  0  0  0  0  0  0  0  0
  -24.2415  -20.7210   22.2558 C   0  0  0  0  0  0  0  0  0  0  0  0
  -29.6452  -24.5519   18.9172 C   0  0  0  0  0  0  0  0  0  0  0  0
  -30.4865  -26.9464   20.0754 C   0  0  0  0  0  0  0  0  0  0  0  0
  -30.4910  -25.4082   18.2123 C   0  0  0  0  0  0  0  0  0  0  0  0
  -30.5467  -18.6034   20.9637 C   0  0  0  0  0  0  0  0  0  0  0  0
  -31.1822  -17.1069   22.4441 C   0  0  0  0  0  0  0  0  0  0  0  0
  -22.8124  -13.3322   21.3818 C   0  0  0  0  0  0  0  0  0  0  0  0
  -31.2488  -19.4600   23.2849 C   0  0  0  0  0  0  0  0  0  0  0  0
  -24.6346  -27.0744   22.3268 C   0  0  0  0  0  0  0  0  0  0  0  0
  -22.0291  -25.9181   21.1933 C   0  0  0  0  0  0  0  0  0  0  0  0
  -19.0807  -25.3868   19.5619 C   0  0  0  0  0  0  0  0  0  0  0  0
  -28.7539  -12.3363   19.7888 C   0  0  0  0  0  0  0  0  0  0  0  0
  -24.0331  -31.6932   20.2382 C   0  0  0  0  0  0  0  0  0  0  0  0
  -25.5767  -24.7985   22.0109 C   0  0  0  0  0  0  0  0  0  0  0  0
  -22.9450  -24.2511   22.8794 C   0  0  0  0  0  0  0  0  0  0  0  0
  -23.1172  -30.6660   20.8988 C   0  0  0  0  0  0  0  0  0  0  0  0
  -32.2162  -13.1510   19.9508 C   0  0  0  0  0  0  0  0  0  0  0  0
  -23.7124  -30.1921   22.2209 C   0  0  0  0  0  0  0  0  0  0  0  0
  -32.2228  -14.6270   20.3553 C   0  0  0  0  0  0  0  0  0  0  0  0
  -22.9954  -16.6552   22.4551 C   0  0  0  0  0  0  0  0  0  0  0  0
  -23.8860  -16.4022   20.1014 C   0  0  0  0  0  0  0  0  0  0  0  0
  -31.0606  -12.8271   19.0056 C   0  0  0  0  0  0  0  0  0  0  0  0
  -22.0364  -15.4926   22.2131 C   0  0  0  0  0  0  0  0  0  0  0  0
  -22.9225  -15.2425   19.8655 C   0  0  0  0  0  0  0  0  0  0  0  0
  -29.7401  -14.7097   19.8898 C   0  0  0  0  0  0  0  0  0  0  0  0
  -25.0648  -29.5034   22.0016 C   0  0  1  0  0  0  0  0  0  0  0  0
  -24.4635  -25.7763   21.5939 C   0  0  1  0  0  0  0  0  0  0  0  0
  -30.8480  -15.0701   20.8930 C   0  0  2  0  0  0  0  0  0  0  0  0
  -23.3510  -17.3922   21.1520 C   0  0  0  0  0  0  0  0  0  0  0  0
  -16.7829  -26.3556   19.2803 C   0  0  0  0  0  0  0  0  0  0  0  0
  -21.2432  -24.8420   23.9371 C   0  0  0  0  0  0  0  0  0  0  0  0
  -18.8475  -24.9628   23.2197 C   0  0  0  0  0  0  0  0  0  0  0  0
  -20.2161  -27.0445   23.3465 C   0  0  0  0  0  0  0  0  0  0  0  0
  -19.4797  -25.7881   16.6569 C   0  0  0  0  0  0  0  0  0  0  0  0
  -22.4168  -18.7114   19.4462 C   0  0  0  0  0  0  0  0  0  0  0  0
  -24.3737  -18.4961   21.4251 C   0  0  0  0  0  0  0  0  0  1  0  0
  -20.6477  -25.3890   21.4851 C   0  0  1  0  0  0  0  0  0  0  0  0
  -18.2035  -26.3129   18.7389 C   0  0  2  0  0  0  0  0  0  0  0  0
  -20.2575  -25.5444   22.9821 C   0  0  0  0  0  0  0  0  0  0  0  0
  -30.4395  -17.4349   20.3255 N   0  0  0  0  0  0  0  0  0  0  0  0
  -30.8331  -16.5443   21.2517 N   0  0  0  0  0  0  0  0  0  0  0  0
  -22.6044  -14.6237   21.1658 N   0  0  0  0  0  0  0  0  0  0  0  0
  -23.0911  -25.3351   21.8954 N   0  0  0  0  0  0  0  0  0  0  0  0
  -29.7901  -13.2716   19.5828 N   0  0  0  0  0  0  0  0  0  0  0  0
  -31.6010  -16.3555   23.4845 N   0  0  0  0  0  0  0  0  0  0  0  0
  -31.0150  -20.8023   22.9566 N   0  0  0  0  0  0  0  0  0  0  0  0
  -27.6050  -12.8681   20.3735 N   0  0  0  0  0  0  0  0  0  0  0  0
  -24.8721  -28.1584   21.5034 N   0  0  0  0  0  0  0  0  0  0  0  0
  -19.7469  -26.0670   20.5592 N   0  0  0  0  0  0  0  0  0  0  0  0
  -22.0446  -12.6427   22.2205 N   0  3  0  0  0  0  0  0  0  0  0  0
  -18.1528  -25.8547   17.3217 N   0  3  0  0  0  0  0  0  0  0  0  0
  -31.6775  -19.1733   24.4284 O   0  0  0  0  0  0  0  0  0  0  0  0
  -24.5556  -27.0928   23.5496 O   0  0  0  0  0  0  0  0  0  0  0  0
  -22.1652  -26.8274   20.3700 O   0  0  0  0  0  0  0  0  0  0  0  0
  -19.1635  -24.1800   19.3443 O   0  0  0  0  0  0  0  0  0  0  0  0
  -28.8867  -11.1455   19.4950 O   0  0  0  0  0  0  0  0  0  0  0  0
  -29.2261  -23.3633   18.3434 O   0  0  0  0  0  0  0  0  0  0  0  0
  -23.8134  -19.4313   22.3459 O   0  0  0  0  0  0  0  0  0  1  0  0
  -22.1623  -18.0105   20.6523 O   0  0  0  0  0  0  0  0  0  0  0  0
  -30.8892  -28.0968   20.6310 F   0  0  0  0  0  0  0  0  0  0  0  0
  -30.9018  -25.0867   16.9779 F   0  0  0  0  0  0  0  0  0  0  0  0
  1  2  1  0  0  0  0
  1  7  2  0  0  0  0
  2  8  2  0  0  0  0
  3  6  2  0  0  0  0
  3 10  1  0  0  0  0
  4 11  2  0  0  0  0
  4 19  1  0  0  0  0
  5 12  1  0  0  0  0
  5 19  2  0  0  0  0
  6 20  1  0  0  0  0
  7 22  1  0  0  0  0
  8 24  1  0  0  0  0
  9 13  2  0  0  0  0
  9 23  1  0  0  0  0
 10 26  2  0  0  0  0
 11 27  1  0  0  0  0
 12 27  2  0  0  0  0
 13 28  1  0  0  0  0
 14 15  2  0  0  0  0
 14 29  1  0  0  0  0
 15 30  1  0  0  0  0
 16 20  2  0  0  0  0
 16 26  1  0  0  0  0
 17 25  1  0  0  0  0
 17 28  2  0  0  0  0
 18 30  2  0  0  0  0
 18 31  1  0  0  0  0
 19 32  1  0  0  0  0
 20 34  1  0  0  0  0
 21 32  1  0  0  0  0
 21 33  2  0  0  0  0
 21 35  1  0  0  0  0
 22 24  2  0  0  0  0
 22 40  1  0  0  0  0
 23 25  2  0  0  0  0
 23 41  1  0  0  0  0
 24 53  1  0  0  0  0
 25 42  1  0  0  0  0
 26 74  1  0  0  0  0
 27 84  1  0  0  0  0
 28 85  1  0  0  0  0
 29 31  2  0  0  0  0
 29 84  1  0  0  0  0
 30 87  1  0  0  0  0
 31 88  1  0  0  0  0
 32 67  2  0  0  0  0
 33 68  1  0  0  0  0
 33 72  1  0  0  0  0
 34 69  1  0  0  0  0
 34 77  2  0  0  0  0
 35 73  1  0  0  0  0
 35 79  2  0  0  0  0
 36 54  1  0  0  0  0
 36 75  1  0  0  0  0
 36 80  2  0  0  0  0
 37 64  1  0  0  0  0
 37 70  1  0  0  0  0
 37 81  2  0  0  0  0
 38 65  1  0  0  0  0
 38 76  1  0  0  0  0
 38 82  2  0  0  0  0
 39 71  1  0  0  0  0
 39 74  1  0  0  0  0
 39 83  2  0  0  0  0
 40 43  1  0  0  0  0
 41 54  1  0  0  0  0
 42 70  1  0  0  0  0
 43 45  1  0  0  0  0
 44 46  1  0  0  0  0
 44 49  1  0  0  0  0
 45 53  1  0  0  0  0
 46 55  1  0  0  0  0
 47 50  1  0  0  0  0
 47 56  1  0  0  0  0
 48 51  1  0  0  0  0
 48 56  1  0  0  0  0
 49 71  1  0  0  0  0
 50 69  1  0  0  0  0
 51 69  1  0  0  0  0
 52 55  1  0  0  0  0
 52 71  1  0  0  0  0
 53 75  1  0  0  0  0
 54 70  1  0  0  0  0
 55 68  1  0  0  0  0
 56 63  1  0  0  0  0
 56 86  1  0  0  0  0
 57 65  1  0  0  0  0
 58 66  1  0  0  0  0
 59 66  1  0  0  0  0
 60 66  1  0  0  0  0
 61 78  1  0  0  0  0
 62 86  1  0  0  0  0
 63 85  1  0  0  0  0
 64 66  1  0  0  0  0
 64 76  1  0  0  0  0
 65 78  1  0  0  0  0
 67 68  1  0  0  0  0
M  CHG  2  77   1  78   1
M  ISO  4  39 100  63 101  74 100  85 101
M  END
> <Batch ID>
0162

> <Smiles>
CNC(C)C(=O)NC(C(=O)N1Cc2cc([101O:1][101CH2:1]C3(OC)CCN(C(=N)c4cccc([100NH:0][100C:0](=O)N5CCCC(n6nc(-c7ccc(Oc8ccc(F)cc8F)cc7)c(C(N)=O)c6N)C5)c4)CC3)ccc2CC1C(=O)NC1CCCc2ccccc21)C(C)(C)C

> <Shape>
0.263

> <Color>
0.065

> <Negative vol penalty>
0.000

$$$$

  -OEChem-04052303563D

 84 92  0     1  0  0  0  0  0999 V2000
  -29.0159  -11.1564   20.0651 C   0  0  0  0  0  0  0  0  0  0  0  0
  -29.0682  -12.4975   19.6988 C   0  0  0  0  0  0  0  0  0  0  0  0
  -19.7576  -28.6156   23.4572 C   0  0  0  0  0  0  0  0  0  0  0  0
  -20.8181  -26.7725   22.3103 C   0  0  0  0  0  0  0  0  0  0  0  0
  -27.8000  -10.5828   20.4347 C   0  0  0  0  0  0  0  0  0  0  0  0
  -27.9043  -13.2655   19.7010 C   0  0  0  0  0  0  0  0  0  0  0  0
  -28.5813  -17.8126   21.8249 C   0  0  0  0  0  0  0  0  0  0  0  0
  -18.5543  -28.3224   22.8156 C   0  0  0  0  0  0  0  0  0  0  0  0
  -19.6148  -26.4793   21.6687 C   0  0  0  0  0  0  0  0  0  0  0  0
  -29.2144  -18.7872   21.0547 C   0  0  0  0  0  0  0  0  0  0  0  0
  -16.7307  -25.0225   20.0020 C   0  0  0  0  0  0  0  0  0  0  0  0
  -16.3351  -23.6863   19.9430 C   0  0  0  0  0  0  0  0  0  0  0  0
  -30.1872  -28.8989   20.0047 C   0  0  0  0  0  0  0  0  0  0  0  0
  -27.0695  -19.7603   20.5336 C   0  0  0  0  0  0  0  0  0  0  0  0
  -16.3114  -23.5867   22.3569 C   0  0  0  0  0  0  0  0  0  0  0  0
  -20.8896  -27.8406   23.2045 C   0  0  0  0  0  0  0  0  0  0  0  0
  -30.8062  -27.7865   19.3862 C   0  0  0  0  0  0  0  0  0  0  0  0
  -22.5852  -27.6360   25.0994 C   0  0  0  0  0  0  0  0  0  0  0  0
  -26.6224  -11.3467   20.4507 C   0  0  0  0  0  0  0  0  0  0  0  0
  -27.1844  -17.7980   21.9465 C   0  0  0  0  0  0  0  0  0  0  0  0
  -26.6714  -12.7013   20.0699 C   0  0  0  0  0  0  0  0  0  0  0  0
  -26.4213  -18.7860   21.3080 C   0  0  0  0  0  0  0  0  0  0  0  0
  -18.4828  -27.2543   21.9214 C   0  0  0  0  0  0  0  0  0  0  0  0
  -28.4584  -19.7595   20.4066 C   0  0  0  0  0  0  0  0  0  0  0  0
  -16.9167  -25.6409   21.2385 C   0  0  0  0  0  0  0  0  0  0  0  0
  -16.1254  -22.9683   21.1204 C   0  0  0  0  0  0  0  0  0  0  0  0
  -16.7071  -24.9229   22.4159 C   0  0  0  0  0  0  0  0  0  0  0  0
  -22.1331  -28.1433   23.8665 C   0  0  0  0  0  0  0  0  0  0  0  0
  -23.8118  -28.2257   25.2842 C   0  0  0  0  0  0  0  0  0  0  0  0
  -28.9516  -28.4640   20.4243 C   0  0  0  0  0  0  0  0  0  0  0  0
  -29.9049  -26.7511   19.4722 C   0  0  0  0  0  0  0  0  0  0  0  0
  -32.1054  -27.7176   18.7834 C   0  0  0  0  0  0  0  0  0  0  0  0
  -21.9530  -26.7141   25.9972 C   0  0  0  0  0  0  0  0  0  0  0  0
  -24.8864  -15.7440   21.1692 C   0  0  0  0  0  0  0  0  0  0  0  0
  -29.4532  -23.0864   19.3556 C   0  0  0  0  0  0  0  0  0  0  0  0
  -22.9988  -17.8611   22.7432 C   0  0  0  0  0  0  0  0  0  0  0  0
  -22.5175  -21.0576   23.8374 C   0  0  0  0  0  0  0  0  0  0  0  0
  -27.8751  -30.4624   21.5170 C   0  0  0  0  0  0  0  0  0  0  0  0
  -25.3235  -10.6707   20.8120 C   0  0  0  0  0  0  0  0  0  0  0  0
  -26.5185  -16.7559   22.8027 C   0  0  0  0  0  0  0  0  0  0  0  0
  -24.9201  -18.8264   21.4232 C   0  0  0  0  0  0  0  0  0  0  0  0
  -24.2008  -11.6488   21.1484 C   0  0  0  0  0  0  0  0  0  0  0  0
  -26.2661  -32.1879   24.1836 C   0  0  0  0  0  0  0  0  0  0  0  0
  -24.1335  -12.7625   20.1082 C   0  0  0  0  0  0  0  0  0  0  0  0
  -25.0682  -31.2973   24.5212 C   0  0  0  0  0  0  0  0  0  0  0  0
  -26.5500  -32.2117   22.6828 C   0  0  0  0  0  0  0  0  0  0  0  0
  -25.5024  -30.0005   22.3959 C   0  0  0  0  0  0  0  0  0  0  0  0
  -25.4347  -13.5735   20.0834 C   0  0  1  0  0  0  0  0  0  0  0  0
  -25.0543  -16.5300   22.4387 C   0  0  1  0  0  0  0  0  0  0  0  0
  -25.2178  -29.8934   23.9029 C   0  0  2  0  0  0  0  0  0  0  0  0
  -32.9595  -28.9637   18.7834 C   0  0  0  0  0  0  0  0  0  0  0  0
  -20.8623  -22.4924   25.0618 C   0  0  0  0  0  0  0  0  0  0  0  0
  -21.2407  -17.9553   20.2512 C   0  0  0  0  0  0  0  0  0  0  0  0
  -20.2008  -20.0483   21.1489 C   0  0  0  0  0  0  0  0  0  0  0  0
  -19.9843  -17.9088   22.4131 C   0  0  0  0  0  0  0  0  0  0  0  0
  -24.4569  -21.6600   25.9902 C   0  0  0  0  0  0  0  0  0  0  0  0
  -28.8876  -24.4854   19.2326 C   0  0  0  0  0  0  0  0  0  0  0  0
  -28.4336  -21.9838   19.5654 C   0  0  0  0  0  0  0  0  0  1  0  0
  -22.2175  -19.0925   22.3532 C   0  0  1  0  0  0  0  0  0  0  0  0
  -22.0923  -21.6070   25.1872 C   0  0  2  0  0  0  0  0  0  0  0  0
  -20.9390  -18.7496   21.5376 C   0  0  0  0  0  0  0  0  0  0  0  0
  -23.0017  -28.9902   23.3077 N   0  0  0  0  0  0  0  0  0  0  0  0
  -24.0119  -29.0196   24.1935 N   0  0  0  0  0  0  0  0  0  0  0  0
  -24.3150  -17.7823   22.2666 N   0  0  0  0  0  0  0  0  0  0  0  0
  -26.6838  -30.8473   22.1676 N   0  0  0  0  0  0  0  0  0  0  0  0
  -24.7280  -28.1373   26.2718 N   0  0  0  0  0  0  0  0  0  0  0  0
  -20.6935  -26.2041   25.6537 N   0  0  0  0  0  0  0  0  0  0  0  0
  -27.9000  -29.1323   21.0991 N   0  0  0  0  0  0  0  0  0  0  0  0
  -29.9568  -25.4322   19.0442 N   0  0  0  0  0  0  0  0  0  0  0  0
  -25.4771  -14.4952   21.1984 N   0  0  0  0  0  0  0  0  0  0  0  0
  -21.9595  -19.8211   23.5905 N   0  0  0  0  0  0  0  0  0  0  0  0
  -23.1924  -22.4131   25.7881 N   0  3  0  0  0  0  0  0  0  0  0  0
  -32.6050  -26.7123   18.2459 O   0  0  0  0  0  0  0  0  0  0  0  0
  -22.4818  -26.3659   27.0801 O   0  0  0  0  0  0  0  0  0  0  0  0
  -24.2655  -16.2337   20.2330 O   0  0  0  0  0  0  0  0  0  0  0  0
  -30.6586  -22.8481   19.2915 O   0  0  0  0  0  0  0  0  0  0  0  0
  -22.4634  -17.0042   23.4507 O   0  0  0  0  0  0  0  0  0  0  0  0
  -23.2664  -21.6663   23.0764 O   0  0  0  0  0  0  0  0  0  0  0  0
  -28.8155  -31.2468   21.3676 O   0  0  0  0  0  0  0  0  0  0  0  0
  -28.7718  -27.1558   20.1037 O   0  0  0  0  0  0  0  0  0  0  0  0
  -17.3087  -26.9678   21.2954 O   0  0  0  0  0  0  0  0  0  0  0  0
  -29.0738  -20.7115   19.6537 O   0  0  0  0  0  0  0  0  0  1  0  0
  -15.7441  -21.6856   21.0636 F   0  0  0  0  0  0  0  0  0  0  0  0
  -16.8831  -25.5119   23.6066 F   0  0  0  0  0  0  0  0  0  0  0  0
  1  2  1  0  0  0  0
  1  5  2  0  0  0  0
  2  6  2  0  0  0  0
  3  8  2  0  0  0  0
  3 16  1  0  0  0  0
  4  9  1  0  0  0  0
  4 16  2  0  0  0  0
  5 19  1  0  0  0  0
  6 21  1  0  0  0  0
  7 10  2  0  0  0  0
  7 20  1  0  0  0  0
  8 23  1  0  0  0  0
  9 23  2  0  0  0  0
 10 24  1  0  0  0  0
 11 12  2  0  0  0  0
 11 25  1  0  0  0  0
 12 26  1  0  0  0  0
 13 17  1  0  0  0  0
 13 30  2  0  0  0  0
 14 22  1  0  0  0  0
 14 24  2  0  0  0  0
 15 26  2  0  0  0  0
 15 27  1  0  0  0  0
 16 28  1  0  0  0  0
 17 31  2  0  0  0  0
 17 32  1  0  0  0  0
 18 28  1  0  0  0  0
 18 29  2  0  0  0  0
 18 33  1  0  0  0  0
 19 21  2  0  0  0  0
 19 39  1  0  0  0  0
 20 22  2  0  0  0  0
 20 40  1  0  0  0  0
 21 48  1  0  0  0  0
 22 41  1  0  0  0  0
 23 81  1  0  0  0  0
 24 82  1  0  0  0  0
 25 27  2  0  0  0  0
 25 81  1  0  0  0  0
 26 83  1  0  0  0  0
 27 84  1  0  0  0  0
 28 62  2  0  0  0  0
 29 63  1  0  0  0  0
 29 66  1  0  0  0  0
 30 68  1  0  0  0  0
 30 80  1  0  0  0  0
 31 69  1  0  0  0  0
 31 80  1  0  0  0  0
 32 51  1  0  0  0  0
 32 73  2  0  0  0  0
 33 67  1  0  0  0  0
 33 74  2  0  0  0  0
 34 49  1  0  0  0  0
 34 70  1  0  0  0  0
 34 75  2  0  0  0  0
 35 57  1  0  0  0  0
 35 58  1  0  0  0  0
 35 76  2  0  0  0  0
 36 59  1  0  0  0  0
 36 64  1  0  0  0  0
 36 77  2  0  0  0  0
 37 60  1  0  0  0  0
 37 71  1  0  0  0  0
 37 78  2  0  0  0  0
 38 65  1  0  0  0  0
 38 68  1  0  0  0  0
 38 79  2  0  0  0  0
 39 42  1  0  0  0  0
 40 49  1  0  0  0  0
 41 64  1  0  0  0  0
 42 44  1  0  0  0  0
 43 45  1  0  0  0  0
 43 46  1  0  0  0  0
 44 48  1  0  0  0  0
 45 50  1  0  0  0  0
 46 65  1  0  0  0  0
 47 50  1  0  0  0  0
 47 65  1  0  0  0  0
 48 70  1  0  0  0  0
 49 64  1  0  0  0  0
 50 63  1  0  0  0  0
 52 60  1  0  0  0  0
 53 61  1  0  0  0  0
 54 61  1  0  0  0  0
 55 61  1  0  0  0  0
 56 72  1  0  0  0  0
 57 69  1  0  0  0  0
 58 82  1  0  0  0  0
 59 61  1  0  0  0  0
 59 71  1  0  0  0  0
 60 72  1  0  0  0  0
 62 63  1  0  0  0  0
M  CHG  1  72   1
M  ISO  4  38 100  58 101  68 100  82 101
M  END
> <Batch ID>
0162

> <Smiles>
CNC(C)C(=O)NC(C(=O)N1Cc2cc([101O:1][101CH2:1]C(=O)CNc3oc([100NH:0][100C:0](=O)N4CCCC(n5nc(-c6ccc(Oc7ccc(F)cc7F)cc6)c(C(N)=O)c5N)C4)cc3C(C)=O)ccc2CC1C(=O)NC1CCCc2ccccc21)C(C)(C)C

> <Shape>
0.248

> <Color>
0.084

> <Negative vol penalty>
0.000

$$$$

  -OEChem-04052303563D

 85 93  0     1  0  0  0  0  0999 V2000
  -18.8717  -24.6056   22.7511 C   0  0  0  0  0  0  0  0  0  0  0  0
  -20.1193  -24.7818   22.1614 C   0  0  0  0  0  0  0  0  0  0  0  0
  -21.7980  -13.6776   19.8183 C   0  0  0  0  0  0  0  0  0  0  0  0
  -22.5954  -15.4127   18.3383 C   0  0  0  0  0  0  0  0  0  0  0  0
  -18.0742  -25.7130   23.0368 C   0  0  0  0  0  0  0  0  0  0  0  0
  -20.5698  -26.0657   21.8560 C   0  0  0  0  0  0  0  0  0  0  0  0
  -25.3952  -26.8031   23.2038 C   0  0  0  0  0  0  0  0  0  0  0  0
  -20.4935  -14.1477   19.6667 C   0  0  0  0  0  0  0  0  0  0  0  0
  -21.2909  -15.8828   18.1866 C   0  0  0  0  0  0  0  0  0  0  0  0
  -26.3776  -26.2683   22.3715 C   0  0  0  0  0  0  0  0  0  0  0  0
  -19.1012  -17.7659   19.9444 C   0  0  0  0  0  0  0  0  0  0  0  0
  -18.8953  -19.1432   20.0244 C   0  0  0  0  0  0  0  0  0  0  0  0
  -30.5781  -20.4524   17.9645 C   0  0  0  0  0  0  0  0  0  0  0  0
  -26.7099  -28.4410   21.3775 C   0  0  0  0  0  0  0  0  0  0  0  0
  -18.0125  -19.1417   17.7754 C   0  0  0  0  0  0  0  0  0  0  0  0
  -22.8489  -14.3101   19.1542 C   0  0  0  0  0  0  0  0  0  0  0  0
  -30.8219  -19.2158   18.6085 C   0  0  0  0  0  0  0  0  0  0  0  0
  -24.8482  -12.8558   18.5250 C   0  0  0  0  0  0  0  0  0  0  0  0
  -18.5193  -27.0117   22.7436 C   0  0  0  0  0  0  0  0  0  0  0  0
  -25.0545  -28.1609   23.1214 C   0  0  0  0  0  0  0  0  0  0  0  0
  -19.7770  -27.1914   22.1368 C   0  0  0  0  0  0  0  0  0  0  0  0
  -25.7246  -28.9911   22.2116 C   0  0  0  0  0  0  0  0  0  0  0  0
  -20.2400  -15.2502   18.8508 C   0  0  0  0  0  0  0  0  0  0  0  0
  -27.0331  -27.0866   21.4562 C   0  0  0  0  0  0  0  0  0  0  0  0
  -18.7629  -17.0765   18.7799 C   0  0  0  0  0  0  0  0  0  0  0  0
  -18.3509  -19.8310   18.9399 C   0  0  0  0  0  0  0  0  0  0  0  0
  -18.2184  -17.7644   17.6955 C   0  0  0  0  0  0  0  0  0  0  0  0
  -24.1967  -13.8253   19.3109 C   0  0  0  0  0  0  0  0  0  0  0  0
  -30.4384  -19.3852   19.9185 C   0  0  0  0  0  0  0  0  0  0  0  0
  -30.0626  -21.2891   18.9268 C   0  0  0  0  0  0  0  0  0  0  0  0
  -26.1015  -12.7519   19.0771 C   0  0  0  0  0  0  0  0  0  0  0  0
  -29.7809  -23.3437   19.8710 C   0  0  0  0  0  0  0  0  0  0  0  0
  -31.3575  -18.0111   18.0469 C   0  0  0  0  0  0  0  0  0  0  0  0
  -24.3637  -12.1155   17.3968 C   0  0  0  0  0  0  0  0  0  0  0  0
  -29.3623  -24.7771   19.8185 C   0  0  0  0  0  0  0  0  0  0  0  0
  -22.4101  -29.7703   22.3998 C   0  0  0  0  0  0  0  0  0  0  0  0
  -29.3822  -16.5912   22.3343 C   0  0  0  0  0  0  0  0  0  0  0  0
  -24.1968  -32.3320   23.2759 C   0  0  0  0  0  0  0  0  0  0  0  0
  -27.2975  -33.6944   23.6960 C   0  0  0  0  0  0  0  0  0  0  0  0
  -17.6020  -28.1748   23.0275 C   0  0  0  0  0  0  0  0  0  0  0  0
  -24.0114  -28.7281   24.0447 C   0  0  0  0  0  0  0  0  0  0  0  0
  -25.4101  -30.4597   22.0979 C   0  0  0  0  0  0  0  0  0  0  0  0
  -18.3110  -29.5266   23.0156 C   0  0  0  0  0  0  0  0  0  0  0  0
  -28.4310  -13.2512   23.2174 C   0  0  0  0  0  0  0  0  0  0  0  0
  -19.2166  -29.6438   21.7938 C   0  0  0  0  0  0  0  0  0  0  0  0
  -27.2779  -12.9423   22.2635 C   0  0  0  0  0  0  0  0  0  0  0  0
  -28.4305  -14.7177   23.6376 C   0  0  0  0  0  0  0  0  0  0  0  0
  -27.2973  -15.3707   21.5373 C   0  0  0  0  0  0  0  0  0  0  0  0
  -20.3111  -28.5699   21.8133 C   0  0  1  0  0  0  0  0  0  0  0  0
  -23.3834  -30.0148   23.5181 C   0  0  1  0  0  0  0  0  0  0  0  0
  -27.2793  -13.9064   21.0640 C   0  0  2  0  0  0  0  0  0  0  0  0
  -31.7258  -18.0078   16.5814 C   0  0  0  0  0  0  0  0  0  0  0  0
  -28.4380  -35.8197   24.3885 C   0  0  0  0  0  0  0  0  0  0  0  0
  -23.5048  -33.5793   20.5787 C   0  0  0  0  0  0  0  0  0  0  0  0
  -25.3822  -35.1992   20.9246 C   0  0  0  0  0  0  0  0  0  0  0  0
  -23.4544  -35.1704   22.5075 C   0  0  0  0  0  0  0  0  0  0  0  0
  -28.6545  -32.3635   25.9645 C   0  0  0  0  0  0  0  0  0  0  0  0
  -30.4337  -18.5013   21.0942 C   0  0  0  0  0  0  0  0  0  0  0  0
  -28.2760  -25.1753   20.7795 C   0  0  0  0  0  0  0  0  0  1  0  0
  -29.2969  -17.4590   21.1040 C   0  0  0  0  0  0  0  0  0  0  0  0
  -25.1308  -33.2786   22.5615 C   0  0  1  0  0  0  0  0  0  0  0  0
  -27.9091  -34.4701   24.8486 C   0  0  2  0  0  0  0  0  0  0  0  0
  -24.3728  -34.2788   21.6436 C   0  0  0  0  0  0  0  0  0  0  0  0
  -24.9720  -14.3031   20.2879 N   0  0  0  0  0  0  0  0  0  0  0  0
  -29.6534  -22.6280   18.8082 N   0  0  0  0  0  0  0  0  0  0  0  0
  -26.1236  -13.6310   20.1197 N   0  0  0  0  0  0  0  0  0  0  0  0
  -24.3782  -30.9658   23.0180 N   0  0  0  0  0  0  0  0  0  0  0  0
  -28.4091  -15.6009   22.4703 N   0  0  0  0  0  0  0  0  0  0  0  0
  -27.1758  -11.9952   18.7677 N   0  0  0  0  0  0  0  0  0  0  0  0
  -23.0518  -12.3451   16.9604 N   0  0  0  0  0  0  0  0  0  0  0  0
  -21.3619  -28.9361   22.7386 N   0  0  0  0  0  0  0  0  0  0  0  0
  -25.9397  -33.9129   23.5968 N   0  0  0  0  0  0  0  0  0  0  0  0
  -29.0372  -33.7030   25.4485 N   0  3  0  0  0  0  0  0  0  0  0  0
  -31.5483  -16.9444   18.6602 O   0  0  0  0  0  0  0  0  0  0  0  0
  -25.0677  -11.2633   16.8038 O   0  0  0  0  0  0  0  0  0  0  0  0
  -29.9268  -25.5151   19.0266 O   0  0  0  0  0  0  0  0  0  0  0  0
  -22.5956  -30.3004   21.3106 O   0  0  0  0  0  0  0  0  0  0  0  0
  -30.2890  -16.7872   23.1475 O   0  0  0  0  0  0  0  0  0  0  0  0
  -23.3425  -32.7874   24.0404 O   0  0  0  0  0  0  0  0  0  0  0  0
  -27.9588  -32.9701   22.9553 O   0  0  0  0  0  0  0  0  0  0  0  0
  -29.9742  -20.6462   20.1207 O   0  0  0  0  0  0  0  0  0  0  0  0
  -18.9672  -15.7091   18.7024 O   0  0  0  0  0  0  0  0  0  0  0  0
  -27.9919  -26.5669   20.6423 O   0  0  0  0  0  0  0  0  0  1  0  0
  -18.1518  -21.1534   19.0174 F   0  0  0  0  0  0  0  0  0  0  0  0
  -17.8903  -17.1074   16.5746 F   0  0  0  0  0  0  0  0  0  0  0  0
  1  2  1  0  0  0  0
  1  5  2  0  0  0  0
  2  6  2  0  0  0  0
  3  8  2  0  0  0  0
  3 16  1  0  0  0  0
  4  9  1  0  0  0  0
  4 16  2  0  0  0  0
  5 19  1  0  0  0  0
  6 21  1  0  0  0  0
  7 10  2  0  0  0  0
  7 20  1  0  0  0  0
  8 23  1  0  0  0  0
  9 23  2  0  0  0  0
 10 24  1  0  0  0  0
 11 12  2  0  0  0  0
 11 25  1  0  0  0  0
 12 26  1  0  0  0  0
 13 17  1  0  0  0  0
 13 30  2  0  0  0  0
 14 22  1  0  0  0  0
 14 24  2  0  0  0  0
 15 26  2  0  0  0  0
 15 27  1  0  0  0  0
 16 28  1  0  0  0  0
 17 29  2  0  0  0  0
 17 33  1  0  0  0  0
 18 28  1  0  0  0  0
 18 31  2  0  0  0  0
 18 34  1  0  0  0  0
 19 21  2  0  0  0  0
 19 40  1  0  0  0  0
 20 22  2  0  0  0  0
 20 41  1  0  0  0  0
 21 49  1  0  0  0  0
 22 42  1  0  0  0  0
 23 82  1  0  0  0  0
 24 83  1  0  0  0  0
 25 27  2  0  0  0  0
 25 82  1  0  0  0  0
 26 84  1  0  0  0  0
 27 85  1  0  0  0  0
 28 64  2  0  0  0  0
 29 58  1  0  0  0  0
 29 81  1  0  0  0  0
 30 65  1  0  0  0  0
 30 81  1  0  0  0  0
 31 66  1  0  0  0  0
 31 69  1  0  0  0  0
 32 35  1  0  0  0  0
 32 65  2  0  0  0  0
 33 52  1  0  0  0  0
 33 74  2  0  0  0  0
 34 70  1  0  0  0  0
 34 75  2  0  0  0  0
 35 59  1  0  0  0  0
 35 76  2  0  0  0  0
 36 50  1  0  0  0  0
 36 71  1  0  0  0  0
 36 77  2  0  0  0  0
 37 60  1  0  0  0  0
 37 68  1  0  0  0  0
 37 78  2  0  0  0  0
 38 61  1  0  0  0  0
 38 67  1  0  0  0  0
 38 79  2  0  0  0  0
 39 62  1  0  0  0  0
 39 72  1  0  0  0  0
 39 80  2  0  0  0  0
 40 43  1  0  0  0  0
 41 50  1  0  0  0  0
 42 67  1  0  0  0  0
 43 45  1  0  0  0  0
 44 46  1  0  0  0  0
 44 47  1  0  0  0  0
 45 49  1  0  0  0  0
 46 51  1  0  0  0  0
 47 68  1  0  0  0  0
 48 51  1  0  0  0  0
 48 68  1  0  0  0  0
 49 71  1  0  0  0  0
 50 67  1  0  0  0  0
 51 66  1  0  0  0  0
 53 62  1  0  0  0  0
 54 63  1  0  0  0  0
 55 63  1  0  0  0  0
 56 63  1  0  0  0  0
 57 73  1  0  0  0  0
 58 60  1  0  0  0  0
 59 83  1  0  0  0  0
 61 63  1  0  0  0  0
 61 72  1  0  0  0  0
 62 73  1  0  0  0  0
 64 66  1  0  0  0  0
M  CHG  1  73   1
M  ISO  4  37 100  59 101  60 100  83 101
M  END
> <Batch ID>
0162

> <Smiles>
CNC(C)C(=O)NC(C(=O)N1Cc2cc([101O:1][101CH2:1]C(=O)CNc3cc(C(C)=O)c(C=[100CH:0][100C:0](=O)N4CCCC(n5nc(-c6ccc(Oc7ccc(F)cc7F)cc6)c(C(N)=O)c5N)C4)o3)ccc2CC1C(=O)NC1CCCc2ccccc21)C(C)(C)C

> <Shape>
0.241

> <Color>
0.100

> <Negative vol penalty>
0.000

$$$$

  -OEChem-04052303563D

 89 98  0     1  0  0  0  0  0999 V2000
  -29.7146  -22.9738   19.0837 C   0  0  0  0  0  0  0  0  0  0  0  0
  -28.4126  -23.3801   19.3581 C   0  0  0  0  0  0  0  0  0  0  0  0
  -27.2788  -16.5105   21.2566 C   0  0  0  0  0  0  0  0  0  0  0  0
  -26.8933  -17.4395   19.0600 C   0  0  0  0  0  0  0  0  0  0  0  0
  -30.7795  -23.5208   19.7982 C   0  0  0  0  0  0  0  0  0  0  0  0
  -28.1748  -24.3329   20.3480 C   0  0  0  0  0  0  0  0  0  0  0  0
  -24.8559  -27.8672   18.8855 C   0  0  0  0  0  0  0  0  0  0  0  0
  -28.6162  -16.9005   21.1870 C   0  0  0  0  0  0  0  0  0  0  0  0
  -28.2307  -17.8297   18.9903 C   0  0  0  0  0  0  0  0  0  0  0  0
  -23.5058  -27.5199   18.9055 C   0  0  0  0  0  0  0  0  0  0  0  0
  -30.4060  -19.7419   21.5819 C   0  0  0  0  0  0  0  0  0  0  0  0
  -30.9610  -20.3576   22.7037 C   0  0  0  0  0  0  0  0  0  0  0  0
  -18.1229  -27.8090   22.9648 C   0  0  0  0  0  0  0  0  0  0  0  0
  -19.0877  -28.1412   21.9840 C   0  0  0  0  0  0  0  0  0  0  0  0
  -19.2250  -21.4759   24.2763 C   0  0  0  0  0  0  0  0  0  0  0  0
  -19.7594  -21.8981   26.5943 C   0  0  0  0  0  0  0  0  0  0  0  0
  -23.2464  -28.6742   21.0078 C   0  0  0  0  0  0  0  0  0  0  0  0
  -20.7069  -19.9836   25.4656 C   0  0  0  0  0  0  0  0  0  0  0  0
  -32.6014  -18.5910   22.8617 C   0  0  0  0  0  0  0  0  0  0  0  0
  -26.4174  -16.7799   20.1931 C   0  0  0  0  0  0  0  0  0  0  0  0
  -19.0874  -22.2548   25.4252 C   0  0  0  0  0  0  0  0  0  0  0  0
  -24.5389  -15.0682   20.4145 C   0  0  0  0  0  0  0  0  0  0  0  0
  -30.5555  -24.4879   20.7907 C   0  0  0  0  0  0  0  0  0  0  0  0
  -25.4148  -28.6125   19.9336 C   0  0  0  0  0  0  0  0  0  0  0  0
  -29.2377  -24.8924   21.0774 C   0  0  0  0  0  0  0  0  0  0  0  0
  -24.6032  -29.0317   20.9974 C   0  0  0  0  0  0  0  0  0  0  0  0
  -20.0348  -20.3402   24.2965 C   0  0  0  0  0  0  0  0  0  0  0  0
  -29.0922  -17.5602   20.0538 C   0  0  0  0  0  0  0  0  0  0  0  0
  -22.7015  -27.9209   19.9682 C   0  0  0  0  0  0  0  0  0  0  0  0
  -30.9487  -18.5507   21.0999 C   0  0  0  0  0  0  0  0  0  0  0  0
  -32.0587  -19.7821   23.3436 C   0  0  0  0  0  0  0  0  0  0  0  0
  -20.5692  -20.7625   26.6145 C   0  0  0  0  0  0  0  0  0  0  0  0
  -32.0464  -17.9753   21.7398 C   0  0  0  0  0  0  0  0  0  0  0  0
  -25.0359  -16.3767   20.2643 C   0  0  0  0  0  0  0  0  0  0  0  0
  -18.4493  -26.5494   23.4105 C   0  0  0  0  0  0  0  0  0  0  0  0
  -23.1737  -15.2187   20.4262 C   0  0  0  0  0  0  0  0  0  0  0  0
  -19.9352  -27.0610   21.9005 C   0  0  0  0  0  0  0  0  0  0  0  0
  -18.2288  -23.4571   25.4048 C   0  0  0  0  0  0  0  0  0  0  0  0
  -25.2479  -13.8276   20.5330 C   0  0  0  0  0  0  0  0  0  0  0  0
  -17.8433  -25.7079   24.3850 C   0  0  0  0  0  0  0  0  0  0  0  0
  -27.6965  -28.0958   22.0855 C   0  0  0  0  0  0  0  0  0  0  0  0
  -27.1619  -31.2083   22.8263 C   0  0  0  0  0  0  0  0  0  0  0  0
  -25.0206  -33.8655   22.8025 C   0  0  0  0  0  0  0  0  0  0  0  0
  -19.5801  -19.7638   21.8867 C   0  0  0  0  0  0  0  0  0  0  0  0
  -31.7345  -25.0158   21.5692 C   0  0  0  0  0  0  0  0  0  0  0  0
  -26.8668  -29.0017   19.8839 C   0  0  0  0  0  0  0  0  0  0  0  0
  -25.1501  -29.8506   22.1371 C   0  0  0  0  0  0  0  0  0  0  0  0
  -31.4292  -26.2953   22.3439 C   0  0  0  0  0  0  0  0  0  0  0  0
  -19.7061  -18.0693   18.7578 C   0  0  0  0  0  0  0  0  0  0  0  0
  -30.1090  -26.1617   23.0962 C   0  0  0  0  0  0  0  0  0  0  0  0
  -21.0391  -17.3191   18.8052 C   0  0  0  0  0  0  0  0  0  0  0  0
  -19.8003  -19.4363   19.4333 C   0  0  0  0  0  0  0  0  0  0  0  0
  -21.6628  -18.6665   20.8503 C   0  0  0  0  0  0  0  0  0  0  0  0
  -28.9414  -25.9418   22.1267 C   0  0  1  0  0  0  0  0  0  0  0  0
  -27.4463  -29.3246   21.2578 C   0  0  1  0  0  0  0  0  0  0  0  0
  -21.6002  -17.2571   20.2394 C   0  0  2  0  0  0  0  0  0  0  0  0
  -24.8526  -36.2665   23.5129 C   0  0  0  0  0  0  0  0  0  0  0  0
  -26.7677  -30.3221   25.7193 C   0  0  0  0  0  0  0  0  0  0  0  0
  -25.6938  -32.5367   26.1781 C   0  0  0  0  0  0  0  0  0  0  0  0
  -28.0759  -32.4358   25.4447 C   0  0  0  0  0  0  0  0  0  0  0  0
  -24.6269  -34.7832   20.0165 C   0  0  0  0  0  0  0  0  0  0  0  0
  -26.2431  -31.9387   23.7757 C   0  0  1  0  0  0  0  0  0  0  0  0
  -25.2151  -35.3122   22.3857 C   0  0  2  0  0  0  0  0  0  0  0  0
  -26.6850  -31.7913   25.2591 C   0  0  0  0  0  0  0  0  0  0  0  0
  -24.0654  -17.2911   20.1859 N   0  0  0  0  0  0  0  0  0  0  0  0
  -22.9449  -16.5560   20.2873 N   0  0  0  0  0  0  0  0  0  0  0  0
  -26.5772  -30.2007   22.0461 N   0  0  0  0  0  0  0  0  0  0  0  0
  -20.3356  -19.2988   20.7895 N   0  0  0  0  0  0  0  0  0  0  0  0
  -22.1587  -14.3361   20.5415 N   0  0  0  0  0  0  0  0  0  0  0  0
  -25.5535  -13.1184   19.3635 N   0  0  0  0  0  0  0  0  0  0  0  0
  -20.1759  -19.5496   23.1292 N   0  0  0  0  0  0  0  0  0  0  0  0
  -21.0659  -26.8186   21.1097 N   0  0  0  0  0  0  0  0  0  1  0  0
  -18.5332  -24.4357   24.5393 N   0  0  0  0  0  0  0  0  0  0  0  0
  -28.5618  -27.1905   21.5013 N   0  0  0  0  0  0  0  0  0  0  0  0
  -26.1822  -33.3181   23.3046 N   0  0  0  0  0  0  0  0  0  0  0  0
  -17.1966  -23.4953   26.2470 N   0  3  0  0  0  0  0  0  0  0  0  0
  -24.3606  -35.6310   21.2070 N   0  3  0  0  0  0  0  0  0  0  0  0
  -25.5856  -13.3538   21.6443 O   0  0  0  0  0  0  0  0  0  0  0  0
  -16.8630  -25.9773   25.0981 O   0  0  0  0  0  0  0  0  0  0  0  0
  -27.1465  -27.9784   23.1743 O   0  0  0  0  0  0  0  0  0  0  0  0
  -28.3529  -31.5251   22.7736 O   0  0  0  0  0  0  0  0  0  0  0  0
  -23.9447  -33.2808   22.6970 O   0  0  0  0  0  0  0  0  0  0  0  0
  -18.4730  -20.2870   21.7371 O   0  0  0  0  0  0  0  0  0  0  0  0
  -19.5529  -26.0864   22.7669 O   0  0  0  0  0  0  0  0  0  0  0  0
  -30.3970  -17.9412   19.9856 O   0  0  0  0  0  0  0  0  0  0  0  0
  -21.3835  -27.5828   19.9906 O   0  0  0  0  0  0  0  0  0  1  0  0
  -32.5925  -20.3743   24.4200 F   0  0  0  0  0  0  0  0  0  0  0  0
  -21.2145  -20.4201   27.7372 F   0  0  0  0  0  0  0  0  0  0  0  0
  -32.5729  -16.8316   21.2807 F   0  0  0  0  0  0  0  0  0  0  0  0
  1  2  1  0  0  0  0
  1  5  2  0  0  0  0
  2  6  2  0  0  0  0
  3  8  2  0  0  0  0
  3 20  1  0  0  0  0
  4  9  1  0  0  0  0
  4 20  2  0  0  0  0
  5 23  1  0  0  0  0
  6 25  1  0  0  0  0
  7 10  2  0  0  0  0
  7 24  1  0  0  0  0
  8 28  1  0  0  0  0
  9 28  2  0  0  0  0
 10 29  1  0  0  0  0
 11 12  2  0  0  0  0
 11 30  1  0  0  0  0
 12 31  1  0  0  0  0
 13 14  1  0  0  0  0
 13 35  2  0  0  0  0
 14 37  2  0  0  0  0
 15 21  2  0  0  0  0
 15 27  1  0  0  0  0
 16 21  1  0  0  0  0
 16 32  2  0  0  0  0
 17 26  1  0  0  0  0
 17 29  2  0  0  0  0
 18 27  2  0  0  0  0
 18 32  1  0  0  0  0
 19 31  2  0  0  0  0
 19 33  1  0  0  0  0
 20 34  1  0  0  0  0
 21 38  1  0  0  0  0
 22 34  1  0  0  0  0
 22 36  2  0  0  0  0
 22 39  1  0  0  0  0
 23 25  2  0  0  0  0
 23 45  1  0  0  0  0
 24 26  2  0  0  0  0
 24 46  1  0  0  0  0
 25 54  1  0  0  0  0
 26 47  1  0  0  0  0
 27 71  1  0  0  0  0
 28 85  1  0  0  0  0
 29 86  1  0  0  0  0
 30 33  2  0  0  0  0
 30 85  1  0  0  0  0
 31 87  1  0  0  0  0
 32 88  1  0  0  0  0
 33 89  1  0  0  0  0
 34 65  2  0  0  0  0
 35 40  1  0  0  0  0
 35 84  1  0  0  0  0
 36 66  1  0  0  0  0
 36 69  1  0  0  0  0
 37 72  1  0  0  0  0
 37 84  1  0  0  0  0
 38 73  1  0  0  0  0
 38 76  2  0  0  0  0
 39 70  1  0  0  0  0
 39 78  2  0  0  0  0
 40 73  1  0  0  0  0
 40 79  2  0  0  0  0
 41 55  1  0  0  0  0
 41 74  1  0  0  0  0
 41 80  2  0  0  0  0
 42 62  1  0  0  0  0
 42 67  1  0  0  0  0
 42 81  2  0  0  0  0
 43 63  1  0  0  0  0
 43 75  1  0  0  0  0
 43 82  2  0  0  0  0
 44 68  1  0  0  0  0
 44 71  1  0  0  0  0
 44 83  2  0  0  0  0
 45 48  1  0  0  0  0
 46 55  1  0  0  0  0
 47 67  1  0  0  0  0
 48 50  1  0  0  0  0
 49 51  1  0  0  0  0
 49 52  1  0  0  0  0
 50 54  1  0  0  0  0
 51 56  1  0  0  0  0
 52 68  1  0  0  0  0
 53 56  1  0  0  0  0
 53 68  1  0  0  0  0
 54 74  1  0  0  0  0
 55 67  1  0  0  0  0
 56 66  1  0  0  0  0
 57 63  1  0  0  0  0
 58 64  1  0  0  0  0
 59 64  1  0  0  0  0
 60 64  1  0  0  0  0
 61 77  1  0  0  0  0
 62 64  1  0  0  0  0
 62 75  1  0  0  0  0
 63 77  1  0  0  0  0
 65 66  1  0  0  0  0
 72 86  1  0  0  0  0
M  CHG  2  76   1  77   1
M  ISO  4  44 100  71 100  72 101  86 101
M  END
> <Batch ID>
0162

> <Smiles>
CNC(C)C(=O)NC(C(=O)N1Cc2cc([101O:1][101NH:1]c3ccc(C(=O)NC(=N)c4cc(F)cc([100NH:0][100C:0](=O)N5CCCC(n6nc(-c7ccc(Oc8ccc(F)cc8F)cc7)c(C(N)=O)c6N)C5)c4)o3)ccc2CC1C(=O)NC1CCCc2ccccc21)C(C)(C)C

> <Shape>
0.246

> <Color>
0.071

> <Negative vol penalty>
0.000

$$$$

  -OEChem-04052303563D

 85 93  0     1  0  0  0  0  0999 V2000
  -30.3475  -26.1604   16.9402 C   0  0  0  0  0  0  0  0  0  0  0  0
  -28.9662  -26.0971   17.0928 C   0  0  0  0  0  0  0  0  0  0  0  0
  -27.5229  -15.8897   19.2838 C   0  0  0  0  0  0  0  0  0  0  0  0
  -26.8530  -17.6961   20.7417 C   0  0  0  0  0  0  0  0  0  0  0  0
  -31.1445  -26.6049   17.9943 C   0  0  0  0  0  0  0  0  0  0  0  0
  -28.3811  -26.4771   18.3001 C   0  0  0  0  0  0  0  0  0  0  0  0
  -22.9677  -29.2385   19.0594 C   0  0  0  0  0  0  0  0  0  0  0  0
  -18.4630  -21.9922   20.7280 C   0  0  0  0  0  0  0  0  0  0  0  0
  -28.8318  -16.3719   19.2878 C   0  0  0  0  0  0  0  0  0  0  0  0
  -28.1619  -18.1783   20.7457 C   0  0  0  0  0  0  0  0  0  0  0  0
  -21.7051  -28.7514   19.3943 C   0  0  0  0  0  0  0  0  0  0  0  0
  -30.1609  -19.9761   18.6956 C   0  0  0  0  0  0  0  0  0  0  0  0
  -30.3466  -21.3481   18.5263 C   0  0  0  0  0  0  0  0  0  0  0  0
  -19.3153  -21.0163   20.2236 C   0  0  0  0  0  0  0  0  0  0  0  0
  -22.1093  -29.3099   21.7059 C   0  0  0  0  0  0  0  0  0  0  0  0
  -31.4365  -21.4662   20.6793 C   0  0  0  0  0  0  0  0  0  0  0  0
  -26.5335  -16.5519   20.0107 C   0  0  0  0  0  0  0  0  0  0  0  0
  -24.6146  -15.1247   20.8987 C   0  0  0  0  0  0  0  0  0  0  0  0
  -30.5681  -26.9997   19.2119 C   0  0  0  0  0  0  0  0  0  0  0  0
  -23.8164  -29.7559   20.0486 C   0  0  0  0  0  0  0  0  0  0  0  0
  -29.1712  -26.9260   19.3720 C   0  0  0  0  0  0  0  0  0  0  0  0
  -23.3812  -29.8053   21.3806 C   0  0  0  0  0  0  0  0  0  0  0  0
  -17.2654  -22.2658   20.0765 C   0  0  0  0  0  0  0  0  0  0  0  0
  -29.1513  -17.5161   20.0188 C   0  0  0  0  0  0  0  0  0  0  0  0
  -21.2768  -28.7844   20.7181 C   0  0  0  0  0  0  0  0  0  0  0  0
  -30.6129  -19.3491   19.8568 C   0  0  0  0  0  0  0  0  0  0  0  0
  -30.9844  -22.0932   19.5182 C   0  0  0  0  0  0  0  0  0  0  0  0
  -31.2507  -20.0942   20.8486 C   0  0  0  0  0  0  0  0  0  0  0  0
  -25.1812  -16.0546   20.0065 C   0  0  0  0  0  0  0  0  0  0  0  0
  -18.9271  -20.3476   19.0739 C   0  0  0  0  0  0  0  0  0  0  0  0
  -16.9691  -21.5413   18.9332 C   0  0  0  0  0  0  0  0  0  0  0  0
  -23.3159  -14.9877   20.4731 C   0  0  0  0  0  0  0  0  0  0  0  0
  -25.2090  -14.4455   22.0127 C   0  0  0  0  0  0  0  0  0  0  0  0
  -26.6819  -28.9727   21.1796 C   0  0  0  0  0  0  0  0  0  0  0  0
  -18.5951  -26.3722   21.0602 C   0  0  0  0  0  0  0  0  0  0  0  0
  -26.3391  -31.7246   22.8625 C   0  0  0  0  0  0  0  0  0  0  0  0
  -24.2405  -34.0527   24.2125 C   0  0  0  0  0  0  0  0  0  0  0  0
  -19.6175  -18.5642   17.4340 C   0  0  0  0  0  0  0  0  0  0  0  0
  -31.4742  -27.4283   20.3388 C   0  0  0  0  0  0  0  0  0  0  0  0
  -25.1650  -30.3020   19.6670 C   0  0  0  0  0  0  0  0  0  0  0  0
  -24.2463  -30.3693   22.4771 C   0  0  0  0  0  0  0  0  0  0  0  0
  -30.7460  -28.1680   21.4581 C   0  0  0  0  0  0  0  0  0  0  0  0
  -20.6195  -15.2706   16.5254 C   0  0  0  0  0  0  0  0  0  0  0  0
  -29.4678  -27.4296   21.8426 C   0  0  0  0  0  0  0  0  0  0  0  0
  -21.8478  -15.0110   17.4006 C   0  0  0  0  0  0  0  0  0  0  0  0
  -20.5554  -16.7224   16.0544 C   0  0  0  0  0  0  0  0  0  0  0  0
  -21.8743  -17.4666   17.9976 C   0  0  0  0  0  0  0  0  0  0  0  0
  -28.4973  -27.3531   20.6579 C   0  0  1  0  0  0  0  0  0  0  0  0
  -26.1484  -30.3339   20.8329 C   0  0  1  0  0  0  0  0  0  0  0  0
  -21.9475  -16.0335   18.5496 C   0  0  2  0  0  0  0  0  0  0  0  0
  -15.3510  -22.7717   21.6487 C   0  0  0  0  0  0  0  0  0  0  0  0
  -24.2522  -36.1676   25.5632 C   0  0  0  0  0  0  0  0  0  0  0  0
  -26.9205  -30.1080   25.3841 C   0  0  0  0  0  0  0  0  0  0  0  0
  -25.9983  -32.0070   26.7301 C   0  0  0  0  0  0  0  0  0  0  0  0
  -28.0185  -32.3537   25.3084 C   0  0  0  0  0  0  0  0  0  0  0  0
  -22.9474  -35.5866   22.0367 C   0  0  0  0  0  0  0  0  0  0  0  0
  -17.9435  -25.2212   20.3401 C   0  0  0  0  0  0  0  0  0  0  0  0
  -19.5204  -27.2525   20.2448 C   0  0  0  0  0  0  0  0  0  1  0  0
  -16.3413  -23.3268   20.6280 C   0  0  1  0  0  0  0  0  0  0  0  0
  -25.7580  -32.0902   24.2070 C   0  0  1  0  0  0  0  0  0  0  0  0
  -24.2550  -35.5699   24.1648 C   0  0  2  0  0  0  0  0  0  0  0  0
  -26.6581  -31.6272   25.3873 C   0  0  0  0  0  0  0  0  0  0  0  0
  -24.3136  -16.4784   19.0836 N   0  0  0  0  0  0  0  0  0  0  0  0
  -17.7718  -20.5858   18.4133 N   0  0  0  0  0  0  0  0  0  0  0  0
  -23.1886  -15.8116   19.3936 N   0  0  0  0  0  0  0  0  0  0  0  0
  -25.5588  -30.8853   22.0547 N   0  0  0  0  0  0  0  0  0  0  0  0
  -20.6513  -17.6337   17.1969 N   0  0  0  0  0  0  0  0  0  0  0  0
  -15.7494  -21.8160   18.2658 N   0  0  0  0  0  0  0  0  0  0  0  0
  -22.2819  -14.2441   20.9205 N   0  0  0  0  0  0  0  0  0  0  0  0
  -26.5541  -14.7022   22.3115 N   0  0  0  0  0  0  0  0  0  0  0  0
  -19.8026  -19.3552   18.5674 N   0  0  0  0  0  0  0  0  0  0  0  0
  -27.8185  -28.6185   20.4780 N   0  0  0  0  0  0  0  0  0  0  0  0
  -25.5150  -33.5282   24.1692 N   0  0  0  0  0  0  0  0  0  0  0  0
  -23.0587  -36.0767   23.4347 N   0  3  0  0  0  0  0  0  0  0  0  0
  -17.0768  -24.4562   21.2635 N   0  3  0  0  0  0  0  0  0  0  0  0
  -24.5711  -13.6225   22.7122 O   0  0  0  0  0  0  0  0  0  0  0  0
  -26.1060  -28.2946   22.0223 O   0  0  0  0  0  0  0  0  0  0  0  0
  -18.3948  -26.5653   22.2592 O   0  0  0  0  0  0  0  0  0  0  0  0
  -27.4415  -32.1731   22.5379 O   0  0  0  0  0  0  0  0  0  0  0  0
  -23.2027  -33.3984   24.2848 O   0  0  0  0  0  0  0  0  0  0  0  0
  -18.6269  -18.6342   16.7020 O   0  0  0  0  0  0  0  0  0  0  0  0
  -30.4284  -17.9868   20.0231 O   0  0  0  0  0  0  0  0  0  0  0  0
  -20.0451  -28.3090   21.0478 O   0  0  0  0  0  0  0  0  0  1  0  0
  -31.1641  -23.4104   19.3548 F   0  0  0  0  0  0  0  0  0  0  0  0
  -31.6881  -19.4972   21.9658 F   0  0  0  0  0  0  0  0  0  0  0  0
  1  2  1  0  0  0  0
  1  5  2  0  0  0  0
  2  6  2  0  0  0  0
  3  9  2  0  0  0  0
  3 17  1  0  0  0  0
  4 10  1  0  0  0  0
  4 17  2  0  0  0  0
  5 19  1  0  0  0  0
  6 21  1  0  0  0  0
  7 11  2  0  0  0  0
  7 20  1  0  0  0  0
  8 14  2  0  0  0  0
  8 23  1  0  0  0  0
  9 24  1  0  0  0  0
 10 24  2  0  0  0  0
 11 25  1  0  0  0  0
 12 13  2  0  0  0  0
 12 26  1  0  0  0  0
 13 27  1  0  0  0  0
 14 30  1  0  0  0  0
 15 22  1  0  0  0  0
 15 25  2  0  0  0  0
 16 27  2  0  0  0  0
 16 28  1  0  0  0  0
 17 29  1  0  0  0  0
 18 29  1  0  0  0  0
 18 32  2  0  0  0  0
 18 33  1  0  0  0  0
 19 21  2  0  0  0  0
 19 39  1  0  0  0  0
 20 22  2  0  0  0  0
 20 40  1  0  0  0  0
 21 48  1  0  0  0  0
 22 41  1  0  0  0  0
 23 31  2  0  0  0  0
 23 59  1  0  0  0  0
 24 82  1  0  0  0  0
 25 83  1  0  0  0  0
 26 28  2  0  0  0  0
 26 82  1  0  0  0  0
 27 84  1  0  0  0  0
 28 85  1  0  0  0  0
 29 63  2  0  0  0  0
 30 64  2  0  0  0  0
 30 71  1  0  0  0  0
 31 64  1  0  0  0  0
 31 68  1  0  0  0  0
 32 65  1  0  0  0  0
 32 69  1  0  0  0  0
 33 70  1  0  0  0  0
 33 76  2  0  0  0  0
 34 49  1  0  0  0  0
 34 72  1  0  0  0  0
 34 77  2  0  0  0  0
 35 57  1  0  0  0  0
 35 58  1  0  0  0  0
 35 78  2  0  0  0  0
 36 60  1  0  0  0  0
 36 66  1  0  0  0  0
 36 79  2  0  0  0  0
 37 61  1  0  0  0  0
 37 73  1  0  0  0  0
 37 80  2  0  0  0  0
 38 67  1  0  0  0  0
 38 71  1  0  0  0  0
 38 81  2  0  0  0  0
 39 42  1  0  0  0  0
 40 49  1  0  0  0  0
 41 66  1  0  0  0  0
 42 44  1  0  0  0  0
 43 45  1  0  0  0  0
 43 46  1  0  0  0  0
 44 48  1  0  0  0  0
 45 50  1  0  0  0  0
 46 67  1  0  0  0  0
 47 50  1  0  0  0  0
 47 67  1  0  0  0  0
 48 72  1  0  0  0  0
 49 66  1  0  0  0  0
 50 65  1  0  0  0  0
 51 59  1  0  0  0  0
 52 61  1  0  0  0  0
 53 62  1  0  0  0  0
 54 62  1  0  0  0  0
 55 62  1  0  0  0  0
 56 74  1  0  0  0  0
 57 75  1  0  0  0  0
 58 83  1  0  0  0  0
 59 75  1  0  0  0  0
 60 62  1  0  0  0  0
 60 73  1  0  0  0  0
 61 74  1  0  0  0  0
 63 65  1  0  0  0  0
M  CHG  2  74   1  75   1
M  ISO  4  38 100  58 101  71 100  83 101
M  END
> <Batch ID>
0162

> <Smiles>
CNC(C)C(=O)NC(C(=O)N1Cc2cc([101O:1][101CH2:1]C(=O)CNC(C)c3ccc([100NH:0][100C:0](=O)N4CCCC(n5nc(-c6ccc(Oc7ccc(F)cc7F)cc6)c(C(N)=O)c5N)C4)nc3N)ccc2CC1C(=O)NC1CCCc2ccccc21)C(C)(C)C

> <Shape>
0.265

> <Color>
0.083

> <Negative vol penalty>
0.000

$$$$

  -OEChem-04052303563D

 84 92  0     1  0  0  0  0  0999 V2000
  -36.6940  -21.0654   35.1856 C   0  0  0  0  0  0  0  0  0  0  0  0
  -35.7006  -21.0991   34.2122 C   0  0  0  0  0  0  0  0  0  0  0  0
  -23.0000   -9.8941   19.9811 C   0  0  0  0  0  0  0  0  0  0  0  0
  -23.7251   -9.9449   22.2852 C   0  0  0  0  0  0  0  0  0  0  0  0
  -38.0293  -20.9187   34.8125 C   0  0  0  0  0  0  0  0  0  0  0  0
  -36.0422  -20.9873   32.8649 C   0  0  0  0  0  0  0  0  0  0  0  0
  -33.0082  -17.8076   30.3491 C   0  0  0  0  0  0  0  0  0  0  0  0
  -22.2332   -8.7598   20.2474 C   0  0  0  0  0  0  0  0  0  0  0  0
  -22.9582   -8.8106   22.5515 C   0  0  0  0  0  0  0  0  0  0  0  0
  -31.7500  -18.2837   29.9831 C   0  0  0  0  0  0  0  0  0  0  0  0
  -23.2018   -5.4716   22.0795 C   0  0  0  0  0  0  0  0  0  0  0  0
  -23.7890   -4.4542   22.8316 C   0  0  0  0  0  0  0  0  0  0  0  0
  -31.8144  -17.4875   21.7051 C   0  0  0  0  0  0  0  0  0  0  0  0
  -31.7610  -18.7275   22.3854 C   0  0  0  0  0  0  0  0  0  0  0  0
  -32.5610  -18.6914   27.7481 C   0  0  0  0  0  0  0  0  0  0  0  0
  -22.0651   -4.6975   24.5068 C   0  0  0  0  0  0  0  0  0  0  0  0
  -23.7460  -10.4866   21.0000 C   0  0  0  0  0  0  0  0  0  0  0  0
  -24.1320  -13.0021   20.8240 C   0  0  0  0  0  0  0  0  0  0  0  0
  -38.3865  -20.7953   33.4605 C   0  0  0  0  0  0  0  0  0  0  0  0
  -34.0570  -17.7800   29.4187 C   0  0  0  0  0  0  0  0  0  0  0  0
  -37.3837  -20.8401   32.4732 C   0  0  0  0  0  0  0  0  0  0  0  0
  -33.8309  -18.2121   28.1041 C   0  0  0  0  0  0  0  0  0  0  0  0
  -22.2123   -8.2180   21.5326 C   0  0  0  0  0  0  0  0  0  0  0  0
  -31.5270  -18.7284   28.6833 C   0  0  0  0  0  0  0  0  0  0  0  0
  -22.0462   -6.1020   22.5411 C   0  0  0  0  0  0  0  0  0  0  0  0
  -23.2207   -4.0672   24.0453 C   0  0  0  0  0  0  0  0  0  0  0  0
  -21.4779   -5.7150   23.7547 C   0  0  0  0  0  0  0  0  0  0  0  0
  -24.5388  -11.6580   20.7254 C   0  0  0  0  0  0  0  0  0  0  0  0
  -25.2419  -13.7245   20.4597 C   0  0  0  0  0  0  0  0  0  0  0  0
  -30.5961  -16.8843   21.9142 C   0  0  0  0  0  0  0  0  0  0  0  0
  -30.5137  -18.7938   22.9615 C   0  0  0  0  0  0  0  0  0  0  0  0
  -22.8641  -13.5489   21.2105 C   0  0  0  0  0  0  0  0  0  0  0  0
  -28.4173  -20.6424   25.3871 C   0  0  0  0  0  0  0  0  0  0  0  0
  -28.7389  -20.1362   26.7648 C   0  0  0  0  0  0  0  0  0  0  0  0
  -36.9114  -19.1636   29.2145 C   0  0  0  0  0  0  0  0  0  0  0  0
  -37.2191  -17.2529   26.6113 C   0  0  0  0  0  0  0  0  0  0  0  0
  -35.6985  -15.4638   24.1346 C   0  0  0  0  0  0  0  0  0  0  0  0
  -30.7217  -14.6840   20.6939 C   0  0  0  0  0  0  0  0  0  0  0  0
  -39.8476  -20.6861   33.1028 C   0  0  0  0  0  0  0  0  0  0  0  0
  -35.4011  -17.2385   29.8219 C   0  0  0  0  0  0  0  0  0  0  0  0
  -34.9180  -18.1841   27.0620 C   0  0  0  0  0  0  0  0  0  0  0  0
  -40.0908  -20.1978   31.6770 C   0  0  0  0  0  0  0  0  0  0  0  0
  -29.6028  -12.2316   18.3678 C   0  0  0  0  0  0  0  0  0  0  0  0
  -39.1938  -20.9462   30.6961 C   0  0  0  0  0  0  0  0  0  0  0  0
  -28.1521  -11.9744   18.7819 C   0  0  0  0  0  0  0  0  0  0  0  0
  -30.5033  -12.4747   19.5776 C   0  0  0  0  0  0  0  0  0  0  0  0
  -28.5882  -13.2640   20.9111 C   0  0  0  0  0  0  0  0  0  0  0  0
  -37.7122  -20.6970   31.0029 C   0  0  1  0  0  0  0  0  0  0  0  0
  -36.5368  -17.7360   28.9331 C   0  0  1  0  0  0  0  0  0  0  0  0
  -27.6305  -13.0780   19.7229 C   0  0  2  0  0  0  0  0  0  0  0  0
  -36.2126  -14.0394   22.1336 C   0  0  0  0  0  0  0  0  0  0  0  0
  -37.9177  -19.7558   25.0121 C   0  0  0  0  0  0  0  0  0  0  0  0
  -37.4857  -18.4536   22.9178 C   0  0  0  0  0  0  0  0  0  0  0  0
  -39.3078  -17.7490   24.4690 C   0  0  0  0  0  0  0  0  0  0  0  0
  -27.6710  -22.4083   24.0200 C   0  0  0  0  0  0  0  0  0  0  0  0
  -34.3412  -13.1132   25.3142 C   0  0  0  0  0  0  0  0  0  0  0  0
  -28.5670  -19.6558   24.2625 C   0  0  0  0  0  0  0  0  0  0  0  0
  -30.1418  -19.6339   26.9753 C   0  0  0  0  0  0  0  0  0  1  0  0
  -36.8978  -17.3875   25.1424 C   0  0  1  0  0  0  0  0  0  0  0  0
  -35.9263  -14.0514   23.6271 C   0  0  2  0  0  0  0  0  0  0  0  0
  -37.8821  -18.3390   24.4053 C   0  0  0  0  0  0  0  0  0  0  0  0
  -25.8080  -11.5312   20.3293 N   0  0  0  0  0  0  0  0  0  0  0  0
  -28.0195  -21.8647   25.3229 N   0  0  0  0  0  0  0  0  0  0  0  0
  -26.2083  -12.8049   20.1757 N   0  0  0  0  0  0  0  0  0  0  0  0
  -36.2166  -17.6518   27.5067 N   0  0  0  0  0  0  0  0  0  0  0  0
  -29.9486  -13.5357   20.4210 N   0  0  0  0  0  0  0  0  0  0  0  0
  -25.4757  -15.0501   20.3577 N   0  0  0  0  0  0  0  0  0  0  0  0
  -21.8321  -12.6650   21.5540 N   0  0  0  0  0  0  0  0  0  0  0  0
  -30.0776  -15.6393   21.4795 N   0  0  0  0  0  0  0  0  0  0  0  0
  -29.9049  -19.7670   23.7411 N   0  0  0  0  0  0  0  0  0  0  0  0
  -37.3077  -19.3948   30.5180 N   0  0  0  0  0  0  0  0  0  0  0  0
  -36.8635  -16.0311   24.6061 N   0  0  0  0  0  0  0  0  0  0  0  0
  -34.7234  -13.2092   23.8819 N   0  3  0  0  0  0  0  0  0  0  0  0
  -22.6477  -14.7842   21.2343 O   0  0  0  0  0  0  0  0  0  0  0  0
  -27.8565  -20.1811   27.6077 O   0  0  0  0  0  0  0  0  0  0  0  0
  -36.8471  -19.9936   28.3153 O   0  0  0  0  0  0  0  0  0  0  0  0
  -38.3162  -16.8035   26.9517 O   0  0  0  0  0  0  0  0  0  0  0  0
  -34.5981  -16.0106   24.1114 O   0  0  0  0  0  0  0  0  0  0  0  0
  -31.8604  -14.8227   20.2399 O   0  0  0  0  0  0  0  0  0  0  0  0
  -29.7974  -17.6741   22.6790 O   0  0  0  0  0  0  0  0  0  0  0  0
  -21.4639   -7.1113   21.7928 O   0  0  0  0  0  0  0  0  0  0  0  0
  -30.2999  -19.1942   28.3236 O   0  0  0  0  0  0  0  0  0  1  0  0
  -23.7839   -3.0891   24.7666 F   0  0  0  0  0  0  0  0  0  0  0  0
  -20.3672   -6.3161   24.2027 F   0  0  0  0  0  0  0  0  0  0  0  0
  1  2  1  0  0  0  0
  1  5  2  0  0  0  0
  2  6  2  0  0  0  0
  3  8  2  0  0  0  0
  3 17  1  0  0  0  0
  4  9  1  0  0  0  0
  4 17  2  0  0  0  0
  5 19  1  0  0  0  0
  6 21  1  0  0  0  0
  7 10  2  0  0  0  0
  7 20  1  0  0  0  0
  8 23  1  0  0  0  0
  9 23  2  0  0  0  0
 10 24  1  0  0  0  0
 11 12  2  0  0  0  0
 11 25  1  0  0  0  0
 12 26  1  0  0  0  0
 13 14  1  0  0  0  0
 13 30  2  0  0  0  0
 14 31  2  0  0  0  0
 15 22  1  0  0  0  0
 15 24  2  0  0  0  0
 16 26  2  0  0  0  0
 16 27  1  0  0  0  0
 17 28  1  0  0  0  0
 18 28  1  0  0  0  0
 18 29  2  0  0  0  0
 18 32  1  0  0  0  0
 19 21  2  0  0  0  0
 19 39  1  0  0  0  0
 20 22  2  0  0  0  0
 20 40  1  0  0  0  0
 21 48  1  0  0  0  0
 22 41  1  0  0  0  0
 23 81  1  0  0  0  0
 24 82  1  0  0  0  0
 25 27  2  0  0  0  0
 25 81  1  0  0  0  0
 26 83  1  0  0  0  0
 27 84  1  0  0  0  0
 28 62  2  0  0  0  0
 29 64  1  0  0  0  0
 29 67  1  0  0  0  0
 30 69  1  0  0  0  0
 30 80  1  0  0  0  0
 31 70  1  0  0  0  0
 31 80  1  0  0  0  0
 32 68  1  0  0  0  0
 32 74  2  0  0  0  0
 33 34  1  0  0  0  0
 33 57  1  0  0  0  0
 33 63  2  0  0  0  0
 34 58  1  0  0  0  0
 34 75  2  0  0  0  0
 35 49  1  0  0  0  0
 35 71  1  0  0  0  0
 35 76  2  0  0  0  0
 36 59  1  0  0  0  0
 36 65  1  0  0  0  0
 36 77  2  0  0  0  0
 37 60  1  0  0  0  0
 37 72  1  0  0  0  0
 37 78  2  0  0  0  0
 38 66  1  0  0  0  0
 38 69  1  0  0  0  0
 38 79  2  0  0  0  0
 39 42  1  0  0  0  0
 40 49  1  0  0  0  0
 41 65  1  0  0  0  0
 42 44  1  0  0  0  0
 43 45  1  0  0  0  0
 43 46  1  0  0  0  0
 44 48  1  0  0  0  0
 45 50  1  0  0  0  0
 46 66  1  0  0  0  0
 47 50  1  0  0  0  0
 47 66  1  0  0  0  0
 48 71  1  0  0  0  0
 49 65  1  0  0  0  0
 50 64  1  0  0  0  0
 51 60  1  0  0  0  0
 52 61  1  0  0  0  0
 53 61  1  0  0  0  0
 54 61  1  0  0  0  0
 55 63  1  0  0  0  0
 56 73  1  0  0  0  0
 57 70  1  0  0  0  0
 58 82  1  0  0  0  0
 59 61  1  0  0  0  0
 59 72  1  0  0  0  0
 60 73  1  0  0  0  0
 62 64  1  0  0  0  0
M  CHG  1  73   1
M  ISO  4  38 100  58 101  69 100  82 101
M  END
> <Batch ID>
0162

> <Smiles>
CN=C(CNc1ccc([100NH:0][100C:0](=O)N2CCCC(n3nc(-c4ccc(Oc5ccc(F)cc5F)cc4)c(C(N)=O)c3N)C2)o1)C(=O)[101CH2:1][101O:1]c1ccc2c(c1)CN(C(=O)C(NC(=O)C(C)NC)C(C)(C)C)C(C(=O)NC1CCCc3ccccc31)C2

> <Shape>
0.175

> <Color>
0.190

> <Negative vol penalty>
0.000

$$$$

  -OEChem-04052303563D

 84 92  0     1  0  0  0  0  0999 V2000
  -16.6271  -29.6302   23.2255 C   0  0  0  0  0  0  0  0  0  0  0  0
  -17.3821  -29.5874   22.0578 C   0  0  0  0  0  0  0  0  0  0  0  0
  -26.3793  -12.8025   20.3641 C   0  0  0  0  0  0  0  0  0  0  0  0
  -26.9674  -12.1571   18.1114 C   0  0  0  0  0  0  0  0  0  0  0  0
  -17.2532  -29.8519   24.4513 C   0  0  0  0  0  0  0  0  0  0  0  0
  -18.7637  -29.7674   22.1152 C   0  0  0  0  0  0  0  0  0  0  0  0
  -24.8061  -27.6666   18.8913 C   0  0  0  0  0  0  0  0  0  0  0  0
  -25.2311  -12.0139   20.2903 C   0  0  0  0  0  0  0  0  0  0  0  0
  -25.8192  -11.3684   18.0376 C   0  0  0  0  0  0  0  0  0  0  0  0
  -25.9515  -28.1969   18.2994 C   0  0  0  0  0  0  0  0  0  0  0  0
  -24.4400   -8.7362   20.5424 C   0  0  0  0  0  0  0  0  0  0  0  0
  -24.1430   -7.9199   21.6338 C   0  0  0  0  0  0  0  0  0  0  0  0
  -26.9346  -28.4940   20.4822 C   0  0  0  0  0  0  0  0  0  0  0  0
  -22.0358   -9.0671   21.9183 C   0  0  0  0  0  0  0  0  0  0  0  0
  -27.2474  -12.8741   19.2746 C   0  0  0  0  0  0  0  0  0  0  0  0
  -29.7090  -13.2944   19.7959 C   0  0  0  0  0  0  0  0  0  0  0  0
  -18.6444  -30.0251   24.5249 C   0  0  0  0  0  0  0  0  0  0  0  0
  -24.7117  -27.5559   20.2861 C   0  0  0  0  0  0  0  0  0  0  0  0
  -19.4089  -29.9930   23.3430 C   0  0  0  0  0  0  0  0  0  0  0  0
  -25.7879  -27.9595   21.0892 C   0  0  0  0  0  0  0  0  0  0  0  0
  -24.9511  -11.2969   19.1271 C   0  0  0  0  0  0  0  0  0  0  0  0
  -27.0149  -28.6134   19.0950 C   0  0  0  0  0  0  0  0  0  0  0  0
  -23.5349   -9.7180   20.1391 C   0  0  0  0  0  0  0  0  0  0  0  0
  -22.9409   -8.0853   22.3217 C   0  0  0  0  0  0  0  0  0  0  0  0
  -22.3329   -9.8834   20.8270 C   0  0  0  0  0  0  0  0  0  0  0  0
  -28.4333  -13.6890   19.3500 C   0  0  0  0  0  0  0  0  0  0  0  0
  -30.4035  -24.7613   20.9960 C   0  0  0  0  0  0  0  0  0  0  0  0
  -29.9847  -23.8192   20.0896 C   0  0  0  0  0  0  0  0  0  0  0  0
  -30.4804  -14.4240   19.6727 C   0  0  0  0  0  0  0  0  0  0  0  0
  -30.3230  -25.6914   19.1115 C   0  0  0  0  0  0  0  0  0  0  0  0
  -29.6504  -22.4627   20.2976 C   0  0  0  0  0  0  0  0  0  0  0  0
  -29.2550  -21.5546   19.3441 C   0  0  0  0  0  0  0  0  0  0  0  0
  -30.1566  -12.0205   20.2782 C   0  0  0  0  0  0  0  0  0  0  0  0
  -30.6065  -24.5889   22.4029 C   0  0  0  0  0  0  0  0  0  0  0  0
  -28.9477  -20.1600   19.7202 C   0  0  0  0  0  0  0  0  0  0  0  0
  -22.7983  -28.7808   22.5091 C   0  0  0  0  0  0  0  0  0  0  0  0
  -24.4363  -26.7791   24.4668 C   0  0  0  0  0  0  0  0  0  0  0  0
  -27.2862  -24.9986   25.0623 C   0  0  0  0  0  0  0  0  0  0  0  0
  -19.2706  -30.3092   25.8672 C   0  0  0  0  0  0  0  0  0  0  0  0
  -23.4800  -26.9569   20.9077 C   0  0  0  0  0  0  0  0  0  0  0  0
  -25.7446  -27.8431   22.5902 C   0  0  0  0  0  0  0  0  0  0  0  0
  -20.7848  -30.1171   25.8858 C   0  0  0  0  0  0  0  0  0  0  0  0
  -30.8808  -18.4377   17.1262 C   0  0  0  0  0  0  0  0  0  0  0  0
  -21.4225  -30.7844   24.6714 C   0  0  0  0  0  0  0  0  0  0  0  0
  -30.5412  -16.9802   17.4260 C   0  0  0  0  0  0  0  0  0  0  0  0
  -29.7047  -19.3697   17.4140 C   0  0  0  0  0  0  0  0  0  0  0  0
  -28.8242  -17.7788   19.0976 C   0  0  0  0  0  0  0  0  0  0  0  0
  -20.9128  -30.1591   23.3673 C   0  0  1  0  0  0  0  0  0  0  0  0
  -23.2860  -27.3670   22.3643 C   0  0  1  0  0  0  0  0  0  0  0  0
  -30.0086  -16.8292   18.8598 C   0  0  1  0  0  0  0  0  0  0  0  0
  -31.0753  -25.7782   23.2096 C   0  0  0  0  0  0  0  0  0  0  0  0
  -28.8318  -23.3973   26.2218 C   0  0  0  0  0  0  0  0  0  0  0  0
  -25.0192  -29.1925   26.2403 C   0  0  0  0  0  0  0  0  0  0  0  0
  -26.8173  -27.8524   27.3536 C   0  0  0  0  0  0  0  0  0  0  0  0
  -24.4424  -27.1000   27.4826 C   0  0  0  0  0  0  0  0  0  0  0  0
  -26.2356  -22.6944   23.5308 C   0  0  0  0  0  0  0  0  0  0  0  0
  -29.9847  -28.7429   17.0426 C   0  0  0  0  0  0  0  0  0  0  0  0
  -30.7483  -27.9200   18.0732 C   0  0  0  0  0  0  0  0  0  0  0  0
  -28.4728  -28.6597   17.2166 C   0  0  0  0  0  0  0  0  0  1  0  0
  -25.6933  -26.8860   25.2959 C   0  0  1  0  0  0  0  0  0  0  0  0
  -27.5030  -23.5615   25.5007 C   0  0  2  0  0  0  0  0  0  0  0  0
  -25.4934  -27.7619   26.5650 C   0  0  0  0  0  0  0  0  0  0  0  0
  -28.3925  -14.9694   18.9720 N   0  0  0  0  0  0  0  0  0  0  0  0
  -30.6190  -25.9588   20.3633 N   0  0  0  0  0  0  0  0  0  0  0  0
  -29.6521  -15.3891   19.1801 N   0  0  0  0  0  0  0  0  0  0  0  0
  -29.1755  -19.1654   18.7708 N   0  0  0  0  0  0  0  0  0  0  0  0
  -24.5160  -27.2569   23.1511 N   0  0  0  0  0  0  0  0  0  0  0  0
  -31.7796  -14.6761   19.9389 N   0  0  0  0  0  0  0  0  0  0  0  0
  -29.2337  -10.9675   20.3398 N   0  0  0  0  0  0  0  0  0  0  0  0
  -30.3572  -26.5325   18.0102 N   0  0  0  0  0  0  0  0  0  0  0  0
  -21.5665  -28.8907   23.1257 N   0  0  0  0  0  0  0  0  0  0  0  0
  -26.1161  -25.5179   25.5747 N   0  0  0  0  0  0  0  0  0  0  0  0
  -27.4938  -22.6527   24.3196 N   0  3  0  0  0  0  0  0  0  0  0  0
  -31.3359  -11.8264   20.6592 O   0  0  0  0  0  0  0  0  0  0  0  0
  -30.4356  -23.5320   23.0400 O   0  0  0  0  0  0  0  0  0  0  0  0
  -28.5027  -19.9612   20.8521 O   0  0  0  0  0  0  0  0  0  0  0  0
  -23.4891  -29.7038   22.0938 O   0  0  0  0  0  0  0  0  0  0  0  0
  -23.4230  -26.2831   24.9658 O   0  0  0  0  0  0  0  0  0  0  0  0
  -28.0777  -25.6016   24.3409 O   0  0  0  0  0  0  0  0  0  0  0  0
  -29.9291  -24.4121   18.8644 O   0  0  0  0  0  0  0  0  0  0  0  0
  -23.8309  -10.5271   19.0549 O   0  0  0  0  0  0  0  0  0  0  0  0
  -28.1339  -29.1320   18.5198 O   0  0  0  0  0  0  0  0  0  1  0  0
  -22.6551   -7.3004   23.3688 F   0  0  0  0  0  0  0  0  0  0  0  0
  -21.4589  -10.8241   20.4434 F   0  0  0  0  0  0  0  0  0  0  0  0
  1  2  1  0  0  0  0
  1  5  2  0  0  0  0
  2  6  2  0  0  0  0
  3  8  2  0  0  0  0
  3 15  1  0  0  0  0
  4  9  1  0  0  0  0
  4 15  2  0  0  0  0
  5 17  1  0  0  0  0
  6 19  1  0  0  0  0
  7 10  2  0  0  0  0
  7 18  1  0  0  0  0
  8 21  1  0  0  0  0
  9 21  2  0  0  0  0
 10 22  1  0  0  0  0
 11 12  2  0  0  0  0
 11 23  1  0  0  0  0
 12 24  1  0  0  0  0
 13 20  1  0  0  0  0
 13 22  2  0  0  0  0
 14 24  2  0  0  0  0
 14 25  1  0  0  0  0
 15 26  1  0  0  0  0
 16 26  1  0  0  0  0
 16 29  2  0  0  0  0
 16 33  1  0  0  0  0
 17 19  2  0  0  0  0
 17 39  1  0  0  0  0
 18 20  2  0  0  0  0
 18 40  1  0  0  0  0
 19 48  1  0  0  0  0
 20 41  1  0  0  0  0
 21 81  1  0  0  0  0
 22 82  1  0  0  0  0
 23 25  2  0  0  0  0
 23 81  1  0  0  0  0
 24 83  1  0  0  0  0
 25 84  1  0  0  0  0
 26 63  2  0  0  0  0
 27 28  2  0  0  0  0
 27 34  1  0  0  0  0
 27 64  1  0  0  0  0
 28 31  1  0  0  0  0
 28 80  1  0  0  0  0
 29 65  1  0  0  0  0
 29 68  1  0  0  0  0
 30 64  2  0  0  0  0
 30 70  1  0  0  0  0
 30 80  1  0  0  0  0
 31 32  2  0  0  0  0
 32 35  1  0  0  0  0
 33 69  1  0  0  0  0
 33 74  2  0  0  0  0
 34 51  1  0  0  0  0
 34 75  2  0  0  0  0
 35 66  1  0  0  0  0
 35 76  2  0  0  0  0
 36 49  1  0  0  0  0
 36 71  1  0  0  0  0
 36 77  2  0  0  0  0
 37 60  1  0  0  0  0
 37 67  1  0  0  0  0
 37 78  2  0  0  0  0
 38 61  1  0  0  0  0
 38 72  1  0  0  0  0
 38 79  2  0  0  0  0
 39 42  1  0  0  0  0
 40 49  1  0  0  0  0
 41 67  1  0  0  0  0
 42 44  1  0  0  0  0
 43 45  1  0  0  0  0
 43 46  1  0  0  0  0
 44 48  1  0  0  0  0
 45 50  1  0  0  0  0
 46 66  1  0  0  0  0
 47 50  1  0  0  0  0
 47 66  1  0  0  0  0
 48 71  1  0  0  0  0
 49 67  1  0  0  0  0
 50 65  1  0  0  0  0
 52 61  1  0  0  0  0
 53 62  1  0  0  0  0
 54 62  1  0  0  0  0
 55 62  1  0  0  0  0
 56 73  1  0  0  0  0
 57 58  1  0  0  0  0
 57 59  1  0  0  0  0
 58 70  1  0  0  0  0
 59 82  1  0  0  0  0
 60 62  1  0  0  0  0
 60 72  1  0  0  0  0
 61 73  1  0  0  0  0
 63 65  1  0  0  0  0
M  CHG  1  73   1
M  ISO  4  32 100  35 100  59 101  82 101
M  END
> <Batch ID>
0162

> <Smiles>
CNC(C)C(=O)NC(C(=O)N1Cc2cc([101O:1][101CH2:1]CCNc3nc(C(C)=O)c(C=[100CH:0][100C:0](=O)N4CCCC(n5nc(-c6ccc(Oc7ccc(F)cc7F)cc6)c(C(N)=O)c5N)C4)o3)ccc2CC1C(=O)NC1CCCc2ccccc21)C(C)(C)C

> <Shape>
0.264

> <Color>
0.089

> <Negative vol penalty>
0.000

$$$$

  -OEChem-04052303563D

 89 99  0     1  0  0  0  0  0999 V2000
  -24.8689  -32.2852   26.6863 C   0  0  0  0  0  0  0  0  0  0  0  0
  -25.9002  -31.4934   26.1913 C   0  0  0  0  0  0  0  0  0  0  0  0
  -24.4926  -11.2116   23.7192 C   0  0  0  0  0  0  0  0  0  0  0  0
  -23.2575  -13.2793   23.5291 C   0  0  0  0  0  0  0  0  0  0  0  0
  -23.5484  -32.0072   26.3356 C   0  0  0  0  0  0  0  0  0  0  0  0
  -25.6115  -30.4225   25.3462 C   0  0  0  0  0  0  0  0  0  0  0  0
  -29.0102  -28.4039   20.6687 C   0  0  0  0  0  0  0  0  0  0  0  0
  -23.8700  -10.9518   24.9400 C   0  0  0  0  0  0  0  0  0  0  0  0
  -22.6348  -13.0195   24.7500 C   0  0  0  0  0  0  0  0  0  0  0  0
  -29.9202  -27.3537   20.5550 C   0  0  0  0  0  0  0  0  0  0  0  0
  -20.8823   -9.7895   26.0150 C   0  0  0  0  0  0  0  0  0  0  0  0
  -20.3961   -8.5005   26.2334 C   0  0  0  0  0  0  0  0  0  0  0  0
  -27.6818  -22.1217   20.8501 C   0  0  0  0  0  0  0  0  0  0  0  0
  -28.1769  -25.9483   19.6577 C   0  0  0  0  0  0  0  0  0  0  0  0
  -29.0340  -20.1501   20.5262 C   0  0  0  0  0  0  0  0  0  0  0  0
  -21.8493   -8.2774   28.1507 C   0  0  0  0  0  0  0  0  0  0  0  0
  -24.1864  -12.3753   23.0137 C   0  0  0  0  0  0  0  0  0  0  0  0
  -24.3854  -12.2616   20.4730 C   0  0  0  0  0  0  0  0  0  0  0  0
  -23.2442  -30.9383   25.4780 C   0  0  0  0  0  0  0  0  0  0  0  0
  -27.6720  -28.2305   20.2873 C   0  0  0  0  0  0  0  0  0  0  0  0
  -24.2856  -30.1292   24.9848 C   0  0  0  0  0  0  0  0  0  0  0  0
  -26.5129  -21.3730   20.6457 C   0  0  0  0  0  0  0  0  0  0  0  0
  -27.2526  -26.9986   19.7651 C   0  0  0  0  0  0  0  0  0  0  0  0
  -26.6142  -19.9998   20.3551 C   0  0  0  0  0  0  0  0  0  0  0  0
  -28.9348  -21.5124   20.7933 C   0  0  0  0  0  0  0  0  0  0  0  0
  -27.8804  -19.3968   20.3109 C   0  0  0  0  0  0  0  0  0  0  0  0
  -22.9410  -11.8558   25.4554 C   0  0  0  0  0  0  0  0  0  0  0  0
  -29.5029  -26.1249   20.0521 C   0  0  0  0  0  0  0  0  0  0  0  0
  -21.8520  -10.3224   26.8643 C   0  0  0  0  0  0  0  0  0  0  0  0
  -20.8796   -7.7444   27.3013 C   0  0  0  0  0  0  0  0  0  0  0  0
  -22.3355   -9.5664   27.9321 C   0  0  0  0  0  0  0  0  0  0  0  0
  -24.8296  -12.6444   21.7528 C   0  0  0  0  0  0  0  0  0  0  0  0
  -25.3397  -12.7540   19.6167 C   0  0  0  0  0  0  0  0  0  0  0  0
  -23.2146  -11.5268   20.0923 C   0  0  0  0  0  0  0  0  0  0  0  0
  -31.4212  -21.8369   20.9858 C   0  0  0  0  0  0  0  0  0  0  0  0
  -24.8752  -28.3658   21.7917 C   0  0  0  0  0  0  0  0  0  0  0  0
  -23.6873  -27.9883   18.7970 C   0  0  0  0  0  0  0  0  0  0  0  0
  -24.1732  -26.8810   15.6056 C   0  0  0  0  0  0  0  0  0  0  0  0
  -29.2170  -17.2848   19.9956 C   0  0  0  0  0  0  0  0  0  0  0  0
  -21.7977  -30.6478   25.1650 C   0  0  0  0  0  0  0  0  0  0  0  0
  -26.7091  -29.3814   20.3912 C   0  0  0  0  0  0  0  0  0  0  0  0
  -25.1781  -22.0745   20.6823 C   0  0  0  0  0  0  0  0  0  0  0  0
  -25.3885  -19.1448   20.1504 C   0  0  0  0  0  0  0  0  0  0  0  0
  -25.8316  -26.7674   19.3226 C   0  0  0  0  0  0  0  0  0  0  0  0
  -21.6079  -29.7239   23.9647 C   0  0  0  0  0  0  0  0  0  0  0  0
  -23.9970  -21.1165   20.8255 C   0  0  0  0  0  0  0  0  0  0  0  0
  -24.1306  -19.9566   19.8472 C   0  0  0  0  0  0  0  0  0  0  0  0
  -29.9966  -13.8563   19.4343 C   0  0  0  0  0  0  0  0  0  0  0  0
  -22.5480  -28.5263   24.0589 C   0  0  0  0  0  0  0  0  0  0  0  0
  -33.9095  -22.7167   21.0736 C   0  0  0  0  0  0  0  0  0  0  0  0
  -34.0394  -24.1611   20.5536 C   0  0  0  0  0  0  0  0  0  0  0  0
  -28.7175  -13.1221   19.8429 C   0  0  0  0  0  0  0  0  0  0  0  0
  -30.2714  -15.0602   20.3337 C   0  0  0  0  0  0  0  0  0  0  0  0
  -27.8766  -15.2720   20.8716 C   0  0  0  0  0  0  0  0  0  0  0  0
  -24.0146  -28.9739   24.0457 C   0  0  1  0  0  0  0  0  0  0  0  0
  -32.3942  -22.9861   21.2661 C   0  0  1  0  0  0  0  0  0  0  0  0
  -25.2511  -28.9367   20.4536 C   0  0  1  0  0  0  0  0  0  0  0  0
  -32.5425  -24.0831   20.1669 C   0  0  1  0  0  0  0  0  0  0  0  0
  -27.5231  -14.0900   19.9542 C   0  0  2  0  0  0  0  0  0  0  0  0
  -23.0071  -26.6745   13.3932 C   0  0  0  0  0  0  0  0  0  0  0  0
  -22.0806  -25.6254   19.8671 C   0  0  0  0  0  0  0  0  0  0  0  0
  -21.7048  -24.8989   17.5009 C   0  0  0  0  0  0  0  0  0  0  0  0
  -20.8331  -27.1022   18.2806 C   0  0  0  0  0  0  0  0  0  0  0  0
  -26.1681  -28.6056   14.2620 C   0  0  0  0  0  0  0  0  0  0  0  0
  -31.7303  -25.3493   20.3577 C   0  0  0  0  0  0  0  0  0  1  0  0
  -23.3198  -26.8056   17.9338 C   0  0  1  0  0  0  0  0  0  0  0  0
  -23.9110  -27.5358   14.2614 C   0  0  2  0  0  0  0  0  0  0  0  0
  -22.0110  -26.1114   18.4057 C   0  0  0  0  0  0  0  0  0  0  0  0
  -25.9771  -13.3272   21.7174 N   0  0  0  0  0  0  0  0  0  0  0  0
  -26.2619  -13.3772   20.4050 N   0  0  0  0  0  0  0  0  0  0  0  0
  -24.9263  -27.9214   19.4498 N   0  0  0  0  0  0  0  0  0  0  0  0
  -29.0979  -15.9347   20.3876 N   0  0  0  0  0  0  0  0  0  0  0  0
  -25.4717  -12.7102   18.2740 N   0  0  0  0  0  0  0  0  0  0  0  0
  -22.3396  -11.0957   21.0987 N   0  0  0  0  0  0  0  0  0  0  0  0
  -30.1046  -22.2794   21.0070 N   0  0  0  0  0  0  0  0  0  0  0  0
  -28.0278  -18.0104   20.0579 N   0  0  0  0  0  0  0  0  0  0  0  0
  -24.4292  -29.3071   22.6998 N   0  0  0  0  0  0  0  0  0  0  0  0
  -23.2728  -27.3002   16.5621 N   0  0  0  0  0  0  0  0  0  0  0  0
  -25.1927  -27.7546   13.5331 N   0  3  0  0  0  0  0  0  0  0  0  0
  -22.9606  -11.2461   18.8964 O   0  0  0  0  0  0  0  0  0  0  0  0
  -31.8344  -20.7011   20.7760 O   0  0  0  0  0  0  0  0  0  0  0  0
  -24.9806  -27.1604   21.9855 O   0  0  0  0  0  0  0  0  0  0  0  0
  -22.9070  -28.9398   18.8830 O   0  0  0  0  0  0  0  0  0  0  0  0
  -25.0832  -26.0753   15.7880 O   0  0  0  0  0  0  0  0  0  0  0  0
  -30.2887  -17.7551   19.6055 O   0  0  0  0  0  0  0  0  0  0  0  0
  -22.3331  -11.6026   26.6466 O   0  0  0  0  0  0  0  0  0  0  0  0
  -30.3889  -25.0980   19.9407 O   0  0  0  0  0  0  0  0  0  1  0  0
  -20.4115   -6.5072   27.5119 F   0  0  0  0  0  0  0  0  0  0  0  0
  -23.2662  -10.0734   28.7522 F   0  0  0  0  0  0  0  0  0  0  0  0
  1  2  1  0  0  0  0
  1  5  2  0  0  0  0
  2  6  2  0  0  0  0
  3  8  2  0  0  0  0
  3 17  1  0  0  0  0
  4  9  1  0  0  0  0
  4 17  2  0  0  0  0
  5 19  1  0  0  0  0
  6 21  1  0  0  0  0
  7 10  2  0  0  0  0
  7 20  1  0  0  0  0
  8 27  1  0  0  0  0
  9 27  2  0  0  0  0
 10 28  1  0  0  0  0
 11 12  2  0  0  0  0
 11 29  1  0  0  0  0
 12 30  1  0  0  0  0
 13 22  2  0  0  0  0
 13 25  1  0  0  0  0
 14 23  1  0  0  0  0
 14 28  2  0  0  0  0
 15 25  2  0  0  0  0
 15 26  1  0  0  0  0
 16 30  2  0  0  0  0
 16 31  1  0  0  0  0
 17 32  1  0  0  0  0
 18 32  1  0  0  0  0
 18 33  2  0  0  0  0
 18 34  1  0  0  0  0
 19 21  2  0  0  0  0
 19 40  1  0  0  0  0
 20 23  2  0  0  0  0
 20 41  1  0  0  0  0
 21 55  1  0  0  0  0
 22 24  1  0  0  0  0
 22 42  1  0  0  0  0
 23 44  1  0  0  0  0
 24 26  2  0  0  0  0
 24 43  1  0  0  0  0
 25 75  1  0  0  0  0
 26 76  1  0  0  0  0
 27 86  1  0  0  0  0
 28 87  1  0  0  0  0
 29 31  2  0  0  0  0
 29 86  1  0  0  0  0
 30 88  1  0  0  0  0
 31 89  1  0  0  0  0
 32 69  2  0  0  0  0
 33 70  1  0  0  0  0
 33 73  1  0  0  0  0
 34 74  1  0  0  0  0
 34 80  2  0  0  0  0
 35 56  1  0  0  0  0
 35 75  1  0  0  0  0
 35 81  2  0  0  0  0
 36 57  1  0  0  0  0
 36 77  1  0  0  0  0
 36 82  2  0  0  0  0
 37 66  1  0  0  0  0
 37 71  1  0  0  0  0
 37 83  2  0  0  0  0
 38 67  1  0  0  0  0
 38 78  1  0  0  0  0
 38 84  2  0  0  0  0
 39 72  1  0  0  0  0
 39 76  1  0  0  0  0
 39 85  2  0  0  0  0
 40 45  1  0  0  0  0
 41 57  1  0  0  0  0
 42 46  1  0  0  0  0
 43 47  1  0  0  0  0
 44 71  1  0  0  0  0
 45 49  1  0  0  0  0
 46 47  1  0  0  0  0
 48 52  1  0  0  0  0
 48 53  1  0  0  0  0
 49 55  1  0  0  0  0
 50 51  1  0  0  0  0
 50 56  1  0  0  0  0
 51 58  1  0  0  0  0
 52 59  1  0  0  0  0
 53 72  1  0  0  0  0
 54 59  1  0  0  0  0
 54 72  1  0  0  0  0
 55 77  1  0  0  0  0
 56 58  1  0  0  0  0
 57 71  1  0  0  0  0
 58 65  1  0  0  0  0
 59 70  1  0  0  0  0
 60 67  1  0  0  0  0
 61 68  1  0  0  0  0
 62 68  1  0  0  0  0
 63 68  1  0  0  0  0
 64 79  1  0  0  0  0
 65 87  1  0  0  0  0
 66 68  1  0  0  0  0
 66 78  1  0  0  0  0
 67 79  1  0  0  0  0
 69 70  1  0  0  0  0
M  CHG  1  79   1
M  ISO  4  39 100  65 101  76 100  87 101
M  END
> <Batch ID>
0162

> <Smiles>
CNC(C)C(=O)NC(C(=O)N1Cc2cc([101O:1][101CH2:1]C3CCC3C(=O)Nc3cc4c(c([100NH:0][100C:0](=O)N5CCCC(n6nc(-c7ccc(Oc8ccc(F)cc8F)cc7)c(C(N)=O)c6N)C5)c3)CCCC4)ccc2CC1C(=O)NC1CCCc2ccccc21)C(C)(C)C

> <Shape>
0.224

> <Color>
0.062

> <Negative vol penalty>
0.000

$$$$

  -OEChem-04052303563D

 84 92  0     1  0  0  0  0  0999 V2000
  -17.8430  -32.5715   24.9361 C   0  0  0  0  0  0  0  0  0  0  0  0
  -19.2133  -32.6652   25.1569 C   0  0  0  0  0  0  0  0  0  0  0  0
  -26.3967  -12.9193   21.3381 C   0  0  0  0  0  0  0  0  0  0  0  0
  -27.8241  -12.0675   19.5848 C   0  0  0  0  0  0  0  0  0  0  0  0
  -17.3156  -31.4480   24.3009 C   0  0  0  0  0  0  0  0  0  0  0  0
  -20.0570  -31.6347   24.7436 C   0  0  0  0  0  0  0  0  0  0  0  0
  -25.7750  -32.1859   22.6207 C   0  0  0  0  0  0  0  0  0  0  0  0
  -25.3565  -12.1075   20.8858 C   0  0  0  0  0  0  0  0  0  0  0  0
  -26.7839  -11.2556   19.1325 C   0  0  0  0  0  0  0  0  0  0  0  0
  -27.0202  -32.0319   23.2287 C   0  0  0  0  0  0  0  0  0  0  0  0
  -24.4545   -8.8567   21.1134 C   0  0  0  0  0  0  0  0  0  0  0  0
  -23.7256   -8.1458   22.0667 C   0  0  0  0  0  0  0  0  0  0  0  0
  -30.9100  -24.2411   20.4129 C   0  0  0  0  0  0  0  0  0  0  0  0
  -29.6368  -24.9129   22.3531 C   0  0  0  0  0  0  0  0  0  0  0  0
  -27.1305  -29.7639   22.4144 C   0  0  0  0  0  0  0  0  0  0  0  0
  -30.8974  -26.5551   21.1075 C   0  0  0  0  0  0  0  0  0  0  0  0
  -21.7087   -9.2784   21.3692 C   0  0  0  0  0  0  0  0  0  0  0  0
  -27.6304  -12.8994   20.6876 C   0  0  0  0  0  0  0  0  0  0  0  0
  -30.0655  -23.9177   21.4748 C   0  0  0  0  0  0  0  0  0  0  0  0
  -29.6850  -13.4113   22.1104 C   0  0  0  0  0  0  0  0  0  0  0  0
  -18.1543  -30.4076   23.8710 C   0  0  0  0  0  0  0  0  0  0  0  0
  -25.1923  -31.1247   21.9131 C   0  0  0  0  0  0  0  0  0  0  0  0
  -19.5402  -30.4956   24.1033 C   0  0  0  0  0  0  0  0  0  0  0  0
  -25.8790  -29.9078   21.7963 C   0  0  0  0  0  0  0  0  0  0  0  0
  -31.3260  -25.5598   20.2292 C   0  0  0  0  0  0  0  0  0  0  0  0
  -30.0528  -26.2317   22.1695 C   0  0  0  0  0  0  0  0  0  0  0  0
  -25.5502  -11.2756   19.7830 C   0  0  0  0  0  0  0  0  0  0  0  0
  -27.6968  -30.8199   23.1280 C   0  0  0  0  0  0  0  0  0  0  0  0
  -23.8106   -9.7786   20.2880 C   0  0  0  0  0  0  0  0  0  0  0  0
  -22.3527   -8.3565   22.1946 C   0  0  0  0  0  0  0  0  0  0  0  0
  -22.4377   -9.9894   20.4159 C   0  0  0  0  0  0  0  0  0  0  0  0
  -28.7051  -13.7382   21.1540 C   0  0  0  0  0  0  0  0  0  0  0  0
  -30.4672  -14.5368   22.1992 C   0  0  0  0  0  0  0  0  0  0  0  0
  -29.6317  -22.5426   21.6663 C   0  0  0  0  0  0  0  0  0  0  0  0
  -29.6434  -21.5788   20.7210 C   0  0  0  0  0  0  0  0  0  0  0  0
  -29.8716  -12.1985   22.8521 C   0  0  0  0  0  0  0  0  0  0  0  0
  -29.1785  -20.2225   21.0744 C   0  0  0  0  0  0  0  0  0  0  0  0
  -22.5326  -29.4125   22.2258 C   0  0  0  0  0  0  0  0  0  0  0  0
  -23.4811  -28.1430   19.3954 C   0  0  0  0  0  0  0  0  0  0  0  0
  -26.0338  -27.4682   17.2331 C   0  0  0  0  0  0  0  0  0  0  0  0
  -29.9264  -28.5974   23.0217 C   0  0  0  0  0  0  0  0  0  0  0  0
  -17.5328  -29.1915   23.2312 C   0  0  0  0  0  0  0  0  0  0  0  0
  -23.8606  -31.3155   21.2404 C   0  0  0  0  0  0  0  0  0  0  0  0
  -25.3059  -28.7442   21.0306 C   0  0  0  0  0  0  0  0  0  0  0  0
  -18.5369  -28.3137   22.4885 C   0  0  0  0  0  0  0  0  0  0  0  0
  -31.9493  -18.2893   19.6541 C   0  0  0  0  0  0  0  0  0  0  0  0
  -19.7803  -28.0855   23.3421 C   0  0  0  0  0  0  0  0  0  0  0  0
  -31.4841  -16.8622   19.9312 C   0  0  0  0  0  0  0  0  0  0  0  0
  -30.7786  -19.2242   19.3541 C   0  0  0  0  0  0  0  0  0  0  0  0
  -29.2597  -17.7901   20.6871 C   0  0  0  0  0  0  0  0  0  0  0  0
  -20.4906  -29.4098   23.6474 C   0  0  1  0  0  0  0  0  0  0  0  0
  -23.1294  -30.0023   20.9793 C   0  0  1  0  0  0  0  0  0  0  0  0
  -30.4175  -16.8425   21.0377 C   0  0  1  0  0  0  0  0  0  0  0  0
  -26.5054  -26.3867   15.0184 C   0  0  0  0  0  0  0  0  0  0  0  0
  -30.1686  -29.4591   25.3793 C   0  0  0  0  0  0  0  0  0  0  0  0
  -23.2304  -25.3908   20.6887 C   0  0  0  0  0  0  0  0  0  0  0  0
  -24.5894  -24.4583   18.8041 C   0  0  0  0  0  0  0  0  0  0  0  0
  -22.3808  -25.5211   18.3402 C   0  0  0  0  0  0  0  0  0  0  0  0
  -27.0369  -30.0019   16.0785 C   0  0  0  0  0  0  0  0  0  0  0  0
  -24.3458  -26.9762   18.9833 C   0  0  1  0  0  0  0  0  0  0  0  0
  -26.1701  -27.6844   15.7368 C   0  0  2  0  0  0  0  0  0  0  0  0
  -29.2572  -29.3553   24.1654 C   0  0  1  0  0  0  0  0  0  1  0  0
  -23.6468  -25.6077   19.2202 C   0  0  0  0  0  0  0  0  0  0  0  0
  -28.8493  -14.9747   20.6700 N   0  0  0  0  0  0  0  0  0  0  0  0
  -29.9290  -15.4347   21.3249 N   0  0  0  0  0  0  0  0  0  0  0  0
  -29.7449  -19.1441   20.3971 N   0  0  0  0  0  0  0  0  0  0  0  0
  -23.9982  -28.9780   20.3960 N   0  0  0  0  0  0  0  0  0  0  0  0
  -32.1801  -25.8870   19.1555 N   0  0  0  0  0  0  0  0  0  0  0  0
  -31.5559  -14.8362   22.9391 N   0  0  0  0  0  0  0  0  0  0  0  0
  -28.9773  -11.1407   22.6390 N   0  0  0  0  0  0  0  0  0  0  0  0
  -29.6181  -27.2416   23.0606 N   0  0  0  0  0  0  0  0  0  0  0  0
  -21.2512  -29.8520   22.4983 N   0  0  0  0  0  0  0  0  0  0  0  0
  -24.7269  -27.2203   17.5964 N   0  0  0  0  0  0  0  0  0  0  0  0
  -27.2497  -28.6716   15.4523 N   0  3  0  0  0  0  0  0  0  0  0  0
  -30.7940  -12.0630   23.6914 O   0  0  0  0  0  0  0  0  0  0  0  0
  -28.3122  -20.1273   21.9457 O   0  0  0  0  0  0  0  0  0  0  0  0
  -23.1857  -28.6164   22.8902 O   0  0  0  0  0  0  0  0  0  0  0  0
  -22.3903  -28.3115   18.8447 O   0  0  0  0  0  0  0  0  0  0  0  0
  -26.9914  -27.5109   18.0023 O   0  0  0  0  0  0  0  0  0  0  0  0
  -30.6240  -29.1786   22.1953 O   0  0  0  0  0  0  0  0  0  0  0  0
  -24.5355  -10.4830   19.3415 O   0  0  0  0  0  0  0  0  0  0  0  0
  -28.9120  -30.6667   23.7210 O   0  0  0  0  0  0  0  0  0  1  0  0
  -21.6525   -7.6726   23.1090 F   0  0  0  0  0  0  0  0  0  0  0  0
  -21.8133  -10.8728   19.6250 F   0  0  0  0  0  0  0  0  0  0  0  0
  1  2  1  0  0  0  0
  1  5  2  0  0  0  0
  2  6  2  0  0  0  0
  3  8  2  0  0  0  0
  3 18  1  0  0  0  0
  4  9  1  0  0  0  0
  4 18  2  0  0  0  0
  5 21  1  0  0  0  0
  6 23  1  0  0  0  0
  7 10  2  0  0  0  0
  7 22  1  0  0  0  0
  8 27  1  0  0  0  0
  9 27  2  0  0  0  0
 10 28  1  0  0  0  0
 11 12  2  0  0  0  0
 11 29  1  0  0  0  0
 12 30  1  0  0  0  0
 13 19  2  0  0  0  0
 13 25  1  0  0  0  0
 14 19  1  0  0  0  0
 14 26  2  0  0  0  0
 15 24  1  0  0  0  0
 15 28  2  0  0  0  0
 16 25  2  0  0  0  0
 16 26  1  0  0  0  0
 17 30  2  0  0  0  0
 17 31  1  0  0  0  0
 18 32  1  0  0  0  0
 19 34  1  0  0  0  0
 20 32  1  0  0  0  0
 20 33  2  0  0  0  0
 20 36  1  0  0  0  0
 21 23  2  0  0  0  0
 21 42  1  0  0  0  0
 22 24  2  0  0  0  0
 22 43  1  0  0  0  0
 23 51  1  0  0  0  0
 24 44  1  0  0  0  0
 25 68  1  0  0  0  0
 26 71  1  0  0  0  0
 27 81  1  0  0  0  0
 28 82  1  0  0  0  0
 29 31  2  0  0  0  0
 29 81  1  0  0  0  0
 30 83  1  0  0  0  0
 31 84  1  0  0  0  0
 32 64  2  0  0  0  0
 33 65  1  0  0  0  0
 33 69  1  0  0  0  0
 34 35  2  0  0  0  0
 35 37  1  0  0  0  0
 36 70  1  0  0  0  0
 36 75  2  0  0  0  0
 37 66  1  0  0  0  0
 37 76  2  0  0  0  0
 38 52  1  0  0  0  0
 38 72  1  0  0  0  0
 38 77  2  0  0  0  0
 39 60  1  0  0  0  0
 39 67  1  0  0  0  0
 39 78  2  0  0  0  0
 40 61  1  0  0  0  0
 40 73  1  0  0  0  0
 40 79  2  0  0  0  0
 41 62  1  0  0  0  0
 41 71  1  0  0  0  0
 41 80  2  0  0  0  0
 42 45  1  0  0  0  0
 43 52  1  0  0  0  0
 44 67  1  0  0  0  0
 45 47  1  0  0  0  0
 46 48  1  0  0  0  0
 46 49  1  0  0  0  0
 47 51  1  0  0  0  0
 48 53  1  0  0  0  0
 49 66  1  0  0  0  0
 50 53  1  0  0  0  0
 50 66  1  0  0  0  0
 51 72  1  0  0  0  0
 52 67  1  0  0  0  0
 53 65  1  0  0  0  0
 54 61  1  0  0  0  0
 55 62  1  0  0  0  0
 56 63  1  0  0  0  0
 57 63  1  0  0  0  0
 58 63  1  0  0  0  0
 59 74  1  0  0  0  0
 60 63  1  0  0  0  0
 60 73  1  0  0  0  0
 61 74  1  0  0  0  0
 62 82  1  0  0  0  0
 64 65  1  0  0  0  0
M  CHG  1  74   1
M  ISO  4  35 100  37 100  62 101  82 101
M  END
> <Batch ID>
0162

> <Smiles>
CNC(C)C(=O)NC(C(=O)N1Cc2cc([101O:1][101CH:1](C)C(=O)Nc3cc(N)cc(C=[100CH:0][100C:0](=O)N4CCCC(n5nc(-c6ccc(Oc7ccc(F)cc7F)cc6)c(C(N)=O)c5N)C4)c3)ccc2CC1C(=O)NC1CCCc2ccccc21)C(C)(C)C

> <Shape>
0.308

> <Color>
0.073

> <Negative vol penalty>
0.000

$$$$

  -OEChem-04052303563D

 88 97  0     1  0  0  0  0  0999 V2000
  -19.3743  -29.4336   15.6130 C   0  0  0  0  0  0  0  0  0  0  0  0
  -20.3404  -28.6370   16.2192 C   0  0  0  0  0  0  0  0  0  0  0  0
  -26.3949  -19.1274   15.6598 C   0  0  0  0  0  0  0  0  0  0  0  0
  -22.9939  -10.1090   19.9434 C   0  0  0  0  0  0  0  0  0  0  0  0
  -23.8019   -9.7505   22.1919 C   0  0  0  0  0  0  0  0  0  0  0  0
  -27.3279  -18.1098   15.8582 C   0  0  0  0  0  0  0  0  0  0  0  0
  -19.3735  -30.8113   15.8276 C   0  0  0  0  0  0  0  0  0  0  0  0
  -21.3069  -29.2177   17.0396 C   0  0  0  0  0  0  0  0  0  0  0  0
  -22.0214  -26.6283   21.3326 C   0  0  0  0  0  0  0  0  0  0  0  0
  -26.2217  -20.1139   16.6307 C   0  0  0  0  0  0  0  0  0  0  0  0
  -22.1675   -8.9916   20.0621 C   0  0  0  0  0  0  0  0  0  0  0  0
  -22.9754   -8.6331   22.3107 C   0  0  0  0  0  0  0  0  0  0  0  0
  -22.7928  -25.4695   21.2564 C   0  0  0  0  0  0  0  0  0  0  0  0
  -22.9925   -5.4039   21.3092 C   0  0  0  0  0  0  0  0  0  0  0  0
  -23.5411   -4.2482   21.8649 C   0  0  0  0  0  0  0  0  0  0  0  0
  -24.6937  -26.6860   22.1083 C   0  0  0  0  0  0  0  0  0  0  0  0
  -21.8962   -4.3176   23.6332 C   0  0  0  0  0  0  0  0  0  0  0  0
  -23.8112  -10.4884   21.0082 C   0  0  0  0  0  0  0  0  0  0  0  0
  -28.0877  -18.0784   17.0276 C   0  0  0  0  0  0  0  0  0  0  0  0
  -24.3474  -12.9740   21.2127 C   0  0  0  0  0  0  0  0  0  0  0  0
  -20.3346  -31.4079   16.6588 C   0  0  0  0  0  0  0  0  0  0  0  0
  -22.5842  -27.8294   21.7878 C   0  0  0  0  0  0  0  0  0  0  0  0
  -21.3197  -30.6048   17.2645 C   0  0  0  0  0  0  0  0  0  0  0  0
  -23.9266  -27.8581   22.1919 C   0  0  0  0  0  0  0  0  0  0  0  0
  -27.9145  -19.0648   17.9985 C   0  0  0  0  0  0  0  0  0  0  0  0
  -26.9814  -20.0825   17.8001 C   0  0  0  0  0  0  0  0  0  0  0  0
  -22.1582   -8.2537   21.2458 C   0  0  0  0  0  0  0  0  0  0  0  0
  -24.1299  -25.4989   21.6415 C   0  0  0  0  0  0  0  0  0  0  0  0
  -21.8957   -6.0166   21.9155 C   0  0  0  0  0  0  0  0  0  0  0  0
  -22.9930   -3.7050   23.0269 C   0  0  0  0  0  0  0  0  0  0  0  0
  -21.3476   -5.4734   23.0775 C   0  0  0  0  0  0  0  0  0  0  0  0
  -24.6656  -11.6422   20.8859 C   0  0  0  0  0  0  0  0  0  0  0  0
  -25.4869  -13.6816   20.9170 C   0  0  0  0  0  0  0  0  0  0  0  0
  -29.0677  -16.9932   17.2112 C   0  0  0  0  0  0  0  0  0  0  0  0
  -23.1308  -13.5224   21.7369 C   0  0  0  0  0  0  0  0  0  0  0  0
  -25.7798  -22.6782   20.0876 C   0  0  0  0  0  0  0  0  0  0  0  0
  -25.6509  -21.6849   19.0277 C   0  0  0  0  0  0  0  0  0  0  0  0
  -23.0696  -30.7024   20.5174 C   0  0  0  0  0  0  0  0  0  0  0  0
  -24.0305  -31.4409   23.5263 C   0  0  0  0  0  0  0  0  0  0  0  0
  -25.2574  -30.3623   26.5227 C   0  0  0  0  0  0  0  0  0  0  0  0
  -29.6845  -14.7859   17.4080 C   0  0  0  0  0  0  0  0  0  0  0  0
  -20.3221  -32.9071   16.8231 C   0  0  0  0  0  0  0  0  0  0  0  0
  -21.7316  -29.0643   21.8894 C   0  0  0  0  0  0  0  0  0  0  0  0
  -24.5730  -29.1172   22.7068 C   0  0  0  0  0  0  0  0  0  0  0  0
  -21.1537  -33.3972   18.0056 C   0  0  0  0  0  0  0  0  0  0  0  0
  -29.0183  -18.3906   21.3569 C   0  0  0  0  0  0  0  0  0  0  0  0
  -30.1516  -12.1115   19.7816 C   0  0  0  0  0  0  0  0  0  0  0  0
  -28.0961  -19.4199   20.6763 C   0  0  0  0  0  0  0  0  0  0  0  0
  -29.0734  -17.6602   20.0013 C   0  0  0  0  0  0  0  0  0  0  0  0
  -22.5167  -32.7124   18.0201 C   0  0  0  0  0  0  0  0  0  0  0  0
  -28.7327  -11.8383   20.2803 C   0  0  0  0  0  0  0  0  0  0  0  0
  -30.1607  -12.5087   18.3086 C   0  0  0  0  0  0  0  0  0  0  0  0
  -27.8544  -13.4013   18.4899 C   0  0  0  0  0  0  0  0  0  0  0  0
  -28.7754  -19.0337   19.3276 C   0  0  0  0  0  0  0  0  0  0  0  0
  -22.3696  -31.1945   18.1810 C   0  0  1  0  0  0  0  0  0  0  0  0
  -22.5454  -30.3546   21.8820 C   0  0  1  0  0  0  0  0  0  0  0  0
  -27.8029  -13.0278   19.9813 C   0  0  1  0  0  0  0  0  0  0  0  0
  -25.9758  -31.2037   28.7750 C   0  0  0  0  0  0  0  0  0  0  0  0
  -26.6293  -32.4763   22.3079 C   0  0  0  0  0  0  0  0  0  0  0  0
  -27.6471  -32.4078   24.5943 C   0  0  0  0  0  0  0  0  0  0  0  0
  -25.6983  -33.8980   24.1426 C   0  0  0  0  0  0  0  0  0  0  0  0
  -23.1911  -28.7601   27.9092 C   0  0  0  0  0  0  0  0  0  0  0  0
  -24.5455  -23.4263   20.5518 C   0  0  0  0  0  0  0  0  0  1  0  0
  -25.3435  -31.3980   24.2701 C   0  0  1  0  0  0  0  0  0  0  0  0
  -24.8256  -30.6483   27.9497 C   0  0  2  0  0  0  0  0  0  0  0  0
  -26.3182  -32.5216   23.8172 C   0  0  0  0  0  0  0  0  0  0  0  0
  -25.9096  -11.5090   20.4182 N   0  0  0  0  0  0  0  0  0  0  0  0
  -28.7113  -15.7507   17.2302 N   0  0  0  0  0  0  0  0  0  0  0  0
  -26.3832  -12.7664   20.4489 N   0  0  0  0  0  0  0  0  0  0  0  0
  -23.6996  -30.3001   22.7815 N   0  0  0  0  0  0  0  0  0  0  0  0
  -29.2412  -13.6193   18.0576 N   0  0  0  0  0  0  0  0  0  0  0  0
  -25.7995  -14.9913   21.0143 N   0  0  0  0  0  0  0  0  0  0  0  0
  -22.0583  -12.6545   21.9831 N   0  0  0  0  0  0  0  0  0  0  0  0
  -24.4323  -21.4974   18.5279 N   0  0  0  0  0  0  0  0  0  0  0  0
  -22.0858  -30.8575   19.5595 N   0  0  0  0  0  0  0  0  0  0  0  0
  -25.0097  -31.4330   25.6898 N   0  0  0  0  0  0  0  0  0  0  0  0
  -26.7983  -21.0589   18.7448 N   0  3  0  0  0  0  0  0  0  0  0  0
  -24.3377  -29.4009   28.6031 N   0  3  0  0  0  0  0  0  0  0  0  0
  -22.9932  -14.7483   21.9642 O   0  0  0  0  0  0  0  0  0  0  0  0
  -26.8803  -22.8997   20.5916 O   0  0  0  0  0  0  0  0  0  0  0  0
  -24.2771  -30.8227   20.3466 O   0  0  0  0  0  0  0  0  0  0  0  0
  -23.3213  -32.4468   23.6090 O   0  0  0  0  0  0  0  0  0  0  0  0
  -25.7669  -29.2971   26.1817 O   0  0  0  0  0  0  0  0  0  0  0  0
  -30.8525  -14.9102   17.0320 O   0  0  0  0  0  0  0  0  0  0  0  0
  -21.3517   -7.1635   21.3622 O   0  0  0  0  0  0  0  0  0  0  0  0
  -24.8852  -24.3694   21.5674 O   0  0  0  0  0  0  0  0  0  1  0  0
  -23.5190   -2.5942   23.5595 F   0  0  0  0  0  0  0  0  0  0  0  0
  -20.2932   -6.0568   23.6638 F   0  0  0  0  0  0  0  0  0  0  0  0
  1  2  1  0  0  0  0
  1  7  2  0  0  0  0
  2  8  2  0  0  0  0
  3  6  1  0  0  0  0
  3 10  2  0  0  0  0
  4 11  2  0  0  0  0
  4 18  1  0  0  0  0
  5 12  1  0  0  0  0
  5 18  2  0  0  0  0
  6 19  2  0  0  0  0
  7 21  1  0  0  0  0
  8 23  1  0  0  0  0
  9 13  2  0  0  0  0
  9 22  1  0  0  0  0
 10 26  1  0  0  0  0
 11 27  1  0  0  0  0
 12 27  2  0  0  0  0
 13 28  1  0  0  0  0
 14 15  2  0  0  0  0
 14 29  1  0  0  0  0
 15 30  1  0  0  0  0
 16 24  1  0  0  0  0
 16 28  2  0  0  0  0
 17 30  2  0  0  0  0
 17 31  1  0  0  0  0
 18 32  1  0  0  0  0
 19 25  1  0  0  0  0
 19 34  1  0  0  0  0
 20 32  1  0  0  0  0
 20 33  2  0  0  0  0
 20 35  1  0  0  0  0
 21 23  2  0  0  0  0
 21 42  1  0  0  0  0
 22 24  2  0  0  0  0
 22 43  1  0  0  0  0
 23 55  1  0  0  0  0
 24 44  1  0  0  0  0
 25 26  2  0  0  0  0
 25 54  1  0  0  0  0
 26 77  1  0  0  0  0
 27 85  1  0  0  0  0
 28 86  1  0  0  0  0
 29 31  2  0  0  0  0
 29 85  1  0  0  0  0
 30 87  1  0  0  0  0
 31 88  1  0  0  0  0
 32 67  2  0  0  0  0
 33 69  1  0  0  0  0
 33 72  1  0  0  0  0
 34 68  2  0  0  0  0
 35 73  1  0  0  0  0
 35 79  2  0  0  0  0
 36 37  1  0  0  0  0
 36 63  1  0  0  0  0
 36 80  2  0  0  0  0
 37 74  1  0  0  0  0
 37 77  2  0  0  0  0
 38 56  1  0  0  0  0
 38 75  1  0  0  0  0
 38 81  2  0  0  0  0
 39 64  1  0  0  0  0
 39 70  1  0  0  0  0
 39 82  2  0  0  0  0
 40 65  1  0  0  0  0
 40 76  1  0  0  0  0
 40 83  2  0  0  0  0
 41 68  1  0  0  0  0
 41 71  1  0  0  0  0
 41 84  2  0  0  0  0
 42 45  1  0  0  0  0
 43 56  1  0  0  0  0
 44 70  1  0  0  0  0
 45 50  1  0  0  0  0
 46 48  1  0  0  0  0
 46 49  1  0  0  0  0
 47 51  1  0  0  0  0
 47 52  1  0  0  0  0
 48 54  1  0  0  0  0
 49 54  1  0  0  0  0
 50 55  1  0  0  0  0
 51 57  1  0  0  0  0
 52 71  1  0  0  0  0
 53 57  1  0  0  0  0
 53 71  1  0  0  0  0
 55 75  1  0  0  0  0
 56 70  1  0  0  0  0
 57 69  1  0  0  0  0
 58 65  1  0  0  0  0
 59 66  1  0  0  0  0
 60 66  1  0  0  0  0
 61 66  1  0  0  0  0
 62 78  1  0  0  0  0
 63 86  1  0  0  0  0
 64 66  1  0  0  0  0
 64 76  1  0  0  0  0
 65 78  1  0  0  0  0
 67 69  1  0  0  0  0
M  CHG  2  77   1  78   1
M  ISO  4  41 100  63 101  68 100  86 101
M  END
> <Batch ID>
0162

> <Smiles>
CNC(C)C(=O)NC(C(=O)N1Cc2cc([101O:1][101CH2:1]C(=O)C(=N)Nc3cccc(C=[100N:0][100C:0](=O)N4CCCC(n5nc(-c6ccc(Oc7ccc(F)cc7F)cc6)c(C(N)=O)c5N)C4)c3C3CCC3)ccc2CC1C(=O)NC1CCCc2ccccc21)C(C)(C)C

> <Shape>
0.290

> <Color>
0.148

> <Negative vol penalty>
0.000

$$$$

  -OEChem-04052303563D

 87 96  0     1  0  0  0  0  0999 V2000
  -26.5264  -32.4255   14.0581 C   0  0  0  0  0  0  0  0  0  0  0  0
  -27.2799  -31.4559   14.7119 C   0  0  0  0  0  0  0  0  0  0  0  0
  -23.0606   -9.9360   19.9454 C   0  0  0  0  0  0  0  0  0  0  0  0
  -23.7878   -9.9551   22.2493 C   0  0  0  0  0  0  0  0  0  0  0  0
  -25.8034  -33.3607   14.7974 C   0  0  0  0  0  0  0  0  0  0  0  0
  -27.3117  -31.4216   16.1055 C   0  0  0  0  0  0  0  0  0  0  0  0
  -26.7889  -26.7328   17.9458 C   0  0  0  0  0  0  0  0  0  0  0  0
  -22.3156   -8.7825   20.1901 C   0  0  0  0  0  0  0  0  0  0  0  0
  -23.0427   -8.8016   22.4940 C   0  0  0  0  0  0  0  0  0  0  0  0
  -27.9100  -25.9049   17.9070 C   0  0  0  0  0  0  0  0  0  0  0  0
  -23.3483   -5.4777   21.9562 C   0  0  0  0  0  0  0  0  0  0  0  0
  -23.9556   -4.4570   22.6876 C   0  0  0  0  0  0  0  0  0  0  0  0
  -28.3297  -26.3741   20.2357 C   0  0  0  0  0  0  0  0  0  0  0  0
  -31.5383  -18.5565   20.0933 C   0  0  0  0  0  0  0  0  0  0  0  0
  -22.2297   -4.6349   24.3690 C   0  0  0  0  0  0  0  0  0  0  0  0
  -23.7968  -10.5223   20.9750 C   0  0  0  0  0  0  0  0  0  0  0  0
  -24.1352  -13.0476   20.8481 C   0  0  0  0  0  0  0  0  0  0  0  0
  -25.8186  -33.3319   16.2008 C   0  0  0  0  0  0  0  0  0  0  0  0
  -26.4355  -27.3973   19.1290 C   0  0  0  0  0  0  0  0  0  0  0  0
  -26.5893  -32.3581   16.8643 C   0  0  0  0  0  0  0  0  0  0  0  0
  -27.2022  -27.2079   20.2876 C   0  0  0  0  0  0  0  0  0  0  0  0
  -30.5738  -18.0777   21.0119 C   0  0  0  0  0  0  0  0  0  0  0  0
  -22.3066   -8.2153   21.4644 C   0  0  0  0  0  0  0  0  0  0  0  0
  -28.6822  -25.7277   19.0513 C   0  0  0  0  0  0  0  0  0  0  0  0
  -22.1817   -6.0771   22.4312 C   0  0  0  0  0  0  0  0  0  0  0  0
  -23.3963   -4.0356   23.8940 C   0  0  0  0  0  0  0  0  0  0  0  0
  -21.6224   -5.6557   23.6376 C   0  0  0  0  0  0  0  0  0  0  0  0
  -24.5670  -11.7136   20.7227 C   0  0  0  0  0  0  0  0  0  0  0  0
  -29.4438  -18.8353   20.8089 C   0  0  0  0  0  0  0  0  0  0  0  0
  -25.2308  -13.7977   20.4969 C   0  0  0  0  0  0  0  0  0  0  0  0
  -30.9288  -19.5724   19.3944 C   0  0  0  0  0  0  0  0  0  0  0  0
  -22.8578  -13.5627   21.2465 C   0  0  0  0  0  0  0  0  0  0  0  0
  -28.1639  -18.8143   21.4327 C   0  0  0  0  0  0  0  0  0  0  0  0
  -26.1657  -30.4435   19.9960 C   0  0  0  0  0  0  0  0  0  0  0  0
  -30.5531  -22.6560   18.6382 C   0  0  0  0  0  0  0  0  0  0  0  0
  -25.0023  -29.1553   22.7364 C   0  0  0  0  0  0  0  0  0  0  0  0
  -24.8485  -26.4717   24.8391 C   0  0  0  0  0  0  0  0  0  0  0  0
  -30.7093  -14.8291   20.7585 C   0  0  0  0  0  0  0  0  0  0  0  0
  -25.0589  -34.3928   16.9570 C   0  0  0  0  0  0  0  0  0  0  0  0
  -25.2079  -28.2659   19.1615 C   0  0  0  0  0  0  0  0  0  0  0  0
  -26.8536  -27.8826   21.5883 C   0  0  0  0  0  0  0  0  0  0  0  0
  -24.8464  -34.0561   18.4307 C   0  0  0  0  0  0  0  0  0  0  0  0
  -29.6106  -12.4312   18.3669 C   0  0  0  0  0  0  0  0  0  0  0  0
  -26.1450  -33.5580   19.0571 C   0  0  0  0  0  0  0  0  0  0  0  0
  -26.4994  -20.6876   21.9836 C   0  0  0  0  0  0  0  0  0  0  0  0
  -27.4695  -21.2422   20.9844 C   0  0  0  0  0  0  0  0  0  0  0  0
  -28.1677  -12.1365   18.7807 C   0  0  0  0  0  0  0  0  0  0  0  0
  -30.5101  -12.6595   19.5796 C   0  0  0  0  0  0  0  0  0  0  0  0
  -28.5873  -13.3929   20.9356 C   0  0  0  0  0  0  0  0  0  0  0  0
  -26.6293  -32.2730   18.3747 C   0  0  1  0  0  0  0  0  0  0  0  0
  -27.1151  -19.8037   20.9664 C   0  0  0  0  0  0  0  0  0  0  0  0
  -25.2361  -29.2986   20.2840 C   0  0  1  0  0  0  0  0  0  0  0  0
  -27.6304  -13.2109   19.7451 C   0  0  2  0  0  0  0  0  0  0  0  0
  -23.8487  -25.7315   27.0185 C   0  0  0  0  0  0  0  0  0  0  0  0
  -27.0758  -30.8079   24.2460 C   0  0  0  0  0  0  0  0  0  0  0  0
  -26.6831  -29.3490   26.2424 C   0  0  0  0  0  0  0  0  0  0  0  0
  -24.8198  -30.7292   25.3225 C   0  0  0  0  0  0  0  0  0  0  0  0
  -23.3322  -24.2898   23.5356 C   0  0  0  0  0  0  0  0  0  0  0  0
  -30.7532  -16.9854   21.9862 C   0  0  0  0  0  0  0  0  0  0  0  0
  -30.5820  -21.4242   17.7585 C   0  0  0  0  0  0  0  0  0  0  0  0
  -29.7466  -23.8237   18.1038 C   0  0  0  0  0  0  0  0  0  1  0  0
  -25.6052  -28.6957   24.0418 C   0  0  1  0  0  0  0  0  0  0  0  0
  -23.6732  -25.7828   25.5088 C   0  0  2  0  0  0  0  0  0  0  0  0
  -26.0539  -29.8841   24.9383 C   0  0  0  0  0  0  0  0  0  0  0  0
  -25.8379  -11.6185   20.3228 N   0  0  0  0  0  0  0  0  0  0  0  0
  -26.2140  -12.9022   20.1939 N   0  0  0  0  0  0  0  0  0  0  0  0
  -25.6477  -28.7269   21.5677 N   0  0  0  0  0  0  0  0  0  0  0  0
  -29.9449  -13.6909   20.4529 N   0  0  0  0  0  0  0  0  0  0  0  0
  -25.4396  -15.1292   20.4207 N   0  0  0  0  0  0  0  0  0  0  0  0
  -21.8430  -12.6530   21.5736 N   0  0  0  0  0  0  0  0  0  0  0  0
  -31.3829  -20.3986   18.3763 N   0  0  0  0  0  0  0  0  0  0  0  0
  -25.8644  -31.1353   18.8384 N   0  0  0  0  0  0  0  0  0  0  0  0
  -24.6172  -27.8194   24.6617 N   0  0  0  0  0  0  0  0  0  0  0  0
  -30.0963  -15.7605   21.5876 N   0  0  0  0  0  0  0  0  0  0  0  0
  -23.5345  -24.3874   25.0041 N   0  3  0  0  0  0  0  0  0  0  0  0
  -22.6183  -14.7931   21.2948 O   0  0  0  0  0  0  0  0  0  0  0  0
  -27.8054  -18.0477   22.3533 O   0  0  0  0  0  0  0  0  0  0  0  0
  -27.0870  -30.6825   20.7678 O   0  0  0  0  0  0  0  0  0  0  0  0
  -31.1414  -22.7171   19.7170 O   0  0  0  0  0  0  0  0  0  0  0  0
  -23.9915  -29.8623   22.7528 O   0  0  0  0  0  0  0  0  0  0  0  0
  -25.8711  -25.8747   24.5099 O   0  0  0  0  0  0  0  0  0  0  0  0
  -31.8512  -15.0048   20.3202 O   0  0  0  0  0  0  0  0  0  0  0  0
  -29.6519  -19.7486   19.8245 O   0  0  0  0  0  0  0  0  0  0  0  0
  -21.5796   -7.0898   21.7036 O   0  0  0  0  0  0  0  0  0  0  0  0
  -29.7774  -24.9207   19.0160 O   0  0  0  0  0  0  0  0  0  1  0  0
  -23.9787   -3.0543   24.5954 F   0  0  0  0  0  0  0  0  0  0  0  0
  -20.5012   -6.2269   24.0984 F   0  0  0  0  0  0  0  0  0  0  0  0
  1  2  1  0  0  0  0
  1  5  2  0  0  0  0
  2  6  2  0  0  0  0
  3  8  2  0  0  0  0
  3 16  1  0  0  0  0
  4  9  1  0  0  0  0
  4 16  2  0  0  0  0
  5 18  1  0  0  0  0
  6 20  1  0  0  0  0
  7 10  2  0  0  0  0
  7 19  1  0  0  0  0
  8 23  1  0  0  0  0
  9 23  2  0  0  0  0
 10 24  1  0  0  0  0
 11 12  2  0  0  0  0
 11 25  1  0  0  0  0
 12 26  1  0  0  0  0
 13 21  1  0  0  0  0
 13 24  2  0  0  0  0
 14 22  1  0  0  0  0
 14 31  2  0  0  0  0
 15 26  2  0  0  0  0
 15 27  1  0  0  0  0
 16 28  1  0  0  0  0
 17 28  1  0  0  0  0
 17 30  2  0  0  0  0
 17 32  1  0  0  0  0
 18 20  2  0  0  0  0
 18 39  1  0  0  0  0
 19 21  2  0  0  0  0
 19 40  1  0  0  0  0
 20 50  1  0  0  0  0
 21 41  1  0  0  0  0
 22 29  2  0  0  0  0
 22 59  1  0  0  0  0
 23 84  1  0  0  0  0
 24 85  1  0  0  0  0
 25 27  2  0  0  0  0
 25 84  1  0  0  0  0
 26 86  1  0  0  0  0
 27 87  1  0  0  0  0
 28 65  2  0  0  0  0
 29 33  1  0  0  0  0
 29 83  1  0  0  0  0
 30 66  1  0  0  0  0
 30 69  1  0  0  0  0
 31 71  1  0  0  0  0
 31 83  1  0  0  0  0
 32 70  1  0  0  0  0
 32 76  2  0  0  0  0
 33 51  1  0  0  0  0
 33 77  2  0  0  0  0
 34 52  1  0  0  0  0
 34 72  1  0  0  0  0
 34 78  2  0  0  0  0
 35 60  1  0  0  0  0
 35 61  1  0  0  0  0
 35 79  2  0  0  0  0
 36 62  1  0  0  0  0
 36 67  1  0  0  0  0
 36 80  2  0  0  0  0
 37 63  1  0  0  0  0
 37 73  1  0  0  0  0
 37 81  2  0  0  0  0
 38 68  1  0  0  0  0
 38 74  1  0  0  0  0
 38 82  2  0  0  0  0
 39 42  1  0  0  0  0
 40 52  1  0  0  0  0
 41 67  1  0  0  0  0
 42 44  1  0  0  0  0
 43 47  1  0  0  0  0
 43 48  1  0  0  0  0
 44 50  1  0  0  0  0
 45 46  1  0  0  0  0
 45 51  1  0  0  0  0
 46 51  1  0  0  0  0
 47 53  1  0  0  0  0
 48 68  1  0  0  0  0
 49 53  1  0  0  0  0
 49 68  1  0  0  0  0
 50 72  1  0  0  0  0
 52 67  1  0  0  0  0
 53 66  1  0  0  0  0
 54 63  1  0  0  0  0
 55 64  1  0  0  0  0
 56 64  1  0  0  0  0
 57 64  1  0  0  0  0
 58 75  1  0  0  0  0
 59 74  1  0  0  0  0
 60 71  1  0  0  0  0
 61 85  1  0  0  0  0
 62 64  1  0  0  0  0
 62 73  1  0  0  0  0
 63 75  1  0  0  0  0
 65 66  1  0  0  0  0
M  CHG  1  75   1
M  ISO  4  38 100  61 101  74 100  85 101
M  END
> <Batch ID>
0162

> <Smiles>
CNC(C)C(=O)NC(C(=O)N1Cc2cc([101O:1][101CH2:1]C(=O)CNc3cc(C[100NH:0][100C:0](=O)N4CCCC(n5nc(-c6ccc(Oc7ccc(F)cc7F)cc6)c(C(N)=O)c5N)C4)c(C(=O)C4CC4)o3)ccc2CC1C(=O)NC1CCCc2ccccc21)C(C)(C)C

> <Shape>
0.329

> <Color>
0.242

> <Negative vol penalty>
0.000

$$$$

  -OEChem-04052303563D

 88 96  0     1  0  0  0  0  0999 V2000
  -25.9902  -21.5673   15.2160 C   0  0  0  0  0  0  0  0  0  0  0  0
  -26.7627  -20.5456   15.7589 C   0  0  0  0  0  0  0  0  0  0  0  0
  -23.7453  -28.9713   21.9558 C   0  0  0  0  0  0  0  0  0  0  0  0
  -25.3666  -30.4015   20.8773 C   0  0  0  0  0  0  0  0  0  0  0  0
  -24.8179  -21.9683   15.8553 C   0  0  0  0  0  0  0  0  0  0  0  0
  -26.3638  -19.9250   16.9422 C   0  0  0  0  0  0  0  0  0  0  0  0
  -26.7788  -14.8825   16.7270 C   0  0  0  0  0  0  0  0  0  0  0  0
  -23.3919  -30.0160   22.8098 C   0  0  0  0  0  0  0  0  0  0  0  0
  -25.0131  -31.4462   21.7313 C   0  0  0  0  0  0  0  0  0  0  0  0
  -28.0543  -14.3415   16.8817 C   0  0  0  0  0  0  0  0  0  0  0  0
  -24.7921  -34.3815   23.8633 C   0  0  0  0  0  0  0  0  0  0  0  0
  -25.8222  -35.1253   24.4388 C   0  0  0  0  0  0  0  0  0  0  0  0
  -29.5840  -18.0747   20.5538 C   0  0  0  0  0  0  0  0  0  0  0  0
  -27.5522  -13.8318   19.1854 C   0  0  0  0  0  0  0  0  0  0  0  0
  -31.3212  -16.7684   21.6087 C   0  0  0  0  0  0  0  0  0  0  0  0
  -26.6757  -33.1266   25.4942 C   0  0  0  0  0  0  0  0  0  0  0  0
  -24.7328  -29.1641   20.9896 C   0  0  0  0  0  0  0  0  0  0  0  0
  -29.6278  -18.9854   21.6094 C   0  0  0  0  0  0  0  0  0  0  0  0
  -30.5183  -18.7876   22.6646 C   0  0  0  0  0  0  0  0  0  0  0  0
  -24.5328  -27.7823   18.8546 C   0  0  0  0  0  0  0  0  0  0  0  0
  -24.3994  -21.3458   17.0419 C   0  0  0  0  0  0  0  0  0  0  0  0
  -25.8827  -14.9122   17.8052 C   0  0  0  0  0  0  0  0  0  0  0  0
  -25.1855  -20.3190   17.5988 C   0  0  0  0  0  0  0  0  0  0  0  0
  -26.2650  -14.3715   19.0411 C   0  0  0  0  0  0  0  0  0  0  0  0
  -30.4307  -16.9661   20.5535 C   0  0  0  0  0  0  0  0  0  0  0  0
  -31.3650  -17.6791   22.6643 C   0  0  0  0  0  0  0  0  0  0  0  0
  -24.0257  -31.2534   22.6976 C   0  0  0  0  0  0  0  0  0  0  0  0
  -28.4423  -13.8186   18.1118 C   0  0  0  0  0  0  0  0  0  0  0  0
  -24.7037  -33.0103   24.1033 C   0  0  0  0  0  0  0  0  0  0  0  0
  -26.7640  -34.4978   25.2542 C   0  0  0  0  0  0  0  0  0  0  0  0
  -25.6455  -32.3828   24.9188 C   0  0  0  0  0  0  0  0  0  0  0  0
  -25.0988  -28.0852   20.1075 C   0  0  0  0  0  0  0  0  0  0  0  0
  -25.2237  -26.6760   18.4242 C   0  0  0  0  0  0  0  0  0  0  0  0
  -28.7268  -20.1311   21.5732 C   0  0  0  0  0  0  0  0  0  0  0  0
  -29.1095  -21.4235   21.5493 C   0  0  0  0  0  0  0  0  0  0  0  0
  -30.5702  -19.7368   23.7756 C   0  0  0  0  0  0  0  0  0  0  0  0
  -23.4771  -28.4420   18.1433 C   0  0  0  0  0  0  0  0  0  0  0  0
  -28.0730  -22.4743   21.5032 C   0  0  0  0  0  0  0  0  0  0  0  0
  -24.4183  -17.2100   19.4422 C   0  0  0  0  0  0  0  0  0  0  0  0
  -22.9154  -14.7073   20.8566 C   0  0  0  0  0  0  0  0  0  0  0  0
  -22.9535  -11.3964   21.6833 C   0  0  0  0  0  0  0  0  0  0  0  0
  -31.1451  -14.8868   19.3266 C   0  0  0  0  0  0  0  0  0  0  0  0
  -23.1496  -21.8457   17.7222 C   0  0  0  0  0  0  0  0  0  0  0  0
  -24.5009  -15.4751   17.6147 C   0  0  0  0  0  0  0  0  0  0  0  0
  -25.3332  -14.3609   20.2244 C   0  0  0  0  0  0  0  0  0  0  0  0
  -22.6008  -20.8827   18.7719 C   0  0  0  0  0  0  0  0  0  0  0  0
  -29.4610  -24.5166   18.7950 C   0  0  0  0  0  0  0  0  0  0  0  0
  -23.7236  -20.3795   19.6736 C   0  0  0  0  0  0  0  0  0  0  0  0
  -28.4577  -25.6660   18.7502 C   0  0  0  0  0  0  0  0  0  0  0  0
  -29.6692  -23.9945   20.2158 C   0  0  0  0  0  0  0  0  0  0  0  0
  -27.3985  -24.7539   20.8541 C   0  0  0  0  0  0  0  0  0  0  0  0
  -24.7731  -19.6047   18.8676 C   0  0  1  0  0  0  0  0  0  0  0  0
  -23.8514  -15.9195   18.9216 C   0  0  1  0  0  0  0  0  0  0  0  0
  -27.1383  -25.2636   19.4280 C   0  0  1  0  0  0  0  0  0  0  0  0
  -29.2527  -20.7748   25.6924 C   0  0  0  0  0  0  0  0  0  0  0  0
  -21.6028   -9.6472   22.8721 C   0  0  0  0  0  0  0  0  0  0  0  0
  -31.9697  -13.3461   17.5084 C   0  0  0  0  0  0  0  0  0  0  0  0
  -23.7847  -15.8650   23.5426 C   0  0  0  0  0  0  0  0  0  0  0  0
  -23.2599  -13.6512   24.5877 C   0  0  0  0  0  0  0  0  0  0  0  0
  -21.4481  -14.9746   23.4974 C   0  0  0  0  0  0  0  0  0  0  0  0
  -22.6840   -9.7688   19.2262 C   0  0  0  0  0  0  0  0  0  0  0  0
  -29.6604  -19.4927   24.9833 C   0  0  0  0  0  0  0  0  0  0  0  0
  -23.1890  -13.8372   22.0596 C   0  0  1  0  0  0  0  0  0  0  0  0
  -21.9040  -10.3095   21.5366 C   0  0  2  0  0  0  0  0  0  0  0  0
  -30.7946  -14.1591   18.0312 C   0  0  1  0  0  0  0  0  0  1  0  0
  -22.9389  -14.5838   23.4003 C   0  0  0  0  0  0  0  0  0  0  0  0
  -26.0739  -27.2395   20.4508 N   0  0  0  0  0  0  0  0  0  0  0  0
  -26.1261  -26.3942   19.4073 N   0  0  0  0  0  0  0  0  0  0  0  0
  -28.3890  -23.6716   20.8636 N   0  0  0  0  0  0  0  0  0  0  0  0
  -23.9951  -14.9283   19.9899 N   0  0  0  0  0  0  0  0  0  0  0  0
  -32.2754  -17.4575   23.7222 N   0  0  0  0  0  0  0  0  0  0  0  0
  -25.1412  -25.9264   17.3045 N   0  0  0  0  0  0  0  0  0  0  0  0
  -22.8760  -29.5642   18.7296 N   0  0  0  0  0  0  0  0  0  0  0  0
  -30.3848  -16.0411   19.4833 N   0  0  0  0  0  0  0  0  0  0  0  0
  -24.2963  -18.2719   18.5664 N   0  0  0  0  0  0  0  0  0  0  0  0
  -22.3815  -12.6346   21.8856 N   0  0  0  0  0  0  0  0  0  0  0  0
  -22.3734   -9.2609   20.5873 N   0  3  0  0  0  0  0  0  0  0  0  0
  -31.3171  -20.7247   23.7757 O   0  0  0  0  0  0  0  0  0  0  0  0
  -23.0674  -28.0382   17.0286 O   0  0  0  0  0  0  0  0  0  0  0  0
  -26.9906  -22.2293   22.0390 O   0  0  0  0  0  0  0  0  0  0  0  0
  -24.9272  -17.2404   20.5565 O   0  0  0  0  0  0  0  0  0  0  0  0
  -21.7836  -15.1680   20.6884 O   0  0  0  0  0  0  0  0  0  0  0  0
  -24.1601  -11.1692   21.6279 O   0  0  0  0  0  0  0  0  0  0  0  0
  -31.9916  -14.4429   20.0970 O   0  0  0  0  0  0  0  0  0  0  0  0
  -23.6808  -32.2731   23.5306 O   0  0  0  0  0  0  0  0  0  0  0  0
  -29.6870  -13.2905   18.2656 O   0  0  0  0  0  0  0  0  0  1  0  0
  -27.7541  -35.2119   25.8056 F   0  0  0  0  0  0  0  0  0  0  0  0
  -25.5664  -31.0656   25.1520 F   0  0  0  0  0  0  0  0  0  0  0  0
  1  2  1  0  0  0  0
  1  5  2  0  0  0  0
  2  6  2  0  0  0  0
  3  8  2  0  0  0  0
  3 17  1  0  0  0  0
  4  9  1  0  0  0  0
  4 17  2  0  0  0  0
  5 21  1  0  0  0  0
  6 23  1  0  0  0  0
  7 10  2  0  0  0  0
  7 22  1  0  0  0  0
  8 27  1  0  0  0  0
  9 27  2  0  0  0  0
 10 28  1  0  0  0  0
 11 12  2  0  0  0  0
 11 29  1  0  0  0  0
 12 30  1  0  0  0  0
 13 18  1  0  0  0  0
 13 25  2  0  0  0  0
 14 24  1  0  0  0  0
 14 28  2  0  0  0  0
 15 25  1  0  0  0  0
 15 26  2  0  0  0  0
 16 30  2  0  0  0  0
 16 31  1  0  0  0  0
 17 32  1  0  0  0  0
 18 19  2  0  0  0  0
 18 34  1  0  0  0  0
 19 26  1  0  0  0  0
 19 36  1  0  0  0  0
 20 32  1  0  0  0  0
 20 33  2  0  0  0  0
 20 37  1  0  0  0  0
 21 23  2  0  0  0  0
 21 43  1  0  0  0  0
 22 24  2  0  0  0  0
 22 44  1  0  0  0  0
 23 52  1  0  0  0  0
 24 45  1  0  0  0  0
 25 74  1  0  0  0  0
 26 71  1  0  0  0  0
 27 85  1  0  0  0  0
 28 86  1  0  0  0  0
 29 31  2  0  0  0  0
 29 85  1  0  0  0  0
 30 87  1  0  0  0  0
 31 88  1  0  0  0  0
 32 67  2  0  0  0  0
 33 68  1  0  0  0  0
 33 72  1  0  0  0  0
 34 35  2  0  0  0  0
 35 38  1  0  0  0  0
 36 62  1  0  0  0  0
 36 78  2  0  0  0  0
 37 73  1  0  0  0  0
 37 79  2  0  0  0  0
 38 69  1  0  0  0  0
 38 80  2  0  0  0  0
 39 53  1  0  0  0  0
 39 75  1  0  0  0  0
 39 81  2  0  0  0  0
 40 63  1  0  0  0  0
 40 70  1  0  0  0  0
 40 82  2  0  0  0  0
 41 64  1  0  0  0  0
 41 76  1  0  0  0  0
 41 83  2  0  0  0  0
 42 65  1  0  0  0  0
 42 74  1  0  0  0  0
 42 84  2  0  0  0  0
 43 46  1  0  0  0  0
 44 53  1  0  0  0  0
 45 70  1  0  0  0  0
 46 48  1  0  0  0  0
 47 49  1  0  0  0  0
 47 50  1  0  0  0  0
 48 52  1  0  0  0  0
 49 54  1  0  0  0  0
 50 69  1  0  0  0  0
 51 54  1  0  0  0  0
 51 69  1  0  0  0  0
 52 75  1  0  0  0  0
 53 70  1  0  0  0  0
 54 68  1  0  0  0  0
 55 62  1  0  0  0  0
 56 64  1  0  0  0  0
 57 65  1  0  0  0  0
 58 66  1  0  0  0  0
 59 66  1  0  0  0  0
 60 66  1  0  0  0  0
 61 77  1  0  0  0  0
 63 66  1  0  0  0  0
 63 76  1  0  0  0  0
 64 77  1  0  0  0  0
 65 86  1  0  0  0  0
 67 68  1  0  0  0  0
M  CHG  1  77   1
M  ISO  4  35 100  38 100  65 101  86 101
M  END
> <Batch ID>
0162

> <Smiles>
CCC(=O)c1c(N)cc(NC(=O)[101CH:1](C)[101O:1]c2ccc3c(c2)CN(C(=O)C(NC(=O)C(C)NC)C(C)(C)C)C(C(=O)NC2CCCc4ccccc42)C3)cc1C=[100CH:0][100C:0](=O)N1CCCC(n2nc(-c3ccc(Oc4ccc(F)cc4F)cc3)c(C(N)=O)c2N)C1

> <Shape>
0.261

> <Color>
0.068

> <Negative vol penalty>
0.000

$$$$

  -OEChem-04052303563D

 84 92  0     1  0  0  0  0  0999 V2000
  -18.1467  -30.1102   23.7333 C   0  0  0  0  0  0  0  0  0  0  0  0
  -19.4352  -29.6068   23.5858 C   0  0  0  0  0  0  0  0  0  0  0  0
  -26.1843  -12.7742   21.6478 C   0  0  0  0  0  0  0  0  0  0  0  0
  -25.7334  -13.6562   19.4442 C   0  0  0  0  0  0  0  0  0  0  0  0
  -17.0466  -29.2931   23.4763 C   0  0  0  0  0  0  0  0  0  0  0  0
  -19.6243  -28.2856   23.1821 C   0  0  0  0  0  0  0  0  0  0  0  0
  -23.1967  -27.8346   19.6213 C   0  0  0  0  0  0  0  0  0  0  0  0
  -24.9809  -12.0698   21.6121 C   0  0  0  0  0  0  0  0  0  0  0  0
  -24.5300  -12.9518   19.4085 C   0  0  0  0  0  0  0  0  0  0  0  0
  -24.5250  -27.8888   20.0415 C   0  0  0  0  0  0  0  0  0  0  0  0
  -22.1990   -9.7545   21.9522 C   0  0  0  0  0  0  0  0  0  0  0  0
  -22.2126   -8.4258   22.3762 C   0  0  0  0  0  0  0  0  0  0  0  0
  -24.6474  -25.4816   19.9452 C   0  0  0  0  0  0  0  0  0  0  0  0
  -28.2830  -21.5481   17.2266 C   0  0  0  0  0  0  0  0  0  0  0  0
  -23.8150   -7.8909   20.6489 C   0  0  0  0  0  0  0  0  0  0  0  0
  -26.5605  -13.5675   20.5638 C   0  0  0  0  0  0  0  0  0  0  0  0
  -29.0642  -13.8480   20.1629 C   0  0  0  0  0  0  0  0  0  0  0  0
  -17.2224  -27.9640   23.0600 C   0  0  0  0  0  0  0  0  0  0  0  0
  -22.5795  -26.6008   19.3699 C   0  0  0  0  0  0  0  0  0  0  0  0
  -18.5256  -27.4495   22.9206 C   0  0  0  0  0  0  0  0  0  0  0  0
  -23.3120  -25.4145   19.5194 C   0  0  0  0  0  0  0  0  0  0  0  0
  -28.4721  -22.8495   16.7036 C   0  0  0  0  0  0  0  0  0  0  0  0
  -24.1538  -12.1586   20.4925 C   0  0  0  0  0  0  0  0  0  0  0  0
  -25.2497  -26.7121   20.2063 C   0  0  0  0  0  0  0  0  0  0  0  0
  -22.9935  -10.1515   20.8765 C   0  0  0  0  0  0  0  0  0  0  0  0
  -23.0205   -7.4939   21.7246 C   0  0  0  0  0  0  0  0  0  0  0  0
  -23.8014   -9.2197   20.2249 C   0  0  0  0  0  0  0  0  0  0  0  0
  -27.8033  -14.2958   20.6003 C   0  0  0  0  0  0  0  0  0  0  0  0
  -28.9329  -23.6175   17.7475 C   0  0  0  0  0  0  0  0  0  0  0  0
  -29.9083  -14.9026   20.4114 C   0  0  0  0  0  0  0  0  0  0  0  0
  -28.6419  -21.6134   18.5529 C   0  0  0  0  0  0  0  0  0  0  0  0
  -27.5025  -26.2376   19.7936 C   0  0  0  0  0  0  0  0  0  1  0  0
  -29.4389  -12.5911   19.5836 C   0  0  0  0  0  0  0  0  0  0  0  0
  -29.3087  -25.0471   17.8311 C   0  0  0  0  0  0  0  0  0  0  0  0
  -28.8105  -26.2262   20.0839 C   0  0  0  0  0  0  0  0  0  0  0  0
  -29.7893  -25.6333   19.1252 C   0  0  0  0  0  0  0  0  0  0  0  0
  -20.1010  -25.0398   20.6044 C   0  0  0  0  0  0  0  0  0  0  0  0
  -20.6939  -22.9701   18.1781 C   0  0  0  0  0  0  0  0  0  0  0  0
  -22.9342  -21.6892   15.9449 C   0  0  0  0  0  0  0  0  0  0  0  0
  -29.0444  -20.7949   20.9011 C   0  0  0  0  0  0  0  0  0  0  0  0
  -16.0026  -27.1049   22.8396 C   0  0  0  0  0  0  0  0  0  0  0  0
  -21.1540  -26.5607   18.8916 C   0  0  0  0  0  0  0  0  0  0  0  0
  -22.7017  -24.0656   19.2431 C   0  0  0  0  0  0  0  0  0  0  0  0
  -16.2906  -25.8281   22.0542 C   0  0  0  0  0  0  0  0  0  0  0  0
  -30.4660  -18.6401   23.3532 C   0  0  0  0  0  0  0  0  0  0  0  0
  -17.5343  -25.1342   22.6007 C   0  0  0  0  0  0  0  0  0  0  0  0
  -30.0644  -17.2403   22.8824 C   0  0  0  0  0  0  0  0  0  0  0  0
  -29.3636  -19.6646   23.0910 C   0  0  0  0  0  0  0  0  0  0  0  0
  -28.4725  -18.3097   21.2364 C   0  0  0  0  0  0  0  0  0  0  0  0
  -18.7717  -26.0289   22.4607 C   0  0  1  0  0  0  0  0  0  0  0  0
  -20.4712  -25.2232   19.1598 C   0  0  1  0  0  0  0  0  0  0  0  0
  -29.5766  -17.2559   21.4204 C   0  0  2  0  0  0  0  0  0  0  0  0
  -29.3906  -26.7869   21.3482 C   0  0  0  0  0  0  0  0  0  0  0  0
  -23.1363  -19.9830   14.1159 C   0  0  0  0  0  0  0  0  0  0  0  0
  -20.8000  -20.7479   20.2663 C   0  0  0  0  0  0  0  0  0  0  0  0
  -21.9181  -19.2947   18.5616 C   0  0  0  0  0  0  0  0  0  0  0  0
  -19.6064  -20.1390   18.1547 C   0  0  0  0  0  0  0  0  0  0  0  0
  -23.6044  -23.7544   13.9337 C   0  0  0  0  0  0  0  0  0  0  0  0
  -21.5556  -21.7424   18.0067 C   0  0  1  0  0  0  0  0  0  0  0  0
  -22.8348  -21.4353   14.4515 C   0  0  2  0  0  0  0  0  0  0  0  0
  -20.9812  -20.5062   18.7545 C   0  0  0  0  0  0  0  0  0  0  0  0
  -27.8385  -15.5380   21.0898 N   0  0  0  0  0  0  0  0  0  0  0  0
  -29.2273  -25.8474   16.8178 N   0  0  0  0  0  0  0  0  0  0  0  0
  -29.1319  -15.8798   20.9615 N   0  0  0  0  0  0  0  0  0  0  0  0
  -21.3031  -24.0784   18.7836 N   0  0  0  0  0  0  0  0  0  0  0  0
  -28.9551  -19.6252   21.6852 N   0  0  0  0  0  0  0  0  0  0  0  0
  -28.2434  -23.2509   15.4366 N   0  0  0  0  0  0  0  0  0  0  0  0
  -31.2314  -15.0801   20.2109 N   0  0  0  0  0  0  0  0  0  0  0  0
  -28.4469  -11.6186   19.3982 N   0  0  0  0  0  0  0  0  0  0  0  0
  -28.6592  -20.6284   19.5713 N   0  0  0  0  0  0  0  0  0  0  0  0
  -19.2539  -26.0146   21.0962 N   0  0  0  0  0  0  0  0  0  0  0  0
  -21.7124  -21.5514   16.5688 N   0  0  0  0  0  0  0  0  0  0  0  0
  -23.8003  -22.2983   13.7140 N   0  3  0  0  0  0  0  0  0  0  0  0
  -30.6217  -12.3319   19.2558 O   0  0  0  0  0  0  0  0  0  0  0  0
  -30.9940  -25.5830   19.3354 O   0  0  0  0  0  0  0  0  0  0  0  0
  -20.5494  -24.0839   21.2264 O   0  0  0  0  0  0  0  0  0  0  0  0
  -19.5257  -22.9490   17.7827 O   0  0  0  0  0  0  0  0  0  0  0  0
  -23.9908  -21.9772   16.5027 O   0  0  0  0  0  0  0  0  0  0  0  0
  -29.4596  -21.8588   21.3677 O   0  0  0  0  0  0  0  0  0  0  0  0
  -29.0393  -22.8715   18.8783 O   0  0  0  0  0  0  0  0  0  0  0  0
  -22.9795  -11.4712   20.4572 O   0  0  0  0  0  0  0  0  0  0  0  0
  -26.5461  -26.7621   20.6169 O   0  0  0  0  0  0  0  0  0  1  0  0
  -23.0346   -6.2183   22.1328 F   0  0  0  0  0  0  0  0  0  0  0  0
  -24.5677   -9.5954   19.1917 F   0  0  0  0  0  0  0  0  0  0  0  0
  1  2  1  0  0  0  0
  1  5  2  0  0  0  0
  2  6  2  0  0  0  0
  3  8  2  0  0  0  0
  3 16  1  0  0  0  0
  4  9  1  0  0  0  0
  4 16  2  0  0  0  0
  5 18  1  0  0  0  0
  6 20  1  0  0  0  0
  7 10  2  0  0  0  0
  7 19  1  0  0  0  0
  8 23  1  0  0  0  0
  9 23  2  0  0  0  0
 10 24  1  0  0  0  0
 11 12  2  0  0  0  0
 11 25  1  0  0  0  0
 12 26  1  0  0  0  0
 13 21  1  0  0  0  0
 13 24  2  0  0  0  0
 14 22  1  0  0  0  0
 14 31  2  0  0  0  0
 15 26  2  0  0  0  0
 15 27  1  0  0  0  0
 16 28  1  0  0  0  0
 17 28  1  0  0  0  0
 17 30  2  0  0  0  0
 17 33  1  0  0  0  0
 18 20  2  0  0  0  0
 18 41  1  0  0  0  0
 19 21  2  0  0  0  0
 19 42  1  0  0  0  0
 20 50  1  0  0  0  0
 21 43  1  0  0  0  0
 22 29  2  0  0  0  0
 22 67  1  0  0  0  0
 23 81  1  0  0  0  0
 24 82  1  0  0  0  0
 25 27  2  0  0  0  0
 25 81  1  0  0  0  0
 26 83  1  0  0  0  0
 27 84  1  0  0  0  0
 28 62  2  0  0  0  0
 29 34  1  0  0  0  0
 29 80  1  0  0  0  0
 30 64  1  0  0  0  0
 30 68  1  0  0  0  0
 31 70  1  0  0  0  0
 31 80  1  0  0  0  0
 32 35  2  0  0  0  0
 32 82  1  0  0  0  0
 33 69  1  0  0  0  0
 33 74  2  0  0  0  0
 34 36  1  0  0  0  0
 34 63  2  0  0  0  0
 35 36  1  0  0  0  0
 35 53  1  0  0  0  0
 36 75  2  0  0  0  0
 37 51  1  0  0  0  0
 37 71  1  0  0  0  0
 37 76  2  0  0  0  0
 38 59  1  0  0  0  0
 38 65  1  0  0  0  0
 38 77  2  0  0  0  0
 39 60  1  0  0  0  0
 39 72  1  0  0  0  0
 39 78  2  0  0  0  0
 40 66  1  0  0  0  0
 40 70  1  0  0  0  0
 40 79  2  0  0  0  0
 41 44  1  0  0  0  0
 42 51  1  0  0  0  0
 43 65  1  0  0  0  0
 44 46  1  0  0  0  0
 45 47  1  0  0  0  0
 45 48  1  0  0  0  0
 46 50  1  0  0  0  0
 47 52  1  0  0  0  0
 48 66  1  0  0  0  0
 49 52  1  0  0  0  0
 49 66  1  0  0  0  0
 50 71  1  0  0  0  0
 51 65  1  0  0  0  0
 52 64  1  0  0  0  0
 54 60  1  0  0  0  0
 55 61  1  0  0  0  0
 56 61  1  0  0  0  0
 57 61  1  0  0  0  0
 58 73  1  0  0  0  0
 59 61  1  0  0  0  0
 59 72  1  0  0  0  0
 60 73  1  0  0  0  0
 62 64  1  0  0  0  0
M  CHG  1  73   1
M  ISO  4  32 101  40 100  70 100  82 101
M  END
> <Batch ID>
0162

> <Smiles>
CNC(C)C(=O)NC(C(=O)N1Cc2cc([101O:1][101CH:1]=C(C)C(=O)C(=N)c3oc([100NH:0][100C:0](=O)N4CCCC(n5nc(-c6ccc(Oc7ccc(F)cc7F)cc6)c(C(N)=O)c5N)C4)cc3N)ccc2CC1C(=O)NC1CCCc2ccccc21)C(C)(C)C

> <Shape>
0.280

> <Color>
0.086

> <Negative vol penalty>
0.000

$$$$

  -OEChem-04052303563D

 88 96  0     1  0  0  0  0  0999 V2000
  -28.9388  -29.4060   28.3698 C   0  0  0  0  0  0  0  0  0  0  0  0
  -29.9524  -28.5037   28.0637 C   0  0  0  0  0  0  0  0  0  0  0  0
  -23.3098   -9.7897   19.9815 C   0  0  0  0  0  0  0  0  0  0  0  0
  -23.7441  -10.0230   22.3467 C   0  0  0  0  0  0  0  0  0  0  0  0
  -27.7016  -29.3046   27.7351 C   0  0  0  0  0  0  0  0  0  0  0  0
  -29.7290  -27.4986   27.1233 C   0  0  0  0  0  0  0  0  0  0  0  0
  -33.7947  -25.1856   23.1703 C   0  0  0  0  0  0  0  0  0  0  0  0
  -22.5870   -8.6228   20.2293 C   0  0  0  0  0  0  0  0  0  0  0  0
  -23.0213   -8.8561   22.5945 C   0  0  0  0  0  0  0  0  0  0  0  0
  -34.5782  -24.0327   23.1976 C   0  0  0  0  0  0  0  0  0  0  0  0
  -19.7767   -7.9395   22.8255 C   0  0  0  0  0  0  0  0  0  0  0  0
  -18.8674   -7.9545   23.8830 C   0  0  0  0  0  0  0  0  0  0  0  0
  -32.9167  -22.8796   21.8827 C   0  0  0  0  0  0  0  0  0  0  0  0
  -20.0743   -6.1518   24.9464 C   0  0  0  0  0  0  0  0  0  0  0  0
  -31.2187  -16.8040   24.7475 C   0  0  0  0  0  0  0  0  0  0  0  0
  -23.8884  -10.4898   21.0402 C   0  0  0  0  0  0  0  0  0  0  0  0
  -24.1384  -13.0115   20.7465 C   0  0  0  0  0  0  0  0  0  0  0  0
  -27.4660  -28.3038   26.7794 C   0  0  0  0  0  0  0  0  0  0  0  0
  -32.5591  -25.1909   22.5072 C   0  0  0  0  0  0  0  0  0  0  0  0
  -28.4870  -27.3829   26.4761 C   0  0  0  0  0  0  0  0  0  0  0  0
  -32.1205  -24.0346   21.8463 C   0  0  0  0  0  0  0  0  0  0  0  0
  -22.4427   -8.1559   21.5358 C   0  0  0  0  0  0  0  0  0  0  0  0
  -34.1379  -22.8787   22.5562 C   0  0  0  0  0  0  0  0  0  0  0  0
  -20.8348   -7.0306   22.8283 C   0  0  0  0  0  0  0  0  0  0  0  0
  -19.0161   -7.0607   24.9435 C   0  0  0  0  0  0  0  0  0  0  0  0
  -20.9836   -6.1368   23.8888 C   0  0  0  0  0  0  0  0  0  0  0  0
  -24.6356  -11.6950   20.7848 C   0  0  0  0  0  0  0  0  0  0  0  0
  -25.2383  -13.7860   20.4690 C   0  0  0  0  0  0  0  0  0  0  0  0
  -32.4231  -16.8607   24.1047 C   0  0  0  0  0  0  0  0  0  0  0  0
  -31.7122  -14.7653   24.0399 C   0  0  0  0  0  0  0  0  0  0  0  0
  -22.8019  -13.4914   20.9441 C   0  0  0  0  0  0  0  0  0  0  0  0
  -35.0163  -19.4502   23.2507 C   0  0  0  0  0  0  0  0  0  0  0  0
  -34.4458  -18.0616   23.2624 C   0  0  0  0  0  0  0  0  0  0  0  0
  -29.5396  -25.6388   23.3934 C   0  0  0  0  0  0  0  0  0  0  0  0
  -28.5478  -14.7317   24.1632 C   0  0  0  0  0  0  0  0  0  0  0  0
  -28.9886  -25.4872   20.2003 C   0  0  0  0  0  0  0  0  0  0  0  0
  -30.0172  -24.4067   17.1309 C   0  0  0  0  0  0  0  0  0  0  0  0
  -31.1072  -13.0012   21.3586 C   0  0  0  0  0  0  0  0  0  0  0  0
  -26.0970  -28.2048   26.1543 C   0  0  0  0  0  0  0  0  0  0  0  0
  -31.7381  -26.4505   22.4643 C   0  0  0  0  0  0  0  0  0  0  0  0
  -30.8111  -23.9943   21.1032 C   0  0  0  0  0  0  0  0  0  0  0  0
  -26.0632  -27.3419   24.8955 C   0  0  0  0  0  0  0  0  0  0  0  0
  -29.4757  -13.6152   18.2540 C   0  0  0  0  0  0  0  0  0  0  0  0
  -26.8139  -26.0339   25.1245 C   0  0  0  0  0  0  0  0  0  0  0  0
  -28.0054  -13.3115   18.5471 C   0  0  0  0  0  0  0  0  0  0  0  0
  -30.4083  -12.6678   19.0055 C   0  0  0  0  0  0  0  0  0  0  0  0
  -28.7119  -12.2981   20.7545 C   0  0  0  0  0  0  0  0  0  0  0  0
  -28.2911  -26.2942   25.4434 C   0  0  1  0  0  0  0  0  0  0  0  0
  -30.2590  -26.1908   22.1954 C   0  0  1  0  0  0  0  0  0  0  0  0
  -27.7341  -13.2634   20.0628 C   0  0  2  0  0  0  0  0  0  0  0  0
  -26.7003  -13.8919   25.6716 C   0  0  0  0  0  0  0  0  0  0  0  0
  -29.3389  -24.4027   14.7148 C   0  0  0  0  0  0  0  0  0  0  0  0
  -26.9235  -23.3188   20.7862 C   0  0  0  0  0  0  0  0  0  0  0  0
  -26.9836  -22.7036   18.3601 C   0  0  0  0  0  0  0  0  0  0  0  0
  -26.2289  -24.9790   19.0497 C   0  0  0  0  0  0  0  0  0  0  0  0
  -32.4427  -25.9000   16.3274 C   0  0  0  0  0  0  0  0  0  0  0  0
  -31.6520  -13.3095   23.7601 C   0  0  0  0  0  0  0  0  0  0  0  0
  -34.2141  -20.5018   22.5295 C   0  0  0  0  0  0  0  0  0  1  0  0
  -27.5531  -13.6187   24.4458 C   0  0  0  0  0  0  0  0  0  0  0  0
  -29.5657  -14.9899   25.2550 C   0  0  0  0  0  0  0  0  0  0  0  0
  -28.6796  -24.3815   19.2201 C   0  0  1  0  0  0  0  0  0  0  0  0
  -30.1293  -25.1221   15.7967 C   0  0  2  0  0  0  0  0  0  0  0  0
  -27.2277  -23.8456   19.3696 C   0  0  0  0  0  0  0  0  0  0  0  0
  -25.9491  -11.6329   20.5503 N   0  0  0  0  0  0  0  0  0  0  0  0
  -30.8018  -15.4958   24.6918 N   0  0  0  0  0  0  0  0  0  0  0  0
  -26.2865  -12.9200   20.3618 N   0  0  0  0  0  0  0  0  0  0  0  0
  -32.7040  -15.5853   23.6776 N   0  3  0  0  0  0  0  0  0  0  0  0
  -30.0414  -25.2493   21.0953 N   0  0  0  0  0  0  0  0  0  0  0  0
  -30.0997  -12.6700   20.4375 N   0  0  0  0  0  0  0  0  0  0  0  0
  -25.4013  -15.1164   20.3085 N   0  0  0  0  0  0  0  0  0  0  0  0
  -21.7917  -12.5601   21.2207 N   0  0  0  0  0  0  0  0  0  0  0  0
  -33.2312  -18.0054   23.9113 N   0  0  0  0  0  0  0  0  0  0  0  0
  -29.0220  -26.6058   24.2339 N   0  0  0  0  0  0  0  0  0  0  0  0
  -28.9874  -24.9118   17.8963 N   0  0  0  0  0  0  0  0  0  0  0  0
  -30.7288  -12.9853   22.6955 N   0  0  0  0  0  0  0  0  0  0  0  0
  -31.5543  -25.1963   15.3669 N   0  3  0  0  0  0  0  0  0  0  0  0
  -22.5091  -14.7083   20.8612 O   0  0  0  0  0  0  0  0  0  0  0  0
  -36.0913  -19.6246   23.8044 O   0  0  0  0  0  0  0  0  0  0  0  0
  -35.1191  -17.1898   22.7383 O   0  0  0  0  0  0  0  0  0  0  0  0
  -29.4586  -24.4252   23.5434 O   0  0  0  0  0  0  0  0  0  0  0  0
  -28.5288  -15.3803   23.1182 O   0  0  0  0  0  0  0  0  0  0  0  0
  -28.3252  -26.5266   20.1683 O   0  0  0  0  0  0  0  0  0  0  0  0
  -30.7657  -23.4890   17.4596 O   0  0  0  0  0  0  0  0  0  0  0  0
  -32.2571  -13.2949   21.0146 O   0  0  0  0  0  0  0  0  0  0  0  0
  -21.7373   -7.0174   21.7780 O   0  0  0  0  0  0  0  0  0  0  0  0
  -34.9005  -21.7518   22.5818 O   0  0  0  0  0  0  0  0  0  1  0  0
  -18.1437   -7.0763   25.9598 F   0  0  0  0  0  0  0  0  0  0  0  0
  -21.9988   -5.2621   23.8977 F   0  0  0  0  0  0  0  0  0  0  0  0
  1  2  1  0  0  0  0
  1  5  2  0  0  0  0
  2  6  2  0  0  0  0
  3  8  2  0  0  0  0
  3 16  1  0  0  0  0
  4  9  1  0  0  0  0
  4 16  2  0  0  0  0
  5 18  1  0  0  0  0
  6 20  1  0  0  0  0
  7 10  2  0  0  0  0
  7 19  1  0  0  0  0
  8 22  1  0  0  0  0
  9 22  2  0  0  0  0
 10 23  1  0  0  0  0
 11 12  2  0  0  0  0
 11 24  1  0  0  0  0
 12 25  1  0  0  0  0
 13 21  1  0  0  0  0
 13 23  2  0  0  0  0
 14 25  2  0  0  0  0
 14 26  1  0  0  0  0
 15 29  2  0  0  0  0
 15 65  1  0  0  0  0
 16 27  1  0  0  0  0
 17 27  1  0  0  0  0
 17 28  2  0  0  0  0
 17 31  1  0  0  0  0
 18 20  2  0  0  0  0
 18 39  1  0  0  0  0
 19 21  2  0  0  0  0
 19 40  1  0  0  0  0
 20 48  1  0  0  0  0
 21 41  1  0  0  0  0
 22 85  1  0  0  0  0
 23 86  1  0  0  0  0
 24 26  2  0  0  0  0
 24 85  1  0  0  0  0
 25 87  1  0  0  0  0
 26 88  1  0  0  0  0
 27 64  2  0  0  0  0
 28 66  1  0  0  0  0
 28 70  1  0  0  0  0
 29 67  1  0  0  0  0
 29 72  1  0  0  0  0
 30 57  1  0  0  0  0
 30 65  1  0  0  0  0
 30 67  2  0  0  0  0
 31 71  1  0  0  0  0
 31 77  2  0  0  0  0
 32 33  1  0  0  0  0
 32 58  1  0  0  0  0
 32 78  2  0  0  0  0
 33 72  1  0  0  0  0
 33 79  2  0  0  0  0
 34 49  1  0  0  0  0
 34 73  1  0  0  0  0
 34 80  2  0  0  0  0
 35 59  1  0  0  0  0
 35 60  1  0  0  0  0
 35 81  2  0  0  0  0
 36 61  1  0  0  0  0
 36 68  1  0  0  0  0
 36 82  2  0  0  0  0
 37 62  1  0  0  0  0
 37 74  1  0  0  0  0
 37 83  2  0  0  0  0
 38 69  1  0  0  0  0
 38 75  1  0  0  0  0
 38 84  2  0  0  0  0
 39 42  1  0  0  0  0
 40 49  1  0  0  0  0
 41 68  1  0  0  0  0
 42 44  1  0  0  0  0
 43 45  1  0  0  0  0
 43 46  1  0  0  0  0
 44 48  1  0  0  0  0
 45 50  1  0  0  0  0
 46 69  1  0  0  0  0
 47 50  1  0  0  0  0
 47 69  1  0  0  0  0
 48 73  1  0  0  0  0
 49 68  1  0  0  0  0
 50 66  1  0  0  0  0
 51 59  1  0  0  0  0
 52 62  1  0  0  0  0
 53 63  1  0  0  0  0
 54 63  1  0  0  0  0
 55 63  1  0  0  0  0
 56 76  1  0  0  0  0
 57 75  1  0  0  0  0
 58 86  1  0  0  0  0
 60 65  1  0  0  0  0
 61 63  1  0  0  0  0
 61 74  1  0  0  0  0
 62 76  1  0  0  0  0
 64 66  1  0  0  0  0
M  CHG  2  67   1  76   1
M  ISO  4  38 100  58 101  75 100  86 101
M  END
> <Batch ID>
0162

> <Smiles>
CCC(=O)Cn1cc(NC(=O)C(=O)[101CH2:1][101O:1]c2ccc3c(c2)CN(C(=O)C(NC(=O)C(C)NC)C(C)(C)C)C(C(=O)NC2CCCc4ccccc42)C3)nc1C[100NH:0][100C:0](=O)N1CCCC(n2nc(-c3ccc(Oc4ccc(F)cc4F)cc3)c(C(N)=O)c2N)C1

> <Shape>
0.185

> <Color>
0.177

> <Negative vol penalty>
0.000

$$$$

  -OEChem-04052303563D

 83 91  0     1  0  0  0  0  0999 V2000
  -22.0857  -20.0908   36.7245 C   0  0  0  0  0  0  0  0  0  0  0  0
  -22.9185  -19.8157   35.6446 C   0  0  0  0  0  0  0  0  0  0  0  0
  -23.1909   -9.8190   19.9317 C   0  0  0  0  0  0  0  0  0  0  0  0
  -23.5688   -9.9995   22.3111 C   0  0  0  0  0  0  0  0  0  0  0  0
  -21.1283  -19.1578   37.1204 C   0  0  0  0  0  0  0  0  0  0  0  0
  -22.7950  -18.6068   34.9607 C   0  0  0  0  0  0  0  0  0  0  0  0
  -22.9017  -19.1999   29.9326 C   0  0  0  0  0  0  0  0  0  0  0  0
  -22.4248   -8.6722   20.1403 C   0  0  0  0  0  0  0  0  0  0  0  0
  -22.8027   -8.8527   22.5197 C   0  0  0  0  0  0  0  0  0  0  0  0
  -24.1485  -19.3988   29.3412 C   0  0  0  0  0  0  0  0  0  0  0  0
  -23.2045   -5.5061   22.2557 C   0  0  0  0  0  0  0  0  0  0  0  0
  -23.7029   -4.5448   23.1350 C   0  0  0  0  0  0  0  0  0  0  0  0
  -24.2072  -17.0748   28.6973 C   0  0  0  0  0  0  0  0  0  0  0  0
  -21.7461   -4.8044   24.5280 C   0  0  0  0  0  0  0  0  0  0  0  0
  -32.1579  -16.5916   24.5841 C   0  0  0  0  0  0  0  0  0  0  0  0
  -23.7629  -10.4827   21.0171 C   0  0  0  0  0  0  0  0  0  0  0  0
  -24.1012  -12.9994   20.7734 C   0  0  0  0  0  0  0  0  0  0  0  0
  -20.9865  -17.9410   36.4349 C   0  0  0  0  0  0  0  0  0  0  0  0
  -22.3022  -17.9323   29.9202 C   0  0  0  0  0  0  0  0  0  0  0  0
  -21.8357  -17.6561   35.3486 C   0  0  0  0  0  0  0  0  0  0  0  0
  -22.9516  -16.8630   29.2869 C   0  0  0  0  0  0  0  0  0  0  0  0
  -22.2307   -8.1890   21.4343 C   0  0  0  0  0  0  0  0  0  0  0  0
  -24.8028  -18.3356   28.7260 C   0  0  0  0  0  0  0  0  0  0  0  0
  -21.9769   -6.1166   22.5126 C   0  0  0  0  0  0  0  0  0  0  0  0
  -22.9738   -4.1940   24.2711 C   0  0  0  0  0  0  0  0  0  0  0  0
  -21.2477   -5.7657   23.6487 C   0  0  0  0  0  0  0  0  0  0  0  0
  -32.6325  -15.3742   24.0403 C   0  0  0  0  0  0  0  0  0  0  0  0
  -24.5549  -11.6670   20.8022 C   0  0  0  0  0  0  0  0  0  0  0  0
  -31.6564  -14.4379   24.2904 C   0  0  0  0  0  0  0  0  0  0  0  0
  -25.2322  -13.7423   20.5382 C   0  0  0  0  0  0  0  0  0  0  0  0
  -30.9255  -16.3125   25.1275 C   0  0  0  0  0  0  0  0  0  0  0  0
  -22.7758  -13.5190   20.9440 C   0  0  0  0  0  0  0  0  0  0  0  0
  -21.3995  -15.8560   32.1513 C   0  0  0  0  0  0  0  0  0  0  0  0
  -27.9882  -17.7595   26.9607 C   0  0  0  0  0  0  0  0  0  0  0  0
  -20.1744  -14.2533   29.6111 C   0  0  0  0  0  0  0  0  0  0  0  0
  -20.2567  -13.6485   26.2534 C   0  0  0  0  0  0  0  0  0  0  0  0
  -31.0471  -12.7535   21.5683 C   0  0  0  0  0  0  0  0  0  0  0  0
  -19.9690  -16.9435   36.9293 C   0  0  0  0  0  0  0  0  0  0  0  0
  -20.9449  -17.7402   30.5391 C   0  0  0  0  0  0  0  0  0  0  0  0
  -22.3416  -15.4871   29.2286 C   0  0  0  0  0  0  0  0  0  0  0  0
  -19.6510  -15.8455   35.9176 C   0  0  0  0  0  0  0  0  0  0  0  0
  -29.5200  -13.4706   18.4329 C   0  0  0  0  0  0  0  0  0  0  0  0
  -20.9362  -15.2821   35.3196 C   0  0  0  0  0  0  0  0  0  0  0  0
  -28.0334  -13.2099   18.6820 C   0  0  0  0  0  0  0  0  0  0  0  0
  -30.4014  -12.4814   19.1922 C   0  0  0  0  0  0  0  0  0  0  0  0
  -28.6477  -12.1382   20.8895 C   0  0  0  0  0  0  0  0  0  0  0  0
  -21.7157  -16.3664   34.5659 C   0  0  1  0  0  0  0  0  0  0  0  0
  -20.6603  -16.2899   30.9172 C   0  0  1  0  0  0  0  0  0  0  0  0
  -27.7201  -13.1458   20.1890 C   0  0  2  0  0  0  0  0  0  0  0  0
  -19.1593  -12.2598   24.4745 C   0  0  0  0  0  0  0  0  0  0  0  0
  -21.7347  -11.8089   30.5601 C   0  0  0  0  0  0  0  0  0  0  0  0
  -21.3789  -10.7912   28.3005 C   0  0  0  0  0  0  0  0  0  0  0  0
  -19.4195  -11.3192   29.7512 C   0  0  0  0  0  0  0  0  0  0  0  0
  -19.3110  -16.0475   24.8010 C   0  0  0  0  0  0  0  0  0  0  0  0
  -31.5368  -13.0047   23.9882 C   0  0  0  0  0  0  0  0  0  0  0  0
  -28.7429  -16.6287   26.2946 C   0  0  0  0  0  0  0  0  0  0  0  0
  -26.6337  -17.3935   27.5360 C   0  0  0  0  0  0  0  0  0  1  0  0
  -20.6947  -13.2072   28.6550 C   0  0  1  0  0  0  0  0  0  0  0  0
  -19.1526  -13.5891   25.2132 C   0  0  2  0  0  0  0  0  0  0  0  0
  -20.8196  -11.8070   29.3193 C   0  0  0  0  0  0  0  0  0  0  0  0
  -25.8715  -11.5662   20.6012 N   0  0  0  0  0  0  0  0  0  0  0  0
  -26.2548  -12.8447   20.4438 N   0  0  0  0  0  0  0  0  0  0  0  0
  -21.0158  -15.3483   29.8535 N   0  0  0  0  0  0  0  0  0  0  0  0
  -30.0546  -12.4702   20.6155 N   0  0  0  0  0  0  0  0  0  0  0  0
  -25.4419  -15.0692   20.4050 N   0  0  0  0  0  0  0  0  0  0  0  0
  -21.7293  -12.6166   21.1779 N   0  0  0  0  0  0  0  0  0  0  0  0
  -30.0027  -17.1104   25.7886 N   0  0  0  0  0  0  0  0  0  0  0  0
  -21.1160  -16.6130   33.2721 N   0  0  0  0  0  0  0  0  0  0  0  0
  -19.8125  -13.2410   27.4935 N   0  0  0  0  0  0  0  0  0  0  0  0
  -30.6327  -12.7280   22.8943 N   0  0  0  0  0  0  0  0  0  0  0  0
  -19.3222  -14.6825   24.2149 N   0  3  0  0  0  0  0  0  0  0  0  0
  -22.5244  -14.7460   20.8743 O   0  0  0  0  0  0  0  0  0  0  0  0
  -22.1688  -14.9041   32.0916 O   0  0  0  0  0  0  0  0  0  0  0  0
  -28.4342  -18.9037   27.0359 O   0  0  0  0  0  0  0  0  0  0  0  0
  -19.0595  -14.1079   30.1184 O   0  0  0  0  0  0  0  0  0  0  0  0
  -21.3999  -14.0158   25.9911 O   0  0  0  0  0  0  0  0  0  0  0  0
  -32.2146  -13.0154   21.2598 O   0  0  0  0  0  0  0  0  0  0  0  0
  -30.6124  -15.0018   24.9527 O   0  0  0  0  0  0  0  0  0  0  0  0
  -21.4830   -7.0702   21.6383 O   0  0  0  0  0  0  0  0  0  0  0  0
  -26.0201  -18.5269   28.1486 O   0  0  0  0  0  0  0  0  0  1  0  0
  -23.4518   -3.2698   25.1146 F   0  0  0  0  0  0  0  0  0  0  0  0
  -20.0672   -6.3479   23.9002 F   0  0  0  0  0  0  0  0  0  0  0  0
  -33.7887  -15.1762   23.4142 F   0  0  0  0  0  0  0  0  0  0  0  0
  1  2  1  0  0  0  0
  1  5  2  0  0  0  0
  2  6  2  0  0  0  0
  3  8  2  0  0  0  0
  3 16  1  0  0  0  0
  4  9  1  0  0  0  0
  4 16  2  0  0  0  0
  5 18  1  0  0  0  0
  6 20  1  0  0  0  0
  7 10  2  0  0  0  0
  7 19  1  0  0  0  0
  8 22  1  0  0  0  0
  9 22  2  0  0  0  0
 10 23  1  0  0  0  0
 11 12  2  0  0  0  0
 11 24  1  0  0  0  0
 12 25  1  0  0  0  0
 13 21  1  0  0  0  0
 13 23  2  0  0  0  0
 14 25  2  0  0  0  0
 14 26  1  0  0  0  0
 15 27  1  0  0  0  0
 15 31  2  0  0  0  0
 16 28  1  0  0  0  0
 17 28  1  0  0  0  0
 17 30  2  0  0  0  0
 17 32  1  0  0  0  0
 18 20  2  0  0  0  0
 18 38  1  0  0  0  0
 19 21  2  0  0  0  0
 19 39  1  0  0  0  0
 20 47  1  0  0  0  0
 21 40  1  0  0  0  0
 22 79  1  0  0  0  0
 23 80  1  0  0  0  0
 24 26  2  0  0  0  0
 24 79  1  0  0  0  0
 25 81  1  0  0  0  0
 26 82  1  0  0  0  0
 27 29  2  0  0  0  0
 27 83  1  0  0  0  0
 28 61  2  0  0  0  0
 29 55  1  0  0  0  0
 29 78  1  0  0  0  0
 30 62  1  0  0  0  0
 30 65  1  0  0  0  0
 31 67  1  0  0  0  0
 31 78  1  0  0  0  0
 32 66  1  0  0  0  0
 32 72  2  0  0  0  0
 33 48  1  0  0  0  0
 33 68  1  0  0  0  0
 33 73  2  0  0  0  0
 34 56  1  0  0  0  0
 34 57  1  0  0  0  0
 34 74  2  0  0  0  0
 35 58  1  0  0  0  0
 35 63  1  0  0  0  0
 35 75  2  0  0  0  0
 36 59  1  0  0  0  0
 36 69  1  0  0  0  0
 36 76  2  0  0  0  0
 37 64  1  0  0  0  0
 37 70  1  0  0  0  0
 37 77  2  0  0  0  0
 38 41  1  0  0  0  0
 39 48  1  0  0  0  0
 40 63  1  0  0  0  0
 41 43  1  0  0  0  0
 42 44  1  0  0  0  0
 42 45  1  0  0  0  0
 43 47  1  0  0  0  0
 44 49  1  0  0  0  0
 45 64  1  0  0  0  0
 46 49  1  0  0  0  0
 46 64  1  0  0  0  0
 47 68  1  0  0  0  0
 48 63  1  0  0  0  0
 49 62  1  0  0  0  0
 50 59  1  0  0  0  0
 51 60  1  0  0  0  0
 52 60  1  0  0  0  0
 53 60  1  0  0  0  0
 54 71  1  0  0  0  0
 55 70  1  0  0  0  0
 56 67  1  0  0  0  0
 57 80  1  0  0  0  0
 58 60  1  0  0  0  0
 58 69  1  0  0  0  0
 59 71  1  0  0  0  0
 61 62  1  0  0  0  0
M  CHG  1  71   1
M  ISO  4  37 100  57 101  70 100  80 101
M  END
> <Batch ID>
0162

> <Smiles>
CNC(C)C(=O)NC(C(=O)N1Cc2cc([101O:1][101CH2:1]C(=O)CNc3cc(F)c(C[100NH:0][100C:0](=O)N4CCCC(n5nc(-c6ccc(Oc7ccc(F)cc7F)cc6)c(C(N)=O)c5N)C4)o3)ccc2CC1C(=O)NC1CCCc2ccccc21)C(C)(C)C

> <Shape>
0.142

> <Color>
0.178

> <Negative vol penalty>
0.000

$$$$

  -OEChem-04052303563D

 87 95  0     1  0  0  0  0  0999 V2000
  -28.1400  -33.3492   25.0000 C   0  0  0  0  0  0  0  0  0  0  0  0
  -28.2150  -32.3037   24.0853 C   0  0  0  0  0  0  0  0  0  0  0  0
  -23.3647  -11.6667   16.5689 C   0  0  0  0  0  0  0  0  0  0  0  0
  -22.7715  -10.4540   18.5725 C   0  0  0  0  0  0  0  0  0  0  0  0
  -27.0570  -33.4329   25.8741 C   0  0  0  0  0  0  0  0  0  0  0  0
  -27.2075  -31.3406   24.0449 C   0  0  0  0  0  0  0  0  0  0  0  0
  -25.0938  -28.4297   19.0886 C   0  0  0  0  0  0  0  0  0  0  0  0
  -22.5364  -10.8322   15.8185 C   0  0  0  0  0  0  0  0  0  0  0  0
  -21.9432   -9.6195   17.8221 C   0  0  0  0  0  0  0  0  0  0  0  0
  -25.3666  -27.1722   18.5518 C   0  0  0  0  0  0  0  0  0  0  0  0
  -20.2989   -9.2490   13.4306 C   0  0  0  0  0  0  0  0  0  0  0  0
  -19.4603   -9.8445   12.4885 C   0  0  0  0  0  0  0  0  0  0  0  0
  -23.4305  -26.2777   19.6790 C   0  0  0  0  0  0  0  0  0  0  0  0
  -18.3902  -11.1140   14.2437 C   0  0  0  0  0  0  0  0  0  0  0  0
  -30.0364  -20.6808   19.2790 C   0  0  0  0  0  0  0  0  0  0  0  0
  -23.4823  -11.4776   17.9459 C   0  0  0  0  0  0  0  0  0  0  0  0
  -23.9838  -13.5484   19.3488 C   0  0  0  0  0  0  0  0  0  0  0  0
  -26.0308  -32.4757   25.8378 C   0  0  0  0  0  0  0  0  0  0  0  0
  -23.9917  -28.6185   19.9348 C   0  0  0  0  0  0  0  0  0  0  0  0
  -26.1104  -31.4108   24.9202 C   0  0  0  0  0  0  0  0  0  0  0  0
  -23.1445  -27.5391   20.2232 C   0  0  0  0  0  0  0  0  0  0  0  0
  -28.7704  -18.8650   19.0025 C   0  0  0  0  0  0  0  0  0  0  0  0
  -28.7642  -20.2792   18.9441 C   0  0  0  0  0  0  0  0  0  0  0  0
  -21.8256   -9.8086   16.4451 C   0  0  0  0  0  0  0  0  0  0  0  0
  -24.5366  -26.0953   18.8493 C   0  0  0  0  0  0  0  0  0  0  0  0
  -20.1832   -9.5858   14.7793 C   0  0  0  0  0  0  0  0  0  0  0  0
  -18.5060  -10.7771   12.8950 C   0  0  0  0  0  0  0  0  0  0  0  0
  -19.2288  -10.5184   15.1858 C   0  0  0  0  0  0  0  0  0  0  0  0
  -24.3383  -12.3389   18.7215 C   0  0  0  0  0  0  0  0  0  0  0  0
  -30.0460  -18.5034   19.3687 C   0  0  0  0  0  0  0  0  0  0  0  0
  -25.1421  -13.9751   19.9510 C   0  0  0  0  0  0  0  0  0  0  0  0
  -30.6655  -17.1854   19.5945 C   0  0  0  0  0  0  0  0  0  0  0  0
  -25.9998  -24.2840   18.6284 C   0  0  0  0  0  0  0  0  0  1  0  0
  -22.7205  -14.2254   19.3840 C   0  0  0  0  0  0  0  0  0  0  0  0
  -26.3636  -23.0801   18.1704 C   0  0  0  0  0  0  0  0  0  0  0  0
  -27.7017  -22.5273   18.5602 C   0  0  0  0  0  0  0  0  0  0  0  0
  -23.6146  -29.5181   22.9601 C   0  0  0  0  0  0  0  0  0  0  0  0
  -20.4663  -29.4406   22.1828 C   0  0  0  0  0  0  0  0  0  0  0  0
  -18.0116  -28.2077   20.1577 C   0  0  0  0  0  0  0  0  0  0  0  0
  -30.6423  -14.8872   19.6889 C   0  0  0  0  0  0  0  0  0  0  0  0
  -24.9038  -32.5815   26.8345 C   0  0  0  0  0  0  0  0  0  0  0  0
  -23.6958  -29.9870   20.4843 C   0  0  0  0  0  0  0  0  0  0  0  0
  -21.9369  -27.6937   21.1100 C   0  0  0  0  0  0  0  0  0  0  0  0
  -23.6897  -31.7294   26.4738 C   0  0  0  0  0  0  0  0  0  0  0  0
  -29.5398  -11.6083   20.7079 C   0  0  0  0  0  0  0  0  0  0  0  0
  -24.1247  -30.3242   26.0701 C   0  0  0  0  0  0  0  0  0  0  0  0
  -28.0667  -11.5952   20.3002 C   0  0  0  0  0  0  0  0  0  0  0  0
  -30.3870  -12.4058   19.7210 C   0  0  0  0  0  0  0  0  0  0  0  0
  -28.4302  -13.7949   19.0965 C   0  0  0  0  0  0  0  0  0  0  0  0
  -25.0247  -30.3605   24.8291 C   0  0  1  0  0  0  0  0  0  0  0  0
  -22.8409  -29.9518   21.7473 C   0  0  1  0  0  0  0  0  0  0  0  0
  -27.5394  -13.0253   20.0866 C   0  0  1  0  0  0  0  0  0  0  0  0
  -15.5308  -28.2977   19.7903 C   0  0  0  0  0  0  0  0  0  0  0  0
  -20.0463  -27.6092   24.5869 C   0  0  0  0  0  0  0  0  0  0  0  0
  -17.8174  -26.9840   23.6331 C   0  0  0  0  0  0  0  0  0  0  0  0
  -18.2766  -29.3493   24.2792 C   0  0  0  0  0  0  0  0  0  0  0  0
  -18.3383  -29.3167   17.4333 C   0  0  0  0  0  0  0  0  0  0  0  0
  -19.3821  -28.3907   22.2175 C   0  0  1  0  0  0  0  0  0  0  0  0
  -16.8788  -28.8937   19.4156 C   0  0  2  0  0  0  0  0  0  0  0  0
  -27.6380  -17.9591   18.7279 C   0  0  0  0  0  0  0  0  0  0  0  0
  -18.9044  -28.0796   23.6640 C   0  0  0  0  0  0  0  0  0  0  0  0
  -25.6214  -12.0182   18.9078 N   0  0  0  0  0  0  0  0  0  0  0  0
  -29.9967  -16.0872   19.4598 N   0  0  0  0  0  0  0  0  0  0  0  0
  -26.0834  -13.0323   19.6589 N   0  0  0  0  0  0  0  0  0  0  0  0
  -21.6933  -29.0500   21.6280 N   0  0  0  0  0  0  0  0  0  0  0  0
  -29.8363  -13.7465   19.5186 N   0  0  0  0  0  0  0  0  0  0  0  0
  -25.4372  -15.0612   20.6966 N   0  0  0  0  0  0  0  0  0  0  0  0
  -21.6342  -13.6484   18.7122 N   0  0  0  0  0  0  0  0  0  0  0  0
  -27.6900  -21.1403   18.6140 N   0  0  0  0  0  0  0  0  0  0  0  0
  -24.2309  -30.5547   23.6346 N   0  0  0  0  0  0  0  0  0  0  0  0
  -18.3267  -28.8643   21.3285 N   0  0  0  0  0  0  0  0  0  0  0  0
  -17.0628  -28.7514   17.9436 N   0  3  0  0  0  0  0  0  0  0  0  0
  -22.5638  -15.3183   19.9794 O   0  0  0  0  0  0  0  0  0  0  0  0
  -28.6486  -23.2721   18.7894 O   0  0  0  0  0  0  0  0  0  0  0  0
  -23.6488  -28.3310   23.2624 O   0  0  0  0  0  0  0  0  0  0  0  0
  -20.2309  -30.5678   22.6249 O   0  0  0  0  0  0  0  0  0  0  0  0
  -18.5594  -27.1889   19.7423 O   0  0  0  0  0  0  0  0  0  0  0  0
  -31.8291  -14.7956   20.0116 O   0  0  0  0  0  0  0  0  0  0  0  0
  -30.8239  -19.6044   19.5391 O   0  0  0  0  0  0  0  0  0  0  0  0
  -25.5526  -22.3219   17.3505 O   0  0  0  0  0  0  0  0  0  0  0  0
  -21.0170   -8.9943   15.7133 O   0  0  0  0  0  0  0  0  0  0  0  0
  -24.8009  -24.8668   18.3272 O   0  0  0  0  0  0  0  0  0  1  0  0
  -17.7017  -11.3501   11.9900 F   0  0  0  0  0  0  0  0  0  0  0  0
  -19.1137  -10.8469   16.4798 F   0  0  0  0  0  0  0  0  0  0  0  0
  -26.4750  -18.6004   18.3827 F   0  0  0  0  0  0  0  0  0  0  0  0
  -27.8600  -17.0772   17.7003 F   0  0  0  0  0  0  0  0  0  0  0  0
  -27.3019  -17.1735   19.7999 F   0  0  0  0  0  0  0  0  0  0  0  0
  1  2  1  0  0  0  0
  1  5  2  0  0  0  0
  2  6  2  0  0  0  0
  3  8  2  0  0  0  0
  3 16  1  0  0  0  0
  4  9  1  0  0  0  0
  4 16  2  0  0  0  0
  5 18  1  0  0  0  0
  6 20  1  0  0  0  0
  7 10  2  0  0  0  0
  7 19  1  0  0  0  0
  8 24  1  0  0  0  0
  9 24  2  0  0  0  0
 10 25  1  0  0  0  0
 11 12  2  0  0  0  0
 11 26  1  0  0  0  0
 12 27  1  0  0  0  0
 13 21  1  0  0  0  0
 13 25  2  0  0  0  0
 14 27  2  0  0  0  0
 14 28  1  0  0  0  0
 15 23  2  0  0  0  0
 15 79  1  0  0  0  0
 16 29  1  0  0  0  0
 17 29  1  0  0  0  0
 17 31  2  0  0  0  0
 17 34  1  0  0  0  0
 18 20  2  0  0  0  0
 18 41  1  0  0  0  0
 19 21  2  0  0  0  0
 19 42  1  0  0  0  0
 20 50  1  0  0  0  0
 21 43  1  0  0  0  0
 22 23  1  0  0  0  0
 22 30  2  0  0  0  0
 22 60  1  0  0  0  0
 23 69  1  0  0  0  0
 24 81  1  0  0  0  0
 25 82  1  0  0  0  0
 26 28  2  0  0  0  0
 26 81  1  0  0  0  0
 27 83  1  0  0  0  0
 28 84  1  0  0  0  0
 29 62  2  0  0  0  0
 30 32  1  0  0  0  0
 30 79  1  0  0  0  0
 31 64  1  0  0  0  0
 31 67  1  0  0  0  0
 32 63  2  0  0  0  0
 33 35  2  0  0  0  0
 33 82  1  0  0  0  0
 34 68  1  0  0  0  0
 34 73  2  0  0  0  0
 35 36  1  0  0  0  0
 35 80  1  0  0  0  0
 36 69  1  0  0  0  0
 36 74  2  0  0  0  0
 37 51  1  0  0  0  0
 37 70  1  0  0  0  0
 37 75  2  0  0  0  0
 38 58  1  0  0  0  0
 38 65  1  0  0  0  0
 38 76  2  0  0  0  0
 39 59  1  0  0  0  0
 39 71  1  0  0  0  0
 39 77  2  0  0  0  0
 40 63  1  0  0  0  0
 40 66  1  0  0  0  0
 40 78  2  0  0  0  0
 41 44  1  0  0  0  0
 42 51  1  0  0  0  0
 43 65  1  0  0  0  0
 44 46  1  0  0  0  0
 45 47  1  0  0  0  0
 45 48  1  0  0  0  0
 46 50  1  0  0  0  0
 47 52  1  0  0  0  0
 48 66  1  0  0  0  0
 49 52  1  0  0  0  0
 49 66  1  0  0  0  0
 50 70  1  0  0  0  0
 51 65  1  0  0  0  0
 52 64  1  0  0  0  0
 53 59  1  0  0  0  0
 54 61  1  0  0  0  0
 55 61  1  0  0  0  0
 56 61  1  0  0  0  0
 57 72  1  0  0  0  0
 58 61  1  0  0  0  0
 58 71  1  0  0  0  0
 59 72  1  0  0  0  0
 60 85  1  0  0  0  0
 60 86  1  0  0  0  0
 60 87  1  0  0  0  0
 62 64  1  0  0  0  0
M  CHG  1  72   1
M  ISO  4  33 101  40 100  63 100  82 101
M  END
> <Batch ID>
0162

> <Smiles>
CNC(C)C(=O)NC(C(=O)N1Cc2cc([101O:1][101CH2:1]C(=O)C(=O)Nc3coc(C=[100N:0][100C:0](=O)N4CCCC(n5nc(-c6ccc(Oc7ccc(F)cc7F)cc6)c(C(N)=O)c5N)C4)c3C(F)(F)F)ccc2CC1C(=O)NC1CCCc2ccccc21)C(C)(C)C

> <Shape>
0.257

> <Color>
0.112

> <Negative vol penalty>
0.000

$$$$

  -OEChem-04052303563D

 87 96  0     1  0  0  0  0  0999 V2000
  -18.3135  -25.6349   19.7080 C   0  0  0  0  0  0  0  0  0  0  0  0
  -19.2441  -24.7508   20.2445 C   0  0  0  0  0  0  0  0  0  0  0  0
  -23.1148   -9.8253   19.8895 C   0  0  0  0  0  0  0  0  0  0  0  0
  -23.9471   -9.7246   22.1554 C   0  0  0  0  0  0  0  0  0  0  0  0
  -18.2199  -26.9337   20.2061 C   0  0  0  0  0  0  0  0  0  0  0  0
  -20.0824  -25.1654   21.2788 C   0  0  0  0  0  0  0  0  0  0  0  0
  -22.1371  -21.7655   25.9397 C   0  0  0  0  0  0  0  0  0  0  0  0
  -22.4252   -8.6295   20.0896 C   0  0  0  0  0  0  0  0  0  0  0  0
  -23.2574   -8.5288   22.3555 C   0  0  0  0  0  0  0  0  0  0  0  0
  -23.3432  -21.1002   26.1551 C   0  0  0  0  0  0  0  0  0  0  0  0
  -19.5586   -7.6258   21.5756 C   0  0  0  0  0  0  0  0  0  0  0  0
  -18.2396   -7.5553   21.1274 C   0  0  0  0  0  0  0  0  0  0  0  0
  -24.1543  -22.9909   27.4147 C   0  0  0  0  0  0  0  0  0  0  0  0
  -29.7140  -17.4811   23.3473 C   0  0  0  0  0  0  0  0  0  0  0  0
  -31.9095  -16.7600   22.6425 C   0  0  0  0  0  0  0  0  0  0  0  0
  -18.8324   -5.7206   19.6715 C   0  0  0  0  0  0  0  0  0  0  0  0
  -23.8758  -10.3728   20.9224 C   0  0  0  0  0  0  0  0  0  0  0  0
  -24.1142  -12.9125   20.9487 C   0  0  0  0  0  0  0  0  0  0  0  0
  -19.0508  -27.3615   21.2535 C   0  0  0  0  0  0  0  0  0  0  0  0
  -21.9343  -23.0551   26.4518 C   0  0  0  0  0  0  0  0  0  0  0  0
  -20.0007  -26.4716   21.7905 C   0  0  0  0  0  0  0  0  0  0  0  0
  -22.9438  -23.6694   27.2066 C   0  0  0  0  0  0  0  0  0  0  0  0
  -31.6837  -18.3967   24.4052 C   0  0  0  0  0  0  0  0  0  0  0  0
  -30.5211  -16.6952   22.5248 C   0  0  0  0  0  0  0  0  0  0  0  0
  -30.2953  -18.3320   24.2875 C   0  0  0  0  0  0  0  0  0  0  0  0
  -22.4964   -7.9812   21.3226 C   0  0  0  0  0  0  0  0  0  0  0  0
  -24.3531  -21.7140   26.8903 C   0  0  0  0  0  0  0  0  0  0  0  0
  -20.5145   -6.7437   21.0718 C   0  0  0  0  0  0  0  0  0  0  0  0
  -17.8765   -6.6027   20.1754 C   0  0  0  0  0  0  0  0  0  0  0  0
  -32.4908  -17.6108   23.5827 C   0  0  0  0  0  0  0  0  0  0  0  0
  -20.1514   -5.7911   20.1197 C   0  0  0  0  0  0  0  0  0  0  0  0
  -24.5888  -11.6078   20.7161 C   0  0  0  0  0  0  0  0  0  0  0  0
  -25.1638  -13.7270   20.6002 C   0  0  0  0  0  0  0  0  0  0  0  0
  -22.8385  -13.3493   21.4362 C   0  0  0  0  0  0  0  0  0  0  0  0
  -21.3680  -25.9114   25.1771 C   0  0  0  0  0  0  0  0  0  0  0  0
  -27.4703  -20.0550   26.0574 C   0  0  0  0  0  0  0  0  0  0  0  0
  -21.0154  -26.7936   28.2787 C   0  0  0  0  0  0  0  0  0  0  0  0
  -21.7280  -26.1906   31.5613 C   0  0  0  0  0  0  0  0  0  0  0  0
  -30.5876  -14.9841   20.6770 C   0  0  0  0  0  0  0  0  0  0  0  0
  -18.9452  -28.7896   21.7269 C   0  0  0  0  0  0  0  0  0  0  0  0
  -20.6176  -23.7487   26.2333 C   0  0  0  0  0  0  0  0  0  0  0  0
  -22.7684  -25.0447   27.7952 C   0  0  0  0  0  0  0  0  0  0  0  0
  -19.6136  -29.0346   23.0773 C   0  0  0  0  0  0  0  0  0  0  0  0
  -33.6714  -20.9975   25.9009 C   0  0  0  0  0  0  0  0  0  0  0  0
  -29.4933  -12.6744   18.1981 C   0  0  0  0  0  0  0  0  0  0  0  0
  -33.9110  -19.5536   25.4202 C   0  0  0  0  0  0  0  0  0  0  0  0
  -32.2755  -20.8974   25.2562 C   0  0  0  0  0  0  0  0  0  0  0  0
  -20.9987  -28.3967   23.1110 C   0  0  0  0  0  0  0  0  0  0  0  0
  -28.0807  -12.2984   18.6514 C   0  0  0  0  0  0  0  0  0  0  0  0
  -30.4368  -12.8675   19.3840 C   0  0  0  0  0  0  0  0  0  0  0  0
  -28.5482  -13.4278   20.8633 C   0  0  0  0  0  0  0  0  0  0  0  0
  -32.3656  -19.3555   25.4656 C   0  0  0  0  0  0  0  0  0  0  0  0
  -20.9106  -26.8765   22.9299 C   0  0  1  0  0  0  0  0  0  0  0  0
  -20.7122  -25.2656   26.3648 C   0  0  1  0  0  0  0  0  0  0  0  0
  -27.5456  -13.2864   19.7064 C   0  0  2  0  0  0  0  0  0  0  0  0
  -21.3304  -27.1060   33.8638 C   0  0  0  0  0  0  0  0  0  0  0  0
  -23.0658  -28.9919   27.7562 C   0  0  0  0  0  0  0  0  0  0  0  0
  -23.3308  -29.2372   30.2336 C   0  0  0  0  0  0  0  0  0  0  0  0
  -21.1225  -29.6917   29.1662 C   0  0  0  0  0  0  0  0  0  0  0  0
  -20.3423  -23.7236   32.4288 C   0  0  0  0  0  0  0  0  0  0  0  0
  -28.0404  -19.0957   25.0343 C   0  0  0  0  0  0  0  0  0  0  0  0
  -25.9573  -20.1482   26.0961 C   0  0  0  0  0  0  0  0  0  1  0  0
  -21.9401  -27.3068   29.3560 C   0  0  1  0  0  0  0  0  0  0  0  0
  -20.8412  -26.1438   32.7925 C   0  0  2  0  0  0  0  0  0  0  0  0
  -22.3691  -28.7818   29.1154 C   0  0  0  0  0  0  0  0  0  0  0  0
  -25.8424  -11.5896   20.2553 N   0  0  0  0  0  0  0  0  0  0  0  0
  -26.1643  -12.8930   20.1955 N   0  0  0  0  0  0  0  0  0  0  0  0
  -21.4655  -25.6844   27.5486 N   0  0  0  0  0  0  0  0  0  0  0  0
  -29.8663  -13.8194   20.3396 N   0  0  0  0  0  0  0  0  0  0  0  0
  -25.3194  -15.0679   20.6035 N   0  0  0  0  0  0  0  0  0  0  0  0
  -21.8745  -12.3805   21.7464 N   0  0  0  0  0  0  0  0  0  0  0  0
  -29.9310  -15.8305   21.5699 N   0  0  0  0  0  0  0  0  0  0  0  0
  -29.4795  -19.1082   25.0981 N   0  0  0  0  0  0  0  0  0  0  0  0
  -20.4912  -26.2442   24.1623 N   0  0  0  0  0  0  0  0  0  0  0  0
  -21.2536  -27.0834   30.6237 N   0  0  0  0  0  0  0  0  0  0  0  0
  -20.8252  -24.7690   33.3674 N   0  3  0  0  0  0  0  0  0  0  0  0
  -22.5561  -14.5634   21.5765 O   0  0  0  0  0  0  0  0  0  0  0  0
  -22.5795  -26.0955   25.1818 O   0  0  0  0  0  0  0  0  0  0  0  0
  -28.1781  -20.7203   26.8125 O   0  0  0  0  0  0  0  0  0  0  0  0
  -19.9304  -27.3516   28.0967 O   0  0  0  0  0  0  0  0  0  0  0  0
  -22.7424  -25.5065   31.4447 O   0  0  0  0  0  0  0  0  0  0  0  0
  -31.6935  -15.2272   20.1875 O   0  0  0  0  0  0  0  0  0  0  0  0
  -21.8235   -6.8145   21.5183 O   0  0  0  0  0  0  0  0  0  0  0  0
  -25.5316  -21.0671   27.1015 O   0  0  0  0  0  0  0  0  0  1  0  0
  -16.6095   -6.5341   19.7462 F   0  0  0  0  0  0  0  0  0  0  0  0
  -33.8257  -17.6666   23.6889 F   0  0  0  0  0  0  0  0  0  0  0  0
  -21.0651   -4.9403   19.6329 F   0  0  0  0  0  0  0  0  0  0  0  0
  1  2  1  0  0  0  0
  1  5  2  0  0  0  0
  2  6  2  0  0  0  0
  3  8  2  0  0  0  0
  3 17  1  0  0  0  0
  4  9  1  0  0  0  0
  4 17  2  0  0  0  0
  5 19  1  0  0  0  0
  6 21  1  0  0  0  0
  7 10  2  0  0  0  0
  7 20  1  0  0  0  0
  8 26  1  0  0  0  0
  9 26  2  0  0  0  0
 10 27  1  0  0  0  0
 11 12  2  0  0  0  0
 11 28  1  0  0  0  0
 12 29  1  0  0  0  0
 13 22  1  0  0  0  0
 13 27  2  0  0  0  0
 14 24  2  0  0  0  0
 14 25  1  0  0  0  0
 15 24  1  0  0  0  0
 15 30  2  0  0  0  0
 16 29  2  0  0  0  0
 16 31  1  0  0  0  0
 17 32  1  0  0  0  0
 18 32  1  0  0  0  0
 18 33  2  0  0  0  0
 18 34  1  0  0  0  0
 19 21  2  0  0  0  0
 19 40  1  0  0  0  0
 20 22  2  0  0  0  0
 20 41  1  0  0  0  0
 21 53  1  0  0  0  0
 22 42  1  0  0  0  0
 23 25  2  0  0  0  0
 23 30  1  0  0  0  0
 23 52  1  0  0  0  0
 24 72  1  0  0  0  0
 25 73  1  0  0  0  0
 26 83  1  0  0  0  0
 27 84  1  0  0  0  0
 28 31  2  0  0  0  0
 28 83  1  0  0  0  0
 29 85  1  0  0  0  0
 30 86  1  0  0  0  0
 31 87  1  0  0  0  0
 32 66  2  0  0  0  0
 33 67  1  0  0  0  0
 33 70  1  0  0  0  0
 34 71  1  0  0  0  0
 34 77  2  0  0  0  0
 35 54  1  0  0  0  0
 35 74  1  0  0  0  0
 35 78  2  0  0  0  0
 36 61  1  0  0  0  0
 36 62  1  0  0  0  0
 36 79  2  0  0  0  0
 37 63  1  0  0  0  0
 37 68  1  0  0  0  0
 37 80  2  0  0  0  0
 38 64  1  0  0  0  0
 38 75  1  0  0  0  0
 38 81  2  0  0  0  0
 39 69  1  0  0  0  0
 39 72  1  0  0  0  0
 39 82  2  0  0  0  0
 40 43  1  0  0  0  0
 41 54  1  0  0  0  0
 42 68  1  0  0  0  0
 43 48  1  0  0  0  0
 44 46  1  0  0  0  0
 44 47  1  0  0  0  0
 45 49  1  0  0  0  0
 45 50  1  0  0  0  0
 46 52  1  0  0  0  0
 47 52  1  0  0  0  0
 48 53  1  0  0  0  0
 49 55  1  0  0  0  0
 50 69  1  0  0  0  0
 51 55  1  0  0  0  0
 51 69  1  0  0  0  0
 53 74  1  0  0  0  0
 54 68  1  0  0  0  0
 55 67  1  0  0  0  0
 56 64  1  0  0  0  0
 57 65  1  0  0  0  0
 58 65  1  0  0  0  0
 59 65  1  0  0  0  0
 60 76  1  0  0  0  0
 61 73  1  0  0  0  0
 62 84  1  0  0  0  0
 63 65  1  0  0  0  0
 63 75  1  0  0  0  0
 64 76  1  0  0  0  0
 66 67  1  0  0  0  0
M  CHG  1  76   1
M  ISO  4  39 100  62 101  72 100  84 101
M  END
> <Batch ID>
0162

> <Smiles>
CNC(C)C(=O)NC(C(=O)N1Cc2cc([101O:1][101CH2:1]C(=O)CNc3cc([100NH:0][100C:0](=O)N4CCCC(n5nc(-c6ccc(Oc7ccc(F)cc7F)cc6)c(C(N)=O)c5N)C4)cc(F)c3C3CCC3)ccc2CC1C(=O)NC1CCCc2ccccc21)C(C)(C)C

> <Shape>
0.196

> <Color>
0.191

> <Negative vol penalty>
0.000

$$$$

  -OEChem-04052303563D

 86 95  0     1  0  0  0  0  0999 V2000
  -28.3687  -38.4148   23.3713 C   0  0  0  0  0  0  0  0  0  0  0  0
  -28.9232  -37.3133   24.0152 C   0  0  0  0  0  0  0  0  0  0  0  0
  -23.1852   -9.8525   20.3134 C   0  0  0  0  0  0  0  0  0  0  0  0
  -24.8158   -8.3908   21.3341 C   0  0  0  0  0  0  0  0  0  0  0  0
  -26.9840  -38.5292   23.2558 C   0  0  0  0  0  0  0  0  0  0  0  0
  -28.0932  -36.3259   24.5449 C   0  0  0  0  0  0  0  0  0  0  0  0
  -28.6312  -29.4760   22.3814 C   0  0  0  0  0  0  0  0  0  0  0  0
  -22.2157   -9.3939   21.2052 C   0  0  0  0  0  0  0  0  0  0  0  0
  -23.8463   -7.9322   22.2260 C   0  0  0  0  0  0  0  0  0  0  0  0
  -28.8146  -28.1087   22.1738 C   0  0  0  0  0  0  0  0  0  0  0  0
  -21.2573   -5.7581   22.1900 C   0  0  0  0  0  0  0  0  0  0  0  0
  -21.1787   -4.3831   22.4110 C   0  0  0  0  0  0  0  0  0  0  0  0
  -26.9366  -27.6266   23.6191 C   0  0  0  0  0  0  0  0  0  0  0  0
  -21.6325   -4.7343   24.7579 C   0  0  0  0  0  0  0  0  0  0  0  0
  -30.1104  -17.4059   19.9801 C   0  0  0  0  0  0  0  0  0  0  0  0
  -27.7883  -17.2685   19.7670 C   0  0  0  0  0  0  0  0  0  0  0  0
  -24.4852   -9.3509   20.3778 C   0  0  0  0  0  0  0  0  0  0  0  0
  -25.4584   -9.7375   18.0516 C   0  0  0  0  0  0  0  0  0  0  0  0
  -26.1369  -37.5379   23.7758 C   0  0  0  0  0  0  0  0  0  0  0  0
  -27.5890  -29.9249   23.1973 C   0  0  0  0  0  0  0  0  0  0  0  0
  -26.6958  -36.4278   24.4373 C   0  0  0  0  0  0  0  0  0  0  0  0
  -26.7404  -28.9954   23.8208 C   0  0  0  0  0  0  0  0  0  0  0  0
  -28.9893  -16.6042   19.9100 C   0  0  0  0  0  0  0  0  0  0  0  0
  -22.5463   -8.4337   22.1615 C   0  0  0  0  0  0  0  0  0  0  0  0
  -27.9695  -27.1864   22.7914 C   0  0  0  0  0  0  0  0  0  0  0  0
  -21.5236   -6.6212   23.2530 C   0  0  0  0  0  0  0  0  0  0  0  0
  -21.3662   -3.8712   23.6949 C   0  0  0  0  0  0  0  0  0  0  0  0
  -21.7112   -6.1093   24.5369 C   0  0  0  0  0  0  0  0  0  0  0  0
  -25.4870   -9.8239   19.4564 C   0  0  0  0  0  0  0  0  0  0  0  0
  -26.6317  -10.3261   17.6474 C   0  0  0  0  0  0  0  0  0  0  0  0
  -28.8432  -19.2820   19.7763 C   0  0  0  0  0  0  0  0  0  0  0  0
  -24.4604   -9.1755   17.1891 C   0  0  0  0  0  0  0  0  0  0  0  0
  -28.1766  -24.1045   20.9090 C   0  0  0  0  0  0  0  0  0  0  0  0
  -25.7801  -32.8565   24.6837 C   0  0  0  0  0  0  0  0  0  0  0  0
  -23.6432  -30.8170   23.8564 C   0  0  0  0  0  0  0  0  0  0  0  0
  -21.5911  -28.4989   22.4236 C   0  0  0  0  0  0  0  0  0  0  0  0
  -30.2144  -14.4139   20.1291 C   0  0  0  0  0  0  0  0  0  0  0  0
  -24.6447  -37.7286   23.6682 C   0  0  0  0  0  0  0  0  0  0  0  0
  -27.3922  -31.3859   23.4983 C   0  0  0  0  0  0  0  0  0  0  0  0
  -25.6540  -29.5228   24.7178 C   0  0  0  0  0  0  0  0  0  0  0  0
  -23.8473  -36.4529   23.9270 C   0  0  0  0  0  0  0  0  0  0  0  0
  -31.1203  -11.1236   19.1141 C   0  0  0  0  0  0  0  0  0  0  0  0
  -24.3646  -35.7440   25.1747 C   0  0  0  0  0  0  0  0  0  0  0  0
  -29.7757  -10.4108   18.9529 C   0  0  0  0  0  0  0  0  0  0  0  0
  -27.6091  -22.7056   18.9135 C   0  0  0  0  0  0  0  0  0  0  0  0
  -29.9787  -22.8203   19.7688 C   0  0  0  0  0  0  0  0  0  0  0  0
  -31.1073  -12.1004   20.2886 C   0  0  0  0  0  0  0  0  0  0  0  0
  -27.4596  -21.3228   19.5515 C   0  0  0  0  0  0  0  0  0  0  0  0
  -29.7913  -21.4495   20.4184 C   0  0  0  0  0  0  0  0  0  0  0  0
  -28.6639  -12.3618   20.1125 C   0  0  0  0  0  0  0  0  0  0  0  0
  -25.8293  -35.3236   25.0031 C   0  0  1  0  0  0  0  0  0  0  0  0
  -28.6640  -23.5774   19.5912 C   0  0  0  0  0  0  0  0  0  0  0  0
  -25.9111  -31.7765   23.6504 C   0  0  1  0  0  0  0  0  0  0  0  0
  -28.6078  -11.4154   18.9022 C   0  0  2  0  0  0  0  0  0  0  0  0
  -19.1643  -27.9680   22.0684 C   0  0  0  0  0  0  0  0  0  0  0  0
  -23.4220  -29.9039   26.7584 C   0  0  0  0  0  0  0  0  0  0  0  0
  -21.4112  -28.5613   26.1084 C   0  0  0  0  0  0  0  0  0  0  0  0
  -21.3832  -31.0438   25.8647 C   0  0  0  0  0  0  0  0  0  0  0  0
  -21.8756  -28.6213   19.4803 C   0  0  0  0  0  0  0  0  0  0  0  0
  -28.6987  -25.4642   21.3217 C   0  0  0  0  0  0  0  0  0  1  0  0
  -22.7732  -29.6576   24.2715 C   0  0  1  0  0  0  0  0  0  0  0  0
  -20.3993  -28.6453   21.4949 C   0  0  2  0  0  0  0  0  0  0  0  0
  -22.2723  -29.7876   25.7377 C   0  0  0  0  0  0  0  0  0  0  0  0
  -30.0737  -18.7530   19.9162 N   0  0  0  0  0  0  0  0  0  0  0  0
  -27.6781  -18.6114   19.6966 N   0  0  0  0  0  0  0  0  0  0  0  0
  -26.5910  -10.4202   19.9140 N   0  0  0  0  0  0  0  0  0  0  0  0
  -27.2672  -10.7138   18.7903 N   0  0  0  0  0  0  0  0  0  0  0  0
  -28.7668  -20.6780   19.7040 N   0  0  0  0  0  0  0  0  0  0  0  0
  -25.0168  -30.6957   24.0990 N   0  0  0  0  0  0  0  0  0  0  0  0
  -29.9766  -13.0238   20.1710 N   0  0  0  0  0  0  0  0  0  0  0  0
  -27.1716  -10.5445   16.4296 N   0  0  0  0  0  0  0  0  0  0  0  0
  -23.3164   -8.6113   17.7697 N   0  0  0  0  0  0  0  0  0  0  0  0
  -29.0659  -15.1912   19.9831 N   0  0  0  0  0  0  0  0  0  0  0  0
  -25.9213  -34.1360   24.1811 N   0  0  0  0  0  0  0  0  0  0  0  0
  -21.7057  -29.5730   23.2807 N   0  0  0  0  0  0  0  0  0  0  0  0
  -20.6976  -28.0339   20.1690 N   0  3  0  0  0  0  0  0  0  0  0  0
  -24.5873   -9.1591   15.9412 O   0  0  0  0  0  0  0  0  0  0  0  0
  -27.3963  -23.4583   21.6067 O   0  0  0  0  0  0  0  0  0  0  0  0
  -25.5651  -32.5528   25.8512 O   0  0  0  0  0  0  0  0  0  0  0  0
  -23.1209  -31.8070   23.3363 O   0  0  0  0  0  0  0  0  0  0  0  0
  -22.3429  -27.5271   22.3944 O   0  0  0  0  0  0  0  0  0  0  0  0
  -31.3555  -14.8792   20.1890 O   0  0  0  0  0  0  0  0  0  0  0  0
  -21.6006   -7.9861   23.0321 O   0  0  0  0  0  0  0  0  0  0  0  0
  -28.1513  -25.8532   22.5808 O   0  0  0  0  0  0  0  0  0  1  0  0
  -21.2891   -2.5509   23.9072 F   0  0  0  0  0  0  0  0  0  0  0  0
  -21.9661   -6.9337   25.5622 F   0  0  0  0  0  0  0  0  0  0  0  0
  1  2  1  0  0  0  0
  1  5  2  0  0  0  0
  2  6  2  0  0  0  0
  3  8  2  0  0  0  0
  3 17  1  0  0  0  0
  4  9  1  0  0  0  0
  4 17  2  0  0  0  0
  5 19  1  0  0  0  0
  6 21  1  0  0  0  0
  7 10  2  0  0  0  0
  7 20  1  0  0  0  0
  8 24  1  0  0  0  0
  9 24  2  0  0  0  0
 10 25  1  0  0  0  0
 11 12  2  0  0  0  0
 11 26  1  0  0  0  0
 12 27  1  0  0  0  0
 13 22  1  0  0  0  0
 13 25  2  0  0  0  0
 14 27  2  0  0  0  0
 14 28  1  0  0  0  0
 15 23  1  0  0  0  0
 15 64  2  0  0  0  0
 16 23  2  0  0  0  0
 16 65  1  0  0  0  0
 17 29  1  0  0  0  0
 18 29  1  0  0  0  0
 18 30  2  0  0  0  0
 18 32  1  0  0  0  0
 19 21  2  0  0  0  0
 19 38  1  0  0  0  0
 20 22  2  0  0  0  0
 20 39  1  0  0  0  0
 21 51  1  0  0  0  0
 22 40  1  0  0  0  0
 23 73  1  0  0  0  0
 24 83  1  0  0  0  0
 25 84  1  0  0  0  0
 26 28  2  0  0  0  0
 26 83  1  0  0  0  0
 27 85  1  0  0  0  0
 28 86  1  0  0  0  0
 29 66  2  0  0  0  0
 30 67  1  0  0  0  0
 30 71  1  0  0  0  0
 31 64  1  0  0  0  0
 31 65  2  0  0  0  0
 31 68  1  0  0  0  0
 32 72  1  0  0  0  0
 32 77  2  0  0  0  0
 33 52  1  0  0  0  0
 33 60  1  0  0  0  0
 33 78  2  0  0  0  0
 34 53  1  0  0  0  0
 34 74  1  0  0  0  0
 34 79  2  0  0  0  0
 35 61  1  0  0  0  0
 35 69  1  0  0  0  0
 35 80  2  0  0  0  0
 36 62  1  0  0  0  0
 36 75  1  0  0  0  0
 36 81  2  0  0  0  0
 37 70  1  0  0  0  0
 37 73  1  0  0  0  0
 37 82  2  0  0  0  0
 38 41  1  0  0  0  0
 39 53  1  0  0  0  0
 40 69  1  0  0  0  0
 41 43  1  0  0  0  0
 42 44  1  0  0  0  0
 42 47  1  0  0  0  0
 43 51  1  0  0  0  0
 44 54  1  0  0  0  0
 45 48  1  0  0  0  0
 45 52  1  0  0  0  0
 46 49  1  0  0  0  0
 46 52  1  0  0  0  0
 47 70  1  0  0  0  0
 48 68  1  0  0  0  0
 49 68  1  0  0  0  0
 50 54  1  0  0  0  0
 50 70  1  0  0  0  0
 51 74  1  0  0  0  0
 53 69  1  0  0  0  0
 54 67  1  0  0  0  0
 55 62  1  0  0  0  0
 56 63  1  0  0  0  0
 57 63  1  0  0  0  0
 58 63  1  0  0  0  0
 59 76  1  0  0  0  0
 60 84  1  0  0  0  0
 61 63  1  0  0  0  0
 61 75  1  0  0  0  0
 62 76  1  0  0  0  0
 66 67  1  0  0  0  0
M  CHG  1  76   1
M  ISO  4  37 100  60 101  73 100  84 101
M  END
> <Batch ID>
0162

> <Smiles>
CNC(C)C(=O)NC(C(=O)N1Cc2cc([101O:1][101CH2:1]C(=O)C3CCN(c4ncc([100NH:0][100C:0](=O)N5CCCC(n6nc(-c7ccc(Oc8ccc(F)cc8F)cc7)c(C(N)=O)c6N)C5)cn4)CC3)ccc2CC1C(=O)NC1CCCc2ccccc21)C(C)(C)C

> <Shape>
0.344

> <Color>
0.094

> <Negative vol penalty>
0.000

$$$$

  -OEChem-04052303563D

 90 98  0     1  0  0  0  0  0999 V2000
  -17.7521  -27.4084   22.9061 C   0  0  0  0  0  0  0  0  0  0  0  0
  -18.5961  -27.3811   21.8005 C   0  0  0  0  0  0  0  0  0  0  0  0
  -25.6735  -13.5686   21.5203 C   0  0  0  0  0  0  0  0  0  0  0  0
  -26.4532  -13.5440   19.2337 C   0  0  0  0  0  0  0  0  0  0  0  0
  -17.7847  -28.4944   23.7799 C   0  0  0  0  0  0  0  0  0  0  0  0
  -19.4724  -28.4404   21.5674 C   0  0  0  0  0  0  0  0  0  0  0  0
  -24.1218  -26.8750   20.3111 C   0  0  0  0  0  0  0  0  0  0  0  0
  -24.6923  -12.6319   21.1958 C   0  0  0  0  0  0  0  0  0  0  0  0
  -25.4719  -12.6073   18.9092 C   0  0  0  0  0  0  0  0  0  0  0  0
  -24.3140  -26.4372   19.0015 C   0  0  0  0  0  0  0  0  0  0  0  0
  -24.5043   -9.2934   20.6943 C   0  0  0  0  0  0  0  0  0  0  0  0
  -24.3209   -8.2188   21.5645 C   0  0  0  0  0  0  0  0  0  0  0  0
  -28.5502  -22.0509   13.9710 C   0  0  0  0  0  0  0  0  0  0  0  0
  -29.0829  -20.3043   15.5529 C   0  0  0  0  0  0  0  0  0  0  0  0
  -25.2817  -28.5733   18.4359 C   0  0  0  0  0  0  0  0  0  0  0  0
  -28.1665  -22.4001   16.3306 C   0  0  0  0  0  0  0  0  0  0  0  0
  -22.0306   -8.8994   21.9223 C   0  0  0  0  0  0  0  0  0  0  0  0
  -26.5540  -14.0247   20.5392 C   0  0  0  0  0  0  0  0  0  0  0  0
  -29.0333  -20.7701   14.2391 C   0  0  0  0  0  0  0  0  0  0  0  0
  -28.8762  -14.7329   21.3224 C   0  0  0  0  0  0  0  0  0  0  0  0
  -18.6687  -29.5631   23.5627 C   0  0  0  0  0  0  0  0  0  0  0  0
  -24.4987  -28.1712   20.6909 C   0  0  0  0  0  0  0  0  0  0  0  0
  -19.5159  -29.5424   22.4383 C   0  0  0  0  0  0  0  0  0  0  0  0
  -25.0955  -29.0242   19.7516 C   0  0  0  0  0  0  0  0  0  0  0  0
  -28.1169  -22.8659   15.0167 C   0  0  0  0  0  0  0  0  0  0  0  0
  -28.6495  -21.1193   16.5987 C   0  0  0  0  0  0  0  0  0  0  0  0
  -24.5915  -12.1512   19.8903 C   0  0  0  0  0  0  0  0  0  0  0  0
  -24.8914  -27.2874   18.0629 C   0  0  0  0  0  0  0  0  0  0  0  0
  -23.4508  -10.1710   20.4382 C   0  0  0  0  0  0  0  0  0  0  0  0
  -23.0841   -8.0218   22.1785 C   0  0  0  0  0  0  0  0  0  0  0  0
  -22.2140   -9.9740   21.0521 C   0  0  0  0  0  0  0  0  0  0  0  0
  -27.5675  -14.9928   20.8736 C   0  0  0  0  0  0  0  0  0  0  0  0
  -29.4324  -15.9764   21.4978 C   0  0  0  0  0  0  0  0  0  0  0  0
  -29.1772  -17.7687   11.9386 C   0  0  0  0  0  0  0  0  0  0  0  0
  -29.4823  -19.9250   13.1549 C   0  0  0  0  0  0  0  0  0  0  0  0
  -29.5307  -13.4794   21.5595 C   0  0  0  0  0  0  0  0  0  0  0  0
  -22.9574  -30.7229   21.7940 C   0  0  0  0  0  0  0  0  0  0  0  0
  -25.9570  -31.9201   22.0969 C   0  0  0  0  0  0  0  0  0  0  0  0
  -29.2191  -31.8500   21.0966 C   0  0  0  0  0  0  0  0  0  0  0  0
  -27.1578  -25.1081   15.6560 C   0  0  0  0  0  0  0  0  0  0  0  0
  -28.3100  -21.3271   19.0863 C   0  0  0  0  0  0  0  0  0  0  0  0
  -18.6344  -30.7372   24.5086 C   0  0  0  0  0  0  0  0  0  0  0  0
  -24.3091  -28.6190   22.1142 C   0  0  0  0  0  0  0  0  0  0  0  0
  -25.5363  -30.4181   20.1138 C   0  0  0  0  0  0  0  0  0  0  0  0
  -19.8568  -31.6449   24.3974 C   0  0  0  0  0  0  0  0  0  0  0  0
  -28.2449  -20.4955   22.5477 C   0  0  0  0  0  0  0  0  0  0  0  0
  -20.1670  -31.9456   22.9345 C   0  0  0  0  0  0  0  0  0  0  0  0
  -28.1891  -18.9661   22.5521 C   0  0  0  0  0  0  0  0  0  0  0  0
  -27.4319  -21.0894   21.3987 C   0  0  0  0  0  0  0  0  0  0  0  0
  -27.7028  -19.0308   20.0729 C   0  0  0  0  0  0  0  0  0  0  0  0
  -20.4979  -30.6609   22.1653 C   0  0  1  0  0  0  0  0  0  0  0  0
  -24.2595  -30.1366   22.2616 C   0  0  1  0  0  0  0  0  0  0  0  0
  -28.5598  -18.3847   21.1737 C   0  0  2  0  0  0  0  0  0  0  0  0
  -29.0883  -27.4436   15.0471 C   0  0  0  0  0  0  0  0  0  0  0  0
  -31.4272  -32.9729   21.4979 C   0  0  0  0  0  0  0  0  0  0  0  0
  -25.5454  -26.1314   14.0044 C   0  0  0  0  0  0  0  0  0  0  0  0
  -25.0257  -34.3275   20.4699 C   0  0  0  0  0  0  0  0  0  0  0  0
  -27.4300  -34.9186   20.0984 C   0  0  0  0  0  0  0  0  0  0  0  0
  -26.4983  -34.8876   22.4121 C   0  0  0  0  0  0  0  0  0  0  0  0
  -30.4693  -29.3256   22.0041 C   0  0  0  0  0  0  0  0  0  0  0  0
  -27.8683  -27.0877   14.2040 C   0  0  0  0  0  0  0  0  0  0  0  0
  -26.1846  -27.4175   16.0713 C   0  0  0  0  0  0  0  0  0  1  0  0
  -26.8914  -32.7012   21.2049 C   0  0  1  0  0  0  0  0  0  0  0  0
  -30.5147  -31.8202   21.8872 C   0  0  2  0  0  0  0  0  0  0  0  0
  -26.6969  -26.4343   14.9881 C   0  0  2  0  0  0  0  0  0  0  0  0
  -26.4514  -34.1832   21.0387 C   0  0  0  0  0  0  0  0  0  0  0  0
  -27.3076  -16.2989   20.7704 N   0  0  0  0  0  0  0  0  0  0  0  0
  -28.4607  -16.8708   21.1569 N   0  0  0  0  0  0  0  0  0  0  0  0
  -25.3239  -30.8119   21.5164 N   0  0  0  0  0  0  0  0  0  0  0  0
  -27.8408  -20.4947   20.1243 N   0  0  0  0  0  0  0  0  0  0  0  0
  -30.6529  -16.3812   21.9088 N   0  0  0  0  0  0  0  0  0  0  0  0
  -30.5000  -20.3505   12.3791 N   0  0  0  0  0  0  0  0  0  0  0  0
  -28.8140  -12.2973   21.3287 N   0  0  0  0  0  0  0  0  0  0  0  0
  -27.6261  -24.1663   14.7445 N   0  0  0  0  0  0  0  0  0  0  0  0
  -28.7007  -20.6466   17.9335 N   0  0  0  0  0  0  0  0  0  0  0  0
  -21.8489  -30.2313   22.4565 N   0  0  0  0  0  0  0  0  0  0  0  0
  -28.2273  -32.5341   21.7671 N   0  0  0  0  0  0  0  0  0  0  0  0
  -28.5544  -16.6602   11.8001 N   0  3  0  0  0  0  0  0  0  0  0  0
  -28.8685  -18.7345   12.9485 N   0  3  0  0  0  0  0  0  0  0  0  0
  -31.2414  -30.5423   21.6428 N   0  3  0  0  0  0  0  0  0  0  0  0
  -30.7105  -13.4099   21.9798 O   0  0  0  0  0  0  0  0  0  0  0  0
  -22.9586  -31.5605   20.8994 O   0  0  0  0  0  0  0  0  0  0  0  0
  -25.8003  -32.2757   23.2676 O   0  0  0  0  0  0  0  0  0  0  0  0
  -29.1000  -31.3226   19.9929 O   0  0  0  0  0  0  0  0  0  0  0  0
  -27.1005  -24.9611   16.8757 O   0  0  0  0  0  0  0  0  0  0  0  0
  -28.3871  -22.5511   19.2205 O   0  0  0  0  0  0  0  0  0  0  0  0
  -23.6343  -11.2370   19.5734 O   0  0  0  0  0  0  0  0  0  0  0  0
  -25.0796  -26.8629   16.7838 O   0  0  0  0  0  0  0  0  0  1  0  0
  -22.9077   -6.9889   23.0129 F   0  0  0  0  0  0  0  0  0  0  0  0
  -21.1978  -10.8132   20.8090 F   0  0  0  0  0  0  0  0  0  0  0  0
  1  2  1  0  0  0  0
  1  5  2  0  0  0  0
  2  6  2  0  0  0  0
  3  8  2  0  0  0  0
  3 18  1  0  0  0  0
  4  9  1  0  0  0  0
  4 18  2  0  0  0  0
  5 21  1  0  0  0  0
  6 23  1  0  0  0  0
  7 10  2  0  0  0  0
  7 22  1  0  0  0  0
  8 27  1  0  0  0  0
  9 27  2  0  0  0  0
 10 28  1  0  0  0  0
 11 12  2  0  0  0  0
 11 29  1  0  0  0  0
 12 30  1  0  0  0  0
 13 19  1  0  0  0  0
 13 25  2  0  0  0  0
 14 19  2  0  0  0  0
 14 26  1  0  0  0  0
 15 24  1  0  0  0  0
 15 28  2  0  0  0  0
 16 25  1  0  0  0  0
 16 26  2  0  0  0  0
 17 30  2  0  0  0  0
 17 31  1  0  0  0  0
 18 32  1  0  0  0  0
 19 35  1  0  0  0  0
 20 32  1  0  0  0  0
 20 33  2  0  0  0  0
 20 36  1  0  0  0  0
 21 23  2  0  0  0  0
 21 42  1  0  0  0  0
 22 24  2  0  0  0  0
 22 43  1  0  0  0  0
 23 51  1  0  0  0  0
 24 44  1  0  0  0  0
 25 74  1  0  0  0  0
 26 75  1  0  0  0  0
 27 87  1  0  0  0  0
 28 88  1  0  0  0  0
 29 31  2  0  0  0  0
 29 87  1  0  0  0  0
 30 89  1  0  0  0  0
 31 90  1  0  0  0  0
 32 67  2  0  0  0  0
 33 68  1  0  0  0  0
 33 71  1  0  0  0  0
 34 78  2  0  0  0  0
 34 79  1  0  0  0  0
 35 72  1  0  0  0  0
 35 79  2  0  0  0  0
 36 73  1  0  0  0  0
 36 81  2  0  0  0  0
 37 52  1  0  0  0  0
 37 76  1  0  0  0  0
 37 82  2  0  0  0  0
 38 63  1  0  0  0  0
 38 69  1  0  0  0  0
 38 83  2  0  0  0  0
 39 64  1  0  0  0  0
 39 77  1  0  0  0  0
 39 84  2  0  0  0  0
 40 65  1  0  0  0  0
 40 74  1  0  0  0  0
 40 85  2  0  0  0  0
 41 70  1  0  0  0  0
 41 75  1  0  0  0  0
 41 86  2  0  0  0  0
 42 45  1  0  0  0  0
 43 52  1  0  0  0  0
 44 69  1  0  0  0  0
 45 47  1  0  0  0  0
 46 48  1  0  0  0  0
 46 49  1  0  0  0  0
 47 51  1  0  0  0  0
 48 53  1  0  0  0  0
 49 70  1  0  0  0  0
 50 53  1  0  0  0  0
 50 70  1  0  0  0  0
 51 76  1  0  0  0  0
 52 69  1  0  0  0  0
 53 68  1  0  0  0  0
 54 61  1  0  0  0  0
 55 64  1  0  0  0  0
 56 65  1  0  0  0  0
 57 66  1  0  0  0  0
 58 66  1  0  0  0  0
 59 66  1  0  0  0  0
 60 80  1  0  0  0  0
 61 65  1  0  0  0  0
 62 65  1  0  0  0  0
 62 88  1  0  0  0  0
 63 66  1  0  0  0  0
 63 77  1  0  0  0  0
 64 80  1  0  0  0  0
 67 68  1  0  0  0  0
M  CHG  3  78   1  79   1  80   1
M  ISO  4  41 100  62 101  75 100  88 101
M  END
> <Batch ID>
0162

> <Smiles>
CCC(C)(C(=O)Nc1cc([100NH:0][100C:0](=O)N2CCCC(n3nc(-c4ccc(Oc5ccc(F)cc5F)cc4)c(C(N)=O)c3N)C2)cc(C(=N)NC=N)c1)[101CH2:1][101O:1]c1ccc2c(c1)CN(C(=O)C(NC(=O)C(C)NC)C(C)(C)C)C(C(=O)NC1CCCc3ccccc31)C2

> <Shape>
0.259

> <Color>
0.062

> <Negative vol penalty>
0.000

$$$$

  -OEChem-04052303563D

 83 91  0     1  0  0  0  0  0999 V2000
  -26.4116   -3.0934   29.5230 C   0  0  0  0  0  0  0  0  0  0  0  0
  -27.2811   -4.1780   29.4691 C   0  0  0  0  0  0  0  0  0  0  0  0
  -23.1902   -9.8195   19.9318 C   0  0  0  0  0  0  0  0  0  0  0  0
  -23.5704   -9.9990   22.3109 C   0  0  0  0  0  0  0  0  0  0  0  0
  -33.3883  -11.7948   25.1071 C   0  0  0  0  0  0  0  0  0  0  0  0
  -25.0428   -3.2892   29.3448 C   0  0  0  0  0  0  0  0  0  0  0  0
  -26.7823   -5.4591   29.2357 C   0  0  0  0  0  0  0  0  0  0  0  0
  -28.8095   -8.9252   32.3214 C   0  0  0  0  0  0  0  0  0  0  0  0
  -32.6604  -12.1060   23.9587 C   0  0  0  0  0  0  0  0  0  0  0  0
  -22.4244   -8.6726   20.1406 C   0  0  0  0  0  0  0  0  0  0  0  0
  -22.8045   -8.8520   22.5198 C   0  0  0  0  0  0  0  0  0  0  0  0
  -30.0926   -9.3770   32.0160 C   0  0  0  0  0  0  0  0  0  0  0  0
  -23.2063   -5.5055   22.2539 C   0  0  0  0  0  0  0  0  0  0  0  0
  -23.7056   -4.5440   23.1323 C   0  0  0  0  0  0  0  0  0  0  0  0
  -29.1498  -11.3586   31.0141 C   0  0  0  0  0  0  0  0  0  0  0  0
  -30.7007  -12.5145   25.3115 C   0  0  0  0  0  0  0  0  0  0  0  0
  -21.7501   -4.8028   24.5274 C   0  0  0  0  0  0  0  0  0  0  0  0
  -23.7633  -10.4827   21.0169 C   0  0  0  0  0  0  0  0  0  0  0  0
  -32.7724  -11.8433   26.3577 C   0  0  0  0  0  0  0  0  0  0  0  0
  -24.1011  -12.9995   20.7740 C   0  0  0  0  0  0  0  0  0  0  0  0
  -24.5259   -4.5746   29.1187 C   0  0  0  0  0  0  0  0  0  0  0  0
  -27.6845   -9.6828   31.9652 C   0  0  0  0  0  0  0  0  0  0  0  0
  -25.4054   -5.6721   29.0529 C   0  0  0  0  0  0  0  0  0  0  0  0
  -27.8536  -10.9154   31.3185 C   0  0  0  0  0  0  0  0  0  0  0  0
  -31.3166  -12.4659   24.0608 C   0  0  0  0  0  0  0  0  0  0  0  0
  -22.2315   -8.1888   21.4346 C   0  0  0  0  0  0  0  0  0  0  0  0
  -30.2628  -10.5924   31.3596 C   0  0  0  0  0  0  0  0  0  0  0  0
  -21.9789   -6.1159   22.5123 C   0  0  0  0  0  0  0  0  0  0  0  0
  -22.9776   -4.1926   24.2690 C   0  0  0  0  0  0  0  0  0  0  0  0
  -31.4286  -12.2032   26.4599 C   0  0  0  0  0  0  0  0  0  0  0  0
  -21.2508   -5.7645   23.6490 C   0  0  0  0  0  0  0  0  0  0  0  0
  -24.5549  -11.6672   20.8017 C   0  0  0  0  0  0  0  0  0  0  0  0
  -25.2319  -13.7426   20.5381 C   0  0  0  0  0  0  0  0  0  0  0  0
  -33.5456  -11.5127   27.5716 C   0  0  0  0  0  0  0  0  0  0  0  0
  -22.7759  -13.5190   20.9461 C   0  0  0  0  0  0  0  0  0  0  0  0
  -25.1718   -9.2151   30.0755 C   0  0  0  0  0  0  0  0  0  0  0  0
  -24.2011  -12.0501   31.3176 C   0  0  0  0  0  0  0  0  0  0  0  0
  -25.0472  -15.0052   32.8002 C   0  0  0  0  0  0  0  0  0  0  0  0
  -31.0374  -12.7831   21.5773 C   0  0  0  0  0  0  0  0  0  0  0  0
  -23.0441   -4.7304   28.8848 C   0  0  0  0  0  0  0  0  0  0  0  0
  -26.3084   -9.1942   32.3257 C   0  0  0  0  0  0  0  0  0  0  0  0
  -26.6794  -11.7761   30.9326 C   0  0  0  0  0  0  0  0  0  0  0  0
  -22.5550   -6.1706   29.0150 C   0  0  0  0  0  0  0  0  0  0  0  0
  -29.5223  -13.4656   18.4284 C   0  0  0  0  0  0  0  0  0  0  0  0
  -23.4773   -7.1183   28.2549 C   0  0  0  0  0  0  0  0  0  0  0  0
  -28.0344  -13.2090   18.6788 C   0  0  0  0  0  0  0  0  0  0  0  0
  -30.4043  -12.4805   19.1935 C   0  0  0  0  0  0  0  0  0  0  0  0
  -28.6459  -12.1379   20.8846 C   0  0  0  0  0  0  0  0  0  0  0  0
  -24.8998   -7.0804   28.8265 C   0  0  1  0  0  0  0  0  0  0  0  0
  -25.2117   -9.8032   31.4576 C   0  0  1  0  0  0  0  0  0  0  0  0
  -27.7192  -13.1464   20.1862 C   0  0  2  0  0  0  0  0  0  0  0  0
  -24.0403  -17.1361   33.6621 C   0  0  0  0  0  0  0  0  0  0  0  0
  -23.8676  -13.0481   28.4535 C   0  0  0  0  0  0  0  0  0  0  0  0
  -23.7961  -15.3847   29.3500 C   0  0  0  0  0  0  0  0  0  0  0  0
  -22.0436  -13.7400   30.0184 C   0  0  0  0  0  0  0  0  0  0  0  0
  -26.0082  -14.4831   35.5503 C   0  0  0  0  0  0  0  0  0  0  0  0
  -33.5531  -10.6088   29.8693 C   0  0  0  0  0  0  0  0  0  0  0  0
  -32.5124  -10.0455   30.8156 C   0  0  0  0  0  0  0  0  0  1  0  0
  -24.3849  -13.5007   30.9422 C   0  0  1  0  0  0  0  0  0  0  0  0
  -24.4803  -15.7229   34.0118 C   0  0  2  0  0  0  0  0  0  0  0  0
  -23.5453  -13.9015   29.6964 C   0  0  0  0  0  0  0  0  0  0  0  0
  -25.8713  -11.5666   20.5995 N   0  0  0  0  0  0  0  0  0  0  0  0
  -26.2544  -12.8451   20.4423 N   0  0  0  0  0  0  0  0  0  0  0  0
  -25.3539  -11.2522   31.3011 N   0  0  0  0  0  0  0  0  0  0  0  0
  -30.0517  -12.4783   20.6150 N   0  0  0  0  0  0  0  0  0  0  0  0
  -25.4414  -15.0696   20.4052 N   0  0  0  0  0  0  0  0  0  0  0  0
  -34.8546  -11.7646   27.5705 N   0  0  0  0  0  0  0  0  0  0  0  0
  -21.7296  -12.6164   21.1806 N   0  0  0  0  0  0  0  0  0  0  0  0
  -30.5777  -12.7821   22.8938 N   0  0  0  0  0  0  0  0  0  0  0  0
  -24.9729   -7.8479   30.0513 N   0  0  0  0  0  0  0  0  0  0  0  0
  -24.0814  -14.2743   32.1413 N   0  0  0  0  0  0  0  0  0  0  0  0
  -32.8971  -10.9751   28.6116 N   0  3  0  0  0  0  0  0  0  0  0  0
  -25.5037  -15.8032   35.0922 N   0  3  0  0  0  0  0  0  0  0  0  0
  -22.5243  -14.7460   20.8772 O   0  0  0  0  0  0  0  0  0  0  0  0
  -25.3098   -9.9478   29.1029 O   0  0  0  0  0  0  0  0  0  0  0  0
  -23.0775  -11.6417   31.6213 O   0  0  0  0  0  0  0  0  0  0  0  0
  -26.2279  -15.0879   32.4691 O   0  0  0  0  0  0  0  0  0  0  0  0
  -32.1972  -13.0536   21.2551 O   0  0  0  0  0  0  0  0  0  0  0  0
  -21.4841   -7.0698   21.6388 O   0  0  0  0  0  0  0  0  0  0  0  0
  -31.5140  -11.0355   31.0597 O   0  0  0  0  0  0  0  0  0  1  0  0
  -23.4565   -3.2680   25.1116 F   0  0  0  0  0  0  0  0  0  0  0  0
  -30.8276  -12.2508   27.6571 F   0  0  0  0  0  0  0  0  0  0  0  0
  -20.0705   -6.3465   23.9018 F   0  0  0  0  0  0  0  0  0  0  0  0
  1  2  1  0  0  0  0
  1  6  2  0  0  0  0
  2  7  2  0  0  0  0
  3 10  2  0  0  0  0
  3 18  1  0  0  0  0
  4 11  1  0  0  0  0
  4 18  2  0  0  0  0
  5  9  2  0  0  0  0
  5 19  1  0  0  0  0
  6 21  1  0  0  0  0
  7 23  1  0  0  0  0
  8 12  2  0  0  0  0
  8 22  1  0  0  0  0
  9 25  1  0  0  0  0
 10 26  1  0  0  0  0
 11 26  2  0  0  0  0
 12 27  1  0  0  0  0
 13 14  2  0  0  0  0
 13 28  1  0  0  0  0
 14 29  1  0  0  0  0
 15 24  1  0  0  0  0
 15 27  2  0  0  0  0
 16 25  2  0  0  0  0
 16 30  1  0  0  0  0
 17 29  2  0  0  0  0
 17 31  1  0  0  0  0
 18 32  1  0  0  0  0
 19 30  2  0  0  0  0
 19 34  1  0  0  0  0
 20 32  1  0  0  0  0
 20 33  2  0  0  0  0
 20 35  1  0  0  0  0
 21 23  2  0  0  0  0
 21 40  1  0  0  0  0
 22 24  2  0  0  0  0
 22 41  1  0  0  0  0
 23 49  1  0  0  0  0
 24 42  1  0  0  0  0
 25 69  1  0  0  0  0
 26 79  1  0  0  0  0
 27 80  1  0  0  0  0
 28 31  2  0  0  0  0
 28 79  1  0  0  0  0
 29 81  1  0  0  0  0
 30 82  1  0  0  0  0
 31 83  1  0  0  0  0
 32 62  2  0  0  0  0
 33 63  1  0  0  0  0
 33 66  1  0  0  0  0
 34 67  1  0  0  0  0
 34 72  2  0  0  0  0
 35 68  1  0  0  0  0
 35 74  2  0  0  0  0
 36 50  1  0  0  0  0
 36 70  1  0  0  0  0
 36 75  2  0  0  0  0
 37 59  1  0  0  0  0
 37 64  1  0  0  0  0
 37 76  2  0  0  0  0
 38 60  1  0  0  0  0
 38 71  1  0  0  0  0
 38 77  2  0  0  0  0
 39 65  1  0  0  0  0
 39 69  1  0  0  0  0
 39 78  2  0  0  0  0
 40 43  1  0  0  0  0
 41 50  1  0  0  0  0
 42 64  1  0  0  0  0
 43 45  1  0  0  0  0
 44 46  1  0  0  0  0
 44 47  1  0  0  0  0
 45 49  1  0  0  0  0
 46 51  1  0  0  0  0
 47 65  1  0  0  0  0
 48 51  1  0  0  0  0
 48 65  1  0  0  0  0
 49 70  1  0  0  0  0
 50 64  1  0  0  0  0
 51 63  1  0  0  0  0
 52 60  1  0  0  0  0
 53 61  1  0  0  0  0
 54 61  1  0  0  0  0
 55 61  1  0  0  0  0
 56 73  1  0  0  0  0
 57 58  1  0  0  0  0
 57 72  1  0  0  0  0
 58 80  1  0  0  0  0
 59 61  1  0  0  0  0
 59 71  1  0  0  0  0
 60 73  1  0  0  0  0
 62 63  1  0  0  0  0
M  CHG  2  72   1  73   1
M  ISO  4  39 100  58 101  69 100  80 101
M  END
> <Batch ID>
0162

> <Smiles>
CNC(C)C(=O)NC(C(=O)N1Cc2cc([101O:1][101CH2:1]CNC(=N)c3ccc([100NH:0][100C:0](=O)N4CCCC(n5nc(-c6ccc(Oc7ccc(F)cc7F)cc6)c(C(N)=O)c5N)C4)cc3F)ccc2CC1C(=O)NC1CCCc2ccccc21)C(C)(C)C

> <Shape>
0.140

> <Color>
0.178

> <Negative vol penalty>
0.000

$$$$

  -OEChem-04052303563D

 83 92  0     1  0  0  0  0  0999 V2000
  -28.6039  -37.0917   20.3222 C   0  0  0  0  0  0  0  0  0  0  0  0
  -28.9045  -35.7637   20.0368 C   0  0  0  0  0  0  0  0  0  0  0  0
  -22.8674  -10.9854   20.8148 C   0  0  0  0  0  0  0  0  0  0  0  0
  -24.4123   -9.2262   21.4110 C   0  0  0  0  0  0  0  0  0  0  0  0
  -27.7532  -37.4002   21.3829 C   0  0  0  0  0  0  0  0  0  0  0  0
  -28.3555  -34.7434   20.8127 C   0  0  0  0  0  0  0  0  0  0  0  0
  -26.6471  -29.1804   18.9048 C   0  0  0  0  0  0  0  0  0  0  0  0
  -21.9671  -10.5195   21.7729 C   0  0  0  0  0  0  0  0  0  0  0  0
  -23.5120   -8.7603   22.3692 C   0  0  0  0  0  0  0  0  0  0  0  0
  -27.2779  -27.9379   18.9520 C   0  0  0  0  0  0  0  0  0  0  0  0
  -20.6818   -6.9121   22.4378 C   0  0  0  0  0  0  0  0  0  0  0  0
  -20.4558   -5.5371   22.5003 C   0  0  0  0  0  0  0  0  0  0  0  0
  -26.0778  -27.4123   20.9775 C   0  0  0  0  0  0  0  0  0  0  0  0
  -21.2426   -5.5117   24.7845 C   0  0  0  0  0  0  0  0  0  0  0  0
  -30.4740  -17.8984   20.4400 C   0  0  0  0  0  0  0  0  0  0  0  0
  -24.0900  -10.3387   20.6338 C   0  0  0  0  0  0  0  0  0  0  0  0
  -24.8043  -10.9294   18.2571 C   0  0  0  0  0  0  0  0  0  0  0  0
  -27.1858  -36.3827   22.1662 C   0  0  0  0  0  0  0  0  0  0  0  0
  -25.7337  -29.5532   19.9013 C   0  0  0  0  0  0  0  0  0  0  0  0
  -27.4975  -35.0386   21.8857 C   0  0  0  0  0  0  0  0  0  0  0  0
  -25.4349  -28.6591   20.9393 C   0  0  0  0  0  0  0  0  0  0  0  0
  -22.2894   -9.4069   22.5501 C   0  0  0  0  0  0  0  0  0  0  0  0
  -26.9954  -27.0548   19.9900 C   0  0  0  0  0  0  0  0  0  0  0  0
  -21.1882   -7.5869   23.5487 C   0  0  0  0  0  0  0  0  0  0  0  0
  -20.7362   -4.8369   23.6737 C   0  0  0  0  0  0  0  0  0  0  0  0
  -21.4686   -6.8867   24.7220 C   0  0  0  0  0  0  0  0  0  0  0  0
  -25.0202  -10.8192   19.6439 C   0  0  0  0  0  0  0  0  0  0  0  0
  -25.9832  -11.4339   17.7651 C   0  0  0  0  0  0  0  0  0  0  0  0
  -29.3923  -17.0432   20.4120 C   0  0  0  0  0  0  0  0  0  0  0  0
  -28.8727  -19.3861   20.6207 C   0  0  0  0  0  0  0  0  0  0  0  0
  -23.6419  -10.6047   17.4830 C   0  0  0  0  0  0  0  0  0  0  0  0
  -25.6051  -31.8706   22.0731 C   0  0  0  0  0  0  0  0  0  0  0  0
  -22.6432  -30.6646   22.6164 C   0  0  0  0  0  0  0  0  0  0  0  0
  -20.5224  -27.9972   22.4316 C   0  0  0  0  0  0  0  0  0  0  0  0
  -30.3442  -14.7214   20.1899 C   0  0  0  0  0  0  0  0  0  0  0  0
  -26.3094  -36.7672   23.3318 C   0  0  0  0  0  0  0  0  0  0  0  0
  -25.0417  -30.8863   19.8215 C   0  0  0  0  0  0  0  0  0  0  0  0
  -24.4467  -29.0032   22.0226 C   0  0  0  0  0  0  0  0  0  0  0  0
  -25.4718  -35.6108   23.8716 C   0  0  0  0  0  0  0  0  0  0  0  0
  -30.6855  -11.5209   18.6676 C   0  0  0  0  0  0  0  0  0  0  0  0
  -26.3306  -34.3609   24.0362 C   0  0  0  0  0  0  0  0  0  0  0  0
  -28.4242  -21.6335   19.5460 C   0  0  0  0  0  0  0  0  0  0  0  0
  -28.5206  -21.4312   22.0697 C   0  0  0  0  0  0  0  0  0  0  0  0
  -27.6926  -22.9684   19.6841 C   0  0  0  0  0  0  0  0  0  0  0  0
  -27.7889  -22.7666   22.2015 C   0  0  0  0  0  0  0  0  0  0  0  0
  -29.2510  -10.9903   18.6134 C   0  0  0  0  0  0  0  0  0  0  0  0
  -30.9458  -12.3232   19.9413 C   0  0  0  0  0  0  0  0  0  0  0  0
  -28.5536  -12.8755   20.1453 C   0  0  0  0  0  0  0  0  0  0  0  0
  -26.9019  -33.9028   22.6890 C   0  0  1  0  0  0  0  0  0  0  0  0
  -28.1605  -20.7198   20.7547 C   0  0  0  0  0  0  0  0  0  0  0  0
  -24.5147  -31.3676   21.1698 C   0  0  1  0  0  0  0  0  0  0  0  0
  -28.0514  -23.6786   20.9960 C   0  0  0  0  0  0  0  0  0  0  0  0
  -28.2247  -12.1156   18.8499 C   0  0  2  0  0  0  0  0  0  0  0  0
  -18.1758  -27.3040   22.9885 C   0  0  0  0  0  0  0  0  0  0  0  0
  -23.4101  -30.4430   25.5613 C   0  0  0  0  0  0  0  0  0  0  0  0
  -21.4578  -28.9088   25.8824 C   0  0  0  0  0  0  0  0  0  0  0  0
  -21.0840  -31.2632   25.1479 C   0  0  0  0  0  0  0  0  0  0  0  0
  -19.8895  -27.4418   19.5944 C   0  0  0  0  0  0  0  0  0  0  0  0
  -27.2737  -24.9865   21.1305 C   0  0  0  0  0  0  0  0  0  1  0  0
  -22.0720  -29.5994   23.5208 C   0  0  1  0  0  0  0  0  0  0  0  0
  -19.0972  -27.8768   21.9229 C   0  0  2  0  0  0  0  0  0  0  0  0
  -22.0261  -30.0476   25.0089 C   0  0  0  0  0  0  0  0  0  0  0  0
  -30.1780  -19.2422   20.5592 N   0  0  0  0  0  0  0  0  0  0  0  0
  -26.2404  -11.2213   20.0093 N   0  0  0  0  0  0  0  0  0  0  0  0
  -26.8018  -11.5889   18.8449 N   0  0  0  0  0  0  0  0  0  0  0  0
  -23.8009  -30.3209   21.9040 N   0  0  0  0  0  0  0  0  0  0  0  0
  -29.9372  -13.3736   20.0970 N   0  0  0  0  0  0  0  0  0  0  0  0
  -26.3891  -11.7555   16.5184 N   0  0  0  0  0  0  0  0  0  0  0  0
  -23.5250   -9.3076   16.9651 N   0  0  0  0  0  0  0  0  0  0  0  0
  -29.2957  -15.6338   20.3025 N   0  0  0  0  0  0  0  0  0  0  0  0
  -25.8889  -33.2141   21.9183 N   0  0  0  0  0  0  0  0  0  0  0  0
  -20.7713  -29.2449   22.9632 N   0  0  0  0  0  0  0  0  0  0  0  0
  -19.0468  -26.9855   20.7295 N   0  3  0  0  0  0  0  0  0  0  0  0
  -22.7418  -11.4449   17.2434 O   0  0  0  0  0  0  0  0  0  0  0  0
  -26.1476  -31.0974   22.8538 O   0  0  0  0  0  0  0  0  0  0  0  0
  -22.0788  -31.7587   22.5391 O   0  0  0  0  0  0  0  0  0  0  0  0
  -21.3327  -27.0753   22.3675 O   0  0  0  0  0  0  0  0  0  0  0  0
  -31.5338  -15.0447   20.1435 O   0  0  0  0  0  0  0  0  0  0  0  0
  -21.4112   -8.9521   23.4853 O   0  0  0  0  0  0  0  0  0  0  0  0
  -27.6102  -25.8417   20.0388 O   0  0  0  0  0  0  0  0  0  1  0  0
  -20.5178   -3.5167   23.7341 F   0  0  0  0  0  0  0  0  0  0  0  0
  -21.9541   -7.5297   25.7928 F   0  0  0  0  0  0  0  0  0  0  0  0
  -27.9407  -17.9473   20.5414 S   0  0  0  0  0  0  0  0  0  0  0  0
  1  2  1  0  0  0  0
  1  5  2  0  0  0  0
  2  6  2  0  0  0  0
  3  8  2  0  0  0  0
  3 16  1  0  0  0  0
  4  9  1  0  0  0  0
  4 16  2  0  0  0  0
  5 18  1  0  0  0  0
  6 20  1  0  0  0  0
  7 10  2  0  0  0  0
  7 19  1  0  0  0  0
  8 22  1  0  0  0  0
  9 22  2  0  0  0  0
 10 23  1  0  0  0  0
 11 12  2  0  0  0  0
 11 24  1  0  0  0  0
 12 25  1  0  0  0  0
 13 21  1  0  0  0  0
 13 23  2  0  0  0  0
 14 25  2  0  0  0  0
 14 26  1  0  0  0  0
 15 29  2  0  0  0  0
 15 63  1  0  0  0  0
 16 27  1  0  0  0  0
 17 27  1  0  0  0  0
 17 28  2  0  0  0  0
 17 31  1  0  0  0  0
 18 20  2  0  0  0  0
 18 36  1  0  0  0  0
 19 21  2  0  0  0  0
 19 37  1  0  0  0  0
 20 49  1  0  0  0  0
 21 38  1  0  0  0  0
 22 79  1  0  0  0  0
 23 80  1  0  0  0  0
 24 26  2  0  0  0  0
 24 79  1  0  0  0  0
 25 81  1  0  0  0  0
 26 82  1  0  0  0  0
 27 64  2  0  0  0  0
 28 65  1  0  0  0  0
 28 68  1  0  0  0  0
 29 70  1  0  0  0  0
 29 83  1  0  0  0  0
 30 50  1  0  0  0  0
 30 63  2  0  0  0  0
 30 83  1  0  0  0  0
 31 69  1  0  0  0  0
 31 74  2  0  0  0  0
 32 51  1  0  0  0  0
 32 71  1  0  0  0  0
 32 75  2  0  0  0  0
 33 60  1  0  0  0  0
 33 66  1  0  0  0  0
 33 76  2  0  0  0  0
 34 61  1  0  0  0  0
 34 72  1  0  0  0  0
 34 77  2  0  0  0  0
 35 67  1  0  0  0  0
 35 70  1  0  0  0  0
 35 78  2  0  0  0  0
 36 39  1  0  0  0  0
 37 51  1  0  0  0  0
 38 66  1  0  0  0  0
 39 41  1  0  0  0  0
 40 46  1  0  0  0  0
 40 47  1  0  0  0  0
 41 49  1  0  0  0  0
 42 44  1  0  0  0  0
 42 50  1  0  0  0  0
 43 45  1  0  0  0  0
 43 50  1  0  0  0  0
 44 52  1  0  0  0  0
 45 52  1  0  0  0  0
 46 53  1  0  0  0  0
 47 67  1  0  0  0  0
 48 53  1  0  0  0  0
 48 67  1  0  0  0  0
 49 71  1  0  0  0  0
 51 66  1  0  0  0  0
 52 59  1  0  0  0  0
 53 65  1  0  0  0  0
 54 61  1  0  0  0  0
 55 62  1  0  0  0  0
 56 62  1  0  0  0  0
 57 62  1  0  0  0  0
 58 73  1  0  0  0  0
 59 80  1  0  0  0  0
 60 62  1  0  0  0  0
 60 72  1  0  0  0  0
 61 73  1  0  0  0  0
 64 65  1  0  0  0  0
M  CHG  1  73   1
M  ISO  4  35 100  59 101  70 100  80 101
M  END
> <Batch ID>
0162

> <Smiles>
CNC(C)C(=O)NC(C(=O)N1Cc2cc([101O:1][101CH2:1]C3CCC(c4ncc([100NH:0][100C:0](=O)N5CCCC(n6nc(-c7ccc(Oc8ccc(F)cc8F)cc7)c(C(N)=O)c6N)C5)s4)CC3)ccc2CC1C(=O)NC1CCCc2ccccc21)C(C)(C)C

> <Shape>
0.333

> <Color>
0.106

> <Negative vol penalty>
0.000

$$$$

  -OEChem-04052303563D

 87 95  0     1  0  0  0  0  0999 V2000
  -25.4431  -34.5198   19.4433 C   0  0  0  0  0  0  0  0  0  0  0  0
  -26.0607  -33.3247   19.7976 C   0  0  0  0  0  0  0  0  0  0  0  0
  -22.9315  -10.2053   20.2938 C   0  0  0  0  0  0  0  0  0  0  0  0
  -24.2634   -9.3249   22.1070 C   0  0  0  0  0  0  0  0  0  0  0  0
  -24.1937  -34.8410   19.9722 C   0  0  0  0  0  0  0  0  0  0  0  0
  -25.4297  -32.4505   20.6820 C   0  0  0  0  0  0  0  0  0  0  0  0
  -25.6574  -27.6310   19.1439 C   0  0  0  0  0  0  0  0  0  0  0  0
  -22.1506   -9.0496   20.3062 C   0  0  0  0  0  0  0  0  0  0  0  0
  -23.4825   -8.1691   22.1195 C   0  0  0  0  0  0  0  0  0  0  0  0
  -26.8599  -26.9547   19.3447 C   0  0  0  0  0  0  0  0  0  0  0  0
  -20.4564   -7.2222   23.2886 C   0  0  0  0  0  0  0  0  0  0  0  0
  -20.0349   -6.7401   24.5277 C   0  0  0  0  0  0  0  0  0  0  0  0
  -25.9315  -25.8983   21.3046 C   0  0  0  0  0  0  0  0  0  0  0  0
  -21.1920   -4.6603   24.1122 C   0  0  0  0  0  0  0  0  0  0  0  0
  -31.8085  -19.2524   20.6913 C   0  0  0  0  0  0  0  0  0  0  0  0
  -23.9879  -10.3429   21.1941 C   0  0  0  0  0  0  0  0  0  0  0  0
  -24.5777  -12.7178   21.9152 C   0  0  0  0  0  0  0  0  0  0  0  0
  -23.5427  -33.9659   20.8560 C   0  0  0  0  0  0  0  0  0  0  0  0
  -24.5848  -27.4541   20.0297 C   0  0  0  0  0  0  0  0  0  0  0  0
  -24.1711  -32.7610   21.2243 C   0  0  0  0  0  0  0  0  0  0  0  0
  -24.7156  -26.5715   21.1114 C   0  0  0  0  0  0  0  0  0  0  0  0
  -31.3387  -17.2802   21.9853 C   0  0  0  0  0  0  0  0  0  0  0  0
  -22.4260   -8.0315   21.2190 C   0  0  0  0  0  0  0  0  0  0  0  0
  -26.9981  -26.0904   20.4268 C   0  0  0  0  0  0  0  0  0  0  0  0
  -21.2457   -6.4234   22.4612 C   0  0  0  0  0  0  0  0  0  0  0  0
  -20.4027   -5.4592   24.9395 C   0  0  0  0  0  0  0  0  0  0  0  0
  -21.6136   -5.1424   22.8730 C   0  0  0  0  0  0  0  0  0  0  0  0
  -32.1285  -17.9497   21.0572 C   0  0  0  0  0  0  0  0  0  0  0  0
  -24.7953  -11.5362   21.1814 C   0  0  0  0  0  0  0  0  0  0  0  0
  -30.2485  -17.9524   22.5140 C   0  0  0  0  0  0  0  0  0  0  0  0
  -30.6972  -19.8362   21.2778 C   0  0  0  0  0  0  0  0  0  0  0  0
  -25.6153  -13.5421   21.5544 C   0  0  0  0  0  0  0  0  0  0  0  0
  -23.5311  -13.0411   22.8404 C   0  0  0  0  0  0  0  0  0  0  0  0
  -29.3738  -17.3207   23.4905 C   0  0  0  0  0  0  0  0  0  0  0  0
  -22.9518  -29.3566   21.9835 C   0  0  0  0  0  0  0  0  0  0  0  0
  -29.2367  -23.2603   20.8041 C   0  0  0  0  0  0  0  0  0  0  0  0
  -21.1127  -26.7151   22.3869 C   0  0  0  0  0  0  0  0  0  0  0  0
  -20.8584  -23.3144   22.2561 C   0  0  0  0  0  0  0  0  0  0  0  0
  -31.0354  -14.3744   20.5175 C   0  0  0  0  0  0  0  0  0  0  0  0
  -22.2142  -34.3782   21.4387 C   0  0  0  0  0  0  0  0  0  0  0  0
  -23.2852  -28.1705   19.7840 C   0  0  0  0  0  0  0  0  0  0  0  0
  -23.5873  -26.3311   22.0797 C   0  0  0  0  0  0  0  0  0  0  0  0
  -21.4449  -33.2247   22.0774 C   0  0  0  0  0  0  0  0  0  0  0  0
  -29.0404  -13.0985   17.8587 C   0  0  0  0  0  0  0  0  0  0  0  0
  -22.3650  -32.3998   22.9717 C   0  0  0  0  0  0  0  0  0  0  0  0
  -27.7435  -12.6703   18.5475 C   0  0  0  0  0  0  0  0  0  0  0  0
  -30.2604  -12.8346   18.7385 C   0  0  0  0  0  0  0  0  0  0  0  0
  -28.8890  -12.9887   20.7803 C   0  0  0  0  0  0  0  0  0  0  0  0
  -23.5074  -31.7754   22.1614 C   0  0  1  0  0  0  0  0  0  0  0  0
  -22.4319  -28.3082   21.0410 C   0  0  1  0  0  0  0  0  0  0  0  0
  -27.6258  -13.2868   19.9545 C   0  0  2  0  0  0  0  0  0  0  0  0
  -28.6991  -18.2100   24.4935 C   0  0  0  0  0  0  0  0  0  0  0  0
  -19.2419  -21.4421   22.6795 C   0  0  0  0  0  0  0  0  0  0  0  0
  -21.5360  -27.0324   25.3919 C   0  0  0  0  0  0  0  0  0  0  0  0
  -20.7369  -24.6775   25.6826 C   0  0  0  0  0  0  0  0  0  0  0  0
  -19.2089  -26.4022   24.7269 C   0  0  0  0  0  0  0  0  0  0  0  0
  -20.9632  -22.4306   19.4335 C   0  0  0  0  0  0  0  0  0  0  0  0
  -31.6742  -15.8835   22.3812 C   0  0  0  0  0  0  0  0  0  0  0  0
  -29.2712  -21.8785   21.4219 C   0  0  0  0  0  0  0  0  0  0  0  0
  -28.0979  -24.1526   21.2583 C   0  0  0  0  0  0  0  0  0  1  0  0
  -21.1283  -25.5351   23.3284 C   0  0  1  0  0  0  0  0  0  0  0  0
  -19.8060  -22.4056   21.6469 C   0  0  2  0  0  0  0  0  0  0  0  0
  -20.6746  -25.9176   24.7655 C   0  0  0  0  0  0  0  0  0  0  0  0
  -25.8855  -11.6003   20.4124 N   0  0  0  0  0  0  0  0  0  0  0  0
  -29.9062  -19.2176   22.1829 N   0  0  0  0  0  0  0  0  0  0  0  0
  -26.3621  -12.8321   20.6609 N   0  0  0  0  0  0  0  0  0  0  0  0
  -22.3388  -27.0597   21.8005 N   0  0  0  0  0  0  0  0  0  0  0  0
  -30.0859  -13.4469   20.0577 N   0  0  0  0  0  0  0  0  0  0  0  0
  -25.9526  -14.7979   21.9173 N   0  0  0  0  0  0  0  0  0  0  0  0
  -22.5449  -12.0788   23.0966 N   0  0  0  0  0  0  0  0  0  0  0  0
  -30.3915  -21.1366   20.9028 N   0  0  0  0  0  0  0  0  0  0  0  0
  -23.0349  -30.6197   21.4295 N   0  0  0  0  0  0  0  0  0  0  0  0
  -20.3137  -24.5008   22.7000 N   0  0  0  0  0  0  0  0  0  0  0  0
  -30.7912  -14.9119   21.7753 N   0  0  0  0  0  0  0  0  0  0  0  0
  -20.3919  -21.6093   20.5318 N   0  3  0  0  0  0  0  0  0  0  0  0
  -23.4632  -14.1566   23.4101 O   0  0  0  0  0  0  0  0  0  0  0  0
  -29.1496  -16.1108   23.5584 O   0  0  0  0  0  0  0  0  0  0  0  0
  -23.2537  -29.0430   23.1290 O   0  0  0  0  0  0  0  0  0  0  0  0
  -30.0718  -23.6445   19.9864 O   0  0  0  0  0  0  0  0  0  0  0  0
  -20.0504  -27.3048   22.1739 O   0  0  0  0  0  0  0  0  0  0  0  0
  -22.0443  -23.0014   22.3341 O   0  0  0  0  0  0  0  0  0  0  0  0
  -32.0244  -14.7033   19.8537 O   0  0  0  0  0  0  0  0  0  0  0  0
  -21.6641   -6.9038   21.2316 O   0  0  0  0  0  0  0  0  0  0  0  0
  -28.1710  -25.4295   20.6255 O   0  0  0  0  0  0  0  0  0  1  0  0
  -19.9991   -4.9969   26.1302 F   0  0  0  0  0  0  0  0  0  0  0  0
  -22.3727   -4.3708   22.0830 F   0  0  0  0  0  0  0  0  0  0  0  0
  -33.1959  -17.3502   20.5120 F   0  0  0  0  0  0  0  0  0  0  0  0
  1  2  1  0  0  0  0
  1  5  2  0  0  0  0
  2  6  2  0  0  0  0
  3  8  2  0  0  0  0
  3 16  1  0  0  0  0
  4  9  1  0  0  0  0
  4 16  2  0  0  0  0
  5 18  1  0  0  0  0
  6 20  1  0  0  0  0
  7 10  2  0  0  0  0
  7 19  1  0  0  0  0
  8 23  1  0  0  0  0
  9 23  2  0  0  0  0
 10 24  1  0  0  0  0
 11 12  2  0  0  0  0
 11 25  1  0  0  0  0
 12 26  1  0  0  0  0
 13 21  1  0  0  0  0
 13 24  2  0  0  0  0
 14 26  2  0  0  0  0
 14 27  1  0  0  0  0
 15 28  2  0  0  0  0
 15 31  1  0  0  0  0
 16 29  1  0  0  0  0
 17 29  1  0  0  0  0
 17 32  2  0  0  0  0
 17 33  1  0  0  0  0
 18 20  2  0  0  0  0
 18 40  1  0  0  0  0
 19 21  2  0  0  0  0
 19 41  1  0  0  0  0
 20 49  1  0  0  0  0
 21 42  1  0  0  0  0
 22 28  1  0  0  0  0
 22 30  2  0  0  0  0
 22 58  1  0  0  0  0
 23 83  1  0  0  0  0
 24 84  1  0  0  0  0
 25 27  2  0  0  0  0
 25 83  1  0  0  0  0
 26 85  1  0  0  0  0
 27 86  1  0  0  0  0
 28 87  1  0  0  0  0
 29 64  2  0  0  0  0
 30 34  1  0  0  0  0
 30 65  1  0  0  0  0
 31 65  2  0  0  0  0
 31 71  1  0  0  0  0
 32 66  1  0  0  0  0
 32 69  1  0  0  0  0
 33 70  1  0  0  0  0
 33 76  2  0  0  0  0
 34 52  1  0  0  0  0
 34 77  2  0  0  0  0
 35 50  1  0  0  0  0
 35 72  1  0  0  0  0
 35 78  2  0  0  0  0
 36 59  1  0  0  0  0
 36 60  1  0  0  0  0
 36 79  2  0  0  0  0
 37 61  1  0  0  0  0
 37 67  1  0  0  0  0
 37 80  2  0  0  0  0
 38 62  1  0  0  0  0
 38 73  1  0  0  0  0
 38 81  2  0  0  0  0
 39 68  1  0  0  0  0
 39 74  1  0  0  0  0
 39 82  2  0  0  0  0
 40 43  1  0  0  0  0
 41 50  1  0  0  0  0
 42 67  1  0  0  0  0
 43 45  1  0  0  0  0
 44 46  1  0  0  0  0
 44 47  1  0  0  0  0
 45 49  1  0  0  0  0
 46 51  1  0  0  0  0
 47 68  1  0  0  0  0
 48 51  1  0  0  0  0
 48 68  1  0  0  0  0
 49 72  1  0  0  0  0
 50 67  1  0  0  0  0
 51 66  1  0  0  0  0
 53 62  1  0  0  0  0
 54 63  1  0  0  0  0
 55 63  1  0  0  0  0
 56 63  1  0  0  0  0
 57 75  1  0  0  0  0
 58 74  1  0  0  0  0
 59 71  1  0  0  0  0
 60 84  1  0  0  0  0
 61 63  1  0  0  0  0
 61 73  1  0  0  0  0
 62 75  1  0  0  0  0
 64 66  1  0  0  0  0
M  CHG  1  75   1
M  ISO  4  39 100  60 101  74 100  84 101
M  END
> <Batch ID>
0162

> <Smiles>
CNC(C)C(=O)NC(C(=O)N1Cc2cc([101O:1][101CH2:1]C(=O)CNc3cc(F)c(C[100NH:0][100C:0](=O)N4CCCC(n5nc(-c6ccc(Oc7ccc(F)cc7F)cc6)c(C(N)=O)c5N)C4)c(C(C)=O)n3)ccc2CC1C(=O)NC1CCCc2ccccc21)C(C)(C)C

> <Shape>
0.298

> <Color>
0.141

> <Negative vol penalty>
0.000

$$$$

  -OEChem-04052303563D

 83 91  0     1  0  0  0  0  0999 V2000
  -27.8092  -24.3479   16.7483 C   0  0  0  0  0  0  0  0  0  0  0  0
  -26.6452  -24.5754   17.4754 C   0  0  0  0  0  0  0  0  0  0  0  0
  -25.4541  -14.8386   20.0083 C   0  0  0  0  0  0  0  0  0  0  0  0
  -23.1184  -14.5125   20.5329 C   0  0  0  0  0  0  0  0  0  0  0  0
  -29.0273  -24.8432   17.2118 C   0  0  0  0  0  0  0  0  0  0  0  0
  -26.6988  -25.2974   18.6671 C   0  0  0  0  0  0  0  0  0  0  0  0
  -22.9936  -28.7307   19.0269 C   0  0  0  0  0  0  0  0  0  0  0  0
  -25.7550  -13.6021   20.5792 C   0  0  0  0  0  0  0  0  0  0  0  0
  -23.4192  -13.2759   21.1038 C   0  0  0  0  0  0  0  0  0  0  0  0
  -21.7260  -28.2655   19.3741 C   0  0  0  0  0  0  0  0  0  0  0  0
  -24.0793  -10.1372   20.0392 C   0  0  0  0  0  0  0  0  0  0  0  0
  -23.2545   -9.0591   19.7184 C   0  0  0  0  0  0  0  0  0  0  0  0
  -22.0973  -28.9711   21.6508 C   0  0  0  0  0  0  0  0  0  0  0  0
  -22.6950   -8.7923   22.0535 C   0  0  0  0  0  0  0  0  0  0  0  0
  -18.2504  -20.8964   22.4452 C   0  0  0  0  0  0  0  0  0  0  0  0
  -16.7331  -22.5806   23.2486 C   0  0  0  0  0  0  0  0  0  0  0  0
  -24.1358  -15.2939   19.9852 C   0  0  0  0  0  0  0  0  0  0  0  0
  -23.4868  -16.8290   18.0538 C   0  0  0  0  0  0  0  0  0  0  0  0
  -29.0944  -25.5799   18.4049 C   0  0  0  0  0  0  0  0  0  0  0  0
  -23.8282  -29.3107   19.9930 C   0  0  0  0  0  0  0  0  0  0  0  0
  -27.9191  -25.8019   19.1478 C   0  0  0  0  0  0  0  0  0  0  0  0
  -23.3741  -29.4452   21.3127 C   0  0  0  0  0  0  0  0  0  0  0  0
  -24.7376  -12.8207   21.1270 C   0  0  0  0  0  0  0  0  0  0  0  0
  -21.2788  -28.3830   20.6869 C   0  0  0  0  0  0  0  0  0  0  0  0
  -24.2121  -10.5429   21.3672 C   0  0  0  0  0  0  0  0  0  0  0  0
  -22.5624   -8.3867   20.7255 C   0  0  0  0  0  0  0  0  0  0  0  0
  -23.5199   -9.8705   22.3743 C   0  0  0  0  0  0  0  0  0  0  0  0
  -16.9677  -21.2781   22.8223 C   0  0  0  0  0  0  0  0  0  0  0  0
  -23.8244  -16.5714   19.3960 C   0  0  0  0  0  0  0  0  0  0  0  0
  -19.2560  -21.8473   22.5118 C   0  0  0  0  0  0  0  0  0  0  0  0
  -17.8066  -23.4561   23.2794 C   0  0  0  0  0  0  0  0  0  0  0  0
  -23.2854  -18.1867   18.0049 C   0  0  0  0  0  0  0  0  0  0  0  0
  -23.3660  -15.9220   16.9500 C   0  0  0  0  0  0  0  0  0  0  0  0
  -26.6769  -28.6029   21.2127 C   0  0  0  0  0  0  0  0  0  0  0  0
  -18.8265  -26.3621   22.4212 C   0  0  0  0  0  0  0  0  0  0  0  0
  -26.3114  -31.4568   22.7107 C   0  0  0  0  0  0  0  0  0  0  0  0
  -24.1948  -33.8657   23.8786 C   0  0  0  0  0  0  0  0  0  0  0  0
  -21.7136  -22.2311   22.1132 C   0  0  0  0  0  0  0  0  0  0  0  0
  -30.4411  -26.0546   18.8902 C   0  0  0  0  0  0  0  0  0  0  0  0
  -25.1824  -29.8318   19.5965 C   0  0  0  0  0  0  0  0  0  0  0  0
  -24.2236  -30.0787   22.3830 C   0  0  0  0  0  0  0  0  0  0  0  0
  -30.3550  -27.1307   19.9695 C   0  0  0  0  0  0  0  0  0  0  0  0
  -24.6643  -22.2557   20.1207 C   0  0  0  0  0  0  0  0  0  0  0  0
  -29.3363  -26.7380   21.0348 C   0  0  0  0  0  0  0  0  0  0  0  0
  -24.7497  -20.8259   19.5817 C   0  0  0  0  0  0  0  0  0  0  0  0
  -24.1339  -22.2911   21.5529 C   0  0  0  0  0  0  0  0  0  0  0  0
  -22.9475  -20.1575   21.2225 C   0  0  0  0  0  0  0  0  0  0  0  0
  -27.9328  -26.6017   20.4323 C   0  0  1  0  0  0  0  0  0  0  0  0
  -26.1490  -29.9388   20.7719 C   0  0  1  0  0  0  0  0  0  0  0  0
  -23.4152  -20.0757   19.7602 C   0  0  2  0  0  0  0  0  0  0  0  0
  -24.1881  -36.0628   25.0910 C   0  0  0  0  0  0  0  0  0  0  0  0
  -26.8557  -30.0053   25.3388 C   0  0  0  0  0  0  0  0  0  0  0  0
  -25.9153  -31.9862   26.5471 C   0  0  0  0  0  0  0  0  0  0  0  0
  -27.9558  -32.2420   25.1351 C   0  0  0  0  0  0  0  0  0  0  0  0
  -22.9337  -35.2565   21.5907 C   0  0  0  0  0  0  0  0  0  0  0  0
  -18.5658  -25.7767   23.7929 C   0  0  0  0  0  0  0  0  0  0  0  0
  -19.8684  -27.4624   22.3659 C   0  0  0  0  0  0  0  0  0  1  0  0
  -25.7113  -31.9075   24.0206 C   0  0  1  0  0  0  0  0  0  0  0  0
  -24.2107  -35.3768   23.7340 C   0  0  2  0  0  0  0  0  0  0  0  0
  -26.5940  -31.5215   25.2409 C   0  0  0  0  0  0  0  0  0  0  0  0
  -23.8379  -17.6769   20.1456 N   0  0  0  0  0  0  0  0  0  0  0  0
  -19.0664  -23.1218   22.9207 N   0  0  0  0  0  0  0  0  0  0  0  0
  -23.5063  -18.6422   19.2714 N   0  0  0  0  0  0  0  0  0  0  0  0
  -25.5423  -30.5671   21.9473 N   0  0  0  0  0  0  0  0  0  0  0  0
  -22.8656  -21.5645   21.6448 N   0  0  0  0  0  0  0  0  0  0  0  0
  -22.9427  -19.0235   17.0025 N   0  0  0  0  0  0  0  0  0  0  0  0
  -23.6074  -14.5598   17.1750 N   0  0  0  0  0  0  0  0  0  0  0  0
  -20.5597  -21.4482   22.1260 N   0  0  0  0  0  0  0  0  0  0  0  0
  -17.5566  -24.7526   23.7058 N   0  0  0  0  0  0  0  0  0  0  0  0
  -27.3439  -27.9070   20.2226 N   0  0  0  0  0  0  0  0  0  0  0  0
  -25.4695  -33.3401   23.8873 N   0  0  0  0  0  0  0  0  0  0  0  0
  -23.0252  -35.8352   22.9559 N   0  3  0  0  0  0  0  0  0  0  0  0
  -23.0692  -16.3102   15.7947 O   0  0  0  0  0  0  0  0  0  0  0  0
  -26.4940  -28.2316   22.3661 O   0  0  0  0  0  0  0  0  0  0  0  0
  -18.2378  -25.9785   21.4113 O   0  0  0  0  0  0  0  0  0  0  0  0
  -27.4184  -31.8840   22.3739 O   0  0  0  0  0  0  0  0  0  0  0  0
  -23.1557  -33.2170   23.9779 O   0  0  0  0  0  0  0  0  0  0  0  0
  -21.7424  -23.4174   22.4506 O   0  0  0  0  0  0  0  0  0  0  0  0
  -25.0308  -11.6139   21.6839 O   0  0  0  0  0  0  0  0  0  0  0  0
  -20.0423  -27.9292   21.0287 O   0  0  0  0  0  0  0  0  0  1  0  0
  -21.7691   -7.3524   20.4171 F   0  0  0  0  0  0  0  0  0  0  0  0
  -23.6425  -10.2563   23.6518 F   0  0  0  0  0  0  0  0  0  0  0  0
  -15.9624  -20.3943   22.7761 F   0  0  0  0  0  0  0  0  0  0  0  0
  1  2  1  0  0  0  0
  1  5  2  0  0  0  0
  2  6  2  0  0  0  0
  3  8  2  0  0  0  0
  3 17  1  0  0  0  0
  4  9  1  0  0  0  0
  4 17  2  0  0  0  0
  5 19  1  0  0  0  0
  6 21  1  0  0  0  0
  7 10  2  0  0  0  0
  7 20  1  0  0  0  0
  8 23  1  0  0  0  0
  9 23  2  0  0  0  0
 10 24  1  0  0  0  0
 11 12  2  0  0  0  0
 11 25  1  0  0  0  0
 12 26  1  0  0  0  0
 13 22  1  0  0  0  0
 13 24  2  0  0  0  0
 14 26  2  0  0  0  0
 14 27  1  0  0  0  0
 15 28  1  0  0  0  0
 15 30  2  0  0  0  0
 16 28  2  0  0  0  0
 16 31  1  0  0  0  0
 17 29  1  0  0  0  0
 18 29  1  0  0  0  0
 18 32  2  0  0  0  0
 18 33  1  0  0  0  0
 19 21  2  0  0  0  0
 19 39  1  0  0  0  0
 20 22  2  0  0  0  0
 20 40  1  0  0  0  0
 21 48  1  0  0  0  0
 22 41  1  0  0  0  0
 23 79  1  0  0  0  0
 24 80  1  0  0  0  0
 25 27  2  0  0  0  0
 25 79  1  0  0  0  0
 26 81  1  0  0  0  0
 27 82  1  0  0  0  0
 28 83  1  0  0  0  0
 29 61  2  0  0  0  0
 30 62  1  0  0  0  0
 30 68  1  0  0  0  0
 31 62  2  0  0  0  0
 31 69  1  0  0  0  0
 32 63  1  0  0  0  0
 32 66  1  0  0  0  0
 33 67  1  0  0  0  0
 33 73  2  0  0  0  0
 34 49  1  0  0  0  0
 34 70  1  0  0  0  0
 34 74  2  0  0  0  0
 35 56  1  0  0  0  0
 35 57  1  0  0  0  0
 35 75  2  0  0  0  0
 36 58  1  0  0  0  0
 36 64  1  0  0  0  0
 36 76  2  0  0  0  0
 37 59  1  0  0  0  0
 37 71  1  0  0  0  0
 37 77  2  0  0  0  0
 38 65  1  0  0  0  0
 38 68  1  0  0  0  0
 38 78  2  0  0  0  0
 39 42  1  0  0  0  0
 40 49  1  0  0  0  0
 41 64  1  0  0  0  0
 42 44  1  0  0  0  0
 43 45  1  0  0  0  0
 43 46  1  0  0  0  0
 44 48  1  0  0  0  0
 45 50  1  0  0  0  0
 46 65  1  0  0  0  0
 47 50  1  0  0  0  0
 47 65  1  0  0  0  0
 48 70  1  0  0  0  0
 49 64  1  0  0  0  0
 50 63  1  0  0  0  0
 51 59  1  0  0  0  0
 52 60  1  0  0  0  0
 53 60  1  0  0  0  0
 54 60  1  0  0  0  0
 55 72  1  0  0  0  0
 56 69  1  0  0  0  0
 57 80  1  0  0  0  0
 58 60  1  0  0  0  0
 58 71  1  0  0  0  0
 59 72  1  0  0  0  0
 61 63  1  0  0  0  0
M  CHG  1  72   1
M  ISO  4  38 100  57 101  68 100  80 101
M  END
> <Batch ID>
0162

> <Smiles>
CNC(C)C(=O)NC(C(=O)N1Cc2cc([101O:1][101CH2:1]C(=O)CNc3cc(F)cc([100NH:0][100C:0](=O)N4CCCC(n5nc(-c6ccc(Oc7ccc(F)cc7F)cc6)c(C(N)=O)c5N)C4)n3)ccc2CC1C(=O)NC1CCCc2ccccc21)C(C)(C)C

> <Shape>
0.269

> <Color>
0.073

> <Negative vol penalty>
0.000

$$$$

  -OEChem-04052303563D

 91 99  0     1  0  0  0  0  0999 V2000
  -31.8042  -14.9262   18.5171 C   0  0  0  0  0  0  0  0  0  0  0  0
  -30.6528  -15.4683   19.0791 C   0  0  0  0  0  0  0  0  0  0  0  0
  -24.8892  -28.9629   22.6655 C   0  0  0  0  0  0  0  0  0  0  0  0
  -24.9507  -30.4119   20.7333 C   0  0  0  0  0  0  0  0  0  0  0  0
  -31.8367  -13.5787   18.1607 C   0  0  0  0  0  0  0  0  0  0  0  0
  -29.5328  -14.6633   19.2839 C   0  0  0  0  0  0  0  0  0  0  0  0
  -27.4385  -15.3714   23.8400 C   0  0  0  0  0  0  0  0  0  0  0  0
  -24.3034  -29.9845   23.4130 C   0  0  0  0  0  0  0  0  0  0  0  0
  -24.3648  -31.4335   21.4807 C   0  0  0  0  0  0  0  0  0  0  0  0
  -26.6449  -16.5055   24.0067 C   0  0  0  0  0  0  0  0  0  0  0  0
  -23.2155  -34.5402   22.9766 C   0  0  0  0  0  0  0  0  0  0  0  0
  -23.7564  -35.8206   22.8603 C   0  0  0  0  0  0  0  0  0  0  0  0
  -28.3105  -20.3926   20.5684 C   0  0  0  0  0  0  0  0  0  0  0  0
  -24.6664  -15.1564   23.7164 C   0  0  0  0  0  0  0  0  0  0  0  0
  -26.6539  -18.9659   19.5403 C   0  0  0  0  0  0  0  0  0  0  0  0
  -25.8811  -34.9959   23.6618 C   0  0  0  0  0  0  0  0  0  0  0  0
  -25.2129  -29.1766   21.3257 C   0  0  0  0  0  0  0  0  0  0  0  0
  -28.9361  -20.5569   19.3326 C   0  0  0  0  0  0  0  0  0  0  0  0
  -25.1583  -27.1375   19.7937 C   0  0  0  0  0  0  0  0  0  0  0  0
  -30.7198  -12.7545   18.3701 C   0  0  0  0  0  0  0  0  0  0  0  0
  -26.8513  -14.1210   23.5990 C   0  0  0  0  0  0  0  0  0  0  0  0
  -29.5499  -13.3038   18.9287 C   0  0  0  0  0  0  0  0  0  0  0  0
  -25.4546  -14.0075   23.5495 C   0  0  0  0  0  0  0  0  0  0  0  0
  -28.4205  -19.9257   18.2006 C   0  0  0  0  0  0  0  0  0  0  0  0
  -27.1694  -19.5971   20.6723 C   0  0  0  0  0  0  0  0  0  0  0  0
  -27.2794  -19.1302   18.3044 C   0  0  0  0  0  0  0  0  0  0  0  0
  -24.0411  -31.2198   22.8206 C   0  0  0  0  0  0  0  0  0  0  0  0
  -25.2587  -16.3986   23.9420 C   0  0  0  0  0  0  0  0  0  0  0  0
  -24.0074  -33.4876   23.4355 C   0  0  0  0  0  0  0  0  0  0  0  0
  -25.0892  -36.0485   23.2029 C   0  0  0  0  0  0  0  0  0  0  0  0
  -25.3402  -33.7155   23.7781 C   0  0  0  0  0  0  0  0  0  0  0  0
  -25.8187  -28.1219   20.5531 C   0  0  0  0  0  0  0  0  0  0  0  0
  -26.1712  -26.3807   19.2574 C   0  0  0  0  0  0  0  0  0  0  0  0
  -30.1496  -21.4102   19.2540 C   0  0  0  0  0  0  0  0  0  0  0  0
  -23.7547  -26.9262   19.5912 C   0  0  0  0  0  0  0  0  0  0  0  0
  -26.9484  -12.0190   21.2165 C   0  0  0  0  0  0  0  0  0  0  0  0
  -26.9396  -16.1479   16.3905 C   0  0  0  0  0  0  0  0  0  0  0  0
  -25.2143  -10.2007   23.2681 C   0  0  0  0  0  0  0  0  0  0  0  0
  -23.1064  -10.0670   25.9488 C   0  0  0  0  0  0  0  0  0  0  0  0
  -25.4032  -18.6729   22.2103 C   0  0  0  0  0  0  0  0  0  0  0  0
  -30.9986  -23.6949   19.6816 C   0  0  0  0  0  0  0  0  0  0  0  0
  -30.7862  -11.3150   17.9251 C   0  0  0  0  0  0  0  0  0  0  0  0
  -27.7204  -12.9026   23.4479 C   0  0  0  0  0  0  0  0  0  0  0  0
  -24.7743  -12.6846   23.3134 C   0  0  0  0  0  0  0  0  0  0  0  0
  -29.6846  -10.4420   18.5206 C   0  0  0  0  0  0  0  0  0  0  0  0
  -31.1707  -27.1818   19.1258 C   0  0  0  0  0  0  0  0  0  0  0  0
  -28.3320  -11.1381   18.4073 C   0  0  0  0  0  0  0  0  0  0  0  0
  -29.7376  -27.6586   19.3768 C   0  0  0  0  0  0  0  0  0  0  0  0
  -31.5765  -26.0703   20.0928 C   0  0  0  0  0  0  0  0  0  0  0  0
  -29.2267  -25.4079   20.4051 C   0  0  0  0  0  0  0  0  0  0  0  0
  -28.3231  -12.4570   19.1894 C   0  0  1  0  0  0  0  0  0  0  0  0
  -27.0326  -11.7676   22.6955 C   0  0  1  0  0  0  0  0  0  0  0  0
  -28.7464  -26.4779   19.4113 C   0  0  1  0  0  0  0  0  0  0  0  0
  -29.0926  -20.1024   16.8745 C   0  0  0  0  0  0  0  0  0  0  0  0
  -27.1818  -15.2568   15.1995 C   0  0  0  0  0  0  0  0  0  0  0  0
  -21.8287   -8.4414   27.3708 C   0  0  0  0  0  0  0  0  0  0  0  0
  -24.0290  -19.8623   23.9586 C   0  0  0  0  0  0  0  0  0  0  0  0
  -23.1529   -9.8772   21.0419 C   0  0  0  0  0  0  0  0  0  0  0  0
  -21.5177   -9.0881   22.7658 C   0  0  0  0  0  0  0  0  0  0  0  0
  -23.6105   -7.7957   22.3505 C   0  0  0  0  0  0  0  0  0  0  0  0
  -25.3896  -18.7670   16.7370 C   0  0  0  0  0  0  0  0  0  0  0  0
  -24.5723  -10.8723   28.3904 C   0  0  0  0  0  0  0  0  0  0  0  0
  -27.5425  -17.5373   16.4192 C   0  0  0  0  0  0  0  0  0  0  0  0
  -23.7430  -10.0165   23.5516 C   0  0  1  0  0  0  0  0  0  0  0  0
  -23.1274   -9.2151   27.2051 C   0  0  2  0  0  0  0  0  0  0  0  0
  -25.0348  -18.7528   23.6896 C   0  0  1  0  0  0  0  0  0  1  0  0
  -23.0186   -9.2198   22.4300 C   0  0  0  0  0  0  0  0  0  0  0  0
  -27.1482  -28.0036   20.5061 N   0  0  0  0  0  0  0  0  0  0  0  0
  -27.3315  -26.9359   19.7107 N   0  0  0  0  0  0  0  0  0  0  0  0
  -25.6674  -11.5236   23.1656 N   0  0  0  0  0  0  0  0  0  0  0  0
  -30.5925  -24.9868   20.0588 N   0  0  0  0  0  0  0  0  0  0  0  0
  -26.1737  -25.3011   18.4470 N   0  0  0  0  0  0  0  0  0  0  0  0
  -22.8510  -27.7964   20.2160 N   0  0  0  0  0  0  0  0  0  0  0  0
  -26.5350  -19.4302   21.9263 N   0  0  0  0  0  0  0  0  0  0  0  0
  -29.9767  -22.7399   19.6391 N   0  0  0  0  0  0  0  0  0  0  0  0
  -28.1745  -12.2034   20.6065 N   0  0  0  0  0  0  0  0  0  0  0  0
  -23.6554   -9.4029   24.8723 N   0  0  0  0  0  0  0  0  0  0  0  0
  -26.7420  -18.4825   17.1700 N   0  0  3  0  0  0  0  0  0  0  0  0
  -23.3207  -10.0722   28.4089 N   0  3  0  0  0  0  0  0  0  0  0  0
  -31.2133  -20.9063   18.9042 O   0  0  0  0  0  0  0  0  0  0  0  0
  -23.3145  -25.9833   18.8906 O   0  0  0  0  0  0  0  0  0  0  0  0
  -25.8523  -12.0424   20.6691 O   0  0  0  0  0  0  0  0  0  0  0  0
  -26.2575  -15.7526   17.3391 O   0  0  0  0  0  0  0  0  0  0  0  0
  -25.9362   -9.2076   23.1494 O   0  0  0  0  0  0  0  0  0  0  0  0
  -22.6455  -11.2060   25.9239 O   0  0  0  0  0  0  0  0  0  0  0  0
  -24.7477  -17.9919   21.4270 O   0  0  0  0  0  0  0  0  0  0  0  0
  -32.1630  -23.4232   19.3724 O   0  0  0  0  0  0  0  0  0  0  0  0
  -23.4692  -32.2168   23.5496 O   0  0  0  0  0  0  0  0  0  0  0  0
  -24.4819  -17.5041   24.1037 O   0  0  0  0  0  0  0  0  0  1  0  0
  -25.6088  -37.2779   23.0897 F   0  0  0  0  0  0  0  0  0  0  0  0
  -26.1063  -32.7080   24.2185 F   0  0  0  0  0  0  0  0  0  0  0  0
  1  2  1  0  0  0  0
  1  5  2  0  0  0  0
  2  6  2  0  0  0  0
  3  8  2  0  0  0  0
  3 17  1  0  0  0  0
  4  9  1  0  0  0  0
  4 17  2  0  0  0  0
  5 20  1  0  0  0  0
  6 22  1  0  0  0  0
  7 10  2  0  0  0  0
  7 21  1  0  0  0  0
  8 27  1  0  0  0  0
  9 27  2  0  0  0  0
 10 28  1  0  0  0  0
 11 12  2  0  0  0  0
 11 29  1  0  0  0  0
 12 30  1  0  0  0  0
 13 18  2  0  0  0  0
 13 25  1  0  0  0  0
 14 23  1  0  0  0  0
 14 28  2  0  0  0  0
 15 25  2  0  0  0  0
 15 26  1  0  0  0  0
 16 30  2  0  0  0  0
 16 31  1  0  0  0  0
 17 32  1  0  0  0  0
 18 24  1  0  0  0  0
 18 34  1  0  0  0  0
 19 32  1  0  0  0  0
 19 33  2  0  0  0  0
 19 35  1  0  0  0  0
 20 22  2  0  0  0  0
 20 42  1  0  0  0  0
 21 23  2  0  0  0  0
 21 43  1  0  0  0  0
 22 51  1  0  0  0  0
 23 44  1  0  0  0  0
 24 26  2  0  0  0  0
 24 54  1  0  0  0  0
 25 74  1  0  0  0  0
 26 78  1  0  0  0  0
 27 88  1  0  0  0  0
 28 89  1  0  0  0  0
 29 31  2  0  0  0  0
 29 88  1  0  0  0  0
 30 90  1  0  0  0  0
 31 91  1  0  0  0  0
 32 68  2  0  0  0  0
 33 69  1  0  0  0  0
 33 72  1  0  0  0  0
 34 75  1  0  0  0  0
 34 80  2  0  0  0  0
 35 73  1  0  0  0  0
 35 81  2  0  0  0  0
 36 52  1  0  0  0  0
 36 76  1  0  0  0  0
 36 82  2  0  0  0  0
 37 55  1  0  0  0  0
 37 63  1  0  0  0  0
 37 83  2  0  0  0  0
 38 64  1  0  0  0  0
 38 70  1  0  0  0  0
 38 84  2  0  0  0  0
 39 65  1  0  0  0  0
 39 77  1  0  0  0  0
 39 85  2  0  0  0  0
 40 66  1  0  0  0  0
 40 74  1  0  0  0  0
 40 86  2  0  0  0  0
 41 71  1  0  0  0  0
 41 75  1  0  0  0  0
 41 87  2  0  0  0  0
 42 45  1  0  0  0  0
 43 52  1  0  0  0  0
 44 70  1  0  0  0  0
 45 47  1  0  0  0  0
 46 48  1  0  0  0  0
 46 49  1  0  0  0  0
 47 51  1  0  0  0  0
 48 53  1  0  0  0  0
 49 71  1  0  0  0  0
 50 53  1  0  0  0  0
 50 71  1  0  0  0  0
 51 76  1  0  0  0  0
 52 70  1  0  0  0  0
 53 69  1  0  0  0  0
 56 65  1  0  0  0  0
 57 66  1  0  0  0  0
 58 67  1  0  0  0  0
 59 67  1  0  0  0  0
 60 67  1  0  0  0  0
 61 78  1  0  0  0  0
 62 79  1  0  0  0  0
 63 78  1  0  0  0  0
 64 67  1  0  0  0  0
 64 77  1  0  0  0  0
 65 79  1  0  0  0  0
 66 89  1  0  0  0  0
 68 69  1  0  0  0  0
M  CHG  1  79   1
M  ISO  4  41 100  66 101  75 100  89 101
M  END
> <Batch ID>
0162

> <Smiles>
CNC(C)C(=O)NC(C(=O)N1Cc2cc([101O:1][101CH:1](C)C(=O)Nc3cc(C(=O)[100NH:0][100C:0](=O)N4CCCC(n5nc(-c6ccc(Oc7ccc(F)cc7F)cc6)c(C(N)=O)c5N)C4)c(C)c(N(C)CC(C)=O)c3)ccc2CC1C(=O)NC1CCCc2ccccc21)C(C)(C)C

> <Shape>
0.254

> <Color>
0.048

> <Negative vol penalty>
0.000

$$$$

  -OEChem-04052303563D

 83 91  0     1  0  0  0  0  0999 V2000
  -17.1997  -30.6626   24.0476 C   0  0  0  0  0  0  0  0  0  0  0  0
  -18.1177  -30.1145   24.9377 C   0  0  0  0  0  0  0  0  0  0  0  0
  -24.7418  -13.8157   21.1645 C   0  0  0  0  0  0  0  0  0  0  0  0
  -26.6835  -13.3465   19.8056 C   0  0  0  0  0  0  0  0  0  0  0  0
  -17.0094  -30.0781   22.7962 C   0  0  0  0  0  0  0  0  0  0  0  0
  -18.8453  -28.9808   24.5772 C   0  0  0  0  0  0  0  0  0  0  0  0
  -25.2476  -25.9156   25.5421 C   0  0  0  0  0  0  0  0  0  0  0  0
  -24.1654  -12.6128   20.7564 C   0  0  0  0  0  0  0  0  0  0  0  0
  -26.1072  -12.1435   19.3976 C   0  0  0  0  0  0  0  0  0  0  0  0
  -25.8131  -24.7034   25.9350 C   0  0  0  0  0  0  0  0  0  0  0  0
  -24.4566   -9.3294   21.5097 C   0  0  0  0  0  0  0  0  0  0  0  0
  -23.8627   -8.5308   22.4870 C   0  0  0  0  0  0  0  0  0  0  0  0
  -31.7636  -24.0375   21.8899 C   0  0  0  0  0  0  0  0  0  0  0  0
  -31.2840  -24.2461   23.2051 C   0  0  0  0  0  0  0  0  0  0  0  0
  -25.4585  -23.8257   23.7162 C   0  0  0  0  0  0  0  0  0  0  0  0
  -21.7458   -8.6942   21.3342 C   0  0  0  0  0  0  0  0  0  0  0  0
  -26.0008  -14.1826   20.6890 C   0  0  0  0  0  0  0  0  0  0  0  0
  -27.4283  -15.6344   22.2259 C   0  0  0  0  0  0  0  0  0  0  0  0
  -17.7419  -28.9424   22.4164 C   0  0  0  0  0  0  0  0  0  0  0  0
  -24.7726  -26.0887   24.2341 C   0  0  0  0  0  0  0  0  0  0  0  0
  -18.6636  -28.3798   23.3200 C   0  0  0  0  0  0  0  0  0  0  0  0
  -24.8898  -25.0420   23.3085 C   0  0  0  0  0  0  0  0  0  0  0  0
  -24.8482  -11.7767   19.8730 C   0  0  0  0  0  0  0  0  0  0  0  0
  -25.9160  -23.6572   25.0229 C   0  0  0  0  0  0  0  0  0  0  0  0
  -23.6950   -9.8106   20.4447 C   0  0  0  0  0  0  0  0  0  0  0  0
  -22.5074   -8.2131   22.3992 C   0  0  0  0  0  0  0  0  0  0  0  0
  -22.3396   -9.4929   20.3569 C   0  0  0  0  0  0  0  0  0  0  0  0
  -26.5963  -15.4253   21.1097 C   0  0  0  0  0  0  0  0  0  0  0  0
  -31.3228  -22.7894   21.5161 C   0  0  0  0  0  0  0  0  0  0  0  0
  -27.7256  -16.9747   22.1864 C   0  0  0  0  0  0  0  0  0  0  0  0
  -30.5839  -23.1107   23.5410 C   0  0  0  0  0  0  0  0  0  0  0  0
  -27.8911  -14.7004   23.2105 C   0  0  0  0  0  0  0  0  0  0  0  0
  -21.9345  -26.7033   22.9413 C   0  0  0  0  0  0  0  0  0  0  0  0
  -23.6607  -26.9046   20.2023 C   0  0  0  0  0  0  0  0  0  0  0  0
  -26.4794  -26.0393   18.4839 C   0  0  0  0  0  0  0  0  0  0  0  0
  -29.2225  -21.5463   19.3569 C   0  0  0  0  0  0  0  0  0  0  0  0
  -17.4675  -28.3179   21.0713 C   0  0  0  0  0  0  0  0  0  0  0  0
  -24.1895  -27.4114   23.8185 C   0  0  0  0  0  0  0  0  0  0  0  0
  -24.4134  -25.1837   21.8867 C   0  0  0  0  0  0  0  0  0  0  0  0
  -18.5495  -27.3392   20.6220 C   0  0  0  0  0  0  0  0  0  0  0  0
  -25.7640  -20.7007   19.3836 C   0  0  0  0  0  0  0  0  0  0  0  0
  -18.9195  -26.3932   21.7600 C   0  0  0  0  0  0  0  0  0  0  0  0
  -25.7417  -19.2687   19.9209 C   0  0  0  0  0  0  0  0  0  0  0  0
  -26.9788  -20.9503   18.4925 C   0  0  0  0  0  0  0  0  0  0  0  0
  -28.2548  -19.1847   19.6451 C   0  0  0  0  0  0  0  0  0  0  0  0
  -19.4897  -27.1652   22.9560 C   0  0  1  0  0  0  0  0  0  0  0  0
  -23.2700  -27.3045   22.6058 C   0  0  1  0  0  0  0  0  0  0  0  0
  -27.0778  -18.9015   20.5942 C   0  0  2  0  0  0  0  0  0  0  0  0
  -27.5911  -26.3234   16.2522 C   0  0  0  0  0  0  0  0  0  0  0  0
  -21.7359  -24.8724   18.9876 C   0  0  0  0  0  0  0  0  0  0  0  0
  -23.4040  -24.4890   17.1603 C   0  0  0  0  0  0  0  0  0  0  0  0
  -22.3791  -26.7437   17.4582 C   0  0  0  0  0  0  0  0  0  0  0  0
  -27.7912  -20.0247   26.2903 C   0  0  0  0  0  0  0  0  0  0  0  0
  -29.5304  -21.4555   27.3750 C   0  0  0  0  0  0  0  0  0  0  0  0
  -28.8184  -27.3923   19.6913 C   0  0  0  0  0  0  0  0  0  0  0  0
  -31.4781  -21.9944   20.2899 C   0  0  0  0  0  0  0  0  0  0  0  0
  -29.2157  -21.4907   24.8559 C   0  0  0  0  0  0  0  0  0  0  0  0
  -27.4668  -22.5188   26.4211 C   0  0  0  0  0  0  0  0  0  1  0  0
  -24.0878  -25.9277   19.1335 C   0  0  1  0  0  0  0  0  0  0  0  0
  -27.4543  -26.8669   17.6659 C   0  0  2  0  0  0  0  0  0  0  0  0
  -22.9090  -25.5046   18.2122 C   0  0  0  0  0  0  0  0  0  0  0  0
  -28.5052  -21.3910   26.2277 C   0  0  0  0  0  0  0  0  0  0  0  0
  -26.3789  -16.5434   20.4121 N   0  0  0  0  0  0  0  0  0  0  0  0
  -27.0785  -17.4679   21.0917 N   0  0  0  0  0  0  0  0  0  0  0  0
  -23.8450  -26.4942   21.5302 N   0  0  0  0  0  0  0  0  0  0  0  0
  -28.2133  -20.5835   19.1906 N   0  0  0  0  0  0  0  0  0  0  0  0
  -28.4746  -17.7678   22.9816 N   0  0  0  0  0  0  0  0  0  0  0  0
  -27.4906  -13.3617   23.1018 N   0  0  0  0  0  0  0  0  0  0  0  0
  -29.9012  -22.7522   24.6914 N   0  0  0  0  0  0  0  0  0  0  0  0
  -20.8636  -27.5439   22.7045 N   0  0  0  0  0  0  0  0  0  0  0  0
  -25.2014  -26.5541   18.4294 N   0  0  0  0  0  0  0  0  0  0  0  0
  -30.3569  -21.1176   20.0352 N   0  0  0  0  0  0  0  0  0  0  0  0
  -28.8011  -26.8612   18.3040 N   0  3  0  0  0  0  0  0  0  0  0  0
  -28.6243  -15.0462   24.1678 O   0  0  0  0  0  0  0  0  0  0  0  0
  -21.8795  -25.5608   23.3810 O   0  0  0  0  0  0  0  0  0  0  0  0
  -23.1877  -27.9947   19.8711 O   0  0  0  0  0  0  0  0  0  0  0  0
  -26.8170  -25.0344   19.1058 O   0  0  0  0  0  0  0  0  0  0  0  0
  -29.1178  -22.7037   18.9371 O   0  0  0  0  0  0  0  0  0  0  0  0
  -30.6028  -22.2178   22.5168 O   0  0  0  0  0  0  0  0  0  0  0  0
  -24.2862  -10.6027   19.4748 O   0  0  0  0  0  0  0  0  0  0  0  0
  -26.4670  -22.4727   25.4039 O   0  0  0  0  0  0  0  0  0  1  0  0
  -21.9376   -7.4449   23.3369 F   0  0  0  0  0  0  0  0  0  0  0  0
  -21.6032   -9.9512   19.3355 F   0  0  0  0  0  0  0  0  0  0  0  0
  1  2  1  0  0  0  0
  1  5  2  0  0  0  0
  2  6  2  0  0  0  0
  3  8  2  0  0  0  0
  3 17  1  0  0  0  0
  4  9  1  0  0  0  0
  4 17  2  0  0  0  0
  5 19  1  0  0  0  0
  6 21  1  0  0  0  0
  7 10  2  0  0  0  0
  7 20  1  0  0  0  0
  8 23  1  0  0  0  0
  9 23  2  0  0  0  0
 10 24  1  0  0  0  0
 11 12  2  0  0  0  0
 11 25  1  0  0  0  0
 12 26  1  0  0  0  0
 13 14  1  0  0  0  0
 13 29  2  0  0  0  0
 14 31  2  0  0  0  0
 15 22  1  0  0  0  0
 15 24  2  0  0  0  0
 16 26  2  0  0  0  0
 16 27  1  0  0  0  0
 17 28  1  0  0  0  0
 18 28  1  0  0  0  0
 18 30  2  0  0  0  0
 18 32  1  0  0  0  0
 19 21  2  0  0  0  0
 19 37  1  0  0  0  0
 20 22  2  0  0  0  0
 20 38  1  0  0  0  0
 21 46  1  0  0  0  0
 22 39  1  0  0  0  0
 23 80  1  0  0  0  0
 24 81  1  0  0  0  0
 25 27  2  0  0  0  0
 25 80  1  0  0  0  0
 26 82  1  0  0  0  0
 27 83  1  0  0  0  0
 28 63  2  0  0  0  0
 29 56  1  0  0  0  0
 29 79  1  0  0  0  0
 30 64  1  0  0  0  0
 30 67  1  0  0  0  0
 31 69  1  0  0  0  0
 31 79  1  0  0  0  0
 32 68  1  0  0  0  0
 32 74  2  0  0  0  0
 33 47  1  0  0  0  0
 33 70  1  0  0  0  0
 33 75  2  0  0  0  0
 34 59  1  0  0  0  0
 34 65  1  0  0  0  0
 34 76  2  0  0  0  0
 35 60  1  0  0  0  0
 35 71  1  0  0  0  0
 35 77  2  0  0  0  0
 36 66  1  0  0  0  0
 36 72  1  0  0  0  0
 36 78  2  0  0  0  0
 37 40  1  0  0  0  0
 38 47  1  0  0  0  0
 39 65  1  0  0  0  0
 40 42  1  0  0  0  0
 41 43  1  0  0  0  0
 41 44  1  0  0  0  0
 42 46  1  0  0  0  0
 43 48  1  0  0  0  0
 44 66  1  0  0  0  0
 45 48  1  0  0  0  0
 45 66  1  0  0  0  0
 46 70  1  0  0  0  0
 47 65  1  0  0  0  0
 48 64  1  0  0  0  0
 49 60  1  0  0  0  0
 50 61  1  0  0  0  0
 51 61  1  0  0  0  0
 52 61  1  0  0  0  0
 53 62  1  0  0  0  0
 54 62  1  0  0  0  0
 55 73  1  0  0  0  0
 56 72  1  0  0  0  0
 57 62  1  0  0  0  0
 57 69  1  0  0  0  0
 58 62  1  0  0  0  0
 58 81  1  0  0  0  0
 59 61  1  0  0  0  0
 59 71  1  0  0  0  0
 60 73  1  0  0  0  0
 63 64  1  0  0  0  0
M  CHG  1  73   1
M  ISO  4  36 100  58 101  72 100  81 101
M  END
> <Batch ID>
0162

> <Smiles>
CNC(C)C(=O)NC(C(=O)N1Cc2cc([101O:1][101CH2:1]C(C)(C)CNc3ccc(C[100NH:0][100C:0](=O)N4CCCC(n5nc(-c6ccc(Oc7ccc(F)cc7F)cc6)c(C(N)=O)c5N)C4)o3)ccc2CC1C(=O)NC1CCCc2ccccc21)C(C)(C)C

> <Shape>
0.207

> <Color>
0.074

> <Negative vol penalty>
0.000

$$$$

  -OEChem-04052303563D

 83 91  0     1  0  0  0  0  0999 V2000
  -17.1634  -30.0478   24.8529 C   0  0  0  0  0  0  0  0  0  0  0  0
  -17.5633  -28.7366   24.6157 C   0  0  0  0  0  0  0  0  0  0  0  0
  -27.0002  -13.9723   19.8931 C   0  0  0  0  0  0  0  0  0  0  0  0
  -26.0667  -13.7418   22.1095 C   0  0  0  0  0  0  0  0  0  0  0  0
  -17.5304  -31.0587   23.9657 C   0  0  0  0  0  0  0  0  0  0  0  0
  -18.3298  -28.4354   23.4904 C   0  0  0  0  0  0  0  0  0  0  0  0
  -23.4959  -23.9922   21.2803 C   0  0  0  0  0  0  0  0  0  0  0  0
  -26.7195  -12.6306   19.6353 C   0  0  0  0  0  0  0  0  0  0  0  0
  -25.7859  -12.4001   21.8517 C   0  0  0  0  0  0  0  0  0  0  0  0
  -23.7772  -23.0948   20.2511 C   0  0  0  0  0  0  0  0  0  0  0  0
  -23.4391  -10.6223   20.1926 C   0  0  0  0  0  0  0  0  0  0  0  0
  -22.1843  -10.1411   20.5659 C   0  0  0  0  0  0  0  0  0  0  0  0
  -24.4190  -24.9352   18.8298 C   0  0  0  0  0  0  0  0  0  0  0  0
  -23.2370   -8.5268   22.0230 C   0  0  0  0  0  0  0  0  0  0  0  0
  -26.6739  -14.5280   21.1302 C   0  0  0  0  0  0  0  0  0  0  0  0
  -26.1257  -17.0192   21.1593 C   0  0  0  0  0  0  0  0  0  0  0  0
  -18.3099  -30.7713   22.8341 C   0  0  0  0  0  0  0  0  0  0  0  0
  -23.6639  -25.3710   21.0881 C   0  0  0  0  0  0  0  0  0  0  0  0
  -18.7065  -29.4432   22.5865 C   0  0  0  0  0  0  0  0  0  0  0  0
  -24.1416  -25.8479   19.8590 C   0  0  0  0  0  0  0  0  0  0  0  0
  -26.1123  -11.8445   20.6146 C   0  0  0  0  0  0  0  0  0  0  0  0
  -24.2361  -23.5664   19.0247 C   0  0  0  0  0  0  0  0  0  0  0  0
  -24.5929  -10.0558   20.7343 C   0  0  0  0  0  0  0  0  0  0  0  0
  -22.0832   -9.0933   21.4811 C   0  0  0  0  0  0  0  0  0  0  0  0
  -24.4918   -9.0080   21.6496 C   0  0  0  0  0  0  0  0  0  0  0  0
  -26.9642  -15.9138   21.3974 C   0  0  0  0  0  0  0  0  0  0  0  0
  -29.8749  -23.4483   19.6101 C   0  0  0  0  0  0  0  0  0  0  0  0
  -29.7659  -24.7186   19.1011 C   0  0  0  0  0  0  0  0  0  0  0  0
  -26.8574  -18.1023   21.5811 C   0  0  0  0  0  0  0  0  0  0  0  0
  -28.3022  -23.4354   18.2139 C   0  0  0  0  0  0  0  0  0  0  0  0
  -24.8035  -17.0630   20.6065 C   0  0  0  0  0  0  0  0  0  0  0  0
  -30.8453  -22.9734   20.6297 C   0  0  0  0  0  0  0  0  0  0  0  0
  -21.7316  -27.8945   21.1365 C   0  0  0  0  0  0  0  0  0  0  0  0
  -24.5078  -29.5377   20.7968 C   0  0  0  0  0  0  0  0  0  0  0  0
  -27.7608  -29.5479   19.7652 C   0  0  0  0  0  0  0  0  0  0  0  0
  -31.5882  -20.9710   21.8796 C   0  0  0  0  0  0  0  0  0  0  0  0
  -18.6422  -31.8897   21.8784 C   0  0  0  0  0  0  0  0  0  0  0  0
  -23.3815  -26.3240   22.2170 C   0  0  0  0  0  0  0  0  0  0  0  0
  -24.3581  -27.3171   19.6085 C   0  0  0  0  0  0  0  0  0  0  0  0
  -19.7711  -31.5477   20.9095 C   0  0  0  0  0  0  0  0  0  0  0  0
  -31.1831  -18.3394   24.2050 C   0  0  0  0  0  0  0  0  0  0  0  0
  -19.5548  -30.1642   20.3047 C   0  0  0  0  0  0  0  0  0  0  0  0
  -29.9750  -17.5666   23.6690 C   0  0  0  0  0  0  0  0  0  0  0  0
  -32.0740  -18.8544   23.0754 C   0  0  0  0  0  0  0  0  0  0  0  0
  -30.1778  -18.8570   21.5062 C   0  0  0  0  0  0  0  0  0  0  0  0
  -19.5593  -29.0809   21.3900 C   0  0  1  0  0  0  0  0  0  0  0  0
  -23.0987  -27.7459   21.7421 C   0  0  1  0  0  0  0  0  0  0  0  0
  -29.2124  -18.3779   22.6023 C   0  0  1  0  0  0  0  0  0  0  0  0
  -30.4694  -25.9880   19.3165 C   0  0  0  0  0  0  0  0  0  0  0  0
  -30.0917  -30.4115   19.4209 C   0  0  0  0  0  0  0  0  0  0  0  0
  -24.8486  -20.3410   18.1728 C   0  0  0  0  0  0  0  0  0  0  0  0
  -23.2517  -30.9143   18.3808 C   0  0  0  0  0  0  0  0  0  0  0  0
  -25.5446  -31.6499   17.6956 C   0  0  0  0  0  0  0  0  0  0  0  0
  -24.5850  -32.4227   19.8646 C   0  0  0  0  0  0  0  0  0  0  0  0
  -28.6565  -28.5121   22.3889 C   0  0  0  0  0  0  0  0  0  0  0  0
  -26.6372  -21.8488   17.2464 C   0  0  0  0  0  0  0  0  0  0  0  0
  -25.3291  -30.0183   19.6249 C   0  0  1  0  0  0  0  0  0  0  0  0
  -29.0307  -30.0314   20.4420 C   0  0  2  0  0  0  0  0  0  0  0  0
  -25.5120  -21.7072   18.2689 C   0  0  1  0  0  0  0  0  0  1  0  0
  -24.6718  -31.2237   18.8952 C   0  0  0  0  0  0  0  0  0  0  0  0
  -28.1389  -16.2626   21.9289 N   0  0  0  0  0  0  0  0  0  0  0  0
  -28.9342  -22.6306   19.0380 N   0  0  0  0  0  0  0  0  0  0  0  0
  -28.0437  -17.5995   22.0283 N   0  0  0  0  0  0  0  0  0  0  0  0
  -24.0618  -28.2096   20.7413 N   0  0  0  0  0  0  0  0  0  0  0  0
  -31.2787  -19.6198   22.1136 N   0  0  0  0  0  0  0  0  0  0  0  0
  -26.5954  -19.4263   21.6092 N   0  0  0  0  0  0  0  0  0  0  0  0
  -24.1983  -15.8576   20.2255 N   0  0  0  0  0  0  0  0  0  0  0  0
  -27.2454  -23.1546   17.3640 N   0  0  0  0  0  0  0  0  0  0  0  0
  -30.7438  -21.6257   20.9760 N   0  0  0  0  0  0  0  0  0  0  0  0
  -20.9143  -28.7863   21.8044 N   0  0  0  0  0  0  0  0  0  0  0  0
  -26.6639  -30.2913   20.1465 N   0  0  0  0  0  0  0  0  0  0  0  0
  -29.5864  -28.9654   21.3227 N   0  3  0  0  0  0  0  0  0  0  0  0
  -24.1837  -18.1407   20.4397 O   0  0  0  0  0  0  0  0  0  0  0  0
  -31.6828  -23.7568   21.0689 O   0  0  0  0  0  0  0  0  0  0  0  0
  -21.4405  -27.2490   20.1364 O   0  0  0  0  0  0  0  0  0  0  0  0
  -24.2767  -30.3099   21.7306 O   0  0  0  0  0  0  0  0  0  0  0  0
  -27.7443  -28.6073   18.9742 O   0  0  0  0  0  0  0  0  0  0  0  0
  -32.5127  -21.5548   22.4539 O   0  0  0  0  0  0  0  0  0  0  0  0
  -28.7490  -24.7210   18.1948 O   0  0  0  0  0  0  0  0  0  0  0  0
  -25.8379  -10.5352   20.3633 O   0  0  0  0  0  0  0  0  0  0  0  0
  -24.5108  -22.6927   18.0182 O   0  0  0  0  0  0  0  0  0  1  0  0
  -20.8781   -8.6323   21.8408 F   0  0  0  0  0  0  0  0  0  0  0  0
  -25.5966   -8.4605   22.1743 F   0  0  0  0  0  0  0  0  0  0  0  0
  1  2  1  0  0  0  0
  1  5  2  0  0  0  0
  2  6  2  0  0  0  0
  3  8  2  0  0  0  0
  3 15  1  0  0  0  0
  4  9  1  0  0  0  0
  4 15  2  0  0  0  0
  5 17  1  0  0  0  0
  6 19  1  0  0  0  0
  7 10  2  0  0  0  0
  7 18  1  0  0  0  0
  8 21  1  0  0  0  0
  9 21  2  0  0  0  0
 10 22  1  0  0  0  0
 11 12  2  0  0  0  0
 11 23  1  0  0  0  0
 12 24  1  0  0  0  0
 13 20  1  0  0  0  0
 13 22  2  0  0  0  0
 14 24  2  0  0  0  0
 14 25  1  0  0  0  0
 15 26  1  0  0  0  0
 16 26  1  0  0  0  0
 16 29  2  0  0  0  0
 16 31  1  0  0  0  0
 17 19  2  0  0  0  0
 17 37  1  0  0  0  0
 18 20  2  0  0  0  0
 18 38  1  0  0  0  0
 19 46  1  0  0  0  0
 20 39  1  0  0  0  0
 21 80  1  0  0  0  0
 22 81  1  0  0  0  0
 23 25  2  0  0  0  0
 23 80  1  0  0  0  0
 24 82  1  0  0  0  0
 25 83  1  0  0  0  0
 26 61  2  0  0  0  0
 27 28  2  0  0  0  0
 27 32  1  0  0  0  0
 27 62  1  0  0  0  0
 28 49  1  0  0  0  0
 28 79  1  0  0  0  0
 29 63  1  0  0  0  0
 29 66  1  0  0  0  0
 30 62  2  0  0  0  0
 30 68  1  0  0  0  0
 30 79  1  0  0  0  0
 31 67  1  0  0  0  0
 31 73  2  0  0  0  0
 32 69  1  0  0  0  0
 32 74  2  0  0  0  0
 33 47  1  0  0  0  0
 33 70  1  0  0  0  0
 33 75  2  0  0  0  0
 34 57  1  0  0  0  0
 34 64  1  0  0  0  0
 34 76  2  0  0  0  0
 35 58  1  0  0  0  0
 35 71  1  0  0  0  0
 35 77  2  0  0  0  0
 36 65  1  0  0  0  0
 36 69  1  0  0  0  0
 36 78  2  0  0  0  0
 37 40  1  0  0  0  0
 38 47  1  0  0  0  0
 39 64  1  0  0  0  0
 40 42  1  0  0  0  0
 41 43  1  0  0  0  0
 41 44  1  0  0  0  0
 42 46  1  0  0  0  0
 43 48  1  0  0  0  0
 44 65  1  0  0  0  0
 45 48  1  0  0  0  0
 45 65  1  0  0  0  0
 46 70  1  0  0  0  0
 47 64  1  0  0  0  0
 48 63  1  0  0  0  0
 50 58  1  0  0  0  0
 51 59  1  0  0  0  0
 52 60  1  0  0  0  0
 53 60  1  0  0  0  0
 54 60  1  0  0  0  0
 55 72  1  0  0  0  0
 56 59  1  0  0  0  0
 56 68  1  0  0  0  0
 57 60  1  0  0  0  0
 57 71  1  0  0  0  0
 58 72  1  0  0  0  0
 59 81  1  0  0  0  0
 61 63  1  0  0  0  0
M  CHG  1  72   1
M  ISO  4  36 100  59 101  69 100  81 101
M  END
> <Batch ID>
0162

> <Smiles>
CNC(C)C(=O)NC(C(=O)N1Cc2cc([101O:1][101CH:1](C)CNc3nc(C(=O)[100NH:0][100C:0](=O)N4CCCC(n5nc(-c6ccc(Oc7ccc(F)cc7F)cc6)c(C(N)=O)c5N)C4)c(C)o3)ccc2CC1C(=O)NC1CCCc2ccccc21)C(C)(C)C

> <Shape>
0.221

> <Color>
0.066

> <Negative vol penalty>
0.000

$$$$

  -OEChem-04052303563D

 88 97  0     1  0  0  0  0  0999 V2000
  -33.0170  -27.3270   17.2448 C   0  0  0  0  0  0  0  0  0  0  0  0
  -31.8708  -26.8418   17.8662 C   0  0  0  0  0  0  0  0  0  0  0  0
  -27.3165  -20.2786   17.3773 C   0  0  0  0  0  0  0  0  0  0  0  0
  -23.1437  -10.2463   19.9979 C   0  0  0  0  0  0  0  0  0  0  0  0
  -23.9273   -9.9062   22.2579 C   0  0  0  0  0  0  0  0  0  0  0  0
  -33.6965  -28.4155   17.7901 C   0  0  0  0  0  0  0  0  0  0  0  0
  -31.4040  -27.4441   19.0340 C   0  0  0  0  0  0  0  0  0  0  0  0
  -26.3926  -28.1706   18.9759 C   0  0  0  0  0  0  0  0  0  0  0  0
  -22.3258   -9.1222   20.1123 C   0  0  0  0  0  0  0  0  0  0  0  0
  -23.1093   -8.7821   22.3723 C   0  0  0  0  0  0  0  0  0  0  0  0
  -25.5857  -27.0632   19.2332 C   0  0  0  0  0  0  0  0  0  0  0  0
  -23.1673   -5.5483   21.3876 C   0  0  0  0  0  0  0  0  0  0  0  0
  -23.7193   -4.4003   21.9558 C   0  0  0  0  0  0  0  0  0  0  0  0
  -27.5343  -21.5385   17.9236 C   0  0  0  0  0  0  0  0  0  0  0  0
  -26.7731  -19.2699   18.1650 C   0  0  0  0  0  0  0  0  0  0  0  0
  -25.2954  -27.8108   21.5083 C   0  0  0  0  0  0  0  0  0  0  0  0
  -22.0524   -4.4637   23.7035 C   0  0  0  0  0  0  0  0  0  0  0  0
  -23.9445  -10.6383   21.0707 C   0  0  0  0  0  0  0  0  0  0  0  0
  -25.8283  -12.0037   20.0246 C   0  0  0  0  0  0  0  0  0  0  0  0
  -33.2324  -29.0375   18.9599 C   0  0  0  0  0  0  0  0  0  0  0  0
  -26.6664  -29.1023   19.9877 C   0  0  0  0  0  0  0  0  0  0  0  0
  -32.0787  -28.5411   19.5962 C   0  0  0  0  0  0  0  0  0  0  0  0
  -26.1040  -28.9306   21.2606 C   0  0  0  0  0  0  0  0  0  0  0  0
  -22.3086   -8.3902   21.2995 C   0  0  0  0  0  0  0  0  0  0  0  0
  -25.0393  -26.8816   20.5003 C   0  0  0  0  0  0  0  0  0  0  0  0
  -22.0578   -6.1541   21.9773 C   0  0  0  0  0  0  0  0  0  0  0  0
  -23.1619   -3.8580   23.1137 C   0  0  0  0  0  0  0  0  0  0  0  0
  -21.5004   -5.6118   23.1353 C   0  0  0  0  0  0  0  0  0  0  0  0
  -24.7900  -11.7990   20.9530 C   0  0  0  0  0  0  0  0  0  0  0  0
  -27.1943  -21.7370   19.2521 C   0  0  0  0  0  0  0  0  0  0  0  0
  -26.4673  -19.5698   19.4827 C   0  0  0  0  0  0  0  0  0  0  0  0
  -26.3175  -13.2513   20.3261 C   0  0  0  0  0  0  0  0  0  0  0  0
  -26.3077  -11.1432   18.9828 C   0  0  0  0  0  0  0  0  0  0  0  0
  -29.2985  -30.1070   21.4594 C   0  0  0  0  0  0  0  0  0  0  0  0
  -27.2566  -32.2235   22.8279 C   0  0  0  0  0  0  0  0  0  0  0  0
  -25.3907  -24.3861   19.2781 C   0  0  0  0  0  0  0  0  0  0  0  0
  -24.0579  -32.9889   23.7387 C   0  0  0  0  0  0  0  0  0  0  0  0
  -25.5313  -18.6105   21.6158 C   0  0  0  0  0  0  0  0  0  0  0  0
  -34.0272  -30.1814   19.5381 C   0  0  0  0  0  0  0  0  0  0  0  0
  -27.5170  -30.3057   19.6867 C   0  0  0  0  0  0  0  0  0  0  0  0
  -26.3508  -29.9126   22.3756 C   0  0  0  0  0  0  0  0  0  0  0  0
  -33.2554  -30.9988   20.5708 C   0  0  0  0  0  0  0  0  0  0  0  0
  -27.9573  -22.7975   22.3805 C   0  0  0  0  0  0  0  0  0  0  0  0
  -26.7901  -23.7148   22.7012 C   0  0  0  0  0  0  0  0  0  0  0  0
  -25.4306  -16.2665   24.2939 C   0  0  0  0  0  0  0  0  0  0  0  0
  -32.5498  -30.0780   21.5613 C   0  0  0  0  0  0  0  0  0  0  0  0
  -28.4930  -23.0926   20.9873 C   0  0  0  0  0  0  0  0  0  0  0  0
  -25.3404  -14.9121   23.5871 C   0  0  0  0  0  0  0  0  0  0  0  0
  -25.6810  -23.6024   21.6647 C   0  0  0  0  0  0  0  0  0  0  0  0
  -24.6368  -17.3444   23.5579 C   0  0  0  0  0  0  0  0  0  0  0  0
  -24.8678  -16.1328   21.4253 C   0  0  0  0  0  0  0  0  0  0  0  0
  -31.5272  -29.1832   20.8507 C   0  0  1  0  0  0  0  0  0  0  0  0
  -27.4189  -23.1063   19.8851 C   0  0  2  0  0  0  0  0  0  0  0  0
  -28.1483  -30.9180   20.9332 C   0  0  1  0  0  0  0  0  0  0  0  0
  -25.7048  -15.0302   22.0942 C   0  0  2  0  0  0  0  0  0  0  0  0
  -22.7062  -34.7727   24.8738 C   0  0  0  0  0  0  0  0  0  0  0  0
  -23.1666  -23.7445   20.1833 C   0  0  0  0  0  0  0  0  0  0  0  0
  -23.3626  -25.6223   18.5154 C   0  0  0  0  0  0  0  0  0  0  0  0
  -28.2972  -31.2841   25.5380 C   0  0  0  0  0  0  0  0  0  0  0  0
  -26.3019  -32.3614   26.5995 C   0  0  0  0  0  0  0  0  0  0  0  0
  -27.9531  -33.7542   25.3519 C   0  0  0  0  0  0  0  0  0  0  0  0
  -22.4342  -33.4662   21.3107 C   0  0  0  0  0  0  0  0  0  0  0  0
  -26.3966  -32.2301   24.0687 C   0  0  1  0  0  0  0  0  0  0  0  0
  -23.2293  -34.2463   23.5464 C   0  0  2  0  0  0  0  0  0  0  0  0
  -24.0270  -24.8936   19.6763 C   0  0  0  0  0  0  0  0  0  1  0  0
  -27.2339  -32.3877   25.3693 C   0  0  0  0  0  0  0  0  0  0  0  0
  -24.6284  -12.8335   21.7822 N   0  0  0  0  0  0  0  0  0  0  0  0
  -26.6645  -20.7817   20.0486 N   0  0  0  0  0  0  0  0  0  0  0  0
  -25.5717  -13.7003   21.3761 N   0  0  0  0  0  0  0  0  0  0  0  0
  -27.1942  -31.0698   22.0336 N   0  0  0  0  0  0  0  0  0  0  0  0
  -26.1541  -23.7673   20.2810 N   0  0  0  0  0  0  0  0  0  0  0  0
  -25.0384  -17.4015   22.1506 N   0  0  0  0  0  0  0  0  0  0  0  0
  -27.3085  -13.9969   19.7930 N   0  0  0  0  0  0  0  0  0  0  0  0
  -27.3339  -10.2373   19.2838 N   0  0  0  0  0  0  0  0  0  0  0  0
  -25.9122  -18.5356   20.2764 N   0  0  0  0  0  0  0  0  0  0  0  0
  -30.3244  -29.9300   20.5507 N   0  0  0  0  0  0  0  0  0  0  0  0
  -25.4000  -33.2767   23.8691 N   0  0  0  0  0  0  0  0  0  0  0  0
  -22.0646  -33.9684   22.6591 N   0  3  0  0  0  0  0  0  0  0  0  0
  -25.8513  -11.1881   17.8153 O   0  0  0  0  0  0  0  0  0  0  0  0
  -29.2589  -29.6751   22.6055 O   0  0  0  0  0  0  0  0  0  0  0  0
  -27.9524  -33.2087   22.5692 O   0  0  0  0  0  0  0  0  0  0  0  0
  -25.7695  -24.5338   18.1129 O   0  0  0  0  0  0  0  0  0  0  0  0
  -23.5635  -31.8643   23.7737 O   0  0  0  0  0  0  0  0  0  0  0  0
  -25.6352  -19.6296   22.3032 O   0  0  0  0  0  0  0  0  0  0  0  0
  -21.5104   -7.2934   21.4116 O   0  0  0  0  0  0  0  0  0  0  0  0
  -24.2518  -25.8012   20.7543 O   0  0  0  0  0  0  0  0  0  1  0  0
  -23.6911   -2.7546   23.6583 F   0  0  0  0  0  0  0  0  0  0  0  0
  -20.4338   -6.1887   23.7057 F   0  0  0  0  0  0  0  0  0  0  0  0
  1  2  1  0  0  0  0
  1  6  2  0  0  0  0
  2  7  2  0  0  0  0
  3 14  2  0  0  0  0
  3 15  1  0  0  0  0
  4  9  2  0  0  0  0
  4 18  1  0  0  0  0
  5 10  1  0  0  0  0
  5 18  2  0  0  0  0
  6 20  1  0  0  0  0
  7 22  1  0  0  0  0
  8 11  2  0  0  0  0
  8 21  1  0  0  0  0
  9 24  1  0  0  0  0
 10 24  2  0  0  0  0
 11 25  1  0  0  0  0
 12 13  2  0  0  0  0
 12 26  1  0  0  0  0
 13 27  1  0  0  0  0
 14 30  1  0  0  0  0
 15 31  2  0  0  0  0
 16 23  1  0  0  0  0
 16 25  2  0  0  0  0
 17 27  2  0  0  0  0
 17 28  1  0  0  0  0
 18 29  1  0  0  0  0
 19 29  1  0  0  0  0
 19 32  2  0  0  0  0
 19 33  1  0  0  0  0
 20 22  2  0  0  0  0
 20 39  1  0  0  0  0
 21 23  2  0  0  0  0
 21 40  1  0  0  0  0
 22 52  1  0  0  0  0
 23 41  1  0  0  0  0
 24 85  1  0  0  0  0
 25 86  1  0  0  0  0
 26 28  2  0  0  0  0
 26 85  1  0  0  0  0
 27 87  1  0  0  0  0
 28 88  1  0  0  0  0
 29 67  2  0  0  0  0
 30 53  1  0  0  0  0
 30 68  2  0  0  0  0
 31 68  1  0  0  0  0
 31 75  1  0  0  0  0
 32 69  1  0  0  0  0
 32 73  1  0  0  0  0
 33 74  1  0  0  0  0
 33 79  2  0  0  0  0
 34 54  1  0  0  0  0
 34 76  1  0  0  0  0
 34 80  2  0  0  0  0
 35 63  1  0  0  0  0
 35 70  1  0  0  0  0
 35 81  2  0  0  0  0
 36 65  1  0  0  0  0
 36 71  1  0  0  0  0
 36 82  2  0  0  0  0
 37 64  1  0  0  0  0
 37 77  1  0  0  0  0
 37 83  2  0  0  0  0
 38 72  1  0  0  0  0
 38 75  1  0  0  0  0
 38 84  2  0  0  0  0
 39 42  1  0  0  0  0
 40 54  1  0  0  0  0
 41 70  1  0  0  0  0
 42 46  1  0  0  0  0
 43 44  1  0  0  0  0
 43 47  1  0  0  0  0
 44 49  1  0  0  0  0
 45 48  1  0  0  0  0
 45 50  1  0  0  0  0
 46 52  1  0  0  0  0
 47 53  1  0  0  0  0
 48 55  1  0  0  0  0
 49 71  1  0  0  0  0
 50 72  1  0  0  0  0
 51 55  1  0  0  0  0
 51 72  1  0  0  0  0
 52 76  1  0  0  0  0
 53 71  1  0  0  0  0
 54 70  1  0  0  0  0
 55 69  1  0  0  0  0
 56 64  1  0  0  0  0
 57 65  1  0  0  0  0
 58 65  1  0  0  0  0
 59 66  1  0  0  0  0
 60 66  1  0  0  0  0
 61 66  1  0  0  0  0
 62 78  1  0  0  0  0
 63 66  1  0  0  0  0
 63 77  1  0  0  0  0
 64 78  1  0  0  0  0
 65 86  1  0  0  0  0
 67 69  1  0  0  0  0
M  CHG  1  78   1
M  ISO  4  38 100  65 101  75 100  86 101
M  END
> <Batch ID>
0162

> <Smiles>
CNC(C)C(=O)NC(C(=O)N1Cc2cc([101O:1][101C:1](C)(C)C(=O)N3CCCCC3c3cccc([100NH:0][100C:0](=O)N4CCCC(n5nc(-c6ccc(Oc7ccc(F)cc7F)cc6)c(C(N)=O)c5N)C4)n3)ccc2CC1C(=O)NC1CCCc2ccccc21)C(C)(C)C

> <Shape>
0.225

> <Color>
0.103

> <Negative vol penalty>
0.000

$$$$

  -OEChem-04052303563D

 84 92  0     1  0  0  0  0  0999 V2000
  -16.7169  -31.0543   22.7253 C   0  0  0  0  0  0  0  0  0  0  0  0
  -17.9435  -31.6537   22.4575 C   0  0  0  0  0  0  0  0  0  0  0  0
  -25.5010  -13.3152   22.0579 C   0  0  0  0  0  0  0  0  0  0  0  0
  -26.8541  -13.1230   20.0656 C   0  0  0  0  0  0  0  0  0  0  0  0
  -16.6731  -29.7961   23.3243 C   0  0  0  0  0  0  0  0  0  0  0  0
  -19.1271  -30.9955   22.7897 C   0  0  0  0  0  0  0  0  0  0  0  0
  -25.8893  -30.2040   20.5622 C   0  0  0  0  0  0  0  0  0  0  0  0
  -24.5402  -12.4815   21.4859 C   0  0  0  0  0  0  0  0  0  0  0  0
  -25.8932  -12.2892   19.4935 C   0  0  0  0  0  0  0  0  0  0  0  0
  -27.1973  -30.2972   21.0359 C   0  0  0  0  0  0  0  0  0  0  0  0
  -24.1072   -9.1682   20.9682 C   0  0  0  0  0  0  0  0  0  0  0  0
  -23.5751   -8.1523   21.7621 C   0  0  0  0  0  0  0  0  0  0  0  0
  -27.0006  -28.0925   21.9950 C   0  0  0  0  0  0  0  0  0  0  0  0
  -30.4835  -25.2060   20.0355 C   0  0  0  0  0  0  0  0  0  0  0  0
  -21.3672   -9.0938   21.4871 C   0  0  0  0  0  0  0  0  0  0  0  0
  -28.8744  -25.6320   18.5503 C   0  0  0  0  0  0  0  0  0  0  0  0
  -26.6580  -13.6360   21.3478 C   0  0  0  0  0  0  0  0  0  0  0  0
  -28.7529  -14.1112   22.7237 C   0  0  0  0  0  0  0  0  0  0  0  0
  -17.8569  -29.1180   23.6552 C   0  0  0  0  0  0  0  0  0  0  0  0
  -25.1222  -29.0568   20.8112 C   0  0  0  0  0  0  0  0  0  0  0  0
  -19.0991  -29.7276   23.3950 C   0  0  0  0  0  0  0  0  0  0  0  0
  -25.6841  -27.9862   21.5212 C   0  0  0  0  0  0  0  0  0  0  0  0
  -29.6844  -26.2357   19.4838 C   0  0  0  0  0  0  0  0  0  0  0  0
  -24.7363  -11.9684   20.2037 C   0  0  0  0  0  0  0  0  0  0  0  0
  -27.7521  -29.2426   21.7549 C   0  0  0  0  0  0  0  0  0  0  0  0
  -23.2693  -10.1471   20.4338 C   0  0  0  0  0  0  0  0  0  0  0  0
  -22.2051   -8.1150   22.0215 C   0  0  0  0  0  0  0  0  0  0  0  0
  -21.8993  -10.1098   20.6933 C   0  0  0  0  0  0  0  0  0  0  0  0
  -27.6506  -14.4977   21.9380 C   0  0  0  0  0  0  0  0  0  0  0  0
  -30.1046  -24.0464   19.4000 C   0  0  0  0  0  0  0  0  0  0  0  0
  -29.3823  -15.2912   23.0362 C   0  0  0  0  0  0  0  0  0  0  0  0
  -29.1706  -12.8025   23.1341 C   0  0  0  0  0  0  0  0  0  0  0  0
  -22.4155  -28.4627   22.3682 C   0  0  0  0  0  0  0  0  0  0  0  0
  -32.0385  -22.4976   19.8638 C   0  0  0  0  0  0  0  0  0  0  0  0
  -22.8123  -25.4904   21.1312 C   0  0  0  0  0  0  0  0  0  0  0  0
  -24.9391  -23.1345   19.8768 C   0  0  0  0  0  0  0  0  0  0  0  0
  -29.5400  -20.5135   20.2869 C   0  0  0  0  0  0  0  0  0  0  0  0
  -17.7587  -27.7801   24.3445 C   0  0  0  0  0  0  0  0  0  0  0  0
  -23.7220  -28.9609   20.2704 C   0  0  0  0  0  0  0  0  0  0  0  0
  -24.9094  -26.7245   21.7978 C   0  0  0  0  0  0  0  0  0  0  0  0
  -19.0628  -26.9869   24.3235 C   0  0  0  0  0  0  0  0  0  0  0  0
  -28.4941  -19.9465   23.7048 C   0  0  0  0  0  0  0  0  0  0  0  0
  -20.2369  -27.8796   24.7125 C   0  0  0  0  0  0  0  0  0  0  0  0
  -28.2644  -18.4341   23.7057 C   0  0  0  0  0  0  0  0  0  0  0  0
  -28.0579  -20.5711   22.3828 C   0  0  0  0  0  0  0  0  0  0  0  0
  -28.4710  -18.4621   21.1766 C   0  0  0  0  0  0  0  0  0  0  0  0
  -20.4051  -29.0346   23.7180 C   0  0  1  0  0  0  0  0  0  0  0  0
  -22.8576  -27.9553   21.0248 C   0  0  1  0  0  0  0  0  0  0  0  0
  -28.9131  -17.7681   22.4778 C   0  0  2  0  0  0  0  0  0  0  0  0
  -32.4539  -21.8267   21.1491 C   0  0  0  0  0  0  0  0  0  0  0  0
  -25.6601  -20.9828   18.8056 C   0  0  0  0  0  0  0  0  0  0  0  0
  -31.1586  -30.3439   21.8953 C   0  0  0  0  0  0  0  0  0  0  0  0
  -22.5470  -24.4088   23.9719 C   0  0  0  0  0  0  0  0  0  0  0  0
  -23.5207  -22.2478   23.1655 C   0  0  0  0  0  0  0  0  0  0  0  0
  -21.3582  -23.0658   22.2291 C   0  0  0  0  0  0  0  0  0  0  0  0
  -24.6827  -24.2687   17.1553 C   0  0  0  0  0  0  0  0  0  0  0  0
  -30.5887  -28.1483   20.8065 C   0  0  0  0  0  0  0  0  0  0  0  0
  -30.5419  -22.6478   19.5137 C   0  0  1  0  0  0  0  0  0  0  0  0
  -23.5079  -24.2288   21.5823 C   0  0  1  0  0  0  0  0  0  0  0  0
  -24.8595  -22.2645   18.6354 C   0  0  2  0  0  0  0  0  0  0  0  0
  -30.0607  -29.5106   21.2503 C   0  0  1  0  0  0  0  0  0  1  0  0
  -22.7476  -23.5122   22.7338 C   0  0  0  0  0  0  0  0  0  0  0  0
  -27.5808  -15.8199   21.7624 N   0  0  0  0  0  0  0  0  0  0  0  0
  -28.6472  -16.2746   22.4422 N   0  0  0  0  0  0  0  0  0  0  0  0
  -23.5421  -26.6813   21.2537 N   0  0  0  0  0  0  0  0  0  0  0  0
  -28.7253  -19.9044   21.2558 N   0  0  0  0  0  0  0  0  0  0  0  0
  -30.4873  -15.5733   23.7586 N   0  0  0  0  0  0  0  0  0  0  0  0
  -28.4095  -11.6991   22.7246 N   0  0  0  0  0  0  0  0  0  0  0  0
  -29.7072  -27.5810   19.8115 N   0  0  0  0  0  0  0  0  0  0  0  0
  -21.0447  -28.5690   22.5061 N   0  0  0  0  0  0  0  0  0  0  0  0
  -23.6885  -23.4124   20.3868 N   0  0  0  0  0  0  0  0  0  0  0  0
  -29.7249  -21.8832   20.4296 N   0  0  0  0  0  0  0  0  0  0  0  0
  -25.3932  -22.9986   17.4533 N   0  3  0  0  0  0  0  0  0  0  0  0
  -30.1793  -12.6183   23.8568 O   0  0  0  0  0  0  0  0  0  0  0  0
  -23.2558  -28.7360   23.2173 O   0  0  0  0  0  0  0  0  0  0  0  0
  -32.8962  -22.9110   19.0785 O   0  0  0  0  0  0  0  0  0  0  0  0
  -21.6664  -25.4208   20.6799 O   0  0  0  0  0  0  0  0  0  0  0  0
  -26.0043  -23.5252   20.3493 O   0  0  0  0  0  0  0  0  0  0  0  0
  -30.0683  -19.8822   19.3653 O   0  0  0  0  0  0  0  0  0  0  0  0
  -29.1242  -24.2975   18.4932 O   0  0  0  0  0  0  0  0  0  0  0  0
  -23.7990  -11.1546   19.6452 O   0  0  0  0  0  0  0  0  0  0  0  0
  -29.0283  -29.3313   22.2190 O   0  0  0  0  0  0  0  0  0  1  0  0
  -21.6940   -7.1384   22.7826 F   0  0  0  0  0  0  0  0  0  0  0  0
  -21.0892  -11.0467   20.1817 F   0  0  0  0  0  0  0  0  0  0  0  0
  1  2  1  0  0  0  0
  1  5  2  0  0  0  0
  2  6  2  0  0  0  0
  3  8  2  0  0  0  0
  3 17  1  0  0  0  0
  4  9  1  0  0  0  0
  4 17  2  0  0  0  0
  5 19  1  0  0  0  0
  6 21  1  0  0  0  0
  7 10  2  0  0  0  0
  7 20  1  0  0  0  0
  8 24  1  0  0  0  0
  9 24  2  0  0  0  0
 10 25  1  0  0  0  0
 11 12  2  0  0  0  0
 11 26  1  0  0  0  0
 12 27  1  0  0  0  0
 13 22  1  0  0  0  0
 13 25  2  0  0  0  0
 14 23  1  0  0  0  0
 14 30  2  0  0  0  0
 15 27  2  0  0  0  0
 15 28  1  0  0  0  0
 16 23  2  0  0  0  0
 16 80  1  0  0  0  0
 17 29  1  0  0  0  0
 18 29  1  0  0  0  0
 18 31  2  0  0  0  0
 18 32  1  0  0  0  0
 19 21  2  0  0  0  0
 19 38  1  0  0  0  0
 20 22  2  0  0  0  0
 20 39  1  0  0  0  0
 21 47  1  0  0  0  0
 22 40  1  0  0  0  0
 23 69  1  0  0  0  0
 24 81  1  0  0  0  0
 25 82  1  0  0  0  0
 26 28  2  0  0  0  0
 26 81  1  0  0  0  0
 27 83  1  0  0  0  0
 28 84  1  0  0  0  0
 29 63  2  0  0  0  0
 30 58  1  0  0  0  0
 30 80  1  0  0  0  0
 31 64  1  0  0  0  0
 31 67  1  0  0  0  0
 32 68  1  0  0  0  0
 32 74  2  0  0  0  0
 33 48  1  0  0  0  0
 33 70  1  0  0  0  0
 33 75  2  0  0  0  0
 34 50  1  0  0  0  0
 34 58  1  0  0  0  0
 34 76  2  0  0  0  0
 35 59  1  0  0  0  0
 35 65  1  0  0  0  0
 35 77  2  0  0  0  0
 36 60  1  0  0  0  0
 36 71  1  0  0  0  0
 36 78  2  0  0  0  0
 37 66  1  0  0  0  0
 37 72  1  0  0  0  0
 37 79  2  0  0  0  0
 38 41  1  0  0  0  0
 39 48  1  0  0  0  0
 40 65  1  0  0  0  0
 41 43  1  0  0  0  0
 42 44  1  0  0  0  0
 42 45  1  0  0  0  0
 43 47  1  0  0  0  0
 44 49  1  0  0  0  0
 45 66  1  0  0  0  0
 46 49  1  0  0  0  0
 46 66  1  0  0  0  0
 47 70  1  0  0  0  0
 48 65  1  0  0  0  0
 49 64  1  0  0  0  0
 51 60  1  0  0  0  0
 52 61  1  0  0  0  0
 53 62  1  0  0  0  0
 54 62  1  0  0  0  0
 55 62  1  0  0  0  0
 56 73  1  0  0  0  0
 57 61  1  0  0  0  0
 57 69  1  0  0  0  0
 58 72  1  0  0  0  0
 59 62  1  0  0  0  0
 59 71  1  0  0  0  0
 60 73  1  0  0  0  0
 61 82  1  0  0  0  0
 63 64  1  0  0  0  0
M  CHG  1  73   1
M  ISO  4  37 100  61 101  72 100  82 101
M  END
> <Batch ID>
0162

> <Smiles>
CNC(C)C(=O)NC(C(=O)N1Cc2cc([101O:1][101CH:1](C)CNc3coc(C([100NH:0][100C:0](=O)N4CCCC(n5nc(-c6ccc(Oc7ccc(F)cc7F)cc6)c(C(N)=O)c5N)C4)C(C)=O)c3)ccc2CC1C(=O)NC1CCCc2ccccc21)C(C)(C)C

> <Shape>
0.256

> <Color>
0.078

> <Negative vol penalty>
0.000

$$$$

  -OEChem-04052303563D

 87 96  0     1  0  0  0  0  0999 V2000
  -24.1448  -32.1053   23.9156 C   0  0  0  0  0  0  0  0  0  0  0  0
  -24.0852  -30.8586   24.5302 C   0  0  0  0  0  0  0  0  0  0  0  0
  -28.9302  -17.0205   25.0615 C   0  0  0  0  0  0  0  0  0  0  0  0
  -31.1945  -17.8137   25.3456 C   0  0  0  0  0  0  0  0  0  0  0  0
  -24.2937  -32.1928   22.5321 C   0  0  0  0  0  0  0  0  0  0  0  0
  -24.1735  -29.6986   23.7614 C   0  0  0  0  0  0  0  0  0  0  0  0
  -26.6325  -22.9770   24.0595 C   0  0  0  0  0  0  0  0  0  0  0  0
  -28.7239  -17.1164   26.4376 C   0  0  0  0  0  0  0  0  0  0  0  0
  -30.9882  -17.9096   26.7218 C   0  0  0  0  0  0  0  0  0  0  0  0
  -26.2090  -21.6650   23.8520 C   0  0  0  0  0  0  0  0  0  0  0  0
  -29.4943  -20.0465   28.8718 C   0  0  0  0  0  0  0  0  0  0  0  0
  -29.9409  -21.2016   29.5136 C   0  0  0  0  0  0  0  0  0  0  0  0
  -26.5444  -21.9384   21.4789 C   0  0  0  0  0  0  0  0  0  0  0  0
  -31.3903  -19.8652   30.9102 C   0  0  0  0  0  0  0  0  0  0  0  0
  -30.1656  -17.3691   24.5154 C   0  0  0  0  0  0  0  0  0  0  0  0
  -30.1512  -18.2681   22.1281 C   0  0  0  0  0  0  0  0  0  0  0  0
  -24.3935  -31.0334   21.7470 C   0  0  0  0  0  0  0  0  0  0  0  0
  -27.0054  -23.7844   22.9754 C   0  0  0  0  0  0  0  0  0  0  0  0
  -24.3225  -29.7707   22.3659 C   0  0  0  0  0  0  0  0  0  0  0  0
  -26.9747  -23.2595   21.6755 C   0  0  0  0  0  0  0  0  0  0  0  0
  -29.7529  -17.5610   27.2678 C   0  0  0  0  0  0  0  0  0  0  0  0
  -26.1621  -21.1464   22.5613 C   0  0  0  0  0  0  0  0  0  0  0  0
  -29.9956  -18.8007   29.2493 C   0  0  0  0  0  0  0  0  0  0  0  0
  -30.8889  -21.1110   30.5328 C   0  0  0  0  0  0  0  0  0  0  0  0
  -30.9436  -18.7101   30.2685 C   0  0  0  0  0  0  0  0  0  0  0  0
  -30.3795  -17.2697   23.0940 C   0  0  0  0  0  0  0  0  0  0  0  0
  -25.2378  -13.2676   19.9696 C   0  0  0  0  0  0  0  0  0  0  0  0
  -23.9612  -12.9218   19.5789 C   0  0  0  0  0  0  0  0  0  0  0  0
  -30.5067  -17.6820   20.9379 C   0  0  0  0  0  0  0  0  0  0  0  0
  -24.1658  -15.0052   20.7705 C   0  0  0  0  0  0  0  0  0  0  0  0
  -29.6615  -19.6056   22.2921 C   0  0  0  0  0  0  0  0  0  0  0  0
  -25.9324  -26.5058   21.7319 C   0  0  0  0  0  0  0  0  0  0  0  0
  -28.5526  -26.2214   19.8409 C   0  0  0  0  0  0  0  0  0  0  0  0
  -24.6923  -17.1216   22.0305 C   0  0  0  0  0  0  0  0  0  0  0  0
  -30.9022  -24.1858   18.4329 C   0  0  0  0  0  0  0  0  0  0  0  0
  -30.7285  -12.1628   18.9767 C   0  0  0  0  0  0  0  0  0  0  0  0
  -24.5062  -31.1778   20.2500 C   0  0  0  0  0  0  0  0  0  0  0  0
  -27.4854  -25.1890   23.2185 C   0  0  0  0  0  0  0  0  0  0  0  0
  -27.3839  -24.0786   20.4797 C   0  0  0  0  0  0  0  0  0  0  0  0
  -24.9685  -29.9035   19.5482 C   0  0  0  0  0  0  0  0  0  0  0  0
  -33.4030  -14.3493   19.1091 C   0  0  0  0  0  0  0  0  0  0  0  0
  -24.1950  -28.6964   20.0691 C   0  0  0  0  0  0  0  0  0  0  0  0
  -32.9215  -15.4531   20.0508 C   0  0  0  0  0  0  0  0  0  0  0  0
  -27.1360  -12.8000   18.3580 C   0  0  0  0  0  0  0  0  0  0  0  0
  -27.5243  -12.6264   20.8519 C   0  0  0  0  0  0  0  0  0  0  0  0
  -32.9795  -12.9753   19.6159 C   0  0  0  0  0  0  0  0  0  0  0  0
  -28.4170  -12.0021   18.1263 C   0  0  0  0  0  0  0  0  0  0  0  0
  -28.7947  -11.8315   20.5643 C   0  0  0  0  0  0  0  0  0  0  0  0
  -31.0121  -13.9345   20.7665 C   0  0  0  0  0  0  0  0  0  0  0  0
  -24.4396  -28.4897   21.5687 C   0  0  1  0  0  0  0  0  0  0  0  0
  -26.4984  -12.4620   19.7167 C   0  0  0  0  0  0  0  0  0  0  0  0
  -27.3516  -26.0869   21.9924 C   0  0  1  0  0  0  0  0  0  0  0  0
  -31.4056  -15.3485   20.2944 C   0  0  1  0  0  0  0  0  0  0  0  0
  -23.4800  -11.7359   18.8424 C   0  0  0  0  0  0  0  0  0  0  0  0
  -32.8919  -24.2369   16.9045 C   0  0  0  0  0  0  0  0  0  0  0  0
  -26.6959  -26.5165   17.4376 C   0  0  0  0  0  0  0  0  0  0  0  0
  -28.5368  -25.6246   15.9940 C   0  0  0  0  0  0  0  0  0  0  0  0
  -28.8577  -27.7591   17.2446 C   0  0  0  0  0  0  0  0  0  0  0  0
  -32.6979  -23.1522   20.5462 C   0  0  0  0  0  0  0  0  0  0  0  0
  -23.9166  -18.3152   22.5759 C   0  0  0  0  0  0  0  0  0  0  0  0
  -24.8021  -19.3325   23.2795 C   0  0  0  0  0  0  0  0  0  1  0  0
  -28.8454  -25.5706   18.5106 C   0  0  1  0  0  0  0  0  0  0  0  0
  -32.4134  -24.3010   18.3467 C   0  0  2  0  0  0  0  0  0  0  0  0
  -28.2243  -26.3526   17.3188 C   0  0  0  0  0  0  0  0  0  0  0  0
  -30.8440  -16.1354   22.5633 N   0  0  0  0  0  0  0  0  0  0  0  0
  -25.3572  -14.4621   20.6527 N   0  0  0  0  0  0  0  0  0  0  0  0
  -30.9103  -16.4174   21.2510 N   0  0  0  0  0  0  0  0  0  0  0  0
  -27.8398  -25.4484   20.7684 N   0  0  0  0  0  0  0  0  0  0  0  0
  -31.5352  -12.9187   19.8408 N   0  0  0  0  0  0  0  0  0  0  0  0
  -29.3493  -12.1542   19.2426 N   0  0  0  0  0  0  0  0  0  0  0  0
  -30.5103  -18.1302   19.6645 N   0  0  0  0  0  0  0  0  0  0  0  0
  -29.3440  -20.0472   23.5838 N   0  0  0  0  0  0  0  0  0  0  0  0
  -23.8419  -16.1886   21.3793 N   0  0  0  0  0  0  0  0  0  0  0  0
  -25.7292  -27.8714   21.7900 N   0  0  0  0  0  0  0  0  0  0  0  0
  -30.2951  -25.4238   18.4382 N   0  0  0  0  0  0  0  0  0  0  0  0
  -33.0615  -23.1948   19.1064 N   0  3  0  0  0  0  0  0  0  0  0  0
  -29.4946  -20.3806   21.3200 O   0  0  0  0  0  0  0  0  0  0  0  0
  -25.0847  -25.6534   21.4942 O   0  0  0  0  0  0  0  0  0  0  0  0
  -28.9481  -27.3706   20.0520 O   0  0  0  0  0  0  0  0  0  0  0  0
  -25.9074  -17.0180   22.1610 O   0  0  0  0  0  0  0  0  0  0  0  0
  -30.3185  -23.1055   18.4862 O   0  0  0  0  0  0  0  0  0  0  0  0
  -31.2075  -11.5377   18.0224 O   0  0  0  0  0  0  0  0  0  0  0  0
  -29.5518  -17.6549   28.6107 O   0  0  0  0  0  0  0  0  0  0  0  0
  -25.7456  -19.8573   22.3544 O   0  0  0  0  0  0  0  0  0  1  0  0
  -31.3188  -22.2204   31.1479 F   0  0  0  0  0  0  0  0  0  0  0  0
  -31.4298  -17.5162   30.6347 F   0  0  0  0  0  0  0  0  0  0  0  0
  -22.8571  -14.1332   20.0836 S   0  0  0  0  0  0  0  0  0  0  0  0
  1  2  1  0  0  0  0
  1  5  2  0  0  0  0
  2  6  2  0  0  0  0
  3  8  2  0  0  0  0
  3 15  1  0  0  0  0
  4  9  1  0  0  0  0
  4 15  2  0  0  0  0
  5 17  1  0  0  0  0
  6 19  1  0  0  0  0
  7 10  2  0  0  0  0
  7 18  1  0  0  0  0
  8 21  1  0  0  0  0
  9 21  2  0  0  0  0
 10 22  1  0  0  0  0
 11 12  2  0  0  0  0
 11 23  1  0  0  0  0
 12 24  1  0  0  0  0
 13 20  1  0  0  0  0
 13 22  2  0  0  0  0
 14 24  2  0  0  0  0
 14 25  1  0  0  0  0
 15 26  1  0  0  0  0
 16 26  1  0  0  0  0
 16 29  2  0  0  0  0
 16 31  1  0  0  0  0
 17 19  2  0  0  0  0
 17 37  1  0  0  0  0
 18 20  2  0  0  0  0
 18 38  1  0  0  0  0
 19 50  1  0  0  0  0
 20 39  1  0  0  0  0
 21 83  1  0  0  0  0
 22 84  1  0  0  0  0
 23 25  2  0  0  0  0
 23 83  1  0  0  0  0
 24 85  1  0  0  0  0
 25 86  1  0  0  0  0
 26 65  2  0  0  0  0
 27 28  2  0  0  0  0
 27 51  1  0  0  0  0
 27 66  1  0  0  0  0
 28 54  1  0  0  0  0
 28 87  1  0  0  0  0
 29 67  1  0  0  0  0
 29 71  1  0  0  0  0
 30 66  2  0  0  0  0
 30 73  1  0  0  0  0
 30 87  1  0  0  0  0
 31 72  1  0  0  0  0
 31 77  2  0  0  0  0
 32 52  1  0  0  0  0
 32 74  1  0  0  0  0
 32 78  2  0  0  0  0
 33 62  1  0  0  0  0
 33 68  1  0  0  0  0
 33 79  2  0  0  0  0
 34 60  1  0  0  0  0
 34 73  1  0  0  0  0
 34 80  2  0  0  0  0
 35 63  1  0  0  0  0
 35 75  1  0  0  0  0
 35 81  2  0  0  0  0
 36 69  1  0  0  0  0
 36 70  1  0  0  0  0
 36 82  2  0  0  0  0
 37 40  1  0  0  0  0
 38 52  1  0  0  0  0
 39 68  1  0  0  0  0
 40 42  1  0  0  0  0
 41 43  1  0  0  0  0
 41 46  1  0  0  0  0
 42 50  1  0  0  0  0
 43 53  1  0  0  0  0
 44 47  1  0  0  0  0
 44 51  1  0  0  0  0
 45 48  1  0  0  0  0
 45 51  1  0  0  0  0
 46 69  1  0  0  0  0
 47 70  1  0  0  0  0
 48 70  1  0  0  0  0
 49 53  1  0  0  0  0
 49 69  1  0  0  0  0
 50 74  1  0  0  0  0
 52 68  1  0  0  0  0
 53 67  1  0  0  0  0
 55 63  1  0  0  0  0
 56 64  1  0  0  0  0
 57 64  1  0  0  0  0
 58 64  1  0  0  0  0
 59 76  1  0  0  0  0
 60 61  1  0  0  0  0
 61 84  1  0  0  0  0
 62 64  1  0  0  0  0
 62 75  1  0  0  0  0
 63 76  1  0  0  0  0
 65 67  1  0  0  0  0
M  CHG  1  76   1
M  ISO  4  36 100  61 101  70 100  84 101
M  END
> <Batch ID>
0162

> <Smiles>
CNC(C)C(=O)NC(C(=O)N1Cc2cc([101O:1][101CH2:1]CC(=O)Nc3nc(C4CC[100N:0]([100C:0](=O)N5CCCC(n6nc(-c7ccc(Oc8ccc(F)cc8F)cc7)c(C(N)=O)c6N)C5)CC4)c(C)s3)ccc2CC1C(=O)NC1CCCc2ccccc21)C(C)(C)C

> <Shape>
0.217

> <Color>
0.061

> <Negative vol penalty>
0.000

$$$$
