
  -OEChem-04052303593D

 89 97  0     1  0  0  0  0  0999 V2000
  -26.3321  -31.8196   28.7630 C   0  0  0  0  0  0  0  0  0  0  0  0
  -26.8321  -30.9502   27.7989 C   0  0  0  0  0  0  0  0  0  0  0  0
  -23.8004   -8.6827   19.8908 C   0  0  0  0  0  0  0  0  0  0  0  0
  -23.2392  -10.4644   21.4231 C   0  0  0  0  0  0  0  0  0  0  0  0
  -30.7657  -19.3417   20.0893 C   0  0  0  0  0  0  0  0  0  0  0  0
  -24.9760  -32.1435   28.7717 C   0  0  0  0  0  0  0  0  0  0  0  0
  -25.9761  -30.4033   26.8436 C   0  0  0  0  0  0  0  0  0  0  0  0
  -27.3159  -29.1107   21.0092 C   0  0  0  0  0  0  0  0  0  0  0  0
  -30.6610  -17.9527   20.0166 C   0  0  0  0  0  0  0  0  0  0  0  0
  -22.9324   -7.8266   20.5683 C   0  0  0  0  0  0  0  0  0  0  0  0
  -22.3711   -9.6082   22.1006 C   0  0  0  0  0  0  0  0  0  0  0  0
  -27.6698  -27.9239   20.3688 C   0  0  0  0  0  0  0  0  0  0  0  0
  -19.6021   -7.2601   20.7137 C   0  0  0  0  0  0  0  0  0  0  0  0
  -18.7472   -6.4659   19.9494 C   0  0  0  0  0  0  0  0  0  0  0  0
  -25.3690  -27.5932   19.7236 C   0  0  0  0  0  0  0  0  0  0  0  0
  -28.5836  -18.1728   18.8029 C   0  0  0  0  0  0  0  0  0  0  0  0
  -19.7338   -4.4803   20.9092 C   0  0  0  0  0  0  0  0  0  0  0  0
  -23.9539  -10.0016   20.3183 C   0  0  0  0  0  0  0  0  0  0  0  0
  -29.7793  -20.1463   19.5189 C   0  0  0  0  0  0  0  0  0  0  0  0
  -24.5417  -11.7248   18.5314 C   0  0  0  0  0  0  0  0  0  0  0  0
  -24.1047  -31.6079   27.8102 C   0  0  0  0  0  0  0  0  0  0  0  0
  -25.9819  -29.5428   21.0210 C   0  0  0  0  0  0  0  0  0  0  0  0
  -24.6069  -30.7193   26.8403 C   0  0  0  0  0  0  0  0  0  0  0  0
  -25.0013  -28.7871   20.3627 C   0  0  0  0  0  0  0  0  0  0  0  0
  -29.5700  -17.3682   19.3734 C   0  0  0  0  0  0  0  0  0  0  0  0
  -22.2177   -8.2893   21.6732 C   0  0  0  0  0  0  0  0  0  0  0  0
  -26.6958  -27.1635   19.7284 C   0  0  0  0  0  0  0  0  0  0  0  0
  -20.5229   -6.6644   21.5757 C   0  0  0  0  0  0  0  0  0  0  0  0
  -18.8131   -5.0761   20.0472 C   0  0  0  0  0  0  0  0  0  0  0  0
  -28.6882  -19.5618   18.8757 C   0  0  0  0  0  0  0  0  0  0  0  0
  -20.5887   -5.2745   21.6735 C   0  0  0  0  0  0  0  0  0  0  0  0
  -24.8509  -10.8864   19.6192 C   0  0  0  0  0  0  0  0  0  0  0  0
  -25.7262  -12.3538   18.2352 C   0  0  0  0  0  0  0  0  0  0  0  0
  -29.8927  -21.6165   19.5980 C   0  0  0  0  0  0  0  0  0  0  0  0
  -23.2952  -11.9178   17.8497 C   0  0  0  0  0  0  0  0  0  0  0  0
  -23.8191  -30.0836   23.2867 C   0  0  0  0  0  0  0  0  0  0  0  0
  -28.6264  -24.3044   18.4311 C   0  0  0  0  0  0  0  0  0  0  0  0
  -22.0592  -31.1920   20.7975 C   0  0  0  0  0  0  0  0  0  0  0  0
  -21.4520  -31.1650   17.4393 C   0  0  0  0  0  0  0  0  0  0  0  0
  -30.3554  -15.0153   19.8130 C   0  0  0  0  0  0  0  0  0  0  0  0
  -22.6380  -31.9502   27.8887 C   0  0  0  0  0  0  0  0  0  0  0  0
  -25.6209  -30.8390   21.6933 C   0  0  0  0  0  0  0  0  0  0  0  0
  -23.5583  -29.2176   20.3289 C   0  0  0  0  0  0  0  0  0  0  0  0
  -21.8667  -31.6217   26.6130 C   0  0  0  0  0  0  0  0  0  0  0  0
  -30.4315  -11.4561   19.8710 C   0  0  0  0  0  0  0  0  0  0  0  0
  -22.2239  -30.2237   26.1183 C   0  0  0  0  0  0  0  0  0  0  0  0
  -28.9610  -11.0596   19.7212 C   0  0  0  0  0  0  0  0  0  0  0  0
  -30.5957  -12.7148   20.7211 C   0  0  0  0  0  0  0  0  0  0  0  0
  -28.3249  -13.4700   20.1362 C   0  0  0  0  0  0  0  0  0  0  0  0
  -23.7145  -30.1250   25.7723 C   0  0  1  0  0  0  0  0  0  0  0  0
  -24.1481  -30.9202   22.0827 C   0  0  1  0  0  0  0  0  0  0  0  0
  -28.1046  -12.2448   19.2340 C   0  0  2  0  0  0  0  0  0  0  0  0
  -19.9248  -32.1445   15.7056 C   0  0  0  0  0  0  0  0  0  0  0  0
  -19.8398  -29.2953   21.6844 C   0  0  0  0  0  0  0  0  0  0  0  0
  -18.7729  -29.6063   19.4409 C   0  0  0  0  0  0  0  0  0  0  0  0
  -19.0534  -31.5586   20.9681 C   0  0  0  0  0  0  0  0  0  0  0  0
  -23.7024  -32.4667   16.0250 C   0  0  0  0  0  0  0  0  0  0  0  0
  -28.4140  -25.6271   19.1425 C   0  0  0  0  0  0  0  0  0  1  0  0
  -30.0453  -23.7733   18.4056 C   0  0  2  0  0  0  0  0  0  0  0  0
  -21.0833  -30.5800   19.8218 C   0  0  1  0  0  0  0  0  0  0  0  0
  -21.2462  -32.2924   16.4438 C   0  0  2  0  0  0  0  0  0  0  0  0
  -19.7141  -30.2507   20.4809 C   0  0  0  0  0  0  0  0  0  0  0  0
  -30.7756  -24.1712   17.1456 C   0  0  0  0  0  0  0  0  0  0  0  0
  -26.1315  -10.9725   19.9888 N   0  0  0  0  0  0  0  0  0  0  0  0
  -26.6375  -11.8724   19.1285 N   0  0  0  0  0  0  0  0  0  0  0  0
  -23.2542  -30.4890   21.0060 N   0  0  0  0  0  0  0  0  0  0  0  0
  -29.7583  -13.7962   20.1976 N   0  0  0  0  0  0  0  0  0  0  0  0
  -26.0668  -13.2661   17.3002 N   0  0  0  0  0  0  0  0  0  0  0  0
  -22.1773  -11.1920   18.2831 N   0  0  0  0  0  0  0  0  0  0  0  0
  -29.4643  -15.9571   19.2997 N   0  0  0  0  0  0  0  0  0  0  0  0
  -29.9509  -22.3176   18.4560 N   0  0  0  0  0  0  0  0  0  0  0  0
  -23.9779  -30.7432   24.4905 N   0  0  0  0  0  0  0  0  0  0  0  0
  -20.9976  -31.5042   18.6962 N   0  0  0  0  0  0  0  0  0  0  0  0
  -29.9344  -22.1793   20.8058 N   0  3  0  0  0  0  0  0  0  0  0  0
  -22.3469  -32.3038   15.4392 N   0  3  0  0  0  0  0  0  0  0  0  0
  -23.1801  -12.6982   16.8744 O   0  0  0  0  0  0  0  0  0  0  0  0
  -23.4472  -28.9259   23.1347 O   0  0  0  0  0  0  0  0  0  0  0  0
  -27.6947  -23.7055   17.8932 O   0  0  0  0  0  0  0  0  0  0  0  0
  -21.7749  -32.2583   21.3487 O   0  0  0  0  0  0  0  0  0  0  0  0
  -21.9613  -30.0895   17.1318 O   0  0  0  0  0  0  0  0  0  0  0  0
  -31.5718  -15.1996   19.9051 O   0  0  0  0  0  0  0  0  0  0  0  0
  -21.3703   -7.4542   22.3344 O   0  0  0  0  0  0  0  0  0  0  0  0
  -27.0383  -26.0043   19.1031 O   0  0  0  0  0  0  0  0  0  1  0  0
  -17.9911   -4.3136   19.3143 F   0  0  0  0  0  0  0  0  0  0  0  0
  -27.7344  -20.3266   18.3262 F   0  0  0  0  0  0  0  0  0  0  0  0
  -21.4704   -4.6965   22.5007 F   0  0  0  0  0  0  0  0  0  0  0  0
  -32.0136  -23.6333   17.1033 F   0  0  0  0  0  0  0  0  0  0  0  0
  -30.9027  -25.5115   17.0429 F   0  0  0  0  0  0  0  0  0  0  0  0
  -30.1122  -23.7362   16.0506 F   0  0  0  0  0  0  0  0  0  0  0  0
  1  2  1  0  0  0  0
  1  6  2  0  0  0  0
  2  7  2  0  0  0  0
  3 10  2  0  0  0  0
  3 18  1  0  0  0  0
  4 11  1  0  0  0  0
  4 18  2  0  0  0  0
  5  9  2  0  0  0  0
  5 19  1  0  0  0  0
  6 21  1  0  0  0  0
  7 23  1  0  0  0  0
  8 12  2  0  0  0  0
  8 22  1  0  0  0  0
  9 25  1  0  0  0  0
 10 26  1  0  0  0  0
 11 26  2  0  0  0  0
 12 27  1  0  0  0  0
 13 14  2  0  0  0  0
 13 28  1  0  0  0  0
 14 29  1  0  0  0  0
 15 24  1  0  0  0  0
 15 27  2  0  0  0  0
 16 25  2  0  0  0  0
 16 30  1  0  0  0  0
 17 29  2  0  0  0  0
 17 31  1  0  0  0  0
 18 32  1  0  0  0  0
 19 30  2  0  0  0  0
 19 34  1  0  0  0  0
 20 32  1  0  0  0  0
 20 33  2  0  0  0  0
 20 35  1  0  0  0  0
 21 23  2  0  0  0  0
 21 41  1  0  0  0  0
 22 24  2  0  0  0  0
 22 42  1  0  0  0  0
 23 50  1  0  0  0  0
 24 43  1  0  0  0  0
 25 70  1  0  0  0  0
 26 82  1  0  0  0  0
 27 83  1  0  0  0  0
 28 31  2  0  0  0  0
 28 82  1  0  0  0  0
 29 84  1  0  0  0  0
 30 85  1  0  0  0  0
 31 86  1  0  0  0  0
 32 64  2  0  0  0  0
 33 65  1  0  0  0  0
 33 68  1  0  0  0  0
 34 71  1  0  0  0  0
 34 74  2  0  0  0  0
 35 69  1  0  0  0  0
 35 76  2  0  0  0  0
 36 51  1  0  0  0  0
 36 72  1  0  0  0  0
 36 77  2  0  0  0  0
 37 58  1  0  0  0  0
 37 59  1  0  0  0  0
 37 78  2  0  0  0  0
 38 60  1  0  0  0  0
 38 66  1  0  0  0  0
 38 79  2  0  0  0  0
 39 61  1  0  0  0  0
 39 73  1  0  0  0  0
 39 80  2  0  0  0  0
 40 67  1  0  0  0  0
 40 70  1  0  0  0  0
 40 81  2  0  0  0  0
 41 44  1  0  0  0  0
 42 51  1  0  0  0  0
 43 66  1  0  0  0  0
 44 46  1  0  0  0  0
 45 47  1  0  0  0  0
 45 48  1  0  0  0  0
 46 50  1  0  0  0  0
 47 52  1  0  0  0  0
 48 67  1  0  0  0  0
 49 52  1  0  0  0  0
 49 67  1  0  0  0  0
 50 72  1  0  0  0  0
 51 66  1  0  0  0  0
 52 65  1  0  0  0  0
 53 61  1  0  0  0  0
 54 62  1  0  0  0  0
 55 62  1  0  0  0  0
 56 62  1  0  0  0  0
 57 75  1  0  0  0  0
 58 83  1  0  0  0  0
 59 63  1  0  0  0  0
 59 71  1  0  0  0  0
 60 62  1  0  0  0  0
 60 73  1  0  0  0  0
 61 75  1  0  0  0  0
 63 87  1  0  0  0  0
 63 88  1  0  0  0  0
 63 89  1  0  0  0  0
 64 65  1  0  0  0  0
M  CHG  2  74   1  75   1
M  ISO  4  40 100  58 101  70 100  83 101
M  END
> <Batch ID>
0163

> <Smiles>
CNC(C)C(=O)NC(C(=O)N1Cc2cc([101O:1][101CH2:1]C(=O)C(NC(=N)c3ccc([100NH:0][100C:0](=O)N4CCCC(n5nc(-c6ccc(Oc7ccc(F)cc7F)cc6)c(C(N)=O)c5N)C4)cc3F)C(F)(F)F)ccc2CC1C(=O)NC1CCCc2ccccc21)C(C)(C)C

> <Shape>
0.281

> <Color>
0.115

> <Negative vol penalty>
0.000

$$$$

  -OEChem-04052303593D

 87 96  0     1  0  0  0  0  0999 V2000
  -29.0191  -32.5213   26.5488 C   0  0  0  0  0  0  0  0  0  0  0  0
  -28.9062  -31.4308   25.6922 C   0  0  0  0  0  0  0  0  0  0  0  0
  -24.9484   -7.9010   19.6334 C   0  0  0  0  0  0  0  0  0  0  0  0
  -24.6159   -8.9452   21.7865 C   0  0  0  0  0  0  0  0  0  0  0  0
  -27.8723  -33.1152   27.0741 C   0  0  0  0  0  0  0  0  0  0  0  0
  -27.6464  -30.9330   25.3614 C   0  0  0  0  0  0  0  0  0  0  0  0
  -27.1814  -29.9555   20.4144 C   0  0  0  0  0  0  0  0  0  0  0  0
  -24.5423   -6.6768   20.1643 C   0  0  0  0  0  0  0  0  0  0  0  0
  -24.2097   -7.7210   22.3175 C   0  0  0  0  0  0  0  0  0  0  0  0
  -27.7624  -28.7802   19.9402 C   0  0  0  0  0  0  0  0  0  0  0  0
  -22.7404   -4.9462   24.1505 C   0  0  0  0  0  0  0  0  0  0  0  0
  -21.6055   -4.9346   24.9613 C   0  0  0  0  0  0  0  0  0  0  0  0
  -25.6035  -27.7047   19.9785 C   0  0  0  0  0  0  0  0  0  0  0  0
  -20.2873   -5.7948   23.1284 C   0  0  0  0  0  0  0  0  0  0  0  0
  -27.2331  -18.4160   20.2853 C   0  0  0  0  0  0  0  0  0  0  0  0
  -29.5456  -18.6193   20.0252 C   0  0  0  0  0  0  0  0  0  0  0  0
  -24.9853   -9.0352   20.4445 C   0  0  0  0  0  0  0  0  0  0  0  0
  -24.5908  -11.2789   19.2965 C   0  0  0  0  0  0  0  0  0  0  0  0
  -26.5974  -32.6305   26.7419 C   0  0  0  0  0  0  0  0  0  0  0  0
  -25.8066  -30.0111   20.6850 C   0  0  0  0  0  0  0  0  0  0  0  0
  -26.4815  -31.5202   25.8839 C   0  0  0  0  0  0  0  0  0  0  0  0
  -25.0070  -28.8827   20.4536 C   0  0  0  0  0  0  0  0  0  0  0  0
  -28.4557  -17.7858   20.1725 C   0  0  0  0  0  0  0  0  0  0  0  0
  -24.1729   -6.5868   21.5064 C   0  0  0  0  0  0  0  0  0  0  0  0
  -26.9739  -27.6537   19.7249 C   0  0  0  0  0  0  0  0  0  0  0  0
  -22.6488   -5.3822   22.8287 C   0  0  0  0  0  0  0  0  0  0  0  0
  -20.3789   -5.3589   24.4502 C   0  0  0  0  0  0  0  0  0  0  0  0
  -21.4223   -5.8065   22.3176 C   0  0  0  0  0  0  0  0  0  0  0  0
  -25.4052  -10.3000   19.8968 C   0  0  0  0  0  0  0  0  0  0  0  0
  -25.4613  -12.2817   18.9455 C   0  0  0  0  0  0  0  0  0  0  0  0
  -28.2135  -20.4593   20.1097 C   0  0  0  0  0  0  0  0  0  0  0  0
  -23.1741  -11.2815   19.0759 C   0  0  0  0  0  0  0  0  0  0  0  0
  -24.0511  -30.5264   23.2842 C   0  0  0  0  0  0  0  0  0  0  0  0
  -21.5965  -30.4609   21.1646 C   0  0  0  0  0  0  0  0  0  0  0  0
  -20.4071  -29.4188   18.1403 C   0  0  0  0  0  0  0  0  0  0  0  0
  -29.7568  -15.6298   20.1039 C   0  0  0  0  0  0  0  0  0  0  0  0
  -25.3886  -33.2757   27.3720 C   0  0  0  0  0  0  0  0  0  0  0  0
  -25.1907  -31.2945   21.1707 C   0  0  0  0  0  0  0  0  0  0  0  0
  -23.5228  -28.8966   20.7091 C   0  0  0  0  0  0  0  0  0  0  0  0
  -24.0770  -32.9227   26.6752 C   0  0  0  0  0  0  0  0  0  0  0  0
  -30.5217  -12.3763   18.8762 C   0  0  0  0  0  0  0  0  0  0  0  0
  -23.9999  -31.4223   26.4110 C   0  0  0  0  0  0  0  0  0  0  0  0
  -28.5149  -22.5060   18.6953 C   0  0  0  0  0  0  0  0  0  0  0  0
  -29.1918  -11.6266   18.9829 C   0  0  0  0  0  0  0  0  0  0  0  0
  -28.3704  -24.0246   18.5963 C   0  0  0  0  0  0  0  0  0  0  0  0
  -28.6862  -24.2236   21.0926 C   0  0  0  0  0  0  0  0  0  0  0  0
  -30.7239  -13.3415   20.0429 C   0  0  0  0  0  0  0  0  0  0  0  0
  -28.2903  -13.5341   20.3742 C   0  0  0  0  0  0  0  0  0  0  0  0
  -25.1316  -30.9669   25.4818 C   0  0  1  0  0  0  0  0  0  0  0  0
  -28.0747  -21.9738   20.0724 C   0  0  2  0  0  0  0  0  0  0  0  0
  -23.8679  -31.0836   21.9009 C   0  0  1  0  0  0  0  0  0  0  0  0
  -28.8300  -22.6930   21.2215 C   0  0  2  0  0  0  0  0  0  0  0  0
  -28.0124  -12.5976   19.1871 C   0  0  2  0  0  0  0  0  0  0  0  0
  -29.1237  -24.7500   19.7176 C   0  0  2  0  0  0  0  0  0  0  0  0
  -28.3245  -22.2564   22.6026 C   0  0  0  0  0  0  0  0  0  0  0  0
  -18.3519  -29.4873   16.7020 C   0  0  0  0  0  0  0  0  0  0  0  0
  -20.2933  -28.3407   22.9299 C   0  0  0  0  0  0  0  0  0  0  0  0
  -18.7801  -27.7775   21.0165 C   0  0  0  0  0  0  0  0  0  0  0  0
  -18.7163  -30.0580   22.0253 C   0  0  0  0  0  0  0  0  0  0  0  0
  -21.8265  -30.8587   15.9790 C   0  0  0  0  0  0  0  0  0  0  0  0
  -31.2834  -25.1508   20.5529 C   0  0  0  0  0  0  0  0  0  0  0  0
  -28.8982  -26.2602   19.6201 C   0  0  0  0  0  0  0  0  0  1  0  0
  -20.6964  -29.3864   20.6040 C   0  0  1  0  0  0  0  0  0  0  0  0
  -19.6743  -30.1598   17.0365 C   0  0  2  0  0  0  0  0  0  0  0  0
  -19.6498  -28.8895   21.6408 C   0  0  0  0  0  0  0  0  0  0  0  0
  -27.0750  -19.7556   20.2579 N   0  0  0  0  0  0  0  0  0  0  0  0
  -29.4606  -19.9653   19.9894 N   0  0  0  0  0  0  0  0  0  0  0  0
  -26.6941  -10.6493   19.9270 N   0  0  0  0  0  0  0  0  0  0  0  0
  -26.6961  -11.8588   19.3412 N   0  0  0  0  0  0  0  0  0  0  0  0
  -22.9684  -30.1731   21.1894 N   0  0  0  0  0  0  0  0  0  0  0  0
  -29.5693  -14.2330   20.1728 N   0  0  0  0  0  0  0  0  0  0  0  0
  -25.2833  -13.4751   18.3401 N   0  0  0  0  0  0  0  0  0  0  0  0
  -22.4301  -10.1715   19.4984 N   0  0  0  0  0  0  0  0  0  0  0  0
  -28.5827  -16.3750   20.2073 N   0  0  0  0  0  0  0  0  0  0  0  0
  -24.8298  -31.3147   24.1098 N   0  0  0  0  0  0  0  0  0  0  0  0
  -20.1147  -29.9365   19.3844 N   0  0  0  0  0  0  0  0  0  0  0  0
  -20.5058  -30.2022   15.8005 N   0  3  0  0  0  0  0  0  0  0  0  0
  -22.5878  -12.2327   18.5057 O   0  0  0  0  0  0  0  0  0  0  0  0
  -23.5236  -29.4609   23.5811 O   0  0  0  0  0  0  0  0  0  0  0  0
  -21.1012  -31.5195   21.5591 O   0  0  0  0  0  0  0  0  0  0  0  0
  -21.1606  -28.4728   17.9211 O   0  0  0  0  0  0  0  0  0  0  0  0
  -30.8733  -16.1271   19.9361 O   0  0  0  0  0  0  0  0  0  0  0  0
  -23.7764   -5.3924   22.0248 O   0  0  0  0  0  0  0  0  0  0  0  0
  -27.5386  -26.5050   19.2628 O   0  0  0  0  0  0  0  0  0  1  0  0
  -30.5223  -24.5061   19.5451 O   0  0  0  0  0  0  0  0  0  0  0  0
  -19.2888   -5.3463   25.2284 F   0  0  0  0  0  0  0  0  0  0  0  0
  -21.3279   -6.2253   21.0481 F   0  0  0  0  0  0  0  0  0  0  0  0
  1  2  1  0  0  0  0
  1  5  2  0  0  0  0
  2  6  2  0  0  0  0
  3  8  2  0  0  0  0
  3 17  1  0  0  0  0
  4  9  1  0  0  0  0
  4 17  2  0  0  0  0
  5 19  1  0  0  0  0
  6 21  1  0  0  0  0
  7 10  2  0  0  0  0
  7 20  1  0  0  0  0
  8 24  1  0  0  0  0
  9 24  2  0  0  0  0
 10 25  1  0  0  0  0
 11 12  2  0  0  0  0
 11 26  1  0  0  0  0
 12 27  1  0  0  0  0
 13 22  1  0  0  0  0
 13 25  2  0  0  0  0
 14 27  2  0  0  0  0
 14 28  1  0  0  0  0
 15 23  1  0  0  0  0
 15 66  2  0  0  0  0
 16 23  2  0  0  0  0
 16 67  1  0  0  0  0
 17 29  1  0  0  0  0
 18 29  1  0  0  0  0
 18 30  2  0  0  0  0
 18 32  1  0  0  0  0
 19 21  2  0  0  0  0
 19 37  1  0  0  0  0
 20 22  2  0  0  0  0
 20 38  1  0  0  0  0
 21 49  1  0  0  0  0
 22 39  1  0  0  0  0
 23 74  1  0  0  0  0
 24 83  1  0  0  0  0
 25 84  1  0  0  0  0
 26 28  2  0  0  0  0
 26 83  1  0  0  0  0
 27 86  1  0  0  0  0
 28 87  1  0  0  0  0
 29 68  2  0  0  0  0
 30 69  1  0  0  0  0
 30 72  1  0  0  0  0
 31 50  1  0  0  0  0
 31 66  1  0  0  0  0
 31 67  2  0  0  0  0
 32 73  1  0  0  0  0
 32 78  2  0  0  0  0
 33 51  1  0  0  0  0
 33 75  1  0  0  0  0
 33 79  2  0  0  0  0
 34 63  1  0  0  0  0
 34 70  1  0  0  0  0
 34 80  2  0  0  0  0
 35 64  1  0  0  0  0
 35 76  1  0  0  0  0
 35 81  2  0  0  0  0
 36 71  1  0  0  0  0
 36 74  1  0  0  0  0
 36 82  2  0  0  0  0
 37 40  1  0  0  0  0
 38 51  1  0  0  0  0
 39 70  1  0  0  0  0
 40 42  1  0  0  0  0
 41 44  1  0  0  0  0
 41 47  1  0  0  0  0
 42 49  1  0  0  0  0
 43 45  1  0  0  0  0
 43 50  1  0  0  0  0
 44 53  1  0  0  0  0
 45 54  1  0  0  0  0
 46 52  1  0  0  0  0
 46 54  1  0  0  0  0
 47 71  1  0  0  0  0
 48 53  1  0  0  0  0
 48 71  1  0  0  0  0
 49 75  1  0  0  0  0
 50 52  1  0  0  0  0
 51 70  1  0  0  0  0
 52 55  1  0  0  0  0
 53 69  1  0  0  0  0
 54 62  1  0  0  0  0
 54 85  1  0  0  0  0
 56 64  1  0  0  0  0
 57 65  1  0  0  0  0
 58 65  1  0  0  0  0
 59 65  1  0  0  0  0
 60 77  1  0  0  0  0
 61 85  1  0  0  0  0
 62 84  1  0  0  0  0
 63 65  1  0  0  0  0
 63 76  1  0  0  0  0
 64 77  1  0  0  0  0
 68 69  1  0  0  0  0
M  CHG  1  77   1
M  ISO  4  36 100  62 101  74 100  84 101
M  END
> <Batch ID>
0163

> <Smiles>
CNC(C)C(=O)NC(C(=O)N1Cc2cc([101O:1][101CH2:1]C3(OC)CCC(c4ncc([100NH:0][100C:0](=O)N5CCCC(n6nc(-c7ccc(Oc8ccc(F)cc8F)cc7)c(C(N)=O)c6N)C5)cn4)C(C)C3)ccc2CC1C(=O)NC1CCCc2ccccc21)C(C)(C)C

> <Shape>
0.352

> <Color>
0.111

> <Negative vol penalty>
0.000

$$$$

  -OEChem-04052303593D

 89 98  0     1  0  0  0  0  0999 V2000
  -27.8832  -33.6562   26.1179 C   0  0  0  0  0  0  0  0  0  0  0  0
  -28.5940  -32.6876   25.4165 C   0  0  0  0  0  0  0  0  0  0  0  0
  -22.9102   -9.9974   20.1260 C   0  0  0  0  0  0  0  0  0  0  0  0
  -24.2254   -9.5678   22.1067 C   0  0  0  0  0  0  0  0  0  0  0  0
  -26.5108  -33.5070   26.3135 C   0  0  0  0  0  0  0  0  0  0  0  0
  -27.9330  -31.5686   24.9112 C   0  0  0  0  0  0  0  0  0  0  0  0
  -29.1804  -28.5953   19.7046 C   0  0  0  0  0  0  0  0  0  0  0  0
  -22.5020   -8.6637   20.1078 C   0  0  0  0  0  0  0  0  0  0  0  0
  -23.8172   -8.2342   22.0885 C   0  0  0  0  0  0  0  0  0  0  0  0
  -29.9026  -27.4329   19.4381 C   0  0  0  0  0  0  0  0  0  0  0  0
  -21.0837   -6.4553   22.9741 C   0  0  0  0  0  0  0  0  0  0  0  0
  -20.6823   -5.8855   24.1823 C   0  0  0  0  0  0  0  0  0  0  0  0
  -27.8526  -26.1615   19.4600 C   0  0  0  0  0  0  0  0  0  0  0  0
  -29.1431  -19.2279   21.8861 C   0  0  0  0  0  0  0  0  0  0  0  0
  -22.4325   -4.2317   23.9838 C   0  0  0  0  0  0  0  0  0  0  0  0
  -28.0461  -18.4714   23.8561 C   0  0  0  0  0  0  0  0  0  0  0  0
  -23.7719  -10.4494   21.1254 C   0  0  0  0  0  0  0  0  0  0  0  0
  -23.5615  -12.9012   21.7979 C   0  0  0  0  0  0  0  0  0  0  0  0
  -25.8310  -32.3904   25.8020 C   0  0  0  0  0  0  0  0  0  0  0  0
  -27.7877  -28.5477   19.8618 C   0  0  0  0  0  0  0  0  0  0  0  0
  -26.5505  -31.4037   25.1013 C   0  0  0  0  0  0  0  0  0  0  0  0
  -27.1148  -27.3251   19.7259 C   0  0  0  0  0  0  0  0  0  0  0  0
  -28.6522  -18.1724   22.6466 C   0  0  0  0  0  0  0  0  0  0  0  0
  -29.0147  -20.5317   22.3519 C   0  0  0  0  0  0  0  0  0  0  0  0
  -22.9555   -7.7821   21.0890 C   0  0  0  0  0  0  0  0  0  0  0  0
  -29.2390  -26.2153   19.3187 C   0  0  0  0  0  0  0  0  0  0  0  0
  -22.1594   -5.9133   22.2707 C   0  0  0  0  0  0  0  0  0  0  0  0
  -21.3567   -4.7737   24.6872 C   0  0  0  0  0  0  0  0  0  0  0  0
  -22.8338   -4.8016   22.7755 C   0  0  0  0  0  0  0  0  0  0  0  0
  -24.1944  -11.8269   21.1445 C   0  0  0  0  0  0  0  0  0  0  0  0
  -28.3922  -20.7251   23.5746 C   0  0  0  0  0  0  0  0  0  0  0  0
  -24.3493  -13.9893   21.5118 C   0  0  0  0  0  0  0  0  0  0  0  0
  -22.3681  -12.9144   22.5926 C   0  0  0  0  0  0  0  0  0  0  0  0
  -30.5352  -22.8911   19.8458 C   0  0  0  0  0  0  0  0  0  0  0  0
  -30.1446  -21.5369   20.3631 C   0  0  0  0  0  0  0  0  0  0  0  0
  -25.7737  -29.2124   22.2294 C   0  0  0  0  0  0  0  0  0  0  0  0
  -23.5286  -28.6336   19.9608 C   0  0  0  0  0  0  0  0  0  0  0  0
  -22.7044  -27.1017   17.0246 C   0  0  0  0  0  0  0  0  0  0  0  0
  -29.3505  -16.3857   21.0137 C   0  0  0  0  0  0  0  0  0  0  0  0
  -24.3552  -32.2492   26.0795 C   0  0  0  0  0  0  0  0  0  0  0  0
  -27.0203  -29.8148   20.1225 C   0  0  0  0  0  0  0  0  0  0  0  0
  -25.6186  -27.2236   19.8657 C   0  0  0  0  0  0  0  0  0  0  0  0
  -23.6637  -31.2203   25.1888 C   0  0  0  0  0  0  0  0  0  0  0  0
  -26.8650  -24.2309   25.7125 C   0  0  0  0  0  0  0  0  0  0  0  0
  -28.1432  -23.5676   26.2164 C   0  0  0  0  0  0  0  0  0  0  0  0
  -26.7840  -24.2118   24.1891 C   0  0  0  0  0  0  0  0  0  0  0  0
  -28.1594  -14.5235   18.2225 C   0  0  0  0  0  0  0  0  0  0  0  0
  -24.4807  -29.9337   25.1259 C   0  0  0  0  0  0  0  0  0  0  0  0
  -28.2947  -22.1485   25.6715 C   0  0  0  0  0  0  0  0  0  0  0  0
  -26.9288  -22.7959   23.6342 C   0  0  0  0  0  0  0  0  0  0  0  0
  -26.9696  -13.7443   18.7876 C   0  0  0  0  0  0  0  0  0  0  0  0
  -29.2921  -14.6460   19.2403 C   0  0  0  0  0  0  0  0  0  0  0  0
  -27.7073  -14.4093   21.1115 C   0  0  0  0  0  0  0  0  0  0  0  0
  -25.8646  -30.1881   24.5164 C   0  0  1  0  0  0  0  0  0  0  0  0
  -28.2194  -22.1210   24.1339 C   0  0  0  0  0  0  0  0  0  0  0  0
  -25.6629  -29.5679   20.7737 C   0  0  1  0  0  0  0  0  0  0  0  0
  -26.5153  -14.3157   20.1451 C   0  0  2  0  0  0  0  0  0  0  0  0
  -20.7843  -26.7816   15.4409 C   0  0  0  0  0  0  0  0  0  0  0  0
  -22.2702  -26.6363   21.8939 C   0  0  0  0  0  0  0  0  0  0  0  0
  -20.9854  -25.6862   19.9665 C   0  0  0  0  0  0  0  0  0  0  0  0
  -20.6316  -28.0589   20.6506 C   0  0  0  0  0  0  0  0  0  0  0  0
  -24.1730  -28.3888   14.8007 C   0  0  0  0  0  0  0  0  0  0  0  0
  -29.4121  -23.8568   19.5713 C   0  0  0  0  0  0  0  0  0  1  0  0
  -22.7798  -27.4122   19.4847 C   0  0  1  0  0  0  0  0  0  0  0  0
  -22.0076  -27.6194   15.7793 C   0  0  2  0  0  0  0  0  0  0  0  0
  -21.6952  -26.9496   20.4982 C   0  0  0  0  0  0  0  0  0  0  0  0
  -27.9029  -19.7250   24.3415 N   0  0  0  0  0  0  0  0  0  0  0  0
  -25.2990  -12.1987   20.4922 N   0  0  0  0  0  0  0  0  0  0  0  0
  -25.3664  -13.5189   20.7343 N   0  0  0  0  0  0  0  0  0  0  0  0
  -24.9133  -28.4893   20.1266 N   0  0  0  0  0  0  0  0  0  0  0  0
  -28.7882  -15.1981   20.4997 N   0  0  0  0  0  0  0  0  0  0  0  0
  -24.2643  -15.2929   21.8518 N   0  0  0  0  0  0  0  0  0  0  0  0
  -21.6811  -11.7083   22.7864 N   0  0  0  0  0  0  0  0  0  0  0  0
  -29.5116  -21.6113   21.5850 N   0  0  0  0  0  0  0  0  0  0  0  0
  -28.7687  -16.8329   22.1995 N   0  0  0  0  0  0  0  0  0  0  0  0
  -25.7694  -30.3038   23.0770 N   0  0  0  0  0  0  0  0  0  0  0  0
  -22.2599  -27.7419   18.1621 N   0  0  0  0  0  0  0  0  0  0  0  0
  -22.9365  -27.5867   14.6144 N   0  3  0  0  0  0  0  0  0  0  0  0
  -21.9153  -13.9676   23.1018 O   0  0  0  0  0  0  0  0  0  0  0  0
  -31.7244  -23.1064   19.6661 O   0  0  0  0  0  0  0  0  0  0  0  0
  -30.4505  -20.5791   19.6724 O   0  0  0  0  0  0  0  0  0  0  0  0
  -25.8554  -28.0350   22.5593 O   0  0  0  0  0  0  0  0  0  0  0  0
  -22.9087  -29.6792   20.1707 O   0  0  0  0  0  0  0  0  0  0  0  0
  -23.5552  -26.2153   16.9920 O   0  0  0  0  0  0  0  0  0  0  0  0
  -30.2614  -16.9782   20.4296 O   0  0  0  0  0  0  0  0  0  0  0  0
  -22.5572   -6.4807   21.0717 O   0  0  0  0  0  0  0  0  0  0  0  0
  -29.9416  -25.0791   19.0593 O   0  0  0  0  0  0  0  0  0  1  0  0
  -20.9721   -4.2275   25.8482 F   0  0  0  0  0  0  0  0  0  0  0  0
  -23.8687   -4.2772   22.1048 F   0  0  0  0  0  0  0  0  0  0  0  0
  1  2  1  0  0  0  0
  1  5  2  0  0  0  0
  2  6  2  0  0  0  0
  3  8  2  0  0  0  0
  3 17  1  0  0  0  0
  4  9  1  0  0  0  0
  4 17  2  0  0  0  0
  5 19  1  0  0  0  0
  6 21  1  0  0  0  0
  7 10  2  0  0  0  0
  7 20  1  0  0  0  0
  8 25  1  0  0  0  0
  9 25  2  0  0  0  0
 10 26  1  0  0  0  0
 11 12  2  0  0  0  0
 11 27  1  0  0  0  0
 12 28  1  0  0  0  0
 13 22  1  0  0  0  0
 13 26  2  0  0  0  0
 14 23  2  0  0  0  0
 14 24  1  0  0  0  0
 15 28  2  0  0  0  0
 15 29  1  0  0  0  0
 16 23  1  0  0  0  0
 16 67  2  0  0  0  0
 17 30  1  0  0  0  0
 18 30  1  0  0  0  0
 18 32  2  0  0  0  0
 18 33  1  0  0  0  0
 19 21  2  0  0  0  0
 19 40  1  0  0  0  0
 20 22  2  0  0  0  0
 20 41  1  0  0  0  0
 21 54  1  0  0  0  0
 22 42  1  0  0  0  0
 23 75  1  0  0  0  0
 24 31  2  0  0  0  0
 24 74  1  0  0  0  0
 25 86  1  0  0  0  0
 26 87  1  0  0  0  0
 27 29  2  0  0  0  0
 27 86  1  0  0  0  0
 28 88  1  0  0  0  0
 29 89  1  0  0  0  0
 30 68  2  0  0  0  0
 31 55  1  0  0  0  0
 31 67  1  0  0  0  0
 32 69  1  0  0  0  0
 32 72  1  0  0  0  0
 33 73  1  0  0  0  0
 33 79  2  0  0  0  0
 34 35  1  0  0  0  0
 34 63  1  0  0  0  0
 34 80  2  0  0  0  0
 35 74  1  0  0  0  0
 35 81  2  0  0  0  0
 36 56  1  0  0  0  0
 36 76  1  0  0  0  0
 36 82  2  0  0  0  0
 37 64  1  0  0  0  0
 37 70  1  0  0  0  0
 37 83  2  0  0  0  0
 38 65  1  0  0  0  0
 38 77  1  0  0  0  0
 38 84  2  0  0  0  0
 39 71  1  0  0  0  0
 39 75  1  0  0  0  0
 39 85  2  0  0  0  0
 40 43  1  0  0  0  0
 41 56  1  0  0  0  0
 42 70  1  0  0  0  0
 43 48  1  0  0  0  0
 44 45  1  0  0  0  0
 44 46  1  0  0  0  0
 45 49  1  0  0  0  0
 46 50  1  0  0  0  0
 47 51  1  0  0  0  0
 47 52  1  0  0  0  0
 48 54  1  0  0  0  0
 49 55  1  0  0  0  0
 50 55  1  0  0  0  0
 51 57  1  0  0  0  0
 52 71  1  0  0  0  0
 53 57  1  0  0  0  0
 53 71  1  0  0  0  0
 54 76  1  0  0  0  0
 56 70  1  0  0  0  0
 57 69  1  0  0  0  0
 58 65  1  0  0  0  0
 59 66  1  0  0  0  0
 60 66  1  0  0  0  0
 61 66  1  0  0  0  0
 62 78  1  0  0  0  0
 63 87  1  0  0  0  0
 64 66  1  0  0  0  0
 64 77  1  0  0  0  0
 65 78  1  0  0  0  0
 68 69  1  0  0  0  0
M  CHG  1  78   1
M  ISO  4  39 100  63 101  75 100  87 101
M  END
> <Batch ID>
0163

> <Smiles>
CNC(C)C(=O)NC(C(=O)N1Cc2cc([101O:1][101CH2:1]C(=O)C(=O)Nc3cc([100NH:0][100C:0](=O)N4CCCC(n5nc(-c6ccc(Oc7ccc(F)cc7F)cc6)c(C(N)=O)c5N)C4)cnc3C3CCCCC3)ccc2CC1C(=O)NC1CCCc2ccccc21)C(C)(C)C

> <Shape>
0.330

> <Color>
0.102

> <Negative vol penalty>
0.000

$$$$

  -OEChem-04052303593D

 86 94  0     1  0  0  0  0  0999 V2000
  -27.8462  -34.5077   24.0900 C   0  0  0  0  0  0  0  0  0  0  0  0
  -28.0270  -33.1648   23.7747 C   0  0  0  0  0  0  0  0  0  0  0  0
  -23.4451  -10.0085   22.3167 C   0  0  0  0  0  0  0  0  0  0  0  0
  -23.3350   -9.7732   19.9147 C   0  0  0  0  0  0  0  0  0  0  0  0
  -26.5831  -34.9735   24.4527 C   0  0  0  0  0  0  0  0  0  0  0  0
  -26.9449  -32.2867   23.8229 C   0  0  0  0  0  0  0  0  0  0  0  0
  -26.7530  -29.2176   19.7993 C   0  0  0  0  0  0  0  0  0  0  0  0
  -22.6774   -8.8535   22.4651 C   0  0  0  0  0  0  0  0  0  0  0  0
  -22.5673   -8.6181   20.0631 C   0  0  0  0  0  0  0  0  0  0  0  0
  -27.6255  -28.1302   19.7858 C   0  0  0  0  0  0  0  0  0  0  0  0
  -23.1553   -5.5093   22.3202 C   0  0  0  0  0  0  0  0  0  0  0  0
  -23.5676   -4.5745   23.2697 C   0  0  0  0  0  0  0  0  0  0  0  0
  -28.6122  -17.5150   16.9633 C   0  0  0  0  0  0  0  0  0  0  0  0
  -25.8308  -26.6888   20.5072 C   0  0  0  0  0  0  0  0  0  0  0  0
  -27.6959  -19.5030   17.9857 C   0  0  0  0  0  0  0  0  0  0  0  0
  -21.4649   -4.8281   24.4323 C   0  0  0  0  0  0  0  0  0  0  0  0
  -23.7739  -10.4685   21.0415 C   0  0  0  0  0  0  0  0  0  0  0  0
  -29.8287  -18.1714   16.7770 C   0  0  0  0  0  0  0  0  0  0  0  0
  -25.9697  -11.7470   20.8147 C   0  0  0  0  0  0  0  0  0  0  0  0
  -25.4830  -34.1026   24.4960 C   0  0  0  0  0  0  0  0  0  0  0  0
  -25.4132  -29.0504   20.1781 C   0  0  0  0  0  0  0  0  0  0  0  0
  -25.6661  -32.7410   24.1877 C   0  0  0  0  0  0  0  0  0  0  0  0
  -24.9427  -27.7752   20.5222 C   0  0  0  0  0  0  0  0  0  0  0  0
  -29.9789  -19.4936   17.1952 C   0  0  0  0  0  0  0  0  0  0  0  0
  -27.5458  -18.1808   17.5675 C   0  0  0  0  0  0  0  0  0  0  0  0
  -28.9125  -20.1594   17.7995 C   0  0  0  0  0  0  0  0  0  0  0  0
  -22.2385   -8.1582   21.3383 C   0  0  0  0  0  0  0  0  0  0  0  0
  -27.1652  -26.8661   20.1425 C   0  0  0  0  0  0  0  0  0  0  0  0
  -21.8978   -6.1036   22.4267 C   0  0  0  0  0  0  0  0  0  0  0  0
  -22.7224   -4.2338   24.3258 C   0  0  0  0  0  0  0  0  0  0  0  0
  -21.0526   -5.7629   23.4828 C   0  0  0  0  0  0  0  0  0  0  0  0
  -24.5664  -11.6619   20.8876 C   0  0  0  0  0  0  0  0  0  0  0  0
  -26.2253  -13.0888   20.6707 C   0  0  0  0  0  0  0  0  0  0  0  0
  -30.9219  -17.4600   16.1474 C   0  0  0  0  0  0  0  0  0  0  0  0
  -26.9541  -10.7062   20.8720 C   0  0  0  0  0  0  0  0  0  0  0  0
  -23.5859  -30.1834   22.5192 C   0  0  0  0  0  0  0  0  0  0  0  0
  -28.4688  -23.6185   19.1852 C   0  0  0  0  0  0  0  0  0  0  0  0
  -21.2356  -28.6340   20.9074 C   0  0  0  0  0  0  0  0  0  0  0  0
  -20.3642  -26.1522   18.7330 C   0  0  0  0  0  0  0  0  0  0  0  0
  -25.1517  -18.0288   18.3368 C   0  0  0  0  0  0  0  0  0  0  0  0
  -24.1465  -34.6427   24.9394 C   0  0  0  0  0  0  0  0  0  0  0  0
  -24.4783  -30.2285   20.1618 C   0  0  0  0  0  0  0  0  0  0  0  0
  -23.5085  -27.5389   20.9169 C   0  0  0  0  0  0  0  0  0  0  0  0
  -22.9757  -33.7228   24.6030 C   0  0  0  0  0  0  0  0  0  0  0  0
  -23.1657  -17.0938   21.1402 C   0  0  0  0  0  0  0  0  0  0  0  0
  -23.3006  -32.2828   24.9876 C   0  0  0  0  0  0  0  0  0  0  0  0
  -23.4685  -15.6043   21.3184 C   0  0  0  0  0  0  0  0  0  0  0  0
  -23.1220  -17.4913   19.6658 C   0  0  0  0  0  0  0  0  0  0  0  0
  -24.6090  -15.6218   19.0631 C   0  0  0  0  0  0  0  0  0  0  0  0
  -24.5119  -31.7625   24.2044 C   0  0  1  0  0  0  0  0  0  0  0  0
  -23.2600  -30.0370   21.0598 C   0  0  1  0  0  0  0  0  0  0  0  0
  -24.7275  -15.1873   20.5331 C   0  0  2  0  0  0  0  0  0  0  0  0
  -31.2857  -20.1950   16.9931 C   0  0  0  0  0  0  0  0  0  0  0  0
  -18.3638  -25.1057   17.6374 C   0  0  0  0  0  0  0  0  0  0  0  0
  -20.5452  -27.2217   23.5225 C   0  0  0  0  0  0  0  0  0  0  0  0
  -19.2350  -25.5523   22.1940 C   0  0  0  0  0  0  0  0  0  0  0  0
  -18.5673  -27.9557   22.1795 C   0  0  0  0  0  0  0  0  0  0  0  0
  -21.3474  -26.8305   16.0252 C   0  0  0  0  0  0  0  0  0  0  0  0
  -27.9853  -22.2231   18.8518 C   0  0  0  0  0  0  0  0  0  0  0  0
  -27.4499  -24.5231   19.8506 C   0  0  0  0  0  0  0  0  0  1  0  0
  -20.6536  -27.2415   20.9430 C   0  0  1  0  0  0  0  0  0  0  0  0
  -19.4597  -26.1528   17.5138 C   0  0  2  0  0  0  0  0  0  0  0  0
  -19.7779  -26.9973   22.2042 C   0  0  0  0  0  0  0  0  0  0  0  0
  -23.9721  -12.8547   20.7974 N   0  0  0  0  0  0  0  0  0  0  0  0
  -25.0070  -13.7020   20.6665 N   0  0  0  0  0  0  0  0  0  0  0  0
  -22.6347  -28.7236   20.8915 N   0  0  0  0  0  0  0  0  0  0  0  0
  -24.3488  -17.0680   18.9871 N   0  0  0  0  0  0  0  0  0  0  0  0
  -27.3711  -13.7921   20.5485 N   0  0  0  0  0  0  0  0  0  0  0  0
  -31.7920  -16.7577   16.8904 N   0  0  0  0  0  0  0  0  0  0  0  0
  -26.5189   -9.3824   21.0224 N   0  0  0  0  0  0  0  0  0  0  0  0
  -26.3097  -17.5139   17.7549 N   0  0  0  0  0  0  0  0  0  0  0  0
  -29.0427  -21.4748   18.2217 N   0  0  0  0  0  0  0  0  0  0  0  0
  -24.1273  -31.4097   22.8545 N   0  0  0  0  0  0  0  0  0  0  0  0
  -19.9455  -27.0627   19.6800 N   0  0  0  0  0  0  0  0  0  0  0  0
  -31.0756  -17.4939   14.8142 N   0  3  0  0  0  0  0  0  0  0  0  0
  -20.2490  -25.8641   16.2831 N   0  3  0  0  0  0  0  0  0  0  0  0
  -28.1840  -10.9446   20.8086 O   0  0  0  0  0  0  0  0  0  0  0  0
  -23.3613  -29.2531   23.2847 O   0  0  0  0  0  0  0  0  0  0  0  0
  -29.6105  -24.0041   18.9370 O   0  0  0  0  0  0  0  0  0  0  0  0
  -20.4767  -29.6063   20.8869 O   0  0  0  0  0  0  0  0  0  0  0  0
  -21.3421  -25.4149   18.8365 O   0  0  0  0  0  0  0  0  0  0  0  0
  -24.8492  -19.2247   18.3223 O   0  0  0  0  0  0  0  0  0  0  0  0
  -21.4896   -7.0309   21.4827 O   0  0  0  0  0  0  0  0  0  0  0  0
  -28.0149  -25.8032   20.1307 O   0  0  0  0  0  0  0  0  0  1  0  0
  -23.1178   -3.3350   25.2368 F   0  0  0  0  0  0  0  0  0  0  0  0
  -19.8430   -6.3296   23.5897 F   0  0  0  0  0  0  0  0  0  0  0  0
  1  2  1  0  0  0  0
  1  5  2  0  0  0  0
  2  6  2  0  0  0  0
  3  8  2  0  0  0  0
  3 17  1  0  0  0  0
  4  9  1  0  0  0  0
  4 17  2  0  0  0  0
  5 20  1  0  0  0  0
  6 22  1  0  0  0  0
  7 10  2  0  0  0  0
  7 21  1  0  0  0  0
  8 27  1  0  0  0  0
  9 27  2  0  0  0  0
 10 28  1  0  0  0  0
 11 12  2  0  0  0  0
 11 29  1  0  0  0  0
 12 30  1  0  0  0  0
 13 18  2  0  0  0  0
 13 25  1  0  0  0  0
 14 23  1  0  0  0  0
 14 28  2  0  0  0  0
 15 25  2  0  0  0  0
 15 26  1  0  0  0  0
 16 30  2  0  0  0  0
 16 31  1  0  0  0  0
 17 32  1  0  0  0  0
 18 24  1  0  0  0  0
 18 34  1  0  0  0  0
 19 32  1  0  0  0  0
 19 33  2  0  0  0  0
 19 35  1  0  0  0  0
 20 22  2  0  0  0  0
 20 41  1  0  0  0  0
 21 23  2  0  0  0  0
 21 42  1  0  0  0  0
 22 50  1  0  0  0  0
 23 43  1  0  0  0  0
 24 26  2  0  0  0  0
 24 53  1  0  0  0  0
 25 71  1  0  0  0  0
 26 72  1  0  0  0  0
 27 83  1  0  0  0  0
 28 84  1  0  0  0  0
 29 31  2  0  0  0  0
 29 83  1  0  0  0  0
 30 85  1  0  0  0  0
 31 86  1  0  0  0  0
 32 64  2  0  0  0  0
 33 65  1  0  0  0  0
 33 68  1  0  0  0  0
 34 69  1  0  0  0  0
 34 75  2  0  0  0  0
 35 70  1  0  0  0  0
 35 77  2  0  0  0  0
 36 51  1  0  0  0  0
 36 73  1  0  0  0  0
 36 78  2  0  0  0  0
 37 59  1  0  0  0  0
 37 60  1  0  0  0  0
 37 79  2  0  0  0  0
 38 61  1  0  0  0  0
 38 66  1  0  0  0  0
 38 80  2  0  0  0  0
 39 62  1  0  0  0  0
 39 74  1  0  0  0  0
 39 81  2  0  0  0  0
 40 67  1  0  0  0  0
 40 71  1  0  0  0  0
 40 82  2  0  0  0  0
 41 44  1  0  0  0  0
 42 51  1  0  0  0  0
 43 66  1  0  0  0  0
 44 46  1  0  0  0  0
 45 47  1  0  0  0  0
 45 48  1  0  0  0  0
 46 50  1  0  0  0  0
 47 52  1  0  0  0  0
 48 67  1  0  0  0  0
 49 52  1  0  0  0  0
 49 67  1  0  0  0  0
 50 73  1  0  0  0  0
 51 66  1  0  0  0  0
 52 65  1  0  0  0  0
 54 62  1  0  0  0  0
 55 63  1  0  0  0  0
 56 63  1  0  0  0  0
 57 63  1  0  0  0  0
 58 76  1  0  0  0  0
 59 72  1  0  0  0  0
 60 84  1  0  0  0  0
 61 63  1  0  0  0  0
 61 74  1  0  0  0  0
 62 76  1  0  0  0  0
 64 65  1  0  0  0  0
M  CHG  2  75   1  76   1
M  ISO  4  40 100  60 101  71 100  84 101
M  END
> <Batch ID>
0163

> <Smiles>
CNC(C)C(=O)NC(C(=O)N1Cc2cc([101O:1][101CH2:1]C(=O)CNc3cc([100NH:0][100C:0](=O)N4CCCC(n5nc(-c6ccc(Oc7ccc(F)cc7F)cc6)c(C(N)=O)c5N)C4)cc(C(=N)N)c3C)ccc2CC1C(=O)NC1CCCc2ccccc21)C(C)(C)C

> <Shape>
0.297

> <Color>
0.112

> <Negative vol penalty>
0.000

$$$$

  -OEChem-04052303593D

 90 98  0     1  0  0  0  0  0999 V2000
  -30.2348  -32.3345   24.7289 C   0  0  0  0  0  0  0  0  0  0  0  0
  -29.9177  -31.1428   24.0848 C   0  0  0  0  0  0  0  0  0  0  0  0
  -18.8281  -16.5033   25.4244 C   0  0  0  0  0  0  0  0  0  0  0  0
  -20.4635  -18.2026   24.8999 C   0  0  0  0  0  0  0  0  0  0  0  0
  -29.2456  -33.0412   25.4116 C   0  0  0  0  0  0  0  0  0  0  0  0
  -28.6114  -30.6567   24.1239 C   0  0  0  0  0  0  0  0  0  0  0  0
  -27.0068  -29.0327   19.6036 C   0  0  0  0  0  0  0  0  0  0  0  0
  -18.6581  -17.0585   26.6927 C   0  0  0  0  0  0  0  0  0  0  0  0
  -20.2934  -18.7578   26.1682 C   0  0  0  0  0  0  0  0  0  0  0  0
  -27.4524  -27.7808   19.1819 C   0  0  0  0  0  0  0  0  0  0  0  0
  -21.3141  -18.1147   29.3265 C   0  0  0  0  0  0  0  0  0  0  0  0
  -22.4603  -18.4710   30.0370 C   0  0  0  0  0  0  0  0  0  0  0  0
  -25.3518  -26.8101   19.8635 C   0  0  0  0  0  0  0  0  0  0  0  0
  -27.0492  -16.5443   20.4229 C   0  0  0  0  0  0  0  0  0  0  0  0
  -27.8734  -14.2743   20.4891 C   0  0  0  0  0  0  0  0  0  0  0  0
  -21.7035  -20.7643   30.1082 C   0  0  0  0  0  0  0  0  0  0  0  0
  -19.7309  -17.0754   24.5280 C   0  0  0  0  0  0  0  0  0  0  0  0
  -29.4280  -16.1233   20.4525 C   0  0  0  0  0  0  0  0  0  0  0  0
  -19.1969  -16.8244   22.0462 C   0  0  0  0  0  0  0  0  0  0  0  0
  -27.9244  -32.5684   25.4509 C   0  0  0  0  0  0  0  0  0  0  0  0
  -25.7323  -29.1811   20.1694 C   0  0  0  0  0  0  0  0  0  0  0  0
  -27.6039  -31.3570   24.8088 C   0  0  0  0  0  0  0  0  0  0  0  0
  -24.8914  -28.0655   20.2892 C   0  0  0  0  0  0  0  0  0  0  0  0
  -26.8057  -15.1713   20.4571 C   0  0  0  0  0  0  0  0  0  0  0  0
  -28.3604  -17.0203   20.4206 C   0  0  0  0  0  0  0  0  0  0  0  0
  -19.3906  -18.1857   27.0646 C   0  0  0  0  0  0  0  0  0  0  0  0
  -26.6260  -26.6687   19.3144 C   0  0  0  0  0  0  0  0  0  0  0  0
  -20.3626  -19.0832   29.0067 C   0  0  0  0  0  0  0  0  0  0  0  0
  -22.6550  -19.7957   30.4279 C   0  0  0  0  0  0  0  0  0  0  0  0
  -29.1846  -14.7502   20.4868 C   0  0  0  0  0  0  0  0  0  0  0  0
  -20.5572  -20.4080   29.3976 C   0  0  0  0  0  0  0  0  0  0  0  0
  -19.9074  -16.5021   23.2180 C   0  0  0  0  0  0  0  0  0  0  0  0
  -19.7367  -16.0085   21.0820 C   0  0  0  0  0  0  0  0  0  0  0  0
  -30.8079  -16.5927   20.4527 C   0  0  0  0  0  0  0  0  0  0  0  0
  -18.1433  -17.7762   21.8470 C   0  0  0  0  0  0  0  0  0  0  0  0
  -24.6298  -30.1182   22.9996 C   0  0  0  0  0  0  0  0  0  0  0  0
  -28.1203  -20.7655   20.3169 C   0  0  0  0  0  0  0  0  0  0  0  0
  -27.5535  -23.1740   19.5890 C   0  0  0  0  0  0  0  0  0  0  0  0
  -21.7511  -29.8647   21.5261 C   0  0  0  0  0  0  0  0  0  0  0  0
  -19.8859  -28.4691   19.0321 C   0  0  0  0  0  0  0  0  0  0  0  0
  -25.0585  -13.3567   20.4898 C   0  0  0  0  0  0  0  0  0  0  0  0
  -26.8996  -33.3428   26.2413 C   0  0  0  0  0  0  0  0  0  0  0  0
  -25.2563  -30.5430   20.5948 C   0  0  0  0  0  0  0  0  0  0  0  0
  -23.5067  -28.1751   20.8714 C   0  0  0  0  0  0  0  0  0  0  0  0
  -25.4595  -32.9520   25.9190 C   0  0  0  0  0  0  0  0  0  0  0  0
  -21.8772  -11.7588   20.5417 C   0  0  0  0  0  0  0  0  0  0  0  0
  -25.3107  -31.4341   25.8956 C   0  0  0  0  0  0  0  0  0  0  0  0
  -20.9452  -12.8252   21.1216 C   0  0  0  0  0  0  0  0  0  0  0  0
  -23.2577  -11.7962   21.1947 C   0  0  0  0  0  0  0  0  0  0  0  0
  -22.9813  -14.1767   21.7658 C   0  0  0  0  0  0  0  0  0  0  0  0
  -26.1929  -30.8100   24.8077 C   0  0  1  0  0  0  0  0  0  0  0  0
  -24.1365  -30.4883   21.6295 C   0  0  1  0  0  0  0  0  0  0  0  0
  -21.5992  -14.2206   21.0937 C   0  0  2  0  0  0  0  0  0  0  0  0
  -32.7949  -17.1911   18.9690 C   0  0  0  0  0  0  0  0  0  0  0  0
  -17.5545  -28.4249   18.1049 C   0  0  0  0  0  0  0  0  0  0  0  0
  -20.8736  -28.0608   23.8252 C   0  0  0  0  0  0  0  0  0  0  0  0
  -18.9543  -27.3042   22.4068 C   0  0  0  0  0  0  0  0  0  0  0  0
  -19.1448  -29.7018   23.0684 C   0  0  0  0  0  0  0  0  0  0  0  0
  -20.7792  -29.5409   16.4220 C   0  0  0  0  0  0  0  0  0  0  0  0
  -31.7276  -16.1609   19.3037 C   0  0  0  0  0  0  0  0  0  0  0  0
  -27.1147  -21.9007   20.2842 C   0  0  0  0  0  0  0  0  0  0  0  0
  -27.5273  -19.3713   20.3524 C   0  0  0  0  0  0  0  0  0  0  0  0
  -26.5477  -24.3090   19.5996 C   0  0  0  0  0  0  0  0  0  1  0  0
  -20.7368  -28.7616   21.3440 C   0  0  1  0  0  0  0  0  0  0  0  0
  -18.9240  -29.0819   18.0303 C   0  0  2  0  0  0  0  0  0  0  0  0
  -19.9541  -28.4543   22.6519 C   0  0  0  0  0  0  0  0  0  0  0  0
  -20.8282  -15.5552   23.0187 N   0  0  0  0  0  0  0  0  0  0  0  0
  -20.6999  -15.2755   21.7105 N   0  0  0  0  0  0  0  0  0  0  0  0
  -23.0892  -29.5269   21.2786 N   0  0  0  0  0  0  0  0  0  0  0  0
  -23.8171  -13.1481   21.1270 N   0  0  0  0  0  0  0  0  0  0  0  0
  -19.4765  -15.8538   19.7664 N   0  0  0  0  0  0  0  0  0  0  0  0
  -17.7092  -18.5318   22.9447 N   0  0  0  0  0  0  0  0  0  0  0  0
  -25.4739  -14.6876   20.4582 N   0  0  0  0  0  0  0  0  0  0  0  0
  -28.5812  -18.3896   20.3863 N   0  0  0  0  0  0  0  0  0  0  0  0
  -25.5850  -30.9792   23.5053 N   0  0  0  0  0  0  0  0  0  0  0  0
  -19.8935  -29.1634   20.2234 N   0  0  0  0  0  0  0  0  0  0  0  0
  -19.4475  -28.9209   16.6443 N   0  3  0  0  0  0  0  0  0  0  0  0
  -31.2691  -17.3250   21.3422 O   0  0  0  0  0  0  0  0  0  0  0  0
  -17.5917  -17.9398   20.7324 O   0  0  0  0  0  0  0  0  0  0  0  0
  -24.1763  -29.1258   23.5574 O   0  0  0  0  0  0  0  0  0  0  0  0
  -29.3337  -20.9645   20.3531 O   0  0  0  0  0  0  0  0  0  0  0  0
  -28.6375  -23.2784   19.0175 O   0  0  0  0  0  0  0  0  0  0  0  0
  -21.3695  -30.9868   21.8682 O   0  0  0  0  0  0  0  0  0  0  0  0
  -20.5602  -27.4719   18.7841 O   0  0  0  0  0  0  0  0  0  0  0  0
  -25.6926  -12.4273   19.9837 O   0  0  0  0  0  0  0  0  0  0  0  0
  -19.2248  -18.7278   28.3020 O   0  0  0  0  0  0  0  0  0  0  0  0
  -27.0587  -25.4455   18.9042 O   0  0  0  0  0  0  0  0  0  1  0  0
  -23.7550  -20.1374   31.1116 F   0  0  0  0  0  0  0  0  0  0  0  0
  -30.2023  -13.8781   20.5189 F   0  0  0  0  0  0  0  0  0  0  0  0
  -19.6461  -21.3427   29.0943 F   0  0  0  0  0  0  0  0  0  0  0  0
  1  2  1  0  0  0  0
  1  5  2  0  0  0  0
  2  6  2  0  0  0  0
  3  8  2  0  0  0  0
  3 17  1  0  0  0  0
  4  9  1  0  0  0  0
  4 17  2  0  0  0  0
  5 20  1  0  0  0  0
  6 22  1  0  0  0  0
  7 10  2  0  0  0  0
  7 21  1  0  0  0  0
  8 26  1  0  0  0  0
  9 26  2  0  0  0  0
 10 27  1  0  0  0  0
 11 12  2  0  0  0  0
 11 28  1  0  0  0  0
 12 29  1  0  0  0  0
 13 23  1  0  0  0  0
 13 27  2  0  0  0  0
 14 24  2  0  0  0  0
 14 25  1  0  0  0  0
 15 24  1  0  0  0  0
 15 30  2  0  0  0  0
 16 29  2  0  0  0  0
 16 31  1  0  0  0  0
 17 32  1  0  0  0  0
 18 25  2  0  0  0  0
 18 30  1  0  0  0  0
 18 34  1  0  0  0  0
 19 32  1  0  0  0  0
 19 33  2  0  0  0  0
 19 35  1  0  0  0  0
 20 22  2  0  0  0  0
 20 42  1  0  0  0  0
 21 23  2  0  0  0  0
 21 43  1  0  0  0  0
 22 51  1  0  0  0  0
 23 44  1  0  0  0  0
 24 73  1  0  0  0  0
 25 74  1  0  0  0  0
 26 86  1  0  0  0  0
 27 87  1  0  0  0  0
 28 31  2  0  0  0  0
 28 86  1  0  0  0  0
 29 88  1  0  0  0  0
 30 89  1  0  0  0  0
 31 90  1  0  0  0  0
 32 67  2  0  0  0  0
 33 68  1  0  0  0  0
 33 71  1  0  0  0  0
 34 60  1  0  0  0  0
 34 78  2  0  0  0  0
 35 72  1  0  0  0  0
 35 79  2  0  0  0  0
 36 52  1  0  0  0  0
 36 75  1  0  0  0  0
 36 80  2  0  0  0  0
 37 61  1  0  0  0  0
 37 62  1  0  0  0  0
 37 81  2  0  0  0  0
 38 61  1  0  0  0  0
 38 63  1  0  0  0  0
 38 82  2  0  0  0  0
 39 64  1  0  0  0  0
 39 69  1  0  0  0  0
 39 83  2  0  0  0  0
 40 65  1  0  0  0  0
 40 76  1  0  0  0  0
 40 84  2  0  0  0  0
 41 70  1  0  0  0  0
 41 73  1  0  0  0  0
 41 85  2  0  0  0  0
 42 45  1  0  0  0  0
 43 52  1  0  0  0  0
 44 69  1  0  0  0  0
 45 47  1  0  0  0  0
 46 48  1  0  0  0  0
 46 49  1  0  0  0  0
 47 51  1  0  0  0  0
 48 53  1  0  0  0  0
 49 70  1  0  0  0  0
 50 53  1  0  0  0  0
 50 70  1  0  0  0  0
 51 75  1  0  0  0  0
 52 69  1  0  0  0  0
 53 68  1  0  0  0  0
 54 60  1  0  0  0  0
 55 65  1  0  0  0  0
 56 66  1  0  0  0  0
 57 66  1  0  0  0  0
 58 66  1  0  0  0  0
 59 77  1  0  0  0  0
 62 74  1  0  0  0  0
 63 87  1  0  0  0  0
 64 66  1  0  0  0  0
 64 76  1  0  0  0  0
 65 77  1  0  0  0  0
 67 68  1  0  0  0  0
M  CHG  1  77   1
M  ISO  4  41 100  63 101  73 100  87 101
M  END
> <Batch ID>
0163

> <Smiles>
CCC(=O)c1c(F)cc([100NH:0][100C:0](=O)N2CCCC(n3nc(-c4ccc(Oc5ccc(F)cc5F)cc4)c(C(N)=O)c3N)C2)cc1NCC(=O)CC(=O)[101CH2:1][101O:1]c1ccc2c(c1)CN(C(=O)C(NC(=O)C(C)NC)C(C)(C)C)C(C(=O)NC1CCCc3ccccc31)C2

> <Shape>
0.267

> <Color>
0.079

> <Negative vol penalty>
0.000

$$$$

  -OEChem-04052303593D

 88 96  0     1  0  0  0  0  0999 V2000
  -21.4580  -12.7190   19.8912 C   0  0  0  0  0  0  0  0  0  0  0  0
  -21.4901  -13.9203   20.5921 C   0  0  0  0  0  0  0  0  0  0  0  0
  -30.0591  -29.5087   22.5902 C   0  0  0  0  0  0  0  0  0  0  0  0
  -28.9971  -27.3467   22.7766 C   0  0  0  0  0  0  0  0  0  0  0  0
  -22.6384  -12.0110   19.6693 C   0  0  0  0  0  0  0  0  0  0  0  0
  -22.7026  -14.4138   21.0725 C   0  0  0  0  0  0  0  0  0  0  0  0
  -23.2679  -19.3690   20.1946 C   0  0  0  0  0  0  0  0  0  0  0  0
  -31.0575  -29.0944   23.4717 C   0  0  0  0  0  0  0  0  0  0  0  0
  -29.9956  -26.9323   23.6581 C   0  0  0  0  0  0  0  0  0  0  0  0
  -22.5857  -20.2467   21.0361 C   0  0  0  0  0  0  0  0  0  0  0  0
  -32.4624  -25.1834   25.6767 C   0  0  0  0  0  0  0  0  0  0  0  0
  -33.0162  -23.9181   25.4819 C   0  0  0  0  0  0  0  0  0  0  0  0
  -24.6145  -20.6136   22.2884 C   0  0  0  0  0  0  0  0  0  0  0  0
  -19.1331  -28.2575   22.4851 C   0  0  0  0  0  0  0  0  0  0  0  0
  -33.7450  -24.5770   23.2746 C   0  0  0  0  0  0  0  0  0  0  0  0
  -20.6076  -26.5599   22.3673 C   0  0  0  0  0  0  0  0  0  0  0  0
  -29.0289  -28.6349   22.2427 C   0  0  0  0  0  0  0  0  0  0  0  0
  -27.9967  -28.9415   19.9301 C   0  0  0  0  0  0  0  0  0  0  0  0
  -23.8673  -12.5009   20.1388 C   0  0  0  0  0  0  0  0  0  0  0  0
  -24.6283  -19.0983   20.4007 C   0  0  0  0  0  0  0  0  0  0  0  0
  -23.9004  -13.7110   20.8578 C   0  0  0  0  0  0  0  0  0  0  0  0
  -25.3124  -19.7341   21.4466 C   0  0  0  0  0  0  0  0  0  0  0  0
  -20.5079  -27.9336   22.3743 C   0  0  0  0  0  0  0  0  0  0  0  0
  -31.0258  -27.8062   24.0056 C   0  0  0  0  0  0  0  0  0  0  0  0
  -23.2582  -20.8668   22.0849 C   0  0  0  0  0  0  0  0  0  0  0  0
  -32.5498  -26.1454   24.6704 C   0  0  0  0  0  0  0  0  0  0  0  0
  -33.6576  -23.6149   24.2809 C   0  0  0  0  0  0  0  0  0  0  0  0
  -33.1911  -25.8422   23.4694 C   0  0  0  0  0  0  0  0  0  0  0  0
  -27.9969  -29.0626   21.3326 C   0  0  0  0  0  0  0  0  0  0  0  0
  -18.4346  -27.0717   22.5426 C   0  0  0  0  0  0  0  0  0  0  0  0
  -26.8018  -29.4937   19.5380 C   0  0  0  0  0  0  0  0  0  0  0  0
  -28.9879  -28.3800   19.0595 C   0  0  0  0  0  0  0  0  0  0  0  0
  -17.0207  -26.9314   22.6578 C   0  0  0  0  0  0  0  0  0  0  0  0
  -26.3182  -16.4955   21.0889 C   0  0  0  0  0  0  0  0  0  0  0  0
  -18.6655  -24.0673   23.8887 C   0  0  0  0  0  0  0  0  0  0  0  0
  -28.8386  -18.4887   20.6448 C   0  0  0  0  0  0  0  0  0  0  0  0
  -30.0361  -21.6843   20.6213 C   0  0  0  0  0  0  0  0  0  0  0  0
  -21.5466  -30.2270   22.2858 C   0  0  0  0  0  0  0  0  0  0  0  0
  -25.1104  -11.6766   19.9154 C   0  0  0  0  0  0  0  0  0  0  0  0
  -25.3563  -18.1697   19.4679 C   0  0  0  0  0  0  0  0  0  0  0  0
  -26.7776  -19.4929   21.6980 C   0  0  0  0  0  0  0  0  0  0  0  0
  -26.4051  -12.4557   20.1327 C   0  0  0  0  0  0  0  0  0  0  0  0
  -23.5809  -32.7802   20.8644 C   0  0  0  0  0  0  0  0  0  0  0  0
  -26.3332  -13.2601   21.4268 C   0  0  0  0  0  0  0  0  0  0  0  0
  -24.9425  -32.1037   20.6899 C   0  0  0  0  0  0  0  0  0  0  0  0
  -22.8783  -32.3199   22.1405 C   0  0  0  0  0  0  0  0  0  0  0  0
  -24.1127  -30.1881   22.1142 C   0  0  0  0  0  0  0  0  0  0  0  0
  -25.1995  -14.2913   21.3731 C   0  0  1  0  0  0  0  0  0  0  0  0
  -26.6173  -17.5717   20.0839 C   0  0  1  0  0  0  0  0  0  0  0  0
  -24.8299  -30.5712   20.8094 C   0  0  2  0  0  0  0  0  0  0  0  0
  -32.1454  -22.9950   20.2604 C   0  0  0  0  0  0  0  0  0  0  0  0
  -29.8338  -17.6417   23.4020 C   0  0  0  0  0  0  0  0  0  0  0  0
  -31.3574  -19.6283   23.3855 C   0  0  0  0  0  0  0  0  0  0  0  0
  -31.6210  -17.8423   21.6640 C   0  0  0  0  0  0  0  0  0  0  0  0
  -18.9313  -20.3083   24.9012 C   0  0  0  0  0  0  0  0  0  0  0  0
  -28.8697  -23.1522   18.3314 C   0  0  0  0  0  0  0  0  0  0  0  0
  -18.3753  -22.5735   23.9910 C   0  0  0  0  0  0  0  0  0  0  0  0
  -19.0092  -24.5779   22.5001 C   0  0  0  0  0  0  0  0  0  0  0  0
  -20.8293  -21.9477   24.5127 C   0  0  0  0  0  0  0  0  0  0  0  0
  -21.2028  -21.4820   23.1109 C   0  0  0  0  0  0  0  0  0  1  0  0
  -29.6420  -19.4100   21.5305 C   0  0  1  0  0  0  0  0  0  0  0  0
  -30.8891  -22.4330   19.6132 C   0  0  2  0  0  0  0  0  0  0  0  0
  -30.5855  -18.6339   22.4922 C   0  0  0  0  0  0  0  0  0  0  0  0
  -19.3430  -21.7874   24.8940 C   0  0  2  0  0  0  0  0  0  0  0  0
  -26.8900  -29.6460   21.8000 N   0  0  0  0  0  0  0  0  0  0  0  0
  -19.3411  -26.0464   22.4705 N   0  0  0  0  0  0  0  0  0  0  0  0
  -26.1831  -29.8965   20.6848 N   0  0  0  0  0  0  0  0  0  0  0  0
  -27.4439  -18.5718   20.7625 N   0  0  0  0  0  0  0  0  0  0  0  0
  -22.8045  -30.8579   22.1827 N   0  0  0  0  0  0  0  0  0  0  0  0
  -26.2304  -29.6691   18.3275 N   0  0  0  0  0  0  0  0  0  0  0  0
  -30.1568  -27.8558   19.6281 N   0  0  0  0  0  0  0  0  0  0  0  0
  -16.2111  -28.0149   22.7232 N   0  0  0  0  0  0  0  0  0  0  0  0
  -21.5987  -28.8335   22.2842 N   0  0  0  0  0  0  0  0  0  0  0  0
  -25.5938  -15.4351   20.5789 N   0  0  0  0  0  0  0  0  0  0  0  0
  -30.3295  -20.3372   20.6383 N   0  0  0  0  0  0  0  0  0  0  0  0
  -16.4382  -25.7097   22.7041 N   0  3  0  0  0  0  0  0  0  0  0  0
  -30.1193  -23.5635   19.0214 N   0  3  0  0  0  0  0  0  0  0  0  0
  -28.8488  -28.3591   17.8130 O   0  0  0  0  0  0  0  0  0  0  0  0
  -26.7165  -16.6175   22.2414 O   0  0  0  0  0  0  0  0  0  0  0  0
  -18.5662  -24.8175   24.8590 O   0  0  0  0  0  0  0  0  0  0  0  0
  -29.4266  -17.7284   19.8716 O   0  0  0  0  0  0  0  0  0  0  0  0
  -29.1962  -22.2397   21.3261 O   0  0  0  0  0  0  0  0  0  0  0  0
  -20.4983  -30.8749   22.3420 O   0  0  0  0  0  0  0  0  0  0  0  0
  -19.1755  -22.2661   26.2353 O   0  0  0  0  0  0  0  0  0  0  0  0
  -32.0000  -27.4014   24.8656 O   0  0  0  0  0  0  0  0  0  0  0  0
  -22.5945  -21.7234   22.9082 O   0  0  0  0  0  0  0  0  0  1  0  0
  -34.1908  -22.4004   24.0946 F   0  0  0  0  0  0  0  0  0  0  0  0
  -33.2792  -26.7627   22.4995 F   0  0  0  0  0  0  0  0  0  0  0  0
  1  2  1  0  0  0  0
  1  5  2  0  0  0  0
  2  6  2  0  0  0  0
  3  8  2  0  0  0  0
  3 17  1  0  0  0  0
  4  9  1  0  0  0  0
  4 17  2  0  0  0  0
  5 19  1  0  0  0  0
  6 21  1  0  0  0  0
  7 10  2  0  0  0  0
  7 20  1  0  0  0  0
  8 24  1  0  0  0  0
  9 24  2  0  0  0  0
 10 25  1  0  0  0  0
 11 12  2  0  0  0  0
 11 26  1  0  0  0  0
 12 27  1  0  0  0  0
 13 22  1  0  0  0  0
 13 25  2  0  0  0  0
 14 23  1  0  0  0  0
 14 30  2  0  0  0  0
 15 27  2  0  0  0  0
 15 28  1  0  0  0  0
 16 23  2  0  0  0  0
 16 66  1  0  0  0  0
 17 29  1  0  0  0  0
 18 29  1  0  0  0  0
 18 31  2  0  0  0  0
 18 32  1  0  0  0  0
 19 21  2  0  0  0  0
 19 39  1  0  0  0  0
 20 22  2  0  0  0  0
 20 40  1  0  0  0  0
 21 48  1  0  0  0  0
 22 41  1  0  0  0  0
 23 73  1  0  0  0  0
 24 85  1  0  0  0  0
 25 86  1  0  0  0  0
 26 28  2  0  0  0  0
 26 85  1  0  0  0  0
 27 87  1  0  0  0  0
 28 88  1  0  0  0  0
 29 65  2  0  0  0  0
 30 33  1  0  0  0  0
 30 66  1  0  0  0  0
 31 67  1  0  0  0  0
 31 70  1  0  0  0  0
 32 71  1  0  0  0  0
 32 78  2  0  0  0  0
 33 72  1  0  0  0  0
 33 76  2  0  0  0  0
 34 49  1  0  0  0  0
 34 74  1  0  0  0  0
 34 79  2  0  0  0  0
 35 57  1  0  0  0  0
 35 58  1  0  0  0  0
 35 80  2  0  0  0  0
 36 61  1  0  0  0  0
 36 68  1  0  0  0  0
 36 81  2  0  0  0  0
 37 62  1  0  0  0  0
 37 75  1  0  0  0  0
 37 82  2  0  0  0  0
 38 69  1  0  0  0  0
 38 73  1  0  0  0  0
 38 83  2  0  0  0  0
 39 42  1  0  0  0  0
 40 49  1  0  0  0  0
 41 68  1  0  0  0  0
 42 44  1  0  0  0  0
 43 45  1  0  0  0  0
 43 46  1  0  0  0  0
 44 48  1  0  0  0  0
 45 50  1  0  0  0  0
 46 69  1  0  0  0  0
 47 50  1  0  0  0  0
 47 69  1  0  0  0  0
 48 74  1  0  0  0  0
 49 68  1  0  0  0  0
 50 67  1  0  0  0  0
 51 62  1  0  0  0  0
 52 63  1  0  0  0  0
 53 63  1  0  0  0  0
 54 63  1  0  0  0  0
 55 64  1  0  0  0  0
 56 77  1  0  0  0  0
 57 64  1  0  0  0  0
 58 66  1  0  0  0  0
 59 60  1  0  0  0  0
 59 64  1  0  0  0  0
 60 86  1  0  0  0  0
 61 63  1  0  0  0  0
 61 75  1  0  0  0  0
 62 77  1  0  0  0  0
 64 84  1  0  0  0  0
 65 67  1  0  0  0  0
M  CHG  2  76   1  77   1
M  ISO  4  38 100  60 101  73 100  86 101
M  END
> <Batch ID>
0163

> <Smiles>
CNC(C)C(=O)NC(C(=O)N1Cc2cc([101O:1][101CH2:1]CC(C)(O)CC(=O)Cn3cc([100NH:0][100C:0](=O)N4CCCC(n5nc(-c6ccc(Oc7ccc(F)cc7F)cc6)c(C(N)=O)c5N)C4)cc3C(=N)N)ccc2CC1C(=O)NC1CCCc2ccccc21)C(C)(C)C

> <Shape>
0.225

> <Color>
0.067

> <Negative vol penalty>
0.000

$$$$

  -OEChem-04052303593D

 86 94  0     1  0  0  0  0  0999 V2000
  -21.6850   -8.0483   24.6431 C   0  0  0  0  0  0  0  0  0  0  0  0
  -22.6371   -9.0228   24.9248 C   0  0  0  0  0  0  0  0  0  0  0  0
  -23.5897  -29.7911   19.9677 C   0  0  0  0  0  0  0  0  0  0  0  0
  -23.8263  -28.4023   21.9304 C   0  0  0  0  0  0  0  0  0  0  0  0
  -21.5398   -7.5731   23.3404 C   0  0  0  0  0  0  0  0  0  0  0  0
  -23.4453   -9.5219   23.9039 C   0  0  0  0  0  0  0  0  0  0  0  0
  -23.8643  -14.5666   24.0484 C   0  0  0  0  0  0  0  0  0  0  0  0
  -22.2804  -30.0949   20.3405 C   0  0  0  0  0  0  0  0  0  0  0  0
  -22.5170  -28.7062   22.3033 C   0  0  0  0  0  0  0  0  0  0  0  0
  -24.7364  -15.1062   24.9929 C   0  0  0  0  0  0  0  0  0  0  0  0
  -19.3936  -27.7380   21.4443 C   0  0  0  0  0  0  0  0  0  0  0  0
  -18.5815  -26.6880   21.8728 C   0  0  0  0  0  0  0  0  0  0  0  0
  -26.4102  -15.3862   23.2785 C   0  0  0  0  0  0  0  0  0  0  0  0
  -18.3036  -27.7759   24.0120 C   0  0  0  0  0  0  0  0  0  0  0  0
  -24.3626  -28.9447   20.7626 C   0  0  0  0  0  0  0  0  0  0  0  0
  -26.8843  -29.3294   20.7319 C   0  0  0  0  0  0  0  0  0  0  0  0
  -22.3400   -8.0736   22.3013 C   0  0  0  0  0  0  0  0  0  0  0  0
  -24.2632  -14.4223   22.7118 C   0  0  0  0  0  0  0  0  0  0  0  0
  -23.3116   -9.0520   22.5863 C   0  0  0  0  0  0  0  0  0  0  0  0
  -25.5405  -14.8467   22.3185 C   0  0  0  0  0  0  0  0  0  0  0  0
  -21.7440  -29.5525   21.5083 C   0  0  0  0  0  0  0  0  0  0  0  0
  -26.0106  -15.5135   24.6086 C   0  0  0  0  0  0  0  0  0  0  0  0
  -19.6607  -28.8069   22.2997 C   0  0  0  0  0  0  0  0  0  0  0  0
  -18.0365  -26.7069   23.1566 C   0  0  0  0  0  0  0  0  0  0  0  0
  -19.1157  -28.8259   23.5835 C   0  0  0  0  0  0  0  0  0  0  0  0
  -25.7150  -28.6300   20.3777 C   0  0  0  0  0  0  0  0  0  0  0  0
  -29.6933  -19.7320   21.0626 C   0  0  0  0  0  0  0  0  0  0  0  0
  -27.8986  -28.6350   20.1192 C   0  0  0  0  0  0  0  0  0  0  0  0
  -29.2350  -20.1508   22.2941 C   0  0  0  0  0  0  0  0  0  0  0  0
  -28.7844  -21.6310   20.4479 C   0  0  0  0  0  0  0  0  0  0  0  0
  -27.0396  -30.5019   21.5423 C   0  0  0  0  0  0  0  0  0  0  0  0
  -29.1435  -19.0513   25.8512 C   0  0  0  0  0  0  0  0  0  0  0  0
  -28.1497  -17.9632   26.1675 C   0  0  0  0  0  0  0  0  0  0  0  0
  -24.6467  -11.9600   20.7387 C   0  0  0  0  0  0  0  0  0  0  0  0
  -25.1753  -14.2963   18.5513 C   0  0  0  0  0  0  0  0  0  0  0  0
  -26.1251  -17.5128   17.9199 C   0  0  0  0  0  0  0  0  0  0  0  0
  -28.4623  -22.9608   18.3327 C   0  0  0  0  0  0  0  0  0  0  0  0
  -22.1788   -7.4952   20.9178 C   0  0  0  0  0  0  0  0  0  0  0  0
  -23.3012  -13.8630   21.6999 C   0  0  0  0  0  0  0  0  0  0  0  0
  -26.0099  -14.7321   20.8920 C   0  0  0  0  0  0  0  0  0  0  0  0
  -22.8183   -8.3460   19.8236 C   0  0  0  0  0  0  0  0  0  0  0  0
  -28.7753  -25.8722   16.3071 C   0  0  0  0  0  0  0  0  0  0  0  0
  -24.2237   -8.7744   20.2333 C   0  0  0  0  0  0  0  0  0  0  0  0
  -28.1379  -26.9746   17.1559 C   0  0  0  0  0  0  0  0  0  0  0  0
  -28.0414  -24.5413   16.4619 C   0  0  0  0  0  0  0  0  0  0  0  0
  -27.2293  -25.1887   18.6959 C   0  0  0  0  0  0  0  0  0  0  0  0
  -24.1901   -9.6361   21.5014 C   0  0  1  0  0  0  0  0  0  0  0  0
  -23.9958  -13.2872   20.4697 C   0  0  1  0  0  0  0  0  0  0  0  0
  -27.9733  -26.5321   18.6230 C   0  0  2  0  0  0  0  0  0  0  0  0
  -31.8476  -18.7190   20.2343 C   0  0  0  0  0  0  0  0  0  0  0  0
  -29.6589  -17.5384   19.8213 C   0  0  0  0  0  0  0  0  0  0  0  0
  -26.4950  -19.1228   16.0309 C   0  0  0  0  0  0  0  0  0  0  0  0
  -27.8015  -12.8973   17.8764 C   0  0  0  0  0  0  0  0  0  0  0  0
  -28.5420  -14.9938   16.7255 C   0  0  0  0  0  0  0  0  0  0  0  0
  -26.5395  -13.7585   15.8965 C   0  0  0  0  0  0  0  0  0  0  0  0
  -24.0544  -19.3652   18.9396 C   0  0  0  0  0  0  0  0  0  0  0  0
  -28.8362  -20.0286   24.7542 C   0  0  0  0  0  0  0  0  0  0  0  0
  -27.8124  -16.9983   25.0611 C   0  0  0  0  0  0  0  0  0  1  0  0
  -30.4229  -18.4773   20.7822 C   0  0  0  0  0  0  0  0  0  0  0  0
  -26.3892  -15.0504   18.0646 C   0  0  1  0  0  0  0  0  0  0  0  0
  -25.5035  -18.5956   17.0564 C   0  0  2  0  0  0  0  0  0  0  0  0
  -27.3102  -14.1755   17.1681 C   0  0  0  0  0  0  0  0  0  0  0  0
  -25.9623  -27.5725   19.6002 N   0  0  0  0  0  0  0  0  0  0  0  0
  -29.4355  -20.5793   20.0027 N   0  0  0  0  0  0  0  0  0  0  0  0
  -30.2300  -19.0843   26.5485 N   0  0  0  0  0  0  0  0  0  0  0  0
  -27.2986  -27.6022   19.4607 N   0  0  0  0  0  0  0  0  0  0  0  0
  -25.0350  -14.1731   19.9409 N   0  0  0  0  0  0  0  0  0  0  0  0
  -27.9267  -24.1842   17.8776 N   0  0  0  0  0  0  0  0  0  0  0  0
  -29.2363  -28.8131   20.0849 N   0  0  0  0  0  0  0  0  0  0  0  0
  -25.8932  -31.0889   22.0949 N   0  0  0  0  0  0  0  0  0  0  0  0
  -29.3526  -19.5042   23.5166 N   0  0  0  0  0  0  0  0  0  0  0  0
  -28.3226  -22.7445   19.7032 N   0  0  0  0  0  0  0  0  0  0  0  0
  -23.7743  -10.9856   21.1845 N   0  0  0  0  0  0  0  0  0  0  0  0
  -25.8870  -16.2538   17.4105 N   0  0  0  0  0  0  0  0  0  0  0  0
  -25.0507  -19.7362   17.9019 N   0  3  0  0  0  0  0  0  0  0  0  0
  -28.1603  -31.0235   21.7561 O   0  0  0  0  0  0  0  0  0  0  0  0
  -27.6643  -17.9448   27.2896 O   0  0  0  0  0  0  0  0  0  0  0  0
  -25.8511  -11.8292   20.5538 O   0  0  0  0  0  0  0  0  0  0  0  0
  -24.3771  -13.8398   17.7290 O   0  0  0  0  0  0  0  0  0  0  0  0
  -26.7616  -17.7594   18.9419 O   0  0  0  0  0  0  0  0  0  0  0  0
  -29.0291  -22.1761   17.5679 O   0  0  0  0  0  0  0  0  0  0  0  0
  -20.4665  -29.8490   21.8725 O   0  0  0  0  0  0  0  0  0  0  0  0
  -26.8640  -16.0400   25.5286 O   0  0  0  0  0  0  0  0  0  1  0  0
  -17.2554  -25.6993   23.5674 F   0  0  0  0  0  0  0  0  0  0  0  0
  -19.3679  -29.8507   24.4094 F   0  0  0  0  0  0  0  0  0  0  0  0
  -28.4494  -21.6666   22.1306 S   0  0  0  0  0  0  0  0  0  0  0  0
  1  2  1  0  0  0  0
  1  5  2  0  0  0  0
  2  6  2  0  0  0  0
  3  8  2  0  0  0  0
  3 15  1  0  0  0  0
  4  9  1  0  0  0  0
  4 15  2  0  0  0  0
  5 17  1  0  0  0  0
  6 19  1  0  0  0  0
  7 10  2  0  0  0  0
  7 18  1  0  0  0  0
  8 21  1  0  0  0  0
  9 21  2  0  0  0  0
 10 22  1  0  0  0  0
 11 12  2  0  0  0  0
 11 23  1  0  0  0  0
 12 24  1  0  0  0  0
 13 20  1  0  0  0  0
 13 22  2  0  0  0  0
 14 24  2  0  0  0  0
 14 25  1  0  0  0  0
 15 26  1  0  0  0  0
 16 26  1  0  0  0  0
 16 28  2  0  0  0  0
 16 31  1  0  0  0  0
 17 19  2  0  0  0  0
 17 38  1  0  0  0  0
 18 20  2  0  0  0  0
 18 39  1  0  0  0  0
 19 47  1  0  0  0  0
 20 40  1  0  0  0  0
 21 82  1  0  0  0  0
 22 83  1  0  0  0  0
 23 25  2  0  0  0  0
 23 82  1  0  0  0  0
 24 84  1  0  0  0  0
 25 85  1  0  0  0  0
 26 63  2  0  0  0  0
 27 29  2  0  0  0  0
 27 59  1  0  0  0  0
 27 64  1  0  0  0  0
 28 66  1  0  0  0  0
 28 69  1  0  0  0  0
 29 71  1  0  0  0  0
 29 86  1  0  0  0  0
 30 64  2  0  0  0  0
 30 72  1  0  0  0  0
 30 86  1  0  0  0  0
 31 70  1  0  0  0  0
 31 76  2  0  0  0  0
 32 33  1  0  0  0  0
 32 57  1  0  0  0  0
 32 65  2  0  0  0  0
 33 58  1  0  0  0  0
 33 77  2  0  0  0  0
 34 48  1  0  0  0  0
 34 73  1  0  0  0  0
 34 78  2  0  0  0  0
 35 60  1  0  0  0  0
 35 67  1  0  0  0  0
 35 79  2  0  0  0  0
 36 61  1  0  0  0  0
 36 74  1  0  0  0  0
 36 80  2  0  0  0  0
 37 68  1  0  0  0  0
 37 72  1  0  0  0  0
 37 81  2  0  0  0  0
 38 41  1  0  0  0  0
 39 48  1  0  0  0  0
 40 67  1  0  0  0  0
 41 43  1  0  0  0  0
 42 44  1  0  0  0  0
 42 45  1  0  0  0  0
 43 47  1  0  0  0  0
 44 49  1  0  0  0  0
 45 68  1  0  0  0  0
 46 49  1  0  0  0  0
 46 68  1  0  0  0  0
 47 73  1  0  0  0  0
 48 67  1  0  0  0  0
 49 66  1  0  0  0  0
 50 59  1  0  0  0  0
 51 59  1  0  0  0  0
 52 61  1  0  0  0  0
 53 62  1  0  0  0  0
 54 62  1  0  0  0  0
 55 62  1  0  0  0  0
 56 75  1  0  0  0  0
 57 71  1  0  0  0  0
 58 83  1  0  0  0  0
 60 62  1  0  0  0  0
 60 74  1  0  0  0  0
 61 75  1  0  0  0  0
 63 66  1  0  0  0  0
M  CHG  1  75   1
M  ISO  4  37 100  58 101  72 100  83 101
M  END
> <Batch ID>
0163

> <Smiles>
CNC(C)C(=O)NC(C(=O)N1Cc2cc([101O:1][101CH2:1]C(=O)C(=N)CNc3sc([100NH:0][100C:0](=O)N4CCCC(n5nc(-c6ccc(Oc7ccc(F)cc7F)cc6)c(C(N)=O)c5N)C4)nc3C(C)C)ccc2CC1C(=O)NC1CCCc2ccccc21)C(C)(C)C

> <Shape>
0.263

> <Color>
0.074

> <Negative vol penalty>
0.000

$$$$

  -OEChem-04052303593D

 84 92  0     1  0  0  0  0  0999 V2000
  -17.7456  -32.9047   21.2543 C   0  0  0  0  0  0  0  0  0  0  0  0
  -19.0166  -32.8663   21.8186 C   0  0  0  0  0  0  0  0  0  0  0  0
  -22.3299  -10.0853   20.0331 C   0  0  0  0  0  0  0  0  0  0  0  0
  -23.6939  -10.0227   22.0262 C   0  0  0  0  0  0  0  0  0  0  0  0
  -16.9632  -31.7511   21.2223 C   0  0  0  0  0  0  0  0  0  0  0  0
  -19.5055  -31.6744   22.3524 C   0  0  0  0  0  0  0  0  0  0  0  0
  -25.5918  -28.7231   19.8748 C   0  0  0  0  0  0  0  0  0  0  0  0
  -22.0647   -8.7230   20.1717 C   0  0  0  0  0  0  0  0  0  0  0  0
  -23.4287   -8.6603   22.1649 C   0  0  0  0  0  0  0  0  0  0  0  0
  -26.8581  -28.2066   19.5997 C   0  0  0  0  0  0  0  0  0  0  0  0
  -22.8185   -5.2434   23.2467 C   0  0  0  0  0  0  0  0  0  0  0  0
  -22.4879   -4.7723   24.5173 C   0  0  0  0  0  0  0  0  0  0  0  0
  -26.4551  -26.3759   21.1275 C   0  0  0  0  0  0  0  0  0  0  0  0
  -20.5727   -6.2444   24.5647 C   0  0  0  0  0  0  0  0  0  0  0  0
  -26.9947  -19.3914   22.9443 C   0  0  0  0  0  0  0  0  0  0  0  0
  -23.1445  -10.7352   20.9603 C   0  0  0  0  0  0  0  0  0  0  0  0
  -22.6800  -13.2120   21.3570 C   0  0  0  0  0  0  0  0  0  0  0  0
  -17.4465  -30.5422   21.7472 C   0  0  0  0  0  0  0  0  0  0  0  0
  -24.7453  -28.0587   20.7667 C   0  0  0  0  0  0  0  0  0  0  0  0
  -18.7283  -30.5039   22.3286 C   0  0  0  0  0  0  0  0  0  0  0  0
  -25.1807  -26.8817   21.3975 C   0  0  0  0  0  0  0  0  0  0  0  0
  -22.6141   -8.0105   21.2376 C   0  0  0  0  0  0  0  0  0  0  0  0
  -27.2888  -27.0360   20.2247 C   0  0  0  0  0  0  0  0  0  0  0  0
  -22.0263   -6.2150   22.6352 C   0  0  0  0  0  0  0  0  0  0  0  0
  -21.3650   -5.2728   25.1763 C   0  0  0  0  0  0  0  0  0  0  0  0
  -20.9034   -6.7155   23.2941 C   0  0  0  0  0  0  0  0  0  0  0  0
  -23.4193  -12.1424   20.8173 C   0  0  0  0  0  0  0  0  0  0  0  0
  -27.6524  -18.9579   21.8123 C   0  0  0  0  0  0  0  0  0  0  0  0
  -23.3470  -14.3368   20.9369 C   0  0  0  0  0  0  0  0  0  0  0  0
  -28.5579  -20.9485   21.9778 C   0  0  0  0  0  0  0  0  0  0  0  0
  -21.4964  -13.1908   22.1658 C   0  0  0  0  0  0  0  0  0  0  0  0
  -30.8500  -23.6971   20.8543 C   0  0  0  0  0  0  0  0  0  0  0  0
  -30.2937  -24.9335   20.2065 C   0  0  0  0  0  0  0  0  0  0  0  0
  -30.2327  -22.3377   20.7512 C   0  0  0  0  0  0  0  0  0  0  0  0
  -21.4066  -27.9627   22.4755 C   0  0  0  0  0  0  0  0  0  0  0  0
  -22.0865  -25.0775   21.6854 C   0  0  0  0  0  0  0  0  0  0  0  0
  -23.0112  -22.1124   20.2746 C   0  0  0  0  0  0  0  0  0  0  0  0
  -28.0643  -17.1698   20.0862 C   0  0  0  0  0  0  0  0  0  0  0  0
  -16.5457  -29.3327   21.7324 C   0  0  0  0  0  0  0  0  0  0  0  0
  -23.3967  -28.6120   21.1397 C   0  0  0  0  0  0  0  0  0  0  0  0
  -24.2496  -26.2196   22.3761 C   0  0  0  0  0  0  0  0  0  0  0  0
  -17.2841  -28.0202   21.9820 C   0  0  0  0  0  0  0  0  0  0  0  0
  -27.0615  -14.8889   17.5428 C   0  0  0  0  0  0  0  0  0  0  0  0
  -18.2341  -28.1591   23.1673 C   0  0  0  0  0  0  0  0  0  0  0  0
  -25.9637  -14.0590   18.2124 C   0  0  0  0  0  0  0  0  0  0  0  0
  -28.1804  -15.2436   18.5206 C   0  0  0  0  0  0  0  0  0  0  0  0
  -26.6396  -15.0568   20.4338 C   0  0  0  0  0  0  0  0  0  0  0  0
  -19.3034  -29.2241   22.8954 C   0  0  1  0  0  0  0  0  0  0  0  0
  -22.3441  -27.5176   21.3918 C   0  0  1  0  0  0  0  0  0  0  0  0
  -25.4589  -14.7302   19.5048 C   0  0  2  0  0  0  0  0  0  0  0  0
  -22.2668  -19.7279   20.0354 C   0  0  0  0  0  0  0  0  0  0  0  0
  -22.9608  -24.5207   24.5541 C   0  0  0  0  0  0  0  0  0  0  0  0
  -23.1069  -22.0922   23.9630 C   0  0  0  0  0  0  0  0  0  0  0  0
  -20.9163  -23.2777   23.8263 C   0  0  0  0  0  0  0  0  0  0  0  0
  -22.8535  -22.3357   17.3277 C   0  0  0  0  0  0  0  0  0  0  0  0
  -28.9033  -25.3349   20.6212 C   0  0  0  0  0  0  0  0  0  1  0  0
  -22.6983  -23.7633   22.0998 C   0  0  1  0  0  0  0  0  0  0  0  0
  -22.2425  -21.1193   19.4219 C   0  0  2  0  0  0  0  0  0  0  0  0
  -22.4354  -23.4328   23.5961 C   0  0  0  0  0  0  0  0  0  0  0  0
  -24.4749  -12.5510   20.1083 N   0  0  0  0  0  0  0  0  0  0  0  0
  -28.5489  -19.8496   21.2564 N   0  0  0  0  0  0  0  0  0  0  0  0
  -31.9353  -23.7896   21.5493 N   0  0  0  0  0  0  0  0  0  0  0  0
  -24.4038  -13.8900   20.1995 N   0  0  0  0  0  0  0  0  0  0  0  0
  -22.8778  -26.2217   21.8444 N   0  0  0  0  0  0  0  0  0  0  0  0
  -27.6278  -15.8794   19.7186 N   0  0  0  0  0  0  0  0  0  0  0  0
  -23.1267  -15.6546   21.1299 N   0  0  0  0  0  0  0  0  0  0  0  0
  -20.9416  -11.9494   22.5056 N   0  0  0  0  0  0  0  0  0  0  0  0
  -27.4450  -17.6855   21.2242 N   0  0  0  0  0  0  0  0  0  0  0  0
  -29.3279  -22.1155   21.7663 N   0  0  0  0  0  0  0  0  0  0  0  0
  -20.3292  -28.6984   22.0202 N   0  0  0  0  0  0  0  0  0  0  0  0
  -22.1874  -22.7634   21.1683 N   0  0  0  0  0  0  0  0  0  0  0  0
  -22.8348  -21.0413   18.0566 N   0  3  0  0  0  0  0  0  0  0  0  0
  -20.9376  -14.2419   22.5614 O   0  0  0  0  0  0  0  0  0  0  0  0
  -30.9919  -25.5246   19.3969 O   0  0  0  0  0  0  0  0  0  0  0  0
  -30.5921  -21.6361   19.8211 O   0  0  0  0  0  0  0  0  0  0  0  0
  -21.6415  -27.6601   23.6395 O   0  0  0  0  0  0  0  0  0  0  0  0
  -20.9364  -25.0930   21.2379 O   0  0  0  0  0  0  0  0  0  0  0  0
  -24.2221  -22.2901   20.1619 O   0  0  0  0  0  0  0  0  0  0  0  0
  -28.9044  -17.7840   19.4236 O   0  0  0  0  0  0  0  0  0  0  0  0
  -22.3554   -6.6811   21.3734 O   0  0  0  0  0  0  0  0  0  0  0  0
  -28.5245  -26.5348   19.9481 O   0  0  0  0  0  0  0  0  0  1  0  0
  -21.0468   -4.8192   26.3958 F   0  0  0  0  0  0  0  0  0  0  0  0
  -20.1377   -7.6481   22.7112 F   0  0  0  0  0  0  0  0  0  0  0  0
  -27.5133  -20.9778   23.3390 S   0  0  0  0  0  0  0  0  0  0  0  0
  1  2  1  0  0  0  0
  1  5  2  0  0  0  0
  2  6  2  0  0  0  0
  3  8  2  0  0  0  0
  3 16  1  0  0  0  0
  4  9  1  0  0  0  0
  4 16  2  0  0  0  0
  5 18  1  0  0  0  0
  6 20  1  0  0  0  0
  7 10  2  0  0  0  0
  7 19  1  0  0  0  0
  8 22  1  0  0  0  0
  9 22  2  0  0  0  0
 10 23  1  0  0  0  0
 11 12  2  0  0  0  0
 11 24  1  0  0  0  0
 12 25  1  0  0  0  0
 13 21  1  0  0  0  0
 13 23  2  0  0  0  0
 14 25  2  0  0  0  0
 14 26  1  0  0  0  0
 15 28  2  0  0  0  0
 15 84  1  0  0  0  0
 16 27  1  0  0  0  0
 17 27  1  0  0  0  0
 17 29  2  0  0  0  0
 17 31  1  0  0  0  0
 18 20  2  0  0  0  0
 18 39  1  0  0  0  0
 19 21  2  0  0  0  0
 19 40  1  0  0  0  0
 20 48  1  0  0  0  0
 21 41  1  0  0  0  0
 22 80  1  0  0  0  0
 23 81  1  0  0  0  0
 24 26  2  0  0  0  0
 24 80  1  0  0  0  0
 25 82  1  0  0  0  0
 26 83  1  0  0  0  0
 27 60  2  0  0  0  0
 28 61  1  0  0  0  0
 28 68  1  0  0  0  0
 29 63  1  0  0  0  0
 29 66  1  0  0  0  0
 30 61  2  0  0  0  0
 30 69  1  0  0  0  0
 30 84  1  0  0  0  0
 31 67  1  0  0  0  0
 31 73  2  0  0  0  0
 32 33  1  0  0  0  0
 32 34  1  0  0  0  0
 32 62  2  0  0  0  0
 33 56  1  0  0  0  0
 33 74  2  0  0  0  0
 34 69  1  0  0  0  0
 34 75  2  0  0  0  0
 35 49  1  0  0  0  0
 35 70  1  0  0  0  0
 35 76  2  0  0  0  0
 36 57  1  0  0  0  0
 36 64  1  0  0  0  0
 36 77  2  0  0  0  0
 37 58  1  0  0  0  0
 37 71  1  0  0  0  0
 37 78  2  0  0  0  0
 38 65  1  0  0  0  0
 38 68  1  0  0  0  0
 38 79  2  0  0  0  0
 39 42  1  0  0  0  0
 40 49  1  0  0  0  0
 41 64  1  0  0  0  0
 42 44  1  0  0  0  0
 43 45  1  0  0  0  0
 43 46  1  0  0  0  0
 44 48  1  0  0  0  0
 45 50  1  0  0  0  0
 46 65  1  0  0  0  0
 47 50  1  0  0  0  0
 47 65  1  0  0  0  0
 48 70  1  0  0  0  0
 49 64  1  0  0  0  0
 50 63  1  0  0  0  0
 51 58  1  0  0  0  0
 52 59  1  0  0  0  0
 53 59  1  0  0  0  0
 54 59  1  0  0  0  0
 55 72  1  0  0  0  0
 56 81  1  0  0  0  0
 57 59  1  0  0  0  0
 57 71  1  0  0  0  0
 58 72  1  0  0  0  0
 60 63  1  0  0  0  0
M  CHG  1  72   1
M  ISO  4  38 100  56 101  68 100  81 101
M  END
> <Batch ID>
0163

> <Smiles>
CNC(C)C(=O)NC(C(=O)N1Cc2cc([101O:1][101CH2:1]C(=O)C(=N)C(=O)Nc3nc([100NH:0][100C:0](=O)N4CCCC(n5nc(-c6ccc(Oc7ccc(F)cc7F)cc6)c(C(N)=O)c5N)C4)cs3)ccc2CC1C(=O)NC1CCCc2ccccc21)C(C)(C)C

> <Shape>
0.255

> <Color>
0.102

> <Negative vol penalty>
0.000

$$$$

  -OEChem-04052303593D

 91 99  0     1  0  0  0  0  0999 V2000
  -29.7523  -22.2941   19.6429 C   0  0  0  0  0  0  0  0  0  0  0  0
  -28.4894  -22.5520   20.1663 C   0  0  0  0  0  0  0  0  0  0  0  0
  -24.8316   -8.7579   21.3075 C   0  0  0  0  0  0  0  0  0  0  0  0
  -23.2117   -9.8515   19.8872 C   0  0  0  0  0  0  0  0  0  0  0  0
  -30.8405  -23.0727   20.0348 C   0  0  0  0  0  0  0  0  0  0  0  0
  -28.3142  -23.5882   21.0829 C   0  0  0  0  0  0  0  0  0  0  0  0
  -24.2300  -26.4063   20.0715 C   0  0  0  0  0  0  0  0  0  0  0  0
  -23.8394   -7.8970   21.7763 C   0  0  0  0  0  0  0  0  0  0  0  0
  -22.2195   -8.9905   20.3560 C   0  0  0  0  0  0  0  0  0  0  0  0
  -22.9898  -25.8839   20.4359 C   0  0  0  0  0  0  0  0  0  0  0  0
  -21.2960   -8.0042   23.9999 C   0  0  0  0  0  0  0  0  0  0  0  0
  -21.2365   -7.7722   25.3740 C   0  0  0  0  0  0  0  0  0  0  0  0
  -22.9960  -27.2648   22.4139 C   0  0  0  0  0  0  0  0  0  0  0  0
  -21.5957   -5.4139   24.9914 C   0  0  0  0  0  0  0  0  0  0  0  0
  -22.6468  -20.4125   21.2080 C   0  0  0  0  0  0  0  0  0  0  0  0
  -24.5178   -9.7352   20.3630 C   0  0  0  0  0  0  0  0  0  0  0  0
  -26.3836  -10.4285   18.7674 C   0  0  0  0  0  0  0  0  0  0  0  0
  -30.6767  -24.1251   20.9493 C   0  0  0  0  0  0  0  0  0  0  0  0
  -24.8686  -27.3554   20.8825 C   0  0  0  0  0  0  0  0  0  0  0  0
  -29.4014  -24.3808   21.4884 C   0  0  0  0  0  0  0  0  0  0  0  0
  -24.2431  -27.7996   22.0562 C   0  0  0  0  0  0  0  0  0  0  0  0
  -22.4309  -18.3639   20.3519 C   0  0  0  0  0  0  0  0  0  0  0  0
  -21.7675  -19.3595   21.1082 C   0  0  0  0  0  0  0  0  0  0  0  0
  -22.5333   -8.0132   21.3005 C   0  0  0  0  0  0  0  0  0  0  0  0
  -22.3740  -26.3110   21.6087 C   0  0  0  0  0  0  0  0  0  0  0  0
  -21.5053   -6.9410   23.1215 C   0  0  0  0  0  0  0  0  0  0  0  0
  -21.3864   -6.4771   25.8698 C   0  0  0  0  0  0  0  0  0  0  0  0
  -21.6552   -5.6459   23.6173 C   0  0  0  0  0  0  0  0  0  0  0  0
  -25.5422  -10.6253   19.8788 C   0  0  0  0  0  0  0  0  0  0  0  0
  -23.6682  -18.8796   20.0434 C   0  0  0  0  0  0  0  0  0  0  0  0
  -27.1727  -11.5520   18.7309 C   0  0  0  0  0  0  0  0  0  0  0  0
  -19.5341  -22.4190   22.2248 C   0  0  0  0  0  0  0  0  0  0  0  0
  -26.4460   -9.3285   17.8499 C   0  0  0  0  0  0  0  0  0  0  0  0
  -19.9439  -23.8182   22.5445 C   0  0  0  0  0  0  0  0  0  0  0  0
  -27.6068  -27.4501   22.4941 C   0  0  0  0  0  0  0  0  0  0  0  0
  -19.8376  -20.1974   22.3320 C   0  0  0  0  0  0  0  0  0  0  0  0
  -26.7404  -30.5317   23.0193 C   0  0  0  0  0  0  0  0  0  0  0  0
  -24.2383  -32.8440   23.2191 C   0  0  0  0  0  0  0  0  0  0  0  0
  -26.4117  -17.1367   20.7516 C   0  0  0  0  0  0  0  0  0  0  0  0
  -31.8913  -24.9092   21.3789 C   0  0  0  0  0  0  0  0  0  0  0  0
  -26.1939  -27.9290   20.4618 C   0  0  0  0  0  0  0  0  0  0  0  0
  -24.8775  -28.8316   22.9512 C   0  0  0  0  0  0  0  0  0  0  0  0
  -31.5523  -26.2276   22.0695 C   0  0  0  0  0  0  0  0  0  0  0  0
  -29.0542  -14.9004   21.5838 C   0  0  0  0  0  0  0  0  0  0  0  0
  -30.4609  -26.0178   23.1143 C   0  0  0  0  0  0  0  0  0  0  0  0
  -28.5297  -13.5334   21.1409 C   0  0  0  0  0  0  0  0  0  0  0  0
  -27.9388  -15.7766   22.1496 C   0  0  0  0  0  0  0  0  0  0  0  0
  -26.2467  -14.5746   20.8209 C   0  0  0  0  0  0  0  0  0  0  0  0
  -29.1665  -25.5118   22.4661 C   0  0  1  0  0  0  0  0  0  0  0  0
  -26.9901  -28.5103   21.6261 C   0  0  1  0  0  0  0  0  0  0  0  0
  -27.3249  -13.6758   20.1916 C   0  0  2  0  0  0  0  0  0  0  0  0
  -18.4641  -19.7773   22.7947 C   0  0  0  0  0  0  0  0  0  0  0  0
  -23.8350  -35.2731   23.7026 C   0  0  0  0  0  0  0  0  0  0  0  0
  -20.0221  -14.6112   20.4006 C   0  0  0  0  0  0  0  0  0  0  0  0
  -21.6416  -13.6637   22.0500 C   0  0  0  0  0  0  0  0  0  0  0  0
  -22.3198  -13.9735   19.6559 C   0  0  0  0  0  0  0  0  0  0  0  0
  -27.1169  -29.9984   25.9998 C   0  0  0  0  0  0  0  0  0  0  0  0
  -25.8177  -32.0871   26.4666 C   0  0  0  0  0  0  0  0  0  0  0  0
  -27.9747  -32.2144   25.2200 C   0  0  0  0  0  0  0  0  0  0  0  0
  -23.1202  -33.3150   20.5197 C   0  0  0  0  0  0  0  0  0  0  0  0
  -21.9137  -17.0361   19.9657 C   0  0  0  0  0  0  0  0  0  0  0  0
  -24.8204  -18.3598   19.2918 C   0  0  0  0  0  0  0  0  0  0  0  0
  -20.8732  -24.4668   21.5562 C   0  0  0  0  0  0  0  0  0  1  0  0
  -21.9595  -16.0208   21.1319 C   0  0  0  0  0  0  0  0  0  0  0  0
  -25.9366  -31.2511   24.0753 C   0  0  1  0  0  0  0  0  0  0  0  0
  -24.1016  -34.2341   22.6246 C   0  0  2  0  0  0  0  0  0  0  0  0
  -21.5061  -14.5704   20.8157 C   0  0  0  0  0  0  0  0  0  0  0  0
  -26.7002  -31.3669   25.4248 C   0  0  0  0  0  0  0  0  0  0  0  0
  -25.7752  -11.7827   20.5033 N   0  0  0  0  0  0  0  0  0  0  0  0
  -20.2620  -21.4529   22.6658 N   0  0  0  0  0  0  0  0  0  0  0  0
  -26.7720  -12.3233   19.7820 N   0  0  0  0  0  0  0  0  0  0  0  0
  -26.1764  -29.3578   22.5000 N   0  0  0  0  0  0  0  0  0  0  0  0
  -26.8274  -15.8722   21.2001 N   0  0  0  0  0  0  0  0  0  0  0  0
  -28.1635  -11.9455   17.9027 N   0  0  0  0  0  0  0  0  0  0  0  0
  -25.5630   -8.2554   18.0322 N   0  0  0  0  0  0  0  0  0  0  0  0
  -28.4648  -26.6011   21.8215 N   0  0  0  0  0  0  0  0  0  0  0  0
  -25.5533  -32.5331   23.4938 N   0  0  0  0  0  0  0  0  0  0  0  0
  -25.3560  -17.1373   19.8481 N   0  0  0  0  0  0  0  0  0  0  0  0
  -20.4667  -19.2995   21.6581 N   0  3  0  0  0  0  0  0  0  0  0  0
  -22.9770  -34.2713   21.6475 N   0  3  0  0  0  0  0  0  0  0  0  0
  -27.2719   -9.2905   16.9065 O   0  0  0  0  0  0  0  0  0  0  0  0
  -19.4990  -24.3313   23.5588 O   0  0  0  0  0  0  0  0  0  0  0  0
  -27.3261  -27.4067   23.6862 O   0  0  0  0  0  0  0  0  0  0  0  0
  -27.8253  -30.9981   22.6628 O   0  0  0  0  0  0  0  0  0  0  0  0
  -23.2746  -32.1090   23.4230 O   0  0  0  0  0  0  0  0  0  0  0  0
  -26.9454  -18.1870   21.1244 O   0  0  0  0  0  0  0  0  0  0  0  0
  -23.8077  -20.1281   20.5616 O   0  0  0  0  0  0  0  0  0  0  0  0
  -21.5649   -7.1731   21.7576 O   0  0  0  0  0  0  0  0  0  0  0  0
  -21.1638  -25.8022   21.9671 O   0  0  0  0  0  0  0  0  0  1  0  0
  -21.3308   -6.2547   27.1895 F   0  0  0  0  0  0  0  0  0  0  0  0
  -21.8576   -4.6207   22.7784 F   0  0  0  0  0  0  0  0  0  0  0  0
  1  2  1  0  0  0  0
  1  5  2  0  0  0  0
  2  6  2  0  0  0  0
  3  8  2  0  0  0  0
  3 16  1  0  0  0  0
  4  9  1  0  0  0  0
  4 16  2  0  0  0  0
  5 18  1  0  0  0  0
  6 20  1  0  0  0  0
  7 10  2  0  0  0  0
  7 19  1  0  0  0  0
  8 24  1  0  0  0  0
  9 24  2  0  0  0  0
 10 25  1  0  0  0  0
 11 12  2  0  0  0  0
 11 26  1  0  0  0  0
 12 27  1  0  0  0  0
 13 21  1  0  0  0  0
 13 25  2  0  0  0  0
 14 27  2  0  0  0  0
 14 28  1  0  0  0  0
 15 23  2  0  0  0  0
 15 87  1  0  0  0  0
 16 29  1  0  0  0  0
 17 29  1  0  0  0  0
 17 31  2  0  0  0  0
 17 33  1  0  0  0  0
 18 20  2  0  0  0  0
 18 40  1  0  0  0  0
 19 21  2  0  0  0  0
 19 41  1  0  0  0  0
 20 49  1  0  0  0  0
 21 42  1  0  0  0  0
 22 23  1  0  0  0  0
 22 30  2  0  0  0  0
 22 61  1  0  0  0  0
 23 79  1  0  0  0  0
 24 88  1  0  0  0  0
 25 89  1  0  0  0  0
 26 28  2  0  0  0  0
 26 88  1  0  0  0  0
 27 90  1  0  0  0  0
 28 91  1  0  0  0  0
 29 69  2  0  0  0  0
 30 62  1  0  0  0  0
 30 87  1  0  0  0  0
 31 71  1  0  0  0  0
 31 74  1  0  0  0  0
 32 34  1  0  0  0  0
 32 70  2  0  0  0  0
 33 75  1  0  0  0  0
 33 81  2  0  0  0  0
 34 63  1  0  0  0  0
 34 82  2  0  0  0  0
 35 50  1  0  0  0  0
 35 76  1  0  0  0  0
 35 83  2  0  0  0  0
 36 52  1  0  0  0  0
 36 70  1  0  0  0  0
 36 79  2  0  0  0  0
 37 65  1  0  0  0  0
 37 72  1  0  0  0  0
 37 84  2  0  0  0  0
 38 66  1  0  0  0  0
 38 77  1  0  0  0  0
 38 85  2  0  0  0  0
 39 73  1  0  0  0  0
 39 78  1  0  0  0  0
 39 86  2  0  0  0  0
 40 43  1  0  0  0  0
 41 50  1  0  0  0  0
 42 72  1  0  0  0  0
 43 45  1  0  0  0  0
 44 46  1  0  0  0  0
 44 47  1  0  0  0  0
 45 49  1  0  0  0  0
 46 51  1  0  0  0  0
 47 73  1  0  0  0  0
 48 51  1  0  0  0  0
 48 73  1  0  0  0  0
 49 76  1  0  0  0  0
 50 72  1  0  0  0  0
 51 71  1  0  0  0  0
 53 66  1  0  0  0  0
 54 67  1  0  0  0  0
 55 67  1  0  0  0  0
 56 67  1  0  0  0  0
 57 68  1  0  0  0  0
 58 68  1  0  0  0  0
 59 68  1  0  0  0  0
 60 80  1  0  0  0  0
 61 64  1  0  0  0  0
 62 78  1  0  0  0  0
 63 89  1  0  0  0  0
 64 67  1  0  0  0  0
 65 68  1  0  0  0  0
 65 77  1  0  0  0  0
 66 80  1  0  0  0  0
 69 71  1  0  0  0  0
M  CHG  2  79   1  80   1
M  ISO  4  39 100  63 101  78 100  89 101
M  END
> <Batch ID>
0163

> <Smiles>
CNC(C)C(=O)NC(C(=O)N1Cc2cc([101O:1][101CH2:1]C(=O)CN=C(C)Nc3coc(C=[100N:0][100C:0](=O)N4CCCC(n5nc(-c6ccc(Oc7ccc(F)cc7F)cc6)c(C(N)=O)c5N)C4)c3CCC(C)(C)C)ccc2CC1C(=O)NC1CCCc2ccccc21)C(C)(C)C

> <Shape>
0.258

> <Color>
0.078

> <Negative vol penalty>
0.000

$$$$

  -OEChem-04052303593D

 84 92  0     1  0  0  0  0  0999 V2000
  -22.0591   -8.0115   20.7056 C   0  0  0  0  0  0  0  0  0  0  0  0
  -23.0835   -8.8679   20.3148 C   0  0  0  0  0  0  0  0  0  0  0  0
  -22.0118  -28.5263   20.8585 C   0  0  0  0  0  0  0  0  0  0  0  0
  -22.5846  -26.6668   22.2906 C   0  0  0  0  0  0  0  0  0  0  0  0
  -20.8455   -8.5352   21.1493 C   0  0  0  0  0  0  0  0  0  0  0  0
  -22.8945  -10.2485   20.3666 C   0  0  0  0  0  0  0  0  0  0  0  0
  -26.8578  -12.6779   22.3753 C   0  0  0  0  0  0  0  0  0  0  0  0
  -20.6778  -28.4178   21.2510 C   0  0  0  0  0  0  0  0  0  0  0  0
  -21.2505  -26.5583   22.6833 C   0  0  0  0  0  0  0  0  0  0  0  0
  -27.9699  -12.8682   21.5562 C   0  0  0  0  0  0  0  0  0  0  0  0
  -17.1838  -28.8615   22.1511 C   0  0  0  0  0  0  0  0  0  0  0  0
  -16.5050  -30.0366   22.4734 C   0  0  0  0  0  0  0  0  0  0  0  0
  -27.2640  -15.1361   21.1348 C   0  0  0  0  0  0  0  0  0  0  0  0
  -29.6770  -21.1077   18.1646 C   0  0  0  0  0  0  0  0  0  0  0  0
  -18.1032  -30.4777   24.2308 C   0  0  0  0  0  0  0  0  0  0  0  0
  -28.7149  -21.2514   20.1721 C   0  0  0  0  0  0  0  0  0  0  0  0
  -22.9652  -27.6508   21.3782 C   0  0  0  0  0  0  0  0  0  0  0  0
  -25.3482  -28.5389   21.5798 C   0  0  0  0  0  0  0  0  0  0  0  0
  -20.6449   -9.9230   21.2157 C   0  0  0  0  0  0  0  0  0  0  0  0
  -25.9331  -13.7137   22.5719 C   0  0  0  0  0  0  0  0  0  0  0  0
  -21.6766  -10.7911   20.8104 C   0  0  0  0  0  0  0  0  0  0  0  0
  -26.1424  -14.9573   21.9589 C   0  0  0  0  0  0  0  0  0  0  0  0
  -28.7931  -21.8829   18.9526 C   0  0  0  0  0  0  0  0  0  0  0  0
  -20.2971  -27.4338   22.1635 C   0  0  0  0  0  0  0  0  0  0  0  0
  -28.1716  -14.0965   20.9335 C   0  0  0  0  0  0  0  0  0  0  0  0
  -18.3222  -28.4944   22.8687 C   0  0  0  0  0  0  0  0  0  0  0  0
  -16.9647  -30.8447   23.5133 C   0  0  0  0  0  0  0  0  0  0  0  0
  -18.7819  -29.3025   23.9085 C   0  0  0  0  0  0  0  0  0  0  0  0
  -24.3434  -27.7620   20.9726 C   0  0  0  0  0  0  0  0  0  0  0  0
  -30.0760  -20.0579   18.9588 C   0  0  0  0  0  0  0  0  0  0  0  0
  -26.4699  -28.3010   20.8238 C   0  0  0  0  0  0  0  0  0  0  0  0
  -25.2742  -29.3985   22.7249 C   0  0  0  0  0  0  0  0  0  0  0  0
  -30.9910  -18.9172   18.6966 C   0  0  0  0  0  0  0  0  0  0  0  0
  -22.8401  -14.1067   21.9532 C   0  0  0  0  0  0  0  0  0  0  0  0
  -31.2770  -15.5673   19.7747 C   0  0  0  0  0  0  0  0  0  0  0  0
  -23.2633  -16.8747   23.5907 C   0  0  0  0  0  0  0  0  0  0  0  0
  -25.4003  -19.3131   24.6559 C   0  0  0  0  0  0  0  0  0  0  0  0
  -28.1682  -23.7351   17.3636 C   0  0  0  0  0  0  0  0  0  0  0  0
  -19.2994  -10.4416   21.6574 C   0  0  0  0  0  0  0  0  0  0  0  0
  -24.7529  -13.5009   23.4798 C   0  0  0  0  0  0  0  0  0  0  0  0
  -25.1901  -16.1077   22.1538 C   0  0  0  0  0  0  0  0  0  0  0  0
  -19.3112  -11.9201   22.0372 C   0  0  0  0  0  0  0  0  0  0  0  0
  -27.8107  -27.1372   16.3761 C   0  0  0  0  0  0  0  0  0  0  0  0
  -20.0539  -12.7360   20.9838 C   0  0  0  0  0  0  0  0  0  0  0  0
  -26.9775  -27.7556   17.5010 C   0  0  0  0  0  0  0  0  0  0  0  0
  -27.3771  -25.7045   16.0710 C   0  0  0  0  0  0  0  0  0  0  0  0
  -26.5041  -25.4256   18.3578 C   0  0  0  0  0  0  0  0  0  0  0  0
  -21.5185  -12.2947   20.8758 C   0  0  1  0  0  0  0  0  0  0  0  0
  -23.6019  -14.4620   23.1986 C   0  0  1  0  0  0  0  0  0  0  0  0
  -26.9469  -26.8461   18.7450 C   0  0  2  0  0  0  0  0  0  0  0  0
  -33.1424  -16.9716   20.7024 C   0  0  0  0  0  0  0  0  0  0  0  0
  -25.4472  -21.4666   25.9433 C   0  0  0  0  0  0  0  0  0  0  0  0
  -22.0575  -18.3301   21.1954 C   0  0  0  0  0  0  0  0  0  0  0  0
  -22.9884  -20.4656   22.1127 C   0  0  0  0  0  0  0  0  0  0  0  0
  -21.2990  -19.1793   23.4220 C   0  0  0  0  0  0  0  0  0  0  0  0
  -27.2325  -18.1911   26.6913 C   0  0  0  0  0  0  0  0  0  0  0  0
  -29.7861  -15.6073   20.0580 C   0  0  0  0  0  0  0  0  0  1  0  0
  -32.0433  -16.8846   19.6544 C   0  0  2  0  0  0  0  0  0  0  0  0
  -23.6555  -18.2853   23.2228 C   0  0  1  0  0  0  0  0  0  0  0  0
  -25.5977  -19.9551   26.0172 C   0  0  2  0  0  0  0  0  0  0  0  0
  -22.5172  -19.0430   22.4828 C   0  0  0  0  0  0  0  0  0  0  0  0
  -24.7876  -27.0817   19.9125 N   0  0  0  0  0  0  0  0  0  0  0  0
  -26.0838  -27.4304   19.8476 N   0  0  0  0  0  0  0  0  0  0  0  0
  -24.0478  -15.8484   23.0456 N   0  0  0  0  0  0  0  0  0  0  0  0
  -27.3760  -24.9007   17.2953 N   0  0  0  0  0  0  0  0  0  0  0  0
  -27.7390  -28.7539   20.9055 N   0  0  0  0  0  0  0  0  0  0  0  0
  -24.0443  -29.5286   23.3843 N   0  0  0  0  0  0  0  0  0  0  0  0
  -28.1119  -23.0707   18.5884 N   0  0  0  0  0  0  0  0  0  0  0  0
  -31.1702  -18.0246   19.7460 N   0  0  0  0  0  0  0  0  0  0  0  0
  -22.2922  -12.8383   21.9714 N   0  0  0  0  0  0  0  0  0  0  0  0
  -24.0922  -18.9234   24.4599 N   0  0  0  0  0  0  0  0  0  0  0  0
  -26.9562  -19.6434   26.5448 N   0  3  0  0  0  0  0  0  0  0  0  0
  -26.2652  -30.0453   23.1408 O   0  0  0  0  0  0  0  0  0  0  0  0
  -31.5452  -18.8314   17.6039 O   0  0  0  0  0  0  0  0  0  0  0  0
  -22.7545  -14.9235   21.0436 O   0  0  0  0  0  0  0  0  0  0  0  0
  -31.8565  -14.4931   19.5917 O   0  0  0  0  0  0  0  0  0  0  0  0
  -22.3010  -16.6905   24.3401 O   0  0  0  0  0  0  0  0  0  0  0  0
  -26.3142  -19.1747   23.8459 O   0  0  0  0  0  0  0  0  0  0  0  0
  -28.8677  -23.3694   16.4155 O   0  0  0  0  0  0  0  0  0  0  0  0
  -29.4941  -20.1382   20.1841 O   0  0  0  0  0  0  0  0  0  0  0  0
  -18.9955  -27.3278   22.5470 O   0  0  0  0  0  0  0  0  0  0  0  0
  -29.2559  -14.2846   20.1330 O   0  0  0  0  0  0  0  0  0  1  0  0
  -16.3136  -31.9740   23.8217 F   0  0  0  0  0  0  0  0  0  0  0  0
  -19.8758  -28.9557   24.6006 F   0  0  0  0  0  0  0  0  0  0  0  0
  1  2  1  0  0  0  0
  1  5  2  0  0  0  0
  2  6  2  0  0  0  0
  3  8  2  0  0  0  0
  3 17  1  0  0  0  0
  4  9  1  0  0  0  0
  4 17  2  0  0  0  0
  5 19  1  0  0  0  0
  6 21  1  0  0  0  0
  7 10  2  0  0  0  0
  7 20  1  0  0  0  0
  8 24  1  0  0  0  0
  9 24  2  0  0  0  0
 10 25  1  0  0  0  0
 11 12  2  0  0  0  0
 11 26  1  0  0  0  0
 12 27  1  0  0  0  0
 13 22  1  0  0  0  0
 13 25  2  0  0  0  0
 14 23  1  0  0  0  0
 14 30  2  0  0  0  0
 15 27  2  0  0  0  0
 15 28  1  0  0  0  0
 16 23  2  0  0  0  0
 16 80  1  0  0  0  0
 17 29  1  0  0  0  0
 18 29  1  0  0  0  0
 18 31  2  0  0  0  0
 18 32  1  0  0  0  0
 19 21  2  0  0  0  0
 19 39  1  0  0  0  0
 20 22  2  0  0  0  0
 20 40  1  0  0  0  0
 21 48  1  0  0  0  0
 22 41  1  0  0  0  0
 23 68  1  0  0  0  0
 24 81  1  0  0  0  0
 25 82  1  0  0  0  0
 26 28  2  0  0  0  0
 26 81  1  0  0  0  0
 27 83  1  0  0  0  0
 28 84  1  0  0  0  0
 29 62  2  0  0  0  0
 30 33  1  0  0  0  0
 30 80  1  0  0  0  0
 31 63  1  0  0  0  0
 31 66  1  0  0  0  0
 32 67  1  0  0  0  0
 32 73  2  0  0  0  0
 33 69  1  0  0  0  0
 33 74  2  0  0  0  0
 34 49  1  0  0  0  0
 34 70  1  0  0  0  0
 34 75  2  0  0  0  0
 35 57  1  0  0  0  0
 35 58  1  0  0  0  0
 35 76  2  0  0  0  0
 36 59  1  0  0  0  0
 36 64  1  0  0  0  0
 36 77  2  0  0  0  0
 37 60  1  0  0  0  0
 37 71  1  0  0  0  0
 37 78  2  0  0  0  0
 38 65  1  0  0  0  0
 38 68  1  0  0  0  0
 38 79  2  0  0  0  0
 39 42  1  0  0  0  0
 40 49  1  0  0  0  0
 41 64  1  0  0  0  0
 42 44  1  0  0  0  0
 43 45  1  0  0  0  0
 43 46  1  0  0  0  0
 44 48  1  0  0  0  0
 45 50  1  0  0  0  0
 46 65  1  0  0  0  0
 47 50  1  0  0  0  0
 47 65  1  0  0  0  0
 48 70  1  0  0  0  0
 49 64  1  0  0  0  0
 50 63  1  0  0  0  0
 51 58  1  0  0  0  0
 52 60  1  0  0  0  0
 53 61  1  0  0  0  0
 54 61  1  0  0  0  0
 55 61  1  0  0  0  0
 56 72  1  0  0  0  0
 57 82  1  0  0  0  0
 58 69  1  0  0  0  0
 59 61  1  0  0  0  0
 59 71  1  0  0  0  0
 60 72  1  0  0  0  0
 62 63  1  0  0  0  0
M  CHG  1  72   1
M  ISO  4  38 100  57 101  68 100  82 101
M  END
> <Batch ID>
0163

> <Smiles>
CNC(C)C(=O)NC(C(=O)N1Cc2cc([101O:1][101CH2:1]C(=O)C(C)NC(=O)c3cc([100NH:0][100C:0](=O)N4CCCC(n5nc(-c6ccc(Oc7ccc(F)cc7F)cc6)c(C(N)=O)c5N)C4)co3)ccc2CC1C(=O)NC1CCCc2ccccc21)C(C)(C)C

> <Shape>
0.225

> <Color>
0.088

> <Negative vol penalty>
0.000

$$$$

  -OEChem-04052303593D

 84 92  0     1  0  0  0  0  0999 V2000
  -32.0275  -13.7412   21.4131 C   0  0  0  0  0  0  0  0  0  0  0  0
  -31.3387  -14.9404   21.5648 C   0  0  0  0  0  0  0  0  0  0  0  0
  -21.3025  -26.6282   27.6630 C   0  0  0  0  0  0  0  0  0  0  0  0
  -27.5576  -25.2033   20.6455 C   0  0  0  0  0  0  0  0  0  0  0  0
  -27.6967  -25.9453   18.3505 C   0  0  0  0  0  0  0  0  0  0  0  0
  -20.5563  -27.1719   26.6175 C   0  0  0  0  0  0  0  0  0  0  0  0
  -31.4206  -12.6675   20.7630 C   0  0  0  0  0  0  0  0  0  0  0  0
  -30.0429  -15.0668   21.0656 C   0  0  0  0  0  0  0  0  0  0  0  0
  -26.9085  -17.3175   24.3450 C   0  0  0  0  0  0  0  0  0  0  0  0
  -22.3377  -25.7341   27.3897 C   0  0  0  0  0  0  0  0  0  0  0  0
  -28.3188  -24.0785   20.3280 C   0  0  0  0  0  0  0  0  0  0  0  0
  -28.4581  -24.8205   18.0330 C   0  0  0  0  0  0  0  0  0  0  0  0
  -26.9930  -18.7046   24.4569 C   0  0  0  0  0  0  0  0  0  0  0  0
  -27.8302  -21.0748   18.8571 C   0  0  0  0  0  0  0  0  0  0  0  0
  -27.4023  -19.8428   19.3518 C   0  0  0  0  0  0  0  0  0  0  0  0
  -21.8804  -25.9273   25.0253 C   0  0  0  0  0  0  0  0  0  0  0  0
  -25.0638  -18.9314   23.0264 C   0  0  0  0  0  0  0  0  0  0  0  0
  -29.4921  -19.5934   20.5384 C   0  0  0  0  0  0  0  0  0  0  0  0
  -27.2464  -26.1367   19.6567 C   0  0  0  0  0  0  0  0  0  0  0  0
  -20.8452  -26.8215   25.2986 C   0  0  0  0  0  0  0  0  0  0  0  0
  -26.9331  -28.5514   20.4175 C   0  0  0  0  0  0  0  0  0  0  0  0
  -30.1131  -12.7776   20.2641 C   0  0  0  0  0  0  0  0  0  0  0  0
  -25.9060  -16.7262   23.5629 C   0  0  0  0  0  0  0  0  0  0  0  0
  -29.4184  -13.9939   20.4071 C   0  0  0  0  0  0  0  0  0  0  0  0
  -24.9673  -17.5365   22.9083 C   0  0  0  0  0  0  0  0  0  0  0  0
  -22.6266  -25.3836   26.0709 C   0  0  0  0  0  0  0  0  0  0  0  0
  -28.7691  -23.8871   19.0218 C   0  0  0  0  0  0  0  0  0  0  0  0
  -26.0723  -19.5119   23.7953 C   0  0  0  0  0  0  0  0  0  0  0  0
  -29.0891  -21.5661   19.2030 C   0  0  0  0  0  0  0  0  0  0  0  0
  -28.2332  -19.1021   20.1925 C   0  0  0  0  0  0  0  0  0  0  0  0
  -29.9200  -20.8254   20.0436 C   0  0  0  0  0  0  0  0  0  0  0  0
  -26.4596  -27.2985   19.9840 C   0  0  0  0  0  0  0  0  0  0  0  0
  -25.7986  -29.3057   20.5917 C   0  0  0  0  0  0  0  0  0  0  0  0
  -20.0508  -27.4006   24.1849 C   0  0  0  0  0  0  0  0  0  0  0  0
  -28.2783  -28.9937   20.6426 C   0  0  0  0  0  0  0  0  0  0  0  0
  -25.8760  -14.8762   20.9783 C   0  0  0  0  0  0  0  0  0  0  0  0
  -25.0130  -22.8862   24.6045 C   0  0  0  0  0  0  0  0  0  0  0  0
  -22.6874  -14.7749   21.5653 C   0  0  0  0  0  0  0  0  0  0  0  0
  -19.9549  -16.2452   22.9859 C   0  0  0  0  0  0  0  0  0  0  0  0
  -20.1300  -27.9665   21.7772 C   0  0  0  0  0  0  0  0  0  0  0  0
  -29.5162  -11.6050   19.5270 C   0  0  0  0  0  0  0  0  0  0  0  0
  -25.8123  -15.2277   23.4740 C   0  0  0  0  0  0  0  0  0  0  0  0
  -23.8597  -16.9506   22.0726 C   0  0  0  0  0  0  0  0  0  0  0  0
  -28.0020  -11.6988   19.3577 C   0  0  0  0  0  0  0  0  0  0  0  0
  -21.3117  -29.7538   18.9654 C   0  0  0  0  0  0  0  0  0  0  0  0
  -27.6037  -13.0910   18.8782 C   0  0  0  0  0  0  0  0  0  0  0  0
  -22.8135  -29.4557   18.9531 C   0  0  0  0  0  0  0  0  0  0  0  0
  -20.4948  -28.5349   19.3919 C   0  0  0  0  0  0  0  0  0  0  0  0
  -22.4079  -27.6205   20.6417 C   0  0  0  0  0  0  0  0  0  0  0  0
  -28.0021  -14.1617   19.9011 C   0  0  1  0  0  0  0  0  0  0  0  0
  -25.0623  -14.7483   22.2350 C   0  0  1  0  0  0  0  0  0  0  0  0
  -23.2783  -28.8368   20.2866 C   0  0  1  0  0  0  0  0  0  0  0  0
  -17.4790  -15.9461   23.2655 C   0  0  0  0  0  0  0  0  0  0  0  0
  -22.2550  -15.6809   18.6839 C   0  0  0  0  0  0  0  0  0  0  0  0
  -19.9006  -16.2722   19.2967 C   0  0  0  0  0  0  0  0  0  0  0  0
  -20.6756  -13.9073   19.4680 C   0  0  0  0  0  0  0  0  0  0  0  0
  -20.1873  -16.1065   25.9330 C   0  0  0  0  0  0  0  0  0  0  0  0
  -23.7755  -23.7576   24.5670 C   0  0  0  0  0  0  0  0  0  0  0  0
  -24.9320  -21.5989   23.8073 C   0  0  0  0  0  0  0  0  0  1  0  0
  -21.4971  -15.6059   21.1509 C   0  0  1  0  0  0  0  0  0  0  0  0
  -18.8518  -15.6840   23.8650 C   0  0  2  0  0  0  0  0  0  0  0  0
  -21.1040  -15.3780   19.6640 C   0  0  0  0  0  0  0  0  0  0  0  0
  -25.1280  -27.2554   19.8887 N   0  0  0  0  0  0  0  0  0  0  0  0
  -24.7552  -28.4905   20.2650 N   0  0  0  0  0  0  0  0  0  0  0  0
  -23.8139  -15.4803   22.0115 N   0  0  0  0  0  0  0  0  0  0  0  0
  -20.9913  -28.0149   20.6672 N   0  0  0  0  0  0  0  0  0  0  0  0
  -25.6018  -30.5801   20.9911 N   0  0  0  0  0  0  0  0  0  0  0  0
  -29.3255  -28.0906   20.4149 N   0  0  0  0  0  0  0  0  0  0  0  0
  -23.6563  -24.4942   25.7992 N   0  0  0  0  0  0  0  0  0  0  0  0
  -20.7108  -27.4940   22.9593 N   0  0  0  0  0  0  0  0  0  0  0  0
  -27.0678  -14.1774   21.0062 N   0  0  0  0  0  0  0  0  0  0  0  0
  -20.4349  -15.3008   22.1033 N   0  0  0  0  0  0  0  0  0  0  0  0
  -18.9005  -16.3067   25.2180 N   0  3  0  0  0  0  0  0  0  0  0  0
  -18.8819  -27.7184   24.3863 O   0  0  0  0  0  0  0  0  0  0  0  0
  -28.5427  -30.1504   21.0498 O   0  0  0  0  0  0  0  0  0  0  0  0
  -25.4532  -15.5571   20.0514 O   0  0  0  0  0  0  0  0  0  0  0  0
  -26.0231  -23.1920   25.2369 O   0  0  0  0  0  0  0  0  0  0  0  0
  -22.6176  -13.5449   21.5023 O   0  0  0  0  0  0  0  0  0  0  0  0
  -20.3485  -17.4064   23.0709 O   0  0  0  0  0  0  0  0  0  0  0  0
  -18.9560  -28.3469   21.7301 O   0  0  0  0  0  0  0  0  0  0  0  0
  -29.5122  -22.7897   18.7117 O   0  0  0  0  0  0  0  0  0  0  0  0
  -26.1528  -20.8661   23.9023 O   0  0  0  0  0  0  0  0  0  1  0  0
  -27.8215  -17.9198   20.6687 F   0  0  0  0  0  0  0  0  0  0  0  0
  -31.1300  -21.2927   20.3804 F   0  0  0  0  0  0  0  0  0  0  0  0
  1  2  1  0  0  0  0
  1  7  2  0  0  0  0
  2  8  2  0  0  0  0
  3  6  1  0  0  0  0
  3 10  2  0  0  0  0
  4 11  2  0  0  0  0
  4 19  1  0  0  0  0
  5 12  1  0  0  0  0
  5 19  2  0  0  0  0
  6 20  2  0  0  0  0
  7 22  1  0  0  0  0
  8 24  1  0  0  0  0
  9 13  2  0  0  0  0
  9 23  1  0  0  0  0
 10 26  1  0  0  0  0
 11 27  1  0  0  0  0
 12 27  2  0  0  0  0
 13 28  1  0  0  0  0
 14 15  2  0  0  0  0
 14 29  1  0  0  0  0
 15 30  1  0  0  0  0
 16 20  1  0  0  0  0
 16 26  2  0  0  0  0
 17 25  1  0  0  0  0
 17 28  2  0  0  0  0
 18 30  2  0  0  0  0
 18 31  1  0  0  0  0
 19 32  1  0  0  0  0
 20 34  1  0  0  0  0
 21 32  1  0  0  0  0
 21 33  2  0  0  0  0
 21 35  1  0  0  0  0
 22 24  2  0  0  0  0
 22 41  1  0  0  0  0
 23 25  2  0  0  0  0
 23 42  1  0  0  0  0
 24 50  1  0  0  0  0
 25 43  1  0  0  0  0
 26 69  1  0  0  0  0
 27 81  1  0  0  0  0
 28 82  1  0  0  0  0
 29 31  2  0  0  0  0
 29 81  1  0  0  0  0
 30 83  1  0  0  0  0
 31 84  1  0  0  0  0
 32 63  2  0  0  0  0
 33 64  1  0  0  0  0
 33 67  1  0  0  0  0
 34 70  1  0  0  0  0
 34 74  2  0  0  0  0
 35 68  1  0  0  0  0
 35 75  2  0  0  0  0
 36 51  1  0  0  0  0
 36 71  1  0  0  0  0
 36 76  2  0  0  0  0
 37 58  1  0  0  0  0
 37 59  1  0  0  0  0
 37 77  2  0  0  0  0
 38 60  1  0  0  0  0
 38 65  1  0  0  0  0
 38 78  2  0  0  0  0
 39 61  1  0  0  0  0
 39 72  1  0  0  0  0
 39 79  2  0  0  0  0
 40 66  1  0  0  0  0
 40 70  1  0  0  0  0
 40 80  2  0  0  0  0
 41 44  1  0  0  0  0
 42 51  1  0  0  0  0
 43 65  1  0  0  0  0
 44 46  1  0  0  0  0
 45 47  1  0  0  0  0
 45 48  1  0  0  0  0
 46 50  1  0  0  0  0
 47 52  1  0  0  0  0
 48 66  1  0  0  0  0
 49 52  1  0  0  0  0
 49 66  1  0  0  0  0
 50 71  1  0  0  0  0
 51 65  1  0  0  0  0
 52 64  1  0  0  0  0
 53 61  1  0  0  0  0
 54 62  1  0  0  0  0
 55 62  1  0  0  0  0
 56 62  1  0  0  0  0
 57 73  1  0  0  0  0
 58 69  1  0  0  0  0
 59 82  1  0  0  0  0
 60 62  1  0  0  0  0
 60 72  1  0  0  0  0
 61 73  1  0  0  0  0
 63 64  1  0  0  0  0
M  CHG  1  73   1
M  ISO  4  40 100  59 101  70 100  82 101
M  END
> <Batch ID>
0163

> <Smiles>
CNC(C)C(=O)NC(C(=O)N1Cc2cc([101O:1][101CH2:1]C(=O)CNc3cccc(C(=O)[100NH:0][100C:0](=O)N4CCCC(n5nc(-c6ccc(Oc7ccc(F)cc7F)cc6)c(C(N)=O)c5N)C4)c3)ccc2CC1C(=O)NC1CCCc2ccccc21)C(C)(C)C

> <Shape>
0.225

> <Color>
0.066

> <Negative vol penalty>
0.000

$$$$

  -OEChem-04052303593D

 83 91  0     1  0  0  0  0  0999 V2000
  -26.9675  -21.3741   28.2937 C   0  0  0  0  0  0  0  0  0  0  0  0
  -27.4768  -22.5269   27.7065 C   0  0  0  0  0  0  0  0  0  0  0  0
  -25.6478  -13.0195   22.0630 C   0  0  0  0  0  0  0  0  0  0  0  0
  -26.0798  -13.5672   19.7499 C   0  0  0  0  0  0  0  0  0  0  0  0
  -25.8147  -20.7851   27.7787 C   0  0  0  0  0  0  0  0  0  0  0  0
  -26.8268  -23.0976   26.6117 C   0  0  0  0  0  0  0  0  0  0  0  0
  -28.3595  -27.8630   23.1376 C   0  0  0  0  0  0  0  0  0  0  0  0
  -24.6043  -12.1816   21.6698 C   0  0  0  0  0  0  0  0  0  0  0  0
  -25.0364  -12.7292   19.3566 C   0  0  0  0  0  0  0  0  0  0  0  0
  -29.0674  -28.0915   21.9584 C   0  0  0  0  0  0  0  0  0  0  0  0
  -24.2539   -9.0678   20.3991 C   0  0  0  0  0  0  0  0  0  0  0  0
  -24.1722   -7.8101   20.9967 C   0  0  0  0  0  0  0  0  0  0  0  0
  -26.9966  -28.0856   20.7211 C   0  0  0  0  0  0  0  0  0  0  0  0
  -21.9792   -8.3579   21.8497 C   0  0  0  0  0  0  0  0  0  0  0  0
  -26.3855  -13.7124   21.1031 C   0  0  0  0  0  0  0  0  0  0  0  0
  -28.8163  -14.2296   21.6787 C   0  0  0  0  0  0  0  0  0  0  0  0
  -25.1579  -21.3425   26.6692 C   0  0  0  0  0  0  0  0  0  0  0  0
  -26.9634  -27.7330   23.1158 C   0  0  0  0  0  0  0  0  0  0  0  0
  -25.6485  -22.5315   26.0922 C   0  0  0  0  0  0  0  0  0  0  0  0
  -26.2730  -27.8580   21.9017 C   0  0  0  0  0  0  0  0  0  0  0  0
  -24.2986  -12.0364   20.3166 C   0  0  0  0  0  0  0  0  0  0  0  0
  -28.3862  -28.2000   20.7496 C   0  0  0  0  0  0  0  0  0  0  0  0
  -23.1983   -9.9706   20.5269 C   0  0  0  0  0  0  0  0  0  0  0  0
  -23.0349   -7.4551   21.7219 C   0  0  0  0  0  0  0  0  0  0  0  0
  -22.0610   -9.6157   21.2522 C   0  0  0  0  0  0  0  0  0  0  0  0
  -27.4631  -14.5786   21.5088 C   0  0  0  0  0  0  0  0  0  0  0  0
  -29.2360  -23.3502   17.5863 C   0  0  0  0  0  0  0  0  0  0  0  0
  -29.4258  -15.3972   22.0681 C   0  0  0  0  0  0  0  0  0  0  0  0
  -29.2499  -22.3749   16.6113 C   0  0  0  0  0  0  0  0  0  0  0  0
  -28.6721  -21.6334   18.8291 C   0  0  0  0  0  0  0  0  0  0  0  0
  -29.4645  -12.9632   21.5003 C   0  0  0  0  0  0  0  0  0  0  0  0
  -29.5491  -24.7897   17.3452 C   0  0  0  0  0  0  0  0  0  0  0  0
  -24.9140  -25.4204   23.8611 C   0  0  0  0  0  0  0  0  0  0  0  0
  -22.7051  -27.7218   23.2727 C   0  0  0  0  0  0  0  0  0  0  0  0
  -21.9141  -30.6428   21.6950 C   0  0  0  0  0  0  0  0  0  0  0  0
  -28.1043  -21.1653   21.2384 C   0  0  0  0  0  0  0  0  0  0  0  0
  -23.9095  -20.6681   26.1575 C   0  0  0  0  0  0  0  0  0  0  0  0
  -26.2120  -27.5133   24.4002 C   0  0  0  0  0  0  0  0  0  0  0  0
  -24.7729  -27.7464   21.8274 C   0  0  0  0  0  0  0  0  0  0  0  0
  -23.5476  -21.0868   24.7362 C   0  0  0  0  0  0  0  0  0  0  0  0
  -28.5295  -19.5057   24.3597 C   0  0  0  0  0  0  0  0  0  0  0  0
  -23.5675  -22.6036   24.6202 C   0  0  0  0  0  0  0  0  0  0  0  0
  -28.4335  -18.0219   23.9973 C   0  0  0  0  0  0  0  0  0  0  0  0
  -27.5719  -20.3560   23.5268 C   0  0  0  0  0  0  0  0  0  0  0  0
  -27.5878  -18.6905   21.7116 C   0  0  0  0  0  0  0  0  0  0  0  0
  -24.9757  -23.1528   24.8816 C   0  0  1  0  0  0  0  0  0  0  0  0
  -24.8381  -26.8848   24.1887 C   0  0  1  0  0  0  0  0  0  0  0  0
  -28.5804  -17.8019   22.4789 C   0  0  2  0  0  0  0  0  0  0  0  0
  -20.0208  -32.2582   21.3739 C   0  0  0  0  0  0  0  0  0  0  0  0
  -31.3709  -29.0662   19.3286 C   0  0  0  0  0  0  0  0  0  0  0  0
  -21.3756  -25.7748   21.3358 C   0  0  0  0  0  0  0  0  0  0  0  0
  -20.1137  -27.7084   20.3677 C   0  0  0  0  0  0  0  0  0  0  0  0
  -19.7859  -27.0792   22.7592 C   0  0  0  0  0  0  0  0  0  0  0  0
  -23.4478  -32.8618   22.9126 C   0  0  0  0  0  0  0  0  0  0  0  0
  -29.4940  -25.7559   18.5195 C   0  0  0  0  0  0  0  0  0  0  0  0
  -30.4925  -26.9088   18.3665 C   0  0  0  0  0  0  0  0  0  0  0  0
  -21.9457  -28.1883   22.0542 C   0  0  1  0  0  0  0  0  0  0  0  0
  -21.2508  -31.9120   22.1985 C   0  0  2  0  0  0  0  0  0  0  0  0
  -30.4034  -27.9066   19.5245 C   0  0  2  0  0  0  0  0  0  1  0  0
  -20.8337  -27.1879   21.6300 C   0  0  0  0  0  0  0  0  0  0  0  0
  -27.2263  -15.8670   21.7691 N   0  0  0  0  0  0  0  0  0  0  0  0
  -28.9045  -22.9269   18.8586 N   0  0  0  0  0  0  0  0  0  0  0  0
  -28.4389  -16.3379   22.1066 N   0  0  0  0  0  0  0  0  0  0  0  0
  -24.0837  -27.5252   23.1094 N   0  0  0  0  0  0  0  0  0  0  0  0
  -27.7714  -20.0979   22.0990 N   0  0  0  0  0  0  0  0  0  0  0  0
  -30.7041  -15.7008   22.3780 N   0  0  0  0  0  0  0  0  0  0  0  0
  -29.5361  -22.5092   15.2929 N   0  0  0  0  0  0  0  0  0  0  0  0
  -28.6898  -11.8671   21.0969 N   0  0  0  0  0  0  0  0  0  0  0  0
  -28.3016  -20.7940   19.9089 N   0  0  0  0  0  0  0  0  0  0  0  0
  -24.9110  -24.5950   24.9694 N   0  0  0  0  0  0  0  0  0  0  0  0
  -21.4578  -29.5275   22.3653 N   0  0  0  0  0  0  0  0  0  0  0  0
  -22.2020  -33.0570   22.1271 N   0  3  0  0  0  0  0  0  0  0  0  0
  -30.6912  -12.8044   21.7089 O   0  0  0  0  0  0  0  0  0  0  0  0
  -29.8394  -25.1584   16.2094 O   0  0  0  0  0  0  0  0  0  0  0  0
  -24.9696  -25.0654   22.6895 O   0  0  0  0  0  0  0  0  0  0  0  0
  -22.0987  -27.5454   24.3323 O   0  0  0  0  0  0  0  0  0  0  0  0
  -22.7505  -30.6404   20.7944 O   0  0  0  0  0  0  0  0  0  0  0  0
  -28.2336  -22.3191   21.6556 O   0  0  0  0  0  0  0  0  0  0  0  0
  -23.2807  -11.2186   19.9325 O   0  0  0  0  0  0  0  0  0  0  0  0
  -29.0748  -28.4223   19.5971 O   0  0  0  0  0  0  0  0  0  1  0  0
  -22.9559   -6.2467   22.2944 F   0  0  0  0  0  0  0  0  0  0  0  0
  -21.0432  -10.4783   21.3775 F   0  0  0  0  0  0  0  0  0  0  0  0
  -28.8344  -20.8623   17.3046 S   0  0  0  0  0  0  0  0  0  0  0  0
  1  2  1  0  0  0  0
  1  5  2  0  0  0  0
  2  6  2  0  0  0  0
  3  8  2  0  0  0  0
  3 15  1  0  0  0  0
  4  9  1  0  0  0  0
  4 15  2  0  0  0  0
  5 17  1  0  0  0  0
  6 19  1  0  0  0  0
  7 10  2  0  0  0  0
  7 18  1  0  0  0  0
  8 21  1  0  0  0  0
  9 21  2  0  0  0  0
 10 22  1  0  0  0  0
 11 12  2  0  0  0  0
 11 23  1  0  0  0  0
 12 24  1  0  0  0  0
 13 20  1  0  0  0  0
 13 22  2  0  0  0  0
 14 24  2  0  0  0  0
 14 25  1  0  0  0  0
 15 26  1  0  0  0  0
 16 26  1  0  0  0  0
 16 28  2  0  0  0  0
 16 31  1  0  0  0  0
 17 19  2  0  0  0  0
 17 37  1  0  0  0  0
 18 20  2  0  0  0  0
 18 38  1  0  0  0  0
 19 46  1  0  0  0  0
 20 39  1  0  0  0  0
 21 79  1  0  0  0  0
 22 80  1  0  0  0  0
 23 25  2  0  0  0  0
 23 79  1  0  0  0  0
 24 81  1  0  0  0  0
 25 82  1  0  0  0  0
 26 61  2  0  0  0  0
 27 29  2  0  0  0  0
 27 32  1  0  0  0  0
 27 62  1  0  0  0  0
 28 63  1  0  0  0  0
 28 66  1  0  0  0  0
 29 67  1  0  0  0  0
 29 83  1  0  0  0  0
 30 62  2  0  0  0  0
 30 69  1  0  0  0  0
 30 83  1  0  0  0  0
 31 68  1  0  0  0  0
 31 73  2  0  0  0  0
 32 55  1  0  0  0  0
 32 74  2  0  0  0  0
 33 47  1  0  0  0  0
 33 70  1  0  0  0  0
 33 75  2  0  0  0  0
 34 57  1  0  0  0  0
 34 64  1  0  0  0  0
 34 76  2  0  0  0  0
 35 58  1  0  0  0  0
 35 71  1  0  0  0  0
 35 77  2  0  0  0  0
 36 65  1  0  0  0  0
 36 69  1  0  0  0  0
 36 78  2  0  0  0  0
 37 40  1  0  0  0  0
 38 47  1  0  0  0  0
 39 64  1  0  0  0  0
 40 42  1  0  0  0  0
 41 43  1  0  0  0  0
 41 44  1  0  0  0  0
 42 46  1  0  0  0  0
 43 48  1  0  0  0  0
 44 65  1  0  0  0  0
 45 48  1  0  0  0  0
 45 65  1  0  0  0  0
 46 70  1  0  0  0  0
 47 64  1  0  0  0  0
 48 63  1  0  0  0  0
 49 58  1  0  0  0  0
 50 59  1  0  0  0  0
 51 60  1  0  0  0  0
 52 60  1  0  0  0  0
 53 60  1  0  0  0  0
 54 72  1  0  0  0  0
 55 56  1  0  0  0  0
 56 59  1  0  0  0  0
 57 60  1  0  0  0  0
 57 71  1  0  0  0  0
 58 72  1  0  0  0  0
 59 80  1  0  0  0  0
 61 63  1  0  0  0  0
M  CHG  1  72   1
M  ISO  4  36 100  59 101  69 100  80 101
M  END
> <Batch ID>
0163

> <Smiles>
CNC(C)C(=O)NC(C(=O)N1Cc2cc([101O:1][101CH:1](C)CCC(=O)c3nc([100NH:0][100C:0](=O)N4CCCC(n5nc(-c6ccc(Oc7ccc(F)cc7F)cc6)c(C(N)=O)c5N)C4)sc3N)ccc2CC1C(=O)NC1CCCc2ccccc21)C(C)(C)C

> <Shape>
0.235

> <Color>
0.068

> <Negative vol penalty>
0.000

$$$$

  -OEChem-04052303593D

 89 97  0     1  0  0  0  0  0999 V2000
  -17.4691  -12.8183   23.3153 C   0  0  0  0  0  0  0  0  0  0  0  0
  -18.0619  -14.0246   22.9563 C   0  0  0  0  0  0  0  0  0  0  0  0
  -23.0409  -26.3709   22.6424 C   0  0  0  0  0  0  0  0  0  0  0  0
  -22.2834  -27.9581   20.9858 C   0  0  0  0  0  0  0  0  0  0  0  0
  -18.2581  -11.7654   23.7766 C   0  0  0  0  0  0  0  0  0  0  0  0
  -19.4439  -14.1790   23.0593 C   0  0  0  0  0  0  0  0  0  0  0  0
  -23.0693  -17.4462   19.3596 C   0  0  0  0  0  0  0  0  0  0  0  0
  -21.7336  -26.2338   23.1088 C   0  0  0  0  0  0  0  0  0  0  0  0
  -20.9760  -27.8209   21.4522 C   0  0  0  0  0  0  0  0  0  0  0  0
  -23.6114  -18.7261   19.4684 C   0  0  0  0  0  0  0  0  0  0  0  0
  -19.1225  -28.9578   24.0412 C   0  0  0  0  0  0  0  0  0  0  0  0
  -18.3748  -30.1208   24.2254 C   0  0  0  0  0  0  0  0  0  0  0  0
  -25.6543  -17.7806   20.3355 C   0  0  0  0  0  0  0  0  0  0  0  0
  -16.7464  -29.3271   22.6267 C   0  0  0  0  0  0  0  0  0  0  0  0
  -30.0128  -26.5907   20.4247 C   0  0  0  0  0  0  0  0  0  0  0  0
  -31.2965  -26.0293   22.1716 C   0  0  0  0  0  0  0  0  0  0  0  0
  -23.3159  -27.2331   21.5809 C   0  0  0  0  0  0  0  0  0  0  0  0
  -29.9692  -27.6365   21.3200 C   0  0  0  0  0  0  0  0  0  0  0  0
  -25.2926  -26.6208   20.0891 C   0  0  0  0  0  0  0  0  0  0  0  0
  -19.6515  -11.9037   23.8762 C   0  0  0  0  0  0  0  0  0  0  0  0
  -23.8129  -16.3228   19.7488 C   0  0  0  0  0  0  0  0  0  0  0  0
  -20.2521  -13.1273   23.5236 C   0  0  0  0  0  0  0  0  0  0  0  0
  -25.1203  -16.4873   20.2282 C   0  0  0  0  0  0  0  0  0  0  0  0
  -30.7812  -27.2813   22.4253 C   0  0  0  0  0  0  0  0  0  0  0  0
  -20.7011  -26.9588   22.5138 C   0  0  0  0  0  0  0  0  0  0  0  0
  -24.9030  -18.8936   19.9591 C   0  0  0  0  0  0  0  0  0  0  0  0
  -18.6822  -27.9795   23.1497 C   0  0  0  0  0  0  0  0  0  0  0  0
  -17.1868  -30.3055   23.5182 C   0  0  0  0  0  0  0  0  0  0  0  0
  -17.4942  -28.1641   22.4425 C   0  0  0  0  0  0  0  0  0  0  0  0
  -24.6662  -27.3756   21.0989 C   0  0  0  0  0  0  0  0  0  0  0  0
  -26.5607  -27.1420   20.0074 C   0  0  0  0  0  0  0  0  0  0  0  0
  -29.2191  -28.8429   21.1154 C   0  0  0  0  0  0  0  0  0  0  0  0
  -24.7744  -25.5448   19.2958 C   0  0  0  0  0  0  0  0  0  0  0  0
  -23.4624  -14.0516   21.9448 C   0  0  0  0  0  0  0  0  0  0  0  0
  -29.8917  -23.4422   20.1063 C   0  0  0  0  0  0  0  0  0  0  0  0
  -26.0823  -12.7957   20.5021 C   0  0  0  0  0  0  0  0  0  0  0  0
  -27.1959  -21.6881   20.6671 C   0  0  0  0  0  0  0  0  0  0  0  0
  -28.8739  -13.3119   18.6081 C   0  0  0  0  0  0  0  0  0  0  0  0
  -30.4984  -29.3348   23.8375 C   0  0  0  0  0  0  0  0  0  0  0  0
  -20.4578  -10.7533   24.4250 C   0  0  0  0  0  0  0  0  0  0  0  0
  -23.2236  -14.9470   19.6002 C   0  0  0  0  0  0  0  0  0  0  0  0
  -25.9675  -15.3123   20.6405 C   0  0  0  0  0  0  0  0  0  0  0  0
  -21.9545  -10.8725   24.1497 C   0  0  0  0  0  0  0  0  0  0  0  0
  -28.7117  -31.3825   21.3260 C   0  0  0  0  0  0  0  0  0  0  0  0
  -22.4471  -12.2787   24.4763 C   0  0  0  0  0  0  0  0  0  0  0  0
  -27.4991  -30.5186   20.9845 C   0  0  0  0  0  0  0  0  0  0  0  0
  -29.1983  -31.1375   22.7511 C   0  0  0  0  0  0  0  0  0  0  0  0
  -28.2816  -28.8357   22.6982 C   0  0  0  0  0  0  0  0  0  0  0  0
  -21.7506  -13.3251   23.5979 C   0  0  1  0  0  0  0  0  0  0  0  0
  -23.8822  -13.9135   20.5087 C   0  0  1  0  0  0  0  0  0  0  0  0
  -27.7970  -29.0345   21.2542 C   0  0  1  0  0  0  0  0  0  0  0  0
  -29.0083  -29.3191   19.6980 C   0  0  0  0  0  0  0  0  0  0  0  0
  -31.8863  -24.5035   18.9637 C   0  0  0  0  0  0  0  0  0  0  0  0
  -30.8392  -12.1000   17.6251 C   0  0  0  0  0  0  0  0  0  0  0  0
  -27.3995  -12.7055   23.2529 C   0  0  0  0  0  0  0  0  0  0  0  0
  -29.6066  -12.4071   22.1093 C   0  0  0  0  0  0  0  0  0  0  0  0
  -27.8170  -10.6918   21.8298 C   0  0  0  0  0  0  0  0  0  0  0  0
  -32.1198  -27.6119   24.4964 C   0  0  0  0  0  0  0  0  0  0  0  0
  -28.0704  -14.0096   15.8465 C   0  0  0  0  0  0  0  0  0  0  0  0
  -29.1312  -23.0833   21.3694 C   0  0  0  0  0  0  0  0  0  0  0  0
  -26.7631  -20.2402   20.5777 C   0  0  0  0  0  0  0  0  0  1  0  0
  -31.1476  -24.2972   20.2881 C   0  0  1  0  0  0  0  0  0  0  0  0
  -27.5741  -12.9340   20.6871 C   0  0  1  0  0  0  0  0  0  0  0  0
  -29.4155  -12.5816   17.3925 C   0  0  2  0  0  0  0  0  0  0  0  0
  -28.0829  -12.2071   21.9639 C   0  0  0  0  0  0  0  0  0  0  0  0
  -25.4703  -28.3055   21.6214 N   0  0  0  0  0  0  0  0  0  0  0  0
  -30.8229  -25.6195   20.9526 N   0  0  0  0  0  0  0  0  0  0  0  0
  -26.6149  -28.1383   20.9372 N   0  0  0  0  0  0  0  0  0  0  0  0
  -25.3444  -13.9878   20.4823 N   0  0  0  0  0  0  0  0  0  0  0  0
  -29.4203  -29.7143   23.0118 N   0  0  0  0  0  0  0  0  0  0  0  0
  -27.6236  -26.8407   19.2316 N   0  0  0  0  0  0  0  0  0  0  0  0
  -23.4512  -25.1346   19.5089 N   0  0  0  0  0  0  0  0  0  0  0  0
  -22.3267  -13.3348   22.2704 N   0  0  0  0  0  0  0  0  0  0  0  0
  -28.4783  -21.8088   21.1789 N   0  0  0  0  0  0  0  0  0  0  0  0
  -28.1844  -12.4634   19.4484 N   0  0  0  0  0  0  0  0  0  0  0  0
  -31.0440  -28.0565   23.6131 N   0  0  0  0  0  0  0  0  0  0  0  0
  -29.4118  -13.4806   16.2039 N   0  3  0  0  0  0  0  0  0  0  0  0
  -28.7213  -29.5485   22.0107 O   0  0  0  0  0  0  0  0  0  0  0  0
  -25.4694  -24.9534   18.4351 O   0  0  0  0  0  0  0  0  0  0  0  0
  -24.1209  -14.7551   22.7018 O   0  0  0  0  0  0  0  0  0  0  0  0
  -29.4894  -23.1055   18.9918 O   0  0  0  0  0  0  0  0  0  0  0  0
  -25.5906  -11.6718   20.3726 O   0  0  0  0  0  0  0  0  0  0  0  0
  -26.4744  -22.6197   20.3213 O   0  0  0  0  0  0  0  0  0  0  0  0
  -29.0483  -14.5139   18.7955 O   0  0  0  0  0  0  0  0  0  0  0  0
  -30.9113  -30.0614   24.7498 O   0  0  0  0  0  0  0  0  0  0  0  0
  -19.4252  -26.8250   22.9685 O   0  0  0  0  0  0  0  0  0  0  0  0
  -25.4343  -20.1418   20.0669 O   0  0  0  0  0  0  0  0  0  1  0  0
  -16.4681  -31.4217   23.6963 F   0  0  0  0  0  0  0  0  0  0  0  0
  -17.0655  -27.2272   21.5856 F   0  0  0  0  0  0  0  0  0  0  0  0
  1  2  1  0  0  0  0
  1  5  2  0  0  0  0
  2  6  2  0  0  0  0
  3  8  2  0  0  0  0
  3 17  1  0  0  0  0
  4  9  1  0  0  0  0
  4 17  2  0  0  0  0
  5 20  1  0  0  0  0
  6 22  1  0  0  0  0
  7 10  2  0  0  0  0
  7 21  1  0  0  0  0
  8 25  1  0  0  0  0
  9 25  2  0  0  0  0
 10 26  1  0  0  0  0
 11 12  2  0  0  0  0
 11 27  1  0  0  0  0
 12 28  1  0  0  0  0
 13 23  1  0  0  0  0
 13 26  2  0  0  0  0
 14 28  2  0  0  0  0
 14 29  1  0  0  0  0
 15 18  2  0  0  0  0
 15 67  1  0  0  0  0
 16 24  2  0  0  0  0
 16 67  1  0  0  0  0
 17 30  1  0  0  0  0
 18 24  1  0  0  0  0
 18 32  1  0  0  0  0
 19 30  1  0  0  0  0
 19 31  2  0  0  0  0
 19 33  1  0  0  0  0
 20 22  2  0  0  0  0
 20 40  1  0  0  0  0
 21 23  2  0  0  0  0
 21 41  1  0  0  0  0
 22 49  1  0  0  0  0
 23 42  1  0  0  0  0
 24 76  1  0  0  0  0
 25 86  1  0  0  0  0
 26 87  1  0  0  0  0
 27 29  2  0  0  0  0
 27 86  1  0  0  0  0
 28 88  1  0  0  0  0
 29 89  1  0  0  0  0
 30 66  2  0  0  0  0
 31 68  1  0  0  0  0
 31 71  1  0  0  0  0
 32 52  1  0  0  0  0
 32 78  2  0  0  0  0
 33 72  1  0  0  0  0
 33 79  2  0  0  0  0
 34 50  1  0  0  0  0
 34 73  1  0  0  0  0
 34 80  2  0  0  0  0
 35 60  1  0  0  0  0
 35 62  1  0  0  0  0
 35 81  2  0  0  0  0
 36 63  1  0  0  0  0
 36 69  1  0  0  0  0
 36 82  2  0  0  0  0
 37 61  1  0  0  0  0
 37 74  1  0  0  0  0
 37 83  2  0  0  0  0
 38 64  1  0  0  0  0
 38 75  1  0  0  0  0
 38 84  2  0  0  0  0
 39 70  1  0  0  0  0
 39 76  1  0  0  0  0
 39 85  2  0  0  0  0
 40 43  1  0  0  0  0
 41 50  1  0  0  0  0
 42 69  1  0  0  0  0
 43 45  1  0  0  0  0
 44 46  1  0  0  0  0
 44 47  1  0  0  0  0
 45 49  1  0  0  0  0
 46 51  1  0  0  0  0
 47 70  1  0  0  0  0
 48 51  1  0  0  0  0
 48 70  1  0  0  0  0
 49 73  1  0  0  0  0
 50 69  1  0  0  0  0
 51 68  1  0  0  0  0
 53 62  1  0  0  0  0
 54 64  1  0  0  0  0
 55 65  1  0  0  0  0
 56 65  1  0  0  0  0
 57 65  1  0  0  0  0
 58 76  1  0  0  0  0
 59 77  1  0  0  0  0
 60 74  1  0  0  0  0
 61 87  1  0  0  0  0
 62 67  1  0  0  0  0
 63 65  1  0  0  0  0
 63 75  1  0  0  0  0
 64 77  1  0  0  0  0
 66 68  1  0  0  0  0
M  CHG  1  77   1
M  ISO  4  39 100  61 101  76 100  87 101
M  END
> <Batch ID>
0163

> <Smiles>
CNC(C)C(=O)NC(C(=O)N1Cc2cc([101O:1][101CH2:1]C(=O)NCC(=O)C(C)n3cc(C(C)=O)c([100N:0](C)[100C:0](=O)N4CCCC(n5nc(-c6ccc(Oc7ccc(F)cc7F)cc6)c(C(N)=O)c5N)C4)c3)ccc2CC1C(=O)NC1CCCc2ccccc21)C(C)(C)C

> <Shape>
0.260

> <Color>
0.072

> <Negative vol penalty>
0.000

$$$$

  -OEChem-04052303593D

 86 95  0     1  0  0  0  0  0999 V2000
  -30.6439  -26.3678   17.8144 C   0  0  0  0  0  0  0  0  0  0  0  0
  -29.5106  -25.7390   18.3200 C   0  0  0  0  0  0  0  0  0  0  0  0
  -26.5204  -12.6924   21.6909 C   0  0  0  0  0  0  0  0  0  0  0  0
  -26.0494  -13.8298   19.6120 C   0  0  0  0  0  0  0  0  0  0  0  0
  -31.1559  -27.4971   18.4520 C   0  0  0  0  0  0  0  0  0  0  0  0
  -28.8893  -26.2385   19.4641 C   0  0  0  0  0  0  0  0  0  0  0  0
  -23.8497  -26.4377   19.0082 C   0  0  0  0  0  0  0  0  0  0  0  0
  -25.2341  -12.1530   21.6873 C   0  0  0  0  0  0  0  0  0  0  0  0
  -24.7631  -13.2903   19.6084 C   0  0  0  0  0  0  0  0  0  0  0  0
  -23.1490  -25.2418   19.1586 C   0  0  0  0  0  0  0  0  0  0  0  0
  -23.5985   -9.6226   20.1528 C   0  0  0  0  0  0  0  0  0  0  0  0
  -23.4628   -8.2678   20.4555 C   0  0  0  0  0  0  0  0  0  0  0  0
  -24.9309  -20.6522   19.7186 C   0  0  0  0  0  0  0  0  0  0  0  0
  -22.5981  -25.8566   21.4252 C   0  0  0  0  0  0  0  0  0  0  0  0
  -22.0607   -8.8295   22.3411 C   0  0  0  0  0  0  0  0  0  0  0  0
  -24.2550  -18.6968   18.8844 C   0  0  0  0  0  0  0  0  0  0  0  0
  -26.9281  -13.5309   20.6533 C   0  0  0  0  0  0  0  0  0  0  0  0
  -23.7947  -19.8367   19.5014 C   0  0  0  0  0  0  0  0  0  0  0  0
  -29.4155  -13.5283   20.0872 C   0  0  0  0  0  0  0  0  0  0  0  0
  -30.5350  -28.0164   19.5989 C   0  0  0  0  0  0  0  0  0  0  0  0
  -23.9392  -27.3487   20.0706 C   0  0  0  0  0  0  0  0  0  0  0  0
  -29.3943  -27.3750   20.1183 C   0  0  0  0  0  0  0  0  0  0  0  0
  -23.2983  -27.0646   21.2850 C   0  0  0  0  0  0  0  0  0  0  0  0
  -24.3554  -12.4519   20.6460 C   0  0  0  0  0  0  0  0  0  0  0  0
  -22.5255  -24.9498   20.3682 C   0  0  0  0  0  0  0  0  0  0  0  0
  -22.9653  -10.5809   20.9443 C   0  0  0  0  0  0  0  0  0  0  0  0
  -22.6939   -7.8712   21.5496 C   0  0  0  0  0  0  0  0  0  0  0  0
  -22.1964  -10.1843   22.0384 C   0  0  0  0  0  0  0  0  0  0  0  0
  -28.2565  -14.0888   20.6568 C   0  0  0  0  0  0  0  0  0  0  0  0
  -26.0046  -19.9524   19.2190 C   0  0  0  0  0  0  0  0  0  0  0  0
  -30.4069  -14.4389   20.3598 C   0  0  0  0  0  0  0  0  0  0  0  0
  -22.4268  -20.0989   19.8362 C   0  0  0  0  0  0  0  0  0  0  0  0
  -29.5811  -12.2948   19.3754 C   0  0  0  0  0  0  0  0  0  0  0  0
  -21.9971  -21.3888   20.5201 C   0  0  0  0  0  0  0  0  0  0  0  0
  -26.3208  -28.5596   21.7926 C   0  0  0  0  0  0  0  0  0  0  0  0
  -23.9590  -30.3899   23.0553 C   0  0  0  0  0  0  0  0  0  0  0  0
  -20.6337  -30.7761   23.7184 C   0  0  0  0  0  0  0  0  0  0  0  0
  -30.4938  -20.2298   21.3688 C   0  0  0  0  0  0  0  0  0  0  0  0
  -31.1527  -29.2114   20.2807 C   0  0  0  0  0  0  0  0  0  0  0  0
  -24.6763  -28.6464   19.8837 C   0  0  0  0  0  0  0  0  0  0  0  0
  -23.3473  -28.0183   22.4496 C   0  0  0  0  0  0  0  0  0  0  0  0
  -30.2167  -29.8984   21.2719 C   0  0  0  0  0  0  0  0  0  0  0  0
  -29.2875  -21.7721   18.2256 C   0  0  0  0  0  0  0  0  0  0  0  0
  -31.6634  -17.7853   23.5330 C   0  0  0  0  0  0  0  0  0  0  0  0
  -29.5375  -28.8671   22.1674 C   0  0  0  0  0  0  0  0  0  0  0  0
  -27.7864  -21.4904   18.2735 C   0  0  0  0  0  0  0  0  0  0  0  0
  -31.0404  -16.4963   22.9977 C   0  0  0  0  0  0  0  0  0  0  0  0
  -29.8919  -21.8694   19.6233 C   0  0  0  0  0  0  0  0  0  0  0  0
  -30.6679  -18.9385   23.4751 C   0  0  0  0  0  0  0  0  0  0  0  0
  -28.1164  -20.4049   20.5294 C   0  0  0  0  0  0  0  0  0  0  0  0
  -29.4899  -17.9081   21.5599 C   0  0  0  0  0  0  0  0  0  0  0  0
  -28.6778  -27.9014   21.3429 C   0  0  1  0  0  0  0  0  0  0  0  0
  -27.4896  -20.2511   19.1355 C   0  0  1  0  0  0  0  0  0  0  0  0
  -25.1357  -29.2675   21.1992 C   0  0  1  0  0  0  0  0  0  0  0  0
  -30.4582  -16.7090   21.5894 C   0  0  2  0  0  0  0  0  0  0  0  0
  -19.0106  -32.3581   24.7956 C   0  0  0  0  0  0  0  0  0  0  0  0
  -24.8741  -29.4493   25.8099 C   0  0  0  0  0  0  0  0  0  0  0  0
  -22.6955  -30.2651   26.7353 C   0  0  0  0  0  0  0  0  0  0  0  0
  -24.2814  -31.8755   25.6797 C   0  0  0  0  0  0  0  0  0  0  0  0
  -19.1682  -31.1844   21.1798 C   0  0  0  0  0  0  0  0  0  0  0  0
  -22.2826  -22.6613   19.7683 C   0  0  0  0  0  0  0  0  0  1  0  0
  -23.0066  -30.2531   24.2185 C   0  0  1  0  0  0  0  0  0  0  0  0
  -19.6924  -31.9468   23.4999 C   0  0  2  0  0  0  0  0  0  0  0  0
  -23.7149  -30.4417   25.5897 C   0  0  0  0  0  0  0  0  0  0  0  0
  -28.4887  -15.2644   21.2468 N   0  0  0  0  0  0  0  0  0  0  0  0
  -29.8050  -15.4500   21.0495 N   0  0  0  0  0  0  0  0  0  0  0  0
  -24.0856  -29.2712   22.2197 N   0  0  0  0  0  0  0  0  0  0  0  0
  -29.5542  -20.7014   20.4372 N   0  0  0  0  0  0  0  0  0  0  0  0
  -30.1300  -19.1053   22.1249 N   0  0  0  0  0  0  0  0  0  0  0  0
  -31.7261  -14.4654   20.0745 N   0  0  0  0  0  0  0  0  0  0  0  0
  -28.4583  -11.4781   19.1838 N   0  0  0  0  0  0  0  0  0  0  0  0
  -27.4294  -28.5302   20.9681 N   0  0  0  0  0  0  0  0  0  0  0  0
  -21.9221  -31.1971   23.9714 N   0  0  0  0  0  0  0  0  0  0  0  0
  -18.6394  -31.5868   22.5086 N   0  3  0  0  0  0  0  0  0  0  0  0
  -21.4759  -19.3181   19.6255 O   0  0  0  0  0  0  0  0  0  0  0  0
  -30.6949  -11.9200   18.9369 O   0  0  0  0  0  0  0  0  0  0  0  0
  -21.4648  -21.3031   21.6159 O   0  0  0  0  0  0  0  0  0  0  0  0
  -26.2362  -28.0772   22.9158 O   0  0  0  0  0  0  0  0  0  0  0  0
  -24.5629  -31.4527   22.8899 O   0  0  0  0  0  0  0  0  0  0  0  0
  -20.2624  -29.6054   23.6733 O   0  0  0  0  0  0  0  0  0  0  0  0
  -31.5930  -20.7796   21.5128 O   0  0  0  0  0  0  0  0  0  0  0  0
  -25.6011  -18.7594   18.7088 O   0  0  0  0  0  0  0  0  0  0  0  0
  -23.1003  -11.9256   20.6420 O   0  0  0  0  0  0  0  0  0  0  0  0
  -21.8346  -23.7713   20.5193 O   0  0  0  0  0  0  0  0  0  1  0  0
  -22.5625   -6.5701   21.8392 F   0  0  0  0  0  0  0  0  0  0  0  0
  -21.5847  -11.1003   22.8018 F   0  0  0  0  0  0  0  0  0  0  0  0
  1  2  1  0  0  0  0
  1  5  2  0  0  0  0
  2  6  2  0  0  0  0
  3  8  2  0  0  0  0
  3 17  1  0  0  0  0
  4  9  1  0  0  0  0
  4 17  2  0  0  0  0
  5 20  1  0  0  0  0
  6 22  1  0  0  0  0
  7 10  2  0  0  0  0
  7 21  1  0  0  0  0
  8 24  1  0  0  0  0
  9 24  2  0  0  0  0
 10 25  1  0  0  0  0
 11 12  2  0  0  0  0
 11 26  1  0  0  0  0
 12 27  1  0  0  0  0
 13 18  1  0  0  0  0
 13 30  2  0  0  0  0
 14 23  1  0  0  0  0
 14 25  2  0  0  0  0
 15 27  2  0  0  0  0
 15 28  1  0  0  0  0
 16 18  2  0  0  0  0
 16 82  1  0  0  0  0
 17 29  1  0  0  0  0
 18 32  1  0  0  0  0
 19 29  1  0  0  0  0
 19 31  2  0  0  0  0
 19 33  1  0  0  0  0
 20 22  2  0  0  0  0
 20 39  1  0  0  0  0
 21 23  2  0  0  0  0
 21 40  1  0  0  0  0
 22 52  1  0  0  0  0
 23 41  1  0  0  0  0
 24 83  1  0  0  0  0
 25 84  1  0  0  0  0
 26 28  2  0  0  0  0
 26 83  1  0  0  0  0
 27 85  1  0  0  0  0
 28 86  1  0  0  0  0
 29 65  2  0  0  0  0
 30 53  1  0  0  0  0
 30 82  1  0  0  0  0
 31 66  1  0  0  0  0
 31 70  1  0  0  0  0
 32 34  1  0  0  0  0
 32 75  2  0  0  0  0
 33 71  1  0  0  0  0
 33 76  2  0  0  0  0
 34 61  1  0  0  0  0
 34 77  2  0  0  0  0
 35 54  1  0  0  0  0
 35 72  1  0  0  0  0
 35 78  2  0  0  0  0
 36 62  1  0  0  0  0
 36 67  1  0  0  0  0
 36 79  2  0  0  0  0
 37 63  1  0  0  0  0
 37 73  1  0  0  0  0
 37 80  2  0  0  0  0
 38 68  1  0  0  0  0
 38 69  1  0  0  0  0
 38 81  2  0  0  0  0
 39 42  1  0  0  0  0
 40 54  1  0  0  0  0
 41 67  1  0  0  0  0
 42 45  1  0  0  0  0
 43 46  1  0  0  0  0
 43 48  1  0  0  0  0
 44 47  1  0  0  0  0
 44 49  1  0  0  0  0
 45 52  1  0  0  0  0
 46 53  1  0  0  0  0
 47 55  1  0  0  0  0
 48 68  1  0  0  0  0
 49 69  1  0  0  0  0
 50 53  1  0  0  0  0
 50 68  1  0  0  0  0
 51 55  1  0  0  0  0
 51 69  1  0  0  0  0
 52 72  1  0  0  0  0
 54 67  1  0  0  0  0
 55 66  1  0  0  0  0
 56 63  1  0  0  0  0
 57 64  1  0  0  0  0
 58 64  1  0  0  0  0
 59 64  1  0  0  0  0
 60 74  1  0  0  0  0
 61 84  1  0  0  0  0
 62 64  1  0  0  0  0
 62 73  1  0  0  0  0
 63 74  1  0  0  0  0
 65 66  1  0  0  0  0
M  CHG  1  74   1
M  ISO  4  38 100  61 101  68 100  84 101
M  END
> <Batch ID>
0163

> <Smiles>
CNC(C)C(=O)NC(C(=O)N1Cc2cc([101O:1][101CH2:1]C(=O)C(=O)c3coc(C4CCC[100N:0]([100C:0](=O)N5CCCC(n6nc(-c7ccc(Oc8ccc(F)cc8F)cc7)c(C(N)=O)c6N)C5)C4)c3)ccc2CC1C(=O)NC1CCCc2ccccc21)C(C)(C)C

> <Shape>
0.285

> <Color>
0.050

> <Negative vol penalty>
0.000

$$$$

  -OEChem-04052303593D

 88 96  0     1  0  0  0  0  0999 V2000
  -28.9912  -37.4743   18.4385 C   0  0  0  0  0  0  0  0  0  0  0  0
  -29.2802  -36.1139   18.4017 C   0  0  0  0  0  0  0  0  0  0  0  0
  -23.2408   -9.6567   20.0838 C   0  0  0  0  0  0  0  0  0  0  0  0
  -24.0791   -9.8651   22.3402 C   0  0  0  0  0  0  0  0  0  0  0  0
  -28.2127  -37.9927   19.4724 C   0  0  0  0  0  0  0  0  0  0  0  0
  -28.7916  -35.2713   19.3996 C   0  0  0  0  0  0  0  0  0  0  0  0
  -26.9926  -29.4534   18.7507 C   0  0  0  0  0  0  0  0  0  0  0  0
  -22.5998   -8.4677   20.4317 C   0  0  0  0  0  0  0  0  0  0  0  0
  -23.4380   -8.6761   22.6881 C   0  0  0  0  0  0  0  0  0  0  0  0
  -27.6329  -28.2403   18.9998 C   0  0  0  0  0  0  0  0  0  0  0  0
  -20.3065   -7.6721   23.4669 C   0  0  0  0  0  0  0  0  0  0  0  0
  -19.5974   -7.6474   24.6677 C   0  0  0  0  0  0  0  0  0  0  0  0
  -29.2767  -16.6939   17.9341 C   0  0  0  0  0  0  0  0  0  0  0  0
  -29.3081  -18.8022   16.7548 C   0  0  0  0  0  0  0  0  0  0  0  0
  -26.5767  -28.1346   21.1660 C   0  0  0  0  0  0  0  0  0  0  0  0
  -28.8923  -18.7552   19.1343 C   0  0  0  0  0  0  0  0  0  0  0  0
  -21.0135   -5.8606   25.4673 C   0  0  0  0  0  0  0  0  0  0  0  0
  -23.9805  -10.3554   21.0380 C   0  0  0  0  0  0  0  0  0  0  0  0
  -29.4257  -17.4124   16.7478 C   0  0  0  0  0  0  0  0  0  0  0  0
  -24.1171  -12.8869   20.7544 C   0  0  0  0  0  0  0  0  0  0  0  0
  -27.7063  -37.1545   20.4782 C   0  0  0  0  0  0  0  0  0  0  0  0
  -26.1467  -30.0226   19.7134 C   0  0  0  0  0  0  0  0  0  0  0  0
  -28.0067  -35.7793   20.4487 C   0  0  0  0  0  0  0  0  0  0  0  0
  -25.9249  -29.3537   20.9256 C   0  0  0  0  0  0  0  0  0  0  0  0
  -29.0099  -17.3653   19.1273 C   0  0  0  0  0  0  0  0  0  0  0  0
  -29.0413  -19.4737   17.9480 C   0  0  0  0  0  0  0  0  0  0  0  0
  -22.6984   -7.9774   21.7339 C   0  0  0  0  0  0  0  0  0  0  0  0
  -27.4273  -27.5821   20.2088 C   0  0  0  0  0  0  0  0  0  0  0  0
  -21.3692   -6.7911   23.2662 C   0  0  0  0  0  0  0  0  0  0  0  0
  -19.9508   -6.7417   25.6679 C   0  0  0  0  0  0  0  0  0  0  0  0
  -21.7227   -5.8854   24.2664 C   0  0  0  0  0  0  0  0  0  0  0  0
  -24.6433  -11.5833   20.6791 C   0  0  0  0  0  0  0  0  0  0  0  0
  -25.1330  -13.6938   20.3034 C   0  0  0  0  0  0  0  0  0  0  0  0
  -29.7038  -16.7122   15.5037 C   0  0  0  0  0  0  0  0  0  0  0  0
  -22.8256  -13.3288   21.1929 C   0  0  0  0  0  0  0  0  0  0  0  0
  -26.1514  -32.7248   21.3873 C   0  0  0  0  0  0  0  0  0  0  0  0
  -23.2410  -31.6717   22.3583 C   0  0  0  0  0  0  0  0  0  0  0  0
  -28.6607  -21.7075   19.0471 C   0  0  0  0  0  0  0  0  0  0  0  0
  -21.1295  -29.0359   22.8494 C   0  0  0  0  0  0  0  0  0  0  0  0
  -30.6835  -14.8718   20.6509 C   0  0  0  0  0  0  0  0  0  0  0  0
  -26.9088  -37.7684   21.6015 C   0  0  0  0  0  0  0  0  0  0  0  0
  -25.4425  -31.3186   19.4185 C   0  0  0  0  0  0  0  0  0  0  0  0
  -25.0104  -29.9126   21.9839 C   0  0  0  0  0  0  0  0  0  0  0  0
  -26.1171  -36.7477   22.4150 C   0  0  0  0  0  0  0  0  0  0  0  0
  -29.4896  -12.5642   18.0145 C   0  0  0  0  0  0  0  0  0  0  0  0
  -26.9930  -35.5489   22.7650 C   0  0  0  0  0  0  0  0  0  0  0  0
  -28.1073  -12.1614   18.5254 C   0  0  0  0  0  0  0  0  0  0  0  0
  -30.4344  -12.9227   19.1575 C   0  0  0  0  0  0  0  0  0  0  0  0
  -28.5199  -13.5651   20.5844 C   0  0  0  0  0  0  0  0  0  0  0  0
  -27.4743  -34.8291   21.4994 C   0  0  1  0  0  0  0  0  0  0  0  0
  -25.0054  -32.0610   20.6776 C   0  0  1  0  0  0  0  0  0  0  0  0
  -27.5297  -13.2425   19.4554 C   0  0  2  0  0  0  0  0  0  0  0  0
  -29.1980  -17.3298   14.2325 C   0  0  0  0  0  0  0  0  0  0  0  0
  -18.8305  -28.4838   23.6905 C   0  0  0  0  0  0  0  0  0  0  0  0
  -24.2077  -32.0316   25.2299 C   0  0  0  0  0  0  0  0  0  0  0  0
  -22.2916  -30.6054   25.9799 C   0  0  0  0  0  0  0  0  0  0  0  0
  -21.8538  -32.7707   24.8212 C   0  0  0  0  0  0  0  0  0  0  0  0
  -30.9640  -17.1547   21.5394 C   0  0  0  0  0  0  0  0  0  0  0  0
  -20.3086  -27.9349   20.2278 C   0  0  0  0  0  0  0  0  0  0  0  0
  -28.8504  -16.5972   20.3959 C   0  0  0  0  0  0  0  0  0  0  0  0
  -28.6150  -23.1667   18.6156 C   0  0  0  0  0  0  0  0  0  0  0  0
  -28.3310  -24.1138   19.7763 C   0  0  0  0  0  0  0  0  0  0  0  0
  -28.3374  -25.5685   19.3295 C   0  0  0  0  0  0  0  0  0  1  0  0
  -22.7393  -30.8106   23.4923 C   0  0  1  0  0  0  0  0  0  0  0  0
  -19.6738  -28.8277   22.4725 C   0  0  2  0  0  0  0  0  0  0  0  0
  -22.7919  -31.5447   24.8619 C   0  0  0  0  0  0  0  0  0  0  0  0
  -25.8961  -11.5589   20.2165 N   0  0  0  0  0  0  0  0  0  0  0  0
  -26.1655  -12.8571   19.9970 N   0  0  0  0  0  0  0  0  0  0  0  0
  -24.3498  -31.1855   21.6511 N   0  0  0  0  0  0  0  0  0  0  0  0
  -29.8432  -13.9202   20.0501 N   0  0  0  0  0  0  0  0  0  0  0  0
  -25.2347  -15.0303   20.1429 N   0  0  0  0  0  0  0  0  0  0  0  0
  -21.9014  -12.3675   21.6243 N   0  0  0  0  0  0  0  0  0  0  0  0
  -28.9222  -20.8838   17.9557 N   0  0  0  0  0  0  0  0  0  0  0  0
  -26.4155  -34.0090   20.9508 N   0  0  0  0  0  0  0  0  0  0  0  0
  -21.4060  -30.3623   23.1054 N   0  0  0  0  0  0  0  0  0  0  0  0
  -30.1291  -16.1307   20.9274 N   0  0  0  0  0  0  0  0  0  0  0  0
  -19.5480  -27.7183   21.4854 N   0  3  0  0  0  0  0  0  0  0  0  0
  -30.3192  -15.6477   15.4146 O   0  0  0  0  0  0  0  0  0  0  0  0
  -22.4950  -14.5389   21.1865 O   0  0  0  0  0  0  0  0  0  0  0  0
  -26.7507  -32.1173   22.2668 O   0  0  0  0  0  0  0  0  0  0  0  0
  -22.6658  -32.7330   22.1046 O   0  0  0  0  0  0  0  0  0  0  0  0
  -28.4831  -21.3670   20.2119 O   0  0  0  0  0  0  0  0  0  0  0  0
  -21.9393  -28.1137   22.9142 O   0  0  0  0  0  0  0  0  0  0  0  0
  -31.8648  -14.6142   20.9159 O   0  0  0  0  0  0  0  0  0  0  0  0
  -22.0728   -6.8174   22.0738 O   0  0  0  0  0  0  0  0  0  0  0  0
  -28.0516  -26.3982   20.4548 O   0  0  0  0  0  0  0  0  0  1  0  0
  -19.2707   -6.7191   26.8217 F   0  0  0  0  0  0  0  0  0  0  0  0
  -22.7434   -5.0373   24.0798 F   0  0  0  0  0  0  0  0  0  0  0  0
  1  2  1  0  0  0  0
  1  5  2  0  0  0  0
  2  6  2  0  0  0  0
  3  8  2  0  0  0  0
  3 18  1  0  0  0  0
  4  9  1  0  0  0  0
  4 18  2  0  0  0  0
  5 21  1  0  0  0  0
  6 23  1  0  0  0  0
  7 10  2  0  0  0  0
  7 22  1  0  0  0  0
  8 27  1  0  0  0  0
  9 27  2  0  0  0  0
 10 28  1  0  0  0  0
 11 12  2  0  0  0  0
 11 29  1  0  0  0  0
 12 30  1  0  0  0  0
 13 19  2  0  0  0  0
 13 25  1  0  0  0  0
 14 19  1  0  0  0  0
 14 26  2  0  0  0  0
 15 24  1  0  0  0  0
 15 28  2  0  0  0  0
 16 25  2  0  0  0  0
 16 26  1  0  0  0  0
 17 30  2  0  0  0  0
 17 31  1  0  0  0  0
 18 32  1  0  0  0  0
 19 34  1  0  0  0  0
 20 32  1  0  0  0  0
 20 33  2  0  0  0  0
 20 35  1  0  0  0  0
 21 23  2  0  0  0  0
 21 41  1  0  0  0  0
 22 24  2  0  0  0  0
 22 42  1  0  0  0  0
 23 50  1  0  0  0  0
 24 43  1  0  0  0  0
 25 60  1  0  0  0  0
 26 73  1  0  0  0  0
 27 85  1  0  0  0  0
 28 86  1  0  0  0  0
 29 31  2  0  0  0  0
 29 85  1  0  0  0  0
 30 87  1  0  0  0  0
 31 88  1  0  0  0  0
 32 67  2  0  0  0  0
 33 68  1  0  0  0  0
 33 71  1  0  0  0  0
 34 53  1  0  0  0  0
 34 78  2  0  0  0  0
 35 72  1  0  0  0  0
 35 79  2  0  0  0  0
 36 51  1  0  0  0  0
 36 74  1  0  0  0  0
 36 80  2  0  0  0  0
 37 64  1  0  0  0  0
 37 69  1  0  0  0  0
 37 81  2  0  0  0  0
 38 61  1  0  0  0  0
 38 73  1  0  0  0  0
 38 82  2  0  0  0  0
 39 65  1  0  0  0  0
 39 75  1  0  0  0  0
 39 83  2  0  0  0  0
 40 70  1  0  0  0  0
 40 76  1  0  0  0  0
 40 84  2  0  0  0  0
 41 44  1  0  0  0  0
 42 51  1  0  0  0  0
 43 69  1  0  0  0  0
 44 46  1  0  0  0  0
 45 47  1  0  0  0  0
 45 48  1  0  0  0  0
 46 50  1  0  0  0  0
 47 52  1  0  0  0  0
 48 70  1  0  0  0  0
 49 52  1  0  0  0  0
 49 70  1  0  0  0  0
 50 74  1  0  0  0  0
 51 69  1  0  0  0  0
 52 68  1  0  0  0  0
 54 65  1  0  0  0  0
 55 66  1  0  0  0  0
 56 66  1  0  0  0  0
 57 66  1  0  0  0  0
 58 76  1  0  0  0  0
 59 77  1  0  0  0  0
 60 76  1  0  0  0  0
 61 62  1  0  0  0  0
 62 63  1  0  0  0  0
 63 86  1  0  0  0  0
 64 66  1  0  0  0  0
 64 75  1  0  0  0  0
 65 77  1  0  0  0  0
 67 68  1  0  0  0  0
M  CHG  1  77   1
M  ISO  4  40 100  63 101  76 100  86 101
M  END
> <Batch ID>
0163

> <Smiles>
CNC(C)C(=O)NC(C(=O)N1Cc2cc([101O:1][101CH2:1]CCC(=O)Nc3cc(C[100N:0](C)[100C:0](=O)N4CCCC(n5nc(-c6ccc(Oc7ccc(F)cc7F)cc6)c(C(N)=O)c5N)C4)cc(C(C)=O)c3)ccc2CC1C(=O)NC1CCCc2ccccc21)C(C)(C)C

> <Shape>
0.360

> <Color>
0.213

> <Negative vol penalty>
0.000

$$$$

  -OEChem-04052303593D

 86 94  0     1  0  0  0  0  0999 V2000
  -16.9206  -28.5543   18.2116 C   0  0  0  0  0  0  0  0  0  0  0  0
  -18.1165  -27.8442   18.2410 C   0  0  0  0  0  0  0  0  0  0  0  0
  -23.2574   -9.8108   21.3206 C   0  0  0  0  0  0  0  0  0  0  0  0
  -23.9255  -10.7300   23.4526 C   0  0  0  0  0  0  0  0  0  0  0  0
  -16.9020  -29.9014   18.5708 C   0  0  0  0  0  0  0  0  0  0  0  0
  -19.2949  -28.4811   18.6285 C   0  0  0  0  0  0  0  0  0  0  0  0
  -22.0407  -25.6967   21.8460 C   0  0  0  0  0  0  0  0  0  0  0  0
  -22.5653   -8.7927   21.9763 C   0  0  0  0  0  0  0  0  0  0  0  0
  -23.2334   -9.7119   24.1085 C   0  0  0  0  0  0  0  0  0  0  0  0
  -22.7909  -24.6534   21.3051 C   0  0  0  0  0  0  0  0  0  0  0  0
  -19.6080   -8.4182   23.5722 C   0  0  0  0  0  0  0  0  0  0  0  0
  -18.3253   -8.1101   23.1190 C   0  0  0  0  0  0  0  0  0  0  0  0
  -31.4054  -19.8181   22.1900 C   0  0  0  0  0  0  0  0  0  0  0  0
  -29.5253  -18.4583   21.5169 C   0  0  0  0  0  0  0  0  0  0  0  0
  -24.7662  -26.0353   21.3952 C   0  0  0  0  0  0  0  0  0  0  0  0
  -31.7723  -17.5908   21.3289 C   0  0  0  0  0  0  0  0  0  0  0  0
  -19.0367   -5.8513   22.6408 C   0  0  0  0  0  0  0  0  0  0  0  0
  -23.9375  -10.7795   22.0587 C   0  0  0  0  0  0  0  0  0  0  0  0
  -30.0297  -19.6540   22.0282 C   0  0  0  0  0  0  0  0  0  0  0  0
  -24.1518  -13.0890   20.9967 C   0  0  0  0  0  0  0  0  0  0  0  0
  -18.0791  -30.5526   18.9721 C   0  0  0  0  0  0  0  0  0  0  0  0
  -22.6464  -26.9228   22.1560 C   0  0  0  0  0  0  0  0  0  0  0  0
  -19.2924  -29.8385   18.9921 C   0  0  0  0  0  0  0  0  0  0  0  0
  -24.0219  -27.0916   21.9424 C   0  0  0  0  0  0  0  0  0  0  0  0
  -32.2767  -18.7865   21.8403 C   0  0  0  0  0  0  0  0  0  0  0  0
  -30.3966  -17.4267   21.1672 C   0  0  0  0  0  0  0  0  0  0  0  0
  -22.5533   -8.7432   23.3703 C   0  0  0  0  0  0  0  0  0  0  0  0
  -24.1533  -24.8236   21.0769 C   0  0  0  0  0  0  0  0  0  0  0  0
  -20.6051   -7.4428   23.5596 C   0  0  0  0  0  0  0  0  0  0  0  0
  -18.0396   -6.8267   22.6534 C   0  0  0  0  0  0  0  0  0  0  0  0
  -20.3195   -6.1594   23.0940 C   0  0  0  0  0  0  0  0  0  0  0  0
  -24.6530  -11.8311   21.3818 C   0  0  0  0  0  0  0  0  0  0  0  0
  -25.2169  -13.7133   20.3948 C   0  0  0  0  0  0  0  0  0  0  0  0
  -29.0935  -20.7623   22.4054 C   0  0  0  0  0  0  0  0  0  0  0  0
  -22.8408  -13.6435   21.1680 C   0  0  0  0  0  0  0  0  0  0  0  0
  -22.2844  -29.9191   21.1587 C   0  0  0  0  0  0  0  0  0  0  0  0
  -24.4113  -30.5518   23.5247 C   0  0  0  0  0  0  0  0  0  0  0  0
  -26.9188  -29.4212   25.5450 C   0  0  0  0  0  0  0  0  0  0  0  0
  -30.6102  -15.0898   20.2509 C   0  0  0  0  0  0  0  0  0  0  0  0
  -18.0180  -32.0222   19.3059 C   0  0  0  0  0  0  0  0  0  0  0  0
  -21.8285  -28.0292   22.7638 C   0  0  0  0  0  0  0  0  0  0  0  0
  -24.7240  -28.3814   22.2768 C   0  0  0  0  0  0  0  0  0  0  0  0
  -19.2432  -32.5260   20.0644 C   0  0  0  0  0  0  0  0  0  0  0  0
  -29.7166  -11.8960   18.9554 C   0  0  0  0  0  0  0  0  0  0  0  0
  -20.5233  -32.0198   19.4072 C   0  0  0  0  0  0  0  0  0  0  0  0
  -28.2783  -11.6979   19.4395 C   0  0  0  0  0  0  0  0  0  0  0  0
  -30.5708  -12.6183   19.9958 C   0  0  0  0  0  0  0  0  0  0  0  0
  -28.5760  -13.6885   20.9679 C   0  0  0  0  0  0  0  0  0  0  0  0
  -20.5870  -30.4879   19.4306 C   0  0  1  0  0  0  0  0  0  0  0  0
  -22.4470  -29.4092   22.5627 C   0  0  1  0  0  0  0  0  0  0  0  0
  -27.6604  -13.0229   19.9275 C   0  0  2  0  0  0  0  0  0  0  0  0
  -28.4866  -30.1802   27.3514 C   0  0  0  0  0  0  0  0  0  0  0  0
  -26.1106  -31.9938   21.4407 C   0  0  0  0  0  0  0  0  0  0  0  0
  -28.0352  -31.8879   23.0384 C   0  0  0  0  0  0  0  0  0  0  0  0
  -25.9728  -33.1485   23.6547 C   0  0  0  0  0  0  0  0  0  0  0  0
  -25.8158  -27.4736   27.4812 C   0  0  0  0  0  0  0  0  0  0  0  0
  -24.4622  -22.4772   20.8425 C   0  0  0  0  0  0  0  0  0  1  0  0
  -25.6570  -21.5458   20.8049 C   0  0  0  0  0  0  0  0  0  0  0  0
  -25.9164  -30.6212   23.6189 C   0  0  1  0  0  0  0  0  0  0  0  0
  -27.1398  -29.5454   27.0417 C   0  0  2  0  0  0  0  0  0  0  0  0
  -26.4954  -31.8891   22.9300 C   0  0  0  0  0  0  0  0  0  0  0  0
  -25.9366  -11.6645   21.0520 N   0  0  0  0  0  0  0  0  0  0  0  0
  -27.9836  -20.8345   21.7255 N   0  0  0  0  0  0  0  0  0  0  0  0
  -26.2509  -12.8259   20.4533 N   0  0  0  0  0  0  0  0  0  0  0  0
  -23.8799  -29.4356   22.8632 N   0  0  0  0  0  0  0  0  0  0  0  0
  -29.9249  -13.8664   20.4079 N   0  0  0  0  0  0  0  0  0  0  0  0
  -33.6677  -18.9522   22.0034 N   0  0  0  0  0  0  0  0  0  0  0  0
  -25.3604  -14.9293   19.8263 N   0  0  0  0  0  0  0  0  0  0  0  0
  -29.4797  -21.6069   23.4251 N   0  0  0  0  0  0  0  0  0  0  0  0
  -21.8652  -12.8669   21.8077 N   0  0  0  0  0  0  0  0  0  0  0  0
  -29.8840  -16.2124   20.6470 N   0  0  0  0  0  0  0  0  0  0  0  0
  -20.9697  -30.0180   20.7448 N   0  0  0  0  0  0  0  0  0  0  0  0
  -26.2423  -30.5099   25.0365 N   0  0  0  0  0  0  0  0  0  0  0  0
  -27.0943  -28.2020   27.6852 N   0  3  0  0  0  0  0  0  0  0  0  0
  -22.5387  -14.7874   20.7509 O   0  0  0  0  0  0  0  0  0  0  0  0
  -23.2780  -30.2034   20.5002 O   0  0  0  0  0  0  0  0  0  0  0  0
  -23.7319  -31.4510   24.0261 O   0  0  0  0  0  0  0  0  0  0  0  0
  -27.3106  -28.4569   24.8915 O   0  0  0  0  0  0  0  0  0  0  0  0
  -31.7464  -15.1405   19.7730 O   0  0  0  0  0  0  0  0  0  0  0  0
  -26.2623  -21.7803   23.3195 O   0  0  0  0  0  0  0  0  0  0  0  0
  -27.3875  -23.2913   21.6425 O   0  0  0  0  0  0  0  0  0  0  0  0
  -21.8779   -7.7500   24.0106 O   0  0  0  0  0  0  0  0  0  0  0  0
  -24.8878  -23.8072   20.5485 O   0  0  0  0  0  0  0  0  0  1  0  0
  -16.8074   -6.5305   22.2197 F   0  0  0  0  0  0  0  0  0  0  0  0
  -21.2730   -5.2179   23.0806 F   0  0  0  0  0  0  0  0  0  0  0  0
  -26.8676  -21.9857   22.0140 S   0  0  0  0  0  0  0  0  0  0  0  0
  1  2  1  0  0  0  0
  1  5  2  0  0  0  0
  2  6  2  0  0  0  0
  3  8  2  0  0  0  0
  3 18  1  0  0  0  0
  4  9  1  0  0  0  0
  4 18  2  0  0  0  0
  5 21  1  0  0  0  0
  6 23  1  0  0  0  0
  7 10  2  0  0  0  0
  7 22  1  0  0  0  0
  8 27  1  0  0  0  0
  9 27  2  0  0  0  0
 10 28  1  0  0  0  0
 11 12  2  0  0  0  0
 11 29  1  0  0  0  0
 12 30  1  0  0  0  0
 13 19  1  0  0  0  0
 13 25  2  0  0  0  0
 14 19  2  0  0  0  0
 14 26  1  0  0  0  0
 15 24  1  0  0  0  0
 15 28  2  0  0  0  0
 16 25  1  0  0  0  0
 16 26  2  0  0  0  0
 17 30  2  0  0  0  0
 17 31  1  0  0  0  0
 18 32  1  0  0  0  0
 19 34  1  0  0  0  0
 20 32  1  0  0  0  0
 20 33  2  0  0  0  0
 20 35  1  0  0  0  0
 21 23  2  0  0  0  0
 21 40  1  0  0  0  0
 22 24  2  0  0  0  0
 22 41  1  0  0  0  0
 23 49  1  0  0  0  0
 24 42  1  0  0  0  0
 25 67  1  0  0  0  0
 26 71  1  0  0  0  0
 27 82  1  0  0  0  0
 28 83  1  0  0  0  0
 29 31  2  0  0  0  0
 29 82  1  0  0  0  0
 30 84  1  0  0  0  0
 31 85  1  0  0  0  0
 32 62  2  0  0  0  0
 33 64  1  0  0  0  0
 33 68  1  0  0  0  0
 34 63  2  0  0  0  0
 34 69  1  0  0  0  0
 35 70  1  0  0  0  0
 35 75  2  0  0  0  0
 36 50  1  0  0  0  0
 36 72  1  0  0  0  0
 36 76  2  0  0  0  0
 37 59  1  0  0  0  0
 37 65  1  0  0  0  0
 37 77  2  0  0  0  0
 38 60  1  0  0  0  0
 38 73  1  0  0  0  0
 38 78  2  0  0  0  0
 39 66  1  0  0  0  0
 39 71  1  0  0  0  0
 39 79  2  0  0  0  0
 40 43  1  0  0  0  0
 41 50  1  0  0  0  0
 42 65  1  0  0  0  0
 43 45  1  0  0  0  0
 44 46  1  0  0  0  0
 44 47  1  0  0  0  0
 45 49  1  0  0  0  0
 46 51  1  0  0  0  0
 47 66  1  0  0  0  0
 48 51  1  0  0  0  0
 48 66  1  0  0  0  0
 49 72  1  0  0  0  0
 50 65  1  0  0  0  0
 51 64  1  0  0  0  0
 52 60  1  0  0  0  0
 53 61  1  0  0  0  0
 54 61  1  0  0  0  0
 55 61  1  0  0  0  0
 56 74  1  0  0  0  0
 57 58  1  0  0  0  0
 57 83  1  0  0  0  0
 58 86  1  0  0  0  0
 59 61  1  0  0  0  0
 59 73  1  0  0  0  0
 60 74  1  0  0  0  0
 62 64  1  0  0  0  0
 63 86  1  0  0  0  0
 80 86  2  0  0  0  0
 81 86  2  0  0  0  0
M  CHG  1  74   1
M  ISO  4  39 100  57 101  71 100  83 101
M  END
> <Batch ID>
0163

> <Smiles>
CNC(C)C(=O)NC(C(=O)N1Cc2cc([101O:1][101CH2:1]CS(=O)(=O)NC(=N)c3cc(N)cc([100NH:0][100C:0](=O)N4CCCC(n5nc(-c6ccc(Oc7ccc(F)cc7F)cc6)c(C(N)=O)c5N)C4)c3)ccc2CC1C(=O)NC1CCCc2ccccc21)C(C)(C)C

> <Shape>
0.255

> <Color>
0.137

> <Negative vol penalty>
0.000

$$$$

  -OEChem-04052303593D

 88 96  0     1  0  0  0  0  0999 V2000
  -36.2714  -31.7917   18.8726 C   0  0  0  0  0  0  0  0  0  0  0  0
  -35.3557  -31.8578   19.9179 C   0  0  0  0  0  0  0  0  0  0  0  0
  -23.1473   -9.8293   19.8807 C   0  0  0  0  0  0  0  0  0  0  0  0
  -23.9097   -9.7962   22.1730 C   0  0  0  0  0  0  0  0  0  0  0  0
  -36.0045  -30.9905   17.7632 C   0  0  0  0  0  0  0  0  0  0  0  0
  -34.1720  -31.1236   19.8538 C   0  0  0  0  0  0  0  0  0  0  0  0
  -32.5483  -26.2572   24.9108 C   0  0  0  0  0  0  0  0  0  0  0  0
  -31.8463  -16.8585   22.6983 C   0  0  0  0  0  0  0  0  0  0  0  0
  -22.4531   -8.6386   20.0944 C   0  0  0  0  0  0  0  0  0  0  0  0
  -23.2154   -8.6055   22.3867 C   0  0  0  0  0  0  0  0  0  0  0  0
  -32.0672  -25.4605   25.9500 C   0  0  0  0  0  0  0  0  0  0  0  0
  -20.0247   -7.6536   22.9645 C   0  0  0  0  0  0  0  0  0  0  0  0
  -32.3974  -17.7369   23.6311 C   0  0  0  0  0  0  0  0  0  0  0  0
  -19.2719   -7.5450   24.1337 C   0  0  0  0  0  0  0  0  0  0  0  0
  -29.6293  -17.5943   23.3153 C   0  0  0  0  0  0  0  0  0  0  0  0
  -30.0917  -24.9446   24.6541 C   0  0  0  0  0  0  0  0  0  0  0  0
  -20.5950   -5.6394   24.8085 C   0  0  0  0  0  0  0  0  0  0  0  0
  -23.8757  -10.4082   20.9200 C   0  0  0  0  0  0  0  0  0  0  0  0
  -30.1805  -18.4727   24.2482 C   0  0  0  0  0  0  0  0  0  0  0  0
  -24.1105  -12.9480   20.8794 C   0  0  0  0  0  0  0  0  0  0  0  0
  -34.8214  -30.2386   17.6899 C   0  0  0  0  0  0  0  0  0  0  0  0
  -31.8093  -26.3884   23.7318 C   0  0  0  0  0  0  0  0  0  0  0  0
  -33.8884  -30.3126   18.7417 C   0  0  0  0  0  0  0  0  0  0  0  0
  -30.5745  -25.7312   23.6049 C   0  0  0  0  0  0  0  0  0  0  0  0
  -30.4622  -16.7872   22.5403 C   0  0  0  0  0  0  0  0  0  0  0  0
  -22.4871   -8.0266   21.3474 C   0  0  0  0  0  0  0  0  0  0  0  0
  -30.8418  -24.8061   25.8221 C   0  0  0  0  0  0  0  0  0  0  0  0
  -21.0626   -6.7551   22.7172 C   0  0  0  0  0  0  0  0  0  0  0  0
  -19.5571   -6.5379   25.0557 C   0  0  0  0  0  0  0  0  0  0  0  0
  -31.5646  -18.5439   24.4061 C   0  0  0  0  0  0  0  0  0  0  0  0
  -21.3478   -5.7481   23.6392 C   0  0  0  0  0  0  0  0  0  0  0  0
  -24.5935  -11.6380   20.6997 C   0  0  0  0  0  0  0  0  0  0  0  0
  -25.1696  -13.7540   20.5397 C   0  0  0  0  0  0  0  0  0  0  0  0
  -29.2965  -19.3254   25.0680 C   0  0  0  0  0  0  0  0  0  0  0  0
  -22.8201  -13.3964   21.3147 C   0  0  0  0  0  0  0  0  0  0  0  0
  -31.5774  -27.8870   20.3001 C   0  0  0  0  0  0  0  0  0  0  0  0
  -28.6398  -19.6768   28.4040 C   0  0  0  0  0  0  0  0  0  0  0  0
  -29.7381  -21.7757   27.4640 C   0  0  0  0  0  0  0  0  0  0  0  0
  -30.5467  -25.0057   20.0857 C   0  0  0  0  0  0  0  0  0  0  0  0
  -29.8845  -21.6609   20.1889 C   0  0  0  0  0  0  0  0  0  0  0  0
  -30.5871  -15.0232   20.7461 C   0  0  0  0  0  0  0  0  0  0  0  0
  -34.5549  -29.4236   16.4490 C   0  0  0  0  0  0  0  0  0  0  0  0
  -32.2596  -27.2853   22.6108 C   0  0  0  0  0  0  0  0  0  0  0  0
  -29.7975  -25.9291   22.3321 C   0  0  0  0  0  0  0  0  0  0  0  0
  -33.4501  -28.3855   16.6278 C   0  0  0  0  0  0  0  0  0  0  0  0
  -29.5718  -12.6402   18.3033 C   0  0  0  0  0  0  0  0  0  0  0  0
  -32.2404  -29.0068   17.3188 C   0  0  0  0  0  0  0  0  0  0  0  0
  -28.1464  -12.2748   18.7238 C   0  0  0  0  0  0  0  0  0  0  0  0
  -30.4783  -12.8695   19.5113 C   0  0  0  0  0  0  0  0  0  0  0  0
  -28.5446  -13.4691   20.9151 C   0  0  0  0  0  0  0  0  0  0  0  0
  -32.6046  -29.5117   18.7202 C   0  0  1  0  0  0  0  0  0  0  0  0
  -31.8909  -26.7425   21.2184 C   0  0  1  0  0  0  0  0  0  0  0  0
  -27.5781  -13.2921   19.7326 C   0  0  2  0  0  0  0  0  0  0  0  0
  -27.7893  -20.2951   29.4842 C   0  0  0  0  0  0  0  0  0  0  0  0
  -29.1632  -19.7498   18.7312 C   0  0  0  0  0  0  0  0  0  0  0  0
  -27.6811  -26.0493   20.1417 C   0  0  0  0  0  0  0  0  0  0  0  0
  -26.9047  -23.7425   19.5553 C   0  0  0  0  0  0  0  0  0  0  0  0
  -28.3685  -25.0029   17.9768 C   0  0  0  0  0  0  0  0  0  0  0  0
  -32.3957  -20.1777   20.6917 C   0  0  0  0  0  0  0  0  0  0  0  0
  -29.5547  -22.9180   26.4825 C   0  0  0  0  0  0  0  0  0  1  0  0
  -28.9278  -20.5293   27.1921 C   0  0  1  0  0  0  0  0  0  0  0  0
  -29.3544  -24.0833   20.1156 C   0  0  1  0  0  0  0  0  0  0  0  0
  -30.3450  -20.5149   19.3062 C   0  0  2  0  0  0  0  0  0  0  0  0
  -28.0931  -24.7240   19.4705 C   0  0  0  0  0  0  0  0  0  0  0  0
  -25.8606  -11.6088   20.2784 N   0  0  0  0  0  0  0  0  0  0  0  0
  -26.1828  -12.9105   20.1904 N   0  0  0  0  0  0  0  0  0  0  0  0
  -30.7047  -25.8706   21.1754 N   0  0  0  0  0  0  0  0  0  0  0  0
  -29.8777  -13.8477   20.4209 N   0  0  0  0  0  0  0  0  0  0  0  0
  -25.3235  -15.0948   20.5086 N   0  0  0  0  0  0  0  0  0  0  0  0
  -21.8479  -12.4352   21.6233 N   0  0  0  0  0  0  0  0  0  0  0  0
  -29.9025  -15.8939   21.5934 N   0  0  0  0  0  0  0  0  0  0  0  0
  -29.7015  -19.6795   26.2993 N   0  0  0  0  0  0  0  0  0  0  0  0
  -32.6814  -28.4065   19.6514 N   0  0  0  0  0  0  0  0  0  0  0  0
  -29.7836  -22.8408   19.4827 N   0  0  0  0  0  0  0  0  0  0  0  0
  -28.1296  -19.7048   24.5468 N   0  3  0  0  0  0  0  0  0  0  0  0
  -31.1849  -19.5640   20.0881 N   0  3  0  0  0  0  0  0  0  0  0  0
  -22.5323  -14.6135   21.4108 O   0  0  0  0  0  0  0  0  0  0  0  0
  -30.4191  -28.2706   20.1864 O   0  0  0  0  0  0  0  0  0  0  0  0
  -29.0598  -18.5248   28.5111 O   0  0  0  0  0  0  0  0  0  0  0  0
  -30.5009  -21.8676   28.4256 O   0  0  0  0  0  0  0  0  0  0  0  0
  -31.3155  -24.9666   19.1209 O   0  0  0  0  0  0  0  0  0  0  0  0
  -29.6353  -21.5223   21.3844 O   0  0  0  0  0  0  0  0  0  0  0  0
  -31.7073  -15.2540   20.2838 O   0  0  0  0  0  0  0  0  0  0  0  0
  -21.8096   -6.8648   21.5563 O   0  0  0  0  0  0  0  0  0  0  0  0
  -30.3801  -24.0263   26.8387 O   0  0  0  0  0  0  0  0  0  1  0  0
  -18.8351   -6.4347   26.1792 F   0  0  0  0  0  0  0  0  0  0  0  0
  -32.1033  -19.3847   25.3002 F   0  0  0  0  0  0  0  0  0  0  0  0
  -22.3445   -4.8827   23.4077 F   0  0  0  0  0  0  0  0  0  0  0  0
  1  2  1  0  0  0  0
  1  5  2  0  0  0  0
  2  6  2  0  0  0  0
  3  9  2  0  0  0  0
  3 18  1  0  0  0  0
  4 10  1  0  0  0  0
  4 18  2  0  0  0  0
  5 21  1  0  0  0  0
  6 23  1  0  0  0  0
  7 11  2  0  0  0  0
  7 22  1  0  0  0  0
  8 13  2  0  0  0  0
  8 25  1  0  0  0  0
  9 26  1  0  0  0  0
 10 26  2  0  0  0  0
 11 27  1  0  0  0  0
 12 14  2  0  0  0  0
 12 28  1  0  0  0  0
 13 30  1  0  0  0  0
 14 29  1  0  0  0  0
 15 19  1  0  0  0  0
 15 25  2  0  0  0  0
 16 24  1  0  0  0  0
 16 27  2  0  0  0  0
 17 29  2  0  0  0  0
 17 31  1  0  0  0  0
 18 32  1  0  0  0  0
 19 30  2  0  0  0  0
 19 34  1  0  0  0  0
 20 32  1  0  0  0  0
 20 33  2  0  0  0  0
 20 35  1  0  0  0  0
 21 23  2  0  0  0  0
 21 42  1  0  0  0  0
 22 24  2  0  0  0  0
 22 43  1  0  0  0  0
 23 51  1  0  0  0  0
 24 44  1  0  0  0  0
 25 71  1  0  0  0  0
 26 84  1  0  0  0  0
 27 85  1  0  0  0  0
 28 31  2  0  0  0  0
 28 84  1  0  0  0  0
 29 86  1  0  0  0  0
 30 87  1  0  0  0  0
 31 88  1  0  0  0  0
 32 65  2  0  0  0  0
 33 66  1  0  0  0  0
 33 69  1  0  0  0  0
 34 72  1  0  0  0  0
 34 75  2  0  0  0  0
 35 70  1  0  0  0  0
 35 77  2  0  0  0  0
 36 52  1  0  0  0  0
 36 73  1  0  0  0  0
 36 78  2  0  0  0  0
 37 54  1  0  0  0  0
 37 61  1  0  0  0  0
 37 79  2  0  0  0  0
 38 60  1  0  0  0  0
 38 61  1  0  0  0  0
 38 80  2  0  0  0  0
 39 62  1  0  0  0  0
 39 67  1  0  0  0  0
 39 81  2  0  0  0  0
 40 63  1  0  0  0  0
 40 74  1  0  0  0  0
 40 82  2  0  0  0  0
 41 68  1  0  0  0  0
 41 71  1  0  0  0  0
 41 83  2  0  0  0  0
 42 45  1  0  0  0  0
 43 52  1  0  0  0  0
 44 67  1  0  0  0  0
 45 47  1  0  0  0  0
 46 48  1  0  0  0  0
 46 49  1  0  0  0  0
 47 51  1  0  0  0  0
 48 53  1  0  0  0  0
 49 68  1  0  0  0  0
 50 53  1  0  0  0  0
 50 68  1  0  0  0  0
 51 73  1  0  0  0  0
 52 67  1  0  0  0  0
 53 66  1  0  0  0  0
 55 63  1  0  0  0  0
 56 64  1  0  0  0  0
 57 64  1  0  0  0  0
 58 64  1  0  0  0  0
 59 76  1  0  0  0  0
 60 85  1  0  0  0  0
 61 72  1  0  0  0  0
 62 64  1  0  0  0  0
 62 74  1  0  0  0  0
 63 76  1  0  0  0  0
 65 66  1  0  0  0  0
M  CHG  2  75   1  76   1
M  ISO  4  41 100  60 101  71 100  85 101
M  END
> <Batch ID>
0163

> <Smiles>
CNC(C)C(=O)NC(C(=O)N1Cc2cc([101O:1][101CH2:1]C(=O)C(NC(=N)c3cc([100NH:0][100C:0](=O)N4CCCC(n5nc(-c6ccc(Oc7ccc(F)cc7F)cc6)c(C(N)=O)c5N)C4)ccc3F)C(C)=O)ccc2CC1C(=O)NC1CCCc2ccccc21)C(C)(C)C

> <Shape>
0.240

> <Color>
0.183

> <Negative vol penalty>
0.000

$$$$

  -OEChem-04052303593D

 86 94  0     1  0  0  0  0  0999 V2000
  -22.5168  -31.8825   14.0766 C   0  0  0  0  0  0  0  0  0  0  0  0
  -23.3140  -30.9520   14.7354 C   0  0  0  0  0  0  0  0  0  0  0  0
  -26.5620  -18.5168   15.9393 C   0  0  0  0  0  0  0  0  0  0  0  0
  -22.9580  -10.2521   19.8861 C   0  0  0  0  0  0  0  0  0  0  0  0
  -23.6789   -9.8641   22.1592 C   0  0  0  0  0  0  0  0  0  0  0  0
  -27.5840  -17.5782   16.0814 C   0  0  0  0  0  0  0  0  0  0  0  0
  -22.3656  -33.1652   14.6016 C   0  0  0  0  0  0  0  0  0  0  0  0
  -23.9615  -31.3042   15.9191 C   0  0  0  0  0  0  0  0  0  0  0  0
  -23.5625  -27.7336   19.4880 C   0  0  0  0  0  0  0  0  0  0  0  0
  -26.5946  -19.7004   16.6766 C   0  0  0  0  0  0  0  0  0  0  0  0
  -22.0443   -9.2041   19.9970 C   0  0  0  0  0  0  0  0  0  0  0  0
  -22.7651   -8.8161   22.2701 C   0  0  0  0  0  0  0  0  0  0  0  0
  -24.3952  -26.6214   19.3719 C   0  0  0  0  0  0  0  0  0  0  0  0
  -19.4453   -8.4525   22.7872 C   0  0  0  0  0  0  0  0  0  0  0  0
  -18.6752   -8.3864   23.9483 C   0  0  0  0  0  0  0  0  0  0  0  0
  -25.8850  -27.5731   21.0133 C   0  0  0  0  0  0  0  0  0  0  0  0
  -19.5977   -6.2073   24.4359 C   0  0  0  0  0  0  0  0  0  0  0  0
  -23.7754  -10.5821   20.9672 C   0  0  0  0  0  0  0  0  0  0  0  0
  -28.6385  -17.8232   16.9609 C   0  0  0  0  0  0  0  0  0  0  0  0
  -24.4985  -13.0212   21.1551 C   0  0  0  0  0  0  0  0  0  0  0  0
  -23.0038  -33.5303   15.7974 C   0  0  0  0  0  0  0  0  0  0  0  0
  -23.8910  -28.7806   20.3611 C   0  0  0  0  0  0  0  0  0  0  0  0
  -23.8197  -32.5934   16.4599 C   0  0  0  0  0  0  0  0  0  0  0  0
  -25.0535  -28.6962   21.1405 C   0  0  0  0  0  0  0  0  0  0  0  0
  -28.6711  -19.0068   17.6983 C   0  0  0  0  0  0  0  0  0  0  0  0
  -27.6491  -19.9454   17.5562 C   0  0  0  0  0  0  0  0  0  0  0  0
  -21.9478   -8.4861   21.1890 C   0  0  0  0  0  0  0  0  0  0  0  0
  -25.5582  -26.5424   20.1324 C   0  0  0  0  0  0  0  0  0  0  0  0
  -20.2916   -7.3960   22.4504 C   0  0  0  0  0  0  0  0  0  0  0  0
  -18.7514   -7.2638   24.7727 C   0  0  0  0  0  0  0  0  0  0  0  0
  -20.3678   -6.2735   23.2748 C   0  0  0  0  0  0  0  0  0  0  0  0
  -24.7199  -11.6642   20.8531 C   0  0  0  0  0  0  0  0  0  0  0  0
  -25.6967  -13.6340   20.8806 C   0  0  0  0  0  0  0  0  0  0  0  0
  -29.7115  -16.8040   17.0902 C   0  0  0  0  0  0  0  0  0  0  0  0
  -23.3156  -13.6699   21.6404 C   0  0  0  0  0  0  0  0  0  0  0  0
  -24.5397  -31.8727   20.0117 C   0  0  0  0  0  0  0  0  0  0  0  0
  -26.9685  -23.2927   19.1101 C   0  0  0  0  0  0  0  0  0  0  0  0
  -24.5363  -31.8408   23.2553 C   0  0  0  0  0  0  0  0  0  0  0  0
  -24.9064  -30.0478   26.1355 C   0  0  0  0  0  0  0  0  0  0  0  0
  -30.1381  -14.4355   17.6666 C   0  0  0  0  0  0  0  0  0  0  0  0
  -22.8484  -34.9433   16.3012 C   0  0  0  0  0  0  0  0  0  0  0  0
  -22.9685  -29.9611   20.4945 C   0  0  0  0  0  0  0  0  0  0  0  0
  -25.4406  -29.7841   22.1075 C   0  0  0  0  0  0  0  0  0  0  0  0
  -23.2677  -35.1201   17.7583 C   0  0  0  0  0  0  0  0  0  0  0  0
  -30.2495  -11.6639   19.8581 C   0  0  0  0  0  0  0  0  0  0  0  0
  -24.6085  -34.4394   18.0143 C   0  0  0  0  0  0  0  0  0  0  0  0
  -28.8042  -11.5307   20.3456 C   0  0  0  0  0  0  0  0  0  0  0  0
  -30.3168  -12.0701   18.3866 C   0  0  0  0  0  0  0  0  0  0  0  0
  -28.0984  -13.1278   18.5194 C   0  0  0  0  0  0  0  0  0  0  0  0
  -24.5184  -32.9299   17.7594 C   0  0  1  0  0  0  0  0  0  0  0  0
  -23.6652  -31.2058   21.0355 C   0  0  1  0  0  0  0  0  0  0  0  0
  -27.9770  -12.7890   20.0139 C   0  0  1  0  0  0  0  0  0  0  0  0
  -30.8105  -20.2598   18.0717 C   0  0  0  0  0  0  0  0  0  0  0  0
  -24.8846  -30.3037   28.6318 C   0  0  0  0  0  0  0  0  0  0  0  0
  -27.3051  -33.1181   23.1462 C   0  0  0  0  0  0  0  0  0  0  0  0
  -27.6173  -32.4806   25.5471 C   0  0  0  0  0  0  0  0  0  0  0  0
  -25.7926  -34.0551   24.9036 C   0  0  0  0  0  0  0  0  0  0  0  0
  -22.6334  -28.1746   26.4238 C   0  0  0  0  0  0  0  0  0  0  0  0
  -29.8029  -19.2687   18.6426 C   0  0  0  0  0  0  0  0  0  0  0  0
  -26.6427  -22.1408   18.1832 C   0  0  0  0  0  0  0  0  0  0  0  0
  -25.9756  -24.4387   19.1046 C   0  0  0  0  0  0  0  0  0  1  0  0
  -25.5766  -31.6038   24.3233 C   0  0  1  0  0  0  0  0  0  0  0  0
  -24.0616  -29.9791   27.3948 C   0  0  2  0  0  0  0  0  0  0  0  0
  -26.5669  -32.7946   24.4605 C   0  0  0  0  0  0  0  0  0  0  0  0
  -25.9611  -11.4282   20.4197 N   0  0  0  0  0  0  0  0  0  0  0  0
  -26.5304  -12.6453   20.4473 N   0  0  0  0  0  0  0  0  0  0  0  0
  -24.5094  -30.9209   22.1976 N   0  0  0  0  0  0  0  0  0  0  0  0
  -29.5163  -13.2742   18.1576 N   0  0  0  0  0  0  0  0  0  0  0  0
  -26.1079  -14.9167   20.9698 N   0  0  0  0  0  0  0  0  0  0  0  0
  -22.1728  -12.8914   21.8692 N   0  0  0  0  0  0  0  0  0  0  0  0
  -27.6633  -21.1288   18.2804 N   0  0  0  0  0  0  0  0  0  0  0  0
  -29.2964  -15.5441   17.5225 N   0  0  0  0  0  0  0  0  0  0  0  0
  -23.8686  -32.2677   18.8702 N   0  0  0  0  0  0  0  0  0  0  0  0
  -24.8434  -31.2925   25.5455 N   0  0  0  0  0  0  0  0  0  0  0  0
  -23.4857  -28.6143   27.5584 N   0  3  0  0  0  0  0  0  0  0  0  0
  -30.8616  -17.1039   16.7816 O   0  0  0  0  0  0  0  0  0  0  0  0
  -23.2683  -14.9059   21.8490 O   0  0  0  0  0  0  0  0  0  0  0  0
  -25.7345  -32.0194   20.2411 O   0  0  0  0  0  0  0  0  0  0  0  0
  -27.9698  -23.3088   19.8248 O   0  0  0  0  0  0  0  0  0  0  0  0
  -23.7708  -32.8024   23.3596 O   0  0  0  0  0  0  0  0  0  0  0  0
  -25.5601  -29.0940   25.7189 O   0  0  0  0  0  0  0  0  0  0  0  0
  -31.3458  -14.4922   17.4144 O   0  0  0  0  0  0  0  0  0  0  0  0
  -21.0560   -7.4636   21.2977 O   0  0  0  0  0  0  0  0  0  0  0  0
  -26.3731  -25.4582   20.0205 O   0  0  0  0  0  0  0  0  0  1  0  0
  -18.0130   -7.2010   25.8884 F   0  0  0  0  0  0  0  0  0  0  0  0
  -21.1798   -5.2559   22.9570 F   0  0  0  0  0  0  0  0  0  0  0  0
  1  2  1  0  0  0  0
  1  7  2  0  0  0  0
  2  8  2  0  0  0  0
  3  6  2  0  0  0  0
  3 10  1  0  0  0  0
  4 11  2  0  0  0  0
  4 18  1  0  0  0  0
  5 12  1  0  0  0  0
  5 18  2  0  0  0  0
  6 19  1  0  0  0  0
  7 21  1  0  0  0  0
  8 23  1  0  0  0  0
  9 13  2  0  0  0  0
  9 22  1  0  0  0  0
 10 26  2  0  0  0  0
 11 27  1  0  0  0  0
 12 27  2  0  0  0  0
 13 28  1  0  0  0  0
 14 15  2  0  0  0  0
 14 29  1  0  0  0  0
 15 30  1  0  0  0  0
 16 24  1  0  0  0  0
 16 28  2  0  0  0  0
 17 30  2  0  0  0  0
 17 31  1  0  0  0  0
 18 32  1  0  0  0  0
 19 25  2  0  0  0  0
 19 34  1  0  0  0  0
 20 32  1  0  0  0  0
 20 33  2  0  0  0  0
 20 35  1  0  0  0  0
 21 23  2  0  0  0  0
 21 41  1  0  0  0  0
 22 24  2  0  0  0  0
 22 42  1  0  0  0  0
 23 50  1  0  0  0  0
 24 43  1  0  0  0  0
 25 26  1  0  0  0  0
 25 59  1  0  0  0  0
 26 71  1  0  0  0  0
 27 83  1  0  0  0  0
 28 84  1  0  0  0  0
 29 31  2  0  0  0  0
 29 83  1  0  0  0  0
 30 85  1  0  0  0  0
 31 86  1  0  0  0  0
 32 65  2  0  0  0  0
 33 66  1  0  0  0  0
 33 69  1  0  0  0  0
 34 72  1  0  0  0  0
 34 76  2  0  0  0  0
 35 70  1  0  0  0  0
 35 77  2  0  0  0  0
 36 51  1  0  0  0  0
 36 73  1  0  0  0  0
 36 78  2  0  0  0  0
 37 60  1  0  0  0  0
 37 61  1  0  0  0  0
 37 79  2  0  0  0  0
 38 62  1  0  0  0  0
 38 67  1  0  0  0  0
 38 80  2  0  0  0  0
 39 63  1  0  0  0  0
 39 74  1  0  0  0  0
 39 81  2  0  0  0  0
 40 68  1  0  0  0  0
 40 72  1  0  0  0  0
 40 82  2  0  0  0  0
 41 44  1  0  0  0  0
 42 51  1  0  0  0  0
 43 67  1  0  0  0  0
 44 46  1  0  0  0  0
 45 47  1  0  0  0  0
 45 48  1  0  0  0  0
 46 50  1  0  0  0  0
 47 52  1  0  0  0  0
 48 68  1  0  0  0  0
 49 52  1  0  0  0  0
 49 68  1  0  0  0  0
 50 73  1  0  0  0  0
 51 67  1  0  0  0  0
 52 66  1  0  0  0  0
 53 59  1  0  0  0  0
 54 63  1  0  0  0  0
 55 64  1  0  0  0  0
 56 64  1  0  0  0  0
 57 64  1  0  0  0  0
 58 75  1  0  0  0  0
 60 71  1  0  0  0  0
 61 84  1  0  0  0  0
 62 64  1  0  0  0  0
 62 74  1  0  0  0  0
 63 75  1  0  0  0  0
 65 66  1  0  0  0  0
M  CHG  1  75   1
M  ISO  4  40 100  61 101  72 100  84 101
M  END
> <Batch ID>
0163

> <Smiles>
CCc1c(NCC(=O)[101CH2:1][101O:1]c2ccc3c(c2)CN(C(=O)C(NC(=O)C(C)NC)C(C)(C)C)C(C(=O)NC2CCCc4ccccc42)C3)cccc1C(=O)[100NH:0][100C:0](=O)N1CCCC(n2nc(-c3ccc(Oc4ccc(F)cc4F)cc3)c(C(N)=O)c2N)C1

> <Shape>
0.269

> <Color>
0.144

> <Negative vol penalty>
0.000

$$$$

  -OEChem-04052303593D

 83 91  0     1  0  0  0  0  0999 V2000
  -29.5367  -35.8135   23.4267 C   0  0  0  0  0  0  0  0  0  0  0  0
  -29.3026  -34.4442   23.5031 C   0  0  0  0  0  0  0  0  0  0  0  0
  -24.6171   -8.5111   21.3319 C   0  0  0  0  0  0  0  0  0  0  0  0
  -23.3940  -10.5232   21.8727 C   0  0  0  0  0  0  0  0  0  0  0  0
  -28.4731  -36.7084   23.5346 C   0  0  0  0  0  0  0  0  0  0  0  0
  -28.0048  -33.9692   23.6885 C   0  0  0  0  0  0  0  0  0  0  0  0
  -26.9074  -30.0755   20.6422 C   0  0  0  0  0  0  0  0  0  0  0  0
  -23.9502   -7.8316   22.3513 C   0  0  0  0  0  0  0  0  0  0  0  0
  -22.7271   -9.8437   22.8922 C   0  0  0  0  0  0  0  0  0  0  0  0
  -27.4087  -28.8251   21.0013 C   0  0  0  0  0  0  0  0  0  0  0  0
  -20.9232   -6.4019   22.8264 C   0  0  0  0  0  0  0  0  0  0  0  0
  -20.4268   -5.1301   22.5409 C   0  0  0  0  0  0  0  0  0  0  0  0
  -25.2580  -28.2335   21.9198 C   0  0  0  0  0  0  0  0  0  0  0  0
  -26.9230  -18.2139   21.0145 C   0  0  0  0  0  0  0  0  0  0  0  0
  -21.8092   -4.1979   24.2894 C   0  0  0  0  0  0  0  0  0  0  0  0
  -29.1101  -18.4703   20.6582 C   0  0  0  0  0  0  0  0  0  0  0  0
  -24.3391   -9.8569   21.0926 C   0  0  0  0  0  0  0  0  0  0  0  0
  -24.6295  -10.6789   18.6952 C   0  0  0  0  0  0  0  0  0  0  0  0
  -27.1603  -36.2438   23.7118 C   0  0  0  0  0  0  0  0  0  0  0  0
  -25.5785  -30.4189   20.9294 C   0  0  0  0  0  0  0  0  0  0  0  0
  -26.9228  -34.8588   23.8002 C   0  0  0  0  0  0  0  0  0  0  0  0
  -24.7416  -29.4879   21.5609 C   0  0  0  0  0  0  0  0  0  0  0  0
  -28.1205  -17.5173   20.7252 C   0  0  0  0  0  0  0  0  0  0  0  0
  -23.0052   -8.4980   23.1314 C   0  0  0  0  0  0  0  0  0  0  0  0
  -26.5848  -27.9049   21.6428 C   0  0  0  0  0  0  0  0  0  0  0  0
  -21.8628   -6.5718   23.8434 C   0  0  0  0  0  0  0  0  0  0  0  0
  -20.8697   -4.0281   23.2724 C   0  0  0  0  0  0  0  0  0  0  0  0
  -22.3057   -5.4698   24.5749 C   0  0  0  0  0  0  0  0  0  0  0  0
  -25.0280  -10.5594   20.0401 C   0  0  0  0  0  0  0  0  0  0  0  0
  -27.2662  -19.5429   21.1040 C   0  0  0  0  0  0  0  0  0  0  0  0
  -25.6152  -11.4362   18.1109 C   0  0  0  0  0  0  0  0  0  0  0  0
  -23.4717  -10.1525   18.0333 C   0  0  0  0  0  0  0  0  0  0  0  0
  -26.3244  -20.6425   21.3947 C   0  0  0  0  0  0  0  0  0  0  0  0
  -24.1714  -32.6500   22.7031 C   0  0  0  0  0  0  0  0  0  0  0  0
  -26.8447  -24.2876   21.7196 C   0  0  0  0  0  0  0  0  0  0  0  0
  -21.4686  -31.4569   21.3637 C   0  0  0  0  0  0  0  0  0  0  0  0
  -19.8942  -28.8230   19.8702 C   0  0  0  0  0  0  0  0  0  0  0  0
  -29.4857  -15.4537   20.2516 C   0  0  0  0  0  0  0  0  0  0  0  0
  -26.0490  -37.2510   23.8706 C   0  0  0  0  0  0  0  0  0  0  0  0
  -25.0454  -31.7619   20.5114 C   0  0  0  0  0  0  0  0  0  0  0  0
  -23.3017  -29.8001   21.8736 C   0  0  0  0  0  0  0  0  0  0  0  0
  -24.6556  -36.6540   23.6905 C   0  0  0  0  0  0  0  0  0  0  0  0
  -30.2779  -12.4577   18.4985 C   0  0  0  0  0  0  0  0  0  0  0  0
  -24.5263  -35.3535   24.4771 C   0  0  0  0  0  0  0  0  0  0  0  0
  -28.9833  -11.6444   18.5672 C   0  0  0  0  0  0  0  0  0  0  0  0
  -30.5226  -13.2441   19.7851 C   0  0  0  0  0  0  0  0  0  0  0  0
  -28.1103  -13.2805   20.2842 C   0  0  0  0  0  0  0  0  0  0  0  0
  -25.5259  -34.3040   23.9760 C   0  0  1  0  0  0  0  0  0  0  0  0
  -23.8226  -32.1955   21.3140 C   0  0  1  0  0  0  0  0  0  0  0  0
  -27.7878  -12.5223   18.9862 C   0  0  2  0  0  0  0  0  0  0  0  0
  -17.6751  -28.1349   18.9217 C   0  0  0  0  0  0  0  0  0  0  0  0
  -20.3708  -31.1105   24.1895 C   0  0  0  0  0  0  0  0  0  0  0  0
  -18.6214  -29.5869   23.2481 C   0  0  0  0  0  0  0  0  0  0  0  0
  -18.7149  -31.9726   22.5254 C   0  0  0  0  0  0  0  0  0  0  0  0
  -21.0484  -28.3874   17.1801 C   0  0  0  0  0  0  0  0  0  0  0  0
  -25.9689  -23.0624   21.7325 C   0  0  0  0  0  0  0  0  0  0  0  0
  -26.1460  -25.5984   22.0210 C   0  0  0  0  0  0  0  0  0  1  0  0
  -20.4912  -30.3633   21.7210 C   0  0  1  0  0  0  0  0  0  0  0  0
  -19.0378  -28.7389   18.6197 C   0  0  2  0  0  0  0  0  0  0  0  0
  -19.5772  -30.7528   22.9170 C   0  0  0  0  0  0  0  0  0  0  0  0
  -26.1774  -11.1901   20.2952 N   0  0  0  0  0  0  0  0  0  0  0  0
  -26.5096  -11.7131   19.1026 N   0  0  0  0  0  0  0  0  0  0  0  0
  -22.8289  -31.1287   21.4507 N   0  0  0  0  0  0  0  0  0  0  0  0
  -29.3497  -14.0558   20.1173 N   0  0  0  0  0  0  0  0  0  0  0  0
  -25.7955  -11.8854   16.8507 N   0  0  0  0  0  0  0  0  0  0  0  0
  -22.5600   -9.3961   18.7823 N   0  0  0  0  0  0  0  0  0  0  0  0
  -25.0413  -20.3362   21.5870 N   0  0  0  0  0  0  0  0  0  0  0  0
  -28.2966  -16.1241   20.5365 N   0  0  0  0  0  0  0  0  0  0  0  0
  -25.0581  -33.7090   22.7425 N   0  0  0  0  0  0  0  0  0  0  0  0
  -19.7676  -30.0458   20.4946 N   0  0  0  0  0  0  0  0  0  0  0  0
  -26.7978  -21.8978   21.4505 N   0  3  0  0  0  0  0  0  0  0  0  0
  -19.7074  -27.8961   17.5890 N   0  3  0  0  0  0  0  0  0  0  0  0
  -23.2605  -10.3334   16.8101 O   0  0  0  0  0  0  0  0  0  0  0  0
  -23.6717  -32.0829   23.6676 O   0  0  0  0  0  0  0  0  0  0  0  0
  -28.0504  -24.2362   21.4803 O   0  0  0  0  0  0  0  0  0  0  0  0
  -21.0408  -32.5596   21.0133 O   0  0  0  0  0  0  0  0  0  0  0  0
  -20.6016  -27.8953   20.2567 O   0  0  0  0  0  0  0  0  0  0  0  0
  -30.5718  -16.0179   20.0966 O   0  0  0  0  0  0  0  0  0  0  0  0
  -28.5977  -19.7076   20.8881 O   0  0  0  0  0  0  0  0  0  0  0  0
  -22.3541   -7.8352   24.1261 O   0  0  0  0  0  0  0  0  0  0  0  0
  -27.0717  -26.6840   21.9951 O   0  0  0  0  0  0  0  0  0  1  0  0
  -20.3917   -2.8070   22.9992 F   0  0  0  0  0  0  0  0  0  0  0  0
  -23.2073   -5.6269   25.5538 F   0  0  0  0  0  0  0  0  0  0  0  0
  1  2  1  0  0  0  0
  1  5  2  0  0  0  0
  2  6  2  0  0  0  0
  3  8  2  0  0  0  0
  3 17  1  0  0  0  0
  4  9  1  0  0  0  0
  4 17  2  0  0  0  0
  5 19  1  0  0  0  0
  6 21  1  0  0  0  0
  7 10  2  0  0  0  0
  7 20  1  0  0  0  0
  8 24  1  0  0  0  0
  9 24  2  0  0  0  0
 10 25  1  0  0  0  0
 11 12  2  0  0  0  0
 11 26  1  0  0  0  0
 12 27  1  0  0  0  0
 13 22  1  0  0  0  0
 13 25  2  0  0  0  0
 14 23  1  0  0  0  0
 14 30  2  0  0  0  0
 15 27  2  0  0  0  0
 15 28  1  0  0  0  0
 16 23  2  0  0  0  0
 16 79  1  0  0  0  0
 17 29  1  0  0  0  0
 18 29  1  0  0  0  0
 18 31  2  0  0  0  0
 18 32  1  0  0  0  0
 19 21  2  0  0  0  0
 19 39  1  0  0  0  0
 20 22  2  0  0  0  0
 20 40  1  0  0  0  0
 21 48  1  0  0  0  0
 22 41  1  0  0  0  0
 23 68  1  0  0  0  0
 24 80  1  0  0  0  0
 25 81  1  0  0  0  0
 26 28  2  0  0  0  0
 26 80  1  0  0  0  0
 27 82  1  0  0  0  0
 28 83  1  0  0  0  0
 29 61  2  0  0  0  0
 30 33  1  0  0  0  0
 30 79  1  0  0  0  0
 31 62  1  0  0  0  0
 31 65  1  0  0  0  0
 32 66  1  0  0  0  0
 32 73  2  0  0  0  0
 33 67  1  0  0  0  0
 33 71  2  0  0  0  0
 34 49  1  0  0  0  0
 34 69  1  0  0  0  0
 34 74  2  0  0  0  0
 35 56  1  0  0  0  0
 35 57  1  0  0  0  0
 35 75  2  0  0  0  0
 36 58  1  0  0  0  0
 36 63  1  0  0  0  0
 36 76  2  0  0  0  0
 37 59  1  0  0  0  0
 37 70  1  0  0  0  0
 37 77  2  0  0  0  0
 38 64  1  0  0  0  0
 38 68  1  0  0  0  0
 38 78  2  0  0  0  0
 39 42  1  0  0  0  0
 40 49  1  0  0  0  0
 41 63  1  0  0  0  0
 42 44  1  0  0  0  0
 43 45  1  0  0  0  0
 43 46  1  0  0  0  0
 44 48  1  0  0  0  0
 45 50  1  0  0  0  0
 46 64  1  0  0  0  0
 47 50  1  0  0  0  0
 47 64  1  0  0  0  0
 48 69  1  0  0  0  0
 49 63  1  0  0  0  0
 50 62  1  0  0  0  0
 51 59  1  0  0  0  0
 52 60  1  0  0  0  0
 53 60  1  0  0  0  0
 54 60  1  0  0  0  0
 55 72  1  0  0  0  0
 56 71  1  0  0  0  0
 57 81  1  0  0  0  0
 58 60  1  0  0  0  0
 58 70  1  0  0  0  0
 59 72  1  0  0  0  0
 61 62  1  0  0  0  0
M  CHG  2  71   1  72   1
M  ISO  4  38 100  57 101  68 100  81 101
M  END
> <Batch ID>
0163

> <Smiles>
CNC(C)C(=O)NC(C(=O)N1Cc2cc([101O:1][101CH2:1]C(=O)CNC(=N)c3cc([100NH:0][100C:0](=O)N4CCCC(n5nc(-c6ccc(Oc7ccc(F)cc7F)cc6)c(C(N)=O)c5N)C4)co3)ccc2CC1C(=O)NC1CCCc2ccccc21)C(C)(C)C

> <Shape>
0.278

> <Color>
0.088

> <Negative vol penalty>
0.000

$$$$

  -OEChem-04052303593D

 86 94  0     1  0  0  0  0  0999 V2000
  -26.3376  -24.4785   16.6446 C   0  0  0  0  0  0  0  0  0  0  0  0
  -25.2149  -24.9894   17.2881 C   0  0  0  0  0  0  0  0  0  0  0  0
  -27.2480  -15.9055   22.1930 C   0  0  0  0  0  0  0  0  0  0  0  0
  -25.8187  -16.3064   20.2868 C   0  0  0  0  0  0  0  0  0  0  0  0
  -27.5970  -24.6180   17.2265 C   0  0  0  0  0  0  0  0  0  0  0  0
  -25.3508  -25.6390   18.5144 C   0  0  0  0  0  0  0  0  0  0  0  0
  -22.6661  -29.9264   18.7498 C   0  0  0  0  0  0  0  0  0  0  0  0
  -27.0992  -14.5300   22.0152 C   0  0  0  0  0  0  0  0  0  0  0  0
  -25.6700  -14.9310   20.1090 C   0  0  0  0  0  0  0  0  0  0  0  0
  -21.2950  -29.8077   18.9728 C   0  0  0  0  0  0  0  0  0  0  0  0
  -28.3603  -12.1284   19.9966 C   0  0  0  0  0  0  0  0  0  0  0  0
  -29.5061  -11.3369   20.0760 C   0  0  0  0  0  0  0  0  0  0  0  0
  -21.6352  -30.3279   21.3036 C   0  0  0  0  0  0  0  0  0  0  0  0
  -20.6031  -23.1195   20.0188 C   0  0  0  0  0  0  0  0  0  0  0  0
  -28.5355  -10.1172   21.9220 C   0  0  0  0  0  0  0  0  0  0  0  0
  -26.6077  -16.7937   21.3288 C   0  0  0  0  0  0  0  0  0  0  0  0
  -27.7476  -19.0436   20.9462 C   0  0  0  0  0  0  0  0  0  0  0  0
  -27.7496  -25.2781   18.4559 C   0  0  0  0  0  0  0  0  0  0  0  0
  -23.5348  -30.2366   19.8060 C   0  0  0  0  0  0  0  0  0  0  0  0
  -26.6132  -25.7862   19.1140 C   0  0  0  0  0  0  0  0  0  0  0  0
  -23.0166  -30.4526   21.0909 C   0  0  0  0  0  0  0  0  0  0  0  0
  -19.5730  -24.0713   19.8287 C   0  0  0  0  0  0  0  0  0  0  0  0
  -26.3102  -14.0428   20.9733 C   0  0  0  0  0  0  0  0  0  0  0  0
  -20.7797  -30.0056   20.2504 C   0  0  0  0  0  0  0  0  0  0  0  0
  -27.3022  -11.9145   20.8800 C   0  0  0  0  0  0  0  0  0  0  0  0
  -29.5937  -10.3313   21.0387 C   0  0  0  0  0  0  0  0  0  0  0  0
  -27.3898  -10.9089   21.8426 C   0  0  0  0  0  0  0  0  0  0  0  0
  -26.7605  -18.2146   21.5122 C   0  0  0  0  0  0  0  0  0  0  0  0
  -27.4588  -20.2979   21.4256 C   0  0  0  0  0  0  0  0  0  0  0  0
  -21.0443  -23.2870   21.3107 C   0  0  0  0  0  0  0  0  0  0  0  0
  -19.4580  -24.7524   21.0181 C   0  0  0  0  0  0  0  0  0  0  0  0
  -28.8288  -18.7096   20.0658 C   0  0  0  0  0  0  0  0  0  0  0  0
  -25.9754  -28.7615   21.2100 C   0  0  0  0  0  0  0  0  0  0  0  0
  -17.7345  -28.6638   21.6717 C   0  0  0  0  0  0  0  0  0  0  0  0
  -26.2440  -31.5686   22.8132 C   0  0  0  0  0  0  0  0  0  0  0  0
  -24.7429  -34.4236   23.9279 C   0  0  0  0  0  0  0  0  0  0  0  0
  -18.5725  -26.4486   22.6590 C   0  0  0  0  0  0  0  0  0  0  0  0
  -22.4268  -22.8647   23.3739 C   0  0  0  0  0  0  0  0  0  0  0  0
  -29.1251  -25.3628   19.0686 C   0  0  0  0  0  0  0  0  0  0  0  0
  -25.0082  -30.3874   19.5436 C   0  0  0  0  0  0  0  0  0  0  0  0
  -23.9044  -30.8075   22.2547 C   0  0  0  0  0  0  0  0  0  0  0  0
  -29.2303  -26.3938   20.1894 C   0  0  0  0  0  0  0  0  0  0  0  0
  -25.4725  -22.5054   25.1827 C   0  0  0  0  0  0  0  0  0  0  0  0
  -28.0534  -26.2594   21.1505 C   0  0  0  0  0  0  0  0  0  0  0  0
  -26.2409  -21.4441   24.3918 C   0  0  0  0  0  0  0  0  0  0  0  0
  -23.9725  -22.2176   25.2090 C   0  0  0  0  0  0  0  0  0  0  0  0
  -24.1247  -20.9520   23.1008 C   0  0  0  0  0  0  0  0  0  0  0  0
  -26.7231  -26.5190   20.4334 C   0  0  1  0  0  0  0  0  0  0  0  0
  -25.8602  -30.2011   20.7953 C   0  0  1  0  0  0  0  0  0  0  0  0
  -25.6320  -21.2343   22.9915 C   0  0  2  0  0  0  0  0  0  0  0  0
  -18.7859  -24.2821   18.5996 C   0  0  0  0  0  0  0  0  0  0  0  0
  -25.2083  -36.5097   25.2427 C   0  0  0  0  0  0  0  0  0  0  0  0
  -16.1159  -26.9060   22.4973 C   0  0  0  0  0  0  0  0  0  0  0  0
  -17.4895  -28.2136   24.1094 C   0  0  0  0  0  0  0  0  0  0  0  0
  -26.1499  -29.9554   25.4014 C   0  0  0  0  0  0  0  0  0  0  0  0
  -25.6618  -32.0828   26.6279 C   0  0  0  0  0  0  0  0  0  0  0  0
  -27.8148  -31.8216   25.3953 C   0  0  0  0  0  0  0  0  0  0  0  0
  -24.1024  -36.1608   21.6190 C   0  0  0  0  0  0  0  0  0  0  0  0
  -19.0327  -29.4510   21.7658 C   0  0  0  0  0  0  0  0  0  1  0  0
  -25.6700  -32.1284   24.0923 C   0  0  1  0  0  0  0  0  0  0  0  0
  -25.1697  -35.8788   23.8596 C   0  0  2  0  0  0  0  0  0  0  0  0
  -17.4961  -27.5553   22.7184 C   0  0  0  0  0  0  0  0  0  0  0  0
  -26.3074  -31.4885   25.3579 C   0  0  0  0  0  0  0  0  0  0  0  0
  -25.9084  -18.8858   22.2917 N   0  0  0  0  0  0  0  0  0  0  0  0
  -26.3593  -20.1497   22.2189 N   0  0  0  0  0  0  0  0  0  0  0  0
  -25.3386  -30.9373   21.9487 N   0  0  0  0  0  0  0  0  0  0  0  0
  -23.4647  -22.0345   23.8475 N   0  0  0  0  0  0  0  0  0  0  0  0
  -28.0406  -21.5021   21.2417 N   0  0  0  0  0  0  0  0  0  0  0  0
  -28.9810  -17.3733   19.6716 N   0  0  0  0  0  0  0  0  0  0  0  0
  -18.6048  -25.8065   21.4236 N   0  0  0  0  0  0  0  0  0  0  0  0
  -22.0490  -22.6194   22.0542 N   0  0  0  0  0  0  0  0  0  0  0  0
  -26.5206  -27.9392   20.2425 N   0  0  0  0  0  0  0  0  0  0  0  0
  -25.8277  -33.5765   24.0111 N   0  0  0  0  0  0  0  0  0  0  0  0
  -24.2214  -36.6576   23.0140 N   0  3  0  0  0  0  0  0  0  0  0  0
  -29.6459  -19.5679   19.6545 O   0  0  0  0  0  0  0  0  0  0  0  0
  -25.5991  -28.4222   22.3258 O   0  0  0  0  0  0  0  0  0  0  0  0
  -16.9017  -28.9217   20.8005 O   0  0  0  0  0  0  0  0  0  0  0  0
  -27.4501  -31.6934   22.5861 O   0  0  0  0  0  0  0  0  0  0  0  0
  -23.5648  -34.0736   23.9130 O   0  0  0  0  0  0  0  0  0  0  0  0
  -19.2833  -26.1980   23.6295 O   0  0  0  0  0  0  0  0  0  0  0  0
  -21.9298  -23.7477   24.0777 O   0  0  0  0  0  0  0  0  0  0  0  0
  -20.3513  -24.2804   21.9268 O   0  0  0  0  0  0  0  0  0  0  0  0
  -26.1650  -12.7007   20.7994 O   0  0  0  0  0  0  0  0  0  0  0  0
  -19.4419  -29.8897   20.4710 O   0  0  0  0  0  0  0  0  0  1  0  0
  -30.6933   -9.5702   21.1138 F   0  0  0  0  0  0  0  0  0  0  0  0
  -26.3760  -10.6978   22.6932 F   0  0  0  0  0  0  0  0  0  0  0  0
  1  2  1  0  0  0  0
  1  5  2  0  0  0  0
  2  6  2  0  0  0  0
  3  8  2  0  0  0  0
  3 16  1  0  0  0  0
  4  9  1  0  0  0  0
  4 16  2  0  0  0  0
  5 18  1  0  0  0  0
  6 20  1  0  0  0  0
  7 10  2  0  0  0  0
  7 19  1  0  0  0  0
  8 23  1  0  0  0  0
  9 23  2  0  0  0  0
 10 24  1  0  0  0  0
 11 12  2  0  0  0  0
 11 25  1  0  0  0  0
 12 26  1  0  0  0  0
 13 21  1  0  0  0  0
 13 24  2  0  0  0  0
 14 22  1  0  0  0  0
 14 30  2  0  0  0  0
 15 26  2  0  0  0  0
 15 27  1  0  0  0  0
 16 28  1  0  0  0  0
 17 28  1  0  0  0  0
 17 29  2  0  0  0  0
 17 32  1  0  0  0  0
 18 20  2  0  0  0  0
 18 39  1  0  0  0  0
 19 21  2  0  0  0  0
 19 40  1  0  0  0  0
 20 48  1  0  0  0  0
 21 41  1  0  0  0  0
 22 31  2  0  0  0  0
 22 51  1  0  0  0  0
 23 83  1  0  0  0  0
 24 84  1  0  0  0  0
 25 27  2  0  0  0  0
 25 83  1  0  0  0  0
 26 85  1  0  0  0  0
 27 86  1  0  0  0  0
 28 64  2  0  0  0  0
 29 65  1  0  0  0  0
 29 68  1  0  0  0  0
 30 71  1  0  0  0  0
 30 82  1  0  0  0  0
 31 70  1  0  0  0  0
 31 82  1  0  0  0  0
 32 69  1  0  0  0  0
 32 75  2  0  0  0  0
 33 49  1  0  0  0  0
 33 72  1  0  0  0  0
 33 76  2  0  0  0  0
 34 59  1  0  0  0  0
 34 62  1  0  0  0  0
 34 77  2  0  0  0  0
 35 60  1  0  0  0  0
 35 66  1  0  0  0  0
 35 78  2  0  0  0  0
 36 61  1  0  0  0  0
 36 73  1  0  0  0  0
 36 79  2  0  0  0  0
 37 62  1  0  0  0  0
 37 70  1  0  0  0  0
 37 80  2  0  0  0  0
 38 67  1  0  0  0  0
 38 71  1  0  0  0  0
 38 81  2  0  0  0  0
 39 42  1  0  0  0  0
 40 49  1  0  0  0  0
 41 66  1  0  0  0  0
 42 44  1  0  0  0  0
 43 45  1  0  0  0  0
 43 46  1  0  0  0  0
 44 48  1  0  0  0  0
 45 50  1  0  0  0  0
 46 67  1  0  0  0  0
 47 50  1  0  0  0  0
 47 67  1  0  0  0  0
 48 72  1  0  0  0  0
 49 66  1  0  0  0  0
 50 65  1  0  0  0  0
 52 61  1  0  0  0  0
 53 62  1  0  0  0  0
 54 62  1  0  0  0  0
 55 63  1  0  0  0  0
 56 63  1  0  0  0  0
 57 63  1  0  0  0  0
 58 74  1  0  0  0  0
 59 84  1  0  0  0  0
 60 63  1  0  0  0  0
 60 73  1  0  0  0  0
 61 74  1  0  0  0  0
 64 65  1  0  0  0  0
M  CHG  1  74   1
M  ISO  4  38 100  59 101  71 100  84 101
M  END
> <Batch ID>
0163

> <Smiles>
CNC(C)C(=O)NC(C(=O)N1Cc2cc([101O:1][101CH2:1]C(=O)C(C)(C)C(=O)Nc3oc([100NH:0][100C:0](=O)N4CCCC(n5nc(-c6ccc(Oc7ccc(F)cc7F)cc6)c(C(N)=O)c5N)C4)cc3C)ccc2CC1C(=O)NC1CCCc2ccccc21)C(C)(C)C

> <Shape>
0.286

> <Color>
0.059

> <Negative vol penalty>
0.000

$$$$

  -OEChem-04052303593D

 90 99  0     1  0  0  0  0  0999 V2000
  -20.0838  -32.1725   22.9210 C   0  0  0  0  0  0  0  0  0  0  0  0
  -21.0688  -31.3787   23.4999 C   0  0  0  0  0  0  0  0  0  0  0  0
  -23.0643   -9.8173   19.9808 C   0  0  0  0  0  0  0  0  0  0  0  0
  -23.6547  -10.0243   22.3143 C   0  0  0  0  0  0  0  0  0  0  0  0
  -18.8004  -31.6616   22.7319 C   0  0  0  0  0  0  0  0  0  0  0  0
  -20.7707  -30.0739   23.8909 C   0  0  0  0  0  0  0  0  0  0  0  0
  -24.5099  -25.2275   23.6982 C   0  0  0  0  0  0  0  0  0  0  0  0
  -22.3105   -8.6805   20.2723 C   0  0  0  0  0  0  0  0  0  0  0  0
  -22.9008   -8.8875   22.6059 C   0  0  0  0  0  0  0  0  0  0  0  0
  -25.2914  -24.6065   24.6715 C   0  0  0  0  0  0  0  0  0  0  0  0
  -23.2498   -5.5342   22.3521 C   0  0  0  0  0  0  0  0  0  0  0  0
  -23.8169   -4.5795   23.1963 C   0  0  0  0  0  0  0  0  0  0  0  0
  -23.5300  -23.0033   25.0543 C   0  0  0  0  0  0  0  0  0  0  0  0
  -31.2715  -19.6042   22.6561 C   0  0  0  0  0  0  0  0  0  0  0  0
  -29.5112  -17.9609   22.5912 C   0  0  0  0  0  0  0  0  0  0  0  0
  -21.9945   -4.8751   24.7548 C   0  0  0  0  0  0  0  0  0  0  0  0
  -23.7364  -10.4892   21.0018 C   0  0  0  0  0  0  0  0  0  0  0  0
  -24.0723  -12.9993   20.6950 C   0  0  0  0  0  0  0  0  0  0  0  0
  -18.4889  -30.3466   23.1120 C   0  0  0  0  0  0  0  0  0  0  0  0
  -23.2261  -24.7469   23.4028 C   0  0  0  0  0  0  0  0  0  0  0  0
  -19.4815  -29.5454   23.7079 C   0  0  0  0  0  0  0  0  0  0  0  0
  -22.7352  -23.6185   24.0750 C   0  0  0  0  0  0  0  0  0  0  0  0
  -29.9712  -19.2190   22.9682 C   0  0  0  0  0  0  0  0  0  0  0  0
  -22.2287   -8.2156   21.5849 C   0  0  0  0  0  0  0  0  0  0  0  0
  -24.8004  -23.4960   25.3518 C   0  0  0  0  0  0  0  0  0  0  0  0
  -22.0552   -6.1594   22.7093 C   0  0  0  0  0  0  0  0  0  0  0  0
  -23.1893   -4.2500   24.3976 C   0  0  0  0  0  0  0  0  0  0  0  0
  -21.4275   -5.8299   23.9106 C   0  0  0  0  0  0  0  0  0  0  0  0
  -24.5157  -11.6632   20.7011 C   0  0  0  0  0  0  0  0  0  0  0  0
  -32.0854  -18.7146   21.9693 C   0  0  0  0  0  0  0  0  0  0  0  0
  -25.1839  -13.7285   20.3499 C   0  0  0  0  0  0  0  0  0  0  0  0
  -30.3696  -17.1129   21.9060 C   0  0  0  0  0  0  0  0  0  0  0  0
  -22.7718  -13.5335   20.9762 C   0  0  0  0  0  0  0  0  0  0  0  0
  -20.2861  -25.9410   23.5889 C   0  0  0  0  0  0  0  0  0  0  0  0
  -27.1574  -20.9420   24.7588 C   0  0  0  0  0  0  0  0  0  0  0  0
  -19.4859  -23.1678   22.1086 C   0  0  0  0  0  0  0  0  0  0  0  0
  -20.2686  -19.9167   21.4274 C   0  0  0  0  0  0  0  0  0  0  0  0
  -30.6170  -14.8482   20.8308 C   0  0  0  0  0  0  0  0  0  0  0  0
  -17.0749  -29.8542   22.9308 C   0  0  0  0  0  0  0  0  0  0  0  0
  -22.4062  -25.4118   22.3314 C   0  0  0  0  0  0  0  0  0  0  0  0
  -21.3714  -23.0511   23.7808 C   0  0  0  0  0  0  0  0  0  0  0  0
  -16.9411  -28.3367   23.0297 C   0  0  0  0  0  0  0  0  0  0  0  0
  -36.1661  -18.5333   20.3854 C   0  0  0  0  0  0  0  0  0  0  0  0
  -35.1586  -19.4549   19.7048 C   0  0  0  0  0  0  0  0  0  0  0  0
  -35.9675  -18.5016   21.8978 C   0  0  0  0  0  0  0  0  0  0  0  0
  -29.6916  -12.2325   18.5994 C   0  0  0  0  0  0  0  0  0  0  0  0
  -17.7054  -27.8111   24.2406 C   0  0  0  0  0  0  0  0  0  0  0  0
  -33.7214  -19.0849   20.0669 C   0  0  0  0  0  0  0  0  0  0  0  0
  -34.5343  -18.1269   22.2707 C   0  0  0  0  0  0  0  0  0  0  0  0
  -28.2261  -11.9611   18.9467 C   0  0  0  0  0  0  0  0  0  0  0  0
  -30.5153  -12.5713   19.8405 C   0  0  0  0  0  0  0  0  0  0  0  0
  -28.5087  -13.3863   21.0146 C   0  0  0  0  0  0  0  0  0  0  0  0
  -19.2035  -28.1168   24.1226 C   0  0  1  0  0  0  0  0  0  0  0  0
  -33.5110  -19.0558   21.5919 C   0  0  0  0  0  0  0  0  0  0  0  0
  -20.9101  -25.1495   22.4746 C   0  0  1  0  0  0  0  0  0  0  0  0
  -27.6254  -13.1042   19.7883 C   0  0  2  0  0  0  0  0  0  0  0  0
  -19.4027  -17.8929   20.2225 C   0  0  0  0  0  0  0  0  0  0  0  0
  -26.2756  -21.0501   27.6322 C   0  0  0  0  0  0  0  0  0  0  0  0
  -17.4699  -22.6987   24.3504 C   0  0  0  0  0  0  0  0  0  0  0  0
  -17.3384  -20.3027   23.6362 C   0  0  0  0  0  0  0  0  0  0  0  0
  -16.6435  -22.1108   22.0643 C   0  0  0  0  0  0  0  0  0  0  0  0
  -22.6258  -19.8289   19.6400 C   0  0  0  0  0  0  0  0  0  0  0  0
  -25.7119  -20.7432   25.1988 C   0  0  0  0  0  0  0  0  0  0  0  0
  -27.7770  -19.7740   24.0184 C   0  0  0  0  0  0  0  0  0  0  0  0
  -19.0991  -21.7831   22.5690 C   0  0  1  0  0  0  0  0  0  0  0  0
  -20.2766  -19.1337   20.1269 C   0  0  2  0  0  0  0  0  0  0  0  0
  -25.3687  -21.4868   26.4903 C   0  0  2  0  0  0  0  0  0  1  0  0
  -17.6627  -21.7354   23.1621 C   0  0  0  0  0  0  0  0  0  0  0  0
  -25.8083  -11.5475   20.3849 N   0  0  0  0  0  0  0  0  0  0  0  0
  -26.1865  -12.8202   20.1768 N   0  0  0  0  0  0  0  0  0  0  0  0
  -31.6169  -17.5092   21.6183 N   0  3  0  0  0  0  0  0  0  0  0  0
  -20.6053  -23.7401   22.7292 N   0  0  0  0  0  0  0  0  0  0  0  0
  -29.8882  -13.6652   20.5855 N   0  0  0  0  0  0  0  0  0  0  0  0
  -25.3918  -15.0515   20.1807 N   0  0  0  0  0  0  0  0  0  0  0  0
  -21.7430  -12.6440   21.3146 N   0  0  0  0  0  0  0  0  0  0  0  0
  -29.1349  -20.0880   23.6541 N   0  0  0  0  0  0  0  0  0  0  0  0
  -29.9065  -15.8307   21.5196 N   0  0  0  0  0  0  0  0  0  0  0  0
  -19.8376  -27.1914   23.2083 N   0  0  0  0  0  0  0  0  0  0  0  0
  -19.3029  -20.9009   21.4251 N   0  0  0  0  0  0  0  0  0  0  0  0
  -21.6636  -18.7067   19.7880 N   0  3  0  0  0  0  0  0  0  0  0  0
  -22.5253  -14.7618   20.9127 O   0  0  0  0  0  0  0  0  0  0  0  0
  -20.2154  -25.4528   24.7107 O   0  0  0  0  0  0  0  0  0  0  0  0
  -27.7772  -21.9789   24.9913 O   0  0  0  0  0  0  0  0  0  0  0  0
  -18.8235  -23.7185   21.2255 O   0  0  0  0  0  0  0  0  0  0  0  0
  -21.0392  -19.6765   22.3543 O   0  0  0  0  0  0  0  0  0  0  0  0
  -31.7762  -14.9904   20.4335 O   0  0  0  0  0  0  0  0  0  0  0  0
  -21.4930   -7.1064   21.8698 O   0  0  0  0  0  0  0  0  0  0  0  0
  -25.5608  -22.8883   26.3027 O   0  0  0  0  0  0  0  0  0  1  0  0
  -23.7331   -3.3320   25.2074 F   0  0  0  0  0  0  0  0  0  0  0  0
  -20.2790   -6.4263   24.2585 F   0  0  0  0  0  0  0  0  0  0  0  0
  1  2  1  0  0  0  0
  1  5  2  0  0  0  0
  2  6  2  0  0  0  0
  3  8  2  0  0  0  0
  3 17  1  0  0  0  0
  4  9  1  0  0  0  0
  4 17  2  0  0  0  0
  5 19  1  0  0  0  0
  6 21  1  0  0  0  0
  7 10  2  0  0  0  0
  7 20  1  0  0  0  0
  8 24  1  0  0  0  0
  9 24  2  0  0  0  0
 10 25  1  0  0  0  0
 11 12  2  0  0  0  0
 11 26  1  0  0  0  0
 12 27  1  0  0  0  0
 13 22  1  0  0  0  0
 13 25  2  0  0  0  0
 14 23  2  0  0  0  0
 14 30  1  0  0  0  0
 15 23  1  0  0  0  0
 15 32  2  0  0  0  0
 16 27  2  0  0  0  0
 16 28  1  0  0  0  0
 17 29  1  0  0  0  0
 18 29  1  0  0  0  0
 18 31  2  0  0  0  0
 18 33  1  0  0  0  0
 19 21  2  0  0  0  0
 19 39  1  0  0  0  0
 20 22  2  0  0  0  0
 20 40  1  0  0  0  0
 21 53  1  0  0  0  0
 22 41  1  0  0  0  0
 23 76  1  0  0  0  0
 24 87  1  0  0  0  0
 25 88  1  0  0  0  0
 26 28  2  0  0  0  0
 26 87  1  0  0  0  0
 27 89  1  0  0  0  0
 28 90  1  0  0  0  0
 29 69  2  0  0  0  0
 30 54  1  0  0  0  0
 30 71  2  0  0  0  0
 31 70  1  0  0  0  0
 31 74  1  0  0  0  0
 32 71  1  0  0  0  0
 32 77  1  0  0  0  0
 33 75  1  0  0  0  0
 33 81  2  0  0  0  0
 34 55  1  0  0  0  0
 34 78  1  0  0  0  0
 34 82  2  0  0  0  0
 35 63  1  0  0  0  0
 35 64  1  0  0  0  0
 35 83  2  0  0  0  0
 36 65  1  0  0  0  0
 36 72  1  0  0  0  0
 36 84  2  0  0  0  0
 37 66  1  0  0  0  0
 37 79  1  0  0  0  0
 37 85  2  0  0  0  0
 38 73  1  0  0  0  0
 38 77  1  0  0  0  0
 38 86  2  0  0  0  0
 39 42  1  0  0  0  0
 40 55  1  0  0  0  0
 41 72  1  0  0  0  0
 42 47  1  0  0  0  0
 43 44  1  0  0  0  0
 43 45  1  0  0  0  0
 44 48  1  0  0  0  0
 45 49  1  0  0  0  0
 46 50  1  0  0  0  0
 46 51  1  0  0  0  0
 47 53  1  0  0  0  0
 48 54  1  0  0  0  0
 49 54  1  0  0  0  0
 50 56  1  0  0  0  0
 51 73  1  0  0  0  0
 52 56  1  0  0  0  0
 52 73  1  0  0  0  0
 53 78  1  0  0  0  0
 55 72  1  0  0  0  0
 56 70  1  0  0  0  0
 57 66  1  0  0  0  0
 58 67  1  0  0  0  0
 59 68  1  0  0  0  0
 60 68  1  0  0  0  0
 61 68  1  0  0  0  0
 62 80  1  0  0  0  0
 63 67  1  0  0  0  0
 64 76  1  0  0  0  0
 65 68  1  0  0  0  0
 65 79  1  0  0  0  0
 66 80  1  0  0  0  0
 67 88  1  0  0  0  0
 69 70  1  0  0  0  0
M  CHG  2  71   1  80   1
M  ISO  4  38 100  67 101  77 100  88 101
M  END
> <Batch ID>
0163

> <Smiles>
CNC(C)C(=O)NC(C(=O)N1Cc2cc([101O:1][101CH:1](C)CC(=O)CNc3cc([100NH:0][100C:0](=O)N4CCCC(n5nc(-c6ccc(Oc7ccc(F)cc7F)cc6)c(C(N)=O)c5N)C4)nc(C4CCCCC4)c3)ccc2CC1C(=O)NC1CCCc2ccccc21)C(C)(C)C

> <Shape>
0.227

> <Color>
0.203

> <Negative vol penalty>
0.000

$$$$

  -OEChem-04052303593D

 86 94  0     1  0  0  0  0  0999 V2000
  -18.4842  -32.6476   25.0140 C   0  0  0  0  0  0  0  0  0  0  0  0
  -19.7951  -32.8859   24.6140 C   0  0  0  0  0  0  0  0  0  0  0  0
  -23.7981  -12.3009   21.4293 C   0  0  0  0  0  0  0  0  0  0  0  0
  -25.7380  -11.7271   20.1085 C   0  0  0  0  0  0  0  0  0  0  0  0
  -18.0135  -31.3389   25.1123 C   0  0  0  0  0  0  0  0  0  0  0  0
  -20.6366  -31.8155   24.3131 C   0  0  0  0  0  0  0  0  0  0  0  0
  -26.0651  -30.0239   19.9959 C   0  0  0  0  0  0  0  0  0  0  0  0
  -23.2186  -11.0725   21.1120 C   0  0  0  0  0  0  0  0  0  0  0  0
  -25.1585  -10.4986   19.7912 C   0  0  0  0  0  0  0  0  0  0  0  0
  -27.3489  -29.4826   20.0476 C   0  0  0  0  0  0  0  0  0  0  0  0
  -23.5020   -7.8534   22.1072 C   0  0  0  0  0  0  0  0  0  0  0  0
  -22.9067   -7.1311   23.1413 C   0  0  0  0  0  0  0  0  0  0  0  0
  -30.2454  -22.3147   23.0716 C   0  0  0  0  0  0  0  0  0  0  0  0
  -26.4031  -27.2672   20.1764 C   0  0  0  0  0  0  0  0  0  0  0  0
  -20.7896   -7.2137   21.9802 C   0  0  0  0  0  0  0  0  0  0  0  0
  -25.0578  -12.6283   20.9275 C   0  0  0  0  0  0  0  0  0  0  0  0
  -30.5115  -21.0618   22.4696 C   0  0  0  0  0  0  0  0  0  0  0  0
  -26.4896  -14.1868   22.3518 C   0  0  0  0  0  0  0  0  0  0  0  0
  -18.8467  -30.2522   24.8031 C   0  0  0  0  0  0  0  0  0  0  0  0
  -24.9386  -29.1901   20.0452 C   0  0  0  0  0  0  0  0  0  0  0  0
  -20.1770  -30.4909   24.4086 C   0  0  0  0  0  0  0  0  0  0  0  0
  -25.1062  -27.8002   20.1226 C   0  0  0  0  0  0  0  0  0  0  0  0
  -23.8988  -10.1713   20.2930 C   0  0  0  0  0  0  0  0  0  0  0  0
  -27.5180  -28.1043   20.1408 C   0  0  0  0  0  0  0  0  0  0  0  0
  -22.7411   -8.2560   21.0096 C   0  0  0  0  0  0  0  0  0  0  0  0
  -21.5505   -6.8112   23.0778 C   0  0  0  0  0  0  0  0  0  0  0  0
  -21.3850   -7.9360   20.9461 C   0  0  0  0  0  0  0  0  0  0  0  0
  -25.6566  -13.8974   21.2544 C   0  0  0  0  0  0  0  0  0  0  0  0
  -30.4008  -21.2588   21.1128 C   0  0  0  0  0  0  0  0  0  0  0  0
  -26.7902  -15.5197   22.2126 C   0  0  0  0  0  0  0  0  0  0  0  0
  -29.9913  -23.1881   22.0398 C   0  0  0  0  0  0  0  0  0  0  0  0
  -30.8341  -19.8194   23.1070 C   0  0  0  0  0  0  0  0  0  0  0  0
  -26.9506  -13.3275   23.4029 C   0  0  0  0  0  0  0  0  0  0  0  0
  -22.4874  -28.8470   22.0395 C   0  0  0  0  0  0  0  0  0  0  0  0
  -21.4376  -26.7763   19.7740 C   0  0  0  0  0  0  0  0  0  0  0  0
  -22.1950  -24.6895   17.1820 C   0  0  0  0  0  0  0  0  0  0  0  0
  -29.4176  -25.3747   20.9314 C   0  0  0  0  0  0  0  0  0  0  0  0
  -28.2969  -19.8645   19.0506 C   0  0  0  0  0  0  0  0  0  0  0  0
  -18.3075  -28.8536   24.9697 C   0  0  0  0  0  0  0  0  0  0  0  0
  -23.5609  -29.7878   19.9614 C   0  0  0  0  0  0  0  0  0  0  0  0
  -23.9297  -26.8604   20.1582 C   0  0  0  0  0  0  0  0  0  0  0  0
  -19.1499  -27.7889   24.2719 C   0  0  0  0  0  0  0  0  0  0  0  0
  -24.8364  -19.0319   19.1412 C   0  0  0  0  0  0  0  0  0  0  0  0
  -20.6307  -27.9983   24.5722 C   0  0  0  0  0  0  0  0  0  0  0  0
  -24.8108  -17.6439   19.7835 C   0  0  0  0  0  0  0  0  0  0  0  0
  -26.0513  -19.2115   18.2336 C   0  0  0  0  0  0  0  0  0  0  0  0
  -27.3235  -17.5333   19.5138 C   0  0  0  0  0  0  0  0  0  0  0  0
  -21.1128  -29.3570   24.0498 C   0  0  1  0  0  0  0  0  0  0  0  0
  -22.4793  -28.8790   20.5373 C   0  0  1  0  0  0  0  0  0  0  0  0
  -26.1463  -17.3244   20.4818 C   0  0  2  0  0  0  0  0  0  0  0  0
  -31.2484  -18.3823   25.2001 C   0  0  0  0  0  0  0  0  0  0  0  0
  -21.1307  -23.1045   15.5534 C   0  0  0  0  0  0  0  0  0  0  0  0
  -30.2848  -27.4579   22.0574 C   0  0  0  0  0  0  0  0  0  0  0  0
  -21.1683  -24.6900   21.9842 C   0  0  0  0  0  0  0  0  0  0  0  0
  -21.0348  -22.9288   20.2098 C   0  0  0  0  0  0  0  0  0  0  0  0
  -19.2907  -24.7081   20.3324 C   0  0  0  0  0  0  0  0  0  0  0  0
  -23.0870  -26.2933   14.8601 C   0  0  0  0  0  0  0  0  0  0  0  0
  -30.5541  -20.3752   19.9470 C   0  0  0  0  0  0  0  0  0  0  0  0
  -30.9211  -19.7613   24.6491 C   0  0  0  0  0  0  0  0  0  0  0  0
  -21.6087  -25.2990   19.5142 C   0  0  1  0  0  0  0  0  0  0  0  0
  -21.5832  -24.5351   15.8013 C   0  0  2  0  0  0  0  0  0  0  0  0
  -29.1044  -26.8090   21.3498 C   0  0  1  0  0  0  0  0  0  1  0  0
  -20.7980  -24.4241   20.5115 C   0  0  0  0  0  0  0  0  0  0  0  0
  -25.4416  -14.9610   20.4757 N   0  0  0  0  0  0  0  0  0  0  0  0
  -26.1438  -15.9317   21.0845 N   0  0  0  0  0  0  0  0  0  0  0  0
  -22.6028  -27.4935   20.0800 N   0  0  0  0  0  0  0  0  0  0  0  0
  -27.2853  -18.8945   18.9567 N   0  0  0  0  0  0  0  0  0  0  0  0
  -27.5416  -16.3678   22.9464 N   0  0  0  0  0  0  0  0  0  0  0  0
  -26.5467  -11.9854   23.3942 N   0  0  0  0  0  0  0  0  0  0  0  0
  -29.6681  -24.5659   22.0350 N   0  0  0  0  0  0  0  0  0  0  0  0
  -21.3188  -29.3039   22.6183 N   0  0  0  0  0  0  0  0  0  0  0  0
  -21.2597  -25.0878   18.1135 N   0  0  0  0  0  0  0  0  0  0  0  0
  -29.4306  -19.4847   19.7585 N   0  0  0  0  0  0  0  0  0  0  0  0
  -22.5746  -24.9031   14.7513 N   0  3  0  0  0  0  0  0  0  0  0  0
  -31.0561  -18.7534   22.4842 O   0  0  0  0  0  0  0  0  0  0  0  0
  -27.6851  -13.7416   24.3316 O   0  0  0  0  0  0  0  0  0  0  0  0
  -23.4798  -28.4366   22.6297 O   0  0  0  0  0  0  0  0  0  0  0  0
  -20.3125  -27.2768   19.7010 O   0  0  0  0  0  0  0  0  0  0  0  0
  -23.3831  -24.4745   17.4119 O   0  0  0  0  0  0  0  0  0  0  0  0
  -29.4147  -25.0415   19.7498 O   0  0  0  0  0  0  0  0  0  0  0  0
  -28.1949  -20.9879   18.5460 O   0  0  0  0  0  0  0  0  0  0  0  0
  -30.0841  -22.5523   20.8424 O   0  0  0  0  0  0  0  0  0  0  0  0
  -23.3338   -8.9724   19.9833 O   0  0  0  0  0  0  0  0  0  0  0  0
  -28.7700  -27.5734   20.1921 O   0  0  0  0  0  0  0  0  0  1  0  0
  -20.9793   -6.1162   24.0702 F   0  0  0  0  0  0  0  0  0  0  0  0
  -20.6491   -8.3190   19.8936 F   0  0  0  0  0  0  0  0  0  0  0  0
  1  2  1  0  0  0  0
  1  5  2  0  0  0  0
  2  6  2  0  0  0  0
  3  8  2  0  0  0  0
  3 16  1  0  0  0  0
  4  9  1  0  0  0  0
  4 16  2  0  0  0  0
  5 19  1  0  0  0  0
  6 21  1  0  0  0  0
  7 10  2  0  0  0  0
  7 20  1  0  0  0  0
  8 23  1  0  0  0  0
  9 23  2  0  0  0  0
 10 24  1  0  0  0  0
 11 12  2  0  0  0  0
 11 25  1  0  0  0  0
 12 26  1  0  0  0  0
 13 17  1  0  0  0  0
 13 31  2  0  0  0  0
 14 22  1  0  0  0  0
 14 24  2  0  0  0  0
 15 26  2  0  0  0  0
 15 27  1  0  0  0  0
 16 28  1  0  0  0  0
 17 29  2  0  0  0  0
 17 32  1  0  0  0  0
 18 28  1  0  0  0  0
 18 30  2  0  0  0  0
 18 33  1  0  0  0  0
 19 21  2  0  0  0  0
 19 39  1  0  0  0  0
 20 22  2  0  0  0  0
 20 40  1  0  0  0  0
 21 48  1  0  0  0  0
 22 41  1  0  0  0  0
 23 83  1  0  0  0  0
 24 84  1  0  0  0  0
 25 27  2  0  0  0  0
 25 83  1  0  0  0  0
 26 85  1  0  0  0  0
 27 86  1  0  0  0  0
 28 64  2  0  0  0  0
 29 58  1  0  0  0  0
 29 82  1  0  0  0  0
 30 65  1  0  0  0  0
 30 68  1  0  0  0  0
 31 70  1  0  0  0  0
 31 82  1  0  0  0  0
 32 59  1  0  0  0  0
 32 75  2  0  0  0  0
 33 69  1  0  0  0  0
 33 76  2  0  0  0  0
 34 49  1  0  0  0  0
 34 71  1  0  0  0  0
 34 77  2  0  0  0  0
 35 60  1  0  0  0  0
 35 66  1  0  0  0  0
 35 78  2  0  0  0  0
 36 61  1  0  0  0  0
 36 72  1  0  0  0  0
 36 79  2  0  0  0  0
 37 62  1  0  0  0  0
 37 70  1  0  0  0  0
 37 80  2  0  0  0  0
 38 67  1  0  0  0  0
 38 73  1  0  0  0  0
 38 81  2  0  0  0  0
 39 42  1  0  0  0  0
 40 49  1  0  0  0  0
 41 66  1  0  0  0  0
 42 44  1  0  0  0  0
 43 45  1  0  0  0  0
 43 46  1  0  0  0  0
 44 48  1  0  0  0  0
 45 50  1  0  0  0  0
 46 67  1  0  0  0  0
 47 50  1  0  0  0  0
 47 67  1  0  0  0  0
 48 71  1  0  0  0  0
 49 66  1  0  0  0  0
 50 65  1  0  0  0  0
 51 59  1  0  0  0  0
 52 61  1  0  0  0  0
 53 62  1  0  0  0  0
 54 63  1  0  0  0  0
 55 63  1  0  0  0  0
 56 63  1  0  0  0  0
 57 74  1  0  0  0  0
 58 73  1  0  0  0  0
 60 63  1  0  0  0  0
 60 72  1  0  0  0  0
 61 74  1  0  0  0  0
 62 84  1  0  0  0  0
 64 65  1  0  0  0  0
M  CHG  1  74   1
M  ISO  4  38 100  62 101  73 100  84 101
M  END
> <Batch ID>
0163

> <Smiles>
CCC(=O)c1cc(NC(=O)[101CH:1](C)[101O:1]c2ccc3c(c2)CN(C(=O)C(NC(=O)C(C)NC)C(C)(C)C)C(C(=O)NC2CCCc4ccccc42)C3)oc1C[100NH:0][100C:0](=O)N1CCCC(n2nc(-c3ccc(Oc4ccc(F)cc4F)cc3)c(C(N)=O)c2N)C1

> <Shape>
0.246

> <Color>
0.073

> <Negative vol penalty>
0.000

$$$$

  -OEChem-04052303593D

 89 97  0     1  0  0  0  0  0999 V2000
  -20.9557  -14.8425   19.3679 C   0  0  0  0  0  0  0  0  0  0  0  0
  -21.3765  -16.1645   19.2647 C   0  0  0  0  0  0  0  0  0  0  0  0
  -21.7943  -21.1038   23.9112 C   0  0  0  0  0  0  0  0  0  0  0  0
  -20.1742  -20.4023   22.2619 C   0  0  0  0  0  0  0  0  0  0  0  0
  -21.7027  -13.9305   20.1123 C   0  0  0  0  0  0  0  0  0  0  0  0
  -22.5441  -16.5755   19.9067 C   0  0  0  0  0  0  0  0  0  0  0  0
  -26.5590  -20.7544   17.9261 C   0  0  0  0  0  0  0  0  0  0  0  0
  -21.7265  -19.8470   24.5123 C   0  0  0  0  0  0  0  0  0  0  0  0
  -20.1064  -19.1455   22.8630 C   0  0  0  0  0  0  0  0  0  0  0  0
  -26.7368  -22.1031   18.2316 C   0  0  0  0  0  0  0  0  0  0  0  0
  -18.6260  -17.7526   25.5648 C   0  0  0  0  0  0  0  0  0  0  0  0
  -17.3623  -17.1972   25.7648 C   0  0  0  0  0  0  0  0  0  0  0  0
  -24.2669  -29.2738   20.7779 C   0  0  0  0  0  0  0  0  0  0  0  0
  -28.4282  -21.5084   19.8455 C   0  0  0  0  0  0  0  0  0  0  0  0
  -17.9704  -15.3142   24.3786 C   0  0  0  0  0  0  0  0  0  0  0  0
  -21.0181  -21.3815   22.7860 C   0  0  0  0  0  0  0  0  0  0  0  0
  -23.7427  -30.4715   21.3443 C   0  0  0  0  0  0  0  0  0  0  0  0
  -21.9588  -23.0847   21.1362 C   0  0  0  0  0  0  0  0  0  0  0  0
  -22.8852  -14.3282   20.7559 C   0  0  0  0  0  0  0  0  0  0  0  0
  -27.3081  -19.7702   18.5869 C   0  0  0  0  0  0  0  0  0  0  0  0
  -23.3069  -15.6683   20.6616 C   0  0  0  0  0  0  0  0  0  0  0  0
  -28.2599  -20.1481   19.5447 C   0  0  0  0  0  0  0  0  0  0  0  0
  -20.8826  -18.8678   23.9883 C   0  0  0  0  0  0  0  0  0  0  0  0
  -27.6694  -22.4800   19.1935 C   0  0  0  0  0  0  0  0  0  0  0  0
  -19.5619  -17.0889   24.7715 C   0  0  0  0  0  0  0  0  0  0  0  0
  -17.0344  -15.9780   25.1718 C   0  0  0  0  0  0  0  0  0  0  0  0
  -19.2341  -15.8697   24.1785 C   0  0  0  0  0  0  0  0  0  0  0  0
  -21.0872  -22.6798   22.1648 C   0  0  0  0  0  0  0  0  0  0  0  0
  -24.7043  -31.4502   21.4666 C   0  0  0  0  0  0  0  0  0  0  0  0
  -21.6275  -24.3969   20.9021 C   0  0  0  0  0  0  0  0  0  0  0  0
  -25.6094  -29.3828   20.4886 C   0  0  0  0  0  0  0  0  0  0  0  0
  -22.3303  -30.6662   21.7616 C   0  0  0  0  0  0  0  0  0  0  0  0
  -22.9767  -22.3411   20.4531 C   0  0  0  0  0  0  0  0  0  0  0  0
  -24.5880  -32.7780   21.9808 C   0  0  0  0  0  0  0  0  0  0  0  0
  -26.6101  -17.3142   20.4801 C   0  0  0  0  0  0  0  0  0  0  0  0
  -27.0697  -26.0829   19.6975 C   0  0  0  0  0  0  0  0  0  0  0  0
  -29.7839  -16.7030   20.2055 C   0  0  0  0  0  0  0  0  0  0  0  0
  -32.9192  -17.8925   19.5716 C   0  0  0  0  0  0  0  0  0  0  0  0
  -20.3500  -29.4910   22.6678 C   0  0  0  0  0  0  0  0  0  0  0  0
  -23.6339  -13.3177   21.5882 C   0  0  0  0  0  0  0  0  0  0  0  0
  -27.1235  -18.3216   18.2268 C   0  0  0  0  0  0  0  0  0  0  0  0
  -29.1037  -19.1317   20.2682 C   0  0  0  0  0  0  0  0  0  0  0  0
  -25.0592  -13.7452   21.9289 C   0  0  0  0  0  0  0  0  0  0  0  0
  -17.7043  -27.1498   22.5404 C   0  0  0  0  0  0  0  0  0  0  0  0
  -25.0813  -15.1913   22.4136 C   0  0  0  0  0  0  0  0  0  0  0  0
  -18.4172  -25.8099   22.3385 C   0  0  0  0  0  0  0  0  0  0  0  0
  -18.4845  -28.0724   23.4759 C   0  0  0  0  0  0  0  0  0  0  0  0
  -20.5995  -26.9464   22.9131 C   0  0  0  0  0  0  0  0  0  0  0  0
  -24.5812  -16.1464   21.3232 C   0  0  1  0  0  0  0  0  0  0  0  0
  -27.5752  -17.3694   19.3298 C   0  0  1  0  0  0  0  0  0  0  0  0
  -19.8888  -26.0090   21.9235 C   0  0  1  0  0  0  0  0  0  0  0  0
  -35.3175  -17.1626   19.4587 C   0  0  0  0  0  0  0  0  0  0  0  0
  -25.1763  -31.8193   24.3131 C   0  0  0  0  0  0  0  0  0  0  0  0
  -25.9352  -34.1252   23.6445 C   0  0  0  0  0  0  0  0  0  0  0  0
  -23.5209  -33.6559   24.0929 C   0  0  0  0  0  0  0  0  0  0  0  0
  -29.9123  -16.6613   23.2537 C   0  0  0  0  0  0  0  0  0  0  0  0
  -32.4001  -16.8839   23.0826 C   0  0  0  0  0  0  0  0  0  0  0  0
  -31.2603  -14.8806   22.1284 C   0  0  0  0  0  0  0  0  0  0  0  0
  -33.1296  -18.6287   16.7128 C   0  0  0  0  0  0  0  0  0  0  0  0
  -25.9455  -27.0885   19.5672 C   0  0  0  0  0  0  0  0  0  0  0  0
  -26.7115  -24.6512   19.3494 C   0  0  0  0  0  0  0  0  0  1  0  0
  -31.0215  -17.1133   20.9665 C   0  0  1  0  0  0  0  0  0  0  0  0
  -34.0308  -17.3754   18.6764 C   0  0  2  0  0  0  0  0  0  0  0  0
  -24.8241  -33.0762   23.5020 C   0  0  0  0  0  0  0  0  0  0  0  0
  -31.1314  -16.4040   22.3457 C   0  0  0  0  0  0  0  0  0  0  0  0
  -20.2642  -23.6558   22.5574 N   0  0  0  0  0  0  0  0  0  0  0  0
  -20.6173  -24.6871   21.7713 N   0  0  0  0  0  0  0  0  0  0  0  0
  -28.8818  -17.7274   19.8855 N   0  0  0  0  0  0  0  0  0  0  0  0
  -19.8643  -28.2165   23.0084 N   0  0  0  0  0  0  0  0  0  0  0  0
  -22.1048  -25.3195   20.0398 N   0  0  0  0  0  0  0  0  0  0  0  0
  -23.1857  -21.0040   20.8177 N   0  0  0  0  0  0  0  0  0  0  0  0
  -26.4157  -28.4005   19.9317 N   0  0  0  0  0  0  0  0  0  0  0  0
  -21.6657  -29.5175   22.1919 N   0  0  0  0  0  0  0  0  0  0  0  0
  -25.6134  -16.3683   20.3334 N   0  0  0  0  0  0  0  0  0  0  0  0
  -32.1496  -16.8653   20.0754 N   0  0  0  0  0  0  0  0  0  0  0  0
  -34.3038  -18.3442   17.5773 N   0  3  0  0  0  0  0  0  0  0  0  0
  -21.8519  -31.7970   21.7439 O   0  0  0  0  0  0  0  0  0  0  0  0
  -23.6913  -22.8522   19.5577 O   0  0  0  0  0  0  0  0  0  0  0  0
  -24.2933  -33.7462   21.2456 O   0  0  0  0  0  0  0  0  0  0  0  0
  -26.7595  -18.0724   21.4311 O   0  0  0  0  0  0  0  0  0  0  0  0
  -28.2029  -26.3953   20.0612 O   0  0  0  0  0  0  0  0  0  0  0  0
  -29.6271  -15.5182   19.8998 O   0  0  0  0  0  0  0  0  0  0  0  0
  -32.7527  -19.0878   19.8039 O   0  0  0  0  0  0  0  0  0  0  0  0
  -19.6599  -30.5124   22.7442 O   0  0  0  0  0  0  0  0  0  0  0  0
  -20.8164  -17.6412   24.5745 O   0  0  0  0  0  0  0  0  0  0  0  0
  -27.8444  -23.7957   19.4940 O   0  0  0  0  0  0  0  0  0  1  0  0
  -15.8214  -15.4440   25.3653 F   0  0  0  0  0  0  0  0  0  0  0  0
  -20.1295  -15.2268   23.4164 F   0  0  0  0  0  0  0  0  0  0  0  0
  -26.2322  -30.9240   20.8998 S   0  0  0  0  0  0  0  0  0  0  0  0
  1  2  1  0  0  0  0
  1  5  2  0  0  0  0
  2  6  2  0  0  0  0
  3  8  2  0  0  0  0
  3 16  1  0  0  0  0
  4  9  1  0  0  0  0
  4 16  2  0  0  0  0
  5 19  1  0  0  0  0
  6 21  1  0  0  0  0
  7 10  2  0  0  0  0
  7 20  1  0  0  0  0
  8 23  1  0  0  0  0
  9 23  2  0  0  0  0
 10 24  1  0  0  0  0
 11 12  2  0  0  0  0
 11 25  1  0  0  0  0
 12 26  1  0  0  0  0
 13 17  1  0  0  0  0
 13 31  2  0  0  0  0
 14 22  1  0  0  0  0
 14 24  2  0  0  0  0
 15 26  2  0  0  0  0
 15 27  1  0  0  0  0
 16 28  1  0  0  0  0
 17 29  2  0  0  0  0
 17 32  1  0  0  0  0
 18 28  1  0  0  0  0
 18 30  2  0  0  0  0
 18 33  1  0  0  0  0
 19 21  2  0  0  0  0
 19 40  1  0  0  0  0
 20 22  2  0  0  0  0
 20 41  1  0  0  0  0
 21 49  1  0  0  0  0
 22 42  1  0  0  0  0
 23 85  1  0  0  0  0
 24 86  1  0  0  0  0
 25 27  2  0  0  0  0
 25 85  1  0  0  0  0
 26 87  1  0  0  0  0
 27 88  1  0  0  0  0
 28 66  2  0  0  0  0
 29 34  1  0  0  0  0
 29 89  1  0  0  0  0
 30 67  1  0  0  0  0
 30 70  1  0  0  0  0
 31 72  1  0  0  0  0
 31 89  1  0  0  0  0
 32 73  1  0  0  0  0
 32 77  2  0  0  0  0
 33 71  1  0  0  0  0
 33 78  2  0  0  0  0
 34 64  1  0  0  0  0
 34 79  2  0  0  0  0
 35 50  1  0  0  0  0
 35 74  1  0  0  0  0
 35 80  2  0  0  0  0
 36 60  1  0  0  0  0
 36 61  1  0  0  0  0
 36 81  2  0  0  0  0
 37 62  1  0  0  0  0
 37 68  1  0  0  0  0
 37 82  2  0  0  0  0
 38 63  1  0  0  0  0
 38 75  1  0  0  0  0
 38 83  2  0  0  0  0
 39 69  1  0  0  0  0
 39 73  1  0  0  0  0
 39 84  2  0  0  0  0
 40 43  1  0  0  0  0
 41 50  1  0  0  0  0
 42 68  1  0  0  0  0
 43 45  1  0  0  0  0
 44 46  1  0  0  0  0
 44 47  1  0  0  0  0
 45 49  1  0  0  0  0
 46 51  1  0  0  0  0
 47 69  1  0  0  0  0
 48 51  1  0  0  0  0
 48 69  1  0  0  0  0
 49 74  1  0  0  0  0
 50 68  1  0  0  0  0
 51 67  1  0  0  0  0
 52 63  1  0  0  0  0
 53 64  1  0  0  0  0
 54 64  1  0  0  0  0
 55 64  1  0  0  0  0
 56 65  1  0  0  0  0
 57 65  1  0  0  0  0
 58 65  1  0  0  0  0
 59 76  1  0  0  0  0
 60 72  1  0  0  0  0
 61 86  1  0  0  0  0
 62 65  1  0  0  0  0
 62 75  1  0  0  0  0
 63 76  1  0  0  0  0
 66 67  1  0  0  0  0
M  CHG  1  76   1
M  ISO  4  39 100  61 101  73 100  86 101
M  END
> <Batch ID>
0163

> <Smiles>
CNC(C)C(=O)NC(C(=O)N1Cc2cc([101O:1][101CH2:1]C(=O)CNc3cc(C(=O)[100NH:0][100C:0](=O)N4CCCC(n5nc(-c6ccc(Oc7ccc(F)cc7F)cc6)c(C(N)=O)c5N)C4)c(C(=O)C(C)(C)C)s3)ccc2CC1C(=O)NC1CCCc2ccccc21)C(C)(C)C

> <Shape>
0.230

> <Color>
0.067

> <Negative vol penalty>
0.000

$$$$

  -OEChem-04052303593D

 88 96  0     1  0  0  0  0  0999 V2000
  -30.3016  -35.9137   21.8935 C   0  0  0  0  0  0  0  0  0  0  0  0
  -30.1560  -34.8534   21.0046 C   0  0  0  0  0  0  0  0  0  0  0  0
  -23.9425  -11.7276   23.8957 C   0  0  0  0  0  0  0  0  0  0  0  0
  -24.0198  -14.1416   23.9532 C   0  0  0  0  0  0  0  0  0  0  0  0
  -29.8587  -35.7845   23.2092 C   0  0  0  0  0  0  0  0  0  0  0  0
  -29.5684  -33.6630   21.4313 C   0  0  0  0  0  0  0  0  0  0  0  0
  -25.4799  -28.2863   19.0455 C   0  0  0  0  0  0  0  0  0  0  0  0
  -23.3822  -11.7150   25.1730 C   0  0  0  0  0  0  0  0  0  0  0  0
  -23.4594  -14.1291   25.2305 C   0  0  0  0  0  0  0  0  0  0  0  0
  -25.4596  -26.8936   18.9850 C   0  0  0  0  0  0  0  0  0  0  0  0
  -20.3935  -13.7486   26.6000 C   0  0  0  0  0  0  0  0  0  0  0  0
  -19.3613  -14.6494   26.8621 C   0  0  0  0  0  0  0  0  0  0  0  0
  -24.6599  -26.8125   21.2595 C   0  0  0  0  0  0  0  0  0  0  0  0
  -20.6810  -15.6500   28.6211 C   0  0  0  0  0  0  0  0  0  0  0  0
  -29.9156  -20.2429   21.1507 C   0  0  0  0  0  0  0  0  0  0  0  0
  -24.2613  -12.9409   23.2858 C   0  0  0  0  0  0  0  0  0  0  0  0
  -29.0763  -18.8178   19.6537 C   0  0  0  0  0  0  0  0  0  0  0  0
  -24.1557  -13.0059   20.7378 C   0  0  0  0  0  0  0  0  0  0  0  0
  -29.2567  -34.5953   23.6497 C   0  0  0  0  0  0  0  0  0  0  0  0
  -25.1001  -28.9534   20.2191 C   0  0  0  0  0  0  0  0  0  0  0  0
  -29.1183  -33.5174   22.7545 C   0  0  0  0  0  0  0  0  0  0  0  0
  -24.6739  -28.2138   21.3314 C   0  0  0  0  0  0  0  0  0  0  0  0
  -28.8438  -20.0498   20.3105 C   0  0  0  0  0  0  0  0  0  0  0  0
  -23.1406  -12.9158   25.8404 C   0  0  0  0  0  0  0  0  0  0  0  0
  -25.0523  -26.1564   20.0930 C   0  0  0  0  0  0  0  0  0  0  0  0
  -21.5695  -13.7985   27.3486 C   0  0  0  0  0  0  0  0  0  0  0  0
  -19.5050  -15.6001   27.8726 C   0  0  0  0  0  0  0  0  0  0  0  0
  -21.7132  -14.7492   28.3591 C   0  0  0  0  0  0  0  0  0  0  0  0
  -24.8407  -12.9544   21.9666 C   0  0  0  0  0  0  0  0  0  0  0  0
  -30.2736  -18.3460   20.1392 C   0  0  0  0  0  0  0  0  0  0  0  0
  -25.1497  -12.9975   19.7900 C   0  0  0  0  0  0  0  0  0  0  0  0
  -26.1609  -24.1208   20.4066 C   0  0  0  0  0  0  0  0  0  1  0  0
  -28.2645  -18.1541   18.6754 C   0  0  0  0  0  0  0  0  0  0  0  0
  -22.7468  -13.0568   20.4765 C   0  0  0  0  0  0  0  0  0  0  0  0
  -26.2522  -22.7856   20.3903 C   0  0  0  0  0  0  0  0  0  0  0  0
  -26.7473  -18.3050   18.6507 C   0  0  0  0  0  0  0  0  0  0  0  0
  -27.5362  -22.1389   20.8164 C   0  0  0  0  0  0  0  0  0  0  0  0
  -26.5608  -30.8952   22.2683 C   0  0  0  0  0  0  0  0  0  0  0  0
  -23.5940  -31.1295   23.5588 C   0  0  0  0  0  0  0  0  0  0  0  0
  -20.5064  -29.7427   23.9946 C   0  0  0  0  0  0  0  0  0  0  0  0
  -30.9001  -14.6624   19.8972 C   0  0  0  0  0  0  0  0  0  0  0  0
  -28.8366  -34.4860   25.0940 C   0  0  0  0  0  0  0  0  0  0  0  0
  -25.1021  -30.4570   20.2593 C   0  0  0  0  0  0  0  0  0  0  0  0
  -24.2370  -28.8826   22.6083 C   0  0  0  0  0  0  0  0  0  0  0  0
  -27.8849  -33.3237   25.3652 C   0  0  0  0  0  0  0  0  0  0  0  0
  -29.6173  -11.4475   19.0630 C   0  0  0  0  0  0  0  0  0  0  0  0
  -28.3925  -32.0507   24.6956 C   0  0  0  0  0  0  0  0  0  0  0  0
  -28.1859  -11.4738   19.6017 C   0  0  0  0  0  0  0  0  0  0  0  0
  -30.5777  -12.2075   19.9753 C   0  0  0  0  0  0  0  0  0  0  0  0
  -28.7430  -13.6188   20.8214 C   0  0  0  0  0  0  0  0  0  0  0  0
  -28.4635  -32.2188   23.1731 C   0  0  1  0  0  0  0  0  0  0  0  0
  -25.1853  -31.0167   21.6761 C   0  0  1  0  0  0  0  0  0  0  0  0
  -27.7278  -12.9128   19.9064 C   0  0  2  0  0  0  0  0  0  0  0  0
  -25.9629  -17.3144   19.4551 C   0  0  0  0  0  0  0  0  0  0  0  0
  -18.3059  -30.1510   25.1298 C   0  0  0  0  0  0  0  0  0  0  0  0
  -24.8333  -30.3505   26.2360 C   0  0  0  0  0  0  0  0  0  0  0  0
  -22.5290  -29.8520   27.0786 C   0  0  0  0  0  0  0  0  0  0  0  0
  -23.1215  -32.1688   26.3686 C   0  0  0  0  0  0  0  0  0  0  0  0
  -19.0494  -29.7631   21.4186 C   0  0  0  0  0  0  0  0  0  0  0  0
  -31.0693  -17.1382   19.8716 C   0  0  0  0  0  0  0  0  0  0  0  0
  -22.8245  -30.3727   24.6143 C   0  0  1  0  0  0  0  0  0  0  0  0
  -19.1115  -30.3244   23.8517 C   0  0  2  0  0  0  0  0  0  0  0  0
  -23.3371  -30.6731   26.0511 C   0  0  0  0  0  0  0  0  0  0  0  0
  -26.1673  -12.9160   21.8162 N   0  0  0  0  0  0  0  0  0  0  0  0
  -28.7367  -17.3667   17.7298 N   0  0  0  0  0  0  0  0  0  0  0  0
  -26.3239  -12.9433   20.4817 N   0  0  0  0  0  0  0  0  0  0  0  0
  -24.2625  -30.3546   22.6004 N   0  0  0  0  0  0  0  0  0  0  0  0
  -30.0863  -13.5650   20.2235 N   0  0  0  0  0  0  0  0  0  0  0  0
  -25.1251  -13.0311   18.4406 N   0  0  0  0  0  0  0  0  0  0  0  0
  -21.8649  -13.0583   21.5658 N   0  0  0  0  0  0  0  0  0  0  0  0
  -27.7466  -20.9324   20.1631 N   0  0  0  0  0  0  0  0  0  0  0  0
  -27.1438  -32.1061   22.5900 N   0  0  0  0  0  0  0  0  0  0  0  0
  -21.4172  -30.6941   24.4025 N   0  0  0  0  0  0  0  0  0  0  0  0
  -30.3558  -15.9138   20.1587 N   0  0  0  0  0  0  0  0  0  0  0  0
  -18.3810  -29.6515   22.7407 N   0  3  0  0  0  0  0  0  0  0  0  0
  -22.2832  -13.0830   19.3112 O   0  0  0  0  0  0  0  0  0  0  0  0
  -26.2707  -19.2098   17.9833 O   0  0  0  0  0  0  0  0  0  0  0  0
  -28.2638  -22.6708   21.6480 O   0  0  0  0  0  0  0  0  0  0  0  0
  -27.0560  -29.7851   22.4233 O   0  0  0  0  0  0  0  0  0  0  0  0
  -23.5959  -32.3629   23.5797 O   0  0  0  0  0  0  0  0  0  0  0  0
  -20.7616  -28.5615   23.7707 O   0  0  0  0  0  0  0  0  0  0  0  0
  -32.0262  -14.5363   19.4042 O   0  0  0  0  0  0  0  0  0  0  0  0
  -30.7917  -19.2089   21.0522 O   0  0  0  0  0  0  0  0  0  0  0  0
  -25.2070  -21.9749   19.9964 O   0  0  0  0  0  0  0  0  0  0  0  0
  -22.5937  -12.9040   27.0867 O   0  0  0  0  0  0  0  0  0  0  0  0
  -25.0322  -24.7969   20.0369 O   0  0  0  0  0  0  0  0  0  1  0  0
  -18.5143  -16.4661   28.1231 F   0  0  0  0  0  0  0  0  0  0  0  0
  -22.8411  -14.8027   29.0807 F   0  0  0  0  0  0  0  0  0  0  0  0
  1  2  1  0  0  0  0
  1  5  2  0  0  0  0
  2  6  2  0  0  0  0
  3  8  2  0  0  0  0
  3 16  1  0  0  0  0
  4  9  1  0  0  0  0
  4 16  2  0  0  0  0
  5 19  1  0  0  0  0
  6 21  1  0  0  0  0
  7 10  2  0  0  0  0
  7 20  1  0  0  0  0
  8 24  1  0  0  0  0
  9 24  2  0  0  0  0
 10 25  1  0  0  0  0
 11 12  2  0  0  0  0
 11 26  1  0  0  0  0
 12 27  1  0  0  0  0
 13 22  1  0  0  0  0
 13 25  2  0  0  0  0
 14 27  2  0  0  0  0
 14 28  1  0  0  0  0
 15 23  2  0  0  0  0
 15 83  1  0  0  0  0
 16 29  1  0  0  0  0
 17 23  1  0  0  0  0
 17 30  2  0  0  0  0
 17 33  1  0  0  0  0
 18 29  1  0  0  0  0
 18 31  2  0  0  0  0
 18 34  1  0  0  0  0
 19 21  2  0  0  0  0
 19 42  1  0  0  0  0
 20 22  2  0  0  0  0
 20 43  1  0  0  0  0
 21 51  1  0  0  0  0
 22 44  1  0  0  0  0
 23 71  1  0  0  0  0
 24 85  1  0  0  0  0
 25 86  1  0  0  0  0
 26 28  2  0  0  0  0
 26 85  1  0  0  0  0
 27 87  1  0  0  0  0
 28 88  1  0  0  0  0
 29 64  2  0  0  0  0
 30 60  1  0  0  0  0
 30 83  1  0  0  0  0
 31 66  1  0  0  0  0
 31 69  1  0  0  0  0
 32 35  2  0  0  0  0
 32 86  1  0  0  0  0
 33 36  1  0  0  0  0
 33 65  2  0  0  0  0
 34 70  1  0  0  0  0
 34 76  2  0  0  0  0
 35 37  1  0  0  0  0
 35 84  1  0  0  0  0
 36 54  1  0  0  0  0
 36 77  2  0  0  0  0
 37 71  1  0  0  0  0
 37 78  2  0  0  0  0
 38 52  1  0  0  0  0
 38 72  1  0  0  0  0
 38 79  2  0  0  0  0
 39 61  1  0  0  0  0
 39 67  1  0  0  0  0
 39 80  2  0  0  0  0
 40 62  1  0  0  0  0
 40 73  1  0  0  0  0
 40 81  2  0  0  0  0
 41 68  1  0  0  0  0
 41 74  1  0  0  0  0
 41 82  2  0  0  0  0
 42 45  1  0  0  0  0
 43 52  1  0  0  0  0
 44 67  1  0  0  0  0
 45 47  1  0  0  0  0
 46 48  1  0  0  0  0
 46 49  1  0  0  0  0
 47 51  1  0  0  0  0
 48 53  1  0  0  0  0
 49 68  1  0  0  0  0
 50 53  1  0  0  0  0
 50 68  1  0  0  0  0
 51 72  1  0  0  0  0
 52 67  1  0  0  0  0
 53 66  1  0  0  0  0
 55 62  1  0  0  0  0
 56 63  1  0  0  0  0
 57 63  1  0  0  0  0
 58 63  1  0  0  0  0
 59 75  1  0  0  0  0
 60 74  1  0  0  0  0
 61 63  1  0  0  0  0
 61 73  1  0  0  0  0
 62 75  1  0  0  0  0
 64 66  1  0  0  0  0
M  CHG  1  75   1
M  ISO  4  32 101  41 100  74 100  86 101
M  END
> <Batch ID>
0163

> <Smiles>
CNC(C)C(=O)NC(C(=O)N1Cc2cc([101O:1][101CH2:1]C(=O)C(=O)Nc3coc(C[100NH:0][100C:0](=O)N4CCCC(n5nc(-c6ccc(Oc7ccc(F)cc7F)cc6)c(C(N)=O)c5N)C4)c3C(=N)C(C)=O)ccc2CC1C(=O)NC1CCCc2ccccc21)C(C)(C)C

> <Shape>
0.255

> <Color>
0.088

> <Negative vol penalty>
0.000

$$$$

  -OEChem-04052303593D

 81 89  0     1  0  0  0  0  0999 V2000
  -38.0751  -30.7448   28.2079 C   0  0  0  0  0  0  0  0  0  0  0  0
  -37.0995  -29.7589   28.0997 C   0  0  0  0  0  0  0  0  0  0  0  0
  -23.1067   -9.8095   19.9645 C   0  0  0  0  0  0  0  0  0  0  0  0
  -23.8219   -9.8970   22.2705 C   0  0  0  0  0  0  0  0  0  0  0  0
  -37.7023  -32.0838   28.3171 C   0  0  0  0  0  0  0  0  0  0  0  0
  -35.7504  -30.1114   28.1017 C   0  0  0  0  0  0  0  0  0  0  0  0
  -33.1042  -27.6901   24.5268 C   0  0  0  0  0  0  0  0  0  0  0  0
  -22.3691   -8.6574   20.2369 C   0  0  0  0  0  0  0  0  0  0  0  0
  -23.0843   -8.7449   22.5430 C   0  0  0  0  0  0  0  0  0  0  0  0
  -32.7512  -26.3659   24.7831 C   0  0  0  0  0  0  0  0  0  0  0  0
  -19.8528   -7.9340   23.1091 C   0  0  0  0  0  0  0  0  0  0  0  0
  -19.0737   -7.9237   24.2660 C   0  0  0  0  0  0  0  0  0  0  0  0
  -30.5365  -27.0848   25.4136 C   0  0  0  0  0  0  0  0  0  0  0  0
  -20.3190   -6.0233   25.0875 C   0  0  0  0  0  0  0  0  0  0  0  0
  -31.7091  -17.6611   21.6683 C   0  0  0  0  0  0  0  0  0  0  0  0
  -23.8332  -10.4293   20.9813 C   0  0  0  0  0  0  0  0  0  0  0  0
  -24.1532  -12.9526   20.7871 C   0  0  0  0  0  0  0  0  0  0  0  0
  -36.3481  -32.4538   28.3108 C   0  0  0  0  0  0  0  0  0  0  0  0
  -32.1779  -28.7244   24.7228 C   0  0  0  0  0  0  0  0  0  0  0  0
  -35.3591  -31.4565   28.2123 C   0  0  0  0  0  0  0  0  0  0  0  0
  -30.8795  -28.4210   25.1567 C   0  0  0  0  0  0  0  0  0  0  0  0
  -22.3579   -8.1251   21.5262 C   0  0  0  0  0  0  0  0  0  0  0  0
  -31.4680  -26.0634   25.2294 C   0  0  0  0  0  0  0  0  0  0  0  0
  -20.8649   -6.9890   22.9413 C   0  0  0  0  0  0  0  0  0  0  0  0
  -19.3068   -6.9683   25.2553 C   0  0  0  0  0  0  0  0  0  0  0  0
  -21.0980   -6.0336   23.9306 C   0  0  0  0  0  0  0  0  0  0  0  0
  -24.5957  -11.6191   20.7003 C   0  0  0  0  0  0  0  0  0  0  0  0
  -25.2450  -13.7012   20.4209 C   0  0  0  0  0  0  0  0  0  0  0  0
  -30.5087  -17.0125   21.8692 C   0  0  0  0  0  0  0  0  0  0  0  0
  -30.7067  -19.1902   22.8795 C   0  0  0  0  0  0  0  0  0  0  0  0
  -22.8700  -13.4686   21.1650 C   0  0  0  0  0  0  0  0  0  0  0  0
  -32.0377  -31.2839   26.6024 C   0  0  0  0  0  0  0  0  0  0  0  0
  -30.8583  -22.5692   24.5048 C   0  0  0  0  0  0  0  0  0  0  0  0
  -29.3659  -31.9223   24.8774 C   0  0  0  0  0  0  0  0  0  0  0  0
  -26.8174  -30.7406   22.9394 C   0  0  0  0  0  0  0  0  0  0  0  0
  -30.6967  -14.8070   20.6664 C   0  0  0  0  0  0  0  0  0  0  0  0
  -35.9926  -33.9098   28.4789 C   0  0  0  0  0  0  0  0  0  0  0  0
  -32.5661  -30.1449   24.4162 C   0  0  0  0  0  0  0  0  0  0  0  0
  -29.8417  -29.4927   25.3634 C   0  0  0  0  0  0  0  0  0  0  0  0
  -34.5506  -34.2328   28.0962 C   0  0  0  0  0  0  0  0  0  0  0  0
  -29.6513  -12.3081   18.3555 C   0  0  0  0  0  0  0  0  0  0  0  0
  -33.5948  -33.2136   28.7081 C   0  0  0  0  0  0  0  0  0  0  0  0
  -28.2064  -12.0158   18.7666 C   0  0  0  0  0  0  0  0  0  0  0  0
  -30.5407  -12.5842   19.5664 C   0  0  0  0  0  0  0  0  0  0  0  0
  -28.6006  -13.3328   20.8873 C   0  0  0  0  0  0  0  0  0  0  0  0
  -33.8858  -31.8015   28.1859 C   0  0  1  0  0  0  0  0  0  0  0  0
  -31.7013  -31.1706   25.1424 C   0  0  1  0  0  0  0  0  0  0  0  0
  -27.6525  -13.1124   19.6973 C   0  0  2  0  0  0  0  0  0  0  0  0
  -24.7664  -31.4964   21.7067 C   0  0  0  0  0  0  0  0  0  0  0  0
  -27.8648  -32.1566   27.5235 C   0  0  0  0  0  0  0  0  0  0  0  0
  -25.7212  -31.9595   26.2449 C   0  0  0  0  0  0  0  0  0  0  0  0
  -27.2524  -33.8825   25.8203 C   0  0  0  0  0  0  0  0  0  0  0  0
  -27.9022  -29.8299   20.3408 C   0  0  0  0  0  0  0  0  0  0  0  0
  -31.4376  -21.4357   23.6853 C   0  0  0  0  0  0  0  0  0  0  0  0
  -31.7712  -23.7625   24.7095 C   0  0  0  0  0  0  0  0  0  1  0  0
  -27.9017  -31.5783   25.0075 C   0  0  1  0  0  0  0  0  0  0  0  0
  -26.2581  -31.2166   21.6108 C   0  0  2  0  0  0  0  0  0  0  0  0
  -27.2050  -32.3740   26.1471 C   0  0  0  0  0  0  0  0  0  0  0  0
  -31.8243  -18.9102   22.2465 N   0  0  0  0  0  0  0  0  0  0  0  0
  -25.8693  -11.5228   20.3095 N   0  0  0  0  0  0  0  0  0  0  0  0
  -26.2364  -12.8054   20.1474 N   0  0  0  0  0  0  0  0  0  0  0  0
  -30.2714  -30.8669   25.0561 N   0  0  0  0  0  0  0  0  0  0  0  0
  -29.9551  -13.6366   20.3997 N   0  0  0  0  0  0  0  0  0  0  0  0
  -25.4442  -15.0318   20.3094 N   0  0  0  0  0  0  0  0  0  0  0  0
  -21.8605  -12.5605   21.5118 N   0  0  0  0  0  0  0  0  0  0  0  0
  -30.0248  -15.7509   21.4424 N   0  0  0  0  0  0  0  0  0  0  0  0
  -30.4756  -20.3693   23.5735 N   0  0  0  0  0  0  0  0  0  0  0  0
  -33.3506  -31.6357   26.8516 N   0  0  0  0  0  0  0  0  0  0  0  0
  -27.3147  -31.7862   23.6882 N   0  0  0  0  0  0  0  0  0  0  0  0
  -26.4760  -30.1849   20.5576 N   0  3  0  0  0  0  0  0  0  0  0  0
  -22.6210  -14.6980   21.1785 O   0  0  0  0  0  0  0  0  0  0  0  0
  -31.1701  -31.0695   27.4408 O   0  0  0  0  0  0  0  0  0  0  0  0
  -29.7234  -22.5352   24.9787 O   0  0  0  0  0  0  0  0  0  0  0  0
  -29.6937  -33.0832   24.6194 O   0  0  0  0  0  0  0  0  0  0  0  0
  -26.8101  -29.5599   23.2805 O   0  0  0  0  0  0  0  0  0  0  0  0
  -31.8330  -14.9722   20.2152 O   0  0  0  0  0  0  0  0  0  0  0  0
  -21.6381   -7.0010   21.7925 O   0  0  0  0  0  0  0  0  0  0  0  0
  -31.1210  -24.7718   25.4809 O   0  0  0  0  0  0  0  0  0  1  0  0
  -18.5596   -6.9595   26.3669 F   0  0  0  0  0  0  0  0  0  0  0  0
  -22.0697   -5.1239   23.7756 F   0  0  0  0  0  0  0  0  0  0  0  0
  -29.4754  -17.9963   22.8209 S   0  0  0  0  0  0  0  0  0  0  0  0
  1  2  1  0  0  0  0
  1  5  2  0  0  0  0
  2  6  2  0  0  0  0
  3  8  2  0  0  0  0
  3 16  1  0  0  0  0
  4  9  1  0  0  0  0
  4 16  2  0  0  0  0
  5 18  1  0  0  0  0
  6 20  1  0  0  0  0
  7 10  2  0  0  0  0
  7 19  1  0  0  0  0
  8 22  1  0  0  0  0
  9 22  2  0  0  0  0
 10 23  1  0  0  0  0
 11 12  2  0  0  0  0
 11 24  1  0  0  0  0
 12 25  1  0  0  0  0
 13 21  1  0  0  0  0
 13 23  2  0  0  0  0
 14 25  2  0  0  0  0
 14 26  1  0  0  0  0
 15 29  2  0  0  0  0
 15 59  1  0  0  0  0
 16 27  1  0  0  0  0
 17 27  1  0  0  0  0
 17 28  2  0  0  0  0
 17 31  1  0  0  0  0
 18 20  2  0  0  0  0
 18 37  1  0  0  0  0
 19 21  2  0  0  0  0
 19 38  1  0  0  0  0
 20 46  1  0  0  0  0
 21 39  1  0  0  0  0
 22 77  1  0  0  0  0
 23 78  1  0  0  0  0
 24 26  2  0  0  0  0
 24 77  1  0  0  0  0
 25 79  1  0  0  0  0
 26 80  1  0  0  0  0
 27 60  2  0  0  0  0
 28 61  1  0  0  0  0
 28 64  1  0  0  0  0
 29 66  1  0  0  0  0
 29 81  1  0  0  0  0
 30 59  2  0  0  0  0
 30 67  1  0  0  0  0
 30 81  1  0  0  0  0
 31 65  1  0  0  0  0
 31 71  2  0  0  0  0
 32 47  1  0  0  0  0
 32 68  1  0  0  0  0
 32 72  2  0  0  0  0
 33 54  1  0  0  0  0
 33 55  1  0  0  0  0
 33 73  2  0  0  0  0
 34 56  1  0  0  0  0
 34 62  1  0  0  0  0
 34 74  2  0  0  0  0
 35 57  1  0  0  0  0
 35 69  1  0  0  0  0
 35 75  2  0  0  0  0
 36 63  1  0  0  0  0
 36 66  1  0  0  0  0
 36 76  2  0  0  0  0
 37 40  1  0  0  0  0
 38 47  1  0  0  0  0
 39 62  1  0  0  0  0
 40 42  1  0  0  0  0
 41 43  1  0  0  0  0
 41 44  1  0  0  0  0
 42 46  1  0  0  0  0
 43 48  1  0  0  0  0
 44 63  1  0  0  0  0
 45 48  1  0  0  0  0
 45 63  1  0  0  0  0
 46 68  1  0  0  0  0
 47 62  1  0  0  0  0
 48 61  1  0  0  0  0
 49 57  1  0  0  0  0
 50 58  1  0  0  0  0
 51 58  1  0  0  0  0
 52 58  1  0  0  0  0
 53 70  1  0  0  0  0
 54 67  1  0  0  0  0
 55 78  1  0  0  0  0
 56 58  1  0  0  0  0
 56 69  1  0  0  0  0
 57 70  1  0  0  0  0
 60 61  1  0  0  0  0
M  CHG  1  70   1
M  ISO  4  36 100  55 101  66 100  78 101
M  END
> <Batch ID>
0163

> <Smiles>
CNC(C)C(=O)NC(C(=O)N1Cc2cc([101O:1][101CH2:1]C(=O)CNc3ncc([100NH:0][100C:0](=O)N4CCCC(n5nc(-c6ccc(Oc7ccc(F)cc7F)cc6)c(C(N)=O)c5N)C4)s3)ccc2CC1C(=O)NC1CCCc2ccccc21)C(C)(C)C

> <Shape>
0.247

> <Color>
0.188

> <Negative vol penalty>
0.000

$$$$

  -OEChem-04052303593D

 93102  0     1  0  0  0  0  0999 V2000
  -17.8601  -27.5582   24.1114 C   0  0  0  0  0  0  0  0  0  0  0  0
  -17.8986  -26.8120   22.9379 C   0  0  0  0  0  0  0  0  0  0  0  0
  -23.0234   -9.8099   20.0288 C   0  0  0  0  0  0  0  0  0  0  0  0
  -23.5683  -10.1308   22.3605 C   0  0  0  0  0  0  0  0  0  0  0  0
  -18.8247  -28.5372   24.3455 C   0  0  0  0  0  0  0  0  0  0  0  0
  -18.9012  -27.0452   21.9973 C   0  0  0  0  0  0  0  0  0  0  0  0
  -32.5178  -17.6423   23.3222 C   0  0  0  0  0  0  0  0  0  0  0  0
  -24.1034  -22.1064   18.9033 C   0  0  0  0  0  0  0  0  0  0  0  0
  -31.9454  -16.6727   22.4961 C   0  0  0  0  0  0  0  0  0  0  0  0
  -22.2249   -8.7171   20.3657 C   0  0  0  0  0  0  0  0  0  0  0  0
  -22.7697   -9.0380   22.6975 C   0  0  0  0  0  0  0  0  0  0  0  0
  -25.1735  -21.3637   18.4038 C   0  0  0  0  0  0  0  0  0  0  0  0
  -21.1621   -6.1130   24.1364 C   0  0  0  0  0  0  0  0  0  0  0  0
  -21.6755   -5.1920   25.0494 C   0  0  0  0  0  0  0  0  0  0  0  0
  -26.4694  -23.3883   18.1400 C   0  0  0  0  0  0  0  0  0  0  0  0
  -23.5232   -4.7440   23.5587 C   0  0  0  0  0  0  0  0  0  0  0  0
  -23.6952  -10.5168   21.0262 C   0  0  0  0  0  0  0  0  0  0  0  0
  -29.7415  -17.6641   22.7819 C   0  0  0  0  0  0  0  0  0  0  0  0
  -24.1234  -12.9929   20.5863 C   0  0  0  0  0  0  0  0  0  0  0  0
  -19.8454  -28.7759   23.4117 C   0  0  0  0  0  0  0  0  0  0  0  0
  -31.6935  -18.6181   23.8569 C   0  0  0  0  0  0  0  0  0  0  0  0
  -24.2180  -23.4928   19.0376 C   0  0  0  0  0  0  0  0  0  0  0  0
  -19.8797  -28.0293   22.2185 C   0  0  0  0  0  0  0  0  0  0  0  0
  -25.4054  -24.1360   18.6514 C   0  0  0  0  0  0  0  0  0  0  0  0
  -30.3194  -18.6287   23.5897 C   0  0  0  0  0  0  0  0  0  0  0  0
  -30.5673  -16.6836   22.2277 C   0  0  0  0  0  0  0  0  0  0  0  0
  -22.0980   -8.3311   21.7001 C   0  0  0  0  0  0  0  0  0  0  0  0
  -26.3535  -22.0031   18.0229 C   0  0  0  0  0  0  0  0  0  0  0  0
  -21.8292   -6.3495   22.9344 C   0  0  0  0  0  0  0  0  0  0  0  0
  -22.8560   -4.5075   24.7606 C   0  0  0  0  0  0  0  0  0  0  0  0
  -23.0098   -5.6651   22.6456 C   0  0  0  0  0  0  0  0  0  0  0  0
  -24.5207  -11.6455   20.6787 C   0  0  0  0  0  0  0  0  0  0  0  0
  -25.2667  -13.6642   20.2276 C   0  0  0  0  0  0  0  0  0  0  0  0
  -28.2768  -17.6798   22.5236 C   0  0  0  0  0  0  0  0  0  0  0  0
  -22.8359  -13.5847   20.8052 C   0  0  0  0  0  0  0  0  0  0  0  0
  -22.5982  -26.7081   20.0932 C   0  0  0  0  0  0  0  0  0  0  0  0
  -25.5197  -26.8360   21.0198 C   0  0  0  0  0  0  0  0  0  0  0  0
  -28.6774  -26.4059   22.2368 C   0  0  0  0  0  0  0  0  0  0  0  0
  -30.7227  -14.6306   20.7761 C   0  0  0  0  0  0  0  0  0  0  0  0
  -20.8383  -29.8772   23.6872 C   0  0  0  0  0  0  0  0  0  0  0  0
  -32.0635  -19.7276   24.7897 C   0  0  0  0  0  0  0  0  0  0  0  0
  -23.0690  -24.3398   19.5132 C   0  0  0  0  0  0  0  0  0  0  0  0
  -29.6431  -19.7454   24.3202 C   0  0  0  0  0  0  0  0  0  0  0  0
  -25.4711  -25.6333   18.7811 C   0  0  0  0  0  0  0  0  0  0  0  0
  -30.8399  -20.6471   24.6582 C   0  0  0  0  0  0  0  0  0  0  0  0
  -22.0863  -29.8053   22.8111 C   0  0  0  0  0  0  0  0  0  0  0  0
  -29.7587  -11.9232   18.6743 C   0  0  0  0  0  0  0  0  0  0  0  0
  -21.7027  -29.5702   21.3536 C   0  0  0  0  0  0  0  0  0  0  0  0
  -28.2773  -11.7204   19.0008 C   0  0  0  0  0  0  0  0  0  0  0  0
  -30.5655  -12.3053   19.9139 C   0  0  0  0  0  0  0  0  0  0  0  0
  -28.5622  -13.2517   20.9910 C   0  0  0  0  0  0  0  0  0  0  0  0
  -20.9660  -28.2358   21.1854 C   0  0  1  0  0  0  0  0  0  0  0  0
  -23.5180  -25.5508   20.3504 C   0  0  1  0  0  0  0  0  0  0  0  0
  -27.6974  -12.9289   19.7615 C   0  0  2  0  0  0  0  0  0  0  0  0
  -30.4462  -27.5727   23.5811 C   0  0  0  0  0  0  0  0  0  0  0  0
  -26.1828  -28.5926   18.6159 C   0  0  0  0  0  0  0  0  0  0  0  0
  -28.4363  -29.0027   19.6268 C   0  0  0  0  0  0  0  0  0  0  0  0
  -26.3787  -29.7374   20.8307 C   0  0  0  0  0  0  0  0  0  0  0  0
  -25.9774  -14.6327   24.2144 C   0  0  0  0  0  0  0  0  0  0  0  0
  -23.9472  -16.1137   24.1085 C   0  0  0  0  0  0  0  0  0  0  0  0
  -29.4162  -20.0030   17.7286 C   0  0  0  0  0  0  0  0  0  0  0  0
  -28.9808  -22.0092   19.1606 C   0  0  0  0  0  0  0  0  0  0  0  0
  -28.6500  -24.3002   24.3163 C   0  0  0  0  0  0  0  0  0  0  0  0
  -27.6352  -19.8673   19.5023 C   0  0  0  0  0  0  0  0  0  0  0  0
  -26.1349  -16.9641   23.1977 C   0  0  0  0  0  0  0  0  0  0  0  0
  -28.5625  -19.2391   20.5448 C   0  0  0  0  0  0  0  0  0  0  0  0
  -26.9283  -27.2728   20.7060 C   0  0  1  0  0  0  0  0  0  0  0  0
  -29.2614  -26.6202   23.6215 C   0  0  2  0  0  0  0  0  0  0  0  0
  -26.9726  -28.6249   19.9395 C   0  0  0  0  0  0  0  0  0  0  0  0
  -25.4703  -16.0764   24.2587 C   0  0  0  0  0  0  0  0  0  0  0  0
  -28.3453  -20.7901   18.4907 C   0  0  0  0  0  0  0  0  0  1  0  0
  -25.8152  -11.4694   20.4009 N   0  0  0  0  0  0  0  0  0  0  0  0
  -27.5798  -16.9974   23.3775 N   0  0  0  0  0  0  0  0  0  0  0  0
  -26.2413  -12.7150   20.1304 N   0  0  0  0  0  0  0  0  0  0  0  0
  -24.8707  -26.0539   20.0567 N   0  0  0  0  0  0  0  0  0  0  0  0
  -29.9596  -13.4601   20.5804 N   0  0  0  0  0  0  0  0  0  0  0  0
  -25.5234  -14.9678   19.9890 N   0  0  0  0  0  0  0  0  0  0  0  0
  -21.7700  -12.7503   21.1683 N   0  0  0  0  0  0  0  0  0  0  0  0
  -30.0310  -15.6738   21.3908 N   0  0  0  0  0  0  0  0  0  0  0  0
  -27.7977  -18.3965   21.4353 N   0  0  0  0  0  0  0  0  0  0  0  0
  -21.9041  -27.1340   21.2095 N   0  0  0  0  0  0  0  0  0  0  0  0
  -27.6453  -27.2824   21.9765 N   0  0  0  0  0  0  0  0  0  0  0  0
  -25.7975  -16.6320   25.6113 N   0  3  0  0  0  0  0  0  0  0  0  0
  -29.7198  -25.3240   24.1967 N   0  3  0  0  0  0  0  0  0  0  0  0
  -22.6330  -14.8148   20.6664 O   0  0  0  0  0  0  0  0  0  0  0  0
  -22.5239  -27.1817   18.9654 O   0  0  0  0  0  0  0  0  0  0  0  0
  -25.0044  -27.1822   22.0865 O   0  0  0  0  0  0  0  0  0  0  0  0
  -29.0975  -25.5493   21.4620 O   0  0  0  0  0  0  0  0  0  0  0  0
  -31.8948  -14.7117   20.3996 O   0  0  0  0  0  0  0  0  0  0  0  0
  -21.3187   -7.2648   22.0293 O   0  0  0  0  0  0  0  0  0  0  0  0
  -27.3959  -21.2715   17.5403 O   0  0  0  0  0  0  0  0  0  1  0  0
  -23.3497   -3.6242   25.6382 F   0  0  0  0  0  0  0  0  0  0  0  0
  -23.6558   -5.8889   21.4930 F   0  0  0  0  0  0  0  0  0  0  0  0
  1  2  1  0  0  0  0
  1  5  2  0  0  0  0
  2  6  2  0  0  0  0
  3 10  2  0  0  0  0
  3 17  1  0  0  0  0
  4 11  1  0  0  0  0
  4 17  2  0  0  0  0
  5 20  1  0  0  0  0
  6 23  1  0  0  0  0
  7  9  1  0  0  0  0
  7 21  2  0  0  0  0
  8 12  2  0  0  0  0
  8 22  1  0  0  0  0
  9 26  2  0  0  0  0
 10 27  1  0  0  0  0
 11 27  2  0  0  0  0
 12 28  1  0  0  0  0
 13 14  2  0  0  0  0
 13 29  1  0  0  0  0
 14 30  1  0  0  0  0
 15 24  1  0  0  0  0
 15 28  2  0  0  0  0
 16 30  2  0  0  0  0
 16 31  1  0  0  0  0
 17 32  1  0  0  0  0
 18 25  2  0  0  0  0
 18 26  1  0  0  0  0
 18 34  1  0  0  0  0
 19 32  1  0  0  0  0
 19 33  2  0  0  0  0
 19 35  1  0  0  0  0
 20 23  2  0  0  0  0
 20 40  1  0  0  0  0
 21 25  1  0  0  0  0
 21 41  1  0  0  0  0
 22 24  2  0  0  0  0
 22 42  1  0  0  0  0
 23 52  1  0  0  0  0
 24 44  1  0  0  0  0
 25 43  1  0  0  0  0
 26 79  1  0  0  0  0
 27 90  1  0  0  0  0
 28 91  1  0  0  0  0
 29 31  2  0  0  0  0
 29 90  1  0  0  0  0
 30 92  1  0  0  0  0
 31 93  1  0  0  0  0
 32 72  2  0  0  0  0
 33 74  1  0  0  0  0
 33 77  1  0  0  0  0
 34 73  2  0  0  0  0
 34 80  1  0  0  0  0
 35 78  1  0  0  0  0
 35 85  2  0  0  0  0
 36 53  1  0  0  0  0
 36 81  1  0  0  0  0
 36 86  2  0  0  0  0
 37 67  1  0  0  0  0
 37 75  1  0  0  0  0
 37 87  2  0  0  0  0
 38 68  1  0  0  0  0
 38 82  1  0  0  0  0
 38 88  2  0  0  0  0
 39 76  1  0  0  0  0
 39 79  1  0  0  0  0
 39 89  2  0  0  0  0
 40 46  1  0  0  0  0
 41 45  1  0  0  0  0
 42 53  1  0  0  0  0
 43 45  1  0  0  0  0
 44 75  1  0  0  0  0
 46 48  1  0  0  0  0
 47 49  1  0  0  0  0
 47 50  1  0  0  0  0
 48 52  1  0  0  0  0
 49 54  1  0  0  0  0
 50 76  1  0  0  0  0
 51 54  1  0  0  0  0
 51 76  1  0  0  0  0
 52 81  1  0  0  0  0
 53 75  1  0  0  0  0
 54 74  1  0  0  0  0
 55 68  1  0  0  0  0
 56 69  1  0  0  0  0
 57 69  1  0  0  0  0
 58 69  1  0  0  0  0
 59 70  1  0  0  0  0
 60 70  1  0  0  0  0
 61 71  1  0  0  0  0
 62 71  1  0  0  0  0
 63 84  1  0  0  0  0
 64 66  1  0  0  0  0
 64 71  1  0  0  0  0
 65 70  1  0  0  0  0
 65 73  1  0  0  0  0
 66 80  1  0  0  0  0
 67 69  1  0  0  0  0
 67 82  1  0  0  0  0
 68 84  1  0  0  0  0
 70 83  1  0  0  0  0
 71 91  1  0  0  0  0
 72 74  1  0  0  0  0
M  CHG  2  83   1  84   1
M  ISO  4  39 100  71 101  79 100  91 101
M  END
> <Batch ID>
0163

> <Smiles>
CNC(C)C(=O)NC(C(=O)N1Cc2cc([101O:1][101C:1](C)(C)CCNC(=NCC(C)(C)N)c3c([100NH:0][100C:0](=O)N4CCCC(n5nc(-c6ccc(Oc7ccc(F)cc7F)cc6)c(C(N)=O)c5N)C4)ccc4c3CCC4)ccc2CC1C(=O)NC1CCCc2ccccc21)C(C)(C)C

> <Shape>
0.307

> <Color>
0.175

> <Negative vol penalty>
0.000

$$$$

  -OEChem-04052303593D

 86 94  0     1  0  0  0  0  0999 V2000
  -18.9176  -27.6267   21.9093 C   0  0  0  0  0  0  0  0  0  0  0  0
  -18.4831  -26.4836   21.2459 C   0  0  0  0  0  0  0  0  0  0  0  0
  -27.6424  -23.4518   20.3377 C   0  0  0  0  0  0  0  0  0  0  0  0
  -29.2541  -23.6721   18.5514 C   0  0  0  0  0  0  0  0  0  0  0  0
  -20.1860  -27.6560   22.4875 C   0  0  0  0  0  0  0  0  0  0  0  0
  -19.3172  -25.3696   21.1593 C   0  0  0  0  0  0  0  0  0  0  0  0
  -17.6199  -19.4857   21.2262 C   0  0  0  0  0  0  0  0  0  0  0  0
  -27.6692  -24.8328   20.5323 C   0  0  0  0  0  0  0  0  0  0  0  0
  -29.2808  -25.0531   18.7459 C   0  0  0  0  0  0  0  0  0  0  0  0
  -17.4202  -18.5554   20.2072 C   0  0  0  0  0  0  0  0  0  0  0  0
  -26.3461  -27.5802   19.0715 C   0  0  0  0  0  0  0  0  0  0  0  0
  -25.1255  -28.2363   19.2302 C   0  0  0  0  0  0  0  0  0  0  0  0
  -19.6609  -17.7242   20.5349 C   0  0  0  0  0  0  0  0  0  0  0  0
  -23.9305  -12.6241   20.1718 C   0  0  0  0  0  0  0  0  0  0  0  0
  -25.8185  -28.9966   21.4163 C   0  0  0  0  0  0  0  0  0  0  0  0
  -24.2198  -14.9789   20.0040 C   0  0  0  0  0  0  0  0  0  0  0  0
  -28.4349  -22.8715   19.3473 C   0  0  0  0  0  0  0  0  0  0  0  0
  -27.5564  -20.7232   18.2886 C   0  0  0  0  0  0  0  0  0  0  0  0
  -21.0324  -26.5383   22.4163 C   0  0  0  0  0  0  0  0  0  0  0  0
  -18.8475  -19.5495   21.9010 C   0  0  0  0  0  0  0  0  0  0  0  0
  -20.5987  -25.3844   21.7359 C   0  0  0  0  0  0  0  0  0  0  0  0
  -19.8729  -18.6545   21.5639 C   0  0  0  0  0  0  0  0  0  0  0  0
  -23.3992  -13.8714   19.8631 C   0  0  0  0  0  0  0  0  0  0  0  0
  -25.2477  -12.5239   20.6058 C   0  0  0  0  0  0  0  0  0  0  0  0
  -28.4884  -25.6334   19.7364 C   0  0  0  0  0  0  0  0  0  0  0  0
  -18.4417  -17.6764   19.8594 C   0  0  0  0  0  0  0  0  0  0  0  0
  -27.3029  -27.6323   20.0852 C   0  0  0  0  0  0  0  0  0  0  0  0
  -24.8617  -28.9445   20.4026 C   0  0  0  0  0  0  0  0  0  0  0  0
  -27.0391  -28.3405   21.2576 C   0  0  0  0  0  0  0  0  0  0  0  0
  -28.4080  -21.4450   19.1463 C   0  0  0  0  0  0  0  0  0  0  0  0
  -25.9856  -13.6916   20.7133 C   0  0  0  0  0  0  0  0  0  0  0  0
  -27.9272  -19.4119   18.4603 C   0  0  0  0  0  0  0  0  0  0  0  0
  -26.5226  -21.1959   17.4148 C   0  0  0  0  0  0  0  0  0  0  0  0
  -27.3997  -13.6740   21.1681 C   0  0  0  0  0  0  0  0  0  0  0  0
  -21.1057  -21.7600   22.2452 C   0  0  0  0  0  0  0  0  0  0  0  0
  -20.0837  -15.2119   18.8196 C   0  0  0  0  0  0  0  0  0  0  0  0
  -22.3615  -19.5972   24.3110 C   0  0  0  0  0  0  0  0  0  0  0  0
  -22.6028  -16.3413   25.3048 C   0  0  0  0  0  0  0  0  0  0  0  0
  -29.3379  -15.1263   21.6760 C   0  0  0  0  0  0  0  0  0  0  0  0
  -22.4131  -26.6339   23.0157 C   0  0  0  0  0  0  0  0  0  0  0  0
  -19.0379  -20.5409   23.0161 C   0  0  0  0  0  0  0  0  0  0  0  0
  -21.2024  -18.6687   22.2714 C   0  0  0  0  0  0  0  0  0  0  0  0
  -23.0908  -25.2790   23.2032 C   0  0  0  0  0  0  0  0  0  0  0  0
  -31.9156  -17.3988   20.8465 C   0  0  0  0  0  0  0  0  0  0  0  0
  -22.9414  -24.4288   21.9455 C   0  0  0  0  0  0  0  0  0  0  0  0
  -31.1659  -18.5938   20.2514 C   0  0  0  0  0  0  0  0  0  0  0  0
  -31.1552  -16.7776   22.0173 C   0  0  0  0  0  0  0  0  0  0  0  0
  -29.0129  -17.6181   21.1441 C   0  0  0  0  0  0  0  0  0  0  0  0
  -21.4649  -24.1471   21.6422 C   0  0  1  0  0  0  0  0  0  0  0  0
  -20.5048  -20.8602   23.2877 C   0  0  1  0  0  0  0  0  0  0  0  0
  -29.7040  -18.2349   19.9173 C   0  0  1  0  0  0  0  0  0  0  0  0
  -18.9707  -16.0135   16.7003 C   0  0  0  0  0  0  0  0  0  0  0  0
  -23.7348  -14.8779   27.0002 C   0  0  0  0  0  0  0  0  0  0  0  0
  -24.9685  -19.7954   22.7380 C   0  0  0  0  0  0  0  0  0  0  0  0
  -25.7168  -17.6788   23.8462 C   0  0  0  0  0  0  0  0  0  0  0  0
  -25.2524  -19.7077   25.2211 C   0  0  0  0  0  0  0  0  0  0  0  0
  -20.0169  -15.4715   26.4516 C   0  0  0  0  0  0  0  0  0  0  0  0
  -21.5942  -15.1495   18.7081 C   0  0  0  0  0  0  0  0  0  0  0  0
  -19.3972  -16.3760   18.1124 C   0  0  1  0  0  0  0  0  0  1  0  0
  -23.3225  -18.4389   24.1929 C   0  0  1  0  0  0  0  0  0  0  0  0
  -22.4945  -15.6955   26.6743 C   0  0  2  0  0  0  0  0  0  0  0  0
  -24.7908  -18.9060   23.9847 C   0  0  0  0  0  0  0  0  0  0  0  0
  -25.5039  -14.9209   20.4226 N   0  0  0  0  0  0  0  0  0  0  0  0
  -29.2559  -20.6575   19.8134 N   0  0  0  0  0  0  0  0  0  0  0  0
  -28.9388  -19.4273   19.3750 N   0  0  0  0  0  0  0  0  0  0  0  0
  -21.3421  -19.6605   23.3504 N   0  0  0  0  0  0  0  0  0  0  0  0
  -29.7838  -16.4582   21.6165 N   0  0  0  0  0  0  0  0  0  0  0  0
  -25.7942  -11.2663   20.9204 N   0  0  0  0  0  0  0  0  0  0  0  0
  -27.4834  -18.2587   17.9166 N   0  0  0  0  0  0  0  0  0  0  0  0
  -26.2723  -22.5738   17.3599 N   0  0  0  0  0  0  0  0  0  0  0  0
  -22.0890  -14.0025   19.4266 N   0  0  0  0  0  0  0  0  0  0  0  0
  -28.0274  -14.9184   21.2318 N   0  0  0  0  0  0  0  0  0  0  0  0
  -20.9594  -23.1077   22.5131 N   0  0  0  0  0  0  0  0  0  0  0  0
  -23.1195  -17.6173   25.3812 N   0  0  0  0  0  0  0  0  0  0  0  0
  -21.3093  -14.7937   26.7296 N   0  3  0  0  0  0  0  0  0  0  0  0
  -25.8300  -20.4178   16.7160 O   0  0  0  0  0  0  0  0  0  0  0  0
  -27.9108  -12.6052   21.4911 O   0  0  0  0  0  0  0  0  0  0  0  0
  -21.6622  -21.2680   21.2705 O   0  0  0  0  0  0  0  0  0  0  0  0
  -19.4379  -14.3751   19.4519 O   0  0  0  0  0  0  0  0  0  0  0  0
  -22.5055  -20.4116   25.2262 O   0  0  0  0  0  0  0  0  0  0  0  0
  -22.2664  -15.7694   24.2702 O   0  0  0  0  0  0  0  0  0  0  0  0
  -30.0567  -14.1965   22.0557 O   0  0  0  0  0  0  0  0  0  0  0  0
  -28.5146  -26.9810   19.9257 O   0  0  0  0  0  0  0  0  0  0  0  0
  -18.2496  -16.7679   18.8646 O   0  0  0  0  0  0  0  0  0  1  0  0
  -23.6901  -29.5758   20.5543 F   0  0  0  0  0  0  0  0  0  0  0  0
  -27.9549  -28.3951   22.2344 F   0  0  0  0  0  0  0  0  0  0  0  0
  1  2  1  0  0  0  0
  1  5  2  0  0  0  0
  2  6  2  0  0  0  0
  3  8  2  0  0  0  0
  3 17  1  0  0  0  0
  4  9  1  0  0  0  0
  4 17  2  0  0  0  0
  5 19  1  0  0  0  0
  6 21  1  0  0  0  0
  7 10  2  0  0  0  0
  7 20  1  0  0  0  0
  8 25  1  0  0  0  0
  9 25  2  0  0  0  0
 10 26  1  0  0  0  0
 11 12  2  0  0  0  0
 11 27  1  0  0  0  0
 12 28  1  0  0  0  0
 13 22  1  0  0  0  0
 13 26  2  0  0  0  0
 14 23  2  0  0  0  0
 14 24  1  0  0  0  0
 15 28  2  0  0  0  0
 15 29  1  0  0  0  0
 16 23  1  0  0  0  0
 16 63  2  0  0  0  0
 17 30  1  0  0  0  0
 18 30  1  0  0  0  0
 18 32  2  0  0  0  0
 18 33  1  0  0  0  0
 19 21  2  0  0  0  0
 19 40  1  0  0  0  0
 20 22  2  0  0  0  0
 20 41  1  0  0  0  0
 21 49  1  0  0  0  0
 22 42  1  0  0  0  0
 23 71  1  0  0  0  0
 24 31  2  0  0  0  0
 24 68  1  0  0  0  0
 25 83  1  0  0  0  0
 26 84  1  0  0  0  0
 27 29  2  0  0  0  0
 27 83  1  0  0  0  0
 28 85  1  0  0  0  0
 29 86  1  0  0  0  0
 30 64  2  0  0  0  0
 31 34  1  0  0  0  0
 31 63  1  0  0  0  0
 32 65  1  0  0  0  0
 32 69  1  0  0  0  0
 33 70  1  0  0  0  0
 33 76  2  0  0  0  0
 34 72  1  0  0  0  0
 34 77  2  0  0  0  0
 35 50  1  0  0  0  0
 35 73  1  0  0  0  0
 35 78  2  0  0  0  0
 36 58  1  0  0  0  0
 36 59  1  0  0  0  0
 36 79  2  0  0  0  0
 37 60  1  0  0  0  0
 37 66  1  0  0  0  0
 37 80  2  0  0  0  0
 38 61  1  0  0  0  0
 38 74  1  0  0  0  0
 38 81  2  0  0  0  0
 39 67  1  0  0  0  0
 39 72  1  0  0  0  0
 39 82  2  0  0  0  0
 40 43  1  0  0  0  0
 41 50  1  0  0  0  0
 42 66  1  0  0  0  0
 43 45  1  0  0  0  0
 44 46  1  0  0  0  0
 44 47  1  0  0  0  0
 45 49  1  0  0  0  0
 46 51  1  0  0  0  0
 47 67  1  0  0  0  0
 48 51  1  0  0  0  0
 48 67  1  0  0  0  0
 49 73  1  0  0  0  0
 50 66  1  0  0  0  0
 51 65  1  0  0  0  0
 52 59  1  0  0  0  0
 53 61  1  0  0  0  0
 54 62  1  0  0  0  0
 55 62  1  0  0  0  0
 56 62  1  0  0  0  0
 57 75  1  0  0  0  0
 58 71  1  0  0  0  0
 59 84  1  0  0  0  0
 60 62  1  0  0  0  0
 60 74  1  0  0  0  0
 61 75  1  0  0  0  0
 64 65  1  0  0  0  0
M  CHG  1  75   1
M  ISO  4  39 100  59 101  72 100  84 101
M  END
> <Batch ID>
0163

> <Smiles>
CNC(C)C(=O)NC(C(=O)N1Cc2cc([101O:1][101CH:1](C)C(=O)CNc3cnc(C(=O)[100NH:0][100C:0](=O)N4CCCC(n5nc(-c6ccc(Oc7ccc(F)cc7F)cc6)c(C(N)=O)c5N)C4)c(N)c3)ccc2CC1C(=O)NC1CCCc2ccccc21)C(C)(C)C

> <Shape>
0.212

> <Color>
0.087

> <Negative vol penalty>
0.000

$$$$

  -OEChem-04052303593D

 85 93  0     1  0  0  0  0  0999 V2000
  -20.4741  -28.6741   21.8163 C   0  0  0  0  0  0  0  0  0  0  0  0
  -21.1235  -27.5557   22.3291 C   0  0  0  0  0  0  0  0  0  0  0  0
  -23.0925   -9.8319   19.9463 C   0  0  0  0  0  0  0  0  0  0  0  0
  -23.8420   -9.8638   22.2429 C   0  0  0  0  0  0  0  0  0  0  0  0
  -20.9703  -29.3053   20.6764 C   0  0  0  0  0  0  0  0  0  0  0  0
  -22.2689  -27.0672   21.7016 C   0  0  0  0  0  0  0  0  0  0  0  0
  -25.9462  -25.9212   24.9893 C   0  0  0  0  0  0  0  0  0  0  0  0
  -22.3587   -8.6736   20.2018 C   0  0  0  0  0  0  0  0  0  0  0  0
  -23.1081   -8.7054   22.4984 C   0  0  0  0  0  0  0  0  0  0  0  0
  -25.8250  -24.7203   25.6871 C   0  0  0  0  0  0  0  0  0  0  0  0
  -19.8851   -7.8812   23.0928 C   0  0  0  0  0  0  0  0  0  0  0  0
  -19.1233   -7.8429   24.2606 C   0  0  0  0  0  0  0  0  0  0  0  0
  -31.7244  -17.6253   21.7020 C   0  0  0  0  0  0  0  0  0  0  0  0
  -27.3758  -23.6825   24.1582 C   0  0  0  0  0  0  0  0  0  0  0  0
  -20.3799   -5.9232   25.0174 C   0  0  0  0  0  0  0  0  0  0  0  0
  -23.8343  -10.4270   20.9668 C   0  0  0  0  0  0  0  0  0  0  0  0
  -31.6465  -18.8515   22.4044 C   0  0  0  0  0  0  0  0  0  0  0  0
  -24.1524  -12.9543   20.8289 C   0  0  0  0  0  0  0  0  0  0  0  0
  -22.1279  -28.8300   20.0403 C   0  0  0  0  0  0  0  0  0  0  0  0
  -26.7761  -26.0090   23.8624 C   0  0  0  0  0  0  0  0  0  0  0  0
  -22.7803  -27.6918   20.5514 C   0  0  0  0  0  0  0  0  0  0  0  0
  -27.5078  -24.8864   23.4495 C   0  0  0  0  0  0  0  0  0  0  0  0
  -22.3664   -8.1104   21.4779 C   0  0  0  0  0  0  0  0  0  0  0  0
  -26.5376  -23.5999   25.2698 C   0  0  0  0  0  0  0  0  0  0  0  0
  -20.8943   -6.9404   22.8872 C   0  0  0  0  0  0  0  0  0  0  0  0
  -19.3707   -6.8639   25.2229 C   0  0  0  0  0  0  0  0  0  0  0  0
  -21.1417   -5.9614   23.8495 C   0  0  0  0  0  0  0  0  0  0  0  0
  -24.5930  -11.6232   20.7033 C   0  0  0  0  0  0  0  0  0  0  0  0
  -25.2389  -13.7115   20.4647 C   0  0  0  0  0  0  0  0  0  0  0  0
  -30.5247  -16.9867   21.9140 C   0  0  0  0  0  0  0  0  0  0  0  0
  -30.4047  -18.8750   22.9954 C   0  0  0  0  0  0  0  0  0  0  0  0
  -32.6394  -19.8814   22.5015 C   0  0  0  0  0  0  0  0  0  0  0  0
  -22.8751  -13.4611   21.2383 C   0  0  0  0  0  0  0  0  0  0  0  0
  -26.3166  -26.6458   20.7823 C   0  0  0  0  0  0  0  0  0  0  0  0
  -28.0672  -20.8615   25.1566 C   0  0  0  0  0  0  0  0  0  0  0  0
  -29.5572  -26.5449   20.6786 C   0  0  0  0  0  0  0  0  0  0  0  0
  -32.4663  -25.4151   22.0596 C   0  0  0  0  0  0  0  0  0  0  0  0
  -30.6940  -14.8109   20.6556 C   0  0  0  0  0  0  0  0  0  0  0  0
  -22.5995  -29.5172   18.7833 C   0  0  0  0  0  0  0  0  0  0  0  0
  -26.9166  -27.3190   23.1366 C   0  0  0  0  0  0  0  0  0  0  0  0
  -28.4279  -24.9338   22.2580 C   0  0  0  0  0  0  0  0  0  0  0  0
  -24.0323  -29.1611   18.3954 C   0  0  0  0  0  0  0  0  0  0  0  0
  -29.6134  -12.3686   18.3009 C   0  0  0  0  0  0  0  0  0  0  0  0
  -24.2497  -27.6537   18.4814 C   0  0  0  0  0  0  0  0  0  0  0  0
  -28.1747  -12.0665   18.7263 C   0  0  0  0  0  0  0  0  0  0  0  0
  -30.5209  -12.6153   19.5048 C   0  0  0  0  0  0  0  0  0  0  0  0
  -28.6009  -13.3318   20.8721 C   0  0  0  0  0  0  0  0  0  0  0  0
  -24.0396  -27.1468   19.9133 C   0  0  1  0  0  0  0  0  0  0  0  0
  -27.3940  -27.1561   21.6968 C   0  0  1  0  0  0  0  0  0  0  0  0
  -27.6351  -13.1403   19.6913 C   0  0  2  0  0  0  0  0  0  0  0  0
  -33.9512  -19.6787   21.7803 C   0  0  0  0  0  0  0  0  0  0  0  0
  -25.7483  -20.1227   25.8273 C   0  0  0  0  0  0  0  0  0  0  0  0
  -34.9535  -25.4659   21.7299 C   0  0  0  0  0  0  0  0  0  0  0  0
  -29.2968  -24.5109   18.4192 C   0  0  0  0  0  0  0  0  0  0  0  0
  -31.6987  -23.9046   18.7820 C   0  0  0  0  0  0  0  0  0  0  0  0
  -31.0907  -26.2205   18.0822 C   0  0  0  0  0  0  0  0  0  0  0  0
  -32.9007  -26.7532   24.6634 C   0  0  0  0  0  0  0  0  0  0  0  0
  -28.4428  -19.6482   24.3292 C   0  0  0  0  0  0  0  0  0  0  0  0
  -26.5859  -21.2232   25.1992 C   0  0  1  0  0  0  0  0  0  1  0  0
  -30.5862  -25.4660   20.4419 C   0  0  1  0  0  0  0  0  0  0  0  0
  -33.7616  -26.1280   22.4036 C   0  0  2  0  0  0  0  0  0  0  0  0
  -30.6494  -25.0238   18.9527 C   0  0  0  0  0  0  0  0  0  0  0  0
  -25.8606  -11.5364   20.2914 N   0  0  0  0  0  0  0  0  0  0  0  0
  -26.2258  -12.8225   20.1549 N   0  0  0  0  0  0  0  0  0  0  0  0
  -28.5266  -26.2357   21.5776 N   0  0  0  0  0  0  0  0  0  0  0  0
  -29.9481  -13.6473   20.3718 N   0  0  0  0  0  0  0  0  0  0  0  0
  -25.4368  -15.0443   20.3824 N   0  0  0  0  0  0  0  0  0  0  0  0
  -21.8705  -12.5448   21.5780 N   0  0  0  0  0  0  0  0  0  0  0  0
  -30.0342  -15.7359   21.4641 N   0  0  0  0  0  0  0  0  0  0  0  0
  -29.7729  -19.8125   23.7993 N   0  0  0  0  0  0  0  0  0  0  0  0
  -25.1942  -27.4502   20.7314 N   0  0  0  0  0  0  0  0  0  0  0  0
  -31.8462  -25.9816   20.9661 N   0  0  0  0  0  0  0  0  0  0  0  0
  -33.9860  -26.1126   23.8768 N   0  3  0  0  0  0  0  0  0  0  0  0
  -32.5242  -20.9445   23.1386 O   0  0  0  0  0  0  0  0  0  0  0  0
  -22.6268  -14.6898   21.2851 O   0  0  0  0  0  0  0  0  0  0  0  0
  -26.4912  -25.6004   20.1672 O   0  0  0  0  0  0  0  0  0  0  0  0
  -28.9079  -21.5297   25.7597 O   0  0  0  0  0  0  0  0  0  0  0  0
  -29.6677  -27.6250   20.0931 O   0  0  0  0  0  0  0  0  0  0  0  0
  -32.0483  -24.4496   22.6950 O   0  0  0  0  0  0  0  0  0  0  0  0
  -31.8235  -14.9869   20.1917 O   0  0  0  0  0  0  0  0  0  0  0  0
  -29.7146  -17.7419   22.7013 O   0  0  0  0  0  0  0  0  0  0  0  0
  -21.6502   -6.9802   21.7276 O   0  0  0  0  0  0  0  0  0  0  0  0
  -26.4206  -22.4263   25.9487 O   0  0  0  0  0  0  0  0  0  1  0  0
  -18.6402   -6.8282   26.3450 F   0  0  0  0  0  0  0  0  0  0  0  0
  -22.1107   -5.0557   23.6581 F   0  0  0  0  0  0  0  0  0  0  0  0
  1  2  1  0  0  0  0
  1  5  2  0  0  0  0
  2  6  2  0  0  0  0
  3  8  2  0  0  0  0
  3 16  1  0  0  0  0
  4  9  1  0  0  0  0
  4 16  2  0  0  0  0
  5 19  1  0  0  0  0
  6 21  1  0  0  0  0
  7 10  2  0  0  0  0
  7 20  1  0  0  0  0
  8 23  1  0  0  0  0
  9 23  2  0  0  0  0
 10 24  1  0  0  0  0
 11 12  2  0  0  0  0
 11 25  1  0  0  0  0
 12 26  1  0  0  0  0
 13 17  1  0  0  0  0
 13 30  2  0  0  0  0
 14 22  1  0  0  0  0
 14 24  2  0  0  0  0
 15 26  2  0  0  0  0
 15 27  1  0  0  0  0
 16 28  1  0  0  0  0
 17 31  2  0  0  0  0
 17 32  1  0  0  0  0
 18 28  1  0  0  0  0
 18 29  2  0  0  0  0
 18 33  1  0  0  0  0
 19 21  2  0  0  0  0
 19 39  1  0  0  0  0
 20 22  2  0  0  0  0
 20 40  1  0  0  0  0
 21 48  1  0  0  0  0
 22 41  1  0  0  0  0
 23 82  1  0  0  0  0
 24 83  1  0  0  0  0
 25 27  2  0  0  0  0
 25 82  1  0  0  0  0
 26 84  1  0  0  0  0
 27 85  1  0  0  0  0
 28 63  2  0  0  0  0
 29 64  1  0  0  0  0
 29 67  1  0  0  0  0
 30 69  1  0  0  0  0
 30 81  1  0  0  0  0
 31 70  1  0  0  0  0
 31 81  1  0  0  0  0
 32 51  1  0  0  0  0
 32 74  2  0  0  0  0
 33 68  1  0  0  0  0
 33 75  2  0  0  0  0
 34 49  1  0  0  0  0
 34 71  1  0  0  0  0
 34 76  2  0  0  0  0
 35 58  1  0  0  0  0
 35 59  1  0  0  0  0
 35 77  2  0  0  0  0
 36 60  1  0  0  0  0
 36 65  1  0  0  0  0
 36 78  2  0  0  0  0
 37 61  1  0  0  0  0
 37 72  1  0  0  0  0
 37 79  2  0  0  0  0
 38 66  1  0  0  0  0
 38 69  1  0  0  0  0
 38 80  2  0  0  0  0
 39 42  1  0  0  0  0
 40 49  1  0  0  0  0
 41 65  1  0  0  0  0
 42 44  1  0  0  0  0
 43 45  1  0  0  0  0
 43 46  1  0  0  0  0
 44 48  1  0  0  0  0
 45 50  1  0  0  0  0
 46 66  1  0  0  0  0
 47 50  1  0  0  0  0
 47 66  1  0  0  0  0
 48 71  1  0  0  0  0
 49 65  1  0  0  0  0
 50 64  1  0  0  0  0
 52 59  1  0  0  0  0
 53 61  1  0  0  0  0
 54 62  1  0  0  0  0
 55 62  1  0  0  0  0
 56 62  1  0  0  0  0
 57 73  1  0  0  0  0
 58 70  1  0  0  0  0
 59 83  1  0  0  0  0
 60 62  1  0  0  0  0
 60 72  1  0  0  0  0
 61 73  1  0  0  0  0
 63 64  1  0  0  0  0
M  CHG  1  73   1
M  ISO  4  38 100  59 101  69 100  83 101
M  END
> <Batch ID>
0163

> <Smiles>
CNC(C)C(=O)NC(C(=O)N1Cc2cc([101O:1][101CH:1](C)C(=O)CNc3oc([100NH:0][100C:0](=O)N4CCCC(n5nc(-c6ccc(Oc7ccc(F)cc7F)cc6)c(C(N)=O)c5N)C4)cc3C(C)=O)ccc2CC1C(=O)NC1CCCc2ccccc21)C(C)(C)C

> <Shape>
0.277

> <Color>
0.186

> <Negative vol penalty>
0.000

$$$$

  -OEChem-04052303593D

 83 91  0     1  0  0  0  0  0999 V2000
  -26.4764  -19.9666   19.2849 C   0  0  0  0  0  0  0  0  0  0  0  0
  -26.0793  -21.2548   19.6287 C   0  0  0  0  0  0  0  0  0  0  0  0
  -24.4011  -14.8027   20.7389 C   0  0  0  0  0  0  0  0  0  0  0  0
  -24.5080  -14.2704   23.0931 C   0  0  0  0  0  0  0  0  0  0  0  0
  -27.7921  -19.5615   19.5058 C   0  0  0  0  0  0  0  0  0  0  0  0
  -26.9976  -22.1385   20.1947 C   0  0  0  0  0  0  0  0  0  0  0  0
  -26.7539  -26.7658   18.1518 C   0  0  0  0  0  0  0  0  0  0  0  0
  -25.3995  -13.8634   20.4811 C   0  0  0  0  0  0  0  0  0  0  0  0
  -25.5064  -13.3310   22.8353 C   0  0  0  0  0  0  0  0  0  0  0  0
  -25.7118  -27.5923   18.5698 C   0  0  0  0  0  0  0  0  0  0  0  0
  -28.1742  -11.8608   19.2505 C   0  0  0  0  0  0  0  0  0  0  0  0
  -29.2084  -12.2308   18.3908 C   0  0  0  0  0  0  0  0  0  0  0  0
  -20.5806  -26.8049   22.2277 C   0  0  0  0  0  0  0  0  0  0  0  0
  -27.2243  -28.7341   20.0624 C   0  0  0  0  0  0  0  0  0  0  0  0
  -29.8003  -14.0383   19.8806 C   0  0  0  0  0  0  0  0  0  0  0  0
  -18.3378  -26.4356   22.9275 C   0  0  0  0  0  0  0  0  0  0  0  0
  -19.1932  -28.5657   23.0218 C   0  0  0  0  0  0  0  0  0  0  0  0
  -23.9553  -15.0062   22.0449 C   0  0  0  0  0  0  0  0  0  0  0  0
  -19.5245  -25.9231   22.4286 C   0  0  0  0  0  0  0  0  0  0  0  0
  -21.5338  -15.7579   22.3257 C   0  0  0  0  0  0  0  0  0  0  0  0
  -28.7294  -20.4438   20.0659 C   0  0  0  0  0  0  0  0  0  0  0  0
  -28.0387  -26.9103   18.6948 C   0  0  0  0  0  0  0  0  0  0  0  0
  -28.3268  -21.7444   20.4245 C   0  0  0  0  0  0  0  0  0  0  0  0
  -28.2815  -27.9099   19.6477 C   0  0  0  0  0  0  0  0  0  0  0  0
  -20.4200  -28.1531   22.5275 C   0  0  0  0  0  0  0  0  0  0  0  0
  -25.9521  -13.1275   21.5293 C   0  0  0  0  0  0  0  0  0  0  0  0
  -25.9463  -28.5747   19.5274 C   0  0  0  0  0  0  0  0  0  0  0  0
  -27.9529  -12.5797   20.4252 C   0  0  0  0  0  0  0  0  0  0  0  0
  -30.0215  -13.3195   18.7059 C   0  0  0  0  0  0  0  0  0  0  0  0
  -28.7660  -13.6684   20.7403 C   0  0  0  0  0  0  0  0  0  0  0  0
  -22.9244  -15.9768   22.3119 C   0  0  0  0  0  0  0  0  0  0  0  0
  -20.9961  -16.9850   22.6285 C   0  0  0  0  0  0  0  0  0  0  0  0
  -19.6598  -24.5101   22.1248 C   0  0  0  0  0  0  0  0  0  0  0  0
  -20.8277  -23.8399   22.0062 C   0  0  0  0  0  0  0  0  0  0  0  0
  -20.7943  -14.5531   22.0865 C   0  0  0  0  0  0  0  0  0  0  0  0
  -20.7999  -22.3951   21.7021 C   0  0  0  0  0  0  0  0  0  0  0  0
  -29.9821  -25.0476   20.3851 C   0  0  0  0  0  0  0  0  0  0  0  0
  -32.0715  -27.4892   19.9433 C   0  0  0  0  0  0  0  0  0  0  0  0
  -22.7543  -28.8120   21.8487 C   0  0  0  0  0  0  0  0  0  0  0  0
  -32.5584  -30.8064   19.3059 C   0  0  0  0  0  0  0  0  0  0  0  0
  -30.1282  -19.9454   20.3294 C   0  0  0  0  0  0  0  0  0  0  0  0
  -29.1581  -26.0284   18.2137 C   0  0  0  0  0  0  0  0  0  0  0  0
  -29.6474  -28.1193   20.2468 C   0  0  0  0  0  0  0  0  0  0  0  0
  -31.1347  -21.0637   20.5876 C   0  0  0  0  0  0  0  0  0  0  0  0
  -23.1691  -21.2379   24.2476 C   0  0  0  0  0  0  0  0  0  0  0  0
  -30.5652  -22.0769   21.5754 C   0  0  0  0  0  0  0  0  0  0  0  0
  -23.2333  -19.7458   23.9324 C   0  0  0  0  0  0  0  0  0  0  0  0
  -22.9831  -22.0811   22.9871 C   0  0  0  0  0  0  0  0  0  0  0  0
  -21.8712  -20.1808   21.8501 C   0  0  0  0  0  0  0  0  0  0  0  0
  -29.3000  -22.7400   21.0177 C   0  0  1  0  0  0  0  0  0  0  0  0
  -30.3085  -25.9258   19.2104 C   0  0  1  0  0  0  0  0  0  0  0  0
  -22.0109  -19.3104   23.1088 C   0  0  1  0  0  0  0  0  0  0  0  0
  -34.3769  -32.5155   19.0423 C   0  0  0  0  0  0  0  0  0  0  0  0
  -32.4618  -27.5372   22.9691 C   0  0  0  0  0  0  0  0  0  0  0  0
  -33.5002  -29.8027   22.7292 C   0  0  0  0  0  0  0  0  0  0  0  0
  -34.5618  -27.8245   21.6417 C   0  0  0  0  0  0  0  0  0  0  0  0
  -31.7583  -31.3974   16.5186 C   0  0  0  0  0  0  0  0  0  0  0  0
  -23.5800  -30.0925   21.7989 C   0  0  0  0  0  0  0  0  0  0  0  0
  -24.9917  -29.8733   21.2762 C   0  0  0  0  0  0  0  0  0  1  0  0
  -32.4109  -28.7549   20.6930 C   0  0  1  0  0  0  0  0  0  0  0  0
  -33.4748  -31.5205   18.3288 C   0  0  2  0  0  0  0  0  0  0  0  0
  -33.2074  -28.4748   21.9986 C   0  0  0  0  0  0  0  0  0  0  0  0
  -18.1442  -27.7388   23.2304 N   0  0  0  0  0  0  0  0  0  0  0  0
  -23.2498  -17.2433   22.5840 N   0  0  0  0  0  0  0  0  0  0  0  0
  -22.0560  -17.8314   22.7716 N   0  0  0  0  0  0  0  0  0  0  0  0
  -21.8435  -21.6085   22.1867 N   0  0  0  0  0  0  0  0  0  0  0  0
  -30.7079  -27.2278   19.7486 N   0  0  0  0  0  0  0  0  0  0  0  0
  -19.7248  -17.4118   22.7835 N   0  0  0  0  0  0  0  0  0  0  0  0
  -21.5038  -13.3817   21.7886 N   0  0  0  0  0  0  0  0  0  0  0  0
  -21.4761  -29.0751   22.3338 N   0  0  0  0  0  0  0  0  0  0  0  0
  -29.6473  -23.7514   20.0427 N   0  0  0  0  0  0  0  0  0  0  0  0
  -33.1045  -29.6183   19.7434 N   0  0  0  0  0  0  0  0  0  0  0  0
  -32.6735  -32.2580   17.3115 N   0  3  0  0  0  0  0  0  0  0  0  0
  -19.5408  -14.5202   22.1192 O   0  0  0  0  0  0  0  0  0  0  0  0
  -19.8553  -21.9730   21.0325 O   0  0  0  0  0  0  0  0  0  0  0  0
  -30.0318  -25.5113   21.5184 O   0  0  0  0  0  0  0  0  0  0  0  0
  -32.9830  -26.7631   19.5389 O   0  0  0  0  0  0  0  0  0  0  0  0
  -23.2085  -27.7283   21.4972 O   0  0  0  0  0  0  0  0  0  0  0  0
  -31.4688  -31.2592   19.6498 O   0  0  0  0  0  0  0  0  0  0  0  0
  -26.9262  -12.2107   21.2781 O   0  0  0  0  0  0  0  0  0  0  0  0
  -24.9308  -29.3824   19.9377 O   0  0  0  0  0  0  0  0  0  1  0  0
  -31.0156  -13.6737   17.8810 F   0  0  0  0  0  0  0  0  0  0  0  0
  -28.5591  -14.3620   21.8681 F   0  0  0  0  0  0  0  0  0  0  0  0
  1  2  1  0  0  0  0
  1  5  2  0  0  0  0
  2  6  2  0  0  0  0
  3  8  2  0  0  0  0
  3 18  1  0  0  0  0
  4  9  1  0  0  0  0
  4 18  2  0  0  0  0
  5 21  1  0  0  0  0
  6 23  1  0  0  0  0
  7 10  2  0  0  0  0
  7 22  1  0  0  0  0
  8 26  1  0  0  0  0
  9 26  2  0  0  0  0
 10 27  1  0  0  0  0
 11 12  2  0  0  0  0
 11 28  1  0  0  0  0
 12 29  1  0  0  0  0
 13 19  1  0  0  0  0
 13 25  2  0  0  0  0
 14 24  1  0  0  0  0
 14 27  2  0  0  0  0
 15 29  2  0  0  0  0
 15 30  1  0  0  0  0
 16 19  2  0  0  0  0
 16 63  1  0  0  0  0
 17 25  1  0  0  0  0
 17 63  2  0  0  0  0
 18 31  1  0  0  0  0
 19 33  1  0  0  0  0
 20 31  1  0  0  0  0
 20 32  2  0  0  0  0
 20 35  1  0  0  0  0
 21 23  2  0  0  0  0
 21 41  1  0  0  0  0
 22 24  2  0  0  0  0
 22 42  1  0  0  0  0
 23 50  1  0  0  0  0
 24 43  1  0  0  0  0
 25 70  1  0  0  0  0
 26 80  1  0  0  0  0
 27 81  1  0  0  0  0
 28 30  2  0  0  0  0
 28 80  1  0  0  0  0
 29 82  1  0  0  0  0
 30 83  1  0  0  0  0
 31 64  2  0  0  0  0
 32 65  1  0  0  0  0
 32 68  1  0  0  0  0
 33 34  2  0  0  0  0
 34 36  1  0  0  0  0
 35 69  1  0  0  0  0
 35 74  2  0  0  0  0
 36 66  1  0  0  0  0
 36 75  2  0  0  0  0
 37 51  1  0  0  0  0
 37 71  1  0  0  0  0
 37 76  2  0  0  0  0
 38 60  1  0  0  0  0
 38 67  1  0  0  0  0
 38 77  2  0  0  0  0
 39 58  1  0  0  0  0
 39 70  1  0  0  0  0
 39 78  2  0  0  0  0
 40 61  1  0  0  0  0
 40 72  1  0  0  0  0
 40 79  2  0  0  0  0
 41 44  1  0  0  0  0
 42 51  1  0  0  0  0
 43 67  1  0  0  0  0
 44 46  1  0  0  0  0
 45 47  1  0  0  0  0
 45 48  1  0  0  0  0
 46 50  1  0  0  0  0
 47 52  1  0  0  0  0
 48 66  1  0  0  0  0
 49 52  1  0  0  0  0
 49 66  1  0  0  0  0
 50 71  1  0  0  0  0
 51 67  1  0  0  0  0
 52 65  1  0  0  0  0
 53 61  1  0  0  0  0
 54 62  1  0  0  0  0
 55 62  1  0  0  0  0
 56 62  1  0  0  0  0
 57 73  1  0  0  0  0
 58 59  1  0  0  0  0
 59 81  1  0  0  0  0
 60 62  1  0  0  0  0
 60 72  1  0  0  0  0
 61 73  1  0  0  0  0
 64 65  1  0  0  0  0
M  CHG  1  73   1
M  ISO  4  34 100  36 100  59 101  81 101
M  END
> <Batch ID>
0163

> <Smiles>
CNC(C)C(=O)NC(C(=O)N1Cc2cc([101O:1][101CH2:1]CC(=O)Nc3cncc(C=[100CH:0][100C:0](=O)N4CCCC(n5nc(-c6ccc(Oc7ccc(F)cc7F)cc6)c(C(N)=O)c5N)C4)c3)ccc2CC1C(=O)NC1CCCc2ccccc21)C(C)(C)C

> <Shape>
0.249

> <Color>
0.068

> <Negative vol penalty>
0.000

$$$$

  -OEChem-04052303593D

 83 91  0     1  0  0  0  0  0999 V2000
  -23.2965   -8.0071   22.1751 C   0  0  0  0  0  0  0  0  0  0  0  0
  -24.1856   -9.0003   21.7769 C   0  0  0  0  0  0  0  0  0  0  0  0
  -22.6937  -28.9332   19.6343 C   0  0  0  0  0  0  0  0  0  0  0  0
  -22.6779  -27.3580   21.4661 C   0  0  0  0  0  0  0  0  0  0  0  0
  -21.9240   -8.2505   22.1489 C   0  0  0  0  0  0  0  0  0  0  0  0
  -23.7026  -10.2372   21.3513 C   0  0  0  0  0  0  0  0  0  0  0  0
  -26.2807  -14.1175   23.3366 C   0  0  0  0  0  0  0  0  0  0  0  0
  -21.3018  -29.0072   19.6858 C   0  0  0  0  0  0  0  0  0  0  0  0
  -21.2859  -27.4319   21.5176 C   0  0  0  0  0  0  0  0  0  0  0  0
  -27.5197  -14.4148   22.7707 C   0  0  0  0  0  0  0  0  0  0  0  0
  -18.9490  -29.5501   22.7312 C   0  0  0  0  0  0  0  0  0  0  0  0
  -18.3543  -29.6765   23.9865 C   0  0  0  0  0  0  0  0  0  0  0  0
  -29.2568  -19.8889   22.1492 C   0  0  0  0  0  0  0  0  0  0  0  0
  -28.5028  -21.0699   21.9492 C   0  0  0  0  0  0  0  0  0  0  0  0
  -26.5089  -16.2095   21.5152 C   0  0  0  0  0  0  0  0  0  0  0  0
  -17.1573  -27.6088   23.6276 C   0  0  0  0  0  0  0  0  0  0  0  0
  -23.3818  -28.1086   20.5244 C   0  0  0  0  0  0  0  0  0  0  0  0
  -25.7405  -28.8345   21.1703 C   0  0  0  0  0  0  0  0  0  0  0  0
  -21.4242   -9.4943   21.7319 C   0  0  0  0  0  0  0  0  0  0  0  0
  -25.1424  -14.8583   22.9871 C   0  0  0  0  0  0  0  0  0  0  0  0
  -22.3219  -10.4970   21.3182 C   0  0  0  0  0  0  0  0  0  0  0  0
  -25.2571  -15.9213   22.0800 C   0  0  0  0  0  0  0  0  0  0  0  0
  -20.5979  -28.2566   20.6275 C   0  0  0  0  0  0  0  0  0  0  0  0
  -27.6334  -15.4590   21.8576 C   0  0  0  0  0  0  0  0  0  0  0  0
  -18.6478  -28.4531   21.9240 C   0  0  0  0  0  0  0  0  0  0  0  0
  -17.4585  -28.7059   24.4348 C   0  0  0  0  0  0  0  0  0  0  0  0
  -17.7520  -27.4825   22.3722 C   0  0  0  0  0  0  0  0  0  0  0  0
  -24.8196  -28.0313   20.4713 C   0  0  0  0  0  0  0  0  0  0  0  0
  -30.0202  -19.7267   21.0165 C   0  0  0  0  0  0  0  0  0  0  0  0
  -26.9709  -28.3660   20.7792 C   0  0  0  0  0  0  0  0  0  0  0  0
  -28.8595  -21.5454   20.7087 C   0  0  0  0  0  0  0  0  0  0  0  0
  -25.5047  -29.9081   22.0910 C   0  0  0  0  0  0  0  0  0  0  0  0
  -30.9668  -18.6172   20.7850 C   0  0  0  0  0  0  0  0  0  0  0  0
  -22.3642  -14.1810   21.5991 C   0  0  0  0  0  0  0  0  0  0  0  0
  -31.1786  -15.4490   20.9853 C   0  0  0  0  0  0  0  0  0  0  0  0
  -21.6857  -17.2649   22.3416 C   0  0  0  0  0  0  0  0  0  0  0  0
  -22.8427  -20.3980   23.0432 C   0  0  0  0  0  0  0  0  0  0  0  0
  -28.8615  -23.0865   18.7159 C   0  0  0  0  0  0  0  0  0  0  0  0
  -19.9304   -9.6946   21.6756 C   0  0  0  0  0  0  0  0  0  0  0  0
  -23.8183  -14.5421   23.6267 C   0  0  0  0  0  0  0  0  0  0  0  0
  -24.0694  -16.7600   21.6870 C   0  0  0  0  0  0  0  0  0  0  0  0
  -19.5160  -11.1597   21.5673 C   0  0  0  0  0  0  0  0  0  0  0  0
  -29.1705  -26.2411   17.0940 C   0  0  0  0  0  0  0  0  0  0  0  0
  -20.3487  -11.8731   20.5068 C   0  0  0  0  0  0  0  0  0  0  0  0
  -28.1781  -27.1329   17.8436 C   0  0  0  0  0  0  0  0  0  0  0  0
  -28.6477  -24.8137   16.9422 C   0  0  0  0  0  0  0  0  0  0  0  0
  -27.2315  -25.0632   18.9424 C   0  0  0  0  0  0  0  0  0  0  0  0
  -21.8376  -11.8600   20.8736 C   0  0  1  0  0  0  0  0  0  0  0  0
  -22.6275  -15.0324   22.8089 C   0  0  1  0  0  0  0  0  0  0  0  0
  -27.7422  -26.4942   19.1769 C   0  0  2  0  0  0  0  0  0  0  0  0
  -22.0479  -22.7193   23.5698 C   0  0  0  0  0  0  0  0  0  0  0  0
  -20.9690  -17.6830   19.4053 C   0  0  0  0  0  0  0  0  0  0  0  0
  -21.1112  -20.1522   19.7943 C   0  0  0  0  0  0  0  0  0  0  0  0
  -19.4203  -18.7927   21.0254 C   0  0  0  0  0  0  0  0  0  0  0  0
  -24.1793  -20.3816   25.6837 C   0  0  0  0  0  0  0  0  0  0  0  0
  -31.9977  -16.5343   21.6190 C   0  0  0  0  0  0  0  0  0  0  0  0
  -29.9505  -14.9465   21.7023 C   0  0  0  0  0  0  0  0  0  1  0  0
  -21.8623  -18.5949   21.6495 C   0  0  1  0  0  0  0  0  0  0  0  0
  -22.4855  -21.3807   24.1437 C   0  0  2  0  0  0  0  0  0  0  0  0
  -20.8629  -18.7889   20.4744 C   0  0  0  0  0  0  0  0  0  0  0  0
  -25.4142  -27.1216   19.6948 N   0  0  0  0  0  0  0  0  0  0  0  0
  -31.5320  -14.9672   19.8382 N   0  0  0  0  0  0  0  0  0  0  0  0
  -26.7220  -27.3505   19.9035 N   0  0  0  0  0  0  0  0  0  0  0  0
  -22.7952  -16.4077   22.3348 N   0  0  0  0  0  0  0  0  0  0  0  0
  -28.2581  -24.2722   18.2459 N   0  0  0  0  0  0  0  0  0  0  0  0
  -28.2307  -28.7279   21.1023 N   0  0  0  0  0  0  0  0  0  0  0  0
  -24.1796  -30.2603   22.3814 N   0  0  0  0  0  0  0  0  0  0  0  0
  -28.4357  -22.6855   19.9818 N   0  0  0  0  0  0  0  0  0  0  0  0
  -31.1124  -17.6803   21.7389 N   0  0  0  0  0  0  0  0  0  0  0  0
  -22.1167  -12.8528   21.8889 N   0  0  0  0  0  0  0  0  0  0  0  0
  -21.7657  -19.6127   22.6903 N   0  0  0  0  0  0  0  0  0  0  0  0
  -31.6404  -18.5957   19.6348 N   0  3  0  0  0  0  0  0  0  0  0  0
  -23.6589  -21.6115   25.0330 N   0  3  0  0  0  0  0  0  0  0  0  0
  -26.4415  -30.5472   22.6272 O   0  0  0  0  0  0  0  0  0  0  0  0
  -22.3828  -14.6916   20.4853 O   0  0  0  0  0  0  0  0  0  0  0  0
  -20.6056  -16.9995   22.8749 O   0  0  0  0  0  0  0  0  0  0  0  0
  -23.9639  -20.3360   22.5437 O   0  0  0  0  0  0  0  0  0  0  0  0
  -29.7146  -22.4870   18.0564 O   0  0  0  0  0  0  0  0  0  0  0  0
  -29.7840  -20.7323   20.1336 O   0  0  0  0  0  0  0  0  0  0  0  0
  -19.2397  -28.3287   20.6782 O   0  0  0  0  0  0  0  0  0  0  0  0
  -28.8414  -15.7509   21.3033 O   0  0  0  0  0  0  0  0  0  1  0  0
  -16.8886  -28.8266   25.6409 F   0  0  0  0  0  0  0  0  0  0  0  0
  -17.4596  -26.4257   21.6017 F   0  0  0  0  0  0  0  0  0  0  0  0
  1  2  1  0  0  0  0
  1  5  2  0  0  0  0
  2  6  2  0  0  0  0
  3  8  2  0  0  0  0
  3 17  1  0  0  0  0
  4  9  1  0  0  0  0
  4 17  2  0  0  0  0
  5 19  1  0  0  0  0
  6 21  1  0  0  0  0
  7 10  2  0  0  0  0
  7 20  1  0  0  0  0
  8 23  1  0  0  0  0
  9 23  2  0  0  0  0
 10 24  1  0  0  0  0
 11 12  2  0  0  0  0
 11 25  1  0  0  0  0
 12 26  1  0  0  0  0
 13 14  1  0  0  0  0
 13 29  2  0  0  0  0
 14 31  2  0  0  0  0
 15 22  1  0  0  0  0
 15 24  2  0  0  0  0
 16 26  2  0  0  0  0
 16 27  1  0  0  0  0
 17 28  1  0  0  0  0
 18 28  1  0  0  0  0
 18 30  2  0  0  0  0
 18 32  1  0  0  0  0
 19 21  2  0  0  0  0
 19 39  1  0  0  0  0
 20 22  2  0  0  0  0
 20 40  1  0  0  0  0
 21 48  1  0  0  0  0
 22 41  1  0  0  0  0
 23 80  1  0  0  0  0
 24 81  1  0  0  0  0
 25 27  2  0  0  0  0
 25 80  1  0  0  0  0
 26 82  1  0  0  0  0
 27 83  1  0  0  0  0
 28 61  2  0  0  0  0
 29 33  1  0  0  0  0
 29 79  1  0  0  0  0
 30 63  1  0  0  0  0
 30 66  1  0  0  0  0
 31 68  1  0  0  0  0
 31 79  1  0  0  0  0
 32 67  1  0  0  0  0
 32 74  2  0  0  0  0
 33 69  1  0  0  0  0
 33 72  2  0  0  0  0
 34 49  1  0  0  0  0
 34 70  1  0  0  0  0
 34 75  2  0  0  0  0
 35 56  1  0  0  0  0
 35 57  1  0  0  0  0
 35 62  2  0  0  0  0
 36 58  1  0  0  0  0
 36 64  1  0  0  0  0
 36 76  2  0  0  0  0
 37 59  1  0  0  0  0
 37 71  1  0  0  0  0
 37 77  2  0  0  0  0
 38 65  1  0  0  0  0
 38 68  1  0  0  0  0
 38 78  2  0  0  0  0
 39 42  1  0  0  0  0
 40 49  1  0  0  0  0
 41 64  1  0  0  0  0
 42 44  1  0  0  0  0
 43 45  1  0  0  0  0
 43 46  1  0  0  0  0
 44 48  1  0  0  0  0
 45 50  1  0  0  0  0
 46 65  1  0  0  0  0
 47 50  1  0  0  0  0
 47 65  1  0  0  0  0
 48 70  1  0  0  0  0
 49 64  1  0  0  0  0
 50 63  1  0  0  0  0
 51 59  1  0  0  0  0
 52 60  1  0  0  0  0
 53 60  1  0  0  0  0
 54 60  1  0  0  0  0
 55 73  1  0  0  0  0
 56 69  1  0  0  0  0
 57 81  1  0  0  0  0
 58 60  1  0  0  0  0
 58 71  1  0  0  0  0
 59 73  1  0  0  0  0
 61 63  1  0  0  0  0
M  CHG  2  72   1  73   1
M  ISO  4  38 100  57 101  68 100  81 101
M  END
> <Batch ID>
0163

> <Smiles>
CNC(C)C(=O)NC(C(=O)N1Cc2cc([101O:1][101CH2:1]C(=N)CNC(=N)c3ccc([100NH:0][100C:0](=O)N4CCCC(n5nc(-c6ccc(Oc7ccc(F)cc7F)cc6)c(C(N)=O)c5N)C4)o3)ccc2CC1C(=O)NC1CCCc2ccccc21)C(C)(C)C

> <Shape>
0.245

> <Color>
0.105

> <Negative vol penalty>
0.000

$$$$

  -OEChem-04052303593D

 88 97  0     1  0  0  0  0  0999 V2000
  -28.0956  -31.2620   27.6884 C   0  0  0  0  0  0  0  0  0  0  0  0
  -28.0666  -30.2353   26.7501 C   0  0  0  0  0  0  0  0  0  0  0  0
  -27.7114  -16.4430   20.7525 C   0  0  0  0  0  0  0  0  0  0  0  0
  -27.5248  -15.6101   23.0127 C   0  0  0  0  0  0  0  0  0  0  0  0
  -26.9407  -31.9975   27.9511 C   0  0  0  0  0  0  0  0  0  0  0  0
  -26.8823  -29.9429   26.0746 C   0  0  0  0  0  0  0  0  0  0  0  0
  -27.5990  -29.2433   21.1105 C   0  0  0  0  0  0  0  0  0  0  0  0
  -26.8811  -15.4154   20.3052 C   0  0  0  0  0  0  0  0  0  0  0  0
  -26.6944  -14.5824   22.5654 C   0  0  0  0  0  0  0  0  0  0  0  0
  -28.1224  -28.0148   20.7097 C   0  0  0  0  0  0  0  0  0  0  0  0
  -23.4540  -14.2063   21.6827 C   0  0  0  0  0  0  0  0  0  0  0  0
  -22.3022  -13.9377   22.4221 C   0  0  0  0  0  0  0  0  0  0  0  0
  -25.9055  -27.2698   20.1187 C   0  0  0  0  0  0  0  0  0  0  0  0
  -23.0797  -11.6841   22.8144 C   0  0  0  0  0  0  0  0  0  0  0  0
  -28.0806  -20.1655   20.1517 C   0  0  0  0  0  0  0  0  0  0  0  0
  -27.5578  -19.3323   19.1849 C   0  0  0  0  0  0  0  0  0  0  0  0
  -28.0333  -16.5404   22.1062 C   0  0  0  0  0  0  0  0  0  0  0  0
  -28.5006  -18.8804   23.0081 C   0  0  0  0  0  0  0  0  0  0  0  0
  -25.7441  -31.7203   27.2715 C   0  0  0  0  0  0  0  0  0  0  0  0
  -26.2211  -29.4907   21.0285 C   0  0  0  0  0  0  0  0  0  0  0  0
  -25.7099  -30.6746   26.3294 C   0  0  0  0  0  0  0  0  0  0  0  0
  -25.3674  -28.5031   20.5168 C   0  0  0  0  0  0  0  0  0  0  0  0
  -26.3726  -14.4851   21.2116 C   0  0  0  0  0  0  0  0  0  0  0  0
  -27.2753  -27.0268   20.2164 C   0  0  0  0  0  0  0  0  0  0  0  0
  -24.4187  -13.2138   21.5091 C   0  0  0  0  0  0  0  0  0  0  0  0
  -22.1150  -12.6765   22.9879 C   0  0  0  0  0  0  0  0  0  0  0  0
  -24.2315  -11.9527   22.0750 C   0  0  0  0  0  0  0  0  0  0  0  0
  -28.8915  -17.6013   22.5688 C   0  0  0  0  0  0  0  0  0  0  0  0
  -29.6787  -19.5055   23.3367 C   0  0  0  0  0  0  0  0  0  0  0  0
  -29.8059  -20.1065   18.7991 C   0  0  0  0  0  0  0  0  0  0  0  0
  -27.1898  -19.4524   23.1102 C   0  0  0  0  0  0  0  0  0  0  0  0
  -23.9325  -30.1558   23.1318 C   0  0  0  0  0  0  0  0  0  0  0  0
  -30.7621  -23.5568   16.5696 C   0  0  0  0  0  0  0  0  0  0  0  0
  -29.2814  -24.7119   18.2843 C   0  0  0  0  0  0  0  0  0  0  0  0
  -22.1298  -30.5387   20.4623 C   0  0  0  0  0  0  0  0  0  0  0  0
  -21.6436  -29.8056   17.1649 C   0  0  0  0  0  0  0  0  0  0  0  0
  -32.2635  -18.5726   19.6591 C   0  0  0  0  0  0  0  0  0  0  0  0
  -24.5093  -32.5116   27.6235 C   0  0  0  0  0  0  0  0  0  0  0  0
  -25.6756  -30.8307   21.4400 C   0  0  0  0  0  0  0  0  0  0  0  0
  -23.8833  -28.7262   20.3895 C   0  0  0  0  0  0  0  0  0  0  0  0
  -23.3902  -32.3845   26.5930 C   0  0  0  0  0  0  0  0  0  0  0  0
  -32.9704  -16.4820   22.4618 C   0  0  0  0  0  0  0  0  0  0  0  0
  -23.1865  -30.9238   26.2035 C   0  0  0  0  0  0  0  0  0  0  0  0
  -32.7557  -17.4337   23.6418 C   0  0  0  0  0  0  0  0  0  0  0  0
  -33.5989  -17.1939   21.2755 C   0  0  0  0  0  0  0  0  0  0  0  0
  -33.0907  -20.9698   19.5273 C   0  0  0  0  0  0  0  0  0  0  0  0
  -32.7299  -19.3829   21.9939 C   0  0  0  0  0  0  0  0  0  0  0  0
  -24.4507  -30.3435   25.5581 C   0  0  1  0  0  0  0  0  0  0  0  0
  -31.1490  -20.3608   18.2316 C   0  0  1  0  0  0  0  0  0  0  0  0
  -24.1922  -30.7887   21.7940 C   0  0  1  0  0  0  0  0  0  0  0  0
  -32.9278  -21.9951   18.4007 C   0  0  2  0  0  0  0  0  0  0  0  0
  -31.4299  -21.8664   18.0875 C   0  0  1  0  0  0  0  0  0  0  0  0
  -32.0940  -18.7795   23.2692 C   0  0  1  0  0  0  0  0  0  0  0  0
  -30.3983  -23.9883   15.1691 C   0  0  0  0  0  0  0  0  0  0  0  0
  -33.8551  -21.6733   17.2265 C   0  0  0  0  0  0  0  0  0  0  0  0
  -20.0628  -30.2347   15.2638 C   0  0  0  0  0  0  0  0  0  0  0  0
  -20.1420  -28.5658   21.6731 C   0  0  0  0  0  0  0  0  0  0  0  0
  -19.1197  -28.3094   19.4021 C   0  0  0  0  0  0  0  0  0  0  0  0
  -19.0978  -30.5322   20.5342 C   0  0  0  0  0  0  0  0  0  0  0  0
  -23.7556  -31.1049   15.5494 C   0  0  0  0  0  0  0  0  0  0  0  0
  -30.6567  -24.6071   17.6575 C   0  0  0  0  0  0  0  0  0  0  0  0
  -29.1082  -25.8062   19.3183 C   0  0  0  0  0  0  0  0  0  1  0  0
  -21.2730  -29.6324   19.6118 C   0  0  1  0  0  0  0  0  0  0  0  0
  -21.3291  -30.6903   15.9721 C   0  0  2  0  0  0  0  0  0  0  0  0
  -19.9358  -29.2547   20.3094 C   0  0  0  0  0  0  0  0  0  0  0  0
  -29.3698  -20.6100   19.9324 N   0  0  0  0  0  0  0  0  0  0  0  0
  -30.2145  -17.4230   22.6129 N   0  0  0  0  0  0  0  0  0  0  0  0
  -31.1020  -22.3285   16.7408 N   0  0  0  0  0  0  0  0  0  0  0  0
  -30.6652  -18.5983   23.0837 N   0  0  0  0  0  0  0  0  0  0  0  0
  -23.3971  -30.0504   20.8107 N   0  0  0  0  0  0  0  0  0  0  0  0
  -32.8399  -18.3894   20.9211 N   0  0  0  0  0  0  0  0  0  0  0  0
  -32.1751  -19.8804   19.1729 N   0  0  0  0  0  0  0  0  0  0  0  0
  -29.9566  -20.7372   23.8143 N   0  0  0  0  0  0  0  0  0  0  0  0
  -26.0890  -18.6721   22.7310 N   0  0  0  0  0  0  0  0  0  0  0  0
  -24.5663  -30.7867   24.1853 N   0  0  0  0  0  0  0  0  0  0  0  0
  -21.1079  -30.3107   18.3308 N   0  0  0  0  0  0  0  0  0  0  0  0
  -22.4524  -30.6586   14.9932 N   0  3  0  0  0  0  0  0  0  0  0  0
  -27.0016  -20.6264   23.5099 O   0  0  0  0  0  0  0  0  0  0  0  0
  -23.2094  -29.1690   23.2031 O   0  0  0  0  0  0  0  0  0  0  0  0
  -28.3608  -23.9561   17.9766 O   0  0  0  0  0  0  0  0  0  0  0  0
  -21.6936  -31.6424   20.7990 O   0  0  0  0  0  0  0  0  0  0  0  0
  -22.2958  -28.7681   17.0712 O   0  0  0  0  0  0  0  0  0  0  0  0
  -31.8783  -17.6102   18.9821 O   0  0  0  0  0  0  0  0  0  0  0  0
  -25.5621  -13.4824   20.7755 O   0  0  0  0  0  0  0  0  0  0  0  0
  -27.7888  -25.8142   19.8210 O   0  0  0  0  0  0  0  0  0  1  0  0
  -21.0096  -12.4192   23.6992 F   0  0  0  0  0  0  0  0  0  0  0  0
  -25.1553  -10.9956   21.9127 F   0  0  0  0  0  0  0  0  0  0  0  0
  -28.7180  -19.0904   17.9453 S   0  0  0  0  0  0  0  0  0  0  0  0
  1  2  1  0  0  0  0
  1  5  2  0  0  0  0
  2  6  2  0  0  0  0
  3  8  2  0  0  0  0
  3 17  1  0  0  0  0
  4  9  1  0  0  0  0
  4 17  2  0  0  0  0
  5 19  1  0  0  0  0
  6 21  1  0  0  0  0
  7 10  2  0  0  0  0
  7 20  1  0  0  0  0
  8 23  1  0  0  0  0
  9 23  2  0  0  0  0
 10 24  1  0  0  0  0
 11 12  2  0  0  0  0
 11 25  1  0  0  0  0
 12 26  1  0  0  0  0
 13 22  1  0  0  0  0
 13 24  2  0  0  0  0
 14 26  2  0  0  0  0
 14 27  1  0  0  0  0
 15 16  2  0  0  0  0
 15 66  1  0  0  0  0
 16 88  1  0  0  0  0
 17 28  1  0  0  0  0
 18 28  1  0  0  0  0
 18 29  2  0  0  0  0
 18 31  1  0  0  0  0
 19 21  2  0  0  0  0
 19 38  1  0  0  0  0
 20 22  2  0  0  0  0
 20 39  1  0  0  0  0
 21 48  1  0  0  0  0
 22 40  1  0  0  0  0
 23 84  1  0  0  0  0
 24 85  1  0  0  0  0
 25 27  2  0  0  0  0
 25 84  1  0  0  0  0
 26 86  1  0  0  0  0
 27 87  1  0  0  0  0
 28 67  2  0  0  0  0
 29 69  1  0  0  0  0
 29 73  1  0  0  0  0
 30 49  1  0  0  0  0
 30 66  2  0  0  0  0
 30 88  1  0  0  0  0
 31 74  1  0  0  0  0
 31 78  2  0  0  0  0
 32 50  1  0  0  0  0
 32 75  1  0  0  0  0
 32 79  2  0  0  0  0
 33 54  1  0  0  0  0
 33 61  1  0  0  0  0
 33 68  2  0  0  0  0
 34 61  1  0  0  0  0
 34 62  1  0  0  0  0
 34 80  2  0  0  0  0
 35 63  1  0  0  0  0
 35 70  1  0  0  0  0
 35 81  2  0  0  0  0
 36 64  1  0  0  0  0
 36 76  1  0  0  0  0
 36 82  2  0  0  0  0
 37 71  1  0  0  0  0
 37 72  1  0  0  0  0
 37 83  2  0  0  0  0
 38 41  1  0  0  0  0
 39 50  1  0  0  0  0
 40 70  1  0  0  0  0
 41 43  1  0  0  0  0
 42 44  1  0  0  0  0
 42 45  1  0  0  0  0
 43 48  1  0  0  0  0
 44 53  1  0  0  0  0
 45 71  1  0  0  0  0
 46 51  1  0  0  0  0
 46 72  1  0  0  0  0
 47 53  1  0  0  0  0
 47 71  1  0  0  0  0
 48 75  1  0  0  0  0
 49 52  1  0  0  0  0
 49 72  1  0  0  0  0
 50 70  1  0  0  0  0
 51 52  1  0  0  0  0
 51 55  1  0  0  0  0
 52 68  1  0  0  0  0
 53 69  1  0  0  0  0
 56 64  1  0  0  0  0
 57 65  1  0  0  0  0
 58 65  1  0  0  0  0
 59 65  1  0  0  0  0
 60 77  1  0  0  0  0
 62 85  1  0  0  0  0
 63 65  1  0  0  0  0
 63 76  1  0  0  0  0
 64 77  1  0  0  0  0
 67 69  1  0  0  0  0
M  CHG  1  77   1
M  ISO  4  37 100  62 101  72 100  85 101
M  END
> <Batch ID>
0163

> <Smiles>
CNC(C)C(=O)NC(C(=O)N1Cc2cc([101O:1][101CH2:1]C(=O)C=C(C)NC3C(C)C[100N:0]([100C:0](=O)N4CCCC(n5nc(-c6ccc(Oc7ccc(F)cc7F)cc6)c(C(N)=O)c5N)C4)C3c3nccs3)ccc2CC1C(=O)NC1CCCc2ccccc21)C(C)(C)C

> <Shape>
0.232

> <Color>
0.069

> <Negative vol penalty>
0.000

$$$$

  -OEChem-04052303593D

 87 96  0     1  0  0  0  0  0999 V2000
  -29.3906  -39.0221   18.3376 C   0  0  0  0  0  0  0  0  0  0  0  0
  -29.6472  -37.8008   17.7229 C   0  0  0  0  0  0  0  0  0  0  0  0
  -24.7202   -9.4216   20.7869 C   0  0  0  0  0  0  0  0  0  0  0  0
  -25.1491  -10.2360   23.0207 C   0  0  0  0  0  0  0  0  0  0  0  0
  -29.1283  -39.0710   19.7061 C   0  0  0  0  0  0  0  0  0  0  0  0
  -29.6427  -36.6276   18.4766 C   0  0  0  0  0  0  0  0  0  0  0  0
  -28.0470  -29.6635   17.9556 C   0  0  0  0  0  0  0  0  0  0  0  0
  -24.5431   -8.1330   21.2907 C   0  0  0  0  0  0  0  0  0  0  0  0
  -24.9720   -8.9474   23.5245 C   0  0  0  0  0  0  0  0  0  0  0  0
  -28.6097  -28.4092   18.1881 C   0  0  0  0  0  0  0  0  0  0  0  0
  -22.1183   -6.3898   22.8764 C   0  0  0  0  0  0  0  0  0  0  0  0
  -21.0275   -5.6559   22.4105 C   0  0  0  0  0  0  0  0  0  0  0  0
  -28.0656  -28.6058   20.5300 C   0  0  0  0  0  0  0  0  0  0  0  0
  -22.5283   -3.9607   21.5672 C   0  0  0  0  0  0  0  0  0  0  0  0
  -26.8928  -19.8278   21.7250 C   0  0  0  0  0  0  0  0  0  0  0  0
  -25.0232  -10.4731   21.6519 C   0  0  0  0  0  0  0  0  0  0  0  0
  -24.2201  -12.7937   20.9610 C   0  0  0  0  0  0  0  0  0  0  0  0
  -29.1110  -37.8967   20.4751 C   0  0  0  0  0  0  0  0  0  0  0  0
  -27.4982  -30.4043   19.0123 C   0  0  0  0  0  0  0  0  0  0  0  0
  -29.3812  -36.6609   19.8569 C   0  0  0  0  0  0  0  0  0  0  0  0
  -27.4943  -29.8681   20.3079 C   0  0  0  0  0  0  0  0  0  0  0  0
  -24.6690   -7.8959   22.6595 C   0  0  0  0  0  0  0  0  0  0  0  0
  -28.6217  -27.8815   19.4759 C   0  0  0  0  0  0  0  0  0  0  0  0
  -23.4141   -5.9092   22.6876 C   0  0  0  0  0  0  0  0  0  0  0  0
  -21.2324   -4.4413   21.7560 C   0  0  0  0  0  0  0  0  0  0  0  0
  -23.6191   -4.6946   22.0331 C   0  0  0  0  0  0  0  0  0  0  0  0
  -25.2068  -11.8043   21.1321 C   0  0  0  0  0  0  0  0  0  0  0  0
  -26.7754  -21.1982   21.8372 C   0  0  0  0  0  0  0  0  0  0  0  0
  -28.0419  -19.3754   21.1093 C   0  0  0  0  0  0  0  0  0  0  0  0
  -24.8982  -13.8684   20.4399 C   0  0  0  0  0  0  0  0  0  0  0  0
  -28.7775  -21.5046   20.8053 C   0  0  0  0  0  0  0  0  0  0  0  0
  -22.8161  -12.7456   21.2477 C   0  0  0  0  0  0  0  0  0  0  0  0
  -28.1362  -33.2169   20.3486 C   0  0  0  0  0  0  0  0  0  0  0  0
  -25.4348  -32.5912   22.0318 C   0  0  0  0  0  0  0  0  0  0  0  0
  -23.2502  -30.2669   23.2450 C   0  0  0  0  0  0  0  0  0  0  0  0
  -29.2802  -17.3034   20.3882 C   0  0  0  0  0  0  0  0  0  0  0  0
  -28.8692  -38.0048   21.9599 C   0  0  0  0  0  0  0  0  0  0  0  0
  -26.8710  -31.7441   18.7405 C   0  0  0  0  0  0  0  0  0  0  0  0
  -26.8997  -30.6145   21.4732 C   0  0  0  0  0  0  0  0  0  0  0  0
  -28.5133  -36.6740   22.6175 C   0  0  0  0  0  0  0  0  0  0  0  0
  -29.6113  -14.2259   18.6286 C   0  0  0  0  0  0  0  0  0  0  0  0
  -29.4646  -35.5767   22.1511 C   0  0  0  0  0  0  0  0  0  0  0  0
  -28.4138  -13.4029   19.1089 C   0  0  0  0  0  0  0  0  0  0  0  0
  -29.2318  -23.7506   19.6978 C   0  0  0  0  0  0  0  0  0  0  0  0
  -30.1962  -15.0836   19.7493 C   0  0  0  0  0  0  0  0  0  0  0  0
  -28.0308  -15.1198   20.9235 C   0  0  0  0  0  0  0  0  0  0  0  0
  -32.0401  -23.6846   20.5693 C   0  0  0  0  0  0  0  0  0  0  0  0
  -29.3607  -35.3637   20.6360 C   0  0  1  0  0  0  0  0  0  0  0  0
  -29.8467  -22.4568   20.2815 C   0  0  1  0  0  0  0  0  0  0  0  0
  -26.8020  -32.6336   19.9779 C   0  0  1  0  0  0  0  0  0  0  0  0
  -27.3674  -14.2887   19.8132 C   0  0  2  0  0  0  0  0  0  0  0  0
  -30.2914  -24.6387   19.0456 C   0  0  1  0  0  0  0  0  0  0  0  0
  -31.0217  -22.7601   21.2769 C   0  0  0  0  0  0  0  0  0  0  0  0
  -31.7704  -21.4626   21.6517 C   0  0  0  0  0  0  0  0  0  0  0  0
  -30.5486  -23.4236   22.5881 C   0  0  0  0  0  0  0  0  0  0  0  0
  -21.1595  -30.0556   24.6167 C   0  0  0  0  0  0  0  0  0  0  0  0
  -27.0555  -33.0731   24.5717 C   0  0  0  0  0  0  0  0  0  0  0  0
  -25.2329  -31.9449   25.8654 C   0  0  0  0  0  0  0  0  0  0  0  0
  -24.7506  -34.0430   24.6052 C   0  0  0  0  0  0  0  0  0  0  0  0
  -21.7576  -29.0551   20.9949 C   0  0  0  0  0  0  0  0  0  0  0  0
  -29.7170  -25.9695   18.5811 C   0  0  0  0  0  0  0  0  0  1  0  0
  -25.1237  -31.8906   23.3324 C   0  0  1  0  0  0  0  0  0  0  0  0
  -21.7340  -30.1978   23.2158 C   0  0  2  0  0  0  0  0  0  0  0  0
  -25.5537  -32.7245   24.5723 C   0  0  0  0  0  0  0  0  0  0  0  0
  -26.4195  -12.2140   20.7504 N   0  0  0  0  0  0  0  0  0  0  0  0
  -27.7020  -22.0692   21.3867 N   0  0  0  0  0  0  0  0  0  0  0  0
  -29.0086  -20.1888   20.6356 N   0  0  0  0  0  0  0  0  0  0  0  0
  -26.1992  -13.4727   20.3342 N   0  0  0  0  0  0  0  0  0  0  0  0
  -26.3040  -31.9233   21.1576 N   0  0  0  0  0  0  0  0  0  0  0  0
  -29.1481  -15.8988   20.3672 N   0  0  0  0  0  0  0  0  0  0  0  0
  -25.6107  -21.7037   22.4652 N   0  0  0  0  0  0  0  0  0  0  0  0
  -24.5027  -15.1038   20.0662 N   0  0  0  0  0  0  0  0  0  0  0  0
  -22.2830  -11.5638   21.7801 N   0  0  0  0  0  0  0  0  0  0  0  0
  -28.2066  -17.9747   20.9725 N   0  0  0  0  0  0  0  0  0  0  0  0
  -28.1760  -34.5977   20.3134 N   0  0  0  0  0  0  0  0  0  0  0  0
  -23.7013  -31.5690   23.2927 N   0  0  0  0  0  0  0  0  0  0  0  0
  -31.3722  -24.9130   20.0452 N   0  3  0  0  0  0  0  0  0  0  0  0
  -21.2841  -29.0326   22.4029 N   0  3  0  0  0  0  0  0  0  0  0  0
  -22.0539  -13.7161   21.0225 O   0  0  0  0  0  0  0  0  0  0  0  0
  -29.0607  -32.4696   20.6460 O   0  0  0  0  0  0  0  0  0  0  0  0
  -24.9199  -33.6872   21.7971 O   0  0  0  0  0  0  0  0  0  0  0  0
  -23.9630  -29.2658   23.2309 O   0  0  0  0  0  0  0  0  0  0  0  0
  -30.2599  -17.8706   19.8978 O   0  0  0  0  0  0  0  0  0  0  0  0
  -24.4960   -6.6387   23.1514 O   0  0  0  0  0  0  0  0  0  0  0  0
  -29.1709  -26.6578   19.7056 O   0  0  0  0  0  0  0  0  0  1  0  0
  -20.1848   -3.7359   21.3100 F   0  0  0  0  0  0  0  0  0  0  0  0
  -24.8616   -4.2273   21.8498 F   0  0  0  0  0  0  0  0  0  0  0  0
  1  2  1  0  0  0  0
  1  5  2  0  0  0  0
  2  6  2  0  0  0  0
  3  8  2  0  0  0  0
  3 16  1  0  0  0  0
  4  9  1  0  0  0  0
  4 16  2  0  0  0  0
  5 18  1  0  0  0  0
  6 20  1  0  0  0  0
  7 10  2  0  0  0  0
  7 19  1  0  0  0  0
  8 22  1  0  0  0  0
  9 22  2  0  0  0  0
 10 23  1  0  0  0  0
 11 12  2  0  0  0  0
 11 24  1  0  0  0  0
 12 25  1  0  0  0  0
 13 21  1  0  0  0  0
 13 23  2  0  0  0  0
 14 25  2  0  0  0  0
 14 26  1  0  0  0  0
 15 28  1  0  0  0  0
 15 29  2  0  0  0  0
 16 27  1  0  0  0  0
 17 27  1  0  0  0  0
 17 30  2  0  0  0  0
 17 32  1  0  0  0  0
 18 20  2  0  0  0  0
 18 37  1  0  0  0  0
 19 21  2  0  0  0  0
 19 38  1  0  0  0  0
 20 48  1  0  0  0  0
 21 39  1  0  0  0  0
 22 84  1  0  0  0  0
 23 85  1  0  0  0  0
 24 26  2  0  0  0  0
 24 84  1  0  0  0  0
 25 86  1  0  0  0  0
 26 87  1  0  0  0  0
 27 65  2  0  0  0  0
 28 66  2  0  0  0  0
 28 71  1  0  0  0  0
 29 67  1  0  0  0  0
 29 74  1  0  0  0  0
 30 68  1  0  0  0  0
 30 72  1  0  0  0  0
 31 49  1  0  0  0  0
 31 66  1  0  0  0  0
 31 67  2  0  0  0  0
 32 73  1  0  0  0  0
 32 79  2  0  0  0  0
 33 50  1  0  0  0  0
 33 75  1  0  0  0  0
 33 80  2  0  0  0  0
 34 62  1  0  0  0  0
 34 69  1  0  0  0  0
 34 81  2  0  0  0  0
 35 63  1  0  0  0  0
 35 76  1  0  0  0  0
 35 82  2  0  0  0  0
 36 70  1  0  0  0  0
 36 74  1  0  0  0  0
 36 83  2  0  0  0  0
 37 40  1  0  0  0  0
 38 50  1  0  0  0  0
 39 69  1  0  0  0  0
 40 42  1  0  0  0  0
 41 43  1  0  0  0  0
 41 45  1  0  0  0  0
 42 48  1  0  0  0  0
 43 51  1  0  0  0  0
 44 49  1  0  0  0  0
 44 52  1  0  0  0  0
 45 70  1  0  0  0  0
 46 51  1  0  0  0  0
 46 70  1  0  0  0  0
 47 53  1  0  0  0  0
 47 77  1  0  0  0  0
 48 75  1  0  0  0  0
 49 53  1  0  0  0  0
 50 69  1  0  0  0  0
 51 68  1  0  0  0  0
 52 61  1  0  0  0  0
 52 77  1  0  0  0  0
 53 54  1  0  0  0  0
 53 55  1  0  0  0  0
 56 63  1  0  0  0  0
 57 64  1  0  0  0  0
 58 64  1  0  0  0  0
 59 64  1  0  0  0  0
 60 78  1  0  0  0  0
 61 85  1  0  0  0  0
 62 64  1  0  0  0  0
 62 76  1  0  0  0  0
 63 78  1  0  0  0  0
 65 68  1  0  0  0  0
M  CHG  2  77   1  78   1
M  ISO  4  36 100  61 101  74 100  85 101
M  END
> <Batch ID>
0163

> <Smiles>
CNC(C)C(=O)NC(C(=O)N1Cc2cc([101O:1][101CH2:1]C3CC(c4nc(N)cc([100NH:0][100C:0](=O)N5CCCC(n6nc(-c7ccc(Oc8ccc(F)cc8F)cc7)c(C(N)=O)c6N)C5)n4)C(C)(C)CN3)ccc2CC1C(=O)NC1CCCc2ccccc21)C(C)(C)C

> <Shape>
0.297

> <Color>
0.118

> <Negative vol penalty>
0.000

$$$$

  -OEChem-04052303593D

 88 96  0     1  0  0  0  0  0999 V2000
  -22.8310   -6.0734   23.2469 C   0  0  0  0  0  0  0  0  0  0  0  0
  -23.9904   -6.7397   23.6304 C   0  0  0  0  0  0  0  0  0  0  0  0
  -24.9276  -33.0076   22.4740 C   0  0  0  0  0  0  0  0  0  0  0  0
  -26.6032  -32.6381   20.7731 C   0  0  0  0  0  0  0  0  0  0  0  0
  -22.1113   -6.5120   22.1362 C   0  0  0  0  0  0  0  0  0  0  0  0
  -24.4315   -7.8445   22.9028 C   0  0  0  0  0  0  0  0  0  0  0  0
  -27.8127  -14.1022   23.7544 C   0  0  0  0  0  0  0  0  0  0  0  0
  -25.4430  -34.2830   22.7046 C   0  0  0  0  0  0  0  0  0  0  0  0
  -27.1186  -33.9136   21.0037 C   0  0  0  0  0  0  0  0  0  0  0  0
  -28.8909  -14.8223   23.2419 C   0  0  0  0  0  0  0  0  0  0  0  0
  -25.2874  -37.3326   21.2524 C   0  0  0  0  0  0  0  0  0  0  0  0
  -24.3812  -38.3866   21.3692 C   0  0  0  0  0  0  0  0  0  0  0  0
  -28.4622  -23.0831   20.2595 C   0  0  0  0  0  0  0  0  0  0  0  0
  -27.5235  -15.5384   21.3880 C   0  0  0  0  0  0  0  0  0  0  0  0
  -29.8641  -24.2257   18.1353 C   0  0  0  0  0  0  0  0  0  0  0  0
  -25.1840  -38.8292   23.6045 C   0  0  0  0  0  0  0  0  0  0  0  0
  -25.5078  -32.1851   21.5082 C   0  0  0  0  0  0  0  0  0  0  0  0
  -28.9258  -22.2800   19.2175 C   0  0  0  0  0  0  0  0  0  0  0  0
  -23.9683  -30.5099   20.3544 C   0  0  0  0  0  0  0  0  0  0  0  0
  -22.5385   -7.6286   21.4003 C   0  0  0  0  0  0  0  0  0  0  0  0
  -26.5829  -14.0858   23.0807 C   0  0  0  0  0  0  0  0  0  0  0  0
  -23.7176   -8.2976   21.7804 C   0  0  0  0  0  0  0  0  0  0  0  0
  -26.4305  -14.8193   21.8954 C   0  0  0  0  0  0  0  0  0  0  0  0
  -28.6994  -24.4576   20.2393 C   0  0  0  0  0  0  0  0  0  0  0  0
  -29.6268  -22.8513   18.1555 C   0  0  0  0  0  0  0  0  0  0  0  0
  -26.5384  -34.7361   21.9695 C   0  0  0  0  0  0  0  0  0  0  0  0
  -28.7472  -15.5382   22.0570 C   0  0  0  0  0  0  0  0  0  0  0  0
  -26.1418  -37.0269   22.3118 C   0  0  0  0  0  0  0  0  0  0  0  0
  -24.3295  -39.1349   22.5452 C   0  0  0  0  0  0  0  0  0  0  0  0
  -29.4003  -25.0288   19.1773 C   0  0  0  0  0  0  0  0  0  0  0  0
  -26.0901  -37.7752   23.4878 C   0  0  0  0  0  0  0  0  0  0  0  0
  -24.9762  -30.8672   21.2699 C   0  0  0  0  0  0  0  0  0  0  0  0
  -23.8284  -29.1524   20.5103 C   0  0  0  0  0  0  0  0  0  0  0  0
  -28.6554  -20.8264   19.2673 C   0  0  0  0  0  0  0  0  0  0  0  0
  -23.2250  -31.3315   19.4444 C   0  0  0  0  0  0  0  0  0  0  0  0
  -28.5335  -20.1102   20.5817 C   0  0  0  0  0  0  0  0  0  0  0  0
  -24.7954  -11.8315   21.7292 C   0  0  0  0  0  0  0  0  0  0  0  0
  -30.8054  -19.0125   20.2444 C   0  0  0  0  0  0  0  0  0  0  0  0
  -22.6818  -14.2667   21.3760 C   0  0  0  0  0  0  0  0  0  0  0  0
  -22.1490  -17.6294   21.1407 C   0  0  0  0  0  0  0  0  0  0  0  0
  -27.5187  -24.8618   22.4277 C   0  0  0  0  0  0  0  0  0  0  0  0
  -21.7534   -8.0367   20.1790 C   0  0  0  0  0  0  0  0  0  0  0  0
  -25.4218  -13.3258   23.6608 C   0  0  0  0  0  0  0  0  0  0  0  0
  -25.1253  -14.8508   21.1446 C   0  0  0  0  0  0  0  0  0  0  0  0
  -22.0833   -9.4428   19.6846 C   0  0  0  0  0  0  0  0  0  0  0  0
  -24.3290  -25.6870   23.7774 C   0  0  0  0  0  0  0  0  0  0  0  0
  -23.5937   -9.6508   19.6358 C   0  0  0  0  0  0  0  0  0  0  0  0
  -24.0385  -27.0739   23.1994 C   0  0  0  0  0  0  0  0  0  0  0  0
  -25.8093  -25.5101   24.1107 C   0  0  0  0  0  0  0  0  0  0  0  0
  -26.4433  -27.1982   22.4322 C   0  0  0  0  0  0  0  0  0  0  0  0
  -24.2147   -9.5150   21.0314 C   0  0  1  0  0  0  0  0  0  0  0  0
  -24.3664  -12.9622   22.6210 C   0  0  1  0  0  0  0  0  0  0  0  0
  -24.9760  -27.4007   22.0204 C   0  0  2  0  0  0  0  0  0  0  0  0
  -31.8891  -19.9758   19.8239 C   0  0  0  0  0  0  0  0  0  0  0  0
  -20.3192  -19.3161   20.8178 C   0  0  0  0  0  0  0  0  0  0  0  0
  -22.5679  -13.5712   18.4073 C   0  0  0  0  0  0  0  0  0  0  0  0
  -21.5188  -15.8068   17.9951 C   0  0  0  0  0  0  0  0  0  0  0  0
  -20.3570  -14.1318   19.4330 C   0  0  0  0  0  0  0  0  0  0  0  0
  -22.6946  -18.8947   23.7599 C   0  0  0  0  0  0  0  0  0  0  0  0
  -29.7621  -19.5183   21.2159 C   0  0  0  0  0  0  0  0  0  0  0  0
  -29.5992  -16.9648   20.3272 C   0  0  0  0  0  0  0  0  0  1  0  0
  -22.4157  -15.3058   20.3137 C   0  0  1  0  0  0  0  0  0  0  0  0
  -21.1498  -18.5415   21.8292 C   0  0  2  0  0  0  0  0  0  0  0  0
  -21.7401  -14.7019   19.0502 C   0  0  0  0  0  0  0  0  0  0  0  0
  -25.4434  -29.8212   21.9567 N   0  0  0  0  0  0  0  0  0  0  0  0
  -28.4954  -20.1170   18.1974 N   0  0  0  0  0  0  0  0  0  0  0  0
  -27.3629  -20.0651   21.1243 N   0  0  0  0  0  0  0  0  0  0  0  0
  -30.7028  -17.7929   19.8386 N   0  0  0  0  0  0  0  0  0  0  0  0
  -24.7258  -28.7933   21.4725 N   0  0  0  0  0  0  0  0  0  0  0  0
  -24.0214  -14.0866   21.7487 N   0  0  0  0  0  0  0  0  0  0  0  0
  -26.6362  -25.8331   22.9459 N   0  0  0  0  0  0  0  0  0  0  0  0
  -30.1059  -22.0555   17.0910 N   0  0  0  0  0  0  0  0  0  0  0  0
  -23.0264  -28.2430   19.9168 N   0  0  0  0  0  0  0  0  0  0  0  0
  -23.4949  -32.7064   19.4126 N   0  0  0  0  0  0  0  0  0  0  0  0
  -28.2288  -25.2713   21.2996 N   0  0  0  0  0  0  0  0  0  0  0  0
  -23.9843  -10.7155   21.8061 N   0  0  0  0  0  0  0  0  0  0  0  0
  -21.6413  -16.3604   20.9590 N   0  0  0  0  0  0  0  0  0  0  0  0
  -21.8577  -19.5192   22.7033 N   0  3  0  0  0  0  0  0  0  0  0  0
  -22.3360  -30.8629   18.6936 O   0  0  0  0  0  0  0  0  0  0  0  0
  -25.7880  -11.9626   21.0226 O   0  0  0  0  0  0  0  0  0  0  0  0
  -21.7352  -13.6431   21.8625 O   0  0  0  0  0  0  0  0  0  0  0  0
  -23.2666  -18.0061   20.7950 O   0  0  0  0  0  0  0  0  0  0  0  0
  -27.6160  -23.7393   22.9302 O   0  0  0  0  0  0  0  0  0  0  0  0
  -27.0415  -35.9807   22.1941 O   0  0  0  0  0  0  0  0  0  0  0  0
  -29.7982  -16.2415   21.5542 O   0  0  0  0  0  0  0  0  0  1  0  0
  -23.4604  -40.1479   22.6565 F   0  0  0  0  0  0  0  0  0  0  0  0
  -29.6335  -26.3487   19.1471 F   0  0  0  0  0  0  0  0  0  0  0  0
  -26.9093  -37.4869   24.5085 F   0  0  0  0  0  0  0  0  0  0  0  0
  1  2  1  0  0  0  0
  1  5  2  0  0  0  0
  2  6  2  0  0  0  0
  3  8  2  0  0  0  0
  3 17  1  0  0  0  0
  4  9  1  0  0  0  0
  4 17  2  0  0  0  0
  5 20  1  0  0  0  0
  6 22  1  0  0  0  0
  7 10  2  0  0  0  0
  7 21  1  0  0  0  0
  8 26  1  0  0  0  0
  9 26  2  0  0  0  0
 10 27  1  0  0  0  0
 11 12  2  0  0  0  0
 11 28  1  0  0  0  0
 12 29  1  0  0  0  0
 13 18  1  0  0  0  0
 13 24  2  0  0  0  0
 14 23  1  0  0  0  0
 14 27  2  0  0  0  0
 15 25  1  0  0  0  0
 15 30  2  0  0  0  0
 16 29  2  0  0  0  0
 16 31  1  0  0  0  0
 17 32  1  0  0  0  0
 18 25  2  0  0  0  0
 18 34  1  0  0  0  0
 19 32  1  0  0  0  0
 19 33  2  0  0  0  0
 19 35  1  0  0  0  0
 20 22  2  0  0  0  0
 20 42  1  0  0  0  0
 21 23  2  0  0  0  0
 21 43  1  0  0  0  0
 22 51  1  0  0  0  0
 23 44  1  0  0  0  0
 24 30  1  0  0  0  0
 24 75  1  0  0  0  0
 25 72  1  0  0  0  0
 26 84  1  0  0  0  0
 27 85  1  0  0  0  0
 28 31  2  0  0  0  0
 28 84  1  0  0  0  0
 29 86  1  0  0  0  0
 30 87  1  0  0  0  0
 31 88  1  0  0  0  0
 32 65  2  0  0  0  0
 33 69  1  0  0  0  0
 33 73  1  0  0  0  0
 34 36  1  0  0  0  0
 34 66  2  0  0  0  0
 35 74  1  0  0  0  0
 35 79  2  0  0  0  0
 36 60  1  0  0  0  0
 36 67  2  0  0  0  0
 37 52  1  0  0  0  0
 37 76  1  0  0  0  0
 37 80  2  0  0  0  0
 38 54  1  0  0  0  0
 38 60  1  0  0  0  0
 38 68  2  0  0  0  0
 39 62  1  0  0  0  0
 39 70  1  0  0  0  0
 39 81  2  0  0  0  0
 40 63  1  0  0  0  0
 40 77  1  0  0  0  0
 40 82  2  0  0  0  0
 41 71  1  0  0  0  0
 41 75  1  0  0  0  0
 41 83  2  0  0  0  0
 42 45  1  0  0  0  0
 43 52  1  0  0  0  0
 44 70  1  0  0  0  0
 45 47  1  0  0  0  0
 46 48  1  0  0  0  0
 46 49  1  0  0  0  0
 47 51  1  0  0  0  0
 48 53  1  0  0  0  0
 49 71  1  0  0  0  0
 50 53  1  0  0  0  0
 50 71  1  0  0  0  0
 51 76  1  0  0  0  0
 52 70  1  0  0  0  0
 53 69  1  0  0  0  0
 55 63  1  0  0  0  0
 56 64  1  0  0  0  0
 57 64  1  0  0  0  0
 58 64  1  0  0  0  0
 59 78  1  0  0  0  0
 61 68  1  0  0  0  0
 61 85  1  0  0  0  0
 62 64  1  0  0  0  0
 62 77  1  0  0  0  0
 63 78  1  0  0  0  0
 65 69  1  0  0  0  0
M  CHG  1  78   1
M  ISO  4  41 100  61 101  75 100  85 101
M  END
> <Batch ID>
0163

> <Smiles>
CNC(C)C(=O)NC(C(=O)N1Cc2cc([101O:1][101CH2:1]N=C(C)CC(=N)C(=N)c3cc([100NH:0][100C:0](=O)N4CCCC(n5nc(-c6ccc(Oc7ccc(F)cc7F)cc6)c(C(N)=O)c5N)C4)c(F)cc3N)ccc2CC1C(=O)NC1CCCc2ccccc21)C(C)(C)C

> <Shape>
0.254

> <Color>
0.059

> <Negative vol penalty>
0.000

$$$$

  -OEChem-04052303593D

 91 99  0     1  0  0  0  0  0999 V2000
  -21.3348  -35.5767   25.3250 C   0  0  0  0  0  0  0  0  0  0  0  0
  -21.5142  -35.1151   24.0250 C   0  0  0  0  0  0  0  0  0  0  0  0
  -24.6349   -8.9959   21.7012 C   0  0  0  0  0  0  0  0  0  0  0  0
  -22.8264  -10.1225   20.5623 C   0  0  0  0  0  0  0  0  0  0  0  0
  -22.2773  -35.2749   26.3070 C   0  0  0  0  0  0  0  0  0  0  0  0
  -22.6370  -34.3523   23.7059 C   0  0  0  0  0  0  0  0  0  0  0  0
  -24.7187  -29.0047   19.4180 C   0  0  0  0  0  0  0  0  0  0  0  0
  -23.7117   -8.3214   22.5001 C   0  0  0  0  0  0  0  0  0  0  0  0
  -21.9031   -9.4480   21.3612 C   0  0  0  0  0  0  0  0  0  0  0  0
  -25.7073  -28.6948   18.4851 C   0  0  0  0  0  0  0  0  0  0  0  0
  -21.6397   -5.6649   22.2118 C   0  0  0  0  0  0  0  0  0  0  0  0
  -21.8290   -4.2969   22.4073 C   0  0  0  0  0  0  0  0  0  0  0  0
  -28.1419  -21.4080   19.3223 C   0  0  0  0  0  0  0  0  0  0  0  0
  -27.2291  -28.1687   20.2814 C   0  0  0  0  0  0  0  0  0  0  0  0
  -29.4621  -22.6273   20.9371 C   0  0  0  0  0  0  0  0  0  0  0  0
  -22.0054   -4.6617   24.7891 C   0  0  0  0  0  0  0  0  0  0  0  0
  -24.1923   -9.8965   20.7323 C   0  0  0  0  0  0  0  0  0  0  0  0
  -27.7434  -20.5183   20.3199 C   0  0  0  0  0  0  0  0  0  0  0  0
  -28.2042  -20.6831   21.6261 C   0  0  0  0  0  0  0  0  0  0  0  0
  -25.6645  -10.1745   18.6676 C   0  0  0  0  0  0  0  0  0  0  0  0
  -23.4074  -34.4998   26.0021 C   0  0  0  0  0  0  0  0  0  0  0  0
  -24.9818  -28.9092   20.7921 C   0  0  0  0  0  0  0  0  0  0  0  0
  -23.5963  -34.0409   24.6845 C   0  0  0  0  0  0  0  0  0  0  0  0
  -26.2414  -28.4755   21.2297 C   0  0  0  0  0  0  0  0  0  0  0  0
  -29.0014  -22.4625   19.6309 C   0  0  0  0  0  0  0  0  0  0  0  0
  -29.0636  -21.7376   21.9347 C   0  0  0  0  0  0  0  0  0  0  0  0
  -22.3458   -8.5474   22.3301 C   0  0  0  0  0  0  0  0  0  0  0  0
  -26.9637  -28.2795   18.9167 C   0  0  0  0  0  0  0  0  0  0  0  0
  -21.6334   -6.5314   23.3049 C   0  0  0  0  0  0  0  0  0  0  0  0
  -22.0118   -3.7952   23.6960 C   0  0  0  0  0  0  0  0  0  0  0  0
  -21.8162   -6.0297   24.5936 C   0  0  0  0  0  0  0  0  0  0  0  0
  -25.1455  -10.5940   19.9072 C   0  0  0  0  0  0  0  0  0  0  0  0
  -26.5234  -11.1801   18.2969 C   0  0  0  0  0  0  0  0  0  0  0  0
  -27.7846  -19.7495   22.6678 C   0  0  0  0  0  0  0  0  0  0  0  0
  -26.8324  -19.4101   19.9651 C   0  0  0  0  0  0  0  0  0  0  0  0
  -25.3943   -8.9823   17.9183 C   0  0  0  0  0  0  0  0  0  0  0  0
  -25.0228  -30.9648   23.2163 C   0  0  0  0  0  0  0  0  0  0  0  0
  -29.4121  -26.2555   17.1673 C   0  0  0  0  0  0  0  0  0  0  0  0
  -25.4935  -28.2805   24.9755 C   0  0  0  0  0  0  0  0  0  0  0  0
  -30.2560  -24.4555   18.7493 C   0  0  0  0  0  0  0  0  0  0  0  0
  -26.5834  -25.0486   25.0946 C   0  0  0  0  0  0  0  0  0  0  0  0
  -26.5152  -16.9465   19.8823 C   0  0  0  0  0  0  0  0  0  0  0  0
  -24.4230  -34.2392   27.0862 C   0  0  0  0  0  0  0  0  0  0  0  0
  -23.8963  -29.2214   21.7854 C   0  0  0  0  0  0  0  0  0  0  0  0
  -26.5680  -28.3370   22.6935 C   0  0  0  0  0  0  0  0  0  0  0  0
  -25.3942  -33.1098   26.7522 C   0  0  0  0  0  0  0  0  0  0  0  0
  -29.3501  -14.5639   20.0930 C   0  0  0  0  0  0  0  0  0  0  0  0
  -25.9259  -33.2658   25.3310 C   0  0  0  0  0  0  0  0  0  0  0  0
  -28.6088  -13.2327   20.0350 C   0  0  0  0  0  0  0  0  0  0  0  0
  -28.5266  -15.6544   20.7769 C   0  0  0  0  0  0  0  0  0  0  0  0
  -26.4288  -14.4983   20.1143 C   0  0  0  0  0  0  0  0  0  0  0  0
  -24.7887  -33.1898   24.3051 C   0  0  1  0  0  0  0  0  0  0  0  0
  -24.4355  -29.5827   23.1660 C   0  0  1  0  0  0  0  0  0  0  0  0
  -27.2318  -13.4144   19.3809 C   0  0  2  0  0  0  0  0  0  0  0  0
  -28.8580  -18.9740   23.3688 C   0  0  0  0  0  0  0  0  0  0  0  0
  -26.8780  -23.1263   26.6805 C   0  0  0  0  0  0  0  0  0  0  0  0
  -27.9513  -29.6419   26.1654 C   0  0  0  0  0  0  0  0  0  0  0  0
  -28.7136  -27.3999   26.9781 C   0  0  0  0  0  0  0  0  0  0  0  0
  -26.5683  -28.3630   27.8104 C   0  0  0  0  0  0  0  0  0  0  0  0
  -30.8145  -22.5103   23.5356 C   0  0  0  0  0  0  0  0  0  0  0  0
  -24.7385  -23.3334   23.5411 C   0  0  0  0  0  0  0  0  0  0  0  0
  -30.4519  -25.1874   17.4355 C   0  0  0  0  0  0  0  0  0  0  0  0
  -28.8905  -26.9908   18.3854 C   0  0  0  0  0  0  0  0  0  1  0  0
  -26.7025  -27.5028   25.4367 C   0  0  1  0  0  0  0  0  0  0  0  0
  -25.9544  -23.7942   25.6737 C   0  0  2  0  0  0  0  0  0  0  0  0
  -27.4787  -28.2313   26.5700 C   0  0  0  0  0  0  0  0  0  0  0  0
  -25.6341  -11.7742   20.2979 N   0  0  0  0  0  0  0  0  0  0  0  0
  -26.4690  -12.1047   19.2980 N   0  0  0  0  0  0  0  0  0  0  0  0
  -25.4754  -28.6600   23.6259 N   0  0  0  0  0  0  0  0  0  0  0  0
  -27.1728  -15.7585   20.2152 N   0  0  0  0  0  0  0  0  0  0  0  0
  -27.3123  -11.3548   17.2154 N   0  0  0  0  0  0  0  0  0  0  0  0
  -24.4856   -8.0540   18.4445 N   0  0  0  0  0  0  0  0  0  0  0  0
  -29.4058  -23.3653   18.6184 N   0  0  0  0  0  0  0  0  0  0  0  0
  -29.5429  -21.9242   23.2507 N   0  0  0  0  0  0  0  0  0  0  0  0
  -27.2602  -18.1541   20.1665 N   0  0  0  0  0  0  0  0  0  0  0  0
  -24.3850  -31.8154   24.0990 N   0  0  0  0  0  0  0  0  0  0  0  0
  -26.2193  -26.1754   25.8011 N   0  0  0  0  0  0  0  0  0  0  0  0
  -25.6408  -19.7289   19.4602 N   0  3  0  0  0  0  0  0  0  0  0  0
  -25.6557  -22.8166   24.5893 N   0  3  0  0  0  0  0  0  0  0  0  0
  -26.6185  -19.5533   23.0042 O   0  0  0  0  0  0  0  0  0  0  0  0
  -25.9548   -8.7395   16.8227 O   0  0  0  0  0  0  0  0  0  0  0  0
  -25.9844  -31.2388   22.5078 O   0  0  0  0  0  0  0  0  0  0  0  0
  -29.0085  -26.5074   16.0328 O   0  0  0  0  0  0  0  0  0  0  0  0
  -24.5950  -28.5354   25.7813 O   0  0  0  0  0  0  0  0  0  0  0  0
  -30.8426  -24.8322   19.7604 O   0  0  0  0  0  0  0  0  0  0  0  0
  -27.3265  -25.0303   24.1159 O   0  0  0  0  0  0  0  0  0  0  0  0
  -25.3850  -17.0290   19.4136 O   0  0  0  0  0  0  0  0  0  0  0  0
  -21.4445   -7.8892   23.1093 O   0  0  0  0  0  0  0  0  0  0  0  0
  -27.9306  -27.9770   18.0082 O   0  0  0  0  0  0  0  0  0  1  0  0
  -22.1920   -2.4813   23.8837 F   0  0  0  0  0  0  0  0  0  0  0  0
  -21.8099   -6.8571   25.6477 F   0  0  0  0  0  0  0  0  0  0  0  0
  1  2  1  0  0  0  0
  1  5  2  0  0  0  0
  2  6  2  0  0  0  0
  3  8  2  0  0  0  0
  3 17  1  0  0  0  0
  4  9  1  0  0  0  0
  4 17  2  0  0  0  0
  5 21  1  0  0  0  0
  6 23  1  0  0  0  0
  7 10  2  0  0  0  0
  7 22  1  0  0  0  0
  8 27  1  0  0  0  0
  9 27  2  0  0  0  0
 10 28  1  0  0  0  0
 11 12  2  0  0  0  0
 11 29  1  0  0  0  0
 12 30  1  0  0  0  0
 13 18  2  0  0  0  0
 13 25  1  0  0  0  0
 14 24  1  0  0  0  0
 14 28  2  0  0  0  0
 15 25  2  0  0  0  0
 15 26  1  0  0  0  0
 16 30  2  0  0  0  0
 16 31  1  0  0  0  0
 17 32  1  0  0  0  0
 18 19  1  0  0  0  0
 18 35  1  0  0  0  0
 19 26  2  0  0  0  0
 19 34  1  0  0  0  0
 20 32  1  0  0  0  0
 20 33  2  0  0  0  0
 20 36  1  0  0  0  0
 21 23  2  0  0  0  0
 21 43  1  0  0  0  0
 22 24  2  0  0  0  0
 22 44  1  0  0  0  0
 23 52  1  0  0  0  0
 24 45  1  0  0  0  0
 25 73  1  0  0  0  0
 26 74  1  0  0  0  0
 27 88  1  0  0  0  0
 28 89  1  0  0  0  0
 29 31  2  0  0  0  0
 29 88  1  0  0  0  0
 30 90  1  0  0  0  0
 31 91  1  0  0  0  0
 32 67  2  0  0  0  0
 33 68  1  0  0  0  0
 33 71  1  0  0  0  0
 34 55  1  0  0  0  0
 34 80  2  0  0  0  0
 35 75  1  0  0  0  0
 35 78  2  0  0  0  0
 36 72  1  0  0  0  0
 36 81  2  0  0  0  0
 37 53  1  0  0  0  0
 37 76  1  0  0  0  0
 37 82  2  0  0  0  0
 38 62  1  0  0  0  0
 38 63  1  0  0  0  0
 38 83  2  0  0  0  0
 39 64  1  0  0  0  0
 39 69  1  0  0  0  0
 39 84  2  0  0  0  0
 40 62  1  0  0  0  0
 40 73  1  0  0  0  0
 40 85  2  0  0  0  0
 41 65  1  0  0  0  0
 41 77  1  0  0  0  0
 41 86  2  0  0  0  0
 42 70  1  0  0  0  0
 42 75  1  0  0  0  0
 42 87  2  0  0  0  0
 43 46  1  0  0  0  0
 44 53  1  0  0  0  0
 45 69  1  0  0  0  0
 46 48  1  0  0  0  0
 47 49  1  0  0  0  0
 47 50  1  0  0  0  0
 48 52  1  0  0  0  0
 49 54  1  0  0  0  0
 50 70  1  0  0  0  0
 51 54  1  0  0  0  0
 51 70  1  0  0  0  0
 52 76  1  0  0  0  0
 53 69  1  0  0  0  0
 54 68  1  0  0  0  0
 56 65  1  0  0  0  0
 57 66  1  0  0  0  0
 58 66  1  0  0  0  0
 59 66  1  0  0  0  0
 60 74  1  0  0  0  0
 61 79  1  0  0  0  0
 63 89  1  0  0  0  0
 64 66  1  0  0  0  0
 64 77  1  0  0  0  0
 65 79  1  0  0  0  0
 67 68  1  0  0  0  0
M  CHG  2  78   1  79   1
M  ISO  4  42 100  63 101  75 100  89 101
M  END
> <Batch ID>
0163

> <Smiles>
CNc1cc(NC(=O)CC(=O)[101CH2:1][101O:1]c2ccc3c(c2)CN(C(=O)C(NC(=O)C(C)NC)C(C)(C)C)C(C(=O)NC2CCCc4ccccc42)C3)cc(C(=N)[100NH:0][100C:0](=O)N2CCCC(n3nc(-c4ccc(Oc5ccc(F)cc5F)cc4)c(C(N)=O)c3N)C2)c1C(C)=O

> <Shape>
0.269

> <Color>
0.076

> <Negative vol penalty>
0.000

$$$$

  -OEChem-04052303593D

 84 93  0     1  0  0  0  0  0999 V2000
  -27.4641  -37.5717   26.4845 C   0  0  0  0  0  0  0  0  0  0  0  0
  -28.2748  -36.7219   25.7388 C   0  0  0  0  0  0  0  0  0  0  0  0
  -23.0346   -9.4222   19.7058 C   0  0  0  0  0  0  0  0  0  0  0  0
  -24.6168   -8.8115   21.4264 C   0  0  0  0  0  0  0  0  0  0  0  0
  -26.2077  -37.1406   26.9081 C   0  0  0  0  0  0  0  0  0  0  0  0
  -27.8300  -35.4401   25.4173 C   0  0  0  0  0  0  0  0  0  0  0  0
  -27.7943  -20.1502   19.5888 C   0  0  0  0  0  0  0  0  0  0  0  0
  -30.1817  -20.3114   19.9229 C   0  0  0  0  0  0  0  0  0  0  0  0
  -28.2815  -30.5086   20.2411 C   0  0  0  0  0  0  0  0  0  0  0  0
  -27.8789  -18.7595   19.6548 C   0  0  0  0  0  0  0  0  0  0  0  0
  -30.2663  -18.9207   19.9889 C   0  0  0  0  0  0  0  0  0  0  0  0
  -21.9943   -8.9087   20.4801 C   0  0  0  0  0  0  0  0  0  0  0  0
  -23.5765   -8.2980   22.2008 C   0  0  0  0  0  0  0  0  0  0  0  0
  -28.5956  -29.1623   20.0605 C   0  0  0  0  0  0  0  0  0  0  0  0
  -21.6986   -5.4883   22.3023 C   0  0  0  0  0  0  0  0  0  0  0  0
  -21.8930   -4.2467   22.9074 C   0  0  0  0  0  0  0  0  0  0  0  0
  -26.3745  -28.5541   20.7787 C   0  0  0  0  0  0  0  0  0  0  0  0
  -21.5775   -5.2560   25.0797 C   0  0  0  0  0  0  0  0  0  0  0  0
  -24.3459   -9.3736   20.1789 C   0  0  0  0  0  0  0  0  0  0  0  0
  -25.8065   -9.4881   18.0905 C   0  0  0  0  0  0  0  0  0  0  0  0
  -28.9457  -20.9262   19.7228 C   0  0  0  0  0  0  0  0  0  0  0  0
  -25.7432  -35.8563   26.5834 C   0  0  0  0  0  0  0  0  0  0  0  0
  -27.0129  -30.8878   20.7030 C   0  0  0  0  0  0  0  0  0  0  0  0
  -26.5667  -34.9909   25.8382 C   0  0  0  0  0  0  0  0  0  0  0  0
  -26.0460  -29.9060   20.9619 C   0  0  0  0  0  0  0  0  0  0  0  0
  -29.1149  -18.1447   19.8549 C   0  0  0  0  0  0  0  0  0  0  0  0
  -22.2652   -8.3466   21.7276 C   0  0  0  0  0  0  0  0  0  0  0  0
  -27.6430  -28.1846   20.3321 C   0  0  0  0  0  0  0  0  0  0  0  0
  -21.4438   -6.6138   23.0859 C   0  0  0  0  0  0  0  0  0  0  0  0
  -21.8324   -4.1305   24.2961 C   0  0  0  0  0  0  0  0  0  0  0  0
  -21.3831   -6.4977   24.4746 C   0  0  0  0  0  0  0  0  0  0  0  0
  -25.4211   -9.9034   19.3793 C   0  0  0  0  0  0  0  0  0  0  0  0
  -26.8695  -10.2976   17.7725 C   0  0  0  0  0  0  0  0  0  0  0  0
  -29.3622  -25.0619   19.5813 C   0  0  0  0  0  0  0  0  0  0  0  0
  -25.2529   -8.4624   17.2555 C   0  0  0  0  0  0  0  0  0  0  0  0
  -25.9241  -32.4123   23.2709 C   0  0  0  0  0  0  0  0  0  0  0  0
  -23.0902  -32.2168   21.7048 C   0  0  0  0  0  0  0  0  0  0  0  0
  -21.1681  -30.6183   19.3815 C   0  0  0  0  0  0  0  0  0  0  0  0
  -28.1609  -15.8055   19.8102 C   0  0  0  0  0  0  0  0  0  0  0  0
  -24.3973  -35.4180   27.1039 C   0  0  0  0  0  0  0  0  0  0  0  0
  -26.6811  -32.3457   20.8671 C   0  0  0  0  0  0  0  0  0  0  0  0
  -24.6629  -30.2617   21.4404 C   0  0  0  0  0  0  0  0  0  0  0  0
  -28.9670  -24.4557   18.2534 C   0  0  0  0  0  0  0  0  0  0  0  0
  -23.8468  -34.1791   26.4022 C   0  0  0  0  0  0  0  0  0  0  0  0
  -29.0933  -22.9474   18.2417 C   0  0  0  0  0  0  0  0  0  0  0  0
  -30.1002  -12.5803   20.5594 C   0  0  0  0  0  0  0  0  0  0  0  0
  -24.9256  -33.1067   26.2880 C   0  0  0  0  0  0  0  0  0  0  0  0
  -29.4213  -11.6397   19.5665 C   0  0  0  0  0  0  0  0  0  0  0  0
  -29.9707  -14.0423   20.1512 C   0  0  0  0  0  0  0  0  0  0  0  0
  -27.5771  -13.3878   19.8378 C   0  0  0  0  0  0  0  0  0  0  0  0
  -26.1092  -33.6021   25.4483 C   0  0  1  0  0  0  0  0  0  0  0  0
  -28.8538  -22.4340   19.6512 C   0  0  2  0  0  0  0  0  0  0  0  0
  -25.5260  -32.5905   21.8331 C   0  0  1  0  0  0  0  0  0  0  0  0
  -28.0978  -12.2019   19.0109 C   0  0  2  0  0  0  0  0  0  0  0  0
  -18.8818  -30.6637   18.3481 C   0  0  0  0  0  0  0  0  0  0  0  0
  -21.9297  -30.9415   24.2221 C   0  0  0  0  0  0  0  0  0  0  0  0
  -19.9885  -30.1604   22.8474 C   0  0  0  0  0  0  0  0  0  0  0  0
  -20.4286  -32.6021   23.1069 C   0  0  0  0  0  0  0  0  0  0  0  0
  -22.2715  -31.1211   16.6818 C   0  0  0  0  0  0  0  0  0  0  0  0
  -29.2613  -26.5633   19.6931 C   0  0  0  0  0  0  0  0  0  1  0  0
  -21.9633  -31.2134   21.6549 C   0  0  1  0  0  0  0  0  0  0  0  0
  -20.3194  -31.1478   18.2398 C   0  0  2  0  0  0  0  0  0  0  0  0
  -21.1041  -31.2222   22.9507 C   0  0  0  0  0  0  0  0  0  0  0  0
  -26.1779  -10.8992   19.8479 N   0  0  0  0  0  0  0  0  0  0  0  0
  -29.7428  -24.4027   20.6332 N   0  0  0  0  0  0  0  0  0  0  0  0
  -27.0495  -11.1164   18.8483 N   0  0  0  0  0  0  0  0  0  0  0  0
  -24.3887  -31.7003   21.5914 N   0  0  0  0  0  0  0  0  0  0  0  0
  -28.5789  -14.4568   19.9223 N   0  0  0  0  0  0  0  0  0  0  0  0
  -27.6586  -10.3817   16.6804 N   0  0  0  0  0  0  0  0  0  0  0  0
  -25.7683   -7.1635   17.3622 N   0  0  0  0  0  0  0  0  0  0  0  0
  -29.2012  -16.7316   19.9223 N   0  0  0  0  0  0  0  0  0  0  0  0
  -25.7848  -33.5527   24.0388 N   0  0  0  0  0  0  0  0  0  0  0  0
  -21.2124  -31.5032   20.4381 N   0  0  0  0  0  0  0  0  0  0  0  0
  -20.8705  -30.6947   16.9313 N   0  3  0  0  0  0  0  0  0  0  0  0
  -24.3399   -8.6945   16.4272 O   0  0  0  0  0  0  0  0  0  0  0  0
  -26.3265  -31.3206   23.6556 O   0  0  0  0  0  0  0  0  0  0  0  0
  -22.8276  -33.4153   21.8323 O   0  0  0  0  0  0  0  0  0  0  0  0
  -21.7322  -29.5270   19.3418 O   0  0  0  0  0  0  0  0  0  0  0  0
  -26.9803  -16.1039   19.6179 O   0  0  0  0  0  0  0  0  0  0  0  0
  -29.8671  -23.0077   20.4805 O   0  0  0  0  0  0  0  0  0  0  0  0
  -21.2502   -7.8456   22.4835 O   0  0  0  0  0  0  0  0  0  0  0  0
  -27.9471  -26.8698   20.1574 O   0  0  0  0  0  0  0  0  0  1  0  0
  -22.0175   -2.9379   24.8770 F   0  0  0  0  0  0  0  0  0  0  0  0
  -21.1374   -7.5752   25.2325 F   0  0  0  0  0  0  0  0  0  0  0  0
  1  2  1  0  0  0  0
  1  5  2  0  0  0  0
  2  6  2  0  0  0  0
  3 12  2  0  0  0  0
  3 19  1  0  0  0  0
  4 13  1  0  0  0  0
  4 19  2  0  0  0  0
  5 22  1  0  0  0  0
  6 24  1  0  0  0  0
  7 10  2  0  0  0  0
  7 21  1  0  0  0  0
  8 11  1  0  0  0  0
  8 21  2  0  0  0  0
  9 14  2  0  0  0  0
  9 23  1  0  0  0  0
 10 26  1  0  0  0  0
 11 26  2  0  0  0  0
 12 27  1  0  0  0  0
 13 27  2  0  0  0  0
 14 28  1  0  0  0  0
 15 16  2  0  0  0  0
 15 29  1  0  0  0  0
 16 30  1  0  0  0  0
 17 25  1  0  0  0  0
 17 28  2  0  0  0  0
 18 30  2  0  0  0  0
 18 31  1  0  0  0  0
 19 32  1  0  0  0  0
 20 32  1  0  0  0  0
 20 33  2  0  0  0  0
 20 35  1  0  0  0  0
 21 52  1  0  0  0  0
 22 24  2  0  0  0  0
 22 40  1  0  0  0  0
 23 25  2  0  0  0  0
 23 41  1  0  0  0  0
 24 51  1  0  0  0  0
 25 42  1  0  0  0  0
 26 71  1  0  0  0  0
 27 81  1  0  0  0  0
 28 82  1  0  0  0  0
 29 31  2  0  0  0  0
 29 81  1  0  0  0  0
 30 83  1  0  0  0  0
 31 84  1  0  0  0  0
 32 64  2  0  0  0  0
 33 66  1  0  0  0  0
 33 69  1  0  0  0  0
 34 43  1  0  0  0  0
 34 60  1  0  0  0  0
 34 65  2  0  0  0  0
 35 70  1  0  0  0  0
 35 75  2  0  0  0  0
 36 53  1  0  0  0  0
 36 72  1  0  0  0  0
 36 76  2  0  0  0  0
 37 61  1  0  0  0  0
 37 67  1  0  0  0  0
 37 77  2  0  0  0  0
 38 62  1  0  0  0  0
 38 73  1  0  0  0  0
 38 78  2  0  0  0  0
 39 68  1  0  0  0  0
 39 71  1  0  0  0  0
 39 79  2  0  0  0  0
 40 44  1  0  0  0  0
 41 53  1  0  0  0  0
 42 67  1  0  0  0  0
 43 45  1  0  0  0  0
 44 47  1  0  0  0  0
 45 52  1  0  0  0  0
 46 48  1  0  0  0  0
 46 49  1  0  0  0  0
 47 51  1  0  0  0  0
 48 54  1  0  0  0  0
 49 68  1  0  0  0  0
 50 54  1  0  0  0  0
 50 68  1  0  0  0  0
 51 72  1  0  0  0  0
 52 80  1  0  0  0  0
 53 67  1  0  0  0  0
 54 66  1  0  0  0  0
 55 62  1  0  0  0  0
 56 63  1  0  0  0  0
 57 63  1  0  0  0  0
 58 63  1  0  0  0  0
 59 74  1  0  0  0  0
 60 82  1  0  0  0  0
 61 63  1  0  0  0  0
 61 73  1  0  0  0  0
 62 74  1  0  0  0  0
 64 66  1  0  0  0  0
 65 80  1  0  0  0  0
M  CHG  1  74   1
M  ISO  4  39 100  60 101  71 100  82 101
M  END
> <Batch ID>
0163

> <Smiles>
CNC(C)C(=O)NC(C(=O)N1Cc2cc([101O:1][101CH2:1]C3=NOC(c4ccc([100NH:0][100C:0](=O)N5CCCC(n6nc(-c7ccc(Oc8ccc(F)cc8F)cc7)c(C(N)=O)c6N)C5)cc4)CC3)ccc2CC1C(=O)NC1CCCc2ccccc21)C(C)(C)C

> <Shape>
0.328

> <Color>
0.095

> <Negative vol penalty>
0.000

$$$$

  -OEChem-04052303593D

 93101  0     1  0  0  0  0  0999 V2000
  -27.3969  -33.2487   26.4692 C   0  0  0  0  0  0  0  0  0  0  0  0
  -27.7120  -32.2995   25.5021 C   0  0  0  0  0  0  0  0  0  0  0  0
  -21.4075  -14.3046   23.4315 C   0  0  0  0  0  0  0  0  0  0  0  0
  -23.5849  -13.9580   22.4437 C   0  0  0  0  0  0  0  0  0  0  0  0
  -26.1547  -33.2124   27.1012 C   0  0  0  0  0  0  0  0  0  0  0  0
  -26.7853  -31.3128   25.1673 C   0  0  0  0  0  0  0  0  0  0  0  0
  -26.3896  -30.6366   20.1642 C   0  0  0  0  0  0  0  0  0  0  0  0
  -20.9226  -13.1851   22.7553 C   0  0  0  0  0  0  0  0  0  0  0  0
  -23.1000  -12.8385   21.7675 C   0  0  0  0  0  0  0  0  0  0  0  0
  -27.3927  -29.8959   19.5404 C   0  0  0  0  0  0  0  0  0  0  0  0
  -22.4128   -9.6066   22.4765 C   0  0  0  0  0  0  0  0  0  0  0  0
  -23.2012   -8.4560   22.4823 C   0  0  0  0  0  0  0  0  0  0  0  0
  -25.9555  -27.9585   19.5430 C   0  0  0  0  0  0  0  0  0  0  0  0
  -23.3208   -8.5258   20.0703 C   0  0  0  0  0  0  0  0  0  0  0  0
  -28.0312  -22.5438   20.4337 C   0  0  0  0  0  0  0  0  0  0  0  0
  -22.7387  -14.6911   23.2757 C   0  0  0  0  0  0  0  0  0  0  0  0
  -23.8261  -15.8808   25.2530 C   0  0  0  0  0  0  0  0  0  0  0  0
  -25.2087  -32.2306   26.7671 C   0  0  0  0  0  0  0  0  0  0  0  0
  -25.1638  -30.0398   20.4924 C   0  0  0  0  0  0  0  0  0  0  0  0
  -25.5298  -31.2625   25.7964 C   0  0  0  0  0  0  0  0  0  0  0  0
  -24.9376  -28.6944   20.1686 C   0  0  0  0  0  0  0  0  0  0  0  0
  -21.7688  -12.4521   21.9234 C   0  0  0  0  0  0  0  0  0  0  0  0
  -27.1769  -28.5559   19.2324 C   0  0  0  0  0  0  0  0  0  0  0  0
  -22.0782  -10.2168   21.2676 C   0  0  0  0  0  0  0  0  0  0  0  0
  -23.6552   -7.9156   21.2792 C   0  0  0  0  0  0  0  0  0  0  0  0
  -22.5323   -9.6764   20.0645 C   0  0  0  0  0  0  0  0  0  0  0  0
  -23.2401  -15.8477   23.9734 C   0  0  0  0  0  0  0  0  0  0  0  0
  -29.3096  -22.2487   19.9292 C   0  0  0  0  0  0  0  0  0  0  0  0
  -24.1303  -17.2045   25.4572 C   0  0  0  0  0  0  0  0  0  0  0  0
  -27.5463  -21.3243   20.8256 C   0  0  0  0  0  0  0  0  0  0  0  0
  -24.0733  -14.8106   26.1746 C   0  0  0  0  0  0  0  0  0  0  0  0
  -33.5174  -24.1524   21.1188 C   0  0  0  0  0  0  0  0  0  0  0  0
  -32.3215  -24.3729   20.2369 C   0  0  0  0  0  0  0  0  0  0  0  0
  -23.5907  -29.4888   23.1990 C   0  0  0  0  0  0  0  0  0  0  0  0
  -30.6250  -22.9061   17.8812 C   0  0  0  0  0  0  0  0  0  0  0  0
  -21.2553  -28.4888   21.1820 C   0  0  0  0  0  0  0  0  0  0  0  0
  -29.0581  -25.7876   17.6947 C   0  0  0  0  0  0  0  0  0  0  0  0
  -20.4067  -27.2701   18.1093 C   0  0  0  0  0  0  0  0  0  0  0  0
  -25.2428  -21.7565   21.7495 C   0  0  0  0  0  0  0  0  0  0  0  0
  -23.8972  -32.2031   27.5113 C   0  0  0  0  0  0  0  0  0  0  0  0
  -24.0822  -30.8595   21.1409 C   0  0  0  0  0  0  0  0  0  0  0  0
  -23.6318  -28.0122   20.4815 C   0  0  0  0  0  0  0  0  0  0  0  0
  -22.8286  -31.3512   26.8311 C   0  0  0  0  0  0  0  0  0  0  0  0
  -22.6980  -21.6079   24.2353 C   0  0  0  0  0  0  0  0  0  0  0  0
  -23.4092  -30.0063   26.4054 C   0  0  0  0  0  0  0  0  0  0  0  0
  -22.6058  -20.1176   24.5711 C   0  0  0  0  0  0  0  0  0  0  0  0
  -22.9696  -21.8388   22.7498 C   0  0  0  0  0  0  0  0  0  0  0  0
  -24.0385  -19.6284   22.5475 C   0  0  0  0  0  0  0  0  0  0  0  0
  -24.5417  -30.1915   25.3882 C   0  0  1  0  0  0  0  0  0  0  0  0
  -23.0610  -30.0125   21.8941 C   0  0  1  0  0  0  0  0  0  0  0  0
  -23.8305  -19.3443   24.0440 C   0  0  2  0  0  0  0  0  0  0  0  0
  -18.4246  -26.5149   16.7684 C   0  0  0  0  0  0  0  0  0  0  0  0
  -34.8951  -23.8695   19.0112 C   0  0  0  0  0  0  0  0  0  0  0  0
  -34.6811  -22.0001   20.6757 C   0  0  0  0  0  0  0  0  0  0  0  0
  -36.0059  -24.0499   21.2389 C   0  0  0  0  0  0  0  0  0  0  0  0
  -21.1940  -25.8724   22.7507 C   0  0  0  0  0  0  0  0  0  0  0  0
  -19.9369  -24.8413   20.8468 C   0  0  0  0  0  0  0  0  0  0  0  0
  -18.9448  -26.7539   22.1039 C   0  0  0  0  0  0  0  0  0  0  0  0
  -20.8424  -29.3677   16.0675 C   0  0  0  0  0  0  0  0  0  0  0  0
  -29.7797  -23.5771   16.8125 C   0  0  0  0  0  0  0  0  0  0  0  0
  -27.8655  -26.4629   18.3375 C   0  0  0  0  0  0  0  0  0  1  0  0
  -30.3213  -23.2108   19.3499 C   0  0  2  0  0  0  0  0  0  0  0  0
  -20.8876  -27.1723   20.5411 C   0  0  1  0  0  0  0  0  0  0  0  0
  -19.3291  -27.6846   17.1238 C   0  0  2  0  0  0  0  0  0  0  0  0
  -34.7661  -23.5210   20.4998 C   0  0  0  0  0  0  0  0  0  0  0  0
  -20.2662  -26.1720   21.5564 C   0  0  0  0  0  0  0  0  0  0  0  0
  -23.1748  -17.0546   23.4049 N   0  0  0  0  0  0  0  0  0  0  0  0
  -29.5956  -20.9458   20.0028 N   0  0  0  0  0  0  0  0  0  0  0  0
  -23.7236  -17.8584   24.3316 N   0  0  0  0  0  0  0  0  0  0  0  0
  -22.6076  -28.8542   21.1215 N   0  0  0  0  0  0  0  0  0  0  0  0
  -24.1461  -21.0785   22.3225 N   0  0  0  0  0  0  0  0  0  0  0  0
  -24.7033  -17.8612   26.4881 N   0  0  0  0  0  0  0  0  0  0  0  0
  -23.6985  -13.5114   25.8059 N   0  0  0  0  0  0  0  0  0  0  0  0
  -26.3170  -20.9337   21.4123 N   0  0  0  0  0  0  0  0  0  0  0  0
  -31.5168  -23.2581   20.1525 N   0  0  0  0  0  0  0  0  0  0  0  0
  -24.0011  -30.4747   24.0759 N   0  0  0  0  0  0  0  0  0  0  0  0
  -28.8062  -24.4517   17.4243 N   0  0  0  0  0  0  0  0  0  0  0  0
  -20.0201  -27.4955   19.4135 N   0  0  0  0  0  0  0  0  0  0  0  0
  -19.9455  -28.2002   15.8687 N   0  3  0  0  0  0  0  0  0  0  0  0
  -24.5958  -15.0032   27.2986 O   0  0  0  0  0  0  0  0  0  0  0  0
  -33.3794  -24.4393   22.3010 O   0  0  0  0  0  0  0  0  0  0  0  0
  -32.1963  -25.4581   19.6940 O   0  0  0  0  0  0  0  0  0  0  0  0
  -23.6233  -28.2797   23.3962 O   0  0  0  0  0  0  0  0  0  0  0  0
  -31.5214  -22.1091   17.5896 O   0  0  0  0  0  0  0  0  0  0  0  0
  -20.3740  -29.1712   21.7104 O   0  0  0  0  0  0  0  0  0  0  0  0
  -30.1076  -26.3789   17.4562 O   0  0  0  0  0  0  0  0  0  0  0  0
  -21.4823  -26.7905   17.7576 O   0  0  0  0  0  0  0  0  0  0  0  0
  -25.2408  -22.9806   21.5962 O   0  0  0  0  0  0  0  0  0  0  0  0
  -28.4707  -20.3625   20.5736 O   0  0  0  0  0  0  0  0  0  0  0  0
  -21.2960  -11.3595   21.2636 O   0  0  0  0  0  0  0  0  0  0  0  0
  -28.1545  -27.8306   18.6242 O   0  0  0  0  0  0  0  0  0  1  0  0
  -24.4137   -6.8115   21.2850 F   0  0  0  0  0  0  0  0  0  0  0  0
  -22.2151  -10.2589   18.9000 F   0  0  0  0  0  0  0  0  0  0  0  0
  1  2  1  0  0  0  0
  1  5  2  0  0  0  0
  2  6  2  0  0  0  0
  3  8  2  0  0  0  0
  3 16  1  0  0  0  0
  4  9  1  0  0  0  0
  4 16  2  0  0  0  0
  5 18  1  0  0  0  0
  6 20  1  0  0  0  0
  7 10  2  0  0  0  0
  7 19  1  0  0  0  0
  8 22  1  0  0  0  0
  9 22  2  0  0  0  0
 10 23  1  0  0  0  0
 11 12  2  0  0  0  0
 11 24  1  0  0  0  0
 12 25  1  0  0  0  0
 13 21  1  0  0  0  0
 13 23  2  0  0  0  0
 14 25  2  0  0  0  0
 14 26  1  0  0  0  0
 15 28  1  0  0  0  0
 15 30  2  0  0  0  0
 16 27  1  0  0  0  0
 17 27  1  0  0  0  0
 17 29  2  0  0  0  0
 17 31  1  0  0  0  0
 18 20  2  0  0  0  0
 18 40  1  0  0  0  0
 19 21  2  0  0  0  0
 19 41  1  0  0  0  0
 20 49  1  0  0  0  0
 21 42  1  0  0  0  0
 22 90  1  0  0  0  0
 23 91  1  0  0  0  0
 24 26  2  0  0  0  0
 24 90  1  0  0  0  0
 25 92  1  0  0  0  0
 26 93  1  0  0  0  0
 27 67  2  0  0  0  0
 28 62  1  0  0  0  0
 28 68  2  0  0  0  0
 29 69  1  0  0  0  0
 29 72  1  0  0  0  0
 30 74  1  0  0  0  0
 30 89  1  0  0  0  0
 31 73  1  0  0  0  0
 31 80  2  0  0  0  0
 32 33  1  0  0  0  0
 32 65  1  0  0  0  0
 32 81  2  0  0  0  0
 33 75  1  0  0  0  0
 33 82  2  0  0  0  0
 34 50  1  0  0  0  0
 34 76  1  0  0  0  0
 34 83  2  0  0  0  0
 35 60  1  0  0  0  0
 35 62  1  0  0  0  0
 35 84  2  0  0  0  0
 36 63  1  0  0  0  0
 36 70  1  0  0  0  0
 36 85  2  0  0  0  0
 37 61  1  0  0  0  0
 37 77  1  0  0  0  0
 37 86  2  0  0  0  0
 38 64  1  0  0  0  0
 38 78  1  0  0  0  0
 38 87  2  0  0  0  0
 39 71  1  0  0  0  0
 39 74  1  0  0  0  0
 39 88  2  0  0  0  0
 40 43  1  0  0  0  0
 41 50  1  0  0  0  0
 42 70  1  0  0  0  0
 43 45  1  0  0  0  0
 44 46  1  0  0  0  0
 44 47  1  0  0  0  0
 45 49  1  0  0  0  0
 46 51  1  0  0  0  0
 47 71  1  0  0  0  0
 48 51  1  0  0  0  0
 48 71  1  0  0  0  0
 49 76  1  0  0  0  0
 50 70  1  0  0  0  0
 51 69  1  0  0  0  0
 52 64  1  0  0  0  0
 53 65  1  0  0  0  0
 54 65  1  0  0  0  0
 55 65  1  0  0  0  0
 56 66  1  0  0  0  0
 57 66  1  0  0  0  0
 58 66  1  0  0  0  0
 59 79  1  0  0  0  0
 60 77  1  0  0  0  0
 61 91  1  0  0  0  0
 62 75  1  0  0  0  0
 63 66  1  0  0  0  0
 63 78  1  0  0  0  0
 64 79  1  0  0  0  0
 67 69  1  0  0  0  0
 68 89  1  0  0  0  0
M  CHG  1  79   1
M  ISO  4  39 100  61 101  74 100  91 101
M  END
> <Batch ID>
0163

> <Smiles>
CNC(C)C(=O)NC(C(=O)N1Cc2cc([101O:1][101CH2:1]C(=O)NCC(=O)C(NC(=O)C(=O)C(C)(C)C)c3cc([100NH:0][100C:0](=O)N4CCCC(n5nc(-c6ccc(Oc7ccc(F)cc7F)cc6)c(C(N)=O)c5N)C4)on3)ccc2CC1C(=O)NC1CCCc2ccccc21)C(C)(C)C

> <Shape>
0.243

> <Color>
0.053

> <Negative vol penalty>
0.000

$$$$

  -OEChem-04052303593D

 89 98  0     1  0  0  0  0  0999 V2000
  -15.9799  -25.9409   22.0626 C   0  0  0  0  0  0  0  0  0  0  0  0
  -16.8238  -24.9065   21.6713 C   0  0  0  0  0  0  0  0  0  0  0  0
  -28.7777  -24.0098   18.2948 C   0  0  0  0  0  0  0  0  0  0  0  0
  -30.8069  -22.8849   17.6210 C   0  0  0  0  0  0  0  0  0  0  0  0
  -16.5183  -27.1457   22.5129 C   0  0  0  0  0  0  0  0  0  0  0  0
  -18.2066  -25.0766   21.7289 C   0  0  0  0  0  0  0  0  0  0  0  0
  -20.5748  -21.0735   23.7318 C   0  0  0  0  0  0  0  0  0  0  0  0
  -29.2491  -25.1965   17.7333 C   0  0  0  0  0  0  0  0  0  0  0  0
  -31.2783  -24.0715   17.0594 C   0  0  0  0  0  0  0  0  0  0  0  0
  -20.7531  -19.9619   22.9093 C   0  0  0  0  0  0  0  0  0  0  0  0
  -31.4177  -27.6537   18.5602 C   0  0  0  0  0  0  0  0  0  0  0  0
  -31.2746  -28.8241   19.3054 C   0  0  0  0  0  0  0  0  0  0  0  0
  -25.5467  -12.9247   18.9139 C   0  0  0  0  0  0  0  0  0  0  0  0
  -26.9845  -14.2093   20.3638 C   0  0  0  0  0  0  0  0  0  0  0  0
  -23.0319  -20.6386   22.4989 C   0  0  0  0  0  0  0  0  0  0  0  0
  -29.9305  -29.7829   17.5416 C   0  0  0  0  0  0  0  0  0  0  0  0
  -29.5567  -22.8540   18.2387 C   0  0  0  0  0  0  0  0  0  0  0  0
  -26.6146  -12.0831   18.6098 C   0  0  0  0  0  0  0  0  0  0  0  0
  -27.8995  -20.9286   18.4711 C   0  0  0  0  0  0  0  0  0  0  0  0
  -17.9084  -27.3272   22.5851 C   0  0  0  0  0  0  0  0  0  0  0  0
  -21.6222  -21.9834   23.9357 C   0  0  0  0  0  0  0  0  0  0  0  0
  -18.7641  -26.2854   22.1792 C   0  0  0  0  0  0  0  0  0  0  0  0
  -28.0805  -13.3854   20.0508 C   0  0  0  0  0  0  0  0  0  0  0  0
  -22.8651  -21.7595   23.3265 C   0  0  0  0  0  0  0  0  0  0  0  0
  -27.8789  -12.2914   19.1849 C   0  0  0  0  0  0  0  0  0  0  0  0
  -25.7302  -13.9839   19.7955 C   0  0  0  0  0  0  0  0  0  0  0  0
  -30.4993  -25.2273   17.1156 C   0  0  0  0  0  0  0  0  0  0  0  0
  -21.9808  -19.7459   22.2904 C   0  0  0  0  0  0  0  0  0  0  0  0
  -30.8172  -27.5479   17.3056 C   0  0  0  0  0  0  0  0  0  0  0  0
  -30.5310  -29.8887   18.7961 C   0  0  0  0  0  0  0  0  0  0  0  0
  -30.0736  -28.6125   16.7963 C   0  0  0  0  0  0  0  0  0  0  0  0
  -29.0705  -21.6281   18.8191 C   0  0  0  0  0  0  0  0  0  0  0  0
  -27.8891  -19.8390   19.3072 C   0  0  0  0  0  0  0  0  0  0  0  0
  -26.3623  -10.9943   17.6721 C   0  0  0  0  0  0  0  0  0  0  0  0
  -26.9095  -21.2363   17.4806 C   0  0  0  0  0  0  0  0  0  0  0  0
  -22.0593  -25.0730   23.3299 C   0  0  0  0  0  0  0  0  0  0  0  0
  -23.4221  -16.6265   21.1264 C   0  0  0  0  0  0  0  0  0  0  0  0
  -24.8151  -24.6064   24.9761 C   0  0  0  0  0  0  0  0  0  0  0  0
  -27.2204  -22.4328   26.0424 C   0  0  0  0  0  0  0  0  0  0  0  0
  -30.5118  -15.5828   21.7875 C   0  0  0  0  0  0  0  0  0  0  0  0
  -18.4435  -28.6640   23.0337 C   0  0  0  0  0  0  0  0  0  0  0  0
  -21.4220  -23.1630   24.8471 C   0  0  0  0  0  0  0  0  0  0  0  0
  -29.0015  -11.3541   18.8154 C   0  0  0  0  0  0  0  0  0  0  0  0
  -24.0276  -22.6955   23.5292 C   0  0  0  0  0  0  0  0  0  0  0  0
  -19.9203  -28.6308   23.4189 C   0  0  0  0  0  0  0  0  0  0  0  0
  -30.1679  -11.4065   19.7969 C   0  0  0  0  0  0  0  0  0  0  0  0
  -30.7232  -18.7708   23.3586 C   0  0  0  0  0  0  0  0  0  0  0  0
  -20.7300  -27.8811   22.3658 C   0  0  0  0  0  0  0  0  0  0  0  0
  -30.5744  -12.8525   20.0462 C   0  0  0  0  0  0  0  0  0  0  0  0
  -30.2216  -19.7406   22.2872 C   0  0  0  0  0  0  0  0  0  0  0  0
  -31.5297  -17.6257   22.7503 C   0  0  0  0  0  0  0  0  0  0  0  0
  -30.3401  -17.8558   20.6042 C   0  0  0  0  0  0  0  0  0  0  0  0
  -20.2694  -26.4229   22.2507 C   0  0  1  0  0  0  0  0  0  0  0  0
  -29.4281  -13.6299   20.7054 C   0  0  1  0  0  0  0  0  0  0  0  0
  -22.3996  -24.3019   24.5738 C   0  0  1  0  0  0  0  0  0  0  0  0
  -29.4740  -18.9973   21.1638 C   0  0  2  0  0  0  0  0  0  0  0  0
  -25.3173   -9.9881   18.0498 C   0  0  0  0  0  0  0  0  0  0  0  0
  -29.3683  -22.3520   27.3376 C   0  0  0  0  0  0  0  0  0  0  0  0
  -26.2957  -25.8012   22.5907 C   0  0  0  0  0  0  0  0  0  0  0  0
  -28.4149  -24.8382   23.5125 C   0  0  0  0  0  0  0  0  0  0  0  0
  -27.1467  -26.5399   24.8233 C   0  0  0  0  0  0  0  0  0  0  0  0
  -26.0661  -20.6084   28.0668 C   0  0  0  0  0  0  0  0  0  0  0  0
  -24.7646  -15.9359   21.0132 C   0  0  0  0  0  0  0  0  0  0  0  0
  -23.4730  -18.1143   21.4145 C   0  0  0  0  0  0  0  0  0  1  0  0
  -26.2217  -24.1965   24.6120 C   0  0  1  0  0  0  0  0  0  0  0  0
  -27.8546  -22.2216   27.4054 C   0  0  2  0  0  0  0  0  0  0  0  0
  -26.9975  -25.3272   23.8790 C   0  0  0  0  0  0  0  0  0  0  0  0
  -29.7545  -21.0329   19.7999 N   0  0  0  0  0  0  0  0  0  0  0  0
  -29.0108  -19.9480   20.0754 N   0  0  0  0  0  0  0  0  0  0  0  0
  -23.7804  -23.8379   24.4243 N   0  0  0  0  0  0  0  0  0  0  0  0
  -30.7638  -16.9614   21.6929 N   0  0  0  0  0  0  0  0  0  0  0  0
  -27.0301  -18.8078   19.4529 N   0  0  0  0  0  0  0  0  0  0  0  0
  -27.0826  -20.7329   16.1841 N   0  0  0  0  0  0  0  0  0  0  0  0
  -24.6664  -14.8167   20.1116 N   0  0  0  0  0  0  0  0  0  0  0  0
  -20.7984  -25.6379   23.3455 N   0  0  0  0  0  0  0  0  0  0  0  0
  -26.8492  -23.7467   25.8498 N   0  0  0  0  0  0  0  0  0  0  0  0
  -29.7734  -15.0334   20.7465 N   0  0  0  0  0  0  0  0  0  0  0  0
  -27.5226  -20.8656   27.9267 N   0  3  0  0  0  0  0  0  0  0  0  0
  -26.9469  -10.8412   16.6006 O   0  0  0  0  0  0  0  0  0  0  0  0
  -25.9098  -21.9505   17.7335 O   0  0  0  0  0  0  0  0  0  0  0  0
  -22.8806  -25.1509   22.4238 O   0  0  0  0  0  0  0  0  0  0  0  0
  -22.3539  -16.0300   20.9955 O   0  0  0  0  0  0  0  0  0  0  0  0
  -24.6412  -25.5684   25.7284 O   0  0  0  0  0  0  0  0  0  0  0  0
  -27.0727  -21.5238   25.2284 O   0  0  0  0  0  0  0  0  0  0  0  0
  -30.9104  -14.8937   22.7326 O   0  0  0  0  0  0  0  0  0  0  0  0
  -30.9595  -26.3850   16.5673 O   0  0  0  0  0  0  0  0  0  0  0  0
  -22.1573  -18.6621   21.4866 O   0  0  0  0  0  0  0  0  0  1  0  0
  -30.3925  -31.0119   19.5125 F   0  0  0  0  0  0  0  0  0  0  0  0
  -29.4935  -28.5163   15.5922 F   0  0  0  0  0  0  0  0  0  0  0  0
  1  2  1  0  0  0  0
  1  5  2  0  0  0  0
  2  6  2  0  0  0  0
  3  8  2  0  0  0  0
  3 17  1  0  0  0  0
  4  9  1  0  0  0  0
  4 17  2  0  0  0  0
  5 20  1  0  0  0  0
  6 22  1  0  0  0  0
  7 10  2  0  0  0  0
  7 21  1  0  0  0  0
  8 27  1  0  0  0  0
  9 27  2  0  0  0  0
 10 28  1  0  0  0  0
 11 12  2  0  0  0  0
 11 29  1  0  0  0  0
 12 30  1  0  0  0  0
 13 18  2  0  0  0  0
 13 26  1  0  0  0  0
 14 23  1  0  0  0  0
 14 26  2  0  0  0  0
 15 24  1  0  0  0  0
 15 28  2  0  0  0  0
 16 30  2  0  0  0  0
 16 31  1  0  0  0  0
 17 32  1  0  0  0  0
 18 25  1  0  0  0  0
 18 34  1  0  0  0  0
 19 32  1  0  0  0  0
 19 33  2  0  0  0  0
 19 35  1  0  0  0  0
 20 22  2  0  0  0  0
 20 41  1  0  0  0  0
 21 24  2  0  0  0  0
 21 42  1  0  0  0  0
 22 53  1  0  0  0  0
 23 25  2  0  0  0  0
 23 54  1  0  0  0  0
 24 44  1  0  0  0  0
 25 43  1  0  0  0  0
 26 74  1  0  0  0  0
 27 86  1  0  0  0  0
 28 87  1  0  0  0  0
 29 31  2  0  0  0  0
 29 86  1  0  0  0  0
 30 88  1  0  0  0  0
 31 89  1  0  0  0  0
 32 68  2  0  0  0  0
 33 69  1  0  0  0  0
 33 72  1  0  0  0  0
 34 57  1  0  0  0  0
 34 79  2  0  0  0  0
 35 73  1  0  0  0  0
 35 80  2  0  0  0  0
 36 55  1  0  0  0  0
 36 75  1  0  0  0  0
 36 81  2  0  0  0  0
 37 63  1  0  0  0  0
 37 64  1  0  0  0  0
 37 82  2  0  0  0  0
 38 65  1  0  0  0  0
 38 70  1  0  0  0  0
 38 83  2  0  0  0  0
 39 66  1  0  0  0  0
 39 76  1  0  0  0  0
 39 84  2  0  0  0  0
 40 71  1  0  0  0  0
 40 77  1  0  0  0  0
 40 85  2  0  0  0  0
 41 45  1  0  0  0  0
 42 55  1  0  0  0  0
 43 46  1  0  0  0  0
 44 70  1  0  0  0  0
 45 48  1  0  0  0  0
 46 49  1  0  0  0  0
 47 50  1  0  0  0  0
 47 51  1  0  0  0  0
 48 53  1  0  0  0  0
 49 54  1  0  0  0  0
 50 56  1  0  0  0  0
 51 71  1  0  0  0  0
 52 56  1  0  0  0  0
 52 71  1  0  0  0  0
 53 75  1  0  0  0  0
 54 77  1  0  0  0  0
 55 70  1  0  0  0  0
 56 69  1  0  0  0  0
 58 66  1  0  0  0  0
 59 67  1  0  0  0  0
 60 67  1  0  0  0  0
 61 67  1  0  0  0  0
 62 78  1  0  0  0  0
 63 74  1  0  0  0  0
 64 87  1  0  0  0  0
 65 67  1  0  0  0  0
 65 76  1  0  0  0  0
 66 78  1  0  0  0  0
 68 69  1  0  0  0  0
M  CHG  1  78   1
M  ISO  4  40 100  64 101  77 100  87 101
M  END
> <Batch ID>
0163

> <Smiles>
CNC(C)C(=O)NC(C(=O)N1Cc2cc([101O:1][101CH2:1]C(=O)CNc3cc(C(C)=O)c4c(c3)C([100NH:0][100C:0](=O)N3CCCC(n5nc(-c6ccc(Oc7ccc(F)cc7F)cc6)c(C(N)=O)c5N)C3)CCC4)ccc2CC1C(=O)NC1CCCc2ccccc21)C(C)(C)C

> <Shape>
0.211

> <Color>
0.055

> <Negative vol penalty>
0.000

$$$$

  -OEChem-04052303593D

 83 91  0     1  0  0  0  0  0999 V2000
  -17.2106  -23.5605   23.7925 C   0  0  0  0  0  0  0  0  0  0  0  0
  -18.4887  -23.1033   24.0969 C   0  0  0  0  0  0  0  0  0  0  0  0
  -22.9418   -9.9675   20.0159 C   0  0  0  0  0  0  0  0  0  0  0  0
  -23.6846  -10.0090   22.3145 C   0  0  0  0  0  0  0  0  0  0  0  0
  -17.0462  -24.7710   23.1204 C   0  0  0  0  0  0  0  0  0  0  0  0
  -19.6034  -23.8557   23.7284 C   0  0  0  0  0  0  0  0  0  0  0  0
  -24.8653  -24.3948   26.8151 C   0  0  0  0  0  0  0  0  0  0  0  0
  -22.1574   -8.8470   20.2896 C   0  0  0  0  0  0  0  0  0  0  0  0
  -22.9002   -8.8885   22.5882 C   0  0  0  0  0  0  0  0  0  0  0  0
  -26.1026  -23.7673   26.6765 C   0  0  0  0  0  0  0  0  0  0  0  0
  -23.0824   -5.5451   22.1197 C   0  0  0  0  0  0  0  0  0  0  0  0
  -23.6574   -4.5188   22.8691 C   0  0  0  0  0  0  0  0  0  0  0  0
  -26.8932  -25.6297   25.3629 C   0  0  0  0  0  0  0  0  0  0  0  0
  -21.9504   -4.7944   24.5565 C   0  0  0  0  0  0  0  0  0  0  0  0
  -23.7054  -10.5484   21.0284 C   0  0  0  0  0  0  0  0  0  0  0  0
  -24.1336  -13.0566   20.8457 C   0  0  0  0  0  0  0  0  0  0  0  0
  -18.1591  -25.5434   22.7521 C   0  0  0  0  0  0  0  0  0  0  0  0
  -24.6287  -25.6416   26.2184 C   0  0  0  0  0  0  0  0  0  0  0  0
  -19.4538  -25.0771   23.0496 C   0  0  0  0  0  0  0  0  0  0  0  0
  -25.6529  -26.2721   25.4975 C   0  0  0  0  0  0  0  0  0  0  0  0
  -22.1366   -8.3075   21.5757 C   0  0  0  0  0  0  0  0  0  0  0  0
  -27.1158  -24.3834   25.9479 C   0  0  0  0  0  0  0  0  0  0  0  0
  -21.9413   -6.1961   22.5887 C   0  0  0  0  0  0  0  0  0  0  0  0
  -23.0915   -4.1434   24.0874 C   0  0  0  0  0  0  0  0  0  0  0  0
  -21.3754   -5.8207   23.8071 C   0  0  0  0  0  0  0  0  0  0  0  0
  -24.5163  -11.7055   20.7462 C   0  0  0  0  0  0  0  0  0  0  0  0
  -31.9561  -18.5834   22.1668 C   0  0  0  0  0  0  0  0  0  0  0  0
  -25.2531  -13.7591   20.4721 C   0  0  0  0  0  0  0  0  0  0  0  0
  -30.8622  -19.0069   22.8921 C   0  0  0  0  0  0  0  0  0  0  0  0
  -30.6606  -16.8410   21.8575 C   0  0  0  0  0  0  0  0  0  0  0  0
  -28.3609  -22.5473   25.2069 C   0  0  0  0  0  0  0  0  0  1  0  0
  -22.8783  -13.6258   21.2406 C   0  0  0  0  0  0  0  0  0  0  0  0
  -29.4812  -21.8440   25.0115 C   0  0  0  0  0  0  0  0  0  0  0  0
  -29.4493  -20.5068   24.3362 C   0  0  0  0  0  0  0  0  0  0  0  0
  -22.6201  -26.7244   24.0055 C   0  0  0  0  0  0  0  0  0  0  0  0
  -23.8898  -29.5971   24.8164 C   0  0  0  0  0  0  0  0  0  0  0  0
  -26.5107  -31.3366   26.1401 C   0  0  0  0  0  0  0  0  0  0  0  0
  -30.7502  -14.6239   20.6646 C   0  0  0  0  0  0  0  0  0  0  0  0
  -17.9333  -26.8223   21.9852 C   0  0  0  0  0  0  0  0  0  0  0  0
  -23.2973  -26.3176   26.3997 C   0  0  0  0  0  0  0  0  0  0  0  0
  -25.4563  -27.6198   24.8544 C   0  0  0  0  0  0  0  0  0  0  0  0
  -19.1518  -27.7416   21.9616 C   0  0  0  0  0  0  0  0  0  0  0  0
  -29.5720  -12.1879   18.3505 C   0  0  0  0  0  0  0  0  0  0  0  0
  -20.4118  -26.9494   21.6275 C   0  0  0  0  0  0  0  0  0  0  0  0
  -28.1201  -11.9564   18.7757 C   0  0  0  0  0  0  0  0  0  0  0  0
  -30.4855  -12.4171   19.5533 C   0  0  0  0  0  0  0  0  0  0  0  0
  -28.5941  -13.2413   20.8997 C   0  0  0  0  0  0  0  0  0  0  0  0
  -20.6867  -25.8769   22.6886 C   0  0  1  0  0  0  0  0  0  0  0  0
  -22.9996  -27.3508   25.3175 C   0  0  1  0  0  0  0  0  0  0  0  0
  -27.6246  -13.0703   19.7188 C   0  0  2  0  0  0  0  0  0  0  0  0
  -33.2149  -19.3326   21.9751 C   0  0  0  0  0  0  0  0  0  0  0  0
  -27.2734  -33.6755   26.6352 C   0  0  0  0  0  0  0  0  0  0  0  0
  -24.4996  -30.0222   21.8571 C   0  0  0  0  0  0  0  0  0  0  0  0
  -26.0644  -31.8624   22.5154 C   0  0  0  0  0  0  0  0  0  0  0  0
  -23.6336  -32.0454   23.0448 C   0  0  0  0  0  0  0  0  0  0  0  0
  -26.6851  -30.7891   29.0433 C   0  0  0  0  0  0  0  0  0  0  0  0
  -25.0660  -30.4175   24.3449 C   0  0  1  0  0  0  0  0  0  0  0  0
  -26.5636  -32.4443   27.1767 C   0  0  2  0  0  0  0  0  0  0  0  0
  -24.8193  -31.0606   22.9509 C   0  0  0  0  0  0  0  0  0  0  0  0
  -25.7802  -11.5562   20.3409 N   0  0  0  0  0  0  0  0  0  0  0  0
  -31.8425  -17.3414   21.5731 N   0  0  0  0  0  0  0  0  0  0  0  0
  -26.2014  -12.8225   20.1824 N   0  0  0  0  0  0  0  0  0  0  0  0
  -24.1350  -28.2374   25.0548 N   0  0  0  0  0  0  0  0  0  0  0  0
  -29.9554  -13.4888   20.3991 N   0  0  0  0  0  0  0  0  0  0  0  0
  -25.5091  -15.0803   20.3663 N   0  0  0  0  0  0  0  0  0  0  0  0
  -21.8336  -12.7604   21.5930 N   0  0  0  0  0  0  0  0  0  0  0  0
  -30.6013  -20.1918   23.6275 N   0  0  0  0  0  0  0  0  0  0  0  0
  -30.1287  -15.5914   21.4534 N   0  0  0  0  0  0  0  0  0  0  0  0
  -21.2678  -26.4739   23.8719 N   0  0  0  0  0  0  0  0  0  0  0  0
  -25.3444  -31.3794   25.4058 N   0  0  0  0  0  0  0  0  0  0  0  0
  -30.7217  -22.3711   25.4369 N   0  3  0  0  0  0  0  0  0  0  0  0
  -27.2886  -31.9809   28.3934 N   0  3  0  0  0  0  0  0  0  0  0  0
  -22.6835  -14.8647   21.2641 O   0  0  0  0  0  0  0  0  0  0  0  0
  -28.4504  -19.7998   24.4512 O   0  0  0  0  0  0  0  0  0  0  0  0
  -23.4897  -26.4872   23.1753 O   0  0  0  0  0  0  0  0  0  0  0  0
  -22.7955  -30.1441   24.9745 O   0  0  0  0  0  0  0  0  0  0  0  0
  -27.4153  -30.5176   25.9936 O   0  0  0  0  0  0  0  0  0  0  0  0
  -31.8878  -14.7422   20.2020 O   0  0  0  0  0  0  0  0  0  0  0  0
  -21.3711   -7.2143   21.8432 O   0  0  0  0  0  0  0  0  0  0  0  0
  -28.3242  -23.7728   25.8106 O   0  0  0  0  0  0  0  0  0  1  0  0
  -23.6429   -3.1568   24.8062 F   0  0  0  0  0  0  0  0  0  0  0  0
  -20.2785   -6.4416   24.2623 F   0  0  0  0  0  0  0  0  0  0  0  0
  -29.6349  -17.8104   22.8338 S   0  0  0  0  0  0  0  0  0  0  0  0
  1  2  1  0  0  0  0
  1  5  2  0  0  0  0
  2  6  2  0  0  0  0
  3  8  2  0  0  0  0
  3 15  1  0  0  0  0
  4  9  1  0  0  0  0
  4 15  2  0  0  0  0
  5 17  1  0  0  0  0
  6 19  1  0  0  0  0
  7 10  2  0  0  0  0
  7 18  1  0  0  0  0
  8 21  1  0  0  0  0
  9 21  2  0  0  0  0
 10 22  1  0  0  0  0
 11 12  2  0  0  0  0
 11 23  1  0  0  0  0
 12 24  1  0  0  0  0
 13 20  1  0  0  0  0
 13 22  2  0  0  0  0
 14 24  2  0  0  0  0
 14 25  1  0  0  0  0
 15 26  1  0  0  0  0
 16 26  1  0  0  0  0
 16 28  2  0  0  0  0
 16 32  1  0  0  0  0
 17 19  2  0  0  0  0
 17 39  1  0  0  0  0
 18 20  2  0  0  0  0
 18 40  1  0  0  0  0
 19 48  1  0  0  0  0
 20 41  1  0  0  0  0
 21 79  1  0  0  0  0
 22 80  1  0  0  0  0
 23 25  2  0  0  0  0
 23 79  1  0  0  0  0
 24 81  1  0  0  0  0
 25 82  1  0  0  0  0
 26 60  2  0  0  0  0
 27 29  2  0  0  0  0
 27 51  1  0  0  0  0
 27 61  1  0  0  0  0
 28 62  1  0  0  0  0
 28 65  1  0  0  0  0
 29 67  1  0  0  0  0
 29 83  1  0  0  0  0
 30 61  2  0  0  0  0
 30 68  1  0  0  0  0
 30 83  1  0  0  0  0
 31 33  2  0  0  0  0
 31 80  1  0  0  0  0
 32 66  1  0  0  0  0
 32 73  2  0  0  0  0
 33 34  1  0  0  0  0
 33 71  1  0  0  0  0
 34 67  1  0  0  0  0
 34 74  2  0  0  0  0
 35 49  1  0  0  0  0
 35 69  1  0  0  0  0
 35 75  2  0  0  0  0
 36 57  1  0  0  0  0
 36 63  1  0  0  0  0
 36 76  2  0  0  0  0
 37 58  1  0  0  0  0
 37 70  1  0  0  0  0
 37 77  2  0  0  0  0
 38 64  1  0  0  0  0
 38 68  1  0  0  0  0
 38 78  2  0  0  0  0
 39 42  1  0  0  0  0
 40 49  1  0  0  0  0
 41 63  1  0  0  0  0
 42 44  1  0  0  0  0
 43 45  1  0  0  0  0
 43 46  1  0  0  0  0
 44 48  1  0  0  0  0
 45 50  1  0  0  0  0
 46 64  1  0  0  0  0
 47 50  1  0  0  0  0
 47 64  1  0  0  0  0
 48 69  1  0  0  0  0
 49 63  1  0  0  0  0
 50 62  1  0  0  0  0
 52 58  1  0  0  0  0
 53 59  1  0  0  0  0
 54 59  1  0  0  0  0
 55 59  1  0  0  0  0
 56 72  1  0  0  0  0
 57 59  1  0  0  0  0
 57 70  1  0  0  0  0
 58 72  1  0  0  0  0
 60 62  1  0  0  0  0
M  CHG  2  71   1  72   1
M  ISO  4  31 101  38 100  68 100  80 101
M  END
> <Batch ID>
0163

> <Smiles>
CNC(C)C(=O)NC(C(=O)N1Cc2cc([101O:1][101CH2:1]C(=N)C(=O)Nc3sc([100NH:0][100C:0](=O)N4CCCC(n5nc(-c6ccc(Oc7ccc(F)cc7F)cc6)c(C(N)=O)c5N)C4)nc3C)ccc2CC1C(=O)NC1CCCc2ccccc21)C(C)(C)C

> <Shape>
0.293

> <Color>
0.189

> <Negative vol penalty>
0.000

$$$$

  -OEChem-04052303593D

 95103  0     1  0  0  0  0  0999 V2000
  -34.0825  -22.3333   23.8430 C   0  0  0  0  0  0  0  0  0  0  0  0
  -32.7827  -22.3824   23.3496 C   0  0  0  0  0  0  0  0  0  0  0  0
  -23.2170   -9.7945   21.1905 C   0  0  0  0  0  0  0  0  0  0  0  0
  -23.9092  -10.5817   23.3673 C   0  0  0  0  0  0  0  0  0  0  0  0
  -34.5168  -23.2926   24.7568 C   0  0  0  0  0  0  0  0  0  0  0  0
  -31.9160  -23.3903   23.7707 C   0  0  0  0  0  0  0  0  0  0  0  0
  -29.3286  -25.4542   19.9378 C   0  0  0  0  0  0  0  0  0  0  0  0
  -22.5260   -8.7420   21.7909 C   0  0  0  0  0  0  0  0  0  0  0  0
  -23.2182   -9.5292   23.9676 C   0  0  0  0  0  0  0  0  0  0  0  0
  -28.2410  -24.7354   19.4437 C   0  0  0  0  0  0  0  0  0  0  0  0
  -20.8774   -5.6403   22.7319 C   0  0  0  0  0  0  0  0  0  0  0  0
  -21.0202   -4.3686   22.1770 C   0  0  0  0  0  0  0  0  0  0  0  0
  -26.7452  -26.1333   20.7194 C   0  0  0  0  0  0  0  0  0  0  0  0
  -28.9669  -19.4118   20.4788 C   0  0  0  0  0  0  0  0  0  0  0  0
  -27.8353  -20.5196   22.3034 C   0  0  0  0  0  0  0  0  0  0  0  0
  -23.3996   -4.4569   22.5869 C   0  0  0  0  0  0  0  0  0  0  0  0
  -23.9086  -10.7143   21.9787 C   0  0  0  0  0  0  0  0  0  0  0  0
  -24.1245  -13.0823   21.0547 C   0  0  0  0  0  0  0  0  0  0  0  0
  -33.6580  -24.3184   25.1819 C   0  0  0  0  0  0  0  0  0  0  0  0
  -29.1331  -26.5128   20.8365 C   0  0  0  0  0  0  0  0  0  0  0  0
  -32.3388  -24.3635   24.6921 C   0  0  0  0  0  0  0  0  0  0  0  0
  -27.8318  -26.8656   21.2215 C   0  0  0  0  0  0  0  0  0  0  0  0
  -29.5888  -18.5536   21.3856 C   0  0  0  0  0  0  0  0  0  0  0  0
  -29.3339  -18.6783   22.7513 C   0  0  0  0  0  0  0  0  0  0  0  0
  -28.0902  -20.3949   20.9378 C   0  0  0  0  0  0  0  0  0  0  0  0
  -28.4571  -19.6613   23.2102 C   0  0  0  0  0  0  0  0  0  0  0  0
  -22.5266   -8.6094   23.1794 C   0  0  0  0  0  0  0  0  0  0  0  0
  -26.9493  -25.0730   19.8367 C   0  0  0  0  0  0  0  0  0  0  0  0
  -21.9958   -6.3204   23.2143 C   0  0  0  0  0  0  0  0  0  0  0  0
  -22.2812   -3.7769   22.1045 C   0  0  0  0  0  0  0  0  0  0  0  0
  -23.2568   -5.7287   23.1418 C   0  0  0  0  0  0  0  0  0  0  0  0
  -24.6230  -11.8015   21.3591 C   0  0  0  0  0  0  0  0  0  0  0  0
  -25.1870  -13.7369   20.4810 C   0  0  0  0  0  0  0  0  0  0  0  0
  -22.8178  -13.6313   21.2711 C   0  0  0  0  0  0  0  0  0  0  0  0
  -30.0099  -27.1011   23.8346 C   0  0  0  0  0  0  0  0  0  0  0  0
  -24.8278  -22.4203   18.4442 C   0  0  0  0  0  0  0  0  0  0  0  0
  -27.9194  -21.0325   26.6506 C   0  0  0  0  0  0  0  0  0  0  0  0
  -28.6791  -29.9996   23.2435 C   0  0  0  0  0  0  0  0  0  0  0  0
  -26.5640  -22.2913   20.2993 C   0  0  0  0  0  0  0  0  0  0  0  0
  -26.4709  -31.8563   21.4204 C   0  0  0  0  0  0  0  0  0  0  0  0
  -30.6039  -15.0764   20.3901 C   0  0  0  0  0  0  0  0  0  0  0  0
  -34.1577  -25.3053   26.2072 C   0  0  0  0  0  0  0  0  0  0  0  0
  -30.3149  -27.2955   21.3396 C   0  0  0  0  0  0  0  0  0  0  0  0
  -27.5667  -28.0067   22.1682 C   0  0  0  0  0  0  0  0  0  0  0  0
  -33.2943  -26.5594   26.3168 C   0  0  0  0  0  0  0  0  0  0  0  0
  -29.6586  -11.9901   18.8874 C   0  0  0  0  0  0  0  0  0  0  0  0
  -31.8166  -26.1863   26.3804 C   0  0  0  0  0  0  0  0  0  0  0  0
  -28.2262  -11.7688   19.3763 C   0  0  0  0  0  0  0  0  0  0  0  0
  -30.5283  -12.6375   19.9628 C   0  0  0  0  0  0  0  0  0  0  0  0
  -28.5526  -13.6645   21.0190 C   0  0  0  0  0  0  0  0  0  0  0  0
  -31.3767  -25.4558   25.1059 C   0  0  1  0  0  0  0  0  0  0  0  0
  -30.0346  -28.0249   22.6498 C   0  0  1  0  0  0  0  0  0  0  0  0
  -27.6229  -13.0650   19.9501 C   0  0  2  0  0  0  0  0  0  0  0  0
  -24.8847  -20.9974   17.9504 C   0  0  0  0  0  0  0  0  0  0  0  0
  -31.1610  -18.4281   24.4499 C   0  0  0  0  0  0  0  0  0  0  0  0
  -25.5770  -34.1900   21.1922 C   0  0  0  0  0  0  0  0  0  0  0  0
  -25.8979  -22.3586   27.2986 C   0  0  0  0  0  0  0  0  0  0  0  0
  -28.0652  -23.5350   26.8797 C   0  0  0  0  0  0  0  0  0  0  0  0
  -27.8015  -22.1400   28.9293 C   0  0  0  0  0  0  0  0  0  0  0  0
  -26.9845  -29.5928   25.7481 C   0  0  0  0  0  0  0  0  0  0  0  0
  -25.4913  -31.4385   24.9530 C   0  0  0  0  0  0  0  0  0  0  0  0
  -27.8874  -31.9077   25.4641 C   0  0  0  0  0  0  0  0  0  0  0  0
  -27.4439  -32.0809   18.6344 C   0  0  0  0  0  0  0  0  0  0  0  0
  -30.0031  -17.7556   23.7211 C   0  0  0  0  0  0  0  0  0  0  0  0
  -30.5243  -17.5104   20.8682 C   0  0  0  0  0  0  0  0  0  0  0  0
  -27.6537  -21.0032   25.1543 C   0  0  0  0  0  0  0  0  0  0  0  0
  -26.1049  -23.0000   19.0332 C   0  0  2  0  0  0  0  0  0  1  0  0
  -27.2977  -30.5912   23.3877 C   0  0  1  0  0  0  0  0  0  0  0  0
  -26.6200  -33.1918   20.7143 C   0  0  2  0  0  0  0  0  0  0  0  0
  -27.4211  -22.2578   27.4476 C   0  0  0  0  0  0  0  0  0  0  0  0
  -26.9200  -30.8598   24.8719 C   0  0  0  0  0  0  0  0  0  0  0  0
  -25.9027  -11.6493   21.0078 N   0  0  0  0  0  0  0  0  0  0  0  0
  -26.2171  -12.8430   20.4766 N   0  0  0  0  0  0  0  0  0  0  0  0
  -28.7555  -28.7376   22.6375 N   0  0  0  0  0  0  0  0  0  0  0  0
  -29.9007  -13.8626   20.4639 N   0  0  0  0  0  0  0  0  0  0  0  0
  -25.3312  -14.9841   19.9849 N   0  0  0  0  0  0  0  0  0  0  0  0
  -21.8443  -12.8220   21.8725 N   0  0  0  0  0  0  0  0  0  0  0  0
  -27.4580  -21.2648   20.0175 N   0  0  0  0  0  0  0  0  0  0  0  0
  -28.1860  -19.8034   24.5891 N   0  0  0  0  0  0  0  0  0  0  0  0
  -31.1843  -26.3980   24.0243 N   0  0  0  0  0  0  0  0  0  0  0  0
  -27.2715  -31.7785   22.5403 N   0  0  0  0  0  0  0  0  0  0  0  0
  -29.9341  -16.1904   20.8811 N   0  0  0  0  0  0  0  0  0  0  0  0
  -26.4657  -33.0194   19.2420 N   0  3  0  0  0  0  0  0  0  0  0  0
  -22.5175  -14.7993   20.9261 O   0  0  0  0  0  0  0  0  0  0  0  0
  -29.0007  -27.0324   24.5263 O   0  0  0  0  0  0  0  0  0  0  0  0
  -23.7875  -23.0740   18.3637 O   0  0  0  0  0  0  0  0  0  0  0  0
  -28.5318  -20.1169   27.2060 O   0  0  0  0  0  0  0  0  0  0  0  0
  -29.6551  -30.6370   23.6470 O   0  0  0  0  0  0  0  0  0  0  0  0
  -26.1503  -22.6388   21.4020 O   0  0  0  0  0  0  0  0  0  0  0  0
  -25.7166  -30.9720   21.0207 O   0  0  0  0  0  0  0  0  0  0  0  0
  -31.7420  -15.1619   19.9164 O   0  0  0  0  0  0  0  0  0  0  0  0
  -21.8523   -7.5826   23.7656 O   0  0  0  0  0  0  0  0  0  0  0  0
  -25.8860  -24.3726   19.3564 O   0  0  0  0  0  0  0  0  0  1  0  0
  -22.4180   -2.5550   21.5730 F   0  0  0  0  0  0  0  0  0  0  0  0
  -24.3347   -6.3766   23.6045 F   0  0  0  0  0  0  0  0  0  0  0  0
  1  2  1  0  0  0  0
  1  5  2  0  0  0  0
  2  6  2  0  0  0  0
  3  8  2  0  0  0  0
  3 17  1  0  0  0  0
  4  9  1  0  0  0  0
  4 17  2  0  0  0  0
  5 19  1  0  0  0  0
  6 21  1  0  0  0  0
  7 10  2  0  0  0  0
  7 20  1  0  0  0  0
  8 27  1  0  0  0  0
  9 27  2  0  0  0  0
 10 28  1  0  0  0  0
 11 12  2  0  0  0  0
 11 29  1  0  0  0  0
 12 30  1  0  0  0  0
 13 22  1  0  0  0  0
 13 28  2  0  0  0  0
 14 23  2  0  0  0  0
 14 25  1  0  0  0  0
 15 25  2  0  0  0  0
 15 26  1  0  0  0  0
 16 30  2  0  0  0  0
 16 31  1  0  0  0  0
 17 32  1  0  0  0  0
 18 32  1  0  0  0  0
 18 33  2  0  0  0  0
 18 34  1  0  0  0  0
 19 21  2  0  0  0  0
 19 42  1  0  0  0  0
 20 22  2  0  0  0  0
 20 43  1  0  0  0  0
 21 51  1  0  0  0  0
 22 44  1  0  0  0  0
 23 24  1  0  0  0  0
 23 65  1  0  0  0  0
 24 26  2  0  0  0  0
 24 64  1  0  0  0  0
 25 78  1  0  0  0  0
 26 79  1  0  0  0  0
 27 92  1  0  0  0  0
 28 93  1  0  0  0  0
 29 31  2  0  0  0  0
 29 92  1  0  0  0  0
 30 94  1  0  0  0  0
 31 95  1  0  0  0  0
 32 72  2  0  0  0  0
 33 73  1  0  0  0  0
 33 76  1  0  0  0  0
 34 77  1  0  0  0  0
 34 84  2  0  0  0  0
 35 52  1  0  0  0  0
 35 80  1  0  0  0  0
 35 85  2  0  0  0  0
 36 54  1  0  0  0  0
 36 67  1  0  0  0  0
 36 86  2  0  0  0  0
 37 66  1  0  0  0  0
 37 70  1  0  0  0  0
 37 87  2  0  0  0  0
 38 68  1  0  0  0  0
 38 74  1  0  0  0  0
 38 88  2  0  0  0  0
 39 67  1  0  0  0  0
 39 78  1  0  0  0  0
 39 89  2  0  0  0  0
 40 69  1  0  0  0  0
 40 81  1  0  0  0  0
 40 90  2  0  0  0  0
 41 75  1  0  0  0  0
 41 82  1  0  0  0  0
 41 91  2  0  0  0  0
 42 45  1  0  0  0  0
 43 52  1  0  0  0  0
 44 74  1  0  0  0  0
 45 47  1  0  0  0  0
 46 48  1  0  0  0  0
 46 49  1  0  0  0  0
 47 51  1  0  0  0  0
 48 53  1  0  0  0  0
 49 75  1  0  0  0  0
 50 53  1  0  0  0  0
 50 75  1  0  0  0  0
 51 80  1  0  0  0  0
 52 74  1  0  0  0  0
 53 73  1  0  0  0  0
 55 64  1  0  0  0  0
 56 69  1  0  0  0  0
 57 70  1  0  0  0  0
 58 70  1  0  0  0  0
 59 70  1  0  0  0  0
 60 71  1  0  0  0  0
 61 71  1  0  0  0  0
 62 71  1  0  0  0  0
 63 83  1  0  0  0  0
 65 82  1  0  0  0  0
 66 79  1  0  0  0  0
 67 93  1  0  0  0  0
 68 71  1  0  0  0  0
 68 81  1  0  0  0  0
 69 83  1  0  0  0  0
 72 73  1  0  0  0  0
M  CHG  1  83   1
M  ISO  4  41 100  67 101  82 100  93 101
M  END
> <Batch ID>
0163

> <Smiles>
CCc1c(C[100NH:0][100C:0](=O)N2CCCC(n3nc(-c4ccc(Oc5ccc(F)cc5F)cc4)c(C(N)=O)c3N)C2)cc(NC(=O)[101CH:1](C(C)=O)[101O:1]c2ccc3c(c2)CN(C(=O)C(NC(=O)C(C)NC)C(C)(C)C)C(C(=O)NC2CCCc4ccccc42)C3)cc1NCC(=O)C(C)(C)C

> <Shape>
0.267

> <Color>
0.148

> <Negative vol penalty>
0.000

$$$$

  -OEChem-04052303593D

 85 94  0     1  0  0  0  0  0999 V2000
  -29.5227  -36.4436   19.7687 C   0  0  0  0  0  0  0  0  0  0  0  0
  -29.6138  -35.0792   20.0245 C   0  0  0  0  0  0  0  0  0  0  0  0
  -23.2680   -9.1651   21.1271 C   0  0  0  0  0  0  0  0  0  0  0  0
  -25.4253   -9.3676   22.1958 C   0  0  0  0  0  0  0  0  0  0  0  0
  -28.4969  -37.1925   20.3437 C   0  0  0  0  0  0  0  0  0  0  0  0
  -28.6798  -34.4631   20.8566 C   0  0  0  0  0  0  0  0  0  0  0  0
  -26.9988  -30.0726   18.9742 C   0  0  0  0  0  0  0  0  0  0  0  0
  -23.2376   -7.8075   21.4458 C   0  0  0  0  0  0  0  0  0  0  0  0
  -25.3949   -8.0100   22.5146 C   0  0  0  0  0  0  0  0  0  0  0  0
  -27.8338  -28.9635   19.1024 C   0  0  0  0  0  0  0  0  0  0  0  0
  -22.5751   -5.8997   24.1577 C   0  0  0  0  0  0  0  0  0  0  0  0
  -21.3891   -5.3826   24.6789 C   0  0  0  0  0  0  0  0  0  0  0  0
  -26.5436  -28.2191   20.9999 C   0  0  0  0  0  0  0  0  0  0  0  0
  -21.2402   -3.8488   22.8181 C   0  0  0  0  0  0  0  0  0  0  0  0
  -24.3619   -9.9452   21.5021 C   0  0  0  0  0  0  0  0  0  0  0  0
  -23.4752  -12.3360   21.5726 C   0  0  0  0  0  0  0  0  0  0  0  0
  -27.5441  -36.5835   21.1755 C   0  0  0  0  0  0  0  0  0  0  0  0
  -25.9347  -30.2693   19.8661 C   0  0  0  0  0  0  0  0  0  0  0  0
  -27.6410  -35.2048   21.4444 C   0  0  0  0  0  0  0  0  0  0  0  0
  -25.6950  -29.3301   20.8793 C   0  0  0  0  0  0  0  0  0  0  0  0
  -24.3010   -7.2299   22.1396 C   0  0  0  0  0  0  0  0  0  0  0  0
  -27.6080  -28.0381   20.1171 C   0  0  0  0  0  0  0  0  0  0  0  0
  -23.0936   -5.3914   22.9667 C   0  0  0  0  0  0  0  0  0  0  0  0
  -20.7217   -4.3571   24.0091 C   0  0  0  0  0  0  0  0  0  0  0  0
  -22.4262   -4.3659   22.2969 C   0  0  0  0  0  0  0  0  0  0  0  0
  -24.3942  -11.3475   21.1727 C   0  0  0  0  0  0  0  0  0  0  0  0
  -27.7290  -21.0167   21.4069 C   0  0  0  0  0  0  0  0  0  0  0  0
  -23.9462  -13.4935   21.0026 C   0  0  0  0  0  0  0  0  0  0  0  0
  -26.8616  -20.8557   22.4669 C   0  0  0  0  0  0  0  0  0  0  0  0
  -27.3856  -18.8581   21.2270 C   0  0  0  0  0  0  0  0  0  0  0  0
  -22.3007  -12.2186   22.3866 C   0  0  0  0  0  0  0  0  0  0  0  0
  -25.1674  -32.5133   21.9826 C   0  0  0  0  0  0  0  0  0  0  0  0
  -22.4298  -30.7913   22.2327 C   0  0  0  0  0  0  0  0  0  0  0  0
  -21.5159  -27.3037   22.3710 C   0  0  0  0  0  0  0  0  0  0  0  0
  -28.1221  -16.9563   19.7481 C   0  0  0  0  0  0  0  0  0  0  0  0
  -26.4810  -37.4431   21.8123 C   0  0  0  0  0  0  0  0  0  0  0  0
  -25.0269  -31.4568   19.6979 C   0  0  0  0  0  0  0  0  0  0  0  0
  -24.5538  -29.4847   21.8500 C   0  0  0  0  0  0  0  0  0  0  0  0
  -25.3119  -36.6438   22.3821 C   0  0  0  0  0  0  0  0  0  0  0  0
  -30.7510  -23.2647   20.4192 C   0  0  0  0  0  0  0  0  0  0  0  0
  -27.5611  -14.2238   17.5355 C   0  0  0  0  0  0  0  0  0  0  0  0
  -25.8218  -35.4593   23.1969 C   0  0  0  0  0  0  0  0  0  0  0  0
  -29.8973  -22.2332   21.1518 C   0  0  0  0  0  0  0  0  0  0  0  0
  -27.9402  -22.7160   19.5354 C   0  0  0  0  0  0  0  0  0  0  0  0
  -30.1904  -24.6837   20.3997 C   0  0  0  0  0  0  0  0  0  0  0  0
  -27.8888  -24.2320   19.3257 C   0  0  0  0  0  0  0  0  0  0  0  0
  -26.6115  -13.3132   18.3174 C   0  0  0  0  0  0  0  0  0  0  0  0
  -28.5885  -14.8900   18.4489 C   0  0  0  0  0  0  0  0  0  0  0  0
  -27.0745  -14.6945   20.3825 C   0  0  0  0  0  0  0  0  0  0  0  0
  -26.6323  -34.4957   22.3217 C   0  0  1  0  0  0  0  0  0  0  0  0
  -28.3734  -22.3243   20.9602 C   0  0  1  0  0  0  0  0  0  0  0  0
  -24.2849  -31.8277   20.9782 C   0  0  1  0  0  0  0  0  0  0  0  0
  -29.2469  -24.9376   19.2132 C   0  0  1  0  0  0  0  0  0  0  0  0
  -25.9807  -14.0516   19.5142 C   0  0  2  0  0  0  0  0  0  0  0  0
  -19.3929  -26.1456   21.7009 C   0  0  0  0  0  0  0  0  0  0  0  0
  -21.6568  -31.1373   25.1641 C   0  0  0  0  0  0  0  0  0  0  0  0
  -20.6041  -28.8672   25.0822 C   0  0  0  0  0  0  0  0  0  0  0  0
  -19.7365  -30.6958   23.6240 C   0  0  0  0  0  0  0  0  0  0  0  0
  -22.9589  -25.4489   20.5721 C   0  0  0  0  0  0  0  0  0  0  0  0
  -29.0172  -26.4456   19.0523 C   0  0  0  0  0  0  0  0  0  1  0  0
  -21.9680  -29.6355   23.0871 C   0  0  1  0  0  0  0  0  0  0  0  0
  -20.8119  -26.5051   21.2888 C   0  0  2  0  0  0  0  0  0  0  0  0
  -21.0188  -30.0875   24.2326 C   0  0  0  0  0  0  0  0  0  0  0  0
  -25.3748  -11.8344   20.4076 N   0  0  0  0  0  0  0  0  0  0  0  0
  -28.0310  -19.8722   20.6950 N   0  0  0  0  0  0  0  0  0  0  0  0
  -25.0746  -13.1415   20.3221 N   0  0  0  0  0  0  0  0  0  0  0  0
  -23.6980  -30.6655   21.6483 N   0  0  0  0  0  0  0  0  0  0  0  0
  -27.9179  -15.5733   19.5572 N   0  0  0  0  0  0  0  0  0  0  0  0
  -23.5010  -14.7678   21.0220 N   0  0  0  0  0  0  0  0  0  0  0  0
  -26.4031  -21.8010   23.3230 N   0  0  0  0  0  0  0  0  0  0  0  0
  -22.4290  -12.3847   23.7724 N   0  0  0  0  0  0  0  0  0  0  0  0
  -27.4072  -17.5030   20.8133 N   0  0  0  0  0  0  0  0  0  0  0  0
  -25.7488  -33.6778   21.5186 N   0  0  0  0  0  0  0  0  0  0  0  0
  -21.3805  -28.6616   22.1734 N   0  0  0  0  0  0  0  0  0  0  0  0
  -21.5544  -25.2433   21.0104 N   0  3  0  0  0  0  0  0  0  0  0  0
  -21.1739  -11.9573   21.9013 O   0  0  0  0  0  0  0  0  0  0  0  0
  -25.3091  -32.0228   23.0967 O   0  0  0  0  0  0  0  0  0  0  0  0
  -21.6894  -31.7666   22.0834 O   0  0  0  0  0  0  0  0  0  0  0  0
  -22.1218  -26.7758   23.3009 O   0  0  0  0  0  0  0  0  0  0  0  0
  -28.8546  -17.6130   19.0036 O   0  0  0  0  0  0  0  0  0  0  0  0
  -24.2716   -5.9053   22.4509 O   0  0  0  0  0  0  0  0  0  0  0  0
  -28.4219  -26.9550   20.2449 O   0  0  0  0  0  0  0  0  0  1  0  0
  -19.5836   -3.8596   24.5106 F   0  0  0  0  0  0  0  0  0  0  0  0
  -22.9200   -3.8727   21.1529 F   0  0  0  0  0  0  0  0  0  0  0  0
  -26.3972  -19.2090   22.5853 S   0  0  0  0  0  0  0  0  0  0  0  0
  1  2  1  0  0  0  0
  1  5  2  0  0  0  0
  2  6  2  0  0  0  0
  3  8  2  0  0  0  0
  3 15  1  0  0  0  0
  4  9  1  0  0  0  0
  4 15  2  0  0  0  0
  5 17  1  0  0  0  0
  6 19  1  0  0  0  0
  7 10  2  0  0  0  0
  7 18  1  0  0  0  0
  8 21  1  0  0  0  0
  9 21  2  0  0  0  0
 10 22  1  0  0  0  0
 11 12  2  0  0  0  0
 11 23  1  0  0  0  0
 12 24  1  0  0  0  0
 13 20  1  0  0  0  0
 13 22  2  0  0  0  0
 14 24  2  0  0  0  0
 14 25  1  0  0  0  0
 15 26  1  0  0  0  0
 16 26  1  0  0  0  0
 16 28  2  0  0  0  0
 16 31  1  0  0  0  0
 17 19  2  0  0  0  0
 17 36  1  0  0  0  0
 18 20  2  0  0  0  0
 18 37  1  0  0  0  0
 19 50  1  0  0  0  0
 20 38  1  0  0  0  0
 21 81  1  0  0  0  0
 22 82  1  0  0  0  0
 23 25  2  0  0  0  0
 23 81  1  0  0  0  0
 24 83  1  0  0  0  0
 25 84  1  0  0  0  0
 26 64  2  0  0  0  0
 27 29  2  0  0  0  0
 27 51  1  0  0  0  0
 27 65  1  0  0  0  0
 28 66  1  0  0  0  0
 28 69  1  0  0  0  0
 29 70  1  0  0  0  0
 29 85  1  0  0  0  0
 30 65  2  0  0  0  0
 30 72  1  0  0  0  0
 30 85  1  0  0  0  0
 31 71  1  0  0  0  0
 31 76  2  0  0  0  0
 32 52  1  0  0  0  0
 32 73  1  0  0  0  0
 32 77  2  0  0  0  0
 33 61  1  0  0  0  0
 33 67  1  0  0  0  0
 33 78  2  0  0  0  0
 34 62  1  0  0  0  0
 34 74  1  0  0  0  0
 34 79  2  0  0  0  0
 35 68  1  0  0  0  0
 35 72  1  0  0  0  0
 35 80  2  0  0  0  0
 36 39  1  0  0  0  0
 37 52  1  0  0  0  0
 38 67  1  0  0  0  0
 39 42  1  0  0  0  0
 40 43  1  0  0  0  0
 40 45  1  0  0  0  0
 41 47  1  0  0  0  0
 41 48  1  0  0  0  0
 42 50  1  0  0  0  0
 43 51  1  0  0  0  0
 44 46  1  0  0  0  0
 44 51  1  0  0  0  0
 45 53  1  0  0  0  0
 46 53  1  0  0  0  0
 47 54  1  0  0  0  0
 48 68  1  0  0  0  0
 49 54  1  0  0  0  0
 49 68  1  0  0  0  0
 50 73  1  0  0  0  0
 52 67  1  0  0  0  0
 53 60  1  0  0  0  0
 54 66  1  0  0  0  0
 55 62  1  0  0  0  0
 56 63  1  0  0  0  0
 57 63  1  0  0  0  0
 58 63  1  0  0  0  0
 59 75  1  0  0  0  0
 60 82  1  0  0  0  0
 61 63  1  0  0  0  0
 61 74  1  0  0  0  0
 62 75  1  0  0  0  0
 64 66  1  0  0  0  0
M  CHG  1  75   1
M  ISO  4  35 100  60 101  72 100  82 101
M  END
> <Batch ID>
0163

> <Smiles>
CNC(C)C(=O)NC(C(=O)N1Cc2cc([101O:1][101CH2:1]C3CCCC(c4nc([100NH:0][100C:0](=O)N5CCCC(n6nc(-c7ccc(Oc8ccc(F)cc8F)cc7)c(C(N)=O)c6N)C5)sc4N)CC3)ccc2CC1C(=O)NC1CCCc2ccccc21)C(C)(C)C

> <Shape>
0.322

> <Color>
0.098

> <Negative vol penalty>
0.000

$$$$

  -OEChem-04052303593D

 90 99  0     1  0  0  0  0  0999 V2000
  -27.8409  -38.5430   24.6527 C   0  0  0  0  0  0  0  0  0  0  0  0
  -28.5356  -37.3522   24.8395 C   0  0  0  0  0  0  0  0  0  0  0  0
  -22.7126  -12.6990   20.6182 C   0  0  0  0  0  0  0  0  0  0  0  0
  -22.4598  -14.9373   19.7446 C   0  0  0  0  0  0  0  0  0  0  0  0
  -26.4502  -38.5601   24.7505 C   0  0  0  0  0  0  0  0  0  0  0  0
  -27.8399  -36.1780   25.1253 C   0  0  0  0  0  0  0  0  0  0  0  0
  -28.3872  -30.4088   20.8466 C   0  0  0  0  0  0  0  0  0  0  0  0
  -21.3431  -12.6456   20.8778 C   0  0  0  0  0  0  0  0  0  0  0  0
  -21.0904  -14.8839   20.0041 C   0  0  0  0  0  0  0  0  0  0  0  0
  -28.6041  -29.1950   20.1940 C   0  0  0  0  0  0  0  0  0  0  0  0
  -19.2068  -13.8034   23.2272 C   0  0  0  0  0  0  0  0  0  0  0  0
  -18.8012  -13.2974   24.4621 C   0  0  0  0  0  0  0  0  0  0  0  0
  -26.9816  -28.1208   21.6299 C   0  0  0  0  0  0  0  0  0  0  0  0
  -29.1172  -22.4325   16.6727 C   0  0  0  0  0  0  0  0  0  0  0  0
  -27.8085  -20.4863   17.2229 C   0  0  0  0  0  0  0  0  0  0  0  0
  -17.5652  -11.5507   23.3404 C   0  0  0  0  0  0  0  0  0  0  0  0
  -23.2710  -13.8448   20.0517 C   0  0  0  0  0  0  0  0  0  0  0  0
  -25.4255  -13.0500   18.9409 C   0  0  0  0  0  0  0  0  0  0  0  0
  -25.7365  -37.3836   25.0280 C   0  0  0  0  0  0  0  0  0  0  0  0
  -27.4543  -30.4867   21.8844 C   0  0  0  0  0  0  0  0  0  0  0  0
  -26.4384  -36.1797   25.2282 C   0  0  0  0  0  0  0  0  0  0  0  0
  -26.7510  -29.3367   22.2790 C   0  0  0  0  0  0  0  0  0  0  0  0
  -28.0683  -21.5651   16.3832 C   0  0  0  0  0  0  0  0  0  0  0  0
  -20.5320  -13.7381   20.5707 C   0  0  0  0  0  0  0  0  0  0  0  0
  -27.9032  -28.0538   20.5849 C   0  0  0  0  0  0  0  0  0  0  0  0
  -18.7915  -13.1832   22.0488 C   0  0  0  0  0  0  0  0  0  0  0  0
  -17.9804  -12.1710   24.5187 C   0  0  0  0  0  0  0  0  0  0  0  0
  -17.9707  -12.0568   22.1054 C   0  0  0  0  0  0  0  0  0  0  0  0
  -24.6856  -13.9008   19.7838 C   0  0  0  0  0  0  0  0  0  0  0  0
  -29.8863  -22.1972   17.8035 C   0  0  0  0  0  0  0  0  0  0  0  0
  -26.7145  -13.5162   19.0284 C   0  0  0  0  0  0  0  0  0  0  0  0
  -28.6107  -20.3002   18.3398 C   0  0  0  0  0  0  0  0  0  0  0  0
  -29.0933  -26.0464   20.4206 C   0  0  0  0  0  0  0  0  0  1  0  0
  -24.9869  -11.9377   18.1496 C   0  0  0  0  0  0  0  0  0  0  0  0
  -29.3902  -24.8666   19.8710 C   0  0  0  0  0  0  0  0  0  0  0  0
  -30.4689  -24.0667   20.4868 C   0  0  0  0  0  0  0  0  0  0  0  0
  -25.7415  -32.6385   24.4362 C   0  0  0  0  0  0  0  0  0  0  0  0
  -23.6078  -30.7669   23.2722 C   0  0  0  0  0  0  0  0  0  0  0  0
  -21.4834  -28.8261   21.4399 C   0  0  0  0  0  0  0  0  0  0  0  0
  -29.0426  -18.8562   20.3584 C   0  0  0  0  0  0  0  0  0  0  0  0
  -24.2370  -37.4608   25.1707 C   0  0  0  0  0  0  0  0  0  0  0  0
  -27.2331  -31.7592   22.6562 C   0  0  0  0  0  0  0  0  0  0  0  0
  -25.7825  -29.4599   23.4234 C   0  0  0  0  0  0  0  0  0  0  0  0
  -23.5482  -36.1001   25.1062 C   0  0  0  0  0  0  0  0  0  0  0  0
  -34.3473  -23.0437   18.9175 C   0  0  0  0  0  0  0  0  0  0  0  0
  -33.5466  -23.5350   17.7149 C   0  0  0  0  0  0  0  0  0  0  0  0
  -33.6304  -23.1635   20.2577 C   0  0  0  0  0  0  0  0  0  0  0  0
  -29.6831  -15.7781   22.0293 C   0  0  0  0  0  0  0  0  0  0  0  0
  -24.2749  -35.0914   25.9901 C   0  0  0  0  0  0  0  0  0  0  0  0
  -32.3166  -22.6774   17.4116 C   0  0  0  0  0  0  0  0  0  0  0  0
  -28.5450  -14.8681   21.5616 C   0  0  0  0  0  0  0  0  0  0  0  0
  -32.2898  -22.4377   20.3060 C   0  0  0  0  0  0  0  0  0  0  0  0
  -29.2146  -17.2195   22.2203 C   0  0  0  0  0  0  0  0  0  0  0  0
  -27.3915  -16.8983   20.5948 C   0  0  0  0  0  0  0  0  0  0  0  0
  -25.7176  -34.8804   25.5152 C   0  0  1  0  0  0  0  0  0  0  0  0
  -31.0536  -23.0995   18.1921 C   0  0  2  0  0  0  0  0  0  0  0  0
  -25.7728  -31.9465   23.1052 C   0  0  1  0  0  0  0  0  0  0  0  0
  -27.8300  -15.4494   20.3261 C   0  0  2  0  0  0  0  0  0  0  0  0
  -19.0592  -28.2108   21.2351 C   0  0  0  0  0  0  0  0  0  0  0  0
  -23.8551  -28.9871   25.7370 C   0  0  0  0  0  0  0  0  0  0  0  0
  -21.8382  -27.7323   24.9458 C   0  0  0  0  0  0  0  0  0  0  0  0
  -21.6555  -30.1553   25.5098 C   0  0  0  0  0  0  0  0  0  0  0  0
  -21.3307  -29.8758   18.6770 C   0  0  0  0  0  0  0  0  0  0  0  0
  -22.8643  -29.4615   23.4004 C   0  0  1  0  0  0  0  0  0  0  0  0
  -20.1635  -29.1420   20.7597 C   0  0  2  0  0  0  0  0  0  0  0  0
  -22.5762  -29.0865   24.8816 C   0  0  0  0  0  0  0  0  0  0  0  0
  -25.4417  -14.8365   20.3642 N   0  0  0  0  0  0  0  0  0  0  0  0
  -26.6701  -14.5764   19.8852 N   0  0  0  0  0  0  0  0  0  0  0  0
  -29.6143  -21.1507   18.5950 N   0  3  0  0  0  0  0  0  0  0  0  0
  -31.2239  -23.2180   19.6632 N   0  0  0  0  0  0  0  0  0  0  0  0
  -25.0063  -30.7030   23.2930 N   0  0  0  0  0  0  0  0  0  0  0  0
  -28.5507  -17.7045   21.0084 N   0  0  0  0  0  0  0  0  0  0  0  0
  -27.2699  -21.7792   15.2408 N   0  0  0  0  0  0  0  0  0  0  0  0
  -27.8702  -13.1185   18.4552 N   0  0  0  0  0  0  0  0  0  0  0  0
  -24.5729  -12.1770   16.8322 N   0  0  0  0  0  0  0  0  0  0  0  0
  -28.3509  -19.2033   19.1983 N   0  0  0  0  0  0  0  0  0  0  0  0
  -25.7462  -34.0178   24.3535 N   0  0  0  0  0  0  0  0  0  0  0  0
  -21.6695  -29.5892   22.5732 N   0  0  0  0  0  0  0  0  0  0  0  0
  -20.2950  -28.9994   19.2821 N   0  3  0  0  0  0  0  0  0  0  0  0
  -24.9472  -10.7687   18.6029 O   0  0  0  0  0  0  0  0  0  0  0  0
  -30.6428  -24.1961   21.7008 O   0  0  0  0  0  0  0  0  0  0  0  0
  -25.7134  -31.9711   25.4636 O   0  0  0  0  0  0  0  0  0  0  0  0
  -22.9684  -31.8168   23.1622 O   0  0  0  0  0  0  0  0  0  0  0  0
  -22.2689  -27.9838   21.0110 O   0  0  0  0  0  0  0  0  0  0  0  0
  -30.0232  -19.4724   20.7835 O   0  0  0  0  0  0  0  0  0  0  0  0
  -28.7336  -24.3780   18.7665 O   0  0  0  0  0  0  0  0  0  0  0  0
  -19.1956  -13.6863   20.8236 O   0  0  0  0  0  0  0  0  0  0  0  0
  -28.1165  -26.8731   19.9406 O   0  0  0  0  0  0  0  0  0  1  0  0
  -17.5923  -11.6842   25.7047 F   0  0  0  0  0  0  0  0  0  0  0  0
  -17.5695  -11.4558   20.9768 F   0  0  0  0  0  0  0  0  0  0  0  0
  1  2  1  0  0  0  0
  1  5  2  0  0  0  0
  2  6  2  0  0  0  0
  3  8  2  0  0  0  0
  3 17  1  0  0  0  0
  4  9  1  0  0  0  0
  4 17  2  0  0  0  0
  5 19  1  0  0  0  0
  6 21  1  0  0  0  0
  7 10  2  0  0  0  0
  7 20  1  0  0  0  0
  8 24  1  0  0  0  0
  9 24  2  0  0  0  0
 10 25  1  0  0  0  0
 11 12  2  0  0  0  0
 11 26  1  0  0  0  0
 12 27  1  0  0  0  0
 13 22  1  0  0  0  0
 13 25  2  0  0  0  0
 14 23  2  0  0  0  0
 14 30  1  0  0  0  0
 15 23  1  0  0  0  0
 15 32  2  0  0  0  0
 16 27  2  0  0  0  0
 16 28  1  0  0  0  0
 17 29  1  0  0  0  0
 18 29  1  0  0  0  0
 18 31  2  0  0  0  0
 18 34  1  0  0  0  0
 19 21  2  0  0  0  0
 19 41  1  0  0  0  0
 20 22  2  0  0  0  0
 20 42  1  0  0  0  0
 21 55  1  0  0  0  0
 22 43  1  0  0  0  0
 23 73  1  0  0  0  0
 24 87  1  0  0  0  0
 25 88  1  0  0  0  0
 26 28  2  0  0  0  0
 26 87  1  0  0  0  0
 27 89  1  0  0  0  0
 28 90  1  0  0  0  0
 29 67  2  0  0  0  0
 30 56  1  0  0  0  0
 30 69  2  0  0  0  0
 31 68  1  0  0  0  0
 31 74  1  0  0  0  0
 32 69  1  0  0  0  0
 32 76  1  0  0  0  0
 33 35  2  0  0  0  0
 33 88  1  0  0  0  0
 34 75  1  0  0  0  0
 34 80  2  0  0  0  0
 35 36  1  0  0  0  0
 35 86  1  0  0  0  0
 36 70  1  0  0  0  0
 36 81  2  0  0  0  0
 37 57  1  0  0  0  0
 37 77  1  0  0  0  0
 37 82  2  0  0  0  0
 38 64  1  0  0  0  0
 38 71  1  0  0  0  0
 38 83  2  0  0  0  0
 39 65  1  0  0  0  0
 39 78  1  0  0  0  0
 39 84  2  0  0  0  0
 40 72  1  0  0  0  0
 40 76  1  0  0  0  0
 40 85  2  0  0  0  0
 41 44  1  0  0  0  0
 42 57  1  0  0  0  0
 43 71  1  0  0  0  0
 44 49  1  0  0  0  0
 45 46  1  0  0  0  0
 45 47  1  0  0  0  0
 46 50  1  0  0  0  0
 47 52  1  0  0  0  0
 48 51  1  0  0  0  0
 48 53  1  0  0  0  0
 49 55  1  0  0  0  0
 50 56  1  0  0  0  0
 51 58  1  0  0  0  0
 52 70  1  0  0  0  0
 53 72  1  0  0  0  0
 54 58  1  0  0  0  0
 54 72  1  0  0  0  0
 55 77  1  0  0  0  0
 56 70  1  0  0  0  0
 57 71  1  0  0  0  0
 58 68  1  0  0  0  0
 59 65  1  0  0  0  0
 60 66  1  0  0  0  0
 61 66  1  0  0  0  0
 62 66  1  0  0  0  0
 63 79  1  0  0  0  0
 64 66  1  0  0  0  0
 64 78  1  0  0  0  0
 65 79  1  0  0  0  0
 67 68  1  0  0  0  0
M  CHG  2  69   1  79   1
M  ISO  4  33 101  40 100  76 100  88 101
M  END
> <Batch ID>
0163

> <Smiles>
CNC(C)C(=O)NC(C(=O)N1Cc2cc([101O:1][101CH2:1]C(=O)C(=O)N3CCCCCC3c3cc(N)cc([100NH:0][100C:0](=O)N4CCCC(n5nc(-c6ccc(Oc7ccc(F)cc7F)cc6)c(C(N)=O)c5N)C4)n3)ccc2CC1C(=O)NC1CCCc2ccccc21)C(C)(C)C

> <Shape>
0.270

> <Color>
0.076

> <Negative vol penalty>
0.000

$$$$

  -OEChem-04052303593D

 83 91  0     1  0  0  0  0  0999 V2000
  -26.1694  -37.8528   23.5245 C   0  0  0  0  0  0  0  0  0  0  0  0
  -26.8817  -37.0230   22.6646 C   0  0  0  0  0  0  0  0  0  0  0  0
  -27.4410   -6.9655   18.4462 C   0  0  0  0  0  0  0  0  0  0  0  0
  -26.6805   -8.1056   16.4565 C   0  0  0  0  0  0  0  0  0  0  0  0
  -25.4327  -37.3016   24.5721 C   0  0  0  0  0  0  0  0  0  0  0  0
  -26.8586  -35.6415   22.8524 C   0  0  0  0  0  0  0  0  0  0  0  0
  -27.0742  -29.5020   19.1678 C   0  0  0  0  0  0  0  0  0  0  0  0
  -27.1715   -5.7362   17.8449 C   0  0  0  0  0  0  0  0  0  0  0  0
  -26.4110   -6.8762   15.8551 C   0  0  0  0  0  0  0  0  0  0  0  0
  -27.7702  -28.2947   19.1263 C   0  0  0  0  0  0  0  0  0  0  0  0
  -26.3454   -2.3055   16.9661 C   0  0  0  0  0  0  0  0  0  0  0  0
  -25.6845   -1.3409   17.7265 C   0  0  0  0  0  0  0  0  0  0  0  0
  -26.3989  -27.4493   20.9218 C   0  0  0  0  0  0  0  0  0  0  0  0
  -27.6665  -17.6702   18.6719 C   0  0  0  0  0  0  0  0  0  0  0  0
  -23.8055   -2.8365   17.9906 C   0  0  0  0  0  0  0  0  0  0  0  0
  -26.4371  -19.6370   20.1556 C   0  0  0  0  0  0  0  0  0  0  0  0
  -27.1955   -8.1502   17.7521 C   0  0  0  0  0  0  0  0  0  0  0  0
  -28.6799  -10.1439   18.3260 C   0  0  0  0  0  0  0  0  0  0  0  0
  -25.3928  -35.9120   24.7670 C   0  0  0  0  0  0  0  0  0  0  0  0
  -26.0408  -29.6962   20.0956 C   0  0  0  0  0  0  0  0  0  0  0  0
  -26.1218  -35.0713   23.9044 C   0  0  0  0  0  0  0  0  0  0  0  0
  -25.6896  -28.6590   20.9714 C   0  0  0  0  0  0  0  0  0  0  0  0
  -28.0931  -18.9898   18.5554 C   0  0  0  0  0  0  0  0  0  0  0  0
  -27.4747  -19.9871   19.3033 C   0  0  0  0  0  0  0  0  0  0  0  0
  -26.6565   -5.6915   16.5493 C   0  0  0  0  0  0  0  0  0  0  0  0
  -27.4345  -27.2691   20.0053 C   0  0  0  0  0  0  0  0  0  0  0  0
  -25.7364   -3.5357   16.7179 C   0  0  0  0  0  0  0  0  0  0  0  0
  -24.4146   -1.6064   18.2387 C   0  0  0  0  0  0  0  0  0  0  0  0
  -24.4665   -3.8012   17.2302 C   0  0  0  0  0  0  0  0  0  0  0  0
  -27.4732   -9.4205   18.3729 C   0  0  0  0  0  0  0  0  0  0  0  0
  -28.4321  -11.2735   19.0669 C   0  0  0  0  0  0  0  0  0  0  0  0
  -26.6242  -17.3788   19.5403 C   0  0  0  0  0  0  0  0  0  0  0  0
  -29.9145   -9.8235   17.6710 C   0  0  0  0  0  0  0  0  0  0  0  0
  -25.5467  -31.6953   22.5171 C   0  0  0  0  0  0  0  0  0  0  0  0
  -27.9410  -23.6963   19.6294 C   0  0  0  0  0  0  0  0  0  0  0  0
  -22.6223  -30.2926   22.5687 C   0  0  0  0  0  0  0  0  0  0  0  0
  -20.6969  -27.5788   21.8103 C   0  0  0  0  0  0  0  0  0  0  0  0
  -25.1618  -15.5538   20.4768 C   0  0  0  0  0  0  0  0  0  0  0  0
  -24.6207  -35.3656   25.9418 C   0  0  0  0  0  0  0  0  0  0  0  0
  -25.2819  -30.9948   20.1098 C   0  0  0  0  0  0  0  0  0  0  0  0
  -24.5747  -28.8099   21.9727 C   0  0  0  0  0  0  0  0  0  0  0  0
  -24.3457  -33.8671   25.8461 C   0  0  0  0  0  0  0  0  0  0  0  0
  -24.5459  -12.4414   22.0926 C   0  0  0  0  0  0  0  0  0  0  0  0
  -25.6110  -33.1169   25.4423 C   0  0  0  0  0  0  0  0  0  0  0  0
  -25.3518  -11.4375   21.2651 C   0  0  0  0  0  0  0  0  0  0  0  0
  -23.9258  -13.5294   21.2177 C   0  0  0  0  0  0  0  0  0  0  0  0
  -25.6747  -13.2264   19.5093 C   0  0  0  0  0  0  0  0  0  0  0  0
  -26.1016  -33.5662   24.0607 C   0  0  1  0  0  0  0  0  0  0  0  0
  -24.5890  -31.2675   21.4412 C   0  0  1  0  0  0  0  0  0  0  0  0
  -26.3724  -12.1483   20.3546 C   0  0  2  0  0  0  0  0  0  0  0  0
  -18.3509  -26.7104   22.0092 C   0  0  0  0  0  0  0  0  0  0  0  0
  -23.0892  -29.7162   25.5284 C   0  0  0  0  0  0  0  0  0  0  0  0
  -21.2101  -28.0646   25.4316 C   0  0  0  0  0  0  0  0  0  0  0  0
  -20.7739  -30.4762   24.9662 C   0  0  0  0  0  0  0  0  0  0  0  0
  -20.3985  -27.3779   18.8727 C   0  0  0  0  0  0  0  0  0  0  0  0
  -27.2648  -22.3838   19.9645 C   0  0  0  0  0  0  0  0  0  0  0  0
  -27.3959  -24.9159   20.3468 C   0  0  0  0  0  0  0  0  0  1  0  0
  -22.0249  -29.0912   23.2606 C   0  0  1  0  0  0  0  0  0  0  0  0
  -19.3425  -27.4618   21.1347 C   0  0  2  0  0  0  0  0  0  0  0  0
  -21.7969  -29.3346   24.7793 C   0  0  0  0  0  0  0  0  0  0  0  0
  -26.5290  -10.0386   19.0874 N   0  0  0  0  0  0  0  0  0  0  0  0
  -27.1424  -11.1622   19.4962 N   0  0  0  0  0  0  0  0  0  0  0  0
  -26.0464  -18.3586   20.2486 N   0  3  0  0  0  0  0  0  0  0  0  0
  -23.8667  -30.1006   21.9519 N   0  0  0  0  0  0  0  0  0  0  0  0
  -24.9523  -14.1614   20.3861 N   0  0  0  0  0  0  0  0  0  0  0  0
  -29.1535  -19.2952   17.6737 N   0  0  0  0  0  0  0  0  0  0  0  0
  -29.1939  -12.3412   19.3867 N   0  0  0  0  0  0  0  0  0  0  0  0
  -29.9976   -8.6231   16.9524 N   0  0  0  0  0  0  0  0  0  0  0  0
  -27.8709  -21.3138   19.2142 N   0  0  0  0  0  0  0  0  0  0  0  0
  -26.1859  -16.0369   19.6629 N   0  0  0  0  0  0  0  0  0  0  0  0
  -25.3016  -32.9594   23.0184 N   0  0  0  0  0  0  0  0  0  0  0  0
  -20.8133  -28.7547   22.5209 N   0  0  0  0  0  0  0  0  0  0  0  0
  -19.4708  -26.7361   19.8393 N   0  3  0  0  0  0  0  0  0  0  0  0
  -30.9195  -10.5714   17.7353 O   0  0  0  0  0  0  0  0  0  0  0  0
  -26.4409  -30.9341   22.8676 O   0  0  0  0  0  0  0  0  0  0  0  0
  -28.8719  -23.7799   18.8292 O   0  0  0  0  0  0  0  0  0  0  0  0
  -22.0042  -31.3601   22.5691 O   0  0  0  0  0  0  0  0  0  0  0  0
  -21.5635  -26.7120   21.7199 O   0  0  0  0  0  0  0  0  0  0  0  0
  -24.5011  -16.2610   21.2417 O   0  0  0  0  0  0  0  0  0  0  0  0
  -26.3936   -4.4921   15.9621 O   0  0  0  0  0  0  0  0  0  0  0  0
  -28.1127  -26.0899   19.9672 O   0  0  0  0  0  0  0  0  0  1  0  0
  -23.7794   -0.6794   18.9677 F   0  0  0  0  0  0  0  0  0  0  0  0
  -23.8758   -4.9807   16.9941 F   0  0  0  0  0  0  0  0  0  0  0  0
  1  2  1  0  0  0  0
  1  5  2  0  0  0  0
  2  6  2  0  0  0  0
  3  8  2  0  0  0  0
  3 17  1  0  0  0  0
  4  9  1  0  0  0  0
  4 17  2  0  0  0  0
  5 19  1  0  0  0  0
  6 21  1  0  0  0  0
  7 10  2  0  0  0  0
  7 20  1  0  0  0  0
  8 25  1  0  0  0  0
  9 25  2  0  0  0  0
 10 26  1  0  0  0  0
 11 12  2  0  0  0  0
 11 27  1  0  0  0  0
 12 28  1  0  0  0  0
 13 22  1  0  0  0  0
 13 26  2  0  0  0  0
 14 23  1  0  0  0  0
 14 32  2  0  0  0  0
 15 28  2  0  0  0  0
 15 29  1  0  0  0  0
 16 24  1  0  0  0  0
 16 63  2  0  0  0  0
 17 30  1  0  0  0  0
 18 30  1  0  0  0  0
 18 31  2  0  0  0  0
 18 33  1  0  0  0  0
 19 21  2  0  0  0  0
 19 39  1  0  0  0  0
 20 22  2  0  0  0  0
 20 40  1  0  0  0  0
 21 48  1  0  0  0  0
 22 41  1  0  0  0  0
 23 24  2  0  0  0  0
 23 66  1  0  0  0  0
 24 69  1  0  0  0  0
 25 80  1  0  0  0  0
 26 81  1  0  0  0  0
 27 29  2  0  0  0  0
 27 80  1  0  0  0  0
 28 82  1  0  0  0  0
 29 83  1  0  0  0  0
 30 61  2  0  0  0  0
 31 62  1  0  0  0  0
 31 67  1  0  0  0  0
 32 63  1  0  0  0  0
 32 70  1  0  0  0  0
 33 68  1  0  0  0  0
 33 74  2  0  0  0  0
 34 49  1  0  0  0  0
 34 71  1  0  0  0  0
 34 75  2  0  0  0  0
 35 56  1  0  0  0  0
 35 57  1  0  0  0  0
 35 76  2  0  0  0  0
 36 58  1  0  0  0  0
 36 64  1  0  0  0  0
 36 77  2  0  0  0  0
 37 59  1  0  0  0  0
 37 72  1  0  0  0  0
 37 78  2  0  0  0  0
 38 65  1  0  0  0  0
 38 70  1  0  0  0  0
 38 79  2  0  0  0  0
 39 42  1  0  0  0  0
 40 49  1  0  0  0  0
 41 64  1  0  0  0  0
 42 44  1  0  0  0  0
 43 45  1  0  0  0  0
 43 46  1  0  0  0  0
 44 48  1  0  0  0  0
 45 50  1  0  0  0  0
 46 65  1  0  0  0  0
 47 50  1  0  0  0  0
 47 65  1  0  0  0  0
 48 71  1  0  0  0  0
 49 64  1  0  0  0  0
 50 62  1  0  0  0  0
 51 59  1  0  0  0  0
 52 60  1  0  0  0  0
 53 60  1  0  0  0  0
 54 60  1  0  0  0  0
 55 73  1  0  0  0  0
 56 69  1  0  0  0  0
 57 81  1  0  0  0  0
 58 60  1  0  0  0  0
 58 72  1  0  0  0  0
 59 73  1  0  0  0  0
 61 62  1  0  0  0  0
M  CHG  2  63   1  73   1
M  ISO  4  38 100  57 101  70 100  81 101
M  END
> <Batch ID>
0163

> <Smiles>
CNC(C)C(=O)NC(C(=O)N1Cc2cc([101O:1][101CH2:1]C(=O)CNc3cnc([100NH:0][100C:0](=O)N4CCCC(n5nc(-c6ccc(Oc7ccc(F)cc7F)cc6)c(C(N)=O)c5N)C4)cc3N)ccc2CC1C(=O)NC1CCCc2ccccc21)C(C)(C)C

> <Shape>
0.268

> <Color>
0.080

> <Negative vol penalty>
0.000

$$$$

  -OEChem-04052303593D

 85 94  0     1  0  0  0  0  0999 V2000
  -31.1249  -34.2610   28.1841 C   0  0  0  0  0  0  0  0  0  0  0  0
  -31.2617  -33.2781   27.2091 C   0  0  0  0  0  0  0  0  0  0  0  0
  -24.1928   -8.5478   20.4075 C   0  0  0  0  0  0  0  0  0  0  0  0
  -22.9205  -10.4113   21.2710 C   0  0  0  0  0  0  0  0  0  0  0  0
  -29.8803  -34.4936   28.7680 C   0  0  0  0  0  0  0  0  0  0  0  0
  -30.1542  -32.5264   26.8182 C   0  0  0  0  0  0  0  0  0  0  0  0
  -29.5508  -20.0687   21.2578 C   0  0  0  0  0  0  0  0  0  0  0  0
  -28.9585  -30.3751   21.2103 C   0  0  0  0  0  0  0  0  0  0  0  0
  -29.6066  -18.6826   21.4032 C   0  0  0  0  0  0  0  0  0  0  0  0
  -23.2078   -7.6676   20.8554 C   0  0  0  0  0  0  0  0  0  0  0  0
  -21.9354   -9.5311   21.7189 C   0  0  0  0  0  0  0  0  0  0  0  0
  -29.1492  -29.1241   20.6253 C   0  0  0  0  0  0  0  0  0  0  0  0
  -22.2744   -6.2540   23.7802 C   0  0  0  0  0  0  0  0  0  0  0  0
  -22.6907   -5.0994   24.4429 C   0  0  0  0  0  0  0  0  0  0  0  0
  -26.8645  -28.5431   21.1374 C   0  0  0  0  0  0  0  0  0  0  0  0
  -28.1607  -18.4232   19.4850 C   0  0  0  0  0  0  0  0  0  0  0  0
  -21.6173   -3.7438   22.7555 C   0  0  0  0  0  0  0  0  0  0  0  0
  -24.0492   -9.9196   20.6153 C   0  0  0  0  0  0  0  0  0  0  0  0
  -25.1364  -11.4595   18.8965 C   0  0  0  0  0  0  0  0  0  0  0  0
  -28.7550  -33.7509   28.3771 C   0  0  0  0  0  0  0  0  0  0  0  0
  -27.7206  -30.7161   21.7740 C   0  0  0  0  0  0  0  0  0  0  0  0
  -28.8937  -32.7484   27.3983 C   0  0  0  0  0  0  0  0  0  0  0  0
  -28.7999  -20.6321   20.2261 C   0  0  0  0  0  0  0  0  0  0  0  0
  -26.6600  -29.8001   21.7267 C   0  0  0  0  0  0  0  0  0  0  0  0
  -28.9116  -17.8598   20.5168 C   0  0  0  0  0  0  0  0  0  0  0  0
  -28.1049  -19.8094   19.3397 C   0  0  0  0  0  0  0  0  0  0  0  0
  -22.0790   -8.1593   21.5111 C   0  0  0  0  0  0  0  0  0  0  0  0
  -28.1030  -28.2068   20.5913 C   0  0  0  0  0  0  0  0  0  0  0  0
  -21.5294   -6.1535   22.6052 C   0  0  0  0  0  0  0  0  0  0  0  0
  -22.3622   -3.8443   23.9305 C   0  0  0  0  0  0  0  0  0  0  0  0
  -21.2009   -4.8985   22.0928 C   0  0  0  0  0  0  0  0  0  0  0  0
  -25.0667  -10.8293   20.1534 C   0  0  0  0  0  0  0  0  0  0  0  0
  -26.2816  -12.2156   18.9547 C   0  0  0  0  0  0  0  0  0  0  0  0
  -29.9908  -24.1547   19.1579 C   0  0  0  0  0  0  0  0  0  0  0  0
  -29.4630  -24.9410   20.1119 C   0  0  0  0  0  0  0  0  0  0  0  0
  -24.2456  -11.3697   17.7767 C   0  0  0  0  0  0  0  0  0  0  0  0
  -26.7195  -31.4836   24.6916 C   0  0  0  0  0  0  0  0  0  0  0  0
  -23.9173  -32.0486   23.1585 C   0  0  0  0  0  0  0  0  0  0  0  0
  -21.9089  -31.4268   20.4703 C   0  0  0  0  0  0  0  0  0  0  0  0
  -29.6659  -15.7321   21.6349 C   0  0  0  0  0  0  0  0  0  0  0  0
  -27.4402  -34.0061   29.0706 C   0  0  0  0  0  0  0  0  0  0  0  0
  -27.5232  -32.0796   22.3775 C   0  0  0  0  0  0  0  0  0  0  0  0
  -25.3055  -30.1249   22.2998 C   0  0  0  0  0  0  0  0  0  0  0  0
  -29.8468  -22.6602   19.1326 C   0  0  0  0  0  0  0  0  0  0  0  0
  -28.6940  -24.3752   21.2797 C   0  0  0  0  0  0  0  0  0  0  0  0
  -26.2387  -33.4217   28.3322 C   0  0  0  0  0  0  0  0  0  0  0  0
  -28.8556  -22.8604   21.4468 C   0  0  0  0  0  0  0  0  0  0  0  0
  -30.0269  -12.2648   22.3593 C   0  0  0  0  0  0  0  0  0  0  0  0
  -26.5241  -31.9871   27.8995 C   0  0  0  0  0  0  0  0  0  0  0  0
  -28.7744  -11.6341   21.7466 C   0  0  0  0  0  0  0  0  0  0  0  0
  -29.7326  -13.6353   22.9668 C   0  0  0  0  0  0  0  0  0  0  0  0
  -27.8164  -13.9541   21.4517 C   0  0  0  0  0  0  0  0  0  0  0  0
  -28.7573  -22.1429   20.0915 C   0  0  2  0  0  0  0  0  0  0  0  0
  -27.7107  -31.9291   26.9299 C   0  0  1  0  0  0  0  0  0  0  0  0
  -26.3737  -32.1288   23.3794 C   0  0  1  0  0  0  0  0  0  0  0  0
  -28.0768  -12.6010   20.7698 C   0  0  2  0  0  0  0  0  0  0  0  0
  -19.6618  -32.0050   19.5145 C   0  0  0  0  0  0  0  0  0  0  0  0
  -22.5836  -30.1854   25.1734 C   0  0  0  0  0  0  0  0  0  0  0  0
  -20.6105  -30.0511   23.6381 C   0  0  0  0  0  0  0  0  0  0  0  0
  -21.2714  -32.2434   24.6281 C   0  0  0  0  0  0  0  0  0  0  0  0
  -23.1176  -32.6191   18.0462 C   0  0  0  0  0  0  0  0  0  0  0  0
  -29.6020  -26.4343   20.0746 C   0  0  0  0  0  0  0  0  0  1  0  0
  -22.7028  -31.2217   22.8117 C   0  0  1  0  0  0  0  0  0  0  0  0
  -21.1406  -32.3581   19.5501 C   0  0  2  0  0  0  0  0  0  0  0  0
  -21.8180  -30.9183   24.0537 C   0  0  0  0  0  0  0  0  0  0  0  0
  -26.0865  -11.1563   20.9515 N   0  0  0  0  0  0  0  0  0  0  0  0
  -26.8079  -12.0003   20.1944 N   0  0  0  0  0  0  0  0  0  0  0  0
  -25.1640  -31.4685   22.8847 N   0  0  0  0  0  0  0  0  0  0  0  0
  -29.0759  -14.4986   21.9828 N   0  0  0  0  0  0  0  0  0  0  0  0
  -27.3391  -20.3631   18.2901 N   0  0  0  0  0  0  0  0  0  0  0  0
  -26.8797  -13.0368   18.0657 N   0  0  0  0  0  0  0  0  0  0  0  0
  -23.1161  -10.5471   17.8857 N   0  0  0  0  0  0  0  0  0  0  0  0
  -28.9683  -16.4518   20.6654 N   0  0  0  0  0  0  0  0  0  0  0  0
  -27.3013  -32.3423   25.6047 N   0  0  0  0  0  0  0  0  0  0  0  0
  -22.0111  -31.9393   21.7462 N   0  0  0  0  0  0  0  0  0  0  0  0
  -21.6773  -32.2742   18.1624 N   0  3  0  0  0  0  0  0  0  0  0  0
  -24.4540  -11.9875   16.7050 O   0  0  0  0  0  0  0  0  0  0  0  0
  -26.4752  -30.2951   24.8635 O   0  0  0  0  0  0  0  0  0  0  0  0
  -23.7653  -33.1708   23.6476 O   0  0  0  0  0  0  0  0  0  0  0  0
  -22.3690  -30.3504   20.0956 O   0  0  0  0  0  0  0  0  0  0  0  0
  -30.7272  -16.1088   22.1387 O   0  0  0  0  0  0  0  0  0  0  0  0
  -21.1175   -7.3008   21.9480 O   0  0  0  0  0  0  0  0  0  0  0  0
  -28.2865  -26.9847   20.0214 O   0  0  0  0  0  0  0  0  0  1  0  0
  -22.7634   -2.7356   24.5662 F   0  0  0  0  0  0  0  0  0  0  0  0
  -20.4865   -4.7956   20.9638 F   0  0  0  0  0  0  0  0  0  0  0  0
  1  2  1  0  0  0  0
  1  5  2  0  0  0  0
  2  6  2  0  0  0  0
  3 10  2  0  0  0  0
  3 18  1  0  0  0  0
  4 11  1  0  0  0  0
  4 18  2  0  0  0  0
  5 20  1  0  0  0  0
  6 22  1  0  0  0  0
  7  9  2  0  0  0  0
  7 23  1  0  0  0  0
  8 12  2  0  0  0  0
  8 21  1  0  0  0  0
  9 25  1  0  0  0  0
 10 27  1  0  0  0  0
 11 27  2  0  0  0  0
 12 28  1  0  0  0  0
 13 14  2  0  0  0  0
 13 29  1  0  0  0  0
 14 30  1  0  0  0  0
 15 24  1  0  0  0  0
 15 28  2  0  0  0  0
 16 25  2  0  0  0  0
 16 26  1  0  0  0  0
 17 30  2  0  0  0  0
 17 31  1  0  0  0  0
 18 32  1  0  0  0  0
 19 32  1  0  0  0  0
 19 33  2  0  0  0  0
 19 36  1  0  0  0  0
 20 22  2  0  0  0  0
 20 41  1  0  0  0  0
 21 24  2  0  0  0  0
 21 42  1  0  0  0  0
 22 54  1  0  0  0  0
 23 26  2  0  0  0  0
 23 53  1  0  0  0  0
 24 43  1  0  0  0  0
 25 73  1  0  0  0  0
 26 70  1  0  0  0  0
 27 82  1  0  0  0  0
 28 83  1  0  0  0  0
 29 31  2  0  0  0  0
 29 82  1  0  0  0  0
 30 84  1  0  0  0  0
 31 85  1  0  0  0  0
 32 66  2  0  0  0  0
 33 67  1  0  0  0  0
 33 71  1  0  0  0  0
 34 35  2  0  0  0  0
 34 44  1  0  0  0  0
 35 45  1  0  0  0  0
 35 62  1  0  0  0  0
 36 72  1  0  0  0  0
 36 77  2  0  0  0  0
 37 55  1  0  0  0  0
 37 74  1  0  0  0  0
 37 78  2  0  0  0  0
 38 63  1  0  0  0  0
 38 68  1  0  0  0  0
 38 79  2  0  0  0  0
 39 64  1  0  0  0  0
 39 75  1  0  0  0  0
 39 80  2  0  0  0  0
 40 69  1  0  0  0  0
 40 73  1  0  0  0  0
 40 81  2  0  0  0  0
 41 46  1  0  0  0  0
 42 55  1  0  0  0  0
 43 68  1  0  0  0  0
 44 53  1  0  0  0  0
 45 47  1  0  0  0  0
 46 49  1  0  0  0  0
 47 53  1  0  0  0  0
 48 50  1  0  0  0  0
 48 51  1  0  0  0  0
 49 54  1  0  0  0  0
 50 56  1  0  0  0  0
 51 69  1  0  0  0  0
 52 56  1  0  0  0  0
 52 69  1  0  0  0  0
 54 74  1  0  0  0  0
 55 68  1  0  0  0  0
 56 67  1  0  0  0  0
 57 64  1  0  0  0  0
 58 65  1  0  0  0  0
 59 65  1  0  0  0  0
 60 65  1  0  0  0  0
 61 76  1  0  0  0  0
 62 83  1  0  0  0  0
 63 65  1  0  0  0  0
 63 75  1  0  0  0  0
 64 76  1  0  0  0  0
 66 67  1  0  0  0  0
M  CHG  1  76   1
M  ISO  4  40 100  62 101  73 100  83 101
M  END
> <Batch ID>
0163

> <Smiles>
CNC(C)C(=O)NC(C(=O)N1Cc2cc([101O:1][101CH2:1]C3=CCC(c4ccc([100NH:0][100C:0](=O)N5CCCC(n6nc(-c7ccc(Oc8ccc(F)cc8F)cc7)c(C(N)=O)c6N)C5)cc4N)CC3)ccc2CC1C(=O)NC1CCCc2ccccc21)C(C)(C)C

> <Shape>
0.323

> <Color>
0.080

> <Negative vol penalty>
0.000

$$$$

  -OEChem-04052303593D

 95104  0     1  0  0  0  0  0999 V2000
  -26.3821  -38.2843   23.2158 C   0  0  0  0  0  0  0  0  0  0  0  0
  -27.0925  -37.3920   22.4192 C   0  0  0  0  0  0  0  0  0  0  0  0
  -22.6847  -12.4076   21.5746 C   0  0  0  0  0  0  0  0  0  0  0  0
  -22.6007  -14.8217   21.6221 C   0  0  0  0  0  0  0  0  0  0  0  0
  -25.5966  -37.8077   24.2645 C   0  0  0  0  0  0  0  0  0  0  0  0
  -27.0187  -36.0226   22.6716 C   0  0  0  0  0  0  0  0  0  0  0  0
  -27.1447  -29.7079   19.2914 C   0  0  0  0  0  0  0  0  0  0  0  0
  -21.3317  -12.3539   21.9092 C   0  0  0  0  0  0  0  0  0  0  0  0
  -21.2476  -14.7680   21.9566 C   0  0  0  0  0  0  0  0  0  0  0  0
  -27.8018  -28.4789   19.3293 C   0  0  0  0  0  0  0  0  0  0  0  0
  -18.3096  -14.2510   20.3689 C   0  0  0  0  0  0  0  0  0  0  0  0
  -17.4418  -15.1081   19.6923 C   0  0  0  0  0  0  0  0  0  0  0  0
  -26.3502  -27.7647   21.1186 C   0  0  0  0  0  0  0  0  0  0  0  0
  -27.5638  -18.6316   19.0777 C   0  0  0  0  0  0  0  0  0  0  0  0
  -27.3984  -21.0291   18.9836 C   0  0  0  0  0  0  0  0  0  0  0  0
  -16.8152  -16.1299   21.7900 C   0  0  0  0  0  0  0  0  0  0  0  0
  -23.3193  -13.6415   21.4311 C   0  0  0  0  0  0  0  0  0  0  0  0
  -25.2725  -13.7425   19.7933 C   0  0  0  0  0  0  0  0  0  0  0  0
  -25.5055  -36.4311   24.5238 C   0  0  0  0  0  0  0  0  0  0  0  0
  -26.0907  -29.9790   20.1757 C   0  0  0  0  0  0  0  0  0  0  0  0
  -26.2323  -35.5272   23.7256 C   0  0  0  0  0  0  0  0  0  0  0  0
  -25.6796  -28.9969   21.0882 C   0  0  0  0  0  0  0  0  0  0  0  0
  -26.8108  -19.7768   18.8434 C   0  0  0  0  0  0  0  0  0  0  0  0
  -20.6131  -13.5341   22.1002 C   0  0  0  0  0  0  0  0  0  0  0  0
  -27.4065  -27.5081   20.2449 C   0  0  0  0  0  0  0  0  0  0  0  0
  -18.4302  -14.3333   21.7562 C   0  0  0  0  0  0  0  0  0  0  0  0
  -16.6946  -16.0475   20.4028 C   0  0  0  0  0  0  0  0  0  0  0  0
  -17.6830  -15.2727   22.4667 C   0  0  0  0  0  0  0  0  0  0  0  0
  -24.7171  -13.6976   21.0861 C   0  0  0  0  0  0  0  0  0  0  0  0
  -28.8896  -18.7914   19.4471 C   0  0  0  0  0  0  0  0  0  0  0  0
  -28.7316  -21.0817   19.3574 C   0  0  0  0  0  0  0  0  0  0  0  0
  -26.6290  -13.7864   20.0037 C   0  0  0  0  0  0  0  0  0  0  0  0
  -24.6204  -13.7445   18.5164 C   0  0  0  0  0  0  0  0  0  0  0  0
  -25.5894  -32.1075   22.4827 C   0  0  0  0  0  0  0  0  0  0  0  0
  -22.6205  -30.8008   22.5081 C   0  0  0  0  0  0  0  0  0  0  0  0
  -28.7171  -23.5997   19.3016 C   0  0  0  0  0  0  0  0  0  0  0  0
  -20.6313  -28.1148   21.8188 C   0  0  0  0  0  0  0  0  0  0  0  0
  -24.7538  -18.4875   18.2987 C   0  0  0  0  0  0  0  0  0  0  0  0
  -31.0787  -15.6335   22.6230 C   0  0  0  0  0  0  0  0  0  0  0  0
  -24.6809  -35.9667   25.6982 C   0  0  0  0  0  0  0  0  0  0  0  0
  -25.3746  -31.2998   20.1041 C   0  0  0  0  0  0  0  0  0  0  0  0
  -24.5405  -29.2309   22.0454 C   0  0  0  0  0  0  0  0  0  0  0  0
  -24.3601  -34.4746   25.6651 C   0  0  0  0  0  0  0  0  0  0  0  0
  -31.7751  -16.2264   19.0346 C   0  0  0  0  0  0  0  0  0  0  0  0
  -29.3506  -13.0727   24.1988 C   0  0  0  0  0  0  0  0  0  0  0  0
  -25.6118  -33.6666   25.3377 C   0  0  0  0  0  0  0  0  0  0  0  0
  -30.9286  -17.4623   18.7329 C   0  0  0  0  0  0  0  0  0  0  0  0
  -28.0295  -12.9997   23.4333 C   0  0  0  0  0  0  0  0  0  0  0  0
  -32.2094  -16.1786   20.4966 C   0  0  0  0  0  0  0  0  0  0  0  0
  -29.7786  -14.5201   24.4131 C   0  0  0  0  0  0  0  0  0  0  0  0
  -30.2371  -17.5153   21.1609 C   0  0  0  0  0  0  0  0  0  0  0  0
  -28.5852  -15.2414   22.3703 C   0  0  0  0  0  0  0  0  0  0  0  0
  -26.1582  -34.0329   23.9525 C   0  0  1  0  0  0  0  0  0  0  0  0
  -29.7425  -17.5642   19.7074 C   0  0  1  0  0  0  0  0  0  0  0  0
  -24.6511  -31.6582   21.3985 C   0  0  1  0  0  0  0  0  0  0  0  0
  -28.1089  -13.7969   22.1198 C   0  0  2  0  0  0  0  0  0  0  0  0
  -22.4493  -18.9473   20.3274 C   0  0  0  0  0  0  0  0  0  0  0  0
  -18.2533  -27.3306   21.9844 C   0  0  0  0  0  0  0  0  0  0  0  0
  -22.5732  -17.3642   17.7185 C   0  0  0  0  0  0  0  0  0  0  0  0
  -23.2406  -19.4332   16.5097 C   0  0  0  0  0  0  0  0  0  0  0  0
  -22.9789  -30.3543   25.5052 C   0  0  0  0  0  0  0  0  0  0  0  0
  -21.0506  -28.7593   25.4275 C   0  0  0  0  0  0  0  0  0  0  0  0
  -20.7076  -31.1579   24.8345 C   0  0  0  0  0  0  0  0  0  0  0  0
  -20.4152  -27.7811   18.8861 C   0  0  0  0  0  0  0  0  0  0  0  0
  -29.7135  -24.7251   19.5563 C   0  0  0  0  0  0  0  0  0  0  0  0
  -22.5156  -19.5686   18.9364 C   0  0  0  0  0  0  0  0  0  0  0  0
  -29.1144  -26.1094   19.3601 C   0  0  0  0  0  0  0  0  0  1  0  0
  -21.9636  -29.6536   23.2371 C   0  0  1  0  0  0  0  0  0  0  0  0
  -19.2948  -28.0074   21.1070 C   0  0  2  0  0  0  0  0  0  0  0  0
  -23.2780  -18.7263   17.8805 C   0  0  0  0  0  0  0  0  0  0  0  0
  -21.6980  -29.9773   24.7345 C   0  0  0  0  0  0  0  0  0  0  0  0
  -25.6451  -13.7115   22.0467 N   0  0  0  0  0  0  0  0  0  0  0  0
  -29.4951  -19.9913   19.5935 N   0  0  0  0  0  0  0  0  0  0  0  0
  -26.7972  -13.7655   21.3570 N   0  0  0  0  0  0  0  0  0  0  0  0
  -23.8760  -30.5404   21.9409 N   0  0  0  0  0  0  0  0  0  0  0  0
  -31.0687  -16.3260   21.4010 N   0  0  0  0  0  0  0  0  0  0  0  0
  -29.8349  -15.2480   23.1454 N   0  0  0  0  0  0  0  0  0  0  0  0
  -27.6825  -13.8403   19.1612 N   0  0  0  0  0  0  0  0  0  0  0  0
  -23.2201  -13.6957   18.4812 N   0  0  0  0  0  0  0  0  0  0  0  0
  -25.4708  -19.6694   18.4713 N   0  0  0  0  0  0  0  0  0  0  0  0
  -29.3151  -22.3469   19.4947 N   0  0  0  0  0  0  0  0  0  0  0  0
  -25.3707  -33.4015   22.9153 N   0  0  0  0  0  0  0  0  0  0  0  0
  -20.7645  -29.3195   22.4762 N   0  0  0  0  0  0  0  0  0  0  0  0
  -19.4383  -27.2162   19.8523 N   0  3  0  0  0  0  0  0  0  0  0  0
  -25.2611  -13.7716   17.4383 O   0  0  0  0  0  0  0  0  0  0  0  0
  -26.4472  -31.3368   22.8970 O   0  0  0  0  0  0  0  0  0  0  0  0
  -22.0379  -31.8858   22.4383 O   0  0  0  0  0  0  0  0  0  0  0  0
  -27.5560  -23.8180   18.9722 O   0  0  0  0  0  0  0  0  0  0  0  0
  -21.4714  -27.2180   21.7973 O   0  0  0  0  0  0  0  0  0  0  0  0
  -25.1849  -17.3458   18.4483 O   0  0  0  0  0  0  0  0  0  0  0  0
  -32.1367  -15.3728   23.2094 O   0  0  0  0  0  0  0  0  0  0  0  0
  -19.2927  -13.4822   22.4264 O   0  0  0  0  0  0  0  0  0  0  0  0
  -28.0512  -26.2994   20.2847 O   0  0  0  0  0  0  0  0  0  1  0  0
  -15.8624  -16.8716   19.7527 F   0  0  0  0  0  0  0  0  0  0  0  0
  -17.7955  -15.3572   23.7994 F   0  0  0  0  0  0  0  0  0  0  0  0
  1  2  1  0  0  0  0
  1  5  2  0  0  0  0
  2  6  2  0  0  0  0
  3  8  2  0  0  0  0
  3 17  1  0  0  0  0
  4  9  1  0  0  0  0
  4 17  2  0  0  0  0
  5 19  1  0  0  0  0
  6 21  1  0  0  0  0
  7 10  2  0  0  0  0
  7 20  1  0  0  0  0
  8 24  1  0  0  0  0
  9 24  2  0  0  0  0
 10 25  1  0  0  0  0
 11 12  2  0  0  0  0
 11 26  1  0  0  0  0
 12 27  1  0  0  0  0
 13 22  1  0  0  0  0
 13 25  2  0  0  0  0
 14 23  2  0  0  0  0
 14 30  1  0  0  0  0
 15 23  1  0  0  0  0
 15 31  2  0  0  0  0
 16 27  2  0  0  0  0
 16 28  1  0  0  0  0
 17 29  1  0  0  0  0
 18 29  1  0  0  0  0
 18 32  2  0  0  0  0
 18 33  1  0  0  0  0
 19 21  2  0  0  0  0
 19 40  1  0  0  0  0
 20 22  2  0  0  0  0
 20 41  1  0  0  0  0
 21 53  1  0  0  0  0
 22 42  1  0  0  0  0
 23 80  1  0  0  0  0
 24 92  1  0  0  0  0
 25 93  1  0  0  0  0
 26 28  2  0  0  0  0
 26 92  1  0  0  0  0
 27 94  1  0  0  0  0
 28 95  1  0  0  0  0
 29 72  2  0  0  0  0
 30 54  1  0  0  0  0
 30 73  2  0  0  0  0
 31 73  1  0  0  0  0
 31 81  1  0  0  0  0
 32 74  1  0  0  0  0
 32 78  1  0  0  0  0
 33 79  1  0  0  0  0
 33 85  2  0  0  0  0
 34 55  1  0  0  0  0
 34 82  1  0  0  0  0
 34 86  2  0  0  0  0
 35 68  1  0  0  0  0
 35 75  1  0  0  0  0
 35 87  2  0  0  0  0
 36 65  1  0  0  0  0
 36 81  1  0  0  0  0
 36 88  2  0  0  0  0
 37 69  1  0  0  0  0
 37 83  1  0  0  0  0
 37 89  2  0  0  0  0
 38 70  1  0  0  0  0
 38 80  1  0  0  0  0
 38 90  2  0  0  0  0
 39 76  1  0  0  0  0
 39 77  1  0  0  0  0
 39 91  2  0  0  0  0
 40 43  1  0  0  0  0
 41 55  1  0  0  0  0
 42 75  1  0  0  0  0
 43 46  1  0  0  0  0
 44 47  1  0  0  0  0
 44 49  1  0  0  0  0
 45 48  1  0  0  0  0
 45 50  1  0  0  0  0
 46 53  1  0  0  0  0
 47 54  1  0  0  0  0
 48 56  1  0  0  0  0
 49 76  1  0  0  0  0
 50 77  1  0  0  0  0
 51 54  1  0  0  0  0
 51 76  1  0  0  0  0
 52 56  1  0  0  0  0
 52 77  1  0  0  0  0
 53 82  1  0  0  0  0
 55 75  1  0  0  0  0
 56 74  1  0  0  0  0
 57 66  1  0  0  0  0
 58 69  1  0  0  0  0
 59 70  1  0  0  0  0
 60 70  1  0  0  0  0
 61 71  1  0  0  0  0
 62 71  1  0  0  0  0
 63 71  1  0  0  0  0
 64 84  1  0  0  0  0
 65 67  1  0  0  0  0
 66 70  1  0  0  0  0
 67 93  1  0  0  0  0
 68 71  1  0  0  0  0
 68 83  1  0  0  0  0
 69 84  1  0  0  0  0
 72 74  1  0  0  0  0
M  CHG  1  84   1
M  ISO  4  39 100  67 101  76 100  93 101
M  END
> <Batch ID>
0163

> <Smiles>
CCC(C)(C)C(=O)Nc1cc(NC(=O)C[101CH2:1][101O:1]c2ccc3c(c2)CN(C(=O)C(NC(=O)C(C)NC)C(C)(C)C)C(C(=O)NC2CCCc4ccccc42)C3)nc(C2CCC[100N:0]([100C:0](=O)N3CCCC(n4nc(-c5ccc(Oc6ccc(F)cc6F)cc5)c(C(N)=O)c4N)C3)C2)c1

> <Shape>
0.307

> <Color>
0.067

> <Negative vol penalty>
0.000

$$$$

  -OEChem-04052303593D

 83 91  0     1  0  0  0  0  0999 V2000
  -26.2632  -18.3002   12.8642 C   0  0  0  0  0  0  0  0  0  0  0  0
  -27.1418  -18.0499   13.9134 C   0  0  0  0  0  0  0  0  0  0  0  0
  -26.4487  -28.6494   18.8812 C   0  0  0  0  0  0  0  0  0  0  0  0
  -26.3701  -28.1278   21.2389 C   0  0  0  0  0  0  0  0  0  0  0  0
  -24.9030  -18.4681   13.1205 C   0  0  0  0  0  0  0  0  0  0  0  0
  -26.6608  -17.9685   15.2197 C   0  0  0  0  0  0  0  0  0  0  0  0
  -28.6008  -14.0427   17.7632 C   0  0  0  0  0  0  0  0  0  0  0  0
  -30.6124  -20.4490   23.5201 C   0  0  0  0  0  0  0  0  0  0  0  0
  -25.5112  -29.6639   19.0743 C   0  0  0  0  0  0  0  0  0  0  0  0
  -25.4325  -29.1424   21.4321 C   0  0  0  0  0  0  0  0  0  0  0  0
  -29.8972  -14.1818   18.2569 C   0  0  0  0  0  0  0  0  0  0  0  0
  -25.4323  -32.5095   21.7202 C   0  0  0  0  0  0  0  0  0  0  0  0
  -31.6897  -19.8294   24.1534 C   0  0  0  0  0  0  0  0  0  0  0  0
  -25.6162  -33.3610   22.8095 C   0  0  0  0  0  0  0  0  0  0  0  0
  -30.6518  -18.7563   21.7968 C   0  0  0  0  0  0  0  0  0  0  0  0
  -29.0051  -14.6813   20.4418 C   0  0  0  0  0  0  0  0  0  0  0  0
  -23.4740  -32.6854   23.6993 C   0  0  0  0  0  0  0  0  0  0  0  0
  -26.8781  -27.8813   19.9635 C   0  0  0  0  0  0  0  0  0  0  0  0
  -31.7292  -18.1366   22.4300 C   0  0  0  0  0  0  0  0  0  0  0  0
  -29.2476  -26.9449   19.8363 C   0  0  0  0  0  0  0  0  0  0  0  0
  -24.4037  -18.3791   14.4294 C   0  0  0  0  0  0  0  0  0  0  0  0
  -27.4947  -14.2328   18.6040 C   0  0  0  0  0  0  0  0  0  0  0  0
  -25.2929  -18.1368   15.4939 C   0  0  0  0  0  0  0  0  0  0  0  0
  -27.6957  -14.5414   19.9569 C   0  0  0  0  0  0  0  0  0  0  0  0
  -30.0934  -19.9124   22.3418 C   0  0  0  0  0  0  0  0  0  0  0  0
  -25.0031  -29.9105   20.3497 C   0  0  0  0  0  0  0  0  0  0  0  0
  -30.0995  -14.5040   19.5957 C   0  0  0  0  0  0  0  0  0  0  0  0
  -24.2692  -31.7460   21.6203 C   0  0  0  0  0  0  0  0  0  0  0  0
  -24.6371  -33.4490   23.7991 C   0  0  0  0  0  0  0  0  0  0  0  0
  -32.2481  -18.6732   23.6084 C   0  0  0  0  0  0  0  0  0  0  0  0
  -23.2901  -31.8339   22.6099 C   0  0  0  0  0  0  0  0  0  0  0  0
  -27.8462  -26.8328   19.7645 C   0  0  0  0  0  0  0  0  0  0  0  0
  -29.7074  -25.6778   19.5722 C   0  0  0  0  0  0  0  0  0  0  0  0
  -32.3190  -16.9132   21.8506 C   0  0  0  0  0  0  0  0  0  0  0  0
  -30.0611  -28.0917   20.1167 C   0  0  0  0  0  0  0  0  0  0  0  0
  -25.0481  -16.2610   18.6680 C   0  0  0  0  0  0  0  0  0  0  0  0
  -24.0538  -14.3760   21.1134 C   0  0  0  0  0  0  0  0  0  0  0  0
  -24.8673  -12.1682   23.5854 C   0  0  0  0  0  0  0  0  0  0  0  0
  -28.3653  -20.1411   20.5231 C   0  0  0  0  0  0  0  0  0  0  0  0
  -22.9324  -18.6147   14.6628 C   0  0  0  0  0  0  0  0  0  0  0  0
  -26.1031  -14.0528   18.0623 C   0  0  0  0  0  0  0  0  0  0  0  0
  -26.5423  -14.7359   20.9058 C   0  0  0  0  0  0  0  0  0  0  0  0
  -22.4493  -18.1413   16.0312 C   0  0  0  0  0  0  0  0  0  0  0  0
  -27.8187  -21.6764   17.3575 C   0  0  0  0  0  0  0  0  0  0  0  0
  -23.4050  -18.6067   17.1252 C   0  0  0  0  0  0  0  0  0  0  0  0
  -27.9069  -23.1739   17.6607 C   0  0  0  0  0  0  0  0  0  0  0  0
  -27.1504  -20.9058   18.4947 C   0  0  0  0  0  0  0  0  0  0  0  0
  -27.8248  -22.6243   20.1261 C   0  0  0  0  0  0  0  0  0  0  0  0
  -24.8057  -18.0167   16.9216 C   0  0  1  0  0  0  0  0  0  0  0  0
  -25.0426  -14.7747   18.8879 C   0  0  1  0  0  0  0  0  0  0  0  0
  -28.5490  -23.4332   19.0377 C   0  0  2  0  0  0  0  0  0  0  0  0
  -23.8453  -10.8298   25.4460 C   0  0  0  0  0  0  0  0  0  0  0  0
  -23.8302  -16.9046   22.8064 C   0  0  0  0  0  0  0  0  0  0  0  0
  -23.7434  -15.4501   24.8423 C   0  0  0  0  0  0  0  0  0  0  0  0
  -21.9564  -15.2765   23.1105 C   0  0  0  0  0  0  0  0  0  0  0  0
  -25.7253   -9.6090   22.3716 C   0  0  0  0  0  0  0  0  0  0  0  0
  -33.4411  -15.8329   19.9347 C   0  0  0  0  0  0  0  0  0  0  0  0
  -32.3632  -15.0942   19.1677 C   0  0  0  0  0  0  0  0  0  1  0  0
  -24.2612  -14.3666   22.6087 C   0  0  1  0  0  0  0  0  0  0  0  0
  -24.2624  -10.8340   23.9835 C   0  0  2  0  0  0  0  0  0  0  0  0
  -23.4697  -15.4978   23.3239 C   0  0  0  0  0  0  0  0  0  0  0  0
  -27.4421  -25.5925   19.4772 N   0  0  0  0  0  0  0  0  0  0  0  0
  -28.5966  -24.9137   19.3660 N   0  0  0  0  0  0  0  0  0  0  0  0
  -25.2006  -14.5554   20.3271 N   0  0  0  0  0  0  0  0  0  0  0  0
  -27.8144  -21.1974   19.7671 N   0  0  0  0  0  0  0  0  0  0  0  0
  -30.9494  -25.1540   19.4985 N   0  0  0  0  0  0  0  0  0  0  0  0
  -32.3121  -15.8026   22.5877 N   0  0  0  0  0  0  0  0  0  0  0  0
  -29.4265  -29.3163   20.3656 N   0  0  0  0  0  0  0  0  0  0  0  0
  -28.9998  -20.5429   21.6981 N   0  0  0  0  0  0  0  0  0  0  0  0
  -24.8404  -16.6361   17.3543 N   0  0  0  0  0  0  0  0  0  0  0  0
  -23.9205  -13.0217   23.0597 N   0  0  0  0  0  0  0  0  0  0  0  0
  -32.8333  -16.9782   20.6166 N   0  3  0  0  0  0  0  0  0  0  0  0
  -25.2470   -9.7353   23.7724 N   0  3  0  0  0  0  0  0  0  0  0  0
  -31.3142  -28.0359   20.1294 O   0  0  0  0  0  0  0  0  0  0  0  0
  -25.2261  -17.0120   19.6198 O   0  0  0  0  0  0  0  0  0  0  0  0
  -22.9171  -14.2223   20.6596 O   0  0  0  0  0  0  0  0  0  0  0  0
  -26.0597  -12.4287   23.7300 O   0  0  0  0  0  0  0  0  0  0  0  0
  -28.3043  -18.9695   20.1417 O   0  0  0  0  0  0  0  0  0  0  0  0
  -24.0884  -30.9005   20.5386 O   0  0  0  0  0  0  0  0  0  0  0  0
  -31.3638  -14.6410   20.0799 O   0  0  0  0  0  0  0  0  0  1  0  0
  -24.8145  -34.2655   24.8460 F   0  0  0  0  0  0  0  0  0  0  0  0
  -33.2833  -18.0849   24.2239 F   0  0  0  0  0  0  0  0  0  0  0  0
  -22.1711  -31.1020   22.5200 F   0  0  0  0  0  0  0  0  0  0  0  0
  1  2  1  0  0  0  0
  1  5  2  0  0  0  0
  2  6  2  0  0  0  0
  3  9  2  0  0  0  0
  3 18  1  0  0  0  0
  4 10  1  0  0  0  0
  4 18  2  0  0  0  0
  5 21  1  0  0  0  0
  6 23  1  0  0  0  0
  7 11  2  0  0  0  0
  7 22  1  0  0  0  0
  8 13  2  0  0  0  0
  8 25  1  0  0  0  0
  9 26  1  0  0  0  0
 10 26  2  0  0  0  0
 11 27  1  0  0  0  0
 12 14  2  0  0  0  0
 12 28  1  0  0  0  0
 13 30  1  0  0  0  0
 14 29  1  0  0  0  0
 15 19  1  0  0  0  0
 15 25  2  0  0  0  0
 16 24  1  0  0  0  0
 16 27  2  0  0  0  0
 17 29  2  0  0  0  0
 17 31  1  0  0  0  0
 18 32  1  0  0  0  0
 19 30  2  0  0  0  0
 19 34  1  0  0  0  0
 20 32  1  0  0  0  0
 20 33  2  0  0  0  0
 20 35  1  0  0  0  0
 21 23  2  0  0  0  0
 21 40  1  0  0  0  0
 22 24  2  0  0  0  0
 22 41  1  0  0  0  0
 23 49  1  0  0  0  0
 24 42  1  0  0  0  0
 25 69  1  0  0  0  0
 26 79  1  0  0  0  0
 27 80  1  0  0  0  0
 28 31  2  0  0  0  0
 28 79  1  0  0  0  0
 29 81  1  0  0  0  0
 30 82  1  0  0  0  0
 31 83  1  0  0  0  0
 32 62  2  0  0  0  0
 33 63  1  0  0  0  0
 33 66  1  0  0  0  0
 34 67  1  0  0  0  0
 34 72  2  0  0  0  0
 35 68  1  0  0  0  0
 35 74  2  0  0  0  0
 36 50  1  0  0  0  0
 36 70  1  0  0  0  0
 36 75  2  0  0  0  0
 37 59  1  0  0  0  0
 37 64  1  0  0  0  0
 37 76  2  0  0  0  0
 38 60  1  0  0  0  0
 38 71  1  0  0  0  0
 38 77  2  0  0  0  0
 39 65  1  0  0  0  0
 39 69  1  0  0  0  0
 39 78  2  0  0  0  0
 40 43  1  0  0  0  0
 41 50  1  0  0  0  0
 42 64  1  0  0  0  0
 43 45  1  0  0  0  0
 44 46  1  0  0  0  0
 44 47  1  0  0  0  0
 45 49  1  0  0  0  0
 46 51  1  0  0  0  0
 47 65  1  0  0  0  0
 48 51  1  0  0  0  0
 48 65  1  0  0  0  0
 49 70  1  0  0  0  0
 50 64  1  0  0  0  0
 51 63  1  0  0  0  0
 52 60  1  0  0  0  0
 53 61  1  0  0  0  0
 54 61  1  0  0  0  0
 55 61  1  0  0  0  0
 56 73  1  0  0  0  0
 57 58  1  0  0  0  0
 57 72  1  0  0  0  0
 58 80  1  0  0  0  0
 59 61  1  0  0  0  0
 59 71  1  0  0  0  0
 60 73  1  0  0  0  0
 62 63  1  0  0  0  0
M  CHG  2  72   1  73   1
M  ISO  4  39 100  58 101  69 100  80 101
M  END
> <Batch ID>
0163

> <Smiles>
CNC(C)C(=O)NC(C(=O)N1Cc2cc([101O:1][101CH2:1]CNC(=N)c3cc([100NH:0][100C:0](=O)N4CCCC(n5nc(-c6ccc(Oc7ccc(F)cc7F)cc6)c(C(N)=O)c5N)C4)ccc3F)ccc2CC1C(=O)NC1CCCc2ccccc21)C(C)(C)C

> <Shape>
0.215

> <Color>
0.062

> <Negative vol penalty>
0.000

$$$$

  -OEChem-04052303593D

 88 97  0     1  0  0  0  0  0999 V2000
  -17.7197  -24.4706   24.1448 C   0  0  0  0  0  0  0  0  0  0  0  0
  -18.9461  -23.8997   23.8200 C   0  0  0  0  0  0  0  0  0  0  0  0
  -32.2755  -22.7202   22.4746 C   0  0  0  0  0  0  0  0  0  0  0  0
  -24.2919  -13.9450   20.8937 C   0  0  0  0  0  0  0  0  0  0  0  0
  -26.6432  -13.6038   20.4550 C   0  0  0  0  0  0  0  0  0  0  0  0
  -17.4587  -25.7980   23.8074 C   0  0  0  0  0  0  0  0  0  0  0  0
  -19.9119  -24.6557   23.1566 C   0  0  0  0  0  0  0  0  0  0  0  0
  -32.8420  -23.6248   21.5767 C   0  0  0  0  0  0  0  0  0  0  0  0
  -27.0144  -25.4495   22.6666 C   0  0  0  0  0  0  0  0  0  0  0  0
  -31.0561  -22.1122   22.1762 C   0  0  0  0  0  0  0  0  0  0  0  0
  -24.0318  -12.6249   20.5261 C   0  0  0  0  0  0  0  0  0  0  0  0
  -26.3830  -12.2836   20.0874 C   0  0  0  0  0  0  0  0  0  0  0  0
  -28.0305  -25.4891   21.7128 C   0  0  0  0  0  0  0  0  0  0  0  0
  -24.3051   -9.5530   21.9125 C   0  0  0  0  0  0  0  0  0  0  0  0
  -23.4536   -8.8086   22.7288 C   0  0  0  0  0  0  0  0  0  0  0  0
  -30.9697  -23.3136   20.0819 C   0  0  0  0  0  0  0  0  0  0  0  0
  -27.4985  -27.7961   21.2505 C   0  0  0  0  0  0  0  0  0  0  0  0
  -21.9458   -8.4925   20.8677 C   0  0  0  0  0  0  0  0  0  0  0  0
  -25.5976  -14.4345   20.8581 C   0  0  0  0  0  0  0  0  0  0  0  0
  -26.1768  -16.2776   22.5241 C   0  0  0  0  0  0  0  0  0  0  0  0
  -32.1891  -23.9216   20.3804 C   0  0  0  0  0  0  0  0  0  0  0  0
  -18.4254  -26.5735   23.1480 C   0  0  0  0  0  0  0  0  0  0  0  0
  -26.2242  -26.5817   22.9122 C   0  0  0  0  0  0  0  0  0  0  0  0
  -19.6631  -25.9943   22.8088 C   0  0  0  0  0  0  0  0  0  0  0  0
  -26.4747  -27.7691   22.2097 C   0  0  0  0  0  0  0  0  0  0  0  0
  -30.4032  -22.4089   20.9798 C   0  0  0  0  0  0  0  0  0  0  0  0
  -25.0773  -11.7942   20.1230 C   0  0  0  0  0  0  0  0  0  0  0  0
  -28.2708  -26.6616   21.0025 C   0  0  0  0  0  0  0  0  0  0  0  0
  -23.9770   -9.7673   20.5738 C   0  0  0  0  0  0  0  0  0  0  0  0
  -22.2740   -8.2783   22.2064 C   0  0  0  0  0  0  0  0  0  0  0  0
  -22.7974   -9.2369   20.0514 C   0  0  0  0  0  0  0  0  0  0  0  0
  -25.8670  -15.7983   21.2372 C   0  0  0  0  0  0  0  0  0  0  0  0
  -26.3426  -17.6306   22.3558 C   0  0  0  0  0  0  0  0  0  0  0  0
  -26.3035  -15.5635   23.7609 C   0  0  0  0  0  0  0  0  0  0  0  0
  -23.1306  -27.2596   22.6411 C   0  0  0  0  0  0  0  0  0  0  0  0
  -30.3143  -28.6692   19.1400 C   0  0  0  0  0  0  0  0  0  0  0  0
  -24.0146  -30.0401   24.0589 C   0  0  0  0  0  0  0  0  0  0  0  0
  -26.4896  -32.2931   24.7258 C   0  0  0  0  0  0  0  0  0  0  0  0
  -28.3864  -21.9739   19.5342 C   0  0  0  0  0  0  0  0  0  0  0  0
  -18.0799  -27.9898   22.7617 C   0  0  0  0  0  0  0  0  0  0  0  0
  -25.1496  -26.5306   23.9633 C   0  0  0  0  0  0  0  0  0  0  0  0
  -25.6680  -29.0180   22.4504 C   0  0  0  0  0  0  0  0  0  0  0  0
  -19.2966  -28.8346   22.3927 C   0  0  0  0  0  0  0  0  0  0  0  0
  -33.7129  -25.1576   17.0393 C   0  0  0  0  0  0  0  0  0  0  0  0
  -25.2994  -20.6103   18.3992 C   0  0  0  0  0  0  0  0  0  0  0  0
  -32.8677  -26.4085   16.8521 C   0  0  0  0  0  0  0  0  0  0  0  0
  -20.2138  -28.0653   21.4473 C   0  0  0  0  0  0  0  0  0  0  0  0
  -33.0721  -24.2173   18.0524 C   0  0  0  0  0  0  0  0  0  0  0  0
  -25.1974  -19.2762   19.1422 C   0  0  0  0  0  0  0  0  0  0  0  0
  -26.7388  -20.9266   17.9968 C   0  0  0  0  0  0  0  0  0  0  0  0
  -27.6136  -19.5391   19.8349 C   0  0  0  0  0  0  0  0  0  0  0  0
  -32.6278  -27.1163   18.1744 C   0  0  0  0  0  0  0  0  0  0  0  0
  -20.7455  -26.7893   22.1113 C   0  0  1  0  0  0  0  0  0  0  0  0
  -32.8063  -24.9064   19.4033 C   0  0  1  0  0  0  0  0  0  0  0  0
  -24.0701  -27.5904   23.7661 C   0  0  1  0  0  0  0  0  0  0  0  0
  -26.1919  -19.2084   20.3177 C   0  0  2  0  0  0  0  0  0  0  0  0
  -31.3080  -29.7986   19.2345 C   0  0  0  0  0  0  0  0  0  0  0  0
  -26.9001  -34.4857   25.8754 C   0  0  0  0  0  0  0  0  0  0  0  0
  -22.6685  -31.5029   21.7442 C   0  0  0  0  0  0  0  0  0  0  0  0
  -23.9050  -33.5712   22.4237 C   0  0  0  0  0  0  0  0  0  0  0  0
  -22.2740  -32.5229   23.9933 C   0  0  0  0  0  0  0  0  0  0  0  0
  -28.4422  -31.0819   26.5911 C   0  0  0  0  0  0  0  0  0  0  0  0
  -31.6269  -26.9083   20.4303 C   0  0  0  0  0  0  0  0  0  0  0  0
  -30.3074  -27.6516   20.2758 C   0  0  2  0  0  0  0  0  0  1  0  0
  -24.4918  -31.3857   23.5684 C   0  0  1  0  0  0  0  0  0  0  0  0
  -26.9133  -32.9715   26.0161 C   0  0  2  0  0  0  0  0  0  0  0  0
  -23.3489  -32.2217   22.9263 C   0  0  0  0  0  0  0  0  0  0  0  0
  -25.8369  -16.7680   20.3192 N   0  0  0  0  0  0  0  0  0  0  0  0
  -26.1299  -17.8702   21.0301 N   0  0  0  0  0  0  0  0  0  0  0  0
  -24.6243  -28.9161   23.4838 N   0  0  0  0  0  0  0  0  0  0  0  0
  -27.6229  -20.8474   19.1617 N   0  0  0  0  0  0  0  0  0  0  0  0
  -26.6480  -18.6268   23.2141 N   0  0  0  0  0  0  0  0  0  0  0  0
  -26.1006  -14.1768   23.7556 N   0  0  0  0  0  0  0  0  0  0  0  0
  -29.1648  -21.7906   20.6766 N   0  0  0  0  0  0  0  0  0  0  0  0
  -21.8145  -27.1073   23.0335 N   0  0  0  0  0  0  0  0  0  0  0  0
  -25.1362  -32.0303   24.7076 N   0  0  0  0  0  0  0  0  0  0  0  0
  -31.9682  -26.1698   19.1572 N   0  3  1  0  0  0  0  0  0  0  0  0
  -28.2902  -32.5468   26.3966 N   0  3  0  0  0  0  0  0  0  0  0  0
  -26.5722  -16.1406   24.8418 O   0  0  0  0  0  0  0  0  0  0  0  0
  -23.5673  -27.1521   21.5012 O   0  0  0  0  0  0  0  0  0  0  0  0
  -29.5404  -28.5875   18.1859 O   0  0  0  0  0  0  0  0  0  0  0  0
  -23.1384  -29.9882   24.9256 O   0  0  0  0  0  0  0  0  0  0  0  0
  -27.2796  -32.0267   23.8228 O   0  0  0  0  0  0  0  0  0  0  0  0
  -28.3316  -23.0325   18.9031 O   0  0  0  0  0  0  0  0  0  0  0  0
  -24.8238  -10.5059   19.7645 O   0  0  0  0  0  0  0  0  0  0  0  0
  -29.2615  -26.7028   20.0705 O   0  0  0  0  0  0  0  0  0  1  0  0
  -21.4571   -7.5622   22.9900 F   0  0  0  0  0  0  0  0  0  0  0  0
  -22.4774   -9.4384   18.7658 F   0  0  0  0  0  0  0  0  0  0  0  0
  1  2  1  0  0  0  0
  1  6  2  0  0  0  0
  2  7  2  0  0  0  0
  3  8  2  0  0  0  0
  3 10  1  0  0  0  0
  4 11  2  0  0  0  0
  4 19  1  0  0  0  0
  5 12  1  0  0  0  0
  5 19  2  0  0  0  0
  6 22  1  0  0  0  0
  7 24  1  0  0  0  0
  8 21  1  0  0  0  0
  9 13  2  0  0  0  0
  9 23  1  0  0  0  0
 10 26  2  0  0  0  0
 11 27  1  0  0  0  0
 12 27  2  0  0  0  0
 13 28  1  0  0  0  0
 14 15  2  0  0  0  0
 14 29  1  0  0  0  0
 15 30  1  0  0  0  0
 16 21  2  0  0  0  0
 16 26  1  0  0  0  0
 17 25  1  0  0  0  0
 17 28  2  0  0  0  0
 18 30  2  0  0  0  0
 18 31  1  0  0  0  0
 19 32  1  0  0  0  0
 20 32  1  0  0  0  0
 20 33  2  0  0  0  0
 20 34  1  0  0  0  0
 21 54  1  0  0  0  0
 22 24  2  0  0  0  0
 22 40  1  0  0  0  0
 23 25  2  0  0  0  0
 23 41  1  0  0  0  0
 24 53  1  0  0  0  0
 25 42  1  0  0  0  0
 26 74  1  0  0  0  0
 27 85  1  0  0  0  0
 28 86  1  0  0  0  0
 29 31  2  0  0  0  0
 29 85  1  0  0  0  0
 30 87  1  0  0  0  0
 31 88  1  0  0  0  0
 32 68  2  0  0  0  0
 33 69  1  0  0  0  0
 33 72  1  0  0  0  0
 34 73  1  0  0  0  0
 34 79  2  0  0  0  0
 35 55  1  0  0  0  0
 35 75  1  0  0  0  0
 35 80  2  0  0  0  0
 36 57  1  0  0  0  0
 36 64  1  0  0  0  0
 36 81  2  0  0  0  0
 37 65  1  0  0  0  0
 37 70  1  0  0  0  0
 37 82  2  0  0  0  0
 38 66  1  0  0  0  0
 38 76  1  0  0  0  0
 38 83  2  0  0  0  0
 39 71  1  0  0  0  0
 39 74  1  0  0  0  0
 39 84  2  0  0  0  0
 40 43  1  0  0  0  0
 41 55  1  0  0  0  0
 42 70  1  0  0  0  0
 43 47  1  0  0  0  0
 44 46  1  0  0  0  0
 44 48  1  0  0  0  0
 45 49  1  0  0  0  0
 45 50  1  0  0  0  0
 46 52  1  0  0  0  0
 47 53  1  0  0  0  0
 48 54  1  0  0  0  0
 49 56  1  0  0  0  0
 50 71  1  0  0  0  0
 51 56  1  0  0  0  0
 51 71  1  0  0  0  0
 52 77  1  0  0  0  0
 53 75  1  0  0  0  0
 54 77  1  0  0  0  0
 55 70  1  0  0  0  0
 56 69  1  0  0  0  0
 58 66  1  0  0  0  0
 59 67  1  0  0  0  0
 60 67  1  0  0  0  0
 61 67  1  0  0  0  0
 62 78  1  0  0  0  0
 63 64  1  0  0  0  0
 63 77  1  0  0  0  0
 64 86  1  0  0  0  0
 65 67  1  0  0  0  0
 65 76  1  0  0  0  0
 66 78  1  0  0  0  0
 68 69  1  0  0  0  0
M  CHG  2  77   1  78   1
M  ISO  4  39 100  64 101  74 100  86 101
M  END
> <Batch ID>
0163

> <Smiles>
CNC(C)C(=O)NC(C(=O)N1Cc2cc([101O:1][101CH:1](CN3CCCCC3c3cccc([100NH:0][100C:0](=O)N4CCCC(n5nc(-c6ccc(Oc7ccc(F)cc7F)cc6)c(C(N)=O)c5N)C4)c3)C(C)=O)ccc2CC1C(=O)NC1CCCc2ccccc21)C(C)(C)C

> <Shape>
0.266

> <Color>
0.072

> <Negative vol penalty>
0.000

$$$$

  -OEChem-04052303593D

 88 96  0     1  0  0  0  0  0999 V2000
  -27.1637  -37.4003   27.4846 C   0  0  0  0  0  0  0  0  0  0  0  0
  -26.2278  -36.4298   27.8276 C   0  0  0  0  0  0  0  0  0  0  0  0
  -23.2411  -10.1389   21.0449 C   0  0  0  0  0  0  0  0  0  0  0  0
  -24.7572   -8.6307   22.1691 C   0  0  0  0  0  0  0  0  0  0  0  0
  -27.0746  -18.3355   20.9762 C   0  0  0  0  0  0  0  0  0  0  0  0
  -27.4100  -37.6860   26.1423 C   0  0  0  0  0  0  0  0  0  0  0  0
  -25.5368  -35.7452   26.8286 C   0  0  0  0  0  0  0  0  0  0  0  0
  -25.8993  -28.5687   26.3200 C   0  0  0  0  0  0  0  0  0  0  0  0
  -26.3775  -19.2400   21.7771 C   0  0  0  0  0  0  0  0  0  0  0  0
  -22.3030   -9.1127   20.9334 C   0  0  0  0  0  0  0  0  0  0  0  0
  -23.8190   -7.6045   22.0576 C   0  0  0  0  0  0  0  0  0  0  0  0
  -25.7491  -27.1823   26.2851 C   0  0  0  0  0  0  0  0  0  0  0  0
  -20.9859   -6.6407   23.6276 C   0  0  0  0  0  0  0  0  0  0  0  0
  -20.7560   -5.8497   24.7532 C   0  0  0  0  0  0  0  0  0  0  0  0
  -24.3784  -27.3699   24.3017 C   0  0  0  0  0  0  0  0  0  0  0  0
  -28.3595  -20.6102   21.9549 C   0  0  0  0  0  0  0  0  0  0  0  0
  -21.4506   -3.8920   23.5195 C   0  0  0  0  0  0  0  0  0  0  0  0
  -24.4683   -9.8979   21.6627 C   0  0  0  0  0  0  0  0  0  0  0  0
  -28.4142  -18.5683   20.6647 C   0  0  0  0  0  0  0  0  0  0  0  0
  -25.5702  -11.8777   22.8346 C   0  0  0  0  0  0  0  0  0  0  0  0
  -26.7286  -36.9977   25.1261 C   0  0  0  0  0  0  0  0  0  0  0  0
  -25.3016  -29.3609   25.3358 C   0  0  0  0  0  0  0  0  0  0  0  0
  -25.7732  -36.0228   25.4715 C   0  0  0  0  0  0  0  0  0  0  0  0
  -24.5357  -28.7582   24.3243 C   0  0  0  0  0  0  0  0  0  0  0  0
  -29.0566  -19.7056   21.1540 C   0  0  0  0  0  0  0  0  0  0  0  0
  -27.0199  -20.3774   22.2664 C   0  0  0  0  0  0  0  0  0  0  0  0
  -22.5919   -7.8456   21.4398 C   0  0  0  0  0  0  0  0  0  0  0  0
  -24.9904  -26.5844   25.2786 C   0  0  0  0  0  0  0  0  0  0  0  0
  -21.4481   -6.0573   22.4478 C   0  0  0  0  0  0  0  0  0  0  0  0
  -20.9884   -4.4754   24.6992 C   0  0  0  0  0  0  0  0  0  0  0  0
  -21.6805   -4.6830   22.3938 C   0  0  0  0  0  0  0  0  0  0  0  0
  -25.4380  -10.9573   21.7777 C   0  0  0  0  0  0  0  0  0  0  0  0
  -26.6309  -12.6702   22.4692 C   0  0  0  0  0  0  0  0  0  0  0  0
  -29.1264  -17.5956   19.8170 C   0  0  0  0  0  0  0  0  0  0  0  0
  -25.7706  -24.5056   24.5419 C   0  0  0  0  0  0  0  0  0  1  0  0
  -24.8030  -12.0049   24.0391 C   0  0  0  0  0  0  0  0  0  0  0  0
  -25.7315  -23.1713   24.4439 C   0  0  0  0  0  0  0  0  0  0  0  0
  -26.7886  -22.4692   23.6453 C   0  0  0  0  0  0  0  0  0  0  0  0
  -24.7264  -32.8101   23.9764 C   0  0  0  0  0  0  0  0  0  0  0  0
  -25.1878  -30.9682   21.5670 C   0  0  0  0  0  0  0  0  0  0  0  0
  -26.1592  -28.6930   19.2182 C   0  0  0  0  0  0  0  0  0  0  0  0
  -29.2735  -15.6670   18.5720 C   0  0  0  0  0  0  0  0  0  0  0  0
  -26.9943  -37.3743   23.6901 C   0  0  0  0  0  0  0  0  0  0  0  0
  -25.3856  -30.8627   25.3692 C   0  0  0  0  0  0  0  0  0  0  0  0
  -23.8823  -29.6526   23.3064 C   0  0  0  0  0  0  0  0  0  0  0  0
  -26.4914  -36.3402   22.6861 C   0  0  0  0  0  0  0  0  0  0  0  0
  -30.0274  -12.1459   18.7674 C   0  0  0  0  0  0  0  0  0  0  0  0
  -25.0716  -35.9045   23.0343 C   0  0  0  0  0  0  0  0  0  0  0  0
  -28.8897  -11.5946   19.6268 C   0  0  0  0  0  0  0  0  0  0  0  0
  -29.5519  -13.2880   17.8746 C   0  0  0  0  0  0  0  0  0  0  0  0
  -27.7508  -13.8533   19.4825 C   0  0  0  0  0  0  0  0  0  0  0  0
  -25.0213  -35.2412   24.4160 C   0  0  1  0  0  0  0  0  0  0  0  0
  -25.4487  -31.4950   23.9672 C   0  0  1  0  0  0  0  0  0  0  0  0
  -28.2007  -12.7195   20.4197 C   0  0  1  0  0  0  0  0  0  0  0  0
  -26.5582  -28.4560   16.7520 C   0  0  0  0  0  0  0  0  0  0  0  0
  -22.1762  -30.8695   21.0929 C   0  0  0  0  0  0  0  0  0  0  0  0
  -22.6283  -29.7200   18.9152 C   0  0  0  0  0  0  0  0  0  0  0  0
  -23.4770  -32.0336   19.3020 C   0  0  0  0  0  0  0  0  0  0  0  0
  -29.0111  -28.0163   19.6271 C   0  0  0  0  0  0  0  0  0  0  0  0
  -24.5682  -30.0959   20.5047 C   0  0  1  0  0  0  0  0  0  0  0  0
  -27.1841  -28.7731   18.1013 C   0  0  2  0  0  0  0  0  0  0  0  0
  -30.4908  -19.9780   20.8365 C   0  0  0  0  0  0  0  0  0  0  0  0
  -23.2221  -30.6689   19.9781 C   0  0  0  0  0  0  0  0  0  0  0  0
  -26.3423  -11.1465   20.8130 N   0  0  0  0  0  0  0  0  0  0  0  0
  -28.5434  -16.5361   19.3600 N   0  0  0  0  0  0  0  0  0  0  0  0
  -27.0528  -12.1950   21.2624 N   0  0  0  0  0  0  0  0  0  0  0  0
  -24.8180  -30.7100   22.8925 N   0  0  0  0  0  0  0  0  0  0  0  0
  -28.8733  -14.3209   18.6585 N   0  0  0  0  0  0  0  0  0  0  0  0
  -27.2344  -13.7202   23.0656 N   0  0  0  0  0  0  0  0  0  0  0  0
  -23.7481  -11.1083   24.2572 N   0  0  0  0  0  0  0  0  0  0  0  0
  -26.3116  -21.2949   23.0793 N   0  0  0  0  0  0  0  0  0  0  0  0
  -25.5160  -33.8832   24.3430 N   0  0  0  0  0  0  0  0  0  0  0  0
  -25.5867  -29.9209   19.4750 N   0  0  0  0  0  0  0  0  0  0  0  0
  -28.2917  -27.8061   18.3444 N   0  3  0  0  0  0  0  0  0  0  0  0
  -25.0352  -12.8980   24.8889 O   0  0  0  0  0  0  0  0  0  0  0  0
  -27.9185  -22.9359   23.5478 O   0  0  0  0  0  0  0  0  0  0  0  0
  -23.5400  -32.8499   23.6719 O   0  0  0  0  0  0  0  0  0  0  0  0
  -25.9742  -31.8589   21.2330 O   0  0  0  0  0  0  0  0  0  0  0  0
  -25.8903  -27.6453   19.8017 O   0  0  0  0  0  0  0  0  0  0  0  0
  -30.2014  -16.0179   17.8392 O   0  0  0  0  0  0  0  0  0  0  0  0
  -24.7535  -22.4108   25.0520 O   0  0  0  0  0  0  0  0  0  0  0  0
  -21.6766   -6.8441   21.3313 O   0  0  0  0  0  0  0  0  0  0  0  0
  -24.8516  -25.2299   25.2479 O   0  0  0  0  0  0  0  0  0  1  0  0
  -20.7690   -3.7162   25.7807 F   0  0  0  0  0  0  0  0  0  0  0  0
  -22.1256   -4.1171   21.2636 F   0  0  0  0  0  0  0  0  0  0  0  0
  -30.9631  -21.1306   21.3947 F   0  0  0  0  0  0  0  0  0  0  0  0
  -31.3388  -18.9984   21.2658 F   0  0  0  0  0  0  0  0  0  0  0  0
  -30.7157  -20.0987   19.4967 F   0  0  0  0  0  0  0  0  0  0  0  0
  1  2  1  0  0  0  0
  1  6  2  0  0  0  0
  2  7  2  0  0  0  0
  3 10  2  0  0  0  0
  3 18  1  0  0  0  0
  4 11  1  0  0  0  0
  4 18  2  0  0  0  0
  5  9  2  0  0  0  0
  5 19  1  0  0  0  0
  6 21  1  0  0  0  0
  7 23  1  0  0  0  0
  8 12  2  0  0  0  0
  8 22  1  0  0  0  0
  9 26  1  0  0  0  0
 10 27  1  0  0  0  0
 11 27  2  0  0  0  0
 12 28  1  0  0  0  0
 13 14  2  0  0  0  0
 13 29  1  0  0  0  0
 14 30  1  0  0  0  0
 15 24  1  0  0  0  0
 15 28  2  0  0  0  0
 16 25  1  0  0  0  0
 16 26  2  0  0  0  0
 17 30  2  0  0  0  0
 17 31  1  0  0  0  0
 18 32  1  0  0  0  0
 19 25  2  0  0  0  0
 19 34  1  0  0  0  0
 20 32  1  0  0  0  0
 20 33  2  0  0  0  0
 20 36  1  0  0  0  0
 21 23  2  0  0  0  0
 21 43  1  0  0  0  0
 22 24  2  0  0  0  0
 22 44  1  0  0  0  0
 23 52  1  0  0  0  0
 24 45  1  0  0  0  0
 25 62  1  0  0  0  0
 26 71  1  0  0  0  0
 27 82  1  0  0  0  0
 28 83  1  0  0  0  0
 29 31  2  0  0  0  0
 29 82  1  0  0  0  0
 30 84  1  0  0  0  0
 31 85  1  0  0  0  0
 32 64  2  0  0  0  0
 33 66  1  0  0  0  0
 33 69  1  0  0  0  0
 34 65  2  0  0  0  0
 35 37  2  0  0  0  0
 35 83  1  0  0  0  0
 36 70  1  0  0  0  0
 36 75  2  0  0  0  0
 37 38  1  0  0  0  0
 37 81  1  0  0  0  0
 38 71  1  0  0  0  0
 38 76  2  0  0  0  0
 39 53  1  0  0  0  0
 39 72  1  0  0  0  0
 39 77  2  0  0  0  0
 40 60  1  0  0  0  0
 40 67  1  0  0  0  0
 40 78  2  0  0  0  0
 41 61  1  0  0  0  0
 41 73  1  0  0  0  0
 41 79  2  0  0  0  0
 42 65  1  0  0  0  0
 42 68  1  0  0  0  0
 42 80  2  0  0  0  0
 43 46  1  0  0  0  0
 44 53  1  0  0  0  0
 45 67  1  0  0  0  0
 46 48  1  0  0  0  0
 47 49  1  0  0  0  0
 47 50  1  0  0  0  0
 48 52  1  0  0  0  0
 49 54  1  0  0  0  0
 50 68  1  0  0  0  0
 51 54  1  0  0  0  0
 51 68  1  0  0  0  0
 52 72  1  0  0  0  0
 53 67  1  0  0  0  0
 54 66  1  0  0  0  0
 55 61  1  0  0  0  0
 56 63  1  0  0  0  0
 57 63  1  0  0  0  0
 58 63  1  0  0  0  0
 59 74  1  0  0  0  0
 60 63  1  0  0  0  0
 60 73  1  0  0  0  0
 61 74  1  0  0  0  0
 62 86  1  0  0  0  0
 62 87  1  0  0  0  0
 62 88  1  0  0  0  0
 64 66  1  0  0  0  0
M  CHG  1  74   1
M  ISO  4  35 101  42 100  65 100  83 101
M  END
> <Batch ID>
0163

> <Smiles>
CNC(C)C(=O)NC(C(=O)N1Cc2cc([101O:1][101CH2:1]C(=O)C(=O)Nc3ccc(C=[100N:0][100C:0](=O)N4CCCC(n5nc(-c6ccc(Oc7ccc(F)cc7F)cc6)c(C(N)=O)c5N)C4)c(C(F)(F)F)c3)ccc2CC1C(=O)NC1CCCc2ccccc21)C(C)(C)C

> <Shape>
0.306

> <Color>
0.104

> <Negative vol penalty>
0.000

$$$$

  -OEChem-04052303593D

 89 97  0     1  0  0  0  0  0999 V2000
  -35.0524  -31.9638   23.4059 C   0  0  0  0  0  0  0  0  0  0  0  0
  -33.9327  -31.2931   22.9245 C   0  0  0  0  0  0  0  0  0  0  0  0
  -23.0721   -9.8695   19.9457 C   0  0  0  0  0  0  0  0  0  0  0  0
  -23.8342   -9.8804   22.2383 C   0  0  0  0  0  0  0  0  0  0  0  0
  -36.1697  -31.2422   23.8239 C   0  0  0  0  0  0  0  0  0  0  0  0
  -33.9301  -29.9001   22.8598 C   0  0  0  0  0  0  0  0  0  0  0  0
  -29.1470  -26.1819   23.7558 C   0  0  0  0  0  0  0  0  0  0  0  0
  -22.3284   -8.7168   20.1984 C   0  0  0  0  0  0  0  0  0  0  0  0
  -23.0905   -8.7278   22.4911 C   0  0  0  0  0  0  0  0  0  0  0  0
  -28.2822  -25.5368   22.8728 C   0  0  0  0  0  0  0  0  0  0  0  0
  -22.9008   -5.3988   20.4946 C   0  0  0  0  0  0  0  0  0  0  0  0
  -22.9666   -4.3676   19.5578 C   0  0  0  0  0  0  0  0  0  0  0  0
  -28.3142  -19.4174   24.2902 C   0  0  0  0  0  0  0  0  0  0  0  0
  -29.6293  -23.5412   23.0209 C   0  0  0  0  0  0  0  0  0  0  0  0
  -29.3606  -18.8997   22.1750 C   0  0  0  0  0  0  0  0  0  0  0  0
  -20.5818   -4.5329   19.2081 C   0  0  0  0  0  0  0  0  0  0  0  0
  -23.8250  -10.4513   20.9656 C   0  0  0  0  0  0  0  0  0  0  0  0
  -28.8961  -18.2829   24.8558 C   0  0  0  0  0  0  0  0  0  0  0  0
  -24.1669  -12.9762   20.8408 C   0  0  0  0  0  0  0  0  0  0  0  0
  -36.1772  -29.8393   23.7733 C   0  0  0  0  0  0  0  0  0  0  0  0
  -30.2675  -25.5139   24.2703 C   0  0  0  0  0  0  0  0  0  0  0  0
  -35.0491  -29.1591   23.2763 C   0  0  0  0  0  0  0  0  0  0  0  0
  -30.5054  -24.1792   23.9122 C   0  0  0  0  0  0  0  0  0  0  0  0
  -29.9426  -17.7652   22.7406 C   0  0  0  0  0  0  0  0  0  0  0  0
  -29.7103  -17.4568   24.0810 C   0  0  0  0  0  0  0  0  0  0  0  0
  -28.5464  -19.7258   22.9498 C   0  0  0  0  0  0  0  0  0  0  0  0
  -22.3375   -8.1460   21.4711 C   0  0  0  0  0  0  0  0  0  0  0  0
  -28.5248  -24.2172   22.5030 C   0  0  0  0  0  0  0  0  0  0  0  0
  -21.6754   -5.9971   20.7883 C   0  0  0  0  0  0  0  0  0  0  0  0
  -21.8072   -3.9346   18.9145 C   0  0  0  0  0  0  0  0  0  0  0  0
  -20.5159   -5.5642   20.1451 C   0  0  0  0  0  0  0  0  0  0  0  0
  -24.5939  -11.6416   20.7050 C   0  0  0  0  0  0  0  0  0  0  0  0
  -25.2587  -13.7250   20.4751 C   0  0  0  0  0  0  0  0  0  0  0  0
  -28.6337  -17.9858   26.2575 C   0  0  0  0  0  0  0  0  0  0  0  0
  -22.8969  -13.4928   21.2601 C   0  0  0  0  0  0  0  0  0  0  0  0
  -33.4115  -25.9527   24.1070 C   0  0  0  0  0  0  0  0  0  0  0  0
  -33.4714  -23.5006   26.2296 C   0  0  0  0  0  0  0  0  0  0  0  0
  -31.9150  -20.7562   27.5307 C   0  0  0  0  0  0  0  0  0  0  0  0
  -30.7427  -14.7440   20.6563 C   0  0  0  0  0  0  0  0  0  0  0  0
  -37.4260  -29.1045   24.1919 C   0  0  0  0  0  0  0  0  0  0  0  0
  -31.1759  -26.2152   25.2425 C   0  0  0  0  0  0  0  0  0  0  0  0
  -31.6830  -23.4111   24.4523 C   0  0  0  0  0  0  0  0  0  0  0  0
  -37.2016  -27.6154   24.4420 C   0  0  0  0  0  0  0  0  0  0  0  0
  -29.6026  -12.3554   18.2749 C   0  0  0  0  0  0  0  0  0  0  0  0
  -36.3858  -27.0008   23.3090 C   0  0  0  0  0  0  0  0  0  0  0  0
  -28.1656  -12.0625   18.7097 C   0  0  0  0  0  0  0  0  0  0  0  0
  -30.5210  -12.5782   19.4745 C   0  0  0  0  0  0  0  0  0  0  0  0
  -28.6206  -13.3119   20.8616 C   0  0  0  0  0  0  0  0  0  0  0  0
  -34.9988  -27.6479   23.2139 C   0  0  1  0  0  0  0  0  0  0  0  0
  -32.5722  -25.6037   25.3034 C   0  0  1  0  0  0  0  0  0  0  0  0
  -27.6453  -13.1353   19.6853 C   0  0  2  0  0  0  0  0  0  0  0  0
  -27.0545  -16.7864   27.8636 C   0  0  0  0  0  0  0  0  0  0  0  0
  -32.2272  -18.9339   29.2275 C   0  0  0  0  0  0  0  0  0  0  0  0
  -35.4111  -22.0840   24.3479 C   0  0  0  0  0  0  0  0  0  0  0  0
  -34.9429  -19.9555   25.5801 C   0  0  0  0  0  0  0  0  0  0  0  0
  -35.9791  -21.8844   26.7752 C   0  0  0  0  0  0  0  0  0  0  0  0
  -25.7986  -22.2677   21.0441 C   0  0  0  0  0  0  0  0  0  0  0  0
  -25.6933  -23.8785   22.9585 C   0  0  0  0  0  0  0  0  0  0  0  0
  -29.5314  -21.6136   29.0611 C   0  0  0  0  0  0  0  0  0  0  0  0
  -30.8099  -16.8967   21.8893 C   0  0  0  0  0  0  0  0  0  0  0  0
  -30.3358  -16.2388   24.6844 C   0  0  0  0  0  0  0  0  0  0  0  0
  -27.1823  -17.7546   26.6978 C   0  0  0  0  0  0  0  0  0  0  0  0
  -27.1126  -21.7609   23.1176 C   0  0  0  0  0  0  0  0  0  0  0  0
  -33.5389  -21.9962   26.1236 C   0  0  1  0  0  0  0  0  0  0  0  0
  -31.6680  -20.3234   28.9646 C   0  0  2  0  0  0  0  0  0  0  0  0
  -34.9468  -21.4948   25.6948 C   0  0  0  0  0  0  0  0  0  0  0  0
  -26.5800  -22.8802   22.2095 C   0  0  0  0  0  0  0  0  0  1  0  0
  -25.8584  -11.5450   20.2857 N   0  0  0  0  0  0  0  0  0  0  0  0
  -26.2352  -12.8283   20.1547 N   0  0  0  0  0  0  0  0  0  0  0  0
  -32.5457  -24.1424   25.3948 N   0  0  0  0  0  0  0  0  0  0  0  0
  -29.9713  -13.6084   20.3592 N   0  0  0  0  0  0  0  0  0  0  0  0
  -25.4691  -15.0563   20.3996 N   0  0  0  0  0  0  0  0  0  0  0  0
  -21.8852  -12.5843   21.6000 N   0  0  0  0  0  0  0  0  0  0  0  0
  -27.9684  -20.8518   22.3885 N   0  0  0  0  0  0  0  0  0  0  0  0
  -34.1264  -27.1272   24.2446 N   0  0  0  0  0  0  0  0  0  0  0  0
  -33.0850  -21.4756   27.4086 N   0  0  0  0  0  0  0  0  0  0  0  0
  -30.1445  -15.6743   21.4973 N   0  0  0  0  0  0  0  0  0  0  0  0
  -31.6728  -16.5006   25.2805 N   0  3  0  0  0  0  0  0  0  0  0  0
  -30.2065  -20.3046   29.2555 N   0  3  0  0  0  0  0  0  0  0  0  0
  -29.5330  -17.9127   27.1102 O   0  0  0  0  0  0  0  0  0  0  0  0
  -22.6607  -14.7235   21.3155 O   0  0  0  0  0  0  0  0  0  0  0  0
  -33.4115  -25.2106   23.1318 O   0  0  0  0  0  0  0  0  0  0  0  0
  -34.2077  -24.0840   27.0290 O   0  0  0  0  0  0  0  0  0  0  0  0
  -31.1488  -20.4801   26.6102 O   0  0  0  0  0  0  0  0  0  0  0  0
  -31.8782  -14.9186   20.2013 O   0  0  0  0  0  0  0  0  0  0  0  0
  -21.6118   -7.0213   21.7181 O   0  0  0  0  0  0  0  0  0  0  0  0
  -27.6826  -23.5853   21.6408 O   0  0  0  0  0  0  0  0  0  1  0  0
  -21.8708   -2.9453   18.0137 F   0  0  0  0  0  0  0  0  0  0  0  0
  -19.3360   -6.1359   20.4222 F   0  0  0  0  0  0  0  0  0  0  0  0
  1  2  1  0  0  0  0
  1  5  2  0  0  0  0
  2  6  2  0  0  0  0
  3  8  2  0  0  0  0
  3 17  1  0  0  0  0
  4  9  1  0  0  0  0
  4 17  2  0  0  0  0
  5 20  1  0  0  0  0
  6 22  1  0  0  0  0
  7 10  2  0  0  0  0
  7 21  1  0  0  0  0
  8 27  1  0  0  0  0
  9 27  2  0  0  0  0
 10 28  1  0  0  0  0
 11 12  2  0  0  0  0
 11 29  1  0  0  0  0
 12 30  1  0  0  0  0
 13 18  1  0  0  0  0
 13 26  2  0  0  0  0
 14 23  1  0  0  0  0
 14 28  2  0  0  0  0
 15 24  2  0  0  0  0
 15 26  1  0  0  0  0
 16 30  2  0  0  0  0
 16 31  1  0  0  0  0
 17 32  1  0  0  0  0
 18 25  2  0  0  0  0
 18 34  1  0  0  0  0
 19 32  1  0  0  0  0
 19 33  2  0  0  0  0
 19 35  1  0  0  0  0
 20 22  2  0  0  0  0
 20 40  1  0  0  0  0
 21 23  2  0  0  0  0
 21 41  1  0  0  0  0
 22 49  1  0  0  0  0
 23 42  1  0  0  0  0
 24 25  1  0  0  0  0
 24 60  1  0  0  0  0
 25 61  1  0  0  0  0
 26 74  1  0  0  0  0
 27 86  1  0  0  0  0
 28 87  1  0  0  0  0
 29 31  2  0  0  0  0
 29 86  1  0  0  0  0
 30 88  1  0  0  0  0
 31 89  1  0  0  0  0
 32 68  2  0  0  0  0
 33 69  1  0  0  0  0
 33 72  1  0  0  0  0
 34 62  1  0  0  0  0
 34 80  2  0  0  0  0
 35 73  1  0  0  0  0
 35 81  2  0  0  0  0
 36 50  1  0  0  0  0
 36 75  1  0  0  0  0
 36 82  2  0  0  0  0
 37 64  1  0  0  0  0
 37 70  1  0  0  0  0
 37 83  2  0  0  0  0
 38 65  1  0  0  0  0
 38 76  1  0  0  0  0
 38 84  2  0  0  0  0
 39 71  1  0  0  0  0
 39 77  1  0  0  0  0
 39 85  2  0  0  0  0
 40 43  1  0  0  0  0
 41 50  1  0  0  0  0
 42 70  1  0  0  0  0
 43 45  1  0  0  0  0
 44 46  1  0  0  0  0
 44 47  1  0  0  0  0
 45 49  1  0  0  0  0
 46 51  1  0  0  0  0
 47 71  1  0  0  0  0
 48 51  1  0  0  0  0
 48 71  1  0  0  0  0
 49 75  1  0  0  0  0
 50 70  1  0  0  0  0
 51 69  1  0  0  0  0
 52 62  1  0  0  0  0
 53 65  1  0  0  0  0
 54 66  1  0  0  0  0
 55 66  1  0  0  0  0
 56 66  1  0  0  0  0
 57 67  1  0  0  0  0
 58 67  1  0  0  0  0
 59 79  1  0  0  0  0
 60 77  1  0  0  0  0
 61 78  1  0  0  0  0
 63 67  1  0  0  0  0
 63 74  1  0  0  0  0
 64 66  1  0  0  0  0
 64 76  1  0  0  0  0
 65 79  1  0  0  0  0
 67 87  1  0  0  0  0
 68 69  1  0  0  0  0
M  CHG  2  78   1  79   1
M  ISO  4  39 100  67 101  77 100  87 101
M  END
> <Batch ID>
0163

> <Smiles>
CCC(=O)c1cc(NC[101C:1](C)(C)[101O:1]c2ccc3c(c2)CN(C(=O)C(NC(=O)C(C)NC)C(C)(C)C)C(C(=O)NC2CCCc4ccccc42)C3)cc(C[100NH:0][100C:0](=O)N2CCCC(n3nc(-c4ccc(Oc5ccc(F)cc5F)cc4)c(C(N)=O)c3N)C2)c1CN

> <Shape>
0.157

> <Color>
0.176

> <Negative vol penalty>
0.000

$$$$

  -OEChem-04052303593D

 84 93  0     1  0  0  0  0  0999 V2000
  -22.4968  -11.4365   18.7533 C   0  0  0  0  0  0  0  0  0  0  0  0
  -22.1856  -12.7797   18.5679 C   0  0  0  0  0  0  0  0  0  0  0  0
  -18.4472  -28.3198   23.6250 C   0  0  0  0  0  0  0  0  0  0  0  0
  -30.2816  -26.6507   20.8553 C   0  0  0  0  0  0  0  0  0  0  0  0
  -28.8269  -25.1332   22.0461 C   0  0  0  0  0  0  0  0  0  0  0  0
  -23.5019  -11.0721   19.6481 C   0  0  0  0  0  0  0  0  0  0  0  0
  -22.8787  -13.7593   19.2781 C   0  0  0  0  0  0  0  0  0  0  0  0
  -24.3854  -19.3599   17.3112 C   0  0  0  0  0  0  0  0  0  0  0  0
  -19.6016  -28.8558   23.0653 C   0  0  0  0  0  0  0  0  0  0  0  0
  -31.3837  -26.1205   21.5259 C   0  0  0  0  0  0  0  0  0  0  0  0
  -29.9290  -24.6029   22.7167 C   0  0  0  0  0  0  0  0  0  0  0  0
  -23.8010  -20.6108   17.5050 C   0  0  0  0  0  0  0  0  0  0  0  0
  -32.8256  -26.4150   24.5687 C   0  0  0  0  0  0  0  0  0  0  0  0
  -33.7624  -27.3108   25.0838 C   0  0  0  0  0  0  0  0  0  0  0  0
  -25.3288  -21.0362   19.3227 C   0  0  0  0  0  0  0  0  0  0  0  0
  -35.4764  -26.3110   23.7054 C   0  0  0  0  0  0  0  0  0  0  0  0
  -18.1422  -26.9983   23.3416 C   0  0  0  0  0  0  0  0  0  0  0  0
  -29.0031  -26.1571   21.1154 C   0  0  0  0  0  0  0  0  0  0  0  0
  -27.3206  -26.2663   19.2010 C   0  0  0  0  0  0  0  0  0  0  0  0
  -24.2143  -12.0482   20.3625 C   0  0  0  0  0  0  0  0  0  0  0  0
  -25.4404  -18.9326   18.1302 C   0  0  0  0  0  0  0  0  0  0  0  0
  -23.8934  -13.4075   20.1844 C   0  0  0  0  0  0  0  0  0  0  0  0
  -25.9265  -19.7805   19.1356 C   0  0  0  0  0  0  0  0  0  0  0  0
  -20.4045  -28.0651   22.2507 C   0  0  0  0  0  0  0  0  0  0  0  0
  -31.2074  -25.0966   22.4566 C   0  0  0  0  0  0  0  0  0  0  0  0
  -24.2708  -21.4480   18.5127 C   0  0  0  0  0  0  0  0  0  0  0  0
  -33.2141  -25.4670   23.6220 C   0  0  0  0  0  0  0  0  0  0  0  0
  -35.0878  -27.2589   24.6521 C   0  0  0  0  0  0  0  0  0  0  0  0
  -34.5395  -25.4151   23.1904 C   0  0  0  0  0  0  0  0  0  0  0  0
  -27.8642  -26.7048   20.4234 C   0  0  0  0  0  0  0  0  0  0  0  0
  -20.0120  -26.7549   22.0289 C   0  0  0  0  0  0  0  0  0  0  0  0
  -26.2581  -27.1073   18.9764 C   0  0  0  0  0  0  0  0  0  0  0  0
  -21.0782  -24.9144   18.7973 C   0  0  0  0  0  0  0  0  0  0  0  0
  -21.6711  -23.8071   19.2763 C   0  0  0  0  0  0  0  0  0  0  0  0
  -27.7387  -25.1947   18.3452 C   0  0  0  0  0  0  0  0  0  0  0  0
  -25.8669  -16.5313   20.1687 C   0  0  0  0  0  0  0  0  0  0  0  0
  -28.9059  -17.6619   20.2593 C   0  0  0  0  0  0  0  0  0  0  0  0
  -31.0316  -20.2957   19.8218 C   0  0  0  0  0  0  0  0  0  0  0  0
  -22.0794  -29.8979   21.8243 C   0  0  0  0  0  0  0  0  0  0  0  0
  -25.2602  -11.6033   21.3539 C   0  0  0  0  0  0  0  0  0  0  0  0
  -26.0776  -17.5913   17.8910 C   0  0  0  0  0  0  0  0  0  0  0  0
  -27.0702  -19.3771   20.0288 C   0  0  0  0  0  0  0  0  0  0  0  0
  -20.4481  -25.9664   19.6641 C   0  0  0  0  0  0  0  0  0  0  0  0
  -21.7258  -23.5043   20.7530 C   0  0  0  0  0  0  0  0  0  0  0  0
  -26.2025  -12.7228   21.7888 C   0  0  0  0  0  0  0  0  0  0  0  0
  -20.7848  -24.3733   21.5945 C   0  0  0  0  0  0  0  0  0  0  0  0
  -24.9616  -31.5961   20.6053 C   0  0  0  0  0  0  0  0  0  0  0  0
  -25.4127  -13.9807   22.1361 C   0  0  0  0  0  0  0  0  0  0  0  0
  -25.9520  -30.4662   20.3140 C   0  0  0  0  0  0  0  0  0  0  0  0
  -24.1244  -31.3094   21.8505 C   0  0  0  0  0  0  0  0  0  0  0  0
  -24.4274  -28.8818   21.5600 C   0  0  0  0  0  0  0  0  0  0  0  0
  -24.6397  -14.5007   20.9180 C   0  0  1  0  0  0  0  0  0  0  0  0
  -20.8445  -25.8423   21.1478 C   0  0  2  0  0  0  0  0  0  0  0  0
  -26.8064  -17.0489   19.1166 C   0  0  1  0  0  0  0  0  0  0  0  0
  -25.2482  -29.0954   20.2777 C   0  0  2  0  0  0  0  0  0  0  0  0
  -33.4537  -20.9244   20.0090 C   0  0  0  0  0  0  0  0  0  0  0  0
  -28.6371  -17.7836   23.2962 C   0  0  0  0  0  0  0  0  0  0  0  0
  -30.6520  -19.2689   23.3453 C   0  0  0  0  0  0  0  0  0  0  0  0
  -30.8437  -16.9381   22.4773 C   0  0  0  0  0  0  0  0  0  0  0  0
  -31.2046  -20.9483   16.9403 C   0  0  0  0  0  0  0  0  0  0  0  0
  -22.3204  -22.8015   18.3720 C   0  0  0  0  0  0  0  0  0  1  0  0
  -29.6430  -18.6810   21.0942 C   0  0  1  0  0  0  0  0  0  0  0  0
  -32.3567  -20.4099   19.0900 C   0  0  2  0  0  0  0  0  0  0  0  0
  -29.9211  -18.1750   22.5379 C   0  0  0  0  0  0  0  0  0  0  0  0
  -18.8975  -26.1992   22.5551 N   0  0  0  0  0  0  0  0  0  0  0  0
  -27.2018  -27.7436   20.9391 N   0  0  0  0  0  0  0  0  0  0  0  0
  -26.2312  -27.9651   20.0364 N   0  0  0  0  0  0  0  0  0  0  0  0
  -27.6558  -18.0535   19.7596 N   0  0  0  0  0  0  0  0  0  0  0  0
  -23.4846  -29.9964   21.7433 N   0  0  0  0  0  0  0  0  0  0  0  0
  -25.3537  -27.1893   17.9776 N   0  0  0  0  0  0  0  0  0  0  0  0
  -28.8496  -24.4299   18.7262 N   0  0  0  0  0  0  0  0  0  0  0  0
  -21.5826  -28.6034   21.6762 N   0  0  0  0  0  0  0  0  0  0  0  0
  -25.5292  -15.2001   20.0158 N   0  0  0  0  0  0  0  0  0  0  0  0
  -30.8431  -19.0331   20.3430 N   0  0  0  0  0  0  0  0  0  0  0  0
  -32.2326  -21.3454   17.9366 N   0  3  0  0  0  0  0  0  0  0  0  0
  -27.1547  -24.9338   17.2661 O   0  0  0  0  0  0  0  0  0  0  0  0
  -25.4782  -17.2836   21.0546 O   0  0  0  0  0  0  0  0  0  0  0  0
  -29.4235  -16.5615   20.0520 O   0  0  0  0  0  0  0  0  0  0  0  0
  -30.2442  -21.2338   19.9242 O   0  0  0  0  0  0  0  0  0  0  0  0
  -21.3673  -30.8926   21.9840 O   0  0  0  0  0  0  0  0  0  0  0  0
  -32.2827  -24.5788   23.1111 O   0  0  0  0  0  0  0  0  0  0  0  0
  -23.7018  -22.6692   18.7043 O   0  0  0  0  0  0  0  0  0  1  0  0
  -35.9870  -28.1203   25.1457 F   0  0  0  0  0  0  0  0  0  0  0  0
  -34.9185  -24.5074   22.2803 F   0  0  0  0  0  0  0  0  0  0  0  0
  1  2  1  0  0  0  0
  1  6  2  0  0  0  0
  2  7  2  0  0  0  0
  3  9  2  0  0  0  0
  3 17  1  0  0  0  0
  4 10  2  0  0  0  0
  4 18  1  0  0  0  0
  5 11  1  0  0  0  0
  5 18  2  0  0  0  0
  6 20  1  0  0  0  0
  7 22  1  0  0  0  0
  8 12  2  0  0  0  0
  8 21  1  0  0  0  0
  9 24  1  0  0  0  0
 10 25  1  0  0  0  0
 11 25  2  0  0  0  0
 12 26  1  0  0  0  0
 13 14  2  0  0  0  0
 13 27  1  0  0  0  0
 14 28  1  0  0  0  0
 15 23  1  0  0  0  0
 15 26  2  0  0  0  0
 16 28  2  0  0  0  0
 16 29  1  0  0  0  0
 17 65  2  0  0  0  0
 18 30  1  0  0  0  0
 19 30  1  0  0  0  0
 19 32  2  0  0  0  0
 19 35  1  0  0  0  0
 20 22  2  0  0  0  0
 20 40  1  0  0  0  0
 21 23  2  0  0  0  0
 21 41  1  0  0  0  0
 22 52  1  0  0  0  0
 23 42  1  0  0  0  0
 24 31  2  0  0  0  0
 24 72  1  0  0  0  0
 25 81  1  0  0  0  0
 26 82  1  0  0  0  0
 27 29  2  0  0  0  0
 27 81  1  0  0  0  0
 28 83  1  0  0  0  0
 29 84  1  0  0  0  0
 30 66  2  0  0  0  0
 31 53  1  0  0  0  0
 31 65  1  0  0  0  0
 32 67  1  0  0  0  0
 32 70  1  0  0  0  0
 33 34  2  0  0  0  0
 33 43  1  0  0  0  0
 34 44  1  0  0  0  0
 34 61  1  0  0  0  0
 35 71  1  0  0  0  0
 35 76  2  0  0  0  0
 36 54  1  0  0  0  0
 36 73  1  0  0  0  0
 36 77  2  0  0  0  0
 37 62  1  0  0  0  0
 37 68  1  0  0  0  0
 37 78  2  0  0  0  0
 38 63  1  0  0  0  0
 38 74  1  0  0  0  0
 38 79  2  0  0  0  0
 39 69  1  0  0  0  0
 39 72  1  0  0  0  0
 39 80  2  0  0  0  0
 40 45  1  0  0  0  0
 41 54  1  0  0  0  0
 42 68  1  0  0  0  0
 43 53  1  0  0  0  0
 44 46  1  0  0  0  0
 45 48  1  0  0  0  0
 46 53  1  0  0  0  0
 47 49  1  0  0  0  0
 47 50  1  0  0  0  0
 48 52  1  0  0  0  0
 49 55  1  0  0  0  0
 50 69  1  0  0  0  0
 51 55  1  0  0  0  0
 51 69  1  0  0  0  0
 52 73  1  0  0  0  0
 54 68  1  0  0  0  0
 55 67  1  0  0  0  0
 56 63  1  0  0  0  0
 57 64  1  0  0  0  0
 58 64  1  0  0  0  0
 59 64  1  0  0  0  0
 60 75  1  0  0  0  0
 61 82  1  0  0  0  0
 62 64  1  0  0  0  0
 62 74  1  0  0  0  0
 63 75  1  0  0  0  0
 66 67  1  0  0  0  0
M  CHG  1  75   1
M  ISO  4  39 100  61 101  72 100  82 101
M  END
> <Batch ID>
0163

> <Smiles>
CNC(C)C(=O)NC(C(=O)N1Cc2cc([101O:1][101CH2:1]C3=CCC(c4ncccc4[100NH:0][100C:0](=O)N4CCCC(n5nc(-c6ccc(Oc7ccc(F)cc7F)cc6)c(C(N)=O)c5N)C4)CC3)ccc2CC1C(=O)NC1CCCc2ccccc21)C(C)(C)C

> <Shape>
0.224

> <Color>
0.082

> <Negative vol penalty>
0.000

$$$$

  -OEChem-04052303593D

 86 94  0     1  0  0  0  0  0999 V2000
  -27.4608  -13.4355   16.9878 C   0  0  0  0  0  0  0  0  0  0  0  0
  -26.5231  -14.4608   16.9182 C   0  0  0  0  0  0  0  0  0  0  0  0
  -29.2222  -25.2775   20.3056 C   0  0  0  0  0  0  0  0  0  0  0  0
  -27.2186  -23.9433   20.0994 C   0  0  0  0  0  0  0  0  0  0  0  0
  -27.4674  -12.5715   18.0821 C   0  0  0  0  0  0  0  0  0  0  0  0
  -25.5906  -14.6220   17.9423 C   0  0  0  0  0  0  0  0  0  0  0  0
  -23.2956  -19.9006   20.0341 C   0  0  0  0  0  0  0  0  0  0  0  0
  -29.9108  -24.1678   20.7952 C   0  0  0  0  0  0  0  0  0  0  0  0
  -27.9073  -22.8334   20.5890 C   0  0  0  0  0  0  0  0  0  0  0  0
  -22.1011  -20.5717   19.7762 C   0  0  0  0  0  0  0  0  0  0  0  0
  -29.2329  -19.5580   21.4448 C   0  0  0  0  0  0  0  0  0  0  0  0
  -29.0571  -18.3418   20.7849 C   0  0  0  0  0  0  0  0  0  0  0  0
  -21.1242  -19.5770   21.7448 C   0  0  0  0  0  0  0  0  0  0  0  0
  -19.8600  -27.0290   21.6795 C   0  0  0  0  0  0  0  0  0  0  0  0
  -19.7552  -28.8490   23.2649 C   0  0  0  0  0  0  0  0  0  0  0  0
  -29.9168  -19.3213   18.7505 C   0  0  0  0  0  0  0  0  0  0  0  0
  -27.8760  -25.1653   19.9578 C   0  0  0  0  0  0  0  0  0  0  0  0
  -27.0374  -26.7088   18.1079 C   0  0  0  0  0  0  0  0  0  0  0  0
  -26.5406  -12.7282   19.1248 C   0  0  0  0  0  0  0  0  0  0  0  0
  -23.4101  -19.0527   21.1451 C   0  0  0  0  0  0  0  0  0  0  0  0
  -25.5839  -13.7585   19.0509 C   0  0  0  0  0  0  0  0  0  0  0  0
  -22.3221  -18.8983   22.0160 C   0  0  0  0  0  0  0  0  0  0  0  0
  -20.3954  -28.2042   22.2066 C   0  0  0  0  0  0  0  0  0  0  0  0
  -18.6843  -26.4986   22.2106 C   0  0  0  0  0  0  0  0  0  0  0  0
  -18.0440  -27.1434   23.2689 C   0  0  0  0  0  0  0  0  0  0  0  0
  -29.2534  -22.9457   20.9368 C   0  0  0  0  0  0  0  0  0  0  0  0
  -21.0142  -20.4077   20.6300 C   0  0  0  0  0  0  0  0  0  0  0  0
  -29.7505  -20.6560   20.7576 C   0  0  0  0  0  0  0  0  0  0  0  0
  -29.3990  -18.2234   19.4378 C   0  0  0  0  0  0  0  0  0  0  0  0
  -18.5794  -28.3186   23.7961 C   0  0  0  0  0  0  0  0  0  0  0  0
  -30.0925  -20.5376   19.4105 C   0  0  0  0  0  0  0  0  0  0  0  0
  -27.1639  -26.3115   19.4525 C   0  0  0  0  0  0  0  0  0  0  0  0
  -26.2724  -27.8485   18.1572 C   0  0  0  0  0  0  0  0  0  0  0  0
  -27.5642  -26.1020   16.9205 C   0  0  0  0  0  0  0  0  0  0  0  0
  -18.4461  -22.5297   19.1205 C   0  0  0  0  0  0  0  0  0  0  0  0
  -17.9552  -23.3976   20.2488 C   0  0  0  0  0  0  0  0  0  0  0  0
  -23.9723  -15.9506   21.5510 C   0  0  0  0  0  0  0  0  0  0  0  0
  -24.0444  -16.7720   24.6882 C   0  0  0  0  0  0  0  0  0  0  0  0
  -23.0948  -18.9541   27.1344 C   0  0  0  0  0  0  0  0  0  0  0  0
  -22.2529  -29.9008   22.0735 C   0  0  0  0  0  0  0  0  0  0  0  0
  -26.5564  -11.7405   20.2645 C   0  0  0  0  0  0  0  0  0  0  0  0
  -24.7140  -18.3568   21.4243 C   0  0  0  0  0  0  0  0  0  0  0  0
  -22.4001  -18.0153   23.2337 C   0  0  0  0  0  0  0  0  0  0  0  0
  -25.7741  -12.2101   21.4883 C   0  0  0  0  0  0  0  0  0  0  0  0
  -25.2342  -31.5407   21.0249 C   0  0  0  0  0  0  0  0  0  0  0  0
  -24.4147  -12.7635   21.0729 C   0  0  0  0  0  0  0  0  0  0  0  0
  -26.0533  -30.4233   20.3749 C   0  0  0  0  0  0  0  0  0  0  0  0
  -24.4552  -31.0398   22.2398 C   0  0  0  0  0  0  0  0  0  0  0  0
  -24.4319  -28.7447   21.3447 C   0  0  0  0  0  0  0  0  0  0  0  0
  -24.5720  -13.9810   20.1540 C   0  0  1  0  0  0  0  0  0  0  0  0
  -24.5543  -17.1168   22.2986 C   0  0  1  0  0  0  0  0  0  0  0  0
  -25.1830  -29.1863   20.0780 C   0  0  2  0  0  0  0  0  0  0  0  0
  -23.2743  -19.3408   29.6074 C   0  0  0  0  0  0  0  0  0  0  0  0
  -21.9638  -14.5944   25.1773 C   0  0  0  0  0  0  0  0  0  0  0  0
  -21.4935  -15.6408   27.4026 C   0  0  0  0  0  0  0  0  0  0  0  0
  -23.7620  -14.7273   26.9104 C   0  0  0  0  0  0  0  0  0  0  0  0
  -24.4955  -21.5322   26.7469 C   0  0  0  0  0  0  0  0  0  0  0  0
  -19.8057  -21.8987   19.2256 C   0  0  0  0  0  0  0  0  0  1  0  0
  -18.7792  -24.6133   20.5790 C   0  0  0  0  0  0  0  0  0  0  0  0
  -23.0188  -16.8694   25.7917 C   0  0  1  0  0  0  0  0  0  0  0  0
  -23.8818  -19.6288   28.2433 C   0  0  2  0  0  0  0  0  0  0  0  0
  -22.5571  -15.4732   26.2966 C   0  0  0  0  0  0  0  0  0  0  0  0
  -26.5301  -27.1321   20.2945 N   0  0  0  0  0  0  0  0  0  0  0  0
  -17.6681  -22.3765   18.1018 N   0  0  0  0  0  0  0  0  0  0  0  0
  -25.9981  -28.0566   19.4769 N   0  0  0  0  0  0  0  0  0  0  0  0
  -23.6944  -17.3513   23.4604 N   0  0  0  0  0  0  0  0  0  0  0  0
  -23.6505  -29.8696   21.8821 N   0  0  0  0  0  0  0  0  0  0  0  0
  -16.8527  -26.6206   23.8201 N   0  0  0  0  0  0  0  0  0  0  0  0
  -25.8143  -28.6829   17.2000 N   0  0  0  0  0  0  0  0  0  0  0  0
  -28.3292  -24.9347   17.0497 N   0  0  0  0  0  0  0  0  0  0  0  0
  -21.5893  -28.7436   21.6669 N   0  0  0  0  0  0  0  0  0  0  0  0
  -18.1690  -25.3293   21.6714 N   0  0  0  0  0  0  0  0  0  0  0  0
  -24.9145  -15.1561   20.9261 N   0  0  0  0  0  0  0  0  0  0  0  0
  -23.6098  -17.7130   26.8249 N   0  0  0  0  0  0  0  0  0  0  0  0
  -23.9018  -21.1050   28.0400 N   0  3  0  0  0  0  0  0  0  0  0  0
  -27.3764  -26.5898   15.7803 O   0  0  0  0  0  0  0  0  0  0  0  0
  -16.9225  -23.0605   20.8100 O   0  0  0  0  0  0  0  0  0  0  0  0
  -22.7584  -15.7831   21.5429 O   0  0  0  0  0  0  0  0  0  0  0  0
  -25.1195  -16.2091   24.9098 O   0  0  0  0  0  0  0  0  0  0  0  0
  -22.1184  -19.4742   26.5990 O   0  0  0  0  0  0  0  0  0  0  0  0
  -21.6833  -30.8922   22.5368 O   0  0  0  0  0  0  0  0  0  0  0  0
  -29.9252  -21.8625   21.4143 O   0  0  0  0  0  0  0  0  0  0  0  0
  -19.8469  -21.0611   20.3802 O   0  0  0  0  0  0  0  0  0  1  0  0
  -29.2316  -17.0550   18.8046 F   0  0  0  0  0  0  0  0  0  0  0  0
  -17.9728  -28.9468   24.8133 F   0  0  0  0  0  0  0  0  0  0  0  0
  -30.5914  -21.5885   18.7453 F   0  0  0  0  0  0  0  0  0  0  0  0
  1  2  1  0  0  0  0
  1  5  2  0  0  0  0
  2  6  2  0  0  0  0
  3  8  2  0  0  0  0
  3 17  1  0  0  0  0
  4  9  1  0  0  0  0
  4 17  2  0  0  0  0
  5 19  1  0  0  0  0
  6 21  1  0  0  0  0
  7 10  2  0  0  0  0
  7 20  1  0  0  0  0
  8 26  1  0  0  0  0
  9 26  2  0  0  0  0
 10 27  1  0  0  0  0
 11 12  2  0  0  0  0
 11 28  1  0  0  0  0
 12 29  1  0  0  0  0
 13 22  1  0  0  0  0
 13 27  2  0  0  0  0
 14 23  2  0  0  0  0
 14 24  1  0  0  0  0
 15 23  1  0  0  0  0
 15 30  2  0  0  0  0
 16 29  2  0  0  0  0
 16 31  1  0  0  0  0
 17 32  1  0  0  0  0
 18 32  1  0  0  0  0
 18 33  2  0  0  0  0
 18 34  1  0  0  0  0
 19 21  2  0  0  0  0
 19 41  1  0  0  0  0
 20 22  2  0  0  0  0
 20 42  1  0  0  0  0
 21 50  1  0  0  0  0
 22 43  1  0  0  0  0
 23 71  1  0  0  0  0
 24 25  2  0  0  0  0
 24 72  1  0  0  0  0
 25 30  1  0  0  0  0
 25 68  1  0  0  0  0
 26 82  1  0  0  0  0
 27 83  1  0  0  0  0
 28 31  2  0  0  0  0
 28 82  1  0  0  0  0
 29 84  1  0  0  0  0
 30 85  1  0  0  0  0
 31 86  1  0  0  0  0
 32 63  2  0  0  0  0
 33 65  1  0  0  0  0
 33 69  1  0  0  0  0
 34 70  1  0  0  0  0
 34 76  2  0  0  0  0
 35 36  1  0  0  0  0
 35 58  1  0  0  0  0
 35 64  2  0  0  0  0
 36 59  1  0  0  0  0
 36 77  2  0  0  0  0
 37 51  1  0  0  0  0
 37 73  1  0  0  0  0
 37 78  2  0  0  0  0
 38 60  1  0  0  0  0
 38 66  1  0  0  0  0
 38 79  2  0  0  0  0
 39 61  1  0  0  0  0
 39 74  1  0  0  0  0
 39 80  2  0  0  0  0
 40 67  1  0  0  0  0
 40 71  1  0  0  0  0
 40 81  2  0  0  0  0
 41 44  1  0  0  0  0
 42 51  1  0  0  0  0
 43 66  1  0  0  0  0
 44 46  1  0  0  0  0
 45 47  1  0  0  0  0
 45 48  1  0  0  0  0
 46 50  1  0  0  0  0
 47 52  1  0  0  0  0
 48 67  1  0  0  0  0
 49 52  1  0  0  0  0
 49 67  1  0  0  0  0
 50 73  1  0  0  0  0
 51 66  1  0  0  0  0
 52 65  1  0  0  0  0
 53 61  1  0  0  0  0
 54 62  1  0  0  0  0
 55 62  1  0  0  0  0
 56 62  1  0  0  0  0
 57 75  1  0  0  0  0
 58 83  1  0  0  0  0
 59 72  1  0  0  0  0
 60 62  1  0  0  0  0
 60 74  1  0  0  0  0
 61 75  1  0  0  0  0
 63 65  1  0  0  0  0
M  CHG  1  75   1
M  ISO  4  40 100  58 101  71 100  83 101
M  END
> <Batch ID>
0163

> <Smiles>
CNC(C)C(=O)NC(C(=O)N1Cc2cc([101O:1][101CH2:1]C(=N)C(=O)CNc3cc([100NH:0][100C:0](=O)N4CCCC(n5nc(-c6ccc(Oc7ccc(F)cc7F)cc6)c(C(N)=O)c5N)C4)cc(F)c3N)ccc2CC1C(=O)NC1CCCc2ccccc21)C(C)(C)C

> <Shape>
0.217

> <Color>
0.068

> <Negative vol penalty>
0.000

$$$$

  -OEChem-04052303593D

 85 93  0     1  0  0  0  0  0999 V2000
  -19.8167  -26.7520   17.0687 C   0  0  0  0  0  0  0  0  0  0  0  0
  -21.1053  -26.4827   17.5185 C   0  0  0  0  0  0  0  0  0  0  0  0
  -23.0488   -9.8551   20.0384 C   0  0  0  0  0  0  0  0  0  0  0  0
  -23.8752   -9.9428   22.3070 C   0  0  0  0  0  0  0  0  0  0  0  0
  -19.2964  -28.0409   17.1783 C   0  0  0  0  0  0  0  0  0  0  0  0
  -21.8748  -27.5025   18.0773 C   0  0  0  0  0  0  0  0  0  0  0  0
  -24.2507  -26.0486   22.3066 C   0  0  0  0  0  0  0  0  0  0  0  0
  -22.3163   -8.7095   20.3494 C   0  0  0  0  0  0  0  0  0  0  0  0
  -23.1426   -8.7972   22.6181 C   0  0  0  0  0  0  0  0  0  0  0  0
  -25.3997  -25.2733   22.1569 C   0  0  0  0  0  0  0  0  0  0  0  0
  -19.9360   -8.0133   23.3417 C   0  0  0  0  0  0  0  0  0  0  0  0
  -19.2136   -8.0120   24.5349 C   0  0  0  0  0  0  0  0  0  0  0  0
  -26.7609  -27.2338   22.5074 C   0  0  0  0  0  0  0  0  0  0  0  0
  -20.4823   -6.1039   25.3009 C   0  0  0  0  0  0  0  0  0  0  0  0
  -23.8283  -10.4717   21.0172 C   0  0  0  0  0  0  0  0  0  0  0  0
  -24.1582  -12.9920   20.8005 C   0  0  0  0  0  0  0  0  0  0  0  0
  -20.0564  -29.0748   17.7476 C   0  0  0  0  0  0  0  0  0  0  0  0
  -24.3482  -27.4267   22.5473 C   0  0  0  0  0  0  0  0  0  0  0  0
  -21.3647  -28.8068   18.1934 C   0  0  0  0  0  0  0  0  0  0  0  0
  -25.6116  -28.0239   22.6623 C   0  0  0  0  0  0  0  0  0  0  0  0
  -22.3632   -8.1806   21.6393 C   0  0  0  0  0  0  0  0  0  0  0  0
  -26.6550  -25.8664   22.2545 C   0  0  0  0  0  0  0  0  0  0  0  0
  -20.9315   -7.0598   23.1280 C   0  0  0  0  0  0  0  0  0  0  0  0
  -19.4868   -7.0573   25.5145 C   0  0  0  0  0  0  0  0  0  0  0  0
  -21.2047   -6.1052   24.1077 C   0  0  0  0  0  0  0  0  0  0  0  0
  -24.5856  -11.6547   20.6963 C   0  0  0  0  0  0  0  0  0  0  0  0
  -31.7029  -19.0248   21.0613 C   0  0  0  0  0  0  0  0  0  0  0  0
  -25.2369  -13.7310   20.3799 C   0  0  0  0  0  0  0  0  0  0  0  0
  -30.4730  -19.6398   21.1674 C   0  0  0  0  0  0  0  0  0  0  0  0
  -30.4277  -17.2644   20.7704 C   0  0  0  0  0  0  0  0  0  0  0  0
  -22.8988  -13.5190   21.2384 C   0  0  0  0  0  0  0  0  0  0  0  0
  -32.9646  -19.7052   21.1722 C   0  0  0  0  0  0  0  0  0  0  0  0
  -23.4260  -30.0450   20.9990 C   0  0  0  0  0  0  0  0  0  0  0  0
  -28.9343  -23.0141   21.7413 C   0  0  0  0  0  0  0  0  0  0  0  0
  -24.4790  -31.5317   23.6829 C   0  0  0  0  0  0  0  0  0  0  0  0
  -26.5006  -31.4591   26.4315 C   0  0  0  0  0  0  0  0  0  0  0  0
  -30.7024  -14.7942   20.3589 C   0  0  0  0  0  0  0  0  0  0  0  0
  -19.4687  -30.4628   17.8016 C   0  0  0  0  0  0  0  0  0  0  0  0
  -23.0994  -28.2442   22.7329 C   0  0  0  0  0  0  0  0  0  0  0  0
  -25.7706  -29.4957   22.9399 C   0  0  0  0  0  0  0  0  0  0  0  0
  -20.2114  -31.4023   18.7482 C   0  0  0  0  0  0  0  0  0  0  0  0
  -29.5274  -12.2979   18.1084 C   0  0  0  0  0  0  0  0  0  0  0  0
  -21.7176  -31.2983   18.5306 C   0  0  0  0  0  0  0  0  0  0  0  0
  -28.1018  -12.0181   18.5896 C   0  0  0  0  0  0  0  0  0  0  0  0
  -30.4763  -12.5700   19.2742 C   0  0  0  0  0  0  0  0  0  0  0  0
  -28.6081  -13.3372   20.6850 C   0  0  0  0  0  0  0  0  0  0  0  0
  -22.2214  -29.8808   18.8281 C   0  0  1  0  0  0  0  0  0  0  0  0
  -23.3129  -29.7306   22.4639 C   0  0  1  0  0  0  0  0  0  0  0  0
  -27.6019  -13.1214   19.5427 C   0  0  2  0  0  0  0  0  0  0  0  0
  -34.2740  -18.9055   21.0350 C   0  0  0  0  0  0  0  0  0  0  0  0
  -27.1721  -32.8350   28.4198 C   0  0  0  0  0  0  0  0  0  0  0  0
  -26.2090  -33.2851   21.8822 C   0  0  0  0  0  0  0  0  0  0  0  0
  -27.5217  -33.9496   23.9079 C   0  0  0  0  0  0  0  0  0  0  0  0
  -25.0932  -34.5007   23.7615 C   0  0  0  0  0  0  0  0  0  0  0  0
  -34.2704  -21.7011   21.5443 C   0  0  0  0  0  0  0  0  0  0  0  0
  -25.5055  -29.4160   28.3273 C   0  0  0  0  0  0  0  0  0  0  0  0
  -28.8677  -21.5231   21.4872 C   0  0  0  0  0  0  0  0  0  0  0  0
  -27.5969  -23.7192   21.8565 C   0  0  0  0  0  0  0  0  0  1  0  0
  -25.7994  -32.1028   24.1406 C   0  0  1  0  0  0  0  0  0  0  0  0
  -26.2259  -31.7676   27.8923 C   0  0  2  0  0  0  0  0  0  0  0  0
  -26.1532  -33.4321   23.4159 C   0  0  0  0  0  0  0  0  0  0  0  0
  -25.8381  -11.5474   20.2448 N   0  0  0  0  0  0  0  0  0  0  0  0
  -31.6789  -17.6627   20.8340 N   0  0  0  0  0  0  0  0  0  0  0  0
  -33.0035  -21.0016   21.3997 N   0  0  0  0  0  0  0  0  0  0  0  0
  -26.2069  -12.8266   20.0615 N   0  0  0  0  0  0  0  0  0  0  0  0
  -24.5197  -30.2538   23.1073 N   0  0  0  0  0  0  0  0  0  0  0  0
  -29.9398  -13.6291   20.1317 N   0  0  0  0  0  0  0  0  0  0  0  0
  -25.4407  -15.0596   20.2551 N   0  0  0  0  0  0  0  0  0  0  0  0
  -21.9001  -12.6197   21.6361 N   0  0  0  0  0  0  0  0  0  0  0  0
  -30.1992  -20.9812   21.3931 N   0  0  0  0  0  0  0  0  0  0  0  0
  -29.9461  -15.9497   20.5527 N   0  0  0  0  0  0  0  0  0  0  0  0
  -22.3228  -29.6698   20.2562 N   0  0  0  0  0  0  0  0  0  0  0  0
  -25.7128  -32.2184   25.5923 N   0  0  0  0  0  0  0  0  0  0  0  0
  -26.3929  -30.5404   28.7211 N   0  3  0  0  0  0  0  0  0  0  0  0
  -22.6603  -14.7503   21.2603 O   0  0  0  0  0  0  0  0  0  0  0  0
  -24.4385  -30.5892   20.5742 O   0  0  0  0  0  0  0  0  0  0  0  0
  -29.9976  -23.6238   21.8487 O   0  0  0  0  0  0  0  0  0  0  0  0
  -23.4485  -32.1919   23.8370 O   0  0  0  0  0  0  0  0  0  0  0  0
  -27.3334  -30.6303   26.0709 O   0  0  0  0  0  0  0  0  0  0  0  0
  -31.9359  -14.7739   20.3530 O   0  0  0  0  0  0  0  0  0  0  0  0
  -21.6484   -7.0629   21.9432 O   0  0  0  0  0  0  0  0  0  0  0  0
  -27.7782  -25.1121   22.1082 O   0  0  0  0  0  0  0  0  0  1  0  0
  -18.7940   -7.0572   26.6609 F   0  0  0  0  0  0  0  0  0  0  0  0
  -22.1607   -5.1874   23.9086 F   0  0  0  0  0  0  0  0  0  0  0  0
  -29.2289  -18.4752   20.9746 S   0  0  0  0  0  0  0  0  0  0  0  0
  1  2  1  0  0  0  0
  1  5  2  0  0  0  0
  2  6  2  0  0  0  0
  3  8  2  0  0  0  0
  3 15  1  0  0  0  0
  4  9  1  0  0  0  0
  4 15  2  0  0  0  0
  5 17  1  0  0  0  0
  6 19  1  0  0  0  0
  7 10  2  0  0  0  0
  7 18  1  0  0  0  0
  8 21  1  0  0  0  0
  9 21  2  0  0  0  0
 10 22  1  0  0  0  0
 11 12  2  0  0  0  0
 11 23  1  0  0  0  0
 12 24  1  0  0  0  0
 13 20  1  0  0  0  0
 13 22  2  0  0  0  0
 14 24  2  0  0  0  0
 14 25  1  0  0  0  0
 15 26  1  0  0  0  0
 16 26  1  0  0  0  0
 16 28  2  0  0  0  0
 16 31  1  0  0  0  0
 17 19  2  0  0  0  0
 17 38  1  0  0  0  0
 18 20  2  0  0  0  0
 18 39  1  0  0  0  0
 19 47  1  0  0  0  0
 20 40  1  0  0  0  0
 21 81  1  0  0  0  0
 22 82  1  0  0  0  0
 23 25  2  0  0  0  0
 23 81  1  0  0  0  0
 24 83  1  0  0  0  0
 25 84  1  0  0  0  0
 26 62  2  0  0  0  0
 27 29  2  0  0  0  0
 27 32  1  0  0  0  0
 27 63  1  0  0  0  0
 28 65  1  0  0  0  0
 28 68  1  0  0  0  0
 29 70  1  0  0  0  0
 29 85  1  0  0  0  0
 30 63  2  0  0  0  0
 30 71  1  0  0  0  0
 30 85  1  0  0  0  0
 31 69  1  0  0  0  0
 31 75  2  0  0  0  0
 32 50  1  0  0  0  0
 32 64  2  0  0  0  0
 33 48  1  0  0  0  0
 33 72  1  0  0  0  0
 33 76  2  0  0  0  0
 34 57  1  0  0  0  0
 34 58  1  0  0  0  0
 34 77  2  0  0  0  0
 35 59  1  0  0  0  0
 35 66  1  0  0  0  0
 35 78  2  0  0  0  0
 36 60  1  0  0  0  0
 36 73  1  0  0  0  0
 36 79  2  0  0  0  0
 37 67  1  0  0  0  0
 37 71  1  0  0  0  0
 37 80  2  0  0  0  0
 38 41  1  0  0  0  0
 39 48  1  0  0  0  0
 40 66  1  0  0  0  0
 41 43  1  0  0  0  0
 42 44  1  0  0  0  0
 42 45  1  0  0  0  0
 43 47  1  0  0  0  0
 44 49  1  0  0  0  0
 45 67  1  0  0  0  0
 46 49  1  0  0  0  0
 46 67  1  0  0  0  0
 47 72  1  0  0  0  0
 48 66  1  0  0  0  0
 49 65  1  0  0  0  0
 51 60  1  0  0  0  0
 52 61  1  0  0  0  0
 53 61  1  0  0  0  0
 54 61  1  0  0  0  0
 55 64  1  0  0  0  0
 56 74  1  0  0  0  0
 57 70  1  0  0  0  0
 58 82  1  0  0  0  0
 59 61  1  0  0  0  0
 59 73  1  0  0  0  0
 60 74  1  0  0  0  0
 62 65  1  0  0  0  0
M  CHG  1  74   1
M  ISO  4  37 100  58 101  71 100  82 101
M  END
> <Batch ID>
0163

> <Smiles>
CN=C(C)c1nc([100NH:0][100C:0](=O)N2CCCC(n3nc(-c4ccc(Oc5ccc(F)cc5F)cc4)c(C(N)=O)c3N)C2)sc1NCC(=O)[101CH2:1][101O:1]c1ccc2c(c1)CN(C(=O)C(NC(=O)C(C)NC)C(C)(C)C)C(C(=O)NC1CCCc3ccccc31)C2

> <Shape>
0.308

> <Color>
0.204

> <Negative vol penalty>
0.000

$$$$

  -OEChem-04052303593D

 86 94  0     1  0  0  0  0  0999 V2000
  -27.4465  -32.7912   27.4361 C   0  0  0  0  0  0  0  0  0  0  0  0
  -27.6356  -31.6679   26.6374 C   0  0  0  0  0  0  0  0  0  0  0  0
  -23.3363   -9.7315   21.3550 C   0  0  0  0  0  0  0  0  0  0  0  0
  -24.0911  -10.6506   23.4579 C   0  0  0  0  0  0  0  0  0  0  0  0
  -26.1711  -33.3355   27.5807 C   0  0  0  0  0  0  0  0  0  0  0  0
  -26.5492  -31.0877   25.9837 C   0  0  0  0  0  0  0  0  0  0  0  0
  -27.5791  -29.9197   21.1649 C   0  0  0  0  0  0  0  0  0  0  0  0
  -22.6846   -8.7045   22.0377 C   0  0  0  0  0  0  0  0  0  0  0  0
  -23.4393   -9.6237   24.1407 C   0  0  0  0  0  0  0  0  0  0  0  0
  -28.3250  -28.7644   20.9353 C   0  0  0  0  0  0  0  0  0  0  0  0
  -19.8061   -8.2959   23.7641 C   0  0  0  0  0  0  0  0  0  0  0  0
  -18.5073   -7.9766   23.3683 C   0  0  0  0  0  0  0  0  0  0  0  0
  -29.5228  -18.4401   21.2988 C   0  0  0  0  0  0  0  0  0  0  0  0
  -31.4186  -19.8161   21.8896 C   0  0  0  0  0  0  0  0  0  0  0  0
  -26.2983  -27.5685   20.4048 C   0  0  0  0  0  0  0  0  0  0  0  0
  -31.7670  -17.5948   21.0055 C   0  0  0  0  0  0  0  0  0  0  0  0
  -19.2183   -5.7264   22.8505 C   0  0  0  0  0  0  0  0  0  0  0  0
  -24.0397  -10.7045   22.0651 C   0  0  0  0  0  0  0  0  0  0  0  0
  -30.0386  -19.6391   21.7905 C   0  0  0  0  0  0  0  0  0  0  0  0
  -24.1834  -13.0193   21.0027 C   0  0  0  0  0  0  0  0  0  0  0  0
  -25.0700  -32.7674   26.9207 C   0  0  0  0  0  0  0  0  0  0  0  0
  -26.1837  -29.9051   21.0266 C   0  0  0  0  0  0  0  0  0  0  0  0
  -25.2576  -31.6242   26.1206 C   0  0  0  0  0  0  0  0  0  0  0  0
  -25.5372  -28.7255   20.6308 C   0  0  0  0  0  0  0  0  0  0  0  0
  -30.3870  -17.4179   20.9064 C   0  0  0  0  0  0  0  0  0  0  0  0
  -22.7360   -8.6507   23.4306 C   0  0  0  0  0  0  0  0  0  0  0  0
  -27.6844  -27.5878   20.5579 C   0  0  0  0  0  0  0  0  0  0  0  0
  -20.8111   -7.3305   23.7031 C   0  0  0  0  0  0  0  0  0  0  0  0
  -18.2134   -6.6919   22.9115 C   0  0  0  0  0  0  0  0  0  0  0  0
  -32.2829  -18.7939   21.4971 C   0  0  0  0  0  0  0  0  0  0  0  0
  -20.5172   -6.0458   23.2463 C   0  0  0  0  0  0  0  0  0  0  0  0
  -24.7137  -11.7652   21.3603 C   0  0  0  0  0  0  0  0  0  0  0  0
  -25.2140  -13.6560   20.3555 C   0  0  0  0  0  0  0  0  0  0  0  0
  -28.1432  -25.3595   21.1009 C   0  0  0  0  0  0  0  0  0  1  0  0
  -29.1239  -20.7215   22.2074 C   0  0  0  0  0  0  0  0  0  0  0  0
  -22.8761  -13.5604   21.2349 C   0  0  0  0  0  0  0  0  0  0  0  0
  -28.7940  -24.1985   20.9669 C   0  0  0  0  0  0  0  0  0  0  0  0
  -28.4204  -23.0732   21.8559 C   0  0  0  0  0  0  0  0  0  0  0  0
  -23.7302  -30.4056   22.9846 C   0  0  0  0  0  0  0  0  0  0  0  0
  -21.9988  -30.1281   20.2555 C   0  0  0  0  0  0  0  0  0  0  0  0
  -21.7831  -28.9184   17.0717 C   0  0  0  0  0  0  0  0  0  0  0  0
  -30.5817  -15.0860   19.9730 C   0  0  0  0  0  0  0  0  0  0  0  0
  -23.7027  -33.3629   27.1452 C   0  0  0  0  0  0  0  0  0  0  0  0
  -25.3961  -31.1666   21.2520 C   0  0  0  0  0  0  0  0  0  0  0  0
  -24.0434  -28.6626   20.4487 C   0  0  0  0  0  0  0  0  0  0  0  0
  -22.6660  -32.9119   26.1195 C   0  0  0  0  0  0  0  0  0  0  0  0
  -29.6615  -11.8876   18.7079 C   0  0  0  0  0  0  0  0  0  0  0  0
  -22.7367  -31.4015   25.9177 C   0  0  0  0  0  0  0  0  0  0  0  0
  -28.2486  -11.6738   19.2557 C   0  0  0  0  0  0  0  0  0  0  0  0
  -30.5548  -12.6151   19.7112 C   0  0  0  0  0  0  0  0  0  0  0  0
  -28.5957  -13.6625   20.7762 C   0  0  0  0  0  0  0  0  0  0  0  0
  -24.1081  -30.9810   25.3756 C   0  0  1  0  0  0  0  0  0  0  0  0
  -23.9297  -30.9046   21.5814 C   0  0  1  0  0  0  0  0  0  0  0  0
  -27.6405  -12.9911   19.7759 C   0  0  2  0  0  0  0  0  0  0  0  0
  -20.2306  -28.8204   15.1026 C   0  0  0  0  0  0  0  0  0  0  0  0
  -20.3385  -27.9969   21.6738 C   0  0  0  0  0  0  0  0  0  0  0  0
  -19.4703  -27.2837   19.4364 C   0  0  0  0  0  0  0  0  0  0  0  0
  -19.0142  -29.5894   20.2722 C   0  0  0  0  0  0  0  0  0  0  0  0
  -23.6998  -30.3642   15.3411 C   0  0  0  0  0  0  0  0  0  0  0  0
  -21.3490  -28.9854   19.5133 C   0  0  1  0  0  0  0  0  0  0  0  0
  -21.3678  -29.5786   15.7693 C   0  0  2  0  0  0  0  0  0  0  0  0
  -20.0709  -28.4642   20.2291 C   0  0  0  0  0  0  0  0  0  0  0  0
  -25.9825  -11.6123   20.9723 N   0  0  0  0  0  0  0  0  0  0  0  0
  -26.2582  -12.7786   20.3641 N   0  0  0  0  0  0  0  0  0  0  0  0
  -23.3166  -29.9206   20.6870 N   0  0  0  0  0  0  0  0  0  0  0  0
  -29.9161  -13.8555   20.1565 N   0  0  0  0  0  0  0  0  0  0  0  0
  -25.3199  -14.8751   19.7855 N   0  0  0  0  0  0  0  0  0  0  0  0
  -21.9379  -12.7722   21.9153 N   0  0  0  0  0  0  0  0  0  0  0  0
  -29.8632  -16.2002   20.4056 N   0  0  0  0  0  0  0  0  0  0  0  0
  -29.2153  -21.9025   21.5800 N   0  0  0  0  0  0  0  0  0  0  0  0
  -24.2004  -31.2647   23.9594 N   0  0  0  0  0  0  0  0  0  0  0  0
  -21.1203  -29.4599   18.1528 N   0  0  0  0  0  0  0  0  0  0  0  0
  -28.2570  -20.4592   23.1849 N   0  3  0  0  0  0  0  0  0  0  0  0
  -22.5184  -29.6273   14.8233 N   0  3  0  0  0  0  0  0  0  0  0  0
  -22.5444  -14.7025   20.8360 O   0  0  0  0  0  0  0  0  0  0  0  0
  -27.5585  -23.0964   22.7192 O   0  0  0  0  0  0  0  0  0  0  0  0
  -23.1883  -29.3221   23.1691 O   0  0  0  0  0  0  0  0  0  0  0  0
  -21.3631  -31.1691   20.4393 O   0  0  0  0  0  0  0  0  0  0  0  0
  -22.6098  -28.0105   17.1242 O   0  0  0  0  0  0  0  0  0  0  0  0
  -31.6946  -15.1494   19.4445 O   0  0  0  0  0  0  0  0  0  0  0  0
  -29.7952  -24.0004   20.0416 O   0  0  0  0  0  0  0  0  0  0  0  0
  -22.0999   -7.6489   24.0972 O   0  0  0  0  0  0  0  0  0  0  0  0
  -28.4100  -26.4587   20.3338 O   0  0  0  0  0  0  0  0  0  1  0  0
  -16.9658   -6.3850   22.5328 F   0  0  0  0  0  0  0  0  0  0  0  0
  -33.6081  -18.9639   21.5924 F   0  0  0  0  0  0  0  0  0  0  0  0
  -21.4782   -5.1137   23.1865 F   0  0  0  0  0  0  0  0  0  0  0  0
  1  2  1  0  0  0  0
  1  5  2  0  0  0  0
  2  6  2  0  0  0  0
  3  8  2  0  0  0  0
  3 18  1  0  0  0  0
  4  9  1  0  0  0  0
  4 18  2  0  0  0  0
  5 21  1  0  0  0  0
  6 23  1  0  0  0  0
  7 10  2  0  0  0  0
  7 22  1  0  0  0  0
  8 26  1  0  0  0  0
  9 26  2  0  0  0  0
 10 27  1  0  0  0  0
 11 12  2  0  0  0  0
 11 28  1  0  0  0  0
 12 29  1  0  0  0  0
 13 19  2  0  0  0  0
 13 25  1  0  0  0  0
 14 19  1  0  0  0  0
 14 30  2  0  0  0  0
 15 24  1  0  0  0  0
 15 27  2  0  0  0  0
 16 25  2  0  0  0  0
 16 30  1  0  0  0  0
 17 29  2  0  0  0  0
 17 31  1  0  0  0  0
 18 32  1  0  0  0  0
 19 35  1  0  0  0  0
 20 32  1  0  0  0  0
 20 33  2  0  0  0  0
 20 36  1  0  0  0  0
 21 23  2  0  0  0  0
 21 43  1  0  0  0  0
 22 24  2  0  0  0  0
 22 44  1  0  0  0  0
 23 52  1  0  0  0  0
 24 45  1  0  0  0  0
 25 69  1  0  0  0  0
 26 82  1  0  0  0  0
 27 83  1  0  0  0  0
 28 31  2  0  0  0  0
 28 82  1  0  0  0  0
 29 84  1  0  0  0  0
 30 85  1  0  0  0  0
 31 86  1  0  0  0  0
 32 63  2  0  0  0  0
 33 64  1  0  0  0  0
 33 67  1  0  0  0  0
 34 37  2  0  0  0  0
 34 83  1  0  0  0  0
 35 70  1  0  0  0  0
 35 73  2  0  0  0  0
 36 68  1  0  0  0  0
 36 75  2  0  0  0  0
 37 38  1  0  0  0  0
 37 81  1  0  0  0  0
 38 70  1  0  0  0  0
 38 76  2  0  0  0  0
 39 53  1  0  0  0  0
 39 71  1  0  0  0  0
 39 77  2  0  0  0  0
 40 60  1  0  0  0  0
 40 65  1  0  0  0  0
 40 78  2  0  0  0  0
 41 61  1  0  0  0  0
 41 72  1  0  0  0  0
 41 79  2  0  0  0  0
 42 66  1  0  0  0  0
 42 69  1  0  0  0  0
 42 80  2  0  0  0  0
 43 46  1  0  0  0  0
 44 53  1  0  0  0  0
 45 65  1  0  0  0  0
 46 48  1  0  0  0  0
 47 49  1  0  0  0  0
 47 50  1  0  0  0  0
 48 52  1  0  0  0  0
 49 54  1  0  0  0  0
 50 66  1  0  0  0  0
 51 54  1  0  0  0  0
 51 66  1  0  0  0  0
 52 71  1  0  0  0  0
 53 65  1  0  0  0  0
 54 64  1  0  0  0  0
 55 61  1  0  0  0  0
 56 62  1  0  0  0  0
 57 62  1  0  0  0  0
 58 62  1  0  0  0  0
 59 74  1  0  0  0  0
 60 62  1  0  0  0  0
 60 72  1  0  0  0  0
 61 74  1  0  0  0  0
 63 64  1  0  0  0  0
M  CHG  2  73   1  74   1
M  ISO  4  34 101  42 100  69 100  83 101
M  END
> <Batch ID>
0163

> <Smiles>
CNC(C)C(=O)NC(C(=O)N1Cc2cc([101O:1][101CH2:1]C(=O)C(=O)NC(=N)c3cc(F)cc([100NH:0][100C:0](=O)N4CCCC(n5nc(-c6ccc(Oc7ccc(F)cc7F)cc6)c(C(N)=O)c5N)C4)c3)ccc2CC1C(=O)NC1CCCc2ccccc21)C(C)(C)C

> <Shape>
0.320

> <Color>
0.190

> <Negative vol penalty>
0.000

$$$$

  -OEChem-04052303593D

 87 95  0     1  0  0  0  0  0999 V2000
  -25.5444  -34.5706   27.1142 C   0  0  0  0  0  0  0  0  0  0  0  0
  -26.1852  -33.4490   26.5975 C   0  0  0  0  0  0  0  0  0  0  0  0
  -24.5579   -9.0628   21.5525 C   0  0  0  0  0  0  0  0  0  0  0  0
  -24.0659  -10.6273   23.3266 C   0  0  0  0  0  0  0  0  0  0  0  0
  -24.1615  -34.7001   26.9919 C   0  0  0  0  0  0  0  0  0  0  0  0
  -25.4433  -32.4557   25.9592 C   0  0  0  0  0  0  0  0  0  0  0  0
  -27.5921  -30.8943   21.6476 C   0  0  0  0  0  0  0  0  0  0  0  0
  -24.1986   -8.0041   22.3865 C   0  0  0  0  0  0  0  0  0  0  0  0
  -23.7065   -9.5686   24.1606 C   0  0  0  0  0  0  0  0  0  0  0  0
  -28.6668  -30.0127   21.7547 C   0  0  0  0  0  0  0  0  0  0  0  0
  -21.3478   -6.5546   23.4843 C   0  0  0  0  0  0  0  0  0  0  0  0
  -20.5320   -5.5570   22.9506 C   0  0  0  0  0  0  0  0  0  0  0  0
  -26.1350  -19.4928   19.8690 C   0  0  0  0  0  0  0  0  0  0  0  0
  -26.9415  -21.7188   20.3502 C   0  0  0  0  0  0  0  0  0  0  0  0
  -27.1950  -28.1675   21.2567 C   0  0  0  0  0  0  0  0  0  0  0  0
  -28.4708  -19.8486   20.3732 C   0  0  0  0  0  0  0  0  0  0  0  0
  -22.2476   -3.9154   23.3969 C   0  0  0  0  0  0  0  0  0  0  0  0
  -24.4916  -10.3745   22.0226 C   0  0  0  0  0  0  0  0  0  0  0  0
  -25.8940  -20.8582   20.0218 C   0  0  0  0  0  0  0  0  0  0  0  0
  -24.0227  -12.1898   20.2928 C   0  0  0  0  0  0  0  0  0  0  0  0
  -23.4035  -33.7125   26.3432 C   0  0  0  0  0  0  0  0  0  0  0  0
  -26.3065  -30.4171   21.3546 C   0  0  0  0  0  0  0  0  0  0  0  0
  -24.0489  -32.5715   25.8293 C   0  0  0  0  0  0  0  0  0  0  0  0
  -26.1061  -29.0453   21.1439 C   0  0  0  0  0  0  0  0  0  0  0  0
  -27.4234  -18.9880   20.0448 C   0  0  0  0  0  0  0  0  0  0  0  0
  -28.2299  -21.2140   20.5259 C   0  0  0  0  0  0  0  0  0  0  0  0
  -23.7729   -8.2570   23.6906 C   0  0  0  0  0  0  0  0  0  0  0  0
  -28.4679  -28.6488   21.5621 C   0  0  0  0  0  0  0  0  0  0  0  0
  -22.6135   -6.2327   23.9743 C   0  0  0  0  0  0  0  0  0  0  0  0
  -20.9819   -4.2374   22.9069 C   0  0  0  0  0  0  0  0  0  0  0  0
  -23.0634   -4.9131   23.9306 C   0  0  0  0  0  0  0  0  0  0  0  0
  -24.8632  -11.4685   21.1617 C   0  0  0  0  0  0  0  0  0  0  0  0
  -24.8495  -13.1165   19.7060 C   0  0  0  0  0  0  0  0  0  0  0  0
  -24.5583  -21.3813   19.8405 C   0  0  0  0  0  0  0  0  0  0  0  0
  -22.6200  -12.0361   20.0388 C   0  0  0  0  0  0  0  0  0  0  0  0
  -30.4474  -24.1042   21.3741 C   0  0  0  0  0  0  0  0  0  0  0  0
  -30.5105  -25.6027   21.5965 C   0  0  0  0  0  0  0  0  0  0  0  0
  -23.5096  -30.4327   22.8649 C   0  0  0  0  0  0  0  0  0  0  0  0
  -22.4365  -29.1758   20.0737 C   0  0  0  0  0  0  0  0  0  0  0  0
  -23.1383  -27.4519   17.2132 C   0  0  0  0  0  0  0  0  0  0  0  0
  -28.8867  -16.9375   20.0273 C   0  0  0  0  0  0  0  0  0  0  0  0
  -21.9055  -33.8739   26.2770 C   0  0  0  0  0  0  0  0  0  0  0  0
  -25.1627  -31.3840   21.2162 C   0  0  0  0  0  0  0  0  0  0  0  0
  -24.7494  -28.4846   20.8072 C   0  0  0  0  0  0  0  0  0  0  0  0
  -21.2384  -32.9556   25.2562 C   0  0  0  0  0  0  0  0  0  0  0  0
  -29.8938  -13.5328   19.7607 C   0  0  0  0  0  0  0  0  0  0  0  0
  -21.7746  -31.5335   25.3868 C   0  0  0  0  0  0  0  0  0  0  0  0
  -28.6057  -12.7516   20.0300 C   0  0  0  0  0  0  0  0  0  0  0  0
  -29.9856  -14.7900   20.6238 C   0  0  0  0  0  0  0  0  0  0  0  0
  -27.5321  -14.8993   20.8186 C   0  0  0  0  0  0  0  0  0  0  0  0
  -23.2817  -31.4844   25.1083 C   0  0  1  0  0  0  0  0  0  0  0  0
  -23.7995  -30.7303   21.4210 C   0  0  1  0  0  0  0  0  0  0  0  0
  -27.3641  -13.6589   19.9259 C   0  0  2  0  0  0  0  0  0  0  0  0
  -22.0490  -26.5447   15.1425 C   0  0  0  0  0  0  0  0  0  0  0  0
  -21.2378  -26.8942   21.7068 C   0  0  0  0  0  0  0  0  0  0  0  0
  -21.0167  -25.5842   19.5847 C   0  0  0  0  0  0  0  0  0  0  0  0
  -19.7780  -27.7323   19.8571 C   0  0  0  0  0  0  0  0  0  0  0  0
  -24.8303  -29.1226   15.4511 C   0  0  0  0  0  0  0  0  0  0  0  0
  -29.1143  -23.4922   21.0291 C   0  0  0  0  0  0  0  0  0  0  0  0
  -29.2395  -26.4017   21.4569 C   0  0  0  0  0  0  0  0  0  1  0  0
  -22.2831  -27.7803   19.5186 C   0  0  1  0  0  0  0  0  0  0  0  0
  -22.7853  -27.7225   15.7618 C   0  0  2  0  0  0  0  0  0  0  0  0
  -21.1042  -27.0078   20.1751 C   0  0  0  0  0  0  0  0  0  0  0  0
  -26.1270  -11.8997   21.1326 N   0  0  0  0  0  0  0  0  0  0  0  0
  -26.0868  -12.9020   20.2382 N   0  0  0  0  0  0  0  0  0  0  0  0
  -23.6616  -29.4696   20.6891 N   0  0  0  0  0  0  0  0  0  0  0  0
  -28.7768  -15.6026   20.4708 N   0  0  0  0  0  0  0  0  0  0  0  0
  -24.6315  -14.0856   18.7919 N   0  0  0  0  0  0  0  0  0  0  0  0
  -23.5423  -20.5605   19.5248 N   0  0  0  0  0  0  0  0  0  0  0  0
  -21.9222  -11.0345   20.7274 N   0  0  0  0  0  0  0  0  0  0  0  0
  -27.6682  -17.6011   19.8884 N   0  0  0  0  0  0  0  0  0  0  0  0
  -29.2712  -22.0696   20.8521 N   0  0  0  0  0  0  0  0  0  0  0  0
  -23.5349  -31.5448   23.6847 N   0  0  0  0  0  0  0  0  0  0  0  0
  -22.1694  -27.9268   18.0716 N   0  0  0  0  0  0  0  0  0  0  0  0
  -24.3153  -22.6947   19.9872 N   0  3  0  0  0  0  0  0  0  0  0  0
  -24.0203  -27.9753   14.9668 N   0  3  0  0  0  0  0  0  0  0  0  0
  -22.0071  -12.7544   19.2130 O   0  0  0  0  0  0  0  0  0  0  0  0
  -31.4942  -23.4795   21.4913 O   0  0  0  0  0  0  0  0  0  0  0  0
  -31.5998  -26.0859   21.8773 O   0  0  0  0  0  0  0  0  0  0  0  0
  -23.2786  -29.2796   23.2096 O   0  0  0  0  0  0  0  0  0  0  0  0
  -21.5065  -29.9780   19.9589 O   0  0  0  0  0  0  0  0  0  0  0  0
  -24.1686  -26.8735   17.5515 O   0  0  0  0  0  0  0  0  0  0  0  0
  -29.9794  -17.4453   19.7622 O   0  0  0  0  0  0  0  0  0  0  0  0
  -23.4219   -7.2241   24.5046 O   0  0  0  0  0  0  0  0  0  0  0  0
  -29.5151  -27.7860   21.6666 O   0  0  0  0  0  0  0  0  0  1  0  0
  -20.1978   -3.2793   22.3957 F   0  0  0  0  0  0  0  0  0  0  0  0
  -24.2779   -4.5975   24.4008 F   0  0  0  0  0  0  0  0  0  0  0  0
  1  2  1  0  0  0  0
  1  5  2  0  0  0  0
  2  6  2  0  0  0  0
  3  8  2  0  0  0  0
  3 18  1  0  0  0  0
  4  9  1  0  0  0  0
  4 18  2  0  0  0  0
  5 21  1  0  0  0  0
  6 23  1  0  0  0  0
  7 10  2  0  0  0  0
  7 22  1  0  0  0  0
  8 27  1  0  0  0  0
  9 27  2  0  0  0  0
 10 28  1  0  0  0  0
 11 12  2  0  0  0  0
 11 29  1  0  0  0  0
 12 30  1  0  0  0  0
 13 19  2  0  0  0  0
 13 25  1  0  0  0  0
 14 19  1  0  0  0  0
 14 26  2  0  0  0  0
 15 24  1  0  0  0  0
 15 28  2  0  0  0  0
 16 25  2  0  0  0  0
 16 26  1  0  0  0  0
 17 30  2  0  0  0  0
 17 31  1  0  0  0  0
 18 32  1  0  0  0  0
 19 34  1  0  0  0  0
 20 32  1  0  0  0  0
 20 33  2  0  0  0  0
 20 35  1  0  0  0  0
 21 23  2  0  0  0  0
 21 42  1  0  0  0  0
 22 24  2  0  0  0  0
 22 43  1  0  0  0  0
 23 51  1  0  0  0  0
 24 44  1  0  0  0  0
 25 71  1  0  0  0  0
 26 72  1  0  0  0  0
 27 84  1  0  0  0  0
 28 85  1  0  0  0  0
 29 31  2  0  0  0  0
 29 84  1  0  0  0  0
 30 86  1  0  0  0  0
 31 87  1  0  0  0  0
 32 64  2  0  0  0  0
 33 65  1  0  0  0  0
 33 68  1  0  0  0  0
 34 69  1  0  0  0  0
 34 75  2  0  0  0  0
 35 70  1  0  0  0  0
 35 77  2  0  0  0  0
 36 37  1  0  0  0  0
 36 59  1  0  0  0  0
 36 78  2  0  0  0  0
 37 60  1  0  0  0  0
 37 79  2  0  0  0  0
 38 52  1  0  0  0  0
 38 73  1  0  0  0  0
 38 80  2  0  0  0  0
 39 61  1  0  0  0  0
 39 66  1  0  0  0  0
 39 81  2  0  0  0  0
 40 62  1  0  0  0  0
 40 74  1  0  0  0  0
 40 82  2  0  0  0  0
 41 67  1  0  0  0  0
 41 71  1  0  0  0  0
 41 83  2  0  0  0  0
 42 45  1  0  0  0  0
 43 52  1  0  0  0  0
 44 66  1  0  0  0  0
 45 47  1  0  0  0  0
 46 48  1  0  0  0  0
 46 49  1  0  0  0  0
 47 51  1  0  0  0  0
 48 53  1  0  0  0  0
 49 67  1  0  0  0  0
 50 53  1  0  0  0  0
 50 67  1  0  0  0  0
 51 73  1  0  0  0  0
 52 66  1  0  0  0  0
 53 65  1  0  0  0  0
 54 62  1  0  0  0  0
 55 63  1  0  0  0  0
 56 63  1  0  0  0  0
 57 63  1  0  0  0  0
 58 76  1  0  0  0  0
 59 72  1  0  0  0  0
 60 85  1  0  0  0  0
 61 63  1  0  0  0  0
 61 74  1  0  0  0  0
 62 76  1  0  0  0  0
 64 65  1  0  0  0  0
M  CHG  2  75   1  76   1
M  ISO  4  41 100  60 101  71 100  85 101
M  END
> <Batch ID>
0163

> <Smiles>
CNC(C)C(=O)NC(C(=O)N1Cc2cc([101O:1][101CH2:1]C(=O)C(=O)CNc3cc([100NH:0][100C:0](=O)N4CCCC(n5nc(-c6ccc(Oc7ccc(F)cc7F)cc6)c(C(N)=O)c5N)C4)cc(C(=N)N)c3)ccc2CC1C(=O)NC1CCCc2ccccc21)C(C)(C)C

> <Shape>
0.286

> <Color>
0.093

> <Negative vol penalty>
0.000

$$$$

  -OEChem-04052303593D

 84 93  0     1  0  0  0  0  0999 V2000
  -28.2438  -37.9755   18.6879 C   0  0  0  0  0  0  0  0  0  0  0  0
  -28.6476  -36.6476   18.5931 C   0  0  0  0  0  0  0  0  0  0  0  0
  -24.3860   -8.4051   20.4407 C   0  0  0  0  0  0  0  0  0  0  0  0
  -23.0632  -10.2574   21.2510 C   0  0  0  0  0  0  0  0  0  0  0  0
  -27.3991  -38.3738   19.7232 C   0  0  0  0  0  0  0  0  0  0  0  0
  -28.2078  -35.7174   19.5342 C   0  0  0  0  0  0  0  0  0  0  0  0
  -26.9239  -29.8106   18.5506 C   0  0  0  0  0  0  0  0  0  0  0  0
  -23.3831   -7.5180   20.8314 C   0  0  0  0  0  0  0  0  0  0  0  0
  -22.0603   -9.3702   21.6416 C   0  0  0  0  0  0  0  0  0  0  0  0
  -27.6582  -28.6438   18.7585 C   0  0  0  0  0  0  0  0  0  0  0  0
  -22.3072   -6.0796   23.6946 C   0  0  0  0  0  0  0  0  0  0  0  0
  -22.6939   -4.9219   24.3696 C   0  0  0  0  0  0  0  0  0  0  0  0
  -26.5620  -28.3401   20.8858 C   0  0  0  0  0  0  0  0  0  0  0  0
  -21.7141   -3.5744   22.6199 C   0  0  0  0  0  0  0  0  0  0  0  0
  -28.3748  -18.3425   19.8204 C   0  0  0  0  0  0  0  0  0  0  0  0
  -29.6730  -18.5880   21.7468 C   0  0  0  0  0  0  0  0  0  0  0  0
  -24.2261   -9.7749   20.6505 C   0  0  0  0  0  0  0  0  0  0  0  0
  -25.3934  -11.3314   19.0006 C   0  0  0  0  0  0  0  0  0  0  0  0
  -26.9409  -37.4461   20.6719 C   0  0  0  0  0  0  0  0  0  0  0  0
  -26.0095  -30.2575   19.5153 C   0  0  0  0  0  0  0  0  0  0  0  0
  -27.3572  -36.1039   20.5839 C   0  0  0  0  0  0  0  0  0  0  0  0
  -25.8154  -29.5114   20.6866 C   0  0  0  0  0  0  0  0  0  0  0  0
  -29.0533  -17.7345   20.8569 C   0  0  0  0  0  0  0  0  0  0  0  0
  -22.2202   -8.0005   21.4318 C   0  0  0  0  0  0  0  0  0  0  0  0
  -27.4795  -27.9099   19.9275 C   0  0  0  0  0  0  0  0  0  0  0  0
  -21.6238   -5.9848   22.4822 C   0  0  0  0  0  0  0  0  0  0  0  0
  -22.3974   -3.6693   23.8323 C   0  0  0  0  0  0  0  0  0  0  0  0
  -21.3273   -4.7322   21.9449 C   0  0  0  0  0  0  0  0  0  0  0  0
  -25.2621  -10.6918   20.2477 C   0  0  0  0  0  0  0  0  0  0  0  0
  -26.5309  -12.0915   19.1226 C   0  0  0  0  0  0  0  0  0  0  0  0
  -28.9456  -20.4040   20.5893 C   0  0  0  0  0  0  0  0  0  0  0  0
  -29.8665  -23.9042   19.1910 C   0  0  0  0  0  0  0  0  0  0  0  0
  -28.7099  -24.5755   19.3256 C   0  0  0  0  0  0  0  0  0  0  0  0
  -24.5615  -11.2462   17.8359 C   0  0  0  0  0  0  0  0  0  0  0  0
  -25.7445  -32.8616   21.3186 C   0  0  0  0  0  0  0  0  0  0  0  0
  -22.9107  -31.5216   22.1530 C   0  0  0  0  0  0  0  0  0  0  0  0
  -21.0183  -28.6976   22.4540 C   0  0  0  0  0  0  0  0  0  0  0  0
  -29.7584  -15.6017   21.9973 C   0  0  0  0  0  0  0  0  0  0  0  0
  -26.0670  -37.9333   21.8004 C   0  0  0  0  0  0  0  0  0  0  0  0
  -25.2056  -31.5037   19.2639 C   0  0  0  0  0  0  0  0  0  0  0  0
  -24.8313  -29.9374   21.7441 C   0  0  0  0  0  0  0  0  0  0  0  0
  -30.0278  -22.4552   19.5595 C   0  0  0  0  0  0  0  0  0  0  0  0
  -27.4727  -23.8922   19.8336 C   0  0  0  0  0  0  0  0  0  0  0  0
  -25.3448  -36.8100   22.5401 C   0  0  0  0  0  0  0  0  0  0  0  0
  -30.0967  -12.1307   22.7150 C   0  0  0  0  0  0  0  0  0  0  0  0
  -26.3101  -35.6720   22.8561 C   0  0  0  0  0  0  0  0  0  0  0  0
  -28.8798  -11.4995   22.0345 C   0  0  0  0  0  0  0  0  0  0  0  0
  -29.7658  -13.4956   23.3161 C   0  0  0  0  0  0  0  0  0  0  0  0
  -27.9284  -13.8178   21.7071 C   0  0  0  0  0  0  0  0  0  0  0  0
  -26.8815  -35.0603   21.5712 C   0  0  1  0  0  0  0  0  0  0  0  0
  -28.8857  -21.9079   20.4362 C   0  0  1  0  0  0  0  0  0  0  0  0
  -24.6765  -32.1419   20.5446 C   0  0  1  0  0  0  0  0  0  0  0  0
  -28.2291  -12.4707   21.0300 C   0  0  2  0  0  0  0  0  0  0  0  0
  -18.7544  -27.9137   23.2007 C   0  0  0  0  0  0  0  0  0  0  0  0
  -23.7729  -31.8137   25.0653 C   0  0  0  0  0  0  0  0  0  0  0  0
  -21.9664  -30.1965   25.6895 C   0  0  0  0  0  0  0  0  0  0  0  0
  -21.3755  -32.3741   24.6258 C   0  0  0  0  0  0  0  0  0  0  0  0
  -20.3581  -27.6674   19.7593 C   0  0  0  0  0  0  0  0  0  0  0  0
  -28.5779  -26.0267   18.9774 C   0  0  0  0  0  0  0  0  0  1  0  0
  -22.4560  -30.5650   23.2287 C   0  0  1  0  0  0  0  0  0  0  0  0
  -19.5952  -28.3883   22.0257 C   0  0  2  0  0  0  0  0  0  0  0  0
  -22.4127  -31.2301   24.6334 C   0  0  0  0  0  0  0  0  0  0  0  0
  -28.3002  -19.6794   19.6556 N   0  0  0  0  0  0  0  0  0  0  0  0
  -29.6396  -19.9327   21.6428 N   0  0  0  0  0  0  0  0  0  0  0  0
  -26.2383  -11.0170   21.0994 N   0  0  0  0  0  0  0  0  0  0  0  0
  -26.9939  -11.8693   20.3861 N   0  0  0  0  0  0  0  0  0  0  0  0
  -24.0736  -31.1662   21.4550 N   0  0  0  0  0  0  0  0  0  0  0  0
  -29.1566  -14.3634   22.3058 N   0  0  0  0  0  0  0  0  0  0  0  0
  -27.1702  -12.9214   18.2712 N   0  0  0  0  0  0  0  0  0  0  0  0
  -23.4314  -10.4184   17.8812 N   0  0  0  0  0  0  0  0  0  0  0  0
  -29.1084  -16.3257   20.9984 N   0  0  0  0  0  0  0  0  0  0  0  0
  -25.9097  -34.1840   20.9531 N   0  0  0  0  0  0  0  0  0  0  0  0
  -21.1753  -30.0276   22.7823 N   0  0  0  0  0  0  0  0  0  0  0  0
  -27.5789  -22.3944   19.8619 N   0  3  0  0  0  0  0  0  0  0  0  0
  -19.5879  -27.3242   20.9824 N   0  3  0  0  0  0  0  0  0  0  0  0
  -24.8219  -11.8724   16.7807 O   0  0  0  0  0  0  0  0  0  0  0  0
  -26.3713  -32.2621   22.1843 O   0  0  0  0  0  0  0  0  0  0  0  0
  -22.2542  -32.5429   21.9350 O   0  0  0  0  0  0  0  0  0  0  0  0
  -21.9015  -27.8439   22.4969 O   0  0  0  0  0  0  0  0  0  0  0  0
  -30.7909  -15.9789   22.5574 O   0  0  0  0  0  0  0  0  0  0  0  0
  -21.2412   -7.1351   21.8129 O   0  0  0  0  0  0  0  0  0  0  0  0
  -28.1954  -26.7711   20.1332 O   0  0  0  0  0  0  0  0  0  1  0  0
  -22.7702   -2.5576   24.4799 F   0  0  0  0  0  0  0  0  0  0  0  0
  -20.6721   -4.6347   20.7800 F   0  0  0  0  0  0  0  0  0  0  0  0
  1  2  1  0  0  0  0
  1  5  2  0  0  0  0
  2  6  2  0  0  0  0
  3  8  2  0  0  0  0
  3 17  1  0  0  0  0
  4  9  1  0  0  0  0
  4 17  2  0  0  0  0
  5 19  1  0  0  0  0
  6 21  1  0  0  0  0
  7 10  2  0  0  0  0
  7 20  1  0  0  0  0
  8 24  1  0  0  0  0
  9 24  2  0  0  0  0
 10 25  1  0  0  0  0
 11 12  2  0  0  0  0
 11 26  1  0  0  0  0
 12 27  1  0  0  0  0
 13 22  1  0  0  0  0
 13 25  2  0  0  0  0
 14 27  2  0  0  0  0
 14 28  1  0  0  0  0
 15 23  1  0  0  0  0
 15 63  2  0  0  0  0
 16 23  2  0  0  0  0
 16 64  1  0  0  0  0
 17 29  1  0  0  0  0
 18 29  1  0  0  0  0
 18 30  2  0  0  0  0
 18 34  1  0  0  0  0
 19 21  2  0  0  0  0
 19 39  1  0  0  0  0
 20 22  2  0  0  0  0
 20 40  1  0  0  0  0
 21 50  1  0  0  0  0
 22 41  1  0  0  0  0
 23 71  1  0  0  0  0
 24 81  1  0  0  0  0
 25 82  1  0  0  0  0
 26 28  2  0  0  0  0
 26 81  1  0  0  0  0
 27 83  1  0  0  0  0
 28 84  1  0  0  0  0
 29 65  2  0  0  0  0
 30 66  1  0  0  0  0
 30 69  1  0  0  0  0
 31 51  1  0  0  0  0
 31 63  1  0  0  0  0
 31 64  2  0  0  0  0
 32 33  2  0  0  0  0
 32 42  1  0  0  0  0
 33 43  1  0  0  0  0
 33 59  1  0  0  0  0
 34 70  1  0  0  0  0
 34 76  2  0  0  0  0
 35 52  1  0  0  0  0
 35 72  1  0  0  0  0
 35 77  2  0  0  0  0
 36 60  1  0  0  0  0
 36 67  1  0  0  0  0
 36 78  2  0  0  0  0
 37 61  1  0  0  0  0
 37 73  1  0  0  0  0
 37 79  2  0  0  0  0
 38 68  1  0  0  0  0
 38 71  1  0  0  0  0
 38 80  2  0  0  0  0
 39 44  1  0  0  0  0
 40 52  1  0  0  0  0
 41 67  1  0  0  0  0
 42 51  1  0  0  0  0
 43 74  1  0  0  0  0
 44 46  1  0  0  0  0
 45 47  1  0  0  0  0
 45 48  1  0  0  0  0
 46 50  1  0  0  0  0
 47 53  1  0  0  0  0
 48 68  1  0  0  0  0
 49 53  1  0  0  0  0
 49 68  1  0  0  0  0
 50 72  1  0  0  0  0
 51 74  1  0  0  0  0
 52 67  1  0  0  0  0
 53 66  1  0  0  0  0
 54 61  1  0  0  0  0
 55 62  1  0  0  0  0
 56 62  1  0  0  0  0
 57 62  1  0  0  0  0
 58 75  1  0  0  0  0
 59 82  1  0  0  0  0
 60 62  1  0  0  0  0
 60 73  1  0  0  0  0
 61 75  1  0  0  0  0
 65 66  1  0  0  0  0
M  CHG  2  74   1  75   1
M  ISO  4  38 100  59 101  71 100  82 101
M  END
> <Batch ID>
0163

> <Smiles>
CNC(C)C(=O)NC(C(=O)N1Cc2cc([101O:1][101CH2:1]C3=CCC(c4ncc([100NH:0][100C:0](=O)N5CCCC(n6nc(-c7ccc(Oc8ccc(F)cc8F)cc7)c(C(N)=O)c6N)C5)cn4)NC3)ccc2CC1C(=O)NC1CCCc2ccccc21)C(C)(C)C

> <Shape>
0.317

> <Color>
0.095

> <Negative vol penalty>
0.000

$$$$

  -OEChem-04052303593D

 85 93  0     1  0  0  0  0  0999 V2000
  -17.0435  -30.2849   23.1488 C   0  0  0  0  0  0  0  0  0  0  0  0
  -18.0118  -30.5628   24.1069 C   0  0  0  0  0  0  0  0  0  0  0  0
  -22.8780  -17.7707   22.0780 C   0  0  0  0  0  0  0  0  0  0  0  0
  -22.5712  -18.0153   19.6940 C   0  0  0  0  0  0  0  0  0  0  0  0
  -17.1718  -29.1576   22.3401 C   0  0  0  0  0  0  0  0  0  0  0  0
  -19.1149  -29.7201   24.2486 C   0  0  0  0  0  0  0  0  0  0  0  0
  -25.9578  -27.0026   27.2507 C   0  0  0  0  0  0  0  0  0  0  0  0
  -22.7321  -16.3889   21.9550 C   0  0  0  0  0  0  0  0  0  0  0  0
  -22.4253  -16.6335   19.5711 C   0  0  0  0  0  0  0  0  0  0  0  0
  -26.7595  -25.8655   27.3407 C   0  0  0  0  0  0  0  0  0  0  0  0
  -24.6262  -13.7604   20.9874 C   0  0  0  0  0  0  0  0  0  0  0  0
  -25.5320  -12.9495   21.6712 C   0  0  0  0  0  0  0  0  0  0  0  0
  -26.7902  -25.7040   24.9340 C   0  0  0  0  0  0  0  0  0  0  0  0
  -23.7088  -11.9514   22.9028 C   0  0  0  0  0  0  0  0  0  0  0  0
  -22.7975  -18.5838   20.9475 C   0  0  0  0  0  0  0  0  0  0  0  0
  -22.1487  -20.8860   21.8345 C   0  0  0  0  0  0  0  0  0  0  0  0
  -18.2709  -28.2945   22.4811 C   0  0  0  0  0  0  0  0  0  0  0  0
  -25.5565  -27.4934   25.9999 C   0  0  0  0  0  0  0  0  0  0  0  0
  -19.2746  -28.5906   23.4257 C   0  0  0  0  0  0  0  0  0  0  0  0
  -25.9854  -26.8489   24.8307 C   0  0  0  0  0  0  0  0  0  0  0  0
  -22.5057  -15.8203   20.7016 C   0  0  0  0  0  0  0  0  0  0  0  0
  -27.1735  -25.2144   26.1824 C   0  0  0  0  0  0  0  0  0  0  0  0
  -23.2616  -13.6669   21.2614 C   0  0  0  0  0  0  0  0  0  0  0  0
  -25.0733  -12.0450   22.6288 C   0  0  0  0  0  0  0  0  0  0  0  0
  -22.8029  -12.7623   22.2190 C   0  0  0  0  0  0  0  0  0  0  0  0
  -22.9476  -20.0113   21.0739 C   0  0  0  0  0  0  0  0  0  0  0  0
  -22.6995  -22.1262   21.6222 C   0  0  0  0  0  0  0  0  0  0  0  0
  -29.1904  -24.1472   25.6686 C   0  0  0  0  0  0  0  0  0  1  0  0
  -21.0106  -20.6028   22.6593 C   0  0  0  0  0  0  0  0  0  0  0  0
  -30.0534  -23.1287   25.6780 C   0  0  0  0  0  0  0  0  0  0  0  0
  -31.3498  -23.3121   24.9939 C   0  0  0  0  0  0  0  0  0  0  0  0
  -22.7604  -27.9205   24.5497 C   0  0  0  0  0  0  0  0  0  0  0  0
  -24.5951  -29.3372   22.2805 C   0  0  0  0  0  0  0  0  0  0  0  0
  -27.7685  -28.7023   20.6857 C   0  0  0  0  0  0  0  0  0  0  0  0
  -28.1909  -23.9370   20.0676 C   0  0  0  0  0  0  0  0  0  0  0  0
  -18.3640  -27.0927   21.5742 C   0  0  0  0  0  0  0  0  0  0  0  0
  -24.7137  -28.7365   25.9189 C   0  0  0  0  0  0  0  0  0  0  0  0
  -25.5989  -27.3474   23.4631 C   0  0  0  0  0  0  0  0  0  0  0  0
  -19.3246  -26.0283   22.0945 C   0  0  0  0  0  0  0  0  0  0  0  0
  -25.1448  -24.6285   18.3588 C   0  0  0  0  0  0  0  0  0  0  0  0
  -20.6521  -26.6671   22.4741 C   0  0  0  0  0  0  0  0  0  0  0  0
  -24.1642  -23.6025   18.9295 C   0  0  0  0  0  0  0  0  0  0  0  0
  -30.6655  -21.3539   21.8944 C   0  0  0  0  0  0  0  0  0  0  0  0
  -31.9917  -21.5433   21.1634 C   0  0  0  0  0  0  0  0  0  0  0  0
  -26.5497  -24.0474   18.2154 C   0  0  0  0  0  0  0  0  0  0  0  0
  -26.1190  -22.4200   20.0154 C   0  0  0  0  0  0  0  0  0  0  0  0
  -32.7182  -23.1504   22.9556 C   0  0  0  0  0  0  0  0  0  0  0  0
  -20.4674  -27.6716   23.6186 C   0  0  1  0  0  0  0  0  0  0  0  0
  -23.9398  -28.8496   24.6091 C   0  0  1  0  0  0  0  0  0  0  0  0
  -24.7014  -22.9769   20.2308 C   0  0  2  0  0  0  0  0  0  0  0  0
  -30.2914  -22.5386   22.7983 C   0  0  2  0  0  0  0  0  0  0  0  0
  -33.1395  -21.9289   22.1172 C   0  0  0  0  0  0  0  0  0  0  0  0
  -33.5095  -20.7542   23.0427 C   0  0  0  0  0  0  0  0  0  0  0  0
  -34.3809  -22.2932   21.2829 C   0  0  0  0  0  0  0  0  0  0  0  0
  -29.4101  -30.2815   19.6326 C   0  0  0  0  0  0  0  0  0  0  0  0
  -23.1295  -28.6731   19.6880 C   0  0  0  0  0  0  0  0  0  0  0  0
  -25.3394  -28.7063   18.5118 C   0  0  0  0  0  0  0  0  0  0  0  0
  -24.4830  -30.7747   19.6123 C   0  0  0  0  0  0  0  0  0  0  0  0
  -29.9786  -27.7301   22.3972 C   0  0  0  0  0  0  0  0  0  0  0  0
  -29.7362  -23.7194   21.9973 C   0  0  0  0  0  0  0  0  0  0  0  0
  -25.3190  -28.8650   21.0427 C   0  0  1  0  0  0  0  0  0  0  0  0
  -29.0551  -29.4848   20.8783 C   0  0  2  0  0  0  0  0  0  0  0  0
  -24.5634  -29.2375   19.7359 C   0  0  0  0  0  0  0  0  0  0  0  0
  -23.9309  -20.6423   20.4267 N   0  0  0  0  0  0  0  0  0  0  0  0
  -23.7535  -21.9267   20.7799 N   0  0  0  0  0  0  0  0  0  0  0  0
  -31.4315  -22.9660   23.6423 N   0  0  0  0  0  0  0  0  0  0  0  0
  -24.7686  -28.5629   23.4364 N   0  0  0  0  0  0  0  0  0  0  0  0
  -27.0007  -23.4716   19.4846 N   0  0  0  0  0  0  0  0  0  0  0  0
  -22.3802  -23.3570   22.0757 N   0  0  0  0  0  0  0  0  0  0  0  0
  -19.7373  -20.6348   22.0746 N   0  0  0  0  0  0  0  0  0  0  0  0
  -21.7000  -28.4043   23.8074 N   0  0  0  0  0  0  0  0  0  0  0  0
  -26.6700  -29.4089   21.1275 N   0  0  0  0  0  0  0  0  0  0  0  0
  -28.5427  -23.3425   21.2732 N   0  0  0  0  0  0  0  0  0  0  0  0
  -30.1834  -28.5597   21.1820 N   0  3  0  0  0  0  0  0  0  0  0  0
  -21.1184  -20.3455   23.8823 O   0  0  0  0  0  0  0  0  0  0  0  0
  -32.2827  -23.7642   25.6603 O   0  0  0  0  0  0  0  0  0  0  0  0
  -22.8094  -26.8439   25.1329 O   0  0  0  0  0  0  0  0  0  0  0  0
  -23.9069  -30.3595   22.2256 O   0  0  0  0  0  0  0  0  0  0  0  0
  -27.7405  -27.5784   20.1892 O   0  0  0  0  0  0  0  0  0  0  0  0
  -28.8855  -24.8209   19.5546 O   0  0  0  0  0  0  0  0  0  0  0  0
  -29.7793  -21.9316   26.2958 O   0  0  0  0  0  0  0  0  0  0  0  0
  -22.3635  -14.4721   20.5812 O   0  0  0  0  0  0  0  0  0  0  0  0
  -27.9612  -24.0959   26.2680 O   0  0  0  0  0  0  0  0  0  1  0  0
  -25.9431  -11.2652   23.2842 F   0  0  0  0  0  0  0  0  0  0  0  0
  -21.4931  -12.6671   22.4857 F   0  0  0  0  0  0  0  0  0  0  0  0
  1  2  1  0  0  0  0
  1  5  2  0  0  0  0
  2  6  2  0  0  0  0
  3  8  2  0  0  0  0
  3 15  1  0  0  0  0
  4  9  1  0  0  0  0
  4 15  2  0  0  0  0
  5 17  1  0  0  0  0
  6 19  1  0  0  0  0
  7 10  2  0  0  0  0
  7 18  1  0  0  0  0
  8 21  1  0  0  0  0
  9 21  2  0  0  0  0
 10 22  1  0  0  0  0
 11 12  2  0  0  0  0
 11 23  1  0  0  0  0
 12 24  1  0  0  0  0
 13 20  1  0  0  0  0
 13 22  2  0  0  0  0
 14 24  2  0  0  0  0
 14 25  1  0  0  0  0
 15 26  1  0  0  0  0
 16 26  1  0  0  0  0
 16 27  2  0  0  0  0
 16 29  1  0  0  0  0
 17 19  2  0  0  0  0
 17 36  1  0  0  0  0
 18 20  2  0  0  0  0
 18 37  1  0  0  0  0
 19 48  1  0  0  0  0
 20 38  1  0  0  0  0
 21 82  1  0  0  0  0
 22 83  1  0  0  0  0
 23 25  2  0  0  0  0
 23 82  1  0  0  0  0
 24 84  1  0  0  0  0
 25 85  1  0  0  0  0
 26 64  2  0  0  0  0
 27 65  1  0  0  0  0
 27 69  1  0  0  0  0
 28 30  2  0  0  0  0
 28 83  1  0  0  0  0
 29 70  1  0  0  0  0
 29 75  2  0  0  0  0
 30 31  1  0  0  0  0
 30 81  1  0  0  0  0
 31 66  1  0  0  0  0
 31 76  2  0  0  0  0
 32 49  1  0  0  0  0
 32 71  1  0  0  0  0
 32 77  2  0  0  0  0
 33 61  1  0  0  0  0
 33 67  1  0  0  0  0
 33 78  2  0  0  0  0
 34 62  1  0  0  0  0
 34 72  1  0  0  0  0
 34 79  2  0  0  0  0
 35 68  1  0  0  0  0
 35 73  1  0  0  0  0
 35 80  2  0  0  0  0
 36 39  1  0  0  0  0
 37 49  1  0  0  0  0
 38 67  1  0  0  0  0
 39 41  1  0  0  0  0
 40 42  1  0  0  0  0
 40 45  1  0  0  0  0
 41 48  1  0  0  0  0
 42 50  1  0  0  0  0
 43 44  1  0  0  0  0
 43 51  1  0  0  0  0
 44 52  1  0  0  0  0
 45 68  1  0  0  0  0
 46 50  1  0  0  0  0
 46 68  1  0  0  0  0
 47 52  1  0  0  0  0
 47 66  1  0  0  0  0
 48 71  1  0  0  0  0
 49 67  1  0  0  0  0
 50 65  1  0  0  0  0
 51 60  1  0  0  0  0
 51 66  1  0  0  0  0
 52 53  1  0  0  0  0
 52 54  1  0  0  0  0
 55 62  1  0  0  0  0
 56 63  1  0  0  0  0
 57 63  1  0  0  0  0
 58 63  1  0  0  0  0
 59 74  1  0  0  0  0
 60 73  1  0  0  0  0
 61 63  1  0  0  0  0
 61 72  1  0  0  0  0
 62 74  1  0  0  0  0
 64 65  1  0  0  0  0
M  CHG  1  74   1
M  ISO  4  28 101  35 100  73 100  83 101
M  END
> <Batch ID>
0163

> <Smiles>
CNC(C)C(=O)NC(C(=O)N1Cc2cc([101O:1][101CH2:1]C(=O)C(=O)N3CC(C)(C)CCC3C[100NH:0][100C:0](=O)N3CCCC(n4nc(-c5ccc(Oc6ccc(F)cc6F)cc5)c(C(N)=O)c4N)C3)ccc2CC1C(=O)NC1CCCc2ccccc21)C(C)(C)C

> <Shape>
0.170

> <Color>
0.062

> <Negative vol penalty>
0.000

$$$$

  -OEChem-04052303593D

 86 94  0     1  0  0  0  0  0999 V2000
  -28.8259  -36.4851   24.9801 C   0  0  0  0  0  0  0  0  0  0  0  0
  -29.0641  -35.1740   24.5804 C   0  0  0  0  0  0  0  0  0  0  0  0
  -23.1194   -9.7577   20.0224 C   0  0  0  0  0  0  0  0  0  0  0  0
  -23.8071   -9.9312   22.3320 C   0  0  0  0  0  0  0  0  0  0  0  0
  -31.2273  -19.1100   20.3021 C   0  0  0  0  0  0  0  0  0  0  0  0
  -27.5389  -36.8786   25.3446 C   0  0  0  0  0  0  0  0  0  0  0  0
  -28.0157  -34.2553   24.5462 C   0  0  0  0  0  0  0  0  0  0  0  0
  -27.2605  -29.6785   20.5475 C   0  0  0  0  0  0  0  0  0  0  0  0
  -31.0741  -17.7262   20.3866 C   0  0  0  0  0  0  0  0  0  0  0  0
  -22.3823   -8.6136   20.3279 C   0  0  0  0  0  0  0  0  0  0  0  0
  -23.0700   -8.7871   22.6375 C   0  0  0  0  0  0  0  0  0  0  0  0
  -27.5398  -28.3145   20.6195 C   0  0  0  0  0  0  0  0  0  0  0  0
  -19.8346   -7.9858   23.1948 C   0  0  0  0  0  0  0  0  0  0  0  0
  -19.0419   -8.0146   24.3422 C   0  0  0  0  0  0  0  0  0  0  0  0
  -25.2546  -27.8868   21.2632 C   0  0  0  0  0  0  0  0  0  0  0  0
  -20.2834   -6.1496   25.2465 C   0  0  0  0  0  0  0  0  0  0  0  0
  -23.8319  -10.4165   21.0245 C   0  0  0  0  0  0  0  0  0  0  0  0
  -30.4604  -19.9474   21.1123 C   0  0  0  0  0  0  0  0  0  0  0  0
  -24.1463  -12.9323   20.7428 C   0  0  0  0  0  0  0  0  0  0  0  0
  -26.4723  -35.9667   25.3055 C   0  0  0  0  0  0  0  0  0  0  0  0
  -25.9769  -30.1589   20.8440 C   0  0  0  0  0  0  0  0  0  0  0  0
  -26.7135  -34.6366   24.9118 C   0  0  0  0  0  0  0  0  0  0  0  0
  -24.9610  -29.2571   21.1918 C   0  0  0  0  0  0  0  0  0  0  0  0
  -30.1540  -17.1797   21.2812 C   0  0  0  0  0  0  0  0  0  0  0  0
  -29.5402  -19.4009   22.0068 C   0  0  0  0  0  0  0  0  0  0  0  0
  -22.3575   -8.1283   21.6354 C   0  0  0  0  0  0  0  0  0  0  0  0
  -26.5375  -27.4187   20.9801 C   0  0  0  0  0  0  0  0  0  0  0  0
  -20.8516   -7.0389   23.0732 C   0  0  0  0  0  0  0  0  0  0  0  0
  -19.2663   -7.0965   25.3681 C   0  0  0  0  0  0  0  0  0  0  0  0
  -21.0760   -6.1208   24.0991 C   0  0  0  0  0  0  0  0  0  0  0  0
  -29.3870  -18.0170   22.0913 C   0  0  0  0  0  0  0  0  0  0  0  0
  -24.5940  -11.5980   20.7095 C   0  0  0  0  0  0  0  0  0  0  0  0
  -25.2401  -13.6710   20.3625 C   0  0  0  0  0  0  0  0  0  0  0  0
  -30.6416  -21.4089   21.0037 C   0  0  0  0  0  0  0  0  0  0  0  0
  -22.8572  -13.4571   21.0867 C   0  0  0  0  0  0  0  0  0  0  0  0
  -24.7661  -32.1217   23.0315 C   0  0  0  0  0  0  0  0  0  0  0  0
  -28.2754  -24.1704   20.8453 C   0  0  0  0  0  0  0  0  0  0  0  0
  -22.0423  -31.7258   21.3149 C   0  0  0  0  0  0  0  0  0  0  0  0
  -20.2318  -29.7988   19.1573 C   0  0  0  0  0  0  0  0  0  0  0  0
  -30.6849  -14.8044   20.6311 C   0  0  0  0  0  0  0  0  0  0  0  0
  -25.1076  -36.4262   25.7540 C   0  0  0  0  0  0  0  0  0  0  0  0
  -25.6849  -31.6305   20.7358 C   0  0  0  0  0  0  0  0  0  0  0  0
  -23.5612  -29.7198   21.4999 C   0  0  0  0  0  0  0  0  0  0  0  0
  -23.9798  -35.4883   25.3314 C   0  0  0  0  0  0  0  0  0  0  0  0
  -29.6747  -12.2196   18.4005 C   0  0  0  0  0  0  0  0  0  0  0  0
  -24.3519  -34.0388   25.6267 C   0  0  0  0  0  0  0  0  0  0  0  0
  -28.2260  -11.9373   18.8051 C   0  0  0  0  0  0  0  0  0  0  0  0
  -30.5489  -12.5426   19.6109 C   0  0  0  0  0  0  0  0  0  0  0  0
  -28.5910  -13.3317   20.8810 C   0  0  0  0  0  0  0  0  0  0  0  0
  -25.5975  -33.6172   24.8379 C   0  0  1  0  0  0  0  0  0  0  0  0
  -24.4749  -32.0616   21.5587 C   0  0  1  0  0  0  0  0  0  0  0  0
  -27.6577  -13.0650   19.6888 C   0  0  2  0  0  0  0  0  0  0  0  0
  -18.0254  -29.7187   17.9645 C   0  0  0  0  0  0  0  0  0  0  0  0
  -20.6670  -30.9233   23.9177 C   0  0  0  0  0  0  0  0  0  0  0  0
  -18.7999  -29.9633   22.5538 C   0  0  0  0  0  0  0  0  0  0  0  0
  -19.3049  -32.4031   22.4313 C   0  0  0  0  0  0  0  0  0  0  0  0
  -21.5361  -29.8106   16.5007 C   0  0  0  0  0  0  0  0  0  0  0  0
  -29.6390  -23.6147   20.5282 C   0  0  0  0  0  0  0  0  0  0  0  0
  -28.1393  -25.6767   20.7442 C   0  0  0  0  0  0  0  0  0  1  0  0
  -20.8877  -30.7540   21.3509 C   0  0  1  0  0  0  0  0  0  0  0  0
  -19.4829  -30.1452   17.8831 C   0  0  2  0  0  0  0  0  0  0  0  0
  -19.9417  -31.0021   22.5596 C   0  0  0  0  0  0  0  0  0  0  0  0
  -25.8724  -11.4922   20.3373 N   0  0  0  0  0  0  0  0  0  0  0  0
  -26.2374  -12.7694   20.1331 N   0  0  0  0  0  0  0  0  0  0  0  0
  -23.3270  -31.1689   21.3864 N   0  0  0  0  0  0  0  0  0  0  0  0
  -29.9502  -13.6225   20.3985 N   0  0  0  0  0  0  0  0  0  0  0  0
  -28.7562  -20.2354   22.8339 N   0  0  0  0  0  0  0  0  0  0  0  0
  -25.4363  -14.9973   20.2051 N   0  0  0  0  0  0  0  0  0  0  0  0
  -21.8464  -12.5585   21.4544 N   0  0  0  0  0  0  0  0  0  0  0  0
  -30.0010  -15.7735   21.3645 N   0  0  0  0  0  0  0  0  0  0  0  0
  -29.5888  -22.1676   20.6505 N   0  0  0  0  0  0  0  0  0  0  0  0
  -25.2535  -33.3419   23.4594 N   0  0  0  0  0  0  0  0  0  0  0  0
  -20.2333  -30.8492   20.0505 N   0  0  0  0  0  0  0  0  0  0  0  0
  -31.8488  -21.9130   21.2598 N   0  3  0  0  0  0  0  0  0  0  0  0
  -20.1073  -29.4641   16.7138 N   0  3  0  0  0  0  0  0  0  0  0  0
  -22.6042  -14.6852   21.0527 O   0  0  0  0  0  0  0  0  0  0  0  0
  -24.5623  -31.1345   23.7284 O   0  0  0  0  0  0  0  0  0  0  0  0
  -27.3280  -23.4545   21.1667 O   0  0  0  0  0  0  0  0  0  0  0  0
  -21.8130  -32.9341   21.2195 O   0  0  0  0  0  0  0  0  0  0  0  0
  -20.7593  -28.7044   19.3433 O   0  0  0  0  0  0  0  0  0  0  0  0
  -31.8259  -14.9572   20.1876 O   0  0  0  0  0  0  0  0  0  0  0  0
  -21.6381   -7.0121   21.9338 O   0  0  0  0  0  0  0  0  0  0  0  0
  -26.8075  -26.0868   21.0517 O   0  0  0  0  0  0  0  0  0  1  0  0
  -18.5061   -7.1252   26.4705 F   0  0  0  0  0  0  0  0  0  0  0  0
  -22.0523   -5.2095   23.9885 F   0  0  0  0  0  0  0  0  0  0  0  0
  -28.5019  -17.4907   22.9518 F   0  0  0  0  0  0  0  0  0  0  0  0
  1  2  1  0  0  0  0
  1  6  2  0  0  0  0
  2  7  2  0  0  0  0
  3 10  2  0  0  0  0
  3 17  1  0  0  0  0
  4 11  1  0  0  0  0
  4 17  2  0  0  0  0
  5  9  2  0  0  0  0
  5 18  1  0  0  0  0
  6 20  1  0  0  0  0
  7 22  1  0  0  0  0
  8 12  2  0  0  0  0
  8 21  1  0  0  0  0
  9 24  1  0  0  0  0
 10 26  1  0  0  0  0
 11 26  2  0  0  0  0
 12 27  1  0  0  0  0
 13 14  2  0  0  0  0
 13 28  1  0  0  0  0
 14 29  1  0  0  0  0
 15 23  1  0  0  0  0
 15 27  2  0  0  0  0
 16 29  2  0  0  0  0
 16 30  1  0  0  0  0
 17 32  1  0  0  0  0
 18 25  2  0  0  0  0
 18 34  1  0  0  0  0
 19 32  1  0  0  0  0
 19 33  2  0  0  0  0
 19 35  1  0  0  0  0
 20 22  2  0  0  0  0
 20 41  1  0  0  0  0
 21 23  2  0  0  0  0
 21 42  1  0  0  0  0
 22 50  1  0  0  0  0
 23 43  1  0  0  0  0
 24 31  2  0  0  0  0
 24 70  1  0  0  0  0
 25 31  1  0  0  0  0
 25 67  1  0  0  0  0
 26 82  1  0  0  0  0
 27 83  1  0  0  0  0
 28 30  2  0  0  0  0
 28 82  1  0  0  0  0
 29 84  1  0  0  0  0
 30 85  1  0  0  0  0
 31 86  1  0  0  0  0
 32 63  2  0  0  0  0
 33 64  1  0  0  0  0
 33 68  1  0  0  0  0
 34 71  1  0  0  0  0
 34 74  2  0  0  0  0
 35 69  1  0  0  0  0
 35 76  2  0  0  0  0
 36 51  1  0  0  0  0
 36 72  1  0  0  0  0
 36 77  2  0  0  0  0
 37 58  1  0  0  0  0
 37 59  1  0  0  0  0
 37 78  2  0  0  0  0
 38 60  1  0  0  0  0
 38 65  1  0  0  0  0
 38 79  2  0  0  0  0
 39 61  1  0  0  0  0
 39 73  1  0  0  0  0
 39 80  2  0  0  0  0
 40 66  1  0  0  0  0
 40 70  1  0  0  0  0
 40 81  2  0  0  0  0
 41 44  1  0  0  0  0
 42 51  1  0  0  0  0
 43 65  1  0  0  0  0
 44 46  1  0  0  0  0
 45 47  1  0  0  0  0
 45 48  1  0  0  0  0
 46 50  1  0  0  0  0
 47 52  1  0  0  0  0
 48 66  1  0  0  0  0
 49 52  1  0  0  0  0
 49 66  1  0  0  0  0
 50 72  1  0  0  0  0
 51 65  1  0  0  0  0
 52 64  1  0  0  0  0
 53 61  1  0  0  0  0
 54 62  1  0  0  0  0
 55 62  1  0  0  0  0
 56 62  1  0  0  0  0
 57 75  1  0  0  0  0
 58 71  1  0  0  0  0
 59 83  1  0  0  0  0
 60 62  1  0  0  0  0
 60 73  1  0  0  0  0
 61 75  1  0  0  0  0
 63 64  1  0  0  0  0
M  CHG  2  74   1  75   1
M  ISO  4  40 100  59 101  70 100  83 101
M  END
> <Batch ID>
0163

> <Smiles>
CNC(C)C(=O)NC(C(=O)N1Cc2cc([101O:1][101CH2:1]C(=O)CNC(=N)c3ccc([100NH:0][100C:0](=O)N4CCCC(n5nc(-c6ccc(Oc7ccc(F)cc7F)cc6)c(C(N)=O)c5N)C4)c(F)c3N)ccc2CC1C(=O)NC1CCCc2ccccc21)C(C)(C)C

> <Shape>
0.357

> <Color>
0.211

> <Negative vol penalty>
0.000

$$$$

  -OEChem-04052303593D

 84 92  0     1  0  0  0  0  0999 V2000
  -30.2950  -11.9305   19.2359 C   0  0  0  0  0  0  0  0  0  0  0  0
  -29.8426  -12.3352   20.4867 C   0  0  0  0  0  0  0  0  0  0  0  0
  -23.4479  -24.6142   20.5498 C   0  0  0  0  0  0  0  0  0  0  0  0
  -24.4188  -24.1816   22.7194 C   0  0  0  0  0  0  0  0  0  0  0  0
  -29.6448  -12.3747   18.0865 C   0  0  0  0  0  0  0  0  0  0  0  0
  -28.7326  -13.1745   20.5889 C   0  0  0  0  0  0  0  0  0  0  0  0
  -26.9993  -14.0470   25.1098 C   0  0  0  0  0  0  0  0  0  0  0  0
  -22.2517  -24.9911   21.1602 C   0  0  0  0  0  0  0  0  0  0  0  0
  -23.2226  -24.5586   23.3298 C   0  0  0  0  0  0  0  0  0  0  0  0
  -27.6677  -14.8525   26.0308 C   0  0  0  0  0  0  0  0  0  0  0  0
  -19.0596  -26.4121   22.1634 C   0  0  0  0  0  0  0  0  0  0  0  0
  -18.4321  -27.5689   21.7013 C   0  0  0  0  0  0  0  0  0  0  0  0
  -26.1053  -16.6378   25.5942 C   0  0  0  0  0  0  0  0  0  0  0  0
  -20.3856  -28.8634   22.2890 C   0  0  0  0  0  0  0  0  0  0  0  0
  -24.5315  -24.2094   21.3294 C   0  0  0  0  0  0  0  0  0  0  0  0
  -26.8568  -24.6506   20.3777 C   0  0  0  0  0  0  0  0  0  0  0  0
  -28.5341  -13.2299   18.1751 C   0  0  0  0  0  0  0  0  0  0  0  0
  -25.8836  -14.5355   24.4148 C   0  0  0  0  0  0  0  0  0  0  0  0
  -28.0482  -13.6144   19.4414 C   0  0  0  0  0  0  0  0  0  0  0  0
  -25.4230  -15.8357   24.6667 C   0  0  0  0  0  0  0  0  0  0  0  0
  -22.1391  -24.9634   22.5502 C   0  0  0  0  0  0  0  0  0  0  0  0
  -27.2225  -16.1491   26.2710 C   0  0  0  0  0  0  0  0  0  0  0  0
  -20.3501  -26.4809   22.6885 C   0  0  0  0  0  0  0  0  0  0  0  0
  -19.0951  -28.7945   21.7640 C   0  0  0  0  0  0  0  0  0  0  0  0
  -21.0131  -27.7065   22.7512 C   0  0  0  0  0  0  0  0  0  0  0  0
  -25.7672  -23.8193   20.6994 C   0  0  0  0  0  0  0  0  0  0  0  0
  -31.9222  -16.3820   23.1451 C   0  0  0  0  0  0  0  0  0  0  0  0
  -31.5577  -17.6921   22.9574 C   0  0  0  0  0  0  0  0  0  0  0  0
  -27.7737  -23.8067   19.8001 C   0  0  0  0  0  0  0  0  0  0  0  0
  -31.0110  -17.1600   24.9172 C   0  0  0  0  0  0  0  0  0  0  0  0
  -27.0251  -26.0596   20.5828 C   0  0  0  0  0  0  0  0  0  0  0  0
  -32.5492  -15.4162   22.3129 C   0  0  0  0  0  0  0  0  0  0  0  0
  -25.1977  -15.0552   21.3549 C   0  0  0  0  0  0  0  0  0  0  0  0
  -22.2508  -15.7265   22.5328 C   0  0  0  0  0  0  0  0  0  0  0  0
  -20.3477  -16.7117   25.1888 C   0  0  0  0  0  0  0  0  0  0  0  0
  -29.7616  -18.3878   20.2450 C   0  0  0  0  0  0  0  0  0  0  0  0
  -27.8634  -13.6741   16.8992 C   0  0  0  0  0  0  0  0  0  0  0  0
  -25.1576  -13.6448   23.4442 C   0  0  0  0  0  0  0  0  0  0  0  0
  -24.2177  -16.4005   23.9619 C   0  0  0  0  0  0  0  0  0  0  0  0
  -26.9821  -14.9045   17.0880 C   0  0  0  0  0  0  0  0  0  0  0  0
  -27.5442  -19.3670   17.6371 C   0  0  0  0  0  0  0  0  0  0  0  0
  -26.0569  -14.7035   18.2789 C   0  0  0  0  0  0  0  0  0  0  0  0
  -26.9612  -20.6922   18.1310 C   0  0  0  0  0  0  0  0  0  0  0  0
  -27.7606  -18.3830   18.7847 C   0  0  0  0  0  0  0  0  0  0  0  0
  -27.9802  -20.2314   20.4000 C   0  0  0  0  0  0  0  0  0  0  0  0
  -26.8616  -14.5515   19.5760 C   0  0  1  0  0  0  0  0  0  0  0  0
  -24.3421  -14.4218   22.4153 C   0  0  1  0  0  0  0  0  0  0  0  0
  -27.7965  -21.2764   19.2862 C   0  0  2  0  0  0  0  0  0  0  0  0
  -32.8022  -14.0290   22.8721 C   0  0  0  0  0  0  0  0  0  0  0  0
  -17.9740  -17.2057   25.8359 C   0  0  0  0  0  0  0  0  0  0  0  0
  -27.7386  -19.3026   27.4082 C   0  0  0  0  0  0  0  0  0  0  0  0
  -22.4074  -18.3945   21.0606 C   0  0  0  0  0  0  0  0  0  0  0  0
  -20.5092  -19.2076   22.4763 C   0  0  0  0  0  0  0  0  0  0  0  0
  -20.1778  -17.2676   20.9435 C   0  0  0  0  0  0  0  0  0  0  0  0
  -20.3385  -14.5740   27.2355 C   0  0  0  0  0  0  0  0  0  0  0  0
  -31.7174  -18.5375   21.7654 C   0  0  0  0  0  0  0  0  0  0  0  0
  -29.9344  -18.1719   26.9279 C   0  0  0  0  0  0  0  0  0  0  0  0
  -21.5597  -16.9692   23.0396 C   0  0  1  0  0  0  0  0  0  0  0  0
  -19.0650  -16.1481   25.7730 C   0  0  2  0  0  0  0  0  0  0  0  0
  -28.4278  -18.1581   26.6796 C   0  0  1  0  0  0  0  0  0  1  0  0
  -21.1874  -17.9501   21.8920 C   0  0  0  0  0  0  0  0  0  0  0  0
  -25.9713  -22.5452   20.3546 N   0  0  0  0  0  0  0  0  0  0  0  0
  -30.9740  -18.1852   24.0963 N   0  0  0  0  0  0  0  0  0  0  0  0
  -27.1998  -22.5695   19.8102 N   0  0  0  0  0  0  0  0  0  0  0  0
  -23.5456  -15.4929   23.0174 N   0  0  0  0  0  0  0  0  0  0  0  0
  -28.5610  -18.9982   19.8463 N   0  0  0  0  0  0  0  0  0  0  0  0
  -29.0068  -24.0097   19.2896 N   0  0  0  0  0  0  0  0  0  0  0  0
  -25.9845  -26.7754   21.1904 N   0  0  0  0  0  0  0  0  0  0  0  0
  -30.5578  -17.0748   26.2230 N   0  0  0  0  0  0  0  0  0  0  0  0
  -25.9680  -14.1561   20.6423 N   0  0  0  0  0  0  0  0  0  0  0  0
  -20.4202  -16.5104   23.8267 N   0  0  0  0  0  0  0  0  0  0  0  0
  -30.4620  -19.0395   21.2527 N   0  0  0  0  0  0  0  0  0  0  0  0
  -19.3045  -15.6374   27.1524 N   0  3  0  0  0  0  0  0  0  0  0  0
  -28.0608  -26.6689   20.2227 O   0  0  0  0  0  0  0  0  0  0  0  0
  -32.9315  -15.5922   21.1333 O   0  0  0  0  0  0  0  0  0  0  0  0
  -25.1605  -16.2694   21.1941 O   0  0  0  0  0  0  0  0  0  0  0  0
  -21.6608  -14.9863   21.7418 O   0  0  0  0  0  0  0  0  0  0  0  0
  -21.1985  -17.2774   25.8719 O   0  0  0  0  0  0  0  0  0  0  0  0
  -30.1811  -17.3426   19.7366 O   0  0  0  0  0  0  0  0  0  0  0  0
  -31.5722  -16.0271   24.4128 O   0  0  0  0  0  0  0  0  0  0  0  0
  -20.9720  -25.3314   23.1462 O   0  0  0  0  0  0  0  0  0  0  0  0
  -27.8734  -16.9376   27.1689 O   0  0  0  0  0  0  0  0  0  1  0  0
  -18.4930  -29.9051   21.3187 F   0  0  0  0  0  0  0  0  0  0  0  0
  -22.2534  -27.7787   23.2535 F   0  0  0  0  0  0  0  0  0  0  0  0
  1  2  1  0  0  0  0
  1  5  2  0  0  0  0
  2  6  2  0  0  0  0
  3  8  2  0  0  0  0
  3 15  1  0  0  0  0
  4  9  1  0  0  0  0
  4 15  2  0  0  0  0
  5 17  1  0  0  0  0
  6 19  1  0  0  0  0
  7 10  2  0  0  0  0
  7 18  1  0  0  0  0
  8 21  1  0  0  0  0
  9 21  2  0  0  0  0
 10 22  1  0  0  0  0
 11 12  2  0  0  0  0
 11 23  1  0  0  0  0
 12 24  1  0  0  0  0
 13 20  1  0  0  0  0
 13 22  2  0  0  0  0
 14 24  2  0  0  0  0
 14 25  1  0  0  0  0
 15 26  1  0  0  0  0
 16 26  1  0  0  0  0
 16 29  2  0  0  0  0
 16 31  1  0  0  0  0
 17 19  2  0  0  0  0
 17 37  1  0  0  0  0
 18 20  2  0  0  0  0
 18 38  1  0  0  0  0
 19 46  1  0  0  0  0
 20 39  1  0  0  0  0
 21 81  1  0  0  0  0
 22 82  1  0  0  0  0
 23 25  2  0  0  0  0
 23 81  1  0  0  0  0
 24 83  1  0  0  0  0
 25 84  1  0  0  0  0
 26 62  2  0  0  0  0
 27 28  2  0  0  0  0
 27 32  1  0  0  0  0
 27 80  1  0  0  0  0
 28 56  1  0  0  0  0
 28 63  1  0  0  0  0
 29 64  1  0  0  0  0
 29 67  1  0  0  0  0
 30 63  2  0  0  0  0
 30 69  1  0  0  0  0
 30 80  1  0  0  0  0
 31 68  1  0  0  0  0
 31 74  2  0  0  0  0
 32 49  1  0  0  0  0
 32 75  2  0  0  0  0
 33 47  1  0  0  0  0
 33 70  1  0  0  0  0
 33 76  2  0  0  0  0
 34 58  1  0  0  0  0
 34 65  1  0  0  0  0
 34 77  2  0  0  0  0
 35 59  1  0  0  0  0
 35 71  1  0  0  0  0
 35 78  2  0  0  0  0
 36 66  1  0  0  0  0
 36 72  1  0  0  0  0
 36 79  2  0  0  0  0
 37 40  1  0  0  0  0
 38 47  1  0  0  0  0
 39 65  1  0  0  0  0
 40 42  1  0  0  0  0
 41 43  1  0  0  0  0
 41 44  1  0  0  0  0
 42 46  1  0  0  0  0
 43 48  1  0  0  0  0
 44 66  1  0  0  0  0
 45 48  1  0  0  0  0
 45 66  1  0  0  0  0
 46 70  1  0  0  0  0
 47 65  1  0  0  0  0
 48 64  1  0  0  0  0
 50 59  1  0  0  0  0
 51 60  1  0  0  0  0
 52 61  1  0  0  0  0
 53 61  1  0  0  0  0
 54 61  1  0  0  0  0
 55 73  1  0  0  0  0
 56 72  1  0  0  0  0
 57 60  1  0  0  0  0
 57 69  1  0  0  0  0
 58 61  1  0  0  0  0
 58 71  1  0  0  0  0
 59 73  1  0  0  0  0
 60 82  1  0  0  0  0
 62 64  1  0  0  0  0
M  CHG  1  73   1
M  ISO  4  36 100  60 101  72 100  82 101
M  END
> <Batch ID>
0163

> <Smiles>
CNC(C)C(=O)NC(C(=O)N1Cc2cc([101O:1][101CH:1](C)CNc3nc(C[100NH:0][100C:0](=O)N4CCCC(n5nc(-c6ccc(Oc7ccc(F)cc7F)cc6)c(C(N)=O)c5N)C4)c(C(C)=O)o3)ccc2CC1C(=O)NC1CCCc2ccccc21)C(C)(C)C

> <Shape>
0.174

> <Color>
0.081

> <Negative vol penalty>
0.000

$$$$

  -OEChem-04052303593D

 89 97  0     1  0  0  0  0  0999 V2000
  -17.0044  -25.9446   23.8969 C   0  0  0  0  0  0  0  0  0  0  0  0
  -18.2023  -25.3877   24.3332 C   0  0  0  0  0  0  0  0  0  0  0  0
  -32.5138  -17.8228   23.3187 C   0  0  0  0  0  0  0  0  0  0  0  0
  -23.1324   -9.8684   20.0367 C   0  0  0  0  0  0  0  0  0  0  0  0
  -23.8721   -9.9775   22.3341 C   0  0  0  0  0  0  0  0  0  0  0  0
  -17.0189  -27.0102   22.9980 C   0  0  0  0  0  0  0  0  0  0  0  0
  -19.4155  -25.8955   23.8698 C   0  0  0  0  0  0  0  0  0  0  0  0
  -24.6651  -26.3153   26.9957 C   0  0  0  0  0  0  0  0  0  0  0  0
  -31.7104  -18.7068   24.0388 C   0  0  0  0  0  0  0  0  0  0  0  0
  -31.9309  -16.9012   22.4488 C   0  0  0  0  0  0  0  0  0  0  0  0
  -22.4150   -8.7069   20.3228 C   0  0  0  0  0  0  0  0  0  0  0  0
  -23.1546   -8.8161   22.6202 C   0  0  0  0  0  0  0  0  0  0  0  0
  -25.8038  -25.5116   27.0290 C   0  0  0  0  0  0  0  0  0  0  0  0
  -19.9420   -7.9605   23.2264 C   0  0  0  0  0  0  0  0  0  0  0  0
  -19.1761   -7.9443   24.3921 C   0  0  0  0  0  0  0  0  0  0  0  0
  -26.8625  -26.9551   25.4120 C   0  0  0  0  0  0  0  0  0  0  0  0
  -20.4584   -6.0663   25.2084 C   0  0  0  0  0  0  0  0  0  0  0  0
  -23.8610  -10.5037   21.0423 C   0  0  0  0  0  0  0  0  0  0  0  0
  -29.7411  -17.7477   23.0192 C   0  0  0  0  0  0  0  0  0  0  0  0
  -24.1416  -13.0306   20.8328 C   0  0  0  0  0  0  0  0  0  0  0  0
  -18.2331  -27.5376   22.5308 C   0  0  0  0  0  0  0  0  0  0  0  0
  -24.6124  -27.4407   26.1608 C   0  0  0  0  0  0  0  0  0  0  0  0
  -19.4463  -26.9683   22.9627 C   0  0  0  0  0  0  0  0  0  0  0  0
  -25.7230  -27.7729   25.3719 C   0  0  0  0  0  0  0  0  0  0  0  0
  -30.3241  -18.6693   23.8891 C   0  0  0  0  0  0  0  0  0  0  0  0
  -30.5446  -16.8637   22.2991 C   0  0  0  0  0  0  0  0  0  0  0  0
  -22.4261   -8.1808   21.6145 C   0  0  0  0  0  0  0  0  0  0  0  0
  -26.9017  -25.8298   26.2349 C   0  0  0  0  0  0  0  0  0  0  0  0
  -20.9660   -7.0296   23.0517 C   0  0  0  0  0  0  0  0  0  0  0  0
  -19.4344   -6.9972   25.3831 C   0  0  0  0  0  0  0  0  0  0  0  0
  -21.2242   -6.0826   24.0426 C   0  0  0  0  0  0  0  0  0  0  0  0
  -24.6027  -11.7032   20.7472 C   0  0  0  0  0  0  0  0  0  0  0  0
  -25.2181  -13.7933   20.4509 C   0  0  0  0  0  0  0  0  0  0  0  0
  -28.2885  -17.7062   22.8646 C   0  0  0  0  0  0  0  0  0  0  0  0
  -22.8553  -13.5294   21.2228 C   0  0  0  0  0  0  0  0  0  0  0  0
  -27.3874  -17.4227   24.0394 C   0  0  0  0  0  0  0  0  0  0  0  0
  -22.8008  -28.3284   23.7044 C   0  0  0  0  0  0  0  0  0  0  0  0
  -28.9035  -22.8257   25.8872 C   0  0  0  0  0  0  0  0  0  0  0  0
  -24.4508  -31.1062   23.9939 C   0  0  0  0  0  0  0  0  0  0  0  0
  -29.9711  -20.5496   25.5210 C   0  0  0  0  0  0  0  0  0  0  0  0
  -27.2740  -32.7017   25.0572 C   0  0  0  0  0  0  0  0  0  0  0  0
  -30.6552  -14.9803   20.6296 C   0  0  0  0  0  0  0  0  0  0  0  0
  -18.1975  -28.6593   21.5232 C   0  0  0  0  0  0  0  0  0  0  0  0
  -23.3867  -28.3126   26.1565 C   0  0  0  0  0  0  0  0  0  0  0  0
  -25.7244  -28.9818   24.4736 C   0  0  0  0  0  0  0  0  0  0  0  0
  -19.5329  -29.3828   21.3698 C   0  0  0  0  0  0  0  0  0  0  0  0
  -29.6210  -12.4551   18.3425 C   0  0  0  0  0  0  0  0  0  0  0  0
  -20.6733  -28.3776   21.2440 C   0  0  0  0  0  0  0  0  0  0  0  0
  -28.1853  -12.1436   18.7713 C   0  0  0  0  0  0  0  0  0  0  0  0
  -30.5198  -12.7501   19.5420 C   0  0  0  0  0  0  0  0  0  0  0  0
  -28.5838  -13.4765   20.8811 C   0  0  0  0  0  0  0  0  0  0  0  0
  -20.7831  -27.5076   22.5020 C   0  0  1  0  0  0  0  0  0  0  0  0
  -23.2491  -29.1435   24.8844 C   0  0  1  0  0  0  0  0  0  0  0  0
  -27.6257  -13.2365   19.7029 C   0  0  2  0  0  0  0  0  0  0  0  0
  -27.5590  -16.1156   24.7465 C   0  0  0  0  0  0  0  0  0  0  0  0
  -28.3509  -34.9675   25.1206 C   0  0  0  0  0  0  0  0  0  0  0  0
  -25.1482  -30.8548   21.0341 C   0  0  0  0  0  0  0  0  0  0  0  0
  -26.9475  -32.5600   21.3848 C   0  0  0  0  0  0  0  0  0  0  0  0
  -24.5603  -33.1702   21.7743 C   0  0  0  0  0  0  0  0  0  0  0  0
  -27.3365  -32.7173   28.0161 C   0  0  0  0  0  0  0  0  0  0  0  0
  -28.8207  -21.3322   26.1247 C   0  0  0  0  0  0  0  0  0  0  0  0
  -27.8254  -23.6608   26.5483 C   0  0  0  0  0  0  0  0  0  1  0  0
  -25.7357  -31.6514   23.4187 C   0  0  1  0  0  0  0  0  0  0  0  0
  -27.4695  -33.9742   25.8617 C   0  0  2  0  0  0  0  0  0  0  0  0
  -25.5975  -32.0351   21.9183 C   0  0  0  0  0  0  0  0  0  0  0  0
  -25.8731  -11.6238   20.3425 N   0  0  0  0  0  0  0  0  0  0  0  0
  -27.6859  -17.9072   21.7268 N   0  0  0  0  0  0  0  0  0  0  0  0
  -26.5378  -18.3305   24.3840 N   0  0  0  0  0  0  0  0  0  0  0  0
  -26.2195  -12.9108   20.1703 N   0  0  0  0  0  0  0  0  0  0  0  0
  -24.5004  -29.7995   24.4996 N   0  0  0  0  0  0  0  0  0  0  0  0
  -29.9281  -13.7979   20.3768 N   0  0  0  0  0  0  0  0  0  0  0  0
  -25.3963  -15.1261   20.3310 N   0  0  0  0  0  0  0  0  0  0  0  0
  -21.8631  -12.6082   21.5852 N   0  0  0  0  0  0  0  0  0  0  0  0
  -29.5321  -19.5781   24.6311 N   0  0  0  0  0  0  0  0  0  0  0  0
  -29.9782  -15.9181   21.4087 N   0  0  0  0  0  0  0  0  0  0  0  0
  -21.4283  -28.2416   23.5694 N   0  0  0  0  0  0  0  0  0  0  0  0
  -26.1337  -32.7565   24.2839 N   0  0  0  0  0  0  0  0  0  0  0  0
  -28.1084  -33.6654   27.1722 N   0  3  0  0  0  0  0  0  0  0  0  0
  -22.5883  -14.7551   21.2334 O   0  0  0  0  0  0  0  0  0  0  0  0
  -23.6381  -27.8175   22.9699 O   0  0  0  0  0  0  0  0  0  0  0  0
  -29.7855  -23.3317   25.1948 O   0  0  0  0  0  0  0  0  0  0  0  0
  -23.4421  -31.8163   24.0009 O   0  0  0  0  0  0  0  0  0  0  0  0
  -31.1303  -20.8270   25.8168 O   0  0  0  0  0  0  0  0  0  0  0  0
  -28.0566  -31.7554   25.1068 O   0  0  0  0  0  0  0  0  0  0  0  0
  -31.7838  -15.1600   20.1649 O   0  0  0  0  0  0  0  0  0  0  0  0
  -21.7259   -7.0475   21.8942 O   0  0  0  0  0  0  0  0  0  0  0  0
  -28.0142  -25.0466   26.2650 O   0  0  0  0  0  0  0  0  0  1  0  0
  -18.6999   -6.9827   26.5031 F   0  0  0  0  0  0  0  0  0  0  0  0
  -22.2074   -5.1865   23.8809 F   0  0  0  0  0  0  0  0  0  0  0  0
  1  2  1  0  0  0  0
  1  6  2  0  0  0  0
  2  7  2  0  0  0  0
  3  9  2  0  0  0  0
  3 10  1  0  0  0  0
  4 11  2  0  0  0  0
  4 18  1  0  0  0  0
  5 12  1  0  0  0  0
  5 18  2  0  0  0  0
  6 21  1  0  0  0  0
  7 23  1  0  0  0  0
  8 13  2  0  0  0  0
  8 22  1  0  0  0  0
  9 25  1  0  0  0  0
 10 26  2  0  0  0  0
 11 27  1  0  0  0  0
 12 27  2  0  0  0  0
 13 28  1  0  0  0  0
 14 15  2  0  0  0  0
 14 29  1  0  0  0  0
 15 30  1  0  0  0  0
 16 24  1  0  0  0  0
 16 28  2  0  0  0  0
 17 30  2  0  0  0  0
 17 31  1  0  0  0  0
 18 32  1  0  0  0  0
 19 25  2  0  0  0  0
 19 26  1  0  0  0  0
 19 34  1  0  0  0  0
 20 32  1  0  0  0  0
 20 33  2  0  0  0  0
 20 35  1  0  0  0  0
 21 23  2  0  0  0  0
 21 43  1  0  0  0  0
 22 24  2  0  0  0  0
 22 44  1  0  0  0  0
 23 52  1  0  0  0  0
 24 45  1  0  0  0  0
 25 74  1  0  0  0  0
 26 75  1  0  0  0  0
 27 86  1  0  0  0  0
 28 87  1  0  0  0  0
 29 31  2  0  0  0  0
 29 86  1  0  0  0  0
 30 88  1  0  0  0  0
 31 89  1  0  0  0  0
 32 66  2  0  0  0  0
 33 69  1  0  0  0  0
 33 72  1  0  0  0  0
 34 36  1  0  0  0  0
 34 67  2  0  0  0  0
 35 73  1  0  0  0  0
 35 79  2  0  0  0  0
 36 55  1  0  0  0  0
 36 68  2  0  0  0  0
 37 53  1  0  0  0  0
 37 76  1  0  0  0  0
 37 80  2  0  0  0  0
 38 61  1  0  0  0  0
 38 62  1  0  0  0  0
 38 81  2  0  0  0  0
 39 63  1  0  0  0  0
 39 70  1  0  0  0  0
 39 82  2  0  0  0  0
 40 61  1  0  0  0  0
 40 74  1  0  0  0  0
 40 83  2  0  0  0  0
 41 64  1  0  0  0  0
 41 77  1  0  0  0  0
 41 84  2  0  0  0  0
 42 71  1  0  0  0  0
 42 75  1  0  0  0  0
 42 85  2  0  0  0  0
 43 46  1  0  0  0  0
 44 53  1  0  0  0  0
 45 70  1  0  0  0  0
 46 48  1  0  0  0  0
 47 49  1  0  0  0  0
 47 50  1  0  0  0  0
 48 52  1  0  0  0  0
 49 54  1  0  0  0  0
 50 71  1  0  0  0  0
 51 54  1  0  0  0  0
 51 71  1  0  0  0  0
 52 76  1  0  0  0  0
 53 70  1  0  0  0  0
 54 69  1  0  0  0  0
 56 64  1  0  0  0  0
 57 65  1  0  0  0  0
 58 65  1  0  0  0  0
 59 65  1  0  0  0  0
 60 78  1  0  0  0  0
 62 87  1  0  0  0  0
 63 65  1  0  0  0  0
 63 77  1  0  0  0  0
 64 78  1  0  0  0  0
 66 69  1  0  0  0  0
M  CHG  1  78   1
M  ISO  4  42 100  62 101  75 100  87 101
M  END
> <Batch ID>
0163

> <Smiles>
CNC(C)C(=O)NC(C(=O)N1Cc2cc([101O:1][101CH2:1]C(=O)CC(=O)Nc3cccc([100NH:0][100C:0](=O)N4CCCC(n5nc(-c6ccc(Oc7ccc(F)cc7F)cc6)c(C(N)=O)c5N)C4)c3C(=N)C(C)=N)ccc2CC1C(=O)NC1CCCc2ccccc21)C(C)(C)C

> <Shape>
0.308

> <Color>
0.214

> <Negative vol penalty>
0.000

$$$$

  -OEChem-04052303593D

 86 94  0     1  0  0  0  0  0999 V2000
  -18.1291  -26.5147   22.6575 C   0  0  0  0  0  0  0  0  0  0  0  0
  -19.4882  -26.2785   22.4767 C   0  0  0  0  0  0  0  0  0  0  0  0
  -31.0560  -18.9310   18.3144 C   0  0  0  0  0  0  0  0  0  0  0  0
  -23.2332   -9.8616   21.4504 C   0  0  0  0  0  0  0  0  0  0  0  0
  -23.9064  -10.8688   23.5408 C   0  0  0  0  0  0  0  0  0  0  0  0
  -17.6791  -27.8018   22.9486 C   0  0  0  0  0  0  0  0  0  0  0  0
  -20.3979  -27.3297   22.5858 C   0  0  0  0  0  0  0  0  0  0  0  0
  -24.4847  -26.0874   25.3061 C   0  0  0  0  0  0  0  0  0  0  0  0
  -30.2611  -19.9796   18.7772 C   0  0  0  0  0  0  0  0  0  0  0  0
  -30.9439  -17.6648   18.8888 C   0  0  0  0  0  0  0  0  0  0  0  0
  -22.5296   -8.8809   22.1494 C   0  0  0  0  0  0  0  0  0  0  0  0
  -23.2027   -9.8881   24.2398 C   0  0  0  0  0  0  0  0  0  0  0  0
  -25.4605  -25.3180   24.6740 C   0  0  0  0  0  0  0  0  0  0  0  0
  -19.5654   -8.6081   23.7532 C   0  0  0  0  0  0  0  0  0  0  0  0
  -18.2806   -8.2929   23.3111 C   0  0  0  0  0  0  0  0  0  0  0  0
  -26.7736  -27.3058   24.2949 C   0  0  0  0  0  0  0  0  0  0  0  0
  -18.9700   -6.0079   22.9363 C   0  0  0  0  0  0  0  0  0  0  0  0
  -23.9217  -10.8555   22.1461 C   0  0  0  0  0  0  0  0  0  0  0  0
  -24.1616  -13.1129   20.9822 C   0  0  0  0  0  0  0  0  0  0  0  0
  -18.5847  -28.8674   23.0709 C   0  0  0  0  0  0  0  0  0  0  0  0
  -24.6412  -27.4756   25.4279 C   0  0  0  0  0  0  0  0  0  0  0  0
  -19.9594  -28.6325   22.8775 C   0  0  0  0  0  0  0  0  0  0  0  0
  -25.7995  -28.0902   24.9312 C   0  0  0  0  0  0  0  0  0  0  0  0
  -29.3542  -19.7621   19.8144 C   0  0  0  0  0  0  0  0  0  0  0  0
  -30.0369  -17.4473   19.9260 C   0  0  0  0  0  0  0  0  0  0  0  0
  -22.5143   -8.8942   23.5441 C   0  0  0  0  0  0  0  0  0  0  0  0
  -26.6039  -25.9276   24.1657 C   0  0  0  0  0  0  0  0  0  0  0  0
  -20.5526   -7.6232   23.7867 C   0  0  0  0  0  0  0  0  0  0  0  0
  -17.9828   -6.9929   22.9027 C   0  0  0  0  0  0  0  0  0  0  0  0
  -20.2549   -6.3231   23.3784 C   0  0  0  0  0  0  0  0  0  0  0  0
  -29.2420  -18.4959   20.3888 C   0  0  0  0  0  0  0  0  0  0  0  0
  -24.6492  -11.8685   21.4245 C   0  0  0  0  0  0  0  0  0  0  0  0
  -25.2341  -13.6989   20.3555 C   0  0  0  0  0  0  0  0  0  0  0  0
  -27.1986  -24.4696   22.4362 C   0  0  0  0  0  0  0  0  0  1  0  0
  -22.8559  -13.6877   21.1252 C   0  0  0  0  0  0  0  0  0  0  0  0
  -28.0531  -23.7019   21.7509 C   0  0  0  0  0  0  0  0  0  0  0  0
  -27.5566  -22.9747   20.5573 C   0  0  0  0  0  0  0  0  0  0  0  0
  -28.5454  -22.1258   19.8178 C   0  0  0  0  0  0  0  0  0  0  0  0
  -23.0375  -30.0138   24.3841 C   0  0  0  0  0  0  0  0  0  0  0  0
  -25.1566  -31.6277   26.2355 C   0  0  0  0  0  0  0  0  0  0  0  0
  -28.2116  -31.6966   27.7549 C   0  0  0  0  0  0  0  0  0  0  0  0
  -30.6414  -15.0132   20.1634 C   0  0  0  0  0  0  0  0  0  0  0  0
  -18.0464  -30.2503   23.3401 C   0  0  0  0  0  0  0  0  0  0  0  0
  -23.5918  -28.2878   26.1361 C   0  0  0  0  0  0  0  0  0  0  0  0
  -26.0248  -29.5743   25.0544 C   0  0  0  0  0  0  0  0  0  0  0  0
  -19.1117  -31.2380   23.8088 C   0  0  0  0  0  0  0  0  0  0  0  0
  -29.7180  -11.7737   19.0100 C   0  0  0  0  0  0  0  0  0  0  0  0
  -20.3544  -31.1399   22.9298 C   0  0  0  0  0  0  0  0  0  0  0  0
  -28.2769  -11.6120   19.4990 C   0  0  0  0  0  0  0  0  0  0  0  0
  -30.5774  -12.5333   20.0191 C   0  0  0  0  0  0  0  0  0  0  0  0
  -28.5917  -13.6659   20.9374 C   0  0  0  0  0  0  0  0  0  0  0  0
  -20.9796  -29.7421   23.0123 C   0  0  1  0  0  0  0  0  0  0  0  0
  -23.6154  -29.7630   25.7483 C   0  0  1  0  0  0  0  0  0  0  0  0
  -27.6715  -12.9636   19.9257 C   0  0  2  0  0  0  0  0  0  0  0  0
  -29.6768  -33.1654   29.1667 C   0  0  0  0  0  0  0  0  0  0  0  0
  -25.8209  -33.3178   23.7835 C   0  0  0  0  0  0  0  0  0  0  0  0
  -27.8940  -34.0840   24.9597 C   0  0  0  0  0  0  0  0  0  0  0  0
  -25.6519  -34.6034   25.9220 C   0  0  0  0  0  0  0  0  0  0  0  0
  -28.2526  -29.7288   29.9651 C   0  0  0  0  0  0  0  0  0  0  0  0
  -26.5229  -32.2318   26.0182 C   0  0  1  0  0  0  0  0  0  0  0  0
  -28.6258  -32.0663   29.1678 C   0  0  2  0  0  0  0  0  0  0  0  0
  -26.4676  -33.5315   25.1667 C   0  0  0  0  0  0  0  0  0  0  0  0
  -25.9317  -11.6744   21.1057 N   0  0  0  0  0  0  0  0  0  0  0  0
  -26.2590  -12.8046   20.4563 N   0  0  0  0  0  0  0  0  0  0  0  0
  -24.9671  -30.3263   25.7495 N   0  0  0  0  0  0  0  0  0  0  0  0
  -29.9435  -13.8051   20.3733 N   0  0  0  0  0  0  0  0  0  0  0  0
  -25.3911  -14.8867   19.7335 N   0  0  0  0  0  0  0  0  0  0  0  0
  -21.8712  -12.9504   21.7967 N   0  0  0  0  0  0  0  0  0  0  0  0
  -28.5498  -20.8275   20.2809 N   0  0  0  0  0  0  0  0  0  0  0  0
  -29.9259  -16.1597   20.5071 N   0  0  0  0  0  0  0  0  0  0  0  0
  -21.7284  -29.5951   24.2420 N   0  0  0  0  0  0  0  0  0  0  0  0
  -27.1058  -32.4102   27.3437 N   0  0  0  0  0  0  0  0  0  0  0  0
  -29.1887  -30.8784   29.8701 N   0  3  0  0  0  0  0  0  0  0  0  0
  -22.5663  -14.8147   20.6566 O   0  0  0  0  0  0  0  0  0  0  0  0
  -26.4176  -23.0228   20.1198 O   0  0  0  0  0  0  0  0  0  0  0  0
  -29.1810  -22.6692   18.9301 O   0  0  0  0  0  0  0  0  0  0  0  0
  -23.7278  -30.5490   23.5246 O   0  0  0  0  0  0  0  0  0  0  0  0
  -24.2915  -32.2836   26.8214 O   0  0  0  0  0  0  0  0  0  0  0  0
  -28.8115  -30.8613   27.0819 O   0  0  0  0  0  0  0  0  0  0  0  0
  -31.7791  -15.0310   19.6865 O   0  0  0  0  0  0  0  0  0  0  0  0
  -29.3772  -23.5530   22.0994 O   0  0  0  0  0  0  0  0  0  0  0  0
  -21.8275   -7.9375   24.2266 O   0  0  0  0  0  0  0  0  0  0  0  0
  -27.5576  -25.1790   23.5477 O   0  0  0  0  0  0  0  0  0  1  0  0
  -16.7485   -6.6900   22.4797 F   0  0  0  0  0  0  0  0  0  0  0  0
  -21.1988   -5.3724   23.4095 F   0  0  0  0  0  0  0  0  0  0  0  0
  -28.3701  -18.2871   21.3873 F   0  0  0  0  0  0  0  0  0  0  0  0
  1  2  1  0  0  0  0
  1  6  2  0  0  0  0
  2  7  2  0  0  0  0
  3  9  2  0  0  0  0
  3 10  1  0  0  0  0
  4 11  2  0  0  0  0
  4 18  1  0  0  0  0
  5 12  1  0  0  0  0
  5 18  2  0  0  0  0
  6 20  1  0  0  0  0
  7 22  1  0  0  0  0
  8 13  2  0  0  0  0
  8 21  1  0  0  0  0
  9 24  1  0  0  0  0
 10 25  2  0  0  0  0
 11 26  1  0  0  0  0
 12 26  2  0  0  0  0
 13 27  1  0  0  0  0
 14 15  2  0  0  0  0
 14 28  1  0  0  0  0
 15 29  1  0  0  0  0
 16 23  1  0  0  0  0
 16 27  2  0  0  0  0
 17 29  2  0  0  0  0
 17 30  1  0  0  0  0
 18 32  1  0  0  0  0
 19 32  1  0  0  0  0
 19 33  2  0  0  0  0
 19 35  1  0  0  0  0
 20 22  2  0  0  0  0
 20 43  1  0  0  0  0
 21 23  2  0  0  0  0
 21 44  1  0  0  0  0
 22 52  1  0  0  0  0
 23 45  1  0  0  0  0
 24 31  2  0  0  0  0
 24 69  1  0  0  0  0
 25 31  1  0  0  0  0
 25 70  1  0  0  0  0
 26 82  1  0  0  0  0
 27 83  1  0  0  0  0
 28 30  2  0  0  0  0
 28 82  1  0  0  0  0
 29 84  1  0  0  0  0
 30 85  1  0  0  0  0
 31 86  1  0  0  0  0
 32 63  2  0  0  0  0
 33 64  1  0  0  0  0
 33 67  1  0  0  0  0
 34 36  2  0  0  0  0
 34 83  1  0  0  0  0
 35 68  1  0  0  0  0
 35 74  2  0  0  0  0
 36 37  1  0  0  0  0
 36 81  1  0  0  0  0
 37 38  1  0  0  0  0
 37 75  2  0  0  0  0
 38 69  1  0  0  0  0
 38 76  2  0  0  0  0
 39 53  1  0  0  0  0
 39 71  1  0  0  0  0
 39 77  2  0  0  0  0
 40 60  1  0  0  0  0
 40 65  1  0  0  0  0
 40 78  2  0  0  0  0
 41 61  1  0  0  0  0
 41 72  1  0  0  0  0
 41 79  2  0  0  0  0
 42 66  1  0  0  0  0
 42 70  1  0  0  0  0
 42 80  2  0  0  0  0
 43 46  1  0  0  0  0
 44 53  1  0  0  0  0
 45 65  1  0  0  0  0
 46 48  1  0  0  0  0
 47 49  1  0  0  0  0
 47 50  1  0  0  0  0
 48 52  1  0  0  0  0
 49 54  1  0  0  0  0
 50 66  1  0  0  0  0
 51 54  1  0  0  0  0
 51 66  1  0  0  0  0
 52 71  1  0  0  0  0
 53 65  1  0  0  0  0
 54 64  1  0  0  0  0
 55 61  1  0  0  0  0
 56 62  1  0  0  0  0
 57 62  1  0  0  0  0
 58 62  1  0  0  0  0
 59 73  1  0  0  0  0
 60 62  1  0  0  0  0
 60 72  1  0  0  0  0
 61 73  1  0  0  0  0
 63 64  1  0  0  0  0
M  CHG  1  73   1
M  ISO  4  34 101  42 100  70 100  83 101
M  END
> <Batch ID>
0163

> <Smiles>
CNC(C)C(=O)NC(C(=O)N1Cc2cc([101O:1][101CH2:1]C(=O)C(=O)C(=O)Nc3cccc([100NH:0][100C:0](=O)N4CCCC(n5nc(-c6ccc(Oc7ccc(F)cc7F)cc6)c(C(N)=O)c5N)C4)c3F)ccc2CC1C(=O)NC1CCCc2ccccc21)C(C)(C)C

> <Shape>
0.319

> <Color>
0.167

> <Negative vol penalty>
0.000

$$$$

  -OEChem-04052303593D

 88 96  0     1  0  0  0  0  0999 V2000
  -25.2014  -31.1699   24.3953 C   0  0  0  0  0  0  0  0  0  0  0  0
  -24.7345  -29.8643   24.2815 C   0  0  0  0  0  0  0  0  0  0  0  0
  -23.3329   -9.7550   19.8384 C   0  0  0  0  0  0  0  0  0  0  0  0
  -23.7984   -9.8003   22.2087 C   0  0  0  0  0  0  0  0  0  0  0  0
  -25.5192  -31.8977   23.2494 C   0  0  0  0  0  0  0  0  0  0  0  0
  -24.5842  -29.2861   23.0216 C   0  0  0  0  0  0  0  0  0  0  0  0
  -25.4806  -23.4130   21.5354 C   0  0  0  0  0  0  0  0  0  0  0  0
  -22.6456   -8.5516   19.9964 C   0  0  0  0  0  0  0  0  0  0  0  0
  -23.1110   -8.5969   22.3667 C   0  0  0  0  0  0  0  0  0  0  0  0
  -24.6026  -22.3425   21.3710 C   0  0  0  0  0  0  0  0  0  0  0  0
  -21.0760   -5.2830   19.7198 C   0  0  0  0  0  0  0  0  0  0  0  0
  -21.3272   -4.2653   18.7996 C   0  0  0  0  0  0  0  0  0  0  0  0
  -26.7532  -18.3014   17.4881 C   0  0  0  0  0  0  0  0  0  0  0  0
  -24.5616  -22.7489   18.9936 C   0  0  0  0  0  0  0  0  0  0  0  0
  -26.3156  -19.0809   14.8454 C   0  0  0  0  0  0  0  0  0  0  0  0
  -23.6560   -4.2585   19.4429 C   0  0  0  0  0  0  0  0  0  0  0  0
  -23.9094  -10.3794   20.9446 C   0  0  0  0  0  0  0  0  0  0  0  0
  -27.6978  -18.0009   16.5068 C   0  0  0  0  0  0  0  0  0  0  0  0
  -24.0874  -12.9228   20.8619 C   0  0  0  0  0  0  0  0  0  0  0  0
  -25.3819  -31.3248   21.9752 C   0  0  0  0  0  0  0  0  0  0  0  0
  -25.8978  -24.1675   20.4295 C   0  0  0  0  0  0  0  0  0  0  0  0
  -24.8993  -30.0074   21.8574 C   0  0  0  0  0  0  0  0  0  0  0  0
  -25.4469  -23.8269   19.1463 C   0  0  0  0  0  0  0  0  0  0  0  0
  -27.4790  -18.3907   15.1855 C   0  0  0  0  0  0  0  0  0  0  0  0
  -25.5897  -18.9916   17.1481 C   0  0  0  0  0  0  0  0  0  0  0  0
  -25.3709  -19.3814   15.8268 C   0  0  0  0  0  0  0  0  0  0  0  0
  -22.5346   -7.9726   21.2605 C   0  0  0  0  0  0  0  0  0  0  0  0
  -24.1407  -22.0121   20.1004 C   0  0  0  0  0  0  0  0  0  0  0  0
  -22.1149   -5.7886   20.5015 C   0  0  0  0  0  0  0  0  0  0  0  0
  -22.6172   -3.7530   18.6612 C   0  0  0  0  0  0  0  0  0  0  0  0
  -23.4048   -5.2763   20.3630 C   0  0  0  0  0  0  0  0  0  0  0  0
  -24.6201  -11.6222   20.7819 C   0  0  0  0  0  0  0  0  0  0  0  0
  -25.1616  -13.7483   20.6360 C   0  0  0  0  0  0  0  0  0  0  0  0
  -28.9279  -17.2647   16.8964 C   0  0  0  0  0  0  0  0  0  0  0  0
  -22.7419  -13.3469   21.1176 C   0  0  0  0  0  0  0  0  0  0  0  0
  -25.6093  -27.2089   19.5516 C   0  0  0  0  0  0  0  0  0  0  0  0
  -27.5712  -26.2920   17.1365 C   0  0  0  0  0  0  0  0  0  0  0  0
  -23.8452  -20.5324   14.1923 C   0  0  0  0  0  0  0  0  0  0  0  0
  -28.7746  -23.7669   15.1813 C   0  0  0  0  0  0  0  0  0  0  0  0
  -29.7449  -15.1309   17.8468 C   0  0  0  0  0  0  0  0  0  0  0  0
  -25.6932  -32.1669   20.7633 C   0  0  0  0  0  0  0  0  0  0  0  0
  -26.8662  -25.3026   20.6203 C   0  0  0  0  0  0  0  0  0  0  0  0
  -25.8807  -24.5928   17.9241 C   0  0  0  0  0  0  0  0  0  0  0  0
  -25.8615  -31.3529   19.4829 C   0  0  0  0  0  0  0  0  0  0  0  0
  -30.1167  -12.7238   20.4089 C   0  0  0  0  0  0  0  0  0  0  0  0
  -24.7338  -30.3351   19.3453 C   0  0  0  0  0  0  0  0  0  0  0  0
  -28.6759  -12.3330   20.7491 C   0  0  0  0  0  0  0  0  0  0  0  0
  -30.3014  -12.9621   18.9109 C   0  0  0  0  0  0  0  0  0  0  0  0
  -27.9172  -13.5139   18.6482 C   0  0  0  0  0  0  0  0  0  0  0  0
  -24.7464  -29.3370   20.5094 C   0  0  1  0  0  0  0  0  0  0  0  0
  -26.8213  -26.3231   19.4873 C   0  0  1  0  0  0  0  0  0  0  0  0
  -27.6633  -13.3315   20.1533 C   0  0  1  0  0  0  0  0  0  0  0  0
  -28.4743  -18.0812   14.1151 C   0  0  0  0  0  0  0  0  0  0  0  0
  -22.5122  -21.2373   14.2184 C   0  0  0  0  0  0  0  0  0  0  0  0
  -30.3386  -23.3316   13.2677 C   0  0  0  0  0  0  0  0  0  0  0  0
  -22.6052  -18.6935   20.1239 C   0  0  0  0  0  0  0  0  0  0  0  0
  -25.5136  -27.4386   15.1971 C   0  0  0  0  0  0  0  0  0  0  0  0
  -26.6335  -26.1574   13.3606 C   0  0  0  0  0  0  0  0  0  0  0  0
  -27.8935  -27.9195   14.5977 C   0  0  0  0  0  0  0  0  0  0  0  0
  -30.4690  -21.9787   16.8214 C   0  0  0  0  0  0  0  0  0  0  0  0
  -24.9797  -19.2948   19.5484 C   0  0  0  0  0  0  0  0  0  0  0  0
  -27.3694  -25.7308   15.7496 C   0  0  1  0  0  0  0  0  0  0  0  0
  -30.1894  -23.3905   14.7800 C   0  0  2  0  0  0  0  0  0  0  0  0
  -23.7401  -19.6814   20.3518 C   0  0  1  0  0  0  0  0  0  1  0  0
  -26.8426  -26.7982   14.7493 C   0  0  0  0  0  0  0  0  0  0  0  0
  -25.9308  -11.6167   20.5251 N   0  0  0  0  0  0  0  0  0  0  0  0
  -26.2308  -12.9241   20.4417 N   0  0  0  0  0  0  0  0  0  0  0  0
  -26.8235  -25.6980   18.1631 N   0  0  0  0  0  0  0  0  0  0  0  0
  -29.3115  -13.9259   18.4268 N   0  0  0  0  0  0  0  0  0  0  0  0
  -25.2866  -15.0916   20.5865 N   0  0  0  0  0  0  0  0  0  0  0  0
  -21.7614  -12.3678   21.3281 N   0  0  0  0  0  0  0  0  0  0  0  0
  -24.2126  -20.0740   15.4626 N   0  0  0  0  0  0  0  0  0  0  0  0
  -24.6650  -19.2800   18.1378 N   0  0  0  0  0  0  0  0  0  0  0  0
  -28.7229  -16.0029   17.4552 N   0  0  0  0  0  0  0  0  0  0  0  0
  -25.7842  -28.3471   20.3153 N   0  0  0  0  0  0  0  0  0  0  0  0
  -28.6404  -25.1269   15.3647 N   0  0  0  0  0  0  0  0  0  0  0  0
  -30.5493  -22.0572   15.3401 N   0  3  0  0  0  0  0  0  0  0  0  0
  -30.0239  -17.7726   16.6761 O   0  0  0  0  0  0  0  0  0  0  0  0
  -22.4154  -14.5578   21.1419 O   0  0  0  0  0  0  0  0  0  0  0  0
  -24.5913  -26.8844   18.9514 O   0  0  0  0  0  0  0  0  0  0  0  0
  -28.3683  -27.2184   17.3039 O   0  0  0  0  0  0  0  0  0  0  0  0
  -24.4714  -20.4117   13.1443 O   0  0  0  0  0  0  0  0  0  0  0  0
  -27.8772  -22.9379   15.3148 O   0  0  0  0  0  0  0  0  0  0  0  0
  -30.9386  -15.4224   17.7230 O   0  0  0  0  0  0  0  0  0  0  0  0
  -21.8637   -6.7985   21.4151 O   0  0  0  0  0  0  0  0  0  0  0  0
  -23.2832  -20.9681   19.9372 O   0  0  0  0  0  0  0  0  0  1  0  0
  -22.8580   -2.7746   17.7786 F   0  0  0  0  0  0  0  0  0  0  0  0
  -24.4066   -5.7571   21.1121 F   0  0  0  0  0  0  0  0  0  0  0  0
  1  2  1  0  0  0  0
  1  5  2  0  0  0  0
  2  6  2  0  0  0  0
  3  8  2  0  0  0  0
  3 17  1  0  0  0  0
  4  9  1  0  0  0  0
  4 17  2  0  0  0  0
  5 20  1  0  0  0  0
  6 22  1  0  0  0  0
  7 10  2  0  0  0  0
  7 21  1  0  0  0  0
  8 27  1  0  0  0  0
  9 27  2  0  0  0  0
 10 28  1  0  0  0  0
 11 12  2  0  0  0  0
 11 29  1  0  0  0  0
 12 30  1  0  0  0  0
 13 18  2  0  0  0  0
 13 25  1  0  0  0  0
 14 23  1  0  0  0  0
 14 28  2  0  0  0  0
 15 24  2  0  0  0  0
 15 26  1  0  0  0  0
 16 30  2  0  0  0  0
 16 31  1  0  0  0  0
 17 32  1  0  0  0  0
 18 24  1  0  0  0  0
 18 34  1  0  0  0  0
 19 32  1  0  0  0  0
 19 33  2  0  0  0  0
 19 35  1  0  0  0  0
 20 22  2  0  0  0  0
 20 41  1  0  0  0  0
 21 23  2  0  0  0  0
 21 42  1  0  0  0  0
 22 50  1  0  0  0  0
 23 43  1  0  0  0  0
 24 53  1  0  0  0  0
 25 26  2  0  0  0  0
 25 73  1  0  0  0  0
 26 72  1  0  0  0  0
 27 85  1  0  0  0  0
 28 86  1  0  0  0  0
 29 31  2  0  0  0  0
 29 85  1  0  0  0  0
 30 87  1  0  0  0  0
 31 88  1  0  0  0  0
 32 66  2  0  0  0  0
 33 67  1  0  0  0  0
 33 70  1  0  0  0  0
 34 74  1  0  0  0  0
 34 78  2  0  0  0  0
 35 71  1  0  0  0  0
 35 79  2  0  0  0  0
 36 51  1  0  0  0  0
 36 75  1  0  0  0  0
 36 80  2  0  0  0  0
 37 62  1  0  0  0  0
 37 68  1  0  0  0  0
 37 81  2  0  0  0  0
 38 54  1  0  0  0  0
 38 72  1  0  0  0  0
 38 82  2  0  0  0  0
 39 63  1  0  0  0  0
 39 76  1  0  0  0  0
 39 83  2  0  0  0  0
 40 69  1  0  0  0  0
 40 74  1  0  0  0  0
 40 84  2  0  0  0  0
 41 44  1  0  0  0  0
 42 51  1  0  0  0  0
 43 68  1  0  0  0  0
 44 46  1  0  0  0  0
 45 47  1  0  0  0  0
 45 48  1  0  0  0  0
 46 50  1  0  0  0  0
 47 52  1  0  0  0  0
 48 69  1  0  0  0  0
 49 52  1  0  0  0  0
 49 69  1  0  0  0  0
 50 75  1  0  0  0  0
 51 68  1  0  0  0  0
 52 67  1  0  0  0  0
 55 63  1  0  0  0  0
 56 64  1  0  0  0  0
 57 65  1  0  0  0  0
 58 65  1  0  0  0  0
 59 65  1  0  0  0  0
 60 77  1  0  0  0  0
 61 64  1  0  0  0  0
 61 73  1  0  0  0  0
 62 65  1  0  0  0  0
 62 76  1  0  0  0  0
 63 77  1  0  0  0  0
 64 86  1  0  0  0  0
 66 67  1  0  0  0  0
M  CHG  1  77   1
M  ISO  4  40 100  64 101  74 100  86 101
M  END
> <Batch ID>
0163

> <Smiles>
CNC(C)C(=O)NC(C(=O)N1Cc2cc([101O:1][101CH:1](C)CNc3cc(C(=O)[100NH:0][100C:0](=O)N4CCCC(n5nc(-c6ccc(Oc7ccc(F)cc7F)cc6)c(C(N)=O)c5N)C4)c(C)cc3NC(C)=O)ccc2CC1C(=O)NC1CCCc2ccccc21)C(C)(C)C

> <Shape>
0.197

> <Color>
0.170

> <Negative vol penalty>
0.000

$$$$

  -OEChem-04052303593D

 83 92  0     1  0  0  0  0  0999 V2000
  -19.1015  -33.5876   22.6568 C   0  0  0  0  0  0  0  0  0  0  0  0
  -20.3881  -33.4220   22.1541 C   0  0  0  0  0  0  0  0  0  0  0  0
  -32.8545  -23.4602   16.3467 C   0  0  0  0  0  0  0  0  0  0  0  0
  -25.3885  -15.8256   21.7516 C   0  0  0  0  0  0  0  0  0  0  0  0
  -24.8894  -16.7489   19.5755 C   0  0  0  0  0  0  0  0  0  0  0  0
  -18.5681  -32.6404   23.5299 C   0  0  0  0  0  0  0  0  0  0  0  0
  -21.1425  -32.3095   22.5251 C   0  0  0  0  0  0  0  0  0  0  0  0
  -32.8635  -24.8537   16.2844 C   0  0  0  0  0  0  0  0  0  0  0  0
  -25.1581  -29.2592   19.0500 C   0  0  0  0  0  0  0  0  0  0  0  0
  -32.1879  -22.8128   17.3869 C   0  0  0  0  0  0  0  0  0  0  0  0
  -24.1941  -15.1060   21.7203 C   0  0  0  0  0  0  0  0  0  0  0  0
  -23.6949  -16.0293   19.5441 C   0  0  0  0  0  0  0  0  0  0  0  0
  -26.5483  -29.3104   18.9586 C   0  0  0  0  0  0  0  0  0  0  0  0
  -23.0295  -12.2731   20.2880 C   0  0  0  0  0  0  0  0  0  0  0  0
  -23.0685  -10.9348   20.6792 C   0  0  0  0  0  0  0  0  0  0  0  0
  -31.5394  -24.9523   18.3029 C   0  0  0  0  0  0  0  0  0  0  0  0
  -26.7107  -27.4378   20.4706 C   0  0  0  0  0  0  0  0  0  0  0  0
  -21.4884  -11.4049   22.4454 C   0  0  0  0  0  0  0  0  0  0  0  0
  -25.7362  -16.6471   20.6792 C   0  0  0  0  0  0  0  0  0  0  0  0
  -28.2289  -16.9700   20.2434 C   0  0  0  0  0  0  0  0  0  0  0  0
  -32.2060  -25.5997   17.2626 C   0  0  0  0  0  0  0  0  0  0  0  0
  -19.3127  -31.5108   23.9042 C   0  0  0  0  0  0  0  0  0  0  0  0
  -24.5329  -28.3023   19.8624 C   0  0  0  0  0  0  0  0  0  0  0  0
  -20.6190  -31.3469   23.4051 C   0  0  0  0  0  0  0  0  0  0  0  0
  -25.3123  -27.3749   20.5687 C   0  0  0  0  0  0  0  0  0  0  0  0
  -31.5303  -23.5589   18.3650 C   0  0  0  0  0  0  0  0  0  0  0  0
  -23.3472  -15.2078   20.6166 C   0  0  0  0  0  0  0  0  0  0  0  0
  -27.3249  -28.4014   19.6712 C   0  0  0  0  0  0  0  0  0  0  0  0
  -22.2200  -13.1774   20.9756 C   0  0  0  0  0  0  0  0  0  0  0  0
  -22.2980  -10.5007   21.7578 C   0  0  0  0  0  0  0  0  0  0  0  0
  -21.4494  -12.7433   22.0542 C   0  0  0  0  0  0  0  0  0  0  0  0
  -26.9696  -17.3912   20.7112 C   0  0  0  0  0  0  0  0  0  0  0  0
  -29.0630  -18.0304   20.5010 C   0  0  0  0  0  0  0  0  0  0  0  0
  -30.5527  -28.3106   18.1561 C   0  0  0  0  0  0  0  0  0  0  0  0
  -28.6104  -15.7312   19.6308 C   0  0  0  0  0  0  0  0  0  0  0  0
  -22.6407  -28.4173   22.4139 C   0  0  0  0  0  0  0  0  0  0  0  0
  -22.4812  -25.2098   21.9564 C   0  0  0  0  0  0  0  0  0  0  0  0
  -23.9161  -22.3912   20.6745 C   0  0  0  0  0  0  0  0  0  0  0  0
  -30.1510  -23.4910   20.4720 C   0  0  0  0  0  0  0  0  0  0  0  0
  -18.7115  -30.5383   24.8877 C   0  0  0  0  0  0  0  0  0  0  0  0
  -23.0315  -28.2432   19.9293 C   0  0  0  0  0  0  0  0  0  0  0  0
  -24.6893  -26.3151   21.4388 C   0  0  0  0  0  0  0  0  0  0  0  0
  -19.4359  -29.1955   24.9368 C   0  0  0  0  0  0  0  0  0  0  0  0
  -28.3167  -22.2177   23.2453 C   0  0  0  0  0  0  0  0  0  0  0  0
  -20.9451  -29.4054   25.0082 C   0  0  0  0  0  0  0  0  0  0  0  0
  -27.9063  -20.8138   22.7948 C   0  0  0  0  0  0  0  0  0  0  0  0
  -28.2848  -23.2162   22.0896 C   0  0  0  0  0  0  0  0  0  0  0  0
  -28.6379  -21.4111   20.4506 C   0  0  0  0  0  0  0  0  0  0  0  0
  -32.7258  -27.7379   18.5027 C   0  0  0  0  0  0  0  0  0  0  0  0
  -32.2159  -27.0853   17.1958 C   0  0  2  0  0  0  0  0  0  0  0  0
  -21.4592  -30.1407   23.7646 C   0  0  1  0  0  0  0  0  0  0  0  0
  -22.5161  -27.5551   21.1896 C   0  0  1  0  0  0  0  0  0  0  0  0
  -28.7174  -20.3566   21.5665 C   0  0  2  0  0  0  0  0  0  0  0  0
  -23.5690  -19.9126   20.4915 C   0  0  0  0  0  0  0  0  0  0  0  0
  -23.3307  -24.8784   24.8682 C   0  0  0  0  0  0  0  0  0  0  0  0
  -23.8817  -22.4890   24.3627 C   0  0  0  0  0  0  0  0  0  0  0  0
  -21.5370  -23.3048   24.1192 C   0  0  0  0  0  0  0  0  0  0  0  0
  -23.8304  -22.5044   17.7183 C   0  0  0  0  0  0  0  0  0  0  0  0
  -29.2380  -28.9243   18.3587 C   0  0  0  0  0  0  0  0  0  1  0  0
  -23.2798  -24.0209   22.4334 C   0  0  1  0  0  0  0  0  0  0  0  0
  -23.3459  -21.2646   19.8318 C   0  0  2  0  0  0  0  0  0  0  0  0
  -23.0194  -23.6943   23.9311 C   0  0  0  0  0  0  0  0  0  0  0  0
  -26.9968  -18.6230   21.2270 N   0  0  0  0  0  0  0  0  0  0  0  0
  -28.2832  -18.9848   21.0849 N   0  0  0  0  0  0  0  0  0  0  0  0
  -30.8241  -27.5638   17.1015 N   0  0  0  0  0  0  0  0  0  0  0  0
  -23.2176  -26.3022   21.4765 N   0  0  0  0  0  0  0  0  0  0  0  0
  -29.0778  -22.7181   20.9636 N   0  0  0  0  0  0  0  0  0  0  0  0
  -31.5497  -28.4592   19.0080 N   0  3  0  0  0  0  0  0  0  0  0  0
  -30.3802  -18.2300   20.2828 N   0  0  0  0  0  0  0  0  0  0  0  0
  -27.6282  -14.7496   19.4404 N   0  0  0  0  0  0  0  0  0  0  0  0
  -30.8527  -22.9009   19.4213 N   0  0  0  0  0  0  0  0  0  0  0  0
  -21.5485  -29.2326   22.6413 N   0  0  0  0  0  0  0  0  0  0  0  0
  -22.9678  -22.9267   21.5203 N   0  0  0  0  0  0  0  0  0  0  0  0
  -23.9914  -21.2444   18.4888 N   0  3  0  0  0  0  0  0  0  0  0  0
  -29.7908  -15.4951   19.2780 O   0  0  0  0  0  0  0  0  0  0  0  0
  -23.6522  -28.3468   23.1020 O   0  0  0  0  0  0  0  0  0  0  0  0
  -21.2492  -25.1680   22.0011 O   0  0  0  0  0  0  0  0  0  0  0  0
  -25.0866  -22.7570   20.5934 O   0  0  0  0  0  0  0  0  0  0  0  0
  -30.4442  -24.5828   20.9659 O   0  0  0  0  0  0  0  0  0  0  0  0
  -22.1817  -14.5056   20.5856 O   0  0  0  0  0  0  0  0  0  0  0  0
  -28.6821  -28.4496   19.5843 O   0  0  0  0  0  0  0  0  0  1  0  0
  -22.3344   -9.2152   22.1323 F   0  0  0  0  0  0  0  0  0  0  0  0
  -20.6689  -13.6071   22.7179 F   0  0  0  0  0  0  0  0  0  0  0  0
  1  2  1  0  0  0  0
  1  6  2  0  0  0  0
  2  7  2  0  0  0  0
  3  8  2  0  0  0  0
  3 10  1  0  0  0  0
  4 11  2  0  0  0  0
  4 19  1  0  0  0  0
  5 12  1  0  0  0  0
  5 19  2  0  0  0  0
  6 22  1  0  0  0  0
  7 24  1  0  0  0  0
  8 21  1  0  0  0  0
  9 13  2  0  0  0  0
  9 23  1  0  0  0  0
 10 26  2  0  0  0  0
 11 27  1  0  0  0  0
 12 27  2  0  0  0  0
 13 28  1  0  0  0  0
 14 15  2  0  0  0  0
 14 29  1  0  0  0  0
 15 30  1  0  0  0  0
 16 21  2  0  0  0  0
 16 26  1  0  0  0  0
 17 25  1  0  0  0  0
 17 28  2  0  0  0  0
 18 30  2  0  0  0  0
 18 31  1  0  0  0  0
 19 32  1  0  0  0  0
 20 32  1  0  0  0  0
 20 33  2  0  0  0  0
 20 35  1  0  0  0  0
 21 50  1  0  0  0  0
 22 24  2  0  0  0  0
 22 40  1  0  0  0  0
 23 25  2  0  0  0  0
 23 41  1  0  0  0  0
 24 51  1  0  0  0  0
 25 42  1  0  0  0  0
 26 71  1  0  0  0  0
 27 80  1  0  0  0  0
 28 81  1  0  0  0  0
 29 31  2  0  0  0  0
 29 80  1  0  0  0  0
 30 82  1  0  0  0  0
 31 83  1  0  0  0  0
 32 63  2  0  0  0  0
 33 64  1  0  0  0  0
 33 69  1  0  0  0  0
 34 59  1  0  0  0  0
 34 65  1  0  0  0  0
 34 68  2  0  0  0  0
 35 70  1  0  0  0  0
 35 75  2  0  0  0  0
 36 52  1  0  0  0  0
 36 72  1  0  0  0  0
 36 76  2  0  0  0  0
 37 60  1  0  0  0  0
 37 66  1  0  0  0  0
 37 77  2  0  0  0  0
 38 61  1  0  0  0  0
 38 73  1  0  0  0  0
 38 78  2  0  0  0  0
 39 67  1  0  0  0  0
 39 71  1  0  0  0  0
 39 79  2  0  0  0  0
 40 43  1  0  0  0  0
 41 52  1  0  0  0  0
 42 66  1  0  0  0  0
 43 45  1  0  0  0  0
 44 46  1  0  0  0  0
 44 47  1  0  0  0  0
 45 51  1  0  0  0  0
 46 53  1  0  0  0  0
 47 67  1  0  0  0  0
 48 53  1  0  0  0  0
 48 67  1  0  0  0  0
 49 50  1  0  0  0  0
 49 68  1  0  0  0  0
 50 65  1  0  0  0  0
 51 72  1  0  0  0  0
 52 66  1  0  0  0  0
 53 64  1  0  0  0  0
 54 61  1  0  0  0  0
 55 62  1  0  0  0  0
 56 62  1  0  0  0  0
 57 62  1  0  0  0  0
 58 74  1  0  0  0  0
 59 81  1  0  0  0  0
 60 62  1  0  0  0  0
 60 73  1  0  0  0  0
 61 74  1  0  0  0  0
 63 64  1  0  0  0  0
M  CHG  2  68   1  74   1
M  ISO  4  39 100  59 101  71 100  81 101
M  END
> <Batch ID>
0163

> <Smiles>
CNC(C)C(=O)NC(C(=O)N1Cc2cc([101O:1][101CH2:1]C3=NC(c4cccc([100NH:0][100C:0](=O)N5CCCC(n6nc(-c7ccc(Oc8ccc(F)cc8F)cc7)c(C(N)=O)c6N)C5)c4)CN3)ccc2CC1C(=O)NC1CCCc2ccccc21)C(C)(C)C

> <Shape>
0.198

> <Color>
0.078

> <Negative vol penalty>
0.000

$$$$

  -OEChem-04052303593D

 86 94  0     1  0  0  0  0  0999 V2000
  -39.6442  -29.2660   21.3001 C   0  0  0  0  0  0  0  0  0  0  0  0
  -38.5851  -28.4098   21.5838 C   0  0  0  0  0  0  0  0  0  0  0  0
  -23.0027   -9.8912   19.9800 C   0  0  0  0  0  0  0  0  0  0  0  0
  -23.7270   -9.9433   22.2843 C   0  0  0  0  0  0  0  0  0  0  0  0
  -39.5809  -30.6037   21.6880 C   0  0  0  0  0  0  0  0  0  0  0  0
  -37.4623  -28.8906   22.2567 C   0  0  0  0  0  0  0  0  0  0  0  0
  -31.6501  -27.1442   21.4359 C   0  0  0  0  0  0  0  0  0  0  0  0
  -22.2372   -8.7561   20.2463 C   0  0  0  0  0  0  0  0  0  0  0  0
  -22.9614   -8.8082   22.5506 C   0  0  0  0  0  0  0  0  0  0  0  0
  -30.8313  -26.2541   22.1295 C   0  0  0  0  0  0  0  0  0  0  0  0
  -23.2091   -5.4694   22.0794 C   0  0  0  0  0  0  0  0  0  0  0  0
  -23.7973   -4.4529   22.8319 C   0  0  0  0  0  0  0  0  0  0  0  0
  -29.9099  -28.0932   23.3897 C   0  0  0  0  0  0  0  0  0  0  0  0
  -31.1935  -17.5863   20.5636 C   0  0  0  0  0  0  0  0  0  0  0  0
  -30.6817  -19.8061   21.3684 C   0  0  0  0  0  0  0  0  0  0  0  0
  -22.0726   -4.6945   24.5065 C   0  0  0  0  0  0  0  0  0  0  0  0
  -23.7477  -10.4848   20.9990 C   0  0  0  0  0  0  0  0  0  0  0  0
  -24.1307  -13.0008   20.8227 C   0  0  0  0  0  0  0  0  0  0  0  0
  -38.4528  -31.1034   22.3574 C   0  0  0  0  0  0  0  0  0  0  0  0
  -31.6127  -28.5165   21.7222 C   0  0  0  0  0  0  0  0  0  0  0  0
  -37.3845  -30.2360   22.6551 C   0  0  0  0  0  0  0  0  0  0  0  0
  -30.7274  -28.9989   22.6966 C   0  0  0  0  0  0  0  0  0  0  0  0
  -30.2653  -17.0490   21.4553 C   0  0  0  0  0  0  0  0  0  0  0  0
  -29.7534  -19.2688   22.2601 C   0  0  0  0  0  0  0  0  0  0  0  0
  -29.5452  -17.8902   22.3036 C   0  0  0  0  0  0  0  0  0  0  0  0
  -22.2165   -8.2145   21.5316 C   0  0  0  0  0  0  0  0  0  0  0  0
  -29.9631  -26.7282   23.1086 C   0  0  0  0  0  0  0  0  0  0  0  0
  -22.0526   -6.0985   22.5405 C   0  0  0  0  0  0  0  0  0  0  0  0
  -23.2291   -4.0654   24.0454 C   0  0  0  0  0  0  0  0  0  0  0  0
  -31.4018  -18.9649   20.5202 C   0  0  0  0  0  0  0  0  0  0  0  0
  -21.4844   -5.7110   23.7540 C   0  0  0  0  0  0  0  0  0  0  0  0
  -24.5392  -11.6571   20.7245 C   0  0  0  0  0  0  0  0  0  0  0  0
  -25.2399  -13.7243   20.4585 C   0  0  0  0  0  0  0  0  0  0  0  0
  -22.8621  -13.5461   21.2087 C   0  0  0  0  0  0  0  0  0  0  0  0
  -28.3009  -22.1666   24.1264 C   0  0  0  0  0  0  0  0  0  0  0  0
  -28.3237  -23.6723   24.3028 C   0  0  0  0  0  0  0  0  0  0  0  0
  -33.7147  -30.6395   22.8076 C   0  0  0  0  0  0  0  0  0  0  0  0
  -31.3239  -32.7423   22.1876 C   0  0  0  0  0  0  0  0  0  0  0  0
  -27.9801  -33.2895   21.7794 C   0  0  0  0  0  0  0  0  0  0  0  0
  -30.7184  -14.6906   20.6943 C   0  0  0  0  0  0  0  0  0  0  0  0
  -38.4502  -32.5456   22.7986 C   0  0  0  0  0  0  0  0  0  0  0  0
  -32.4831  -29.4668   20.9464 C   0  0  0  0  0  0  0  0  0  0  0  0
  -30.6345  -30.4653   23.0274 C   0  0  0  0  0  0  0  0  0  0  0  0
  -37.0651  -33.0646   23.1761 C   0  0  0  0  0  0  0  0  0  0  0  0
  -29.6032  -12.2363   18.3684 C   0  0  0  0  0  0  0  0  0  0  0  0
  -36.3481  -32.0652   24.0783 C   0  0  0  0  0  0  0  0  0  0  0  0
  -28.1527  -11.9773   18.7821 C   0  0  0  0  0  0  0  0  0  0  0  0
  -30.5031  -12.4807   19.5785 C   0  0  0  0  0  0  0  0  0  0  0  0
  -28.5865  -13.2680   20.9112 C   0  0  0  0  0  0  0  0  0  0  0  0
  -36.1389  -30.7260   23.3613 C   0  0  1  0  0  0  0  0  0  0  0  0
  -32.7331  -30.7815   21.6789 C   0  0  1  0  0  0  0  0  0  0  0  0
  -27.6295  -13.0806   19.7226 C   0  0  2  0  0  0  0  0  0  0  0  0
  -26.3252  -35.1188   21.3187 C   0  0  0  0  0  0  0  0  0  0  0  0
  -31.6046  -33.7176   25.0651 C   0  0  0  0  0  0  0  0  0  0  0  0
  -29.3687  -34.8205   24.8358 C   0  0  0  0  0  0  0  0  0  0  0  0
  -31.2635  -35.5314   23.3774 C   0  0  0  0  0  0  0  0  0  0  0  0
  -27.0731  -31.9971   19.2762 C   0  0  0  0  0  0  0  0  0  0  0  0
  -29.2190  -21.5572   23.0986 C   0  0  0  0  0  0  0  0  0  0  0  0
  -29.2652  -24.4798   23.4456 C   0  0  0  0  0  0  0  0  0  1  0  0
  -30.1569  -33.2952   22.9695 C   0  0  1  0  0  0  0  0  0  0  0  0
  -27.2051  -34.0380   20.7100 C   0  0  2  0  0  0  0  0  0  0  0  0
  -30.6013  -34.3132   24.0573 C   0  0  0  0  0  0  0  0  0  0  0  0
  -25.8087  -11.5318   20.3287 N   0  0  0  0  0  0  0  0  0  0  0  0
  -26.2075  -12.8059   20.1750 N   0  0  0  0  0  0  0  0  0  0  0  0
  -31.5104  -31.3539   22.2459 N   0  0  0  0  0  0  0  0  0  0  0  0
  -29.9468  -13.5413   20.4214 N   0  0  0  0  0  0  0  0  0  0  0  0
  -28.6028  -17.3452   23.2089 N   0  0  0  0  0  0  0  0  0  0  0  0
  -25.4722  -15.0502   20.3563 N   0  0  0  0  0  0  0  0  0  0  0  0
  -21.8310  -12.6610   21.5520 N   0  0  0  0  0  0  0  0  0  0  0  0
  -30.0729  -15.6454   21.4794 N   0  0  0  0  0  0  0  0  0  0  0  0
  -29.0501  -20.1250   23.0938 N   0  0  0  0  0  0  0  0  0  0  0  0
  -35.0328  -30.8172   22.4326 N   0  0  0  0  0  0  0  0  0  0  0  0
  -29.2276  -33.8397   21.9855 N   0  0  0  0  0  0  0  0  0  0  0  0
  -26.3356  -33.0984   19.9472 N   0  3  0  0  0  0  0  0  0  0  0  0
  -22.6442  -14.7812   21.2321 O   0  0  0  0  0  0  0  0  0  0  0  0
  -27.5290  -21.5346   24.8366 O   0  0  0  0  0  0  0  0  0  0  0  0
  -27.5716  -24.1535   25.1405 O   0  0  0  0  0  0  0  0  0  0  0  0
  -33.3065  -30.3888   23.9355 O   0  0  0  0  0  0  0  0  0  0  0  0
  -32.0393  -33.5131   21.5428 O   0  0  0  0  0  0  0  0  0  0  0  0
  -27.5232  -32.3164   22.3751 O   0  0  0  0  0  0  0  0  0  0  0  0
  -31.8571  -14.8305   20.2406 O   0  0  0  0  0  0  0  0  0  0  0  0
  -21.4694   -7.1070   21.7918 O   0  0  0  0  0  0  0  0  0  0  0  0
  -29.1632  -25.8615   23.7875 O   0  0  0  0  0  0  0  0  0  1  0  0
  -23.7932   -3.0882   24.7672 F   0  0  0  0  0  0  0  0  0  0  0  0
  -32.2933  -19.4810   19.6641 F   0  0  0  0  0  0  0  0  0  0  0  0
  -20.3728   -6.3109   24.2015 F   0  0  0  0  0  0  0  0  0  0  0  0
  1  2  1  0  0  0  0
  1  5  2  0  0  0  0
  2  6  2  0  0  0  0
  3  8  2  0  0  0  0
  3 17  1  0  0  0  0
  4  9  1  0  0  0  0
  4 17  2  0  0  0  0
  5 19  1  0  0  0  0
  6 21  1  0  0  0  0
  7 10  2  0  0  0  0
  7 20  1  0  0  0  0
  8 26  1  0  0  0  0
  9 26  2  0  0  0  0
 10 27  1  0  0  0  0
 11 12  2  0  0  0  0
 11 28  1  0  0  0  0
 12 29  1  0  0  0  0
 13 22  1  0  0  0  0
 13 27  2  0  0  0  0
 14 23  2  0  0  0  0
 14 30  1  0  0  0  0
 15 24  1  0  0  0  0
 15 30  2  0  0  0  0
 16 29  2  0  0  0  0
 16 31  1  0  0  0  0
 17 32  1  0  0  0  0
 18 32  1  0  0  0  0
 18 33  2  0  0  0  0
 18 34  1  0  0  0  0
 19 21  2  0  0  0  0
 19 41  1  0  0  0  0
 20 22  2  0  0  0  0
 20 42  1  0  0  0  0
 21 50  1  0  0  0  0
 22 43  1  0  0  0  0
 23 25  1  0  0  0  0
 23 70  1  0  0  0  0
 24 25  2  0  0  0  0
 24 71  1  0  0  0  0
 25 67  1  0  0  0  0
 26 82  1  0  0  0  0
 27 83  1  0  0  0  0
 28 31  2  0  0  0  0
 28 82  1  0  0  0  0
 29 84  1  0  0  0  0
 30 85  1  0  0  0  0
 31 86  1  0  0  0  0
 32 63  2  0  0  0  0
 33 64  1  0  0  0  0
 33 68  1  0  0  0  0
 34 69  1  0  0  0  0
 34 75  2  0  0  0  0
 35 36  1  0  0  0  0
 35 58  1  0  0  0  0
 35 76  2  0  0  0  0
 36 59  1  0  0  0  0
 36 77  2  0  0  0  0
 37 51  1  0  0  0  0
 37 72  1  0  0  0  0
 37 78  2  0  0  0  0
 38 60  1  0  0  0  0
 38 65  1  0  0  0  0
 38 79  2  0  0  0  0
 39 61  1  0  0  0  0
 39 73  1  0  0  0  0
 39 80  2  0  0  0  0
 40 66  1  0  0  0  0
 40 70  1  0  0  0  0
 40 81  2  0  0  0  0
 41 44  1  0  0  0  0
 42 51  1  0  0  0  0
 43 65  1  0  0  0  0
 44 46  1  0  0  0  0
 45 47  1  0  0  0  0
 45 48  1  0  0  0  0
 46 50  1  0  0  0  0
 47 52  1  0  0  0  0
 48 66  1  0  0  0  0
 49 52  1  0  0  0  0
 49 66  1  0  0  0  0
 50 72  1  0  0  0  0
 51 65  1  0  0  0  0
 52 64  1  0  0  0  0
 53 61  1  0  0  0  0
 54 62  1  0  0  0  0
 55 62  1  0  0  0  0
 56 62  1  0  0  0  0
 57 74  1  0  0  0  0
 58 71  1  0  0  0  0
 59 83  1  0  0  0  0
 60 62  1  0  0  0  0
 60 73  1  0  0  0  0
 61 74  1  0  0  0  0
 63 64  1  0  0  0  0
M  CHG  1  74   1
M  ISO  4  40 100  59 101  70 100  83 101
M  END
> <Batch ID>
0163

> <Smiles>
CNC(C)C(=O)NC(C(=O)N1Cc2cc([101O:1][101CH2:1]C(=O)C(=O)CNc3cc(F)cc([100NH:0][100C:0](=O)N4CCCC(n5nc(-c6ccc(Oc7ccc(F)cc7F)cc6)c(C(N)=O)c5N)C4)c3N)ccc2CC1C(=O)NC1CCCc2ccccc21)C(C)(C)C

> <Shape>
0.202

> <Color>
0.186

> <Negative vol penalty>
0.000

$$$$

  -OEChem-04052303593D

 89 98  0     1  0  0  0  0  0999 V2000
  -22.1737   -7.9858   22.7934 C   0  0  0  0  0  0  0  0  0  0  0  0
  -22.7645   -8.5874   21.6868 C   0  0  0  0  0  0  0  0  0  0  0  0
  -19.1019  -28.8343   22.4984 C   0  0  0  0  0  0  0  0  0  0  0  0
  -20.6554  -26.9840   22.4983 C   0  0  0  0  0  0  0  0  0  0  0  0
  -29.4247  -25.1976   22.3436 C   0  0  0  0  0  0  0  0  0  0  0  0
  -21.3069   -8.7180   23.6036 C   0  0  0  0  0  0  0  0  0  0  0  0
  -22.4878   -9.9213   21.3892 C   0  0  0  0  0  0  0  0  0  0  0  0
  -27.7638  -14.8132   21.0359 C   0  0  0  0  0  0  0  0  0  0  0  0
  -28.5531  -26.2863   22.3166 C   0  0  0  0  0  0  0  0  0  0  0  0
  -18.0419  -27.9443   22.3254 C   0  0  0  0  0  0  0  0  0  0  0  0
  -19.5954  -26.0940   22.3254 C   0  0  0  0  0  0  0  0  0  0  0  0
  -28.7400  -15.7658   20.7428 C   0  0  0  0  0  0  0  0  0  0  0  0
  -17.2043  -24.6683   24.2413 C   0  0  0  0  0  0  0  0  0  0  0  0
  -17.1915  -23.5173   25.0290 C   0  0  0  0  0  0  0  0  0  0  0  0
  -27.0214  -17.4199   20.3447 C   0  0  0  0  0  0  0  0  0  0  0  0
  -29.5243  -27.0120   20.2268 C   0  0  0  0  0  0  0  0  0  0  0  0
  -17.2520  -22.1528   23.0361 C   0  0  0  0  0  0  0  0  0  0  0  0
  -20.4087  -28.3541   22.5848 C   0  0  0  0  0  0  0  0  0  0  0  0
  -30.3461  -25.0161   21.3122 C   0  0  0  0  0  0  0  0  0  0  0  0
  -21.6978  -30.1678   23.8322 C   0  0  0  0  0  0  0  0  0  0  0  0
  -21.0270  -10.0643   23.3213 C   0  0  0  0  0  0  0  0  0  0  0  0
  -26.4117  -15.1649   20.9996 C   0  0  0  0  0  0  0  0  0  0  0  0
  -21.6154  -10.6718   22.1956 C   0  0  0  0  0  0  0  0  0  0  0  0
  -26.0396  -16.4733   20.6496 C   0  0  0  0  0  0  0  0  0  0  0  0
  -28.6029  -27.1935   21.2582 C   0  0  0  0  0  0  0  0  0  0  0  0
  -18.2886  -26.5742   22.2389 C   0  0  0  0  0  0  0  0  0  0  0  0
  -28.3696  -17.0658   20.3978 C   0  0  0  0  0  0  0  0  0  0  0  0
  -17.2409  -24.5617   22.8510 C   0  0  0  0  0  0  0  0  0  0  0  0
  -17.2153  -22.2595   24.4264 C   0  0  0  0  0  0  0  0  0  0  0  0
  -30.3959  -25.9233   20.2538 C   0  0  0  0  0  0  0  0  0  0  0  0
  -17.2648  -23.3040   22.2484 C   0  0  0  0  0  0  0  0  0  0  0  0
  -21.5042  -29.2730   22.7628 C   0  0  0  0  0  0  0  0  0  0  0  0
  -22.8750  -30.8095   23.5340 C   0  0  0  0  0  0  0  0  0  0  0  0
  -31.2661  -23.8651   21.3439 C   0  0  0  0  0  0  0  0  0  0  0  0
  -20.8863  -30.3984   24.9914 C   0  0  0  0  0  0  0  0  0  0  0  0
  -22.8517  -14.0768   21.4674 C   0  0  0  0  0  0  0  0  0  0  0  0
  -23.0833  -16.8990   22.6473 C   0  0  0  0  0  0  0  0  0  0  0  0
  -22.7280  -19.7621   24.4676 C   0  0  0  0  0  0  0  0  0  0  0  0
  -27.6347  -29.2920   20.2556 C   0  0  0  0  0  0  0  0  0  0  0  0
  -20.0467  -10.8014   24.1989 C   0  0  0  0  0  0  0  0  0  0  0  0
  -25.3241  -14.1553   21.2480 C   0  0  0  0  0  0  0  0  0  0  0  0
  -24.5719  -16.7973   20.5896 C   0  0  0  0  0  0  0  0  0  0  0  0
  -20.0983  -12.3177   24.0299 C   0  0  0  0  0  0  0  0  0  0  0  0
  -25.5668  -32.1558   19.8089 C   0  0  0  0  0  0  0  0  0  0  0  0
  -20.1160  -12.6896   22.5506 C   0  0  0  0  0  0  0  0  0  0  0  0
  -24.3104  -31.8255   20.6180 C   0  0  0  0  0  0  0  0  0  0  0  0
  -30.9777  -20.2784   20.7749 C   0  0  0  0  0  0  0  0  0  0  0  0
  -29.6768  -21.5823   18.9988 C   0  0  0  0  0  0  0  0  0  0  0  0
  -26.1387  -30.9184   19.1192 C   0  0  0  0  0  0  0  0  0  0  0  0
  -31.8087  -21.5562   20.8000 C   0  0  0  0  0  0  0  0  0  0  0  0
  -29.5805  -22.6057   20.1213 C   0  0  0  0  0  0  0  0  0  0  0  0
  -25.1282  -29.4422   20.8129 C   0  0  0  0  0  0  0  0  0  0  0  0
  -21.3595  -12.1237   21.8543 C   0  0  1  0  0  0  0  0  0  0  0  0
  -24.0974  -14.7527   21.9603 C   0  0  1  0  0  0  0  0  0  0  0  0
  -24.5530  -30.6449   21.5786 C   0  0  2  0  0  0  0  0  0  0  0  0
  -30.1006  -20.1919   19.5099 C   0  0  0  0  0  0  0  0  0  0  0  0
  -21.0062  -21.4442   25.1772 C   0  0  0  0  0  0  0  0  0  0  0  0
  -23.1369  -18.1263   19.8554 C   0  0  0  0  0  0  0  0  0  0  0  0
  -22.2253  -20.2383   20.8435 C   0  0  0  0  0  0  0  0  0  0  0  0
  -20.8910  -18.1336   20.9556 C   0  0  0  0  0  0  0  0  0  0  0  0
  -23.1553  -19.1626   27.3341 C   0  0  0  0  0  0  0  0  0  0  0  0
  -30.1000  -19.4740   17.2700 C   0  0  0  0  0  0  0  0  0  0  0  0
  -28.8815  -19.3026   19.7715 C   0  0  0  0  0  0  0  0  0  1  0  0
  -22.9392  -18.3821   22.4169 C   0  0  1  0  0  0  0  0  0  0  0  0
  -21.7291  -20.1565   25.5405 C   0  0  2  0  0  0  0  0  0  0  0  0
  -22.3223  -18.7088   21.0276 C   0  0  0  0  0  0  0  0  0  0  0  0
  -22.4800  -29.3376   21.8532 N   0  0  0  0  0  0  0  0  0  0  0  0
  -23.2982  -30.2809   22.3501 N   0  0  0  0  0  0  0  0  0  0  0  0
  -30.8997  -22.7223   20.7786 N   0  0  0  0  0  0  0  0  0  0  0  0
  -23.8764  -16.1914   21.7358 N   0  0  0  0  0  0  0  0  0  0  0  0
  -26.3463  -29.8431   20.0915 N   0  0  0  0  0  0  0  0  0  0  0  0
  -23.5790  -31.7689   24.1715 N   0  0  0  0  0  0  0  0  0  0  0  0
  -19.7093  -29.6525   25.1421 N   0  0  0  0  0  0  0  0  0  0  0  0
  -27.7171  -28.2991   21.2313 N   0  0  0  0  0  0  0  0  0  0  0  0
  -22.5218  -12.9290   22.1626 N   0  0  0  0  0  0  0  0  0  0  0  0
  -22.1740  -18.8982   23.5467 N   0  0  0  0  0  0  0  0  0  0  0  0
  -32.4496  -23.9908   21.9369 N   0  3  0  0  0  0  0  0  0  0  0  0
  -22.4221  -20.3582   26.8444 N   0  3  0  0  0  0  0  0  0  0  0  0
  -21.1872  -31.2524   25.8595 O   0  0  0  0  0  0  0  0  0  0  0  0
  -22.2335  -14.5609   20.5266 O   0  0  0  0  0  0  0  0  0  0  0  0
  -22.5049  -16.3784   23.6053 O   0  0  0  0  0  0  0  0  0  0  0  0
  -23.8830  -20.1816   24.4462 O   0  0  0  0  0  0  0  0  0  0  0  0
  -28.5999  -29.6917   19.5995 O   0  0  0  0  0  0  0  0  0  0  0  0
  -17.2544  -25.7054   22.0704 O   0  0  0  0  0  0  0  0  0  0  0  0
  -29.3278  -17.9920   20.1172 O   0  0  0  0  0  0  0  0  0  1  0  0
  -30.8611  -19.5792   18.4618 O   0  0  0  0  0  0  0  0  0  0  0  0
  -17.2045  -21.1542   25.1830 F   0  0  0  0  0  0  0  0  0  0  0  0
  -31.2791  -25.7584   19.2591 F   0  0  0  0  0  0  0  0  0  0  0  0
  -17.3012  -23.1952   20.9132 F   0  0  0  0  0  0  0  0  0  0  0  0
  1  2  1  0  0  0  0
  1  6  2  0  0  0  0
  2  7  2  0  0  0  0
  3 10  2  0  0  0  0
  3 18  1  0  0  0  0
  4 11  1  0  0  0  0
  4 18  2  0  0  0  0
  5  9  2  0  0  0  0
  5 19  1  0  0  0  0
  6 21  1  0  0  0  0
  7 23  1  0  0  0  0
  8 12  2  0  0  0  0
  8 22  1  0  0  0  0
  9 25  1  0  0  0  0
 10 26  1  0  0  0  0
 11 26  2  0  0  0  0
 12 27  1  0  0  0  0
 13 14  2  0  0  0  0
 13 28  1  0  0  0  0
 14 29  1  0  0  0  0
 15 24  1  0  0  0  0
 15 27  2  0  0  0  0
 16 25  2  0  0  0  0
 16 30  1  0  0  0  0
 17 29  2  0  0  0  0
 17 31  1  0  0  0  0
 18 32  1  0  0  0  0
 19 30  2  0  0  0  0
 19 34  1  0  0  0  0
 20 32  1  0  0  0  0
 20 33  2  0  0  0  0
 20 35  1  0  0  0  0
 21 23  2  0  0  0  0
 21 40  1  0  0  0  0
 22 24  2  0  0  0  0
 22 41  1  0  0  0  0
 23 53  1  0  0  0  0
 24 42  1  0  0  0  0
 25 74  1  0  0  0  0
 26 84  1  0  0  0  0
 27 85  1  0  0  0  0
 28 31  2  0  0  0  0
 28 84  1  0  0  0  0
 29 87  1  0  0  0  0
 30 88  1  0  0  0  0
 31 89  1  0  0  0  0
 32 67  2  0  0  0  0
 33 68  1  0  0  0  0
 33 72  1  0  0  0  0
 34 69  1  0  0  0  0
 34 77  2  0  0  0  0
 35 73  1  0  0  0  0
 35 79  2  0  0  0  0
 36 54  1  0  0  0  0
 36 75  1  0  0  0  0
 36 80  2  0  0  0  0
 37 64  1  0  0  0  0
 37 70  1  0  0  0  0
 37 81  2  0  0  0  0
 38 65  1  0  0  0  0
 38 76  1  0  0  0  0
 38 82  2  0  0  0  0
 39 71  1  0  0  0  0
 39 74  1  0  0  0  0
 39 83  2  0  0  0  0
 40 43  1  0  0  0  0
 41 54  1  0  0  0  0
 42 70  1  0  0  0  0
 43 45  1  0  0  0  0
 44 46  1  0  0  0  0
 44 49  1  0  0  0  0
 45 53  1  0  0  0  0
 46 55  1  0  0  0  0
 47 50  1  0  0  0  0
 47 56  1  0  0  0  0
 48 51  1  0  0  0  0
 48 56  1  0  0  0  0
 49 71  1  0  0  0  0
 50 69  1  0  0  0  0
 51 69  1  0  0  0  0
 52 55  1  0  0  0  0
 52 71  1  0  0  0  0
 53 75  1  0  0  0  0
 54 70  1  0  0  0  0
 55 68  1  0  0  0  0
 56 63  1  0  0  0  0
 56 86  1  0  0  0  0
 57 65  1  0  0  0  0
 58 66  1  0  0  0  0
 59 66  1  0  0  0  0
 60 66  1  0  0  0  0
 61 78  1  0  0  0  0
 62 86  1  0  0  0  0
 63 85  1  0  0  0  0
 64 66  1  0  0  0  0
 64 76  1  0  0  0  0
 65 78  1  0  0  0  0
 67 68  1  0  0  0  0
M  CHG  2  77   1  78   1
M  ISO  4  39 100  63 101  74 100  85 101
M  END
> <Batch ID>
0163

> <Smiles>
CNC(C)C(=O)NC(C(=O)N1Cc2cc([101O:1][101CH2:1]C3(OC)CCN(C(=N)c4ccc([100NH:0][100C:0](=O)N5CCCC(n6nc(-c7ccc(Oc8ccc(F)cc8F)cc7)c(C(N)=O)c6N)C5)cc4F)CC3)ccc2CC1C(=O)NC1CCCc2ccccc21)C(C)(C)C

> <Shape>
0.241

> <Color>
0.076

> <Negative vol penalty>
0.000

$$$$

  -OEChem-04052303593D

 84 93  0     1  0  0  0  0  0999 V2000
  -17.2872  -29.2366   25.8122 C   0  0  0  0  0  0  0  0  0  0  0  0
  -17.8184  -28.0406   26.2842 C   0  0  0  0  0  0  0  0  0  0  0  0
  -29.9575  -21.2016   20.4244 C   0  0  0  0  0  0  0  0  0  0  0  0
  -31.8946  -20.4065   19.2192 C   0  0  0  0  0  0  0  0  0  0  0  0
  -17.5330  -29.6372   24.4996 C   0  0  0  0  0  0  0  0  0  0  0  0
  -18.5949  -27.2439   25.4435 C   0  0  0  0  0  0  0  0  0  0  0  0
  -24.1629  -22.7395   25.5946 C   0  0  0  0  0  0  0  0  0  0  0  0
  -29.9190  -22.3362   19.6140 C   0  0  0  0  0  0  0  0  0  0  0  0
  -31.8560  -21.5411   18.4087 C   0  0  0  0  0  0  0  0  0  0  0  0
  -24.5208  -21.4553   25.1864 C   0  0  0  0  0  0  0  0  0  0  0  0
  -32.7668  -24.7898   18.6257 C   0  0  0  0  0  0  0  0  0  0  0  0
  -33.9703  -25.4494   18.3765 C   0  0  0  0  0  0  0  0  0  0  0  0
  -24.9448  -22.2869   22.9621 C   0  0  0  0  0  0  0  0  0  0  0  0
  -33.6916  -25.0631   16.0079 C   0  0  0  0  0  0  0  0  0  0  0  0
  -23.7565  -12.1715   20.7878 C   0  0  0  0  0  0  0  0  0  0  0  0
  -24.8051  -11.3202   20.5174 C   0  0  0  0  0  0  0  0  0  0  0  0
  -30.9454  -20.2367   20.2270 C   0  0  0  0  0  0  0  0  0  0  0  0
  -31.1406  -19.0241   22.4629 C   0  0  0  0  0  0  0  0  0  0  0  0
  -18.3208  -28.8498   23.6452 C   0  0  0  0  0  0  0  0  0  0  0  0
  -24.1829  -23.8068   24.6852 C   0  0  0  0  0  0  0  0  0  0  0  0
  -18.8503  -27.6337   24.1177 C   0  0  0  0  0  0  0  0  0  0  0  0
  -24.5892  -23.5841   23.3618 C   0  0  0  0  0  0  0  0  0  0  0  0
  -30.8682  -22.5059   18.6061 C   0  0  0  0  0  0  0  0  0  0  0  0
  -24.9091  -21.2283   23.8693 C   0  0  0  0  0  0  0  0  0  0  0  0
  -32.0257  -24.2667   17.5660 C   0  0  0  0  0  0  0  0  0  0  0  0
  -34.4327  -25.5861   17.0676 C   0  0  0  0  0  0  0  0  0  0  0  0
  -32.4881  -24.4034   16.2571 C   0  0  0  0  0  0  0  0  0  0  0  0
  -30.9861  -19.0648   21.0643 C   0  0  0  0  0  0  0  0  0  0  0  0
  -25.1948  -13.9492   20.7688 C   0  0  0  0  0  0  0  0  0  0  0  0
  -26.2437  -13.0979   20.4992 C   0  0  0  0  0  0  0  0  0  0  0  0
  -31.1147  -17.6863   22.7725 C   0  0  0  0  0  0  0  0  0  0  0  0
  -31.2938  -20.0996   23.3986 C   0  0  0  0  0  0  0  0  0  0  0  0
  -21.9983  -25.7960   23.5130 C   0  0  0  0  0  0  0  0  0  0  0  0
  -24.5819  -27.2145   22.1582 C   0  0  0  0  0  0  0  0  0  0  0  0
  -27.7827  -27.1496   20.4945 C   0  0  0  0  0  0  0  0  0  0  0  0
  -28.7213  -12.9188   20.0802 C   0  0  0  0  0  0  0  0  0  0  0  0
  -18.5197  -29.3010   22.2199 C   0  0  0  0  0  0  0  0  0  0  0  0
  -23.8197  -25.1911   25.1479 C   0  0  0  0  0  0  0  0  0  0  0  0
  -24.6471  -24.6998   22.3516 C   0  0  0  0  0  0  0  0  0  0  0  0
  -19.6633  -28.5832   21.5077 C   0  0  0  0  0  0  0  0  0  0  0  0
  -32.1488  -13.3930   20.9196 C   0  0  0  0  0  0  0  0  0  0  0  0
  -19.5836  -27.0794   21.7512 C   0  0  0  0  0  0  0  0  0  0  0  0
  -25.7593  -15.8366   22.3583 C   0  0  0  0  0  0  0  0  0  0  0  0
  -24.1754  -16.2399   20.4222 C   0  0  0  0  0  0  0  0  0  0  0  0
  -25.9735  -17.3439   22.4928 C   0  0  0  0  0  0  0  0  0  0  0  0
  -24.3936  -17.7462   20.5617 C   0  0  0  0  0  0  0  0  0  0  0  0
  -32.2523  -14.8967   21.1852 C   0  0  0  0  0  0  0  0  0  0  0  0
  -31.1822  -13.0841   19.7777 C   0  0  0  0  0  0  0  0  0  0  0  0
  -29.9483  -15.1770   20.1853 C   0  0  0  0  0  0  0  0  0  0  0  0
  -19.7180  -26.7543   23.2437 C   0  0  1  0  0  0  0  0  0  0  0  0
  -25.3971  -15.4464   20.9154 C   0  0  0  0  0  0  0  0  0  0  0  0
  -23.3825  -26.1064   24.0084 C   0  0  1  0  0  0  0  0  0  0  0  0
  -24.7551  -18.1361   22.0009 C   0  0  0  0  0  0  0  0  0  0  0  0
  -30.8609  -15.5334   21.3701 C   0  0  2  0  0  0  0  0  0  0  0  0
  -29.2930  -29.0254   19.7889 C   0  0  0  0  0  0  0  0  0  0  0  0
  -23.1520  -26.9700   19.4739 C   0  0  0  0  0  0  0  0  0  0  0  0
  -25.3447  -27.4023   18.3454 C   0  0  0  0  0  0  0  0  0  0  0  0
  -24.3427  -29.1406   19.8277 C   0  0  0  0  0  0  0  0  0  0  0  0
  -30.0719  -26.0261   21.9965 C   0  0  0  0  0  0  0  0  0  0  0  0
  -25.0122  -19.6384   22.1036 C   0  0  0  0  0  0  0  0  0  1  0  0
  -25.3304  -27.0533   20.8572 C   0  0  1  0  0  0  0  0  0  0  0  0
  -29.0080  -27.9728   20.8489 C   0  0  2  0  0  0  0  0  0  0  0  0
  -24.5396  -27.6199   19.6443 C   0  0  0  0  0  0  0  0  0  0  0  0
  -23.9325  -13.5013   20.9183 N   0  0  0  0  0  0  0  0  0  0  0  0
  -26.0676  -11.7681   20.3683 N   0  0  0  0  0  0  0  0  0  0  0  0
  -30.8707  -17.8493   20.5227 N   0  0  0  0  0  0  0  0  0  0  0  0
  -30.9528  -17.0323   21.5866 N   0  0  0  0  0  0  0  0  0  0  0  0
  -24.2764  -26.0343   22.8508 N   0  0  0  0  0  0  0  0  0  0  0  0
  -29.8841  -13.7160   20.0235 N   0  0  0  0  0  0  0  0  0  0  0  0
  -31.2148  -17.0172   23.9407 N   0  0  0  0  0  0  0  0  0  0  0  0
  -30.1420  -20.6561   23.9714 N   0  0  0  0  0  0  0  0  0  0  0  0
  -27.5504  -13.6257   20.3522 N   0  0  0  0  0  0  0  0  0  0  0  0
  -21.1025  -26.8383   23.6566 N   0  0  0  0  0  0  0  0  0  0  0  0
  -26.6372  -27.6697   21.0590 N   0  0  0  0  0  0  0  0  0  0  0  0
  -30.2049  -27.0935   20.9718 N   0  3  0  0  0  0  0  0  0  0  0  0
  -32.4178  -20.5647   23.7049 O   0  0  0  0  0  0  0  0  0  0  0  0
  -21.7610  -24.6931   23.0345 O   0  0  0  0  0  0  0  0  0  0  0  0
  -24.2856  -28.3463   22.5492 O   0  0  0  0  0  0  0  0  0  0  0  0
  -27.8358  -26.1478   19.7845 O   0  0  0  0  0  0  0  0  0  0  0  0
  -28.7651  -11.6954   19.9276 O   0  0  0  0  0  0  0  0  0  0  0  0
  -30.8307  -23.6128   17.8150 O   0  0  0  0  0  0  0  0  0  0  0  0
  -25.2582  -19.9756   23.4682 O   0  0  0  0  0  0  0  0  0  1  0  0
  -35.5877  -26.2209   16.8283 F   0  0  0  0  0  0  0  0  0  0  0  0
  -31.7799  -23.9040   15.2349 F   0  0  0  0  0  0  0  0  0  0  0  0
  1  2  1  0  0  0  0
  1  5  2  0  0  0  0
  2  6  2  0  0  0  0
  3  8  2  0  0  0  0
  3 17  1  0  0  0  0
  4  9  1  0  0  0  0
  4 17  2  0  0  0  0
  5 19  1  0  0  0  0
  6 21  1  0  0  0  0
  7 10  2  0  0  0  0
  7 20  1  0  0  0  0
  8 23  1  0  0  0  0
  9 23  2  0  0  0  0
 10 24  1  0  0  0  0
 11 12  2  0  0  0  0
 11 25  1  0  0  0  0
 12 26  1  0  0  0  0
 13 22  1  0  0  0  0
 13 24  2  0  0  0  0
 14 26  2  0  0  0  0
 14 27  1  0  0  0  0
 15 16  1  0  0  0  0
 15 64  2  0  0  0  0
 16 65  2  0  0  0  0
 17 28  1  0  0  0  0
 18 28  1  0  0  0  0
 18 31  2  0  0  0  0
 18 32  1  0  0  0  0
 19 21  2  0  0  0  0
 19 37  1  0  0  0  0
 20 22  2  0  0  0  0
 20 38  1  0  0  0  0
 21 50  1  0  0  0  0
 22 39  1  0  0  0  0
 23 81  1  0  0  0  0
 24 82  1  0  0  0  0
 25 27  2  0  0  0  0
 25 81  1  0  0  0  0
 26 83  1  0  0  0  0
 27 84  1  0  0  0  0
 28 66  2  0  0  0  0
 29 30  2  0  0  0  0
 29 51  1  0  0  0  0
 29 64  1  0  0  0  0
 30 65  1  0  0  0  0
 30 72  1  0  0  0  0
 31 67  1  0  0  0  0
 31 70  1  0  0  0  0
 32 71  1  0  0  0  0
 32 76  2  0  0  0  0
 33 52  1  0  0  0  0
 33 73  1  0  0  0  0
 33 77  2  0  0  0  0
 34 61  1  0  0  0  0
 34 68  1  0  0  0  0
 34 78  2  0  0  0  0
 35 62  1  0  0  0  0
 35 74  1  0  0  0  0
 35 79  2  0  0  0  0
 36 69  1  0  0  0  0
 36 72  1  0  0  0  0
 36 80  2  0  0  0  0
 37 40  1  0  0  0  0
 38 52  1  0  0  0  0
 39 68  1  0  0  0  0
 40 42  1  0  0  0  0
 41 47  1  0  0  0  0
 41 48  1  0  0  0  0
 42 50  1  0  0  0  0
 43 45  1  0  0  0  0
 43 51  1  0  0  0  0
 44 46  1  0  0  0  0
 44 51  1  0  0  0  0
 45 53  1  0  0  0  0
 46 53  1  0  0  0  0
 47 54  1  0  0  0  0
 48 69  1  0  0  0  0
 49 54  1  0  0  0  0
 49 69  1  0  0  0  0
 50 73  1  0  0  0  0
 52 68  1  0  0  0  0
 53 60  1  0  0  0  0
 54 67  1  0  0  0  0
 55 62  1  0  0  0  0
 56 63  1  0  0  0  0
 57 63  1  0  0  0  0
 58 63  1  0  0  0  0
 59 75  1  0  0  0  0
 60 82  1  0  0  0  0
 61 63  1  0  0  0  0
 61 74  1  0  0  0  0
 62 75  1  0  0  0  0
 66 67  1  0  0  0  0
M  CHG  1  75   1
M  ISO  4  36 100  60 101  72 100  82 101
M  END
> <Batch ID>
0163

> <Smiles>
CNC(C)C(=O)NC(C(=O)N1Cc2cc([101O:1][101CH2:1]C3CCC(c4nccnc4[100NH:0][100C:0](=O)N4CCCC(n5nc(-c6ccc(Oc7ccc(F)cc7F)cc6)c(C(N)=O)c5N)C4)CC3)ccc2CC1C(=O)NC1CCCc2ccccc21)C(C)(C)C

> <Shape>
0.230

> <Color>
0.075

> <Negative vol penalty>
0.000

$$$$

  -OEChem-04052303593D

 85 93  0     1  0  0  0  0  0999 V2000
  -30.5067  -23.6035   18.1241 C   0  0  0  0  0  0  0  0  0  0  0  0
  -29.2306  -23.6669   18.6747 C   0  0  0  0  0  0  0  0  0  0  0  0
  -24.5162  -22.9156   28.0159 C   0  0  0  0  0  0  0  0  0  0  0  0
  -28.3820  -14.7486   20.7330 C   0  0  0  0  0  0  0  0  0  0  0  0
  -26.1388  -15.6427   20.8114 C   0  0  0  0  0  0  0  0  0  0  0  0
  -23.2698  -22.9195   27.3898 C   0  0  0  0  0  0  0  0  0  0  0  0
  -31.5285  -24.3980   18.6424 C   0  0  0  0  0  0  0  0  0  0  0  0
  -28.9760  -24.5241   19.7446 C   0  0  0  0  0  0  0  0  0  0  0  0
  -24.6617  -27.1140   19.1746 C   0  0  0  0  0  0  0  0  0  0  0  0
  -25.6518  -22.5241   27.3068 C   0  0  0  0  0  0  0  0  0  0  0  0
  -27.8642  -13.4548   20.6742 C   0  0  0  0  0  0  0  0  0  0  0  0
  -25.6211  -14.3488   20.7524 C   0  0  0  0  0  0  0  0  0  0  0  0
  -23.4727  -26.4374   19.4431 C   0  0  0  0  0  0  0  0  0  0  0  0
  -27.1280   -9.9353   20.1392 C   0  0  0  0  0  0  0  0  0  0  0  0
  -27.6864   -9.0548   19.2127 C   0  0  0  0  0  0  0  0  0  0  0  0
  -24.2945  -22.1401   25.3453 C   0  0  0  0  0  0  0  0  0  0  0  0
  -23.3780  -27.4785   21.6171 C   0  0  0  0  0  0  0  0  0  0  0  0
  -27.0521  -10.5420   17.4173 C   0  0  0  0  0  0  0  0  0  0  0  0
  -27.5193  -15.8426   20.8017 C   0  0  0  0  0  0  0  0  0  0  0  0
  -23.1590  -22.5318   26.0545 C   0  0  0  0  0  0  0  0  0  0  0  0
  -28.3529  -18.0259   19.7789 C   0  0  0  0  0  0  0  0  0  0  0  0
  -31.2839  -25.2724   19.7130 C   0  0  0  0  0  0  0  0  0  0  0  0
  -25.2246  -27.9711   20.1313 C   0  0  0  0  0  0  0  0  0  0  0  0
  -29.9958  -25.3300   20.2786 C   0  0  0  0  0  0  0  0  0  0  0  0
  -24.5730  -28.1669   21.3573 C   0  0  0  0  0  0  0  0  0  0  0  0
  -25.5409  -22.1363   25.9715 C   0  0  0  0  0  0  0  0  0  0  0  0
  -26.4838  -13.2549   20.6838 C   0  0  0  0  0  0  0  0  0  0  0  0
  -22.8322  -26.6173   20.6656 C   0  0  0  0  0  0  0  0  0  0  0  0
  -26.5315  -11.1190   19.7049 C   0  0  0  0  0  0  0  0  0  0  0  0
  -27.6485   -9.3582   17.8517 C   0  0  0  0  0  0  0  0  0  0  0  0
  -26.4936  -11.4224   18.3440 C   0  0  0  0  0  0  0  0  0  0  0  0
  -28.0535  -17.1794   20.8631 C   0  0  0  0  0  0  0  0  0  0  0  0
  -28.8301  -19.1744   20.3615 C   0  0  0  0  0  0  0  0  0  0  0  0
  -21.6440  -25.1094   22.0016 C   0  0  0  0  0  0  0  0  0  1  0  0
  -21.8392  -22.5361   25.3901 C   0  0  0  0  0  0  0  0  0  0  0  0
  -28.2120  -17.7946   18.3709 C   0  0  0  0  0  0  0  0  0  0  0  0
  -20.5861  -24.3907   22.3929 C   0  0  0  0  0  0  0  0  0  0  0  0
  -20.4703  -23.4512   23.5371 C   0  0  0  0  0  0  0  0  0  0  0  0
  -27.9574  -28.0361   21.7534 C   0  0  0  0  0  0  0  0  0  0  0  0
  -26.8392  -30.9094   22.7612 C   0  0  0  0  0  0  0  0  0  0  0  0
  -24.1533  -32.9407   23.3149 C   0  0  0  0  0  0  0  0  0  0  0  0
  -28.0057  -21.6781   25.7241 C   0  0  0  0  0  0  0  0  0  0  0  0
  -32.4316  -26.0768   20.2701 C   0  0  0  0  0  0  0  0  0  0  0  0
  -26.4937  -28.7142   19.8159 C   0  0  0  0  0  0  0  0  0  0  0  0
  -25.1252  -29.0916   22.4101 C   0  0  0  0  0  0  0  0  0  0  0  0
  -31.9883  -27.2341   21.1614 C   0  0  0  0  0  0  0  0  0  0  0  0
  -31.1141  -20.7166   24.2781 C   0  0  0  0  0  0  0  0  0  0  0  0
  -30.9264  -26.7682   22.1525 C   0  0  0  0  0  0  0  0  0  0  0  0
  -30.7089  -19.7823   23.1357 C   0  0  0  0  0  0  0  0  0  0  0  0
  -30.2077  -20.5492   25.4964 C   0  0  0  0  0  0  0  0  0  0  0  0
  -28.3649  -19.7336   24.0793 C   0  0  0  0  0  0  0  0  0  0  0  0
  -29.6743  -26.2656   21.4237 C   0  0  1  0  0  0  0  0  0  0  0  0
  -27.2472  -29.1660   21.0631 C   0  0  1  0  0  0  0  0  0  0  0  0
  -29.2088  -19.9121   22.8066 C   0  0  2  0  0  0  0  0  0  0  0  0
  -23.5509  -35.2181   24.1797 C   0  0  0  0  0  0  0  0  0  0  0  0
  -27.2820  -29.9384   25.6197 C   0  0  0  0  0  0  0  0  0  0  0  0
  -25.8156  -31.8082   26.4080 C   0  0  0  0  0  0  0  0  0  0  0  0
  -27.9446  -32.3150   25.2109 C   0  0  0  0  0  0  0  0  0  0  0  0
  -22.9787  -33.7431   20.7195 C   0  0  0  0  0  0  0  0  0  0  0  0
  -25.9859  -31.3798   23.9143 C   0  0  1  0  0  0  0  0  0  0  0  0
  -23.8956  -34.3917   22.9505 C   0  0  2  0  0  0  0  0  0  0  0  0
  -26.7474  -31.3414   25.2694 C   0  0  0  0  0  0  0  0  0  0  0  0
  -28.3185  -17.7421   22.0451 N   0  0  0  0  0  0  0  0  0  0  0  0
  -28.7895  -18.9545   21.7070 N   0  0  0  0  0  0  0  0  0  0  0  0
  -26.3718  -29.7908   22.0570 N   0  0  0  0  0  0  0  0  0  0  0  0
  -28.8022  -20.6891   25.1091 N   0  0  0  0  0  0  0  0  0  0  0  0
  -29.2764  -20.3409   19.8491 N   0  0  0  0  0  0  0  0  0  0  0  0
  -27.7056  -16.5595   17.9440 N   0  0  0  0  0  0  0  0  0  0  0  0
  -26.6950  -21.7386   25.2520 N   0  0  0  0  0  0  0  0  0  0  0  0
  -21.6781  -23.3169   24.3117 N   0  0  0  0  0  0  0  0  0  0  0  0
  -28.8785  -27.3812   20.9583 N   0  0  0  0  0  0  0  0  0  0  0  0
  -25.4918  -32.7016   23.5439 N   0  0  0  0  0  0  0  0  0  0  0  0
  -20.8831  -21.7641   25.9060 N   0  3  0  0  0  0  0  0  0  0  0  0
  -19.3924  -24.5325   21.6402 N   0  3  0  0  0  0  0  0  0  0  0  0
  -22.7644  -34.4904   21.9854 N   0  3  0  0  0  0  0  0  0  0  0  0
  -28.5414  -18.6516   17.5161 O   0  0  0  0  0  0  0  0  0  0  0  0
  -19.4514  -22.8359   23.8149 O   0  0  0  0  0  0  0  0  0  0  0  0
  -27.6906  -27.7784   22.9213 O   0  0  0  0  0  0  0  0  0  0  0  0
  -27.8783  -31.5166   22.4908 O   0  0  0  0  0  0  0  0  0  0  0  0
  -23.2563  -32.1041   23.3924 O   0  0  0  0  0  0  0  0  0  0  0  0
  -28.4610  -22.4349   26.5854 O   0  0  0  0  0  0  0  0  0  0  0  0
  -25.9782  -11.9925   20.6261 O   0  0  0  0  0  0  0  0  0  0  0  0
  -21.6718  -25.9576   20.9304 O   0  0  0  0  0  0  0  0  0  1  0  0
  -28.1862   -8.5134   16.9621 F   0  0  0  0  0  0  0  0  0  0  0  0
  -25.9230  -12.5587   17.9208 F   0  0  0  0  0  0  0  0  0  0  0  0
  1  2  1  0  0  0  0
  1  7  2  0  0  0  0
  2  8  2  0  0  0  0
  3  6  2  0  0  0  0
  3 10  1  0  0  0  0
  4 11  2  0  0  0  0
  4 19  1  0  0  0  0
  5 12  1  0  0  0  0
  5 19  2  0  0  0  0
  6 20  1  0  0  0  0
  7 22  1  0  0  0  0
  8 24  1  0  0  0  0
  9 13  2  0  0  0  0
  9 23  1  0  0  0  0
 10 26  2  0  0  0  0
 11 27  1  0  0  0  0
 12 27  2  0  0  0  0
 13 28  1  0  0  0  0
 14 15  2  0  0  0  0
 14 29  1  0  0  0  0
 15 30  1  0  0  0  0
 16 20  2  0  0  0  0
 16 26  1  0  0  0  0
 17 25  1  0  0  0  0
 17 28  2  0  0  0  0
 18 30  2  0  0  0  0
 18 31  1  0  0  0  0
 19 32  1  0  0  0  0
 20 35  1  0  0  0  0
 21 32  1  0  0  0  0
 21 33  2  0  0  0  0
 21 36  1  0  0  0  0
 22 24  2  0  0  0  0
 22 43  1  0  0  0  0
 23 25  2  0  0  0  0
 23 44  1  0  0  0  0
 24 52  1  0  0  0  0
 25 45  1  0  0  0  0
 26 69  1  0  0  0  0
 27 82  1  0  0  0  0
 28 83  1  0  0  0  0
 29 31  2  0  0  0  0
 29 82  1  0  0  0  0
 30 84  1  0  0  0  0
 31 85  1  0  0  0  0
 32 63  2  0  0  0  0
 33 64  1  0  0  0  0
 33 67  1  0  0  0  0
 34 37  2  0  0  0  0
 34 83  1  0  0  0  0
 35 70  1  0  0  0  0
 35 73  2  0  0  0  0
 36 68  1  0  0  0  0
 36 76  2  0  0  0  0
 37 38  1  0  0  0  0
 37 74  1  0  0  0  0
 38 70  1  0  0  0  0
 38 77  2  0  0  0  0
 39 53  1  0  0  0  0
 39 71  1  0  0  0  0
 39 78  2  0  0  0  0
 40 60  1  0  0  0  0
 40 65  1  0  0  0  0
 40 79  2  0  0  0  0
 41 61  1  0  0  0  0
 41 72  1  0  0  0  0
 41 80  2  0  0  0  0
 42 66  1  0  0  0  0
 42 69  1  0  0  0  0
 42 81  2  0  0  0  0
 43 46  1  0  0  0  0
 44 53  1  0  0  0  0
 45 65  1  0  0  0  0
 46 48  1  0  0  0  0
 47 49  1  0  0  0  0
 47 50  1  0  0  0  0
 48 52  1  0  0  0  0
 49 54  1  0  0  0  0
 50 66  1  0  0  0  0
 51 54  1  0  0  0  0
 51 66  1  0  0  0  0
 52 71  1  0  0  0  0
 53 65  1  0  0  0  0
 54 64  1  0  0  0  0
 55 61  1  0  0  0  0
 56 62  1  0  0  0  0
 57 62  1  0  0  0  0
 58 62  1  0  0  0  0
 59 75  1  0  0  0  0
 60 62  1  0  0  0  0
 60 72  1  0  0  0  0
 61 75  1  0  0  0  0
 63 64  1  0  0  0  0
M  CHG  3  73   1  74   1  75   1
M  ISO  4  34 101  42 100  69 100  83 101
M  END
> <Batch ID>
0163

> <Smiles>
CNC(C)C(=O)NC(C(=O)N1Cc2cc([101O:1][101CH2:1]C(=N)C(=O)NC(=N)c3cccc([100NH:0][100C:0](=O)N4CCCC(n5nc(-c6ccc(Oc7ccc(F)cc7F)cc6)c(C(N)=O)c5N)C4)c3)ccc2CC1C(=O)NC1CCCc2ccccc21)C(C)(C)C

> <Shape>
0.235

> <Color>
0.072

> <Negative vol penalty>
0.000

$$$$

  -OEChem-04052303593D

 88 97  0     1  0  0  0  0  0999 V2000
  -17.0811  -30.2440   24.6045 C   0  0  0  0  0  0  0  0  0  0  0  0
  -17.5350  -28.9685   24.2844 C   0  0  0  0  0  0  0  0  0  0  0  0
  -24.5622   -8.8376   22.5052 C   0  0  0  0  0  0  0  0  0  0  0  0
  -23.4096   -9.6795   20.5559 C   0  0  0  0  0  0  0  0  0  0  0  0
  -17.5836  -31.3525   23.9244 C   0  0  0  0  0  0  0  0  0  0  0  0
  -18.4910  -28.8007   23.2832 C   0  0  0  0  0  0  0  0  0  0  0  0
  -22.9583  -24.6146   23.1228 C   0  0  0  0  0  0  0  0  0  0  0  0
  -23.9296   -7.6046   22.3468 C   0  0  0  0  0  0  0  0  0  0  0  0
  -22.7770   -8.4464   20.3975 C   0  0  0  0  0  0  0  0  0  0  0  0
  -23.0678  -23.3840   22.4768 C   0  0  0  0  0  0  0  0  0  0  0  0
  -20.8999   -6.2575   23.0029 C   0  0  0  0  0  0  0  0  0  0  0  0
  -20.3645   -5.6537   24.1406 C   0  0  0  0  0  0  0  0  0  0  0  0
  -24.2484  -24.4484   20.6623 C   0  0  0  0  0  0  0  0  0  0  0  0
  -28.7069  -16.7480   21.3194 C   0  0  0  0  0  0  0  0  0  0  0  0
  -27.7268  -18.0323   23.1139 C   0  0  0  0  0  0  0  0  0  0  0  0
  -21.8067   -3.7445   23.8060 C   0  0  0  0  0  0  0  0  0  0  0  0
  -24.3021   -9.8751   21.6098 C   0  0  0  0  0  0  0  0  0  0  0  0
  -24.8759  -12.0083   22.8857 C   0  0  0  0  0  0  0  0  0  0  0  0
  -18.5534  -31.1991   22.9211 C   0  0  0  0  0  0  0  0  0  0  0  0
  -23.4843  -25.7751   22.5374 C   0  0  0  0  0  0  0  0  0  0  0  0
  -19.0060  -29.9081   22.5882 C   0  0  0  0  0  0  0  0  0  0  0  0
  -24.1465  -25.6921   21.3042 C   0  0  0  0  0  0  0  0  0  0  0  0
  -29.6765  -16.6419   23.5351 C   0  0  0  0  0  0  0  0  0  0  0  0
  -29.6754  -16.2193   22.1888 C   0  0  0  0  0  0  0  0  0  0  0  0
  -27.7355  -17.6386   21.7814 C   0  0  0  0  0  0  0  0  0  0  0  0
  -28.6984  -17.5452   23.9839 C   0  0  0  0  0  0  0  0  0  0  0  0
  -23.0370   -7.4090   21.2929 C   0  0  0  0  0  0  0  0  0  0  0  0
  -23.7104  -23.3012   21.2450 C   0  0  0  0  0  0  0  0  0  0  0  0
  -21.8886   -5.6048   22.2667 C   0  0  0  0  0  0  0  0  0  0  0  0
  -20.8179   -4.3972   24.5422 C   0  0  0  0  0  0  0  0  0  0  0  0
  -22.3421   -4.3483   22.6683 C   0  0  0  0  0  0  0  0  0  0  0  0
  -24.9549  -11.1492   21.7733 C   0  0  0  0  0  0  0  0  0  0  0  0
  -25.6691  -13.0782   22.5503 C   0  0  0  0  0  0  0  0  0  0  0  0
  -24.1504  -11.8530   24.1126 C   0  0  0  0  0  0  0  0  0  0  0  0
  -22.2602  -28.5250   21.5158 C   0  0  0  0  0  0  0  0  0  0  0  0
  -24.8681  -19.4042   20.1070 C   0  0  0  0  0  0  0  0  0  0  0  0
  -25.3794  -29.3062   21.0890 C   0  0  0  0  0  0  0  0  0  0  0  0
  -28.5876  -28.2544   20.5904 C   0  0  0  0  0  0  0  0  0  0  0  0
  -30.6914  -14.7144   20.4514 C   0  0  0  0  0  0  0  0  0  0  0  0
  -19.0321  -32.4230   22.1810 C   0  0  0  0  0  0  0  0  0  0  0  0
  -23.3814  -27.0905   23.2596 C   0  0  0  0  0  0  0  0  0  0  0  0
  -30.7379  -16.2002   24.5113 C   0  0  0  0  0  0  0  0  0  0  0  0
  -24.7462  -26.9051   20.6428 C   0  0  0  0  0  0  0  0  0  0  0  0
  -20.3181  -32.1930   21.3914 C   0  0  0  0  0  0  0  0  0  0  0  0
  -31.5141  -14.9886   24.0178 C   0  0  0  0  0  0  0  0  0  0  0  0
  -27.7897  -14.4070   18.1700 C   0  0  0  0  0  0  0  0  0  0  0  0
  -20.2308  -30.8949   20.5952 C   0  0  0  0  0  0  0  0  0  0  0  0
  -26.8261  -13.5291   18.9659 C   0  0  0  0  0  0  0  0  0  0  0  0
  -31.8797  -15.1632   22.5542 C   0  0  0  0  0  0  0  0  0  0  0  0
  -29.2438  -14.1260   18.5353 C   0  0  0  0  0  0  0  0  0  0  0  0
  -28.5595  -13.3798   20.7984 C   0  0  0  0  0  0  0  0  0  0  0  0
  -20.0604  -29.6876   21.5253 C   0  0  1  0  0  0  0  0  0  0  0  0
  -23.5019  -28.2938   22.3297 C   0  0  1  0  0  0  0  0  0  0  0  0
  -27.0860  -13.6691   20.4746 C   0  0  2  0  0  0  0  0  0  0  0  0
  -30.9147  -29.1262   20.2416 C   0  0  0  0  0  0  0  0  0  0  0  0
  -24.6755  -30.0261   18.2087 C   0  0  0  0  0  0  0  0  0  0  0  0
  -27.1196  -29.9658   17.6697 C   0  0  0  0  0  0  0  0  0  0  0  0
  -26.2498  -31.6157   19.3263 C   0  0  0  0  0  0  0  0  0  0  0  0
  -29.5772  -26.9271   23.0435 C   0  0  0  0  0  0  0  0  0  0  0  0
  -25.7429  -19.0592   21.2943 C   0  0  0  0  0  0  0  0  0  0  0  0
  -23.2504  -20.9680   21.2663 C   0  0  0  0  0  0  0  0  0  1  0  0
  -23.4152  -19.7335   20.3975 C   0  0  1  0  0  0  0  0  0  0  0  0
  -26.3705  -29.1707   19.9583 C   0  0  1  0  0  0  0  0  0  0  0  0
  -29.8920  -28.6473   21.2601 C   0  0  2  0  0  0  0  0  0  0  0  0
  -26.0910  -30.1718   18.8020 C   0  0  0  0  0  0  0  0  0  0  0  0
  -25.7364  -11.6317   20.8036 N   0  0  0  0  0  0  0  0  0  0  0  0
  -26.1557  -12.8057   21.3056 N   0  0  0  0  0  0  0  0  0  0  0  0
  -30.6795  -15.2984   21.7282 N   0  0  0  0  0  0  0  0  0  0  0  0
  -24.6142  -28.1694   21.3855 N   0  0  0  0  0  0  0  0  0  0  0  0
  -29.4667  -14.2011   19.9799 N   0  0  0  0  0  0  0  0  0  0  0  0
  -28.6783  -17.9970   25.3254 N   0  0  0  0  0  0  0  0  0  0  0  0
  -25.9907  -14.2162   23.2014 N   0  0  0  0  0  0  0  0  0  0  0  0
  -22.8394  -12.3438   24.1803 N   0  0  0  0  0  0  0  0  0  0  0  0
  -26.7656  -18.1450   20.8905 N   0  0  0  0  0  0  0  0  0  0  0  0
  -21.3258  -29.3349   22.1326 N   0  0  0  0  0  0  0  0  0  0  0  0
  -27.6940  -29.3041   20.5574 N   0  0  0  0  0  0  0  0  0  0  0  0
  -30.4681  -27.4851   21.9938 N   0  3  0  0  0  0  0  0  0  0  0  0
  -24.6557  -11.3102   25.1243 O   0  0  0  0  0  0  0  0  0  0  0  0
  -22.1580  -28.0080   20.4094 O   0  0  0  0  0  0  0  0  0  0  0  0
  -25.2935  -19.4161   18.9514 O   0  0  0  0  0  0  0  0  0  0  0  0
  -25.2927  -30.3790   21.6917 O   0  0  0  0  0  0  0  0  0  0  0  0
  -28.3832  -27.1300   20.1382 O   0  0  0  0  0  0  0  0  0  0  0  0
  -31.7429  -14.6000   19.8098 O   0  0  0  0  0  0  0  0  0  0  0  0
  -22.4197   -6.2059   21.1379 O   0  0  0  0  0  0  0  0  0  0  0  0
  -23.8189  -22.0931   20.6076 O   0  0  0  0  0  0  0  0  0  1  0  0
  -20.3048   -3.8181   25.6356 F   0  0  0  0  0  0  0  0  0  0  0  0
  -23.2926   -3.7168   21.9657 F   0  0  0  0  0  0  0  0  0  0  0  0
  -22.7342  -19.9430   19.2336 F   0  0  0  0  0  0  0  0  0  0  0  0
  1  2  1  0  0  0  0
  1  5  2  0  0  0  0
  2  6  2  0  0  0  0
  3  8  2  0  0  0  0
  3 17  1  0  0  0  0
  4  9  1  0  0  0  0
  4 17  2  0  0  0  0
  5 19  1  0  0  0  0
  6 21  1  0  0  0  0
  7 10  2  0  0  0  0
  7 20  1  0  0  0  0
  8 27  1  0  0  0  0
  9 27  2  0  0  0  0
 10 28  1  0  0  0  0
 11 12  2  0  0  0  0
 11 29  1  0  0  0  0
 12 30  1  0  0  0  0
 13 22  1  0  0  0  0
 13 28  2  0  0  0  0
 14 24  1  0  0  0  0
 14 25  2  0  0  0  0
 15 25  1  0  0  0  0
 15 26  2  0  0  0  0
 16 30  2  0  0  0  0
 16 31  1  0  0  0  0
 17 32  1  0  0  0  0
 18 32  1  0  0  0  0
 18 33  2  0  0  0  0
 18 34  1  0  0  0  0
 19 21  2  0  0  0  0
 19 40  1  0  0  0  0
 20 22  2  0  0  0  0
 20 41  1  0  0  0  0
 21 52  1  0  0  0  0
 22 43  1  0  0  0  0
 23 24  2  0  0  0  0
 23 26  1  0  0  0  0
 23 42  1  0  0  0  0
 24 68  1  0  0  0  0
 25 74  1  0  0  0  0
 26 71  1  0  0  0  0
 27 84  1  0  0  0  0
 28 85  1  0  0  0  0
 29 31  2  0  0  0  0
 29 84  1  0  0  0  0
 30 86  1  0  0  0  0
 31 87  1  0  0  0  0
 32 66  2  0  0  0  0
 33 67  1  0  0  0  0
 33 72  1  0  0  0  0
 34 73  1  0  0  0  0
 34 78  2  0  0  0  0
 35 53  1  0  0  0  0
 35 75  1  0  0  0  0
 35 79  2  0  0  0  0
 36 60  1  0  0  0  0
 36 62  1  0  0  0  0
 36 80  2  0  0  0  0
 37 63  1  0  0  0  0
 37 69  1  0  0  0  0
 37 81  2  0  0  0  0
 38 64  1  0  0  0  0
 38 76  1  0  0  0  0
 38 82  2  0  0  0  0
 39 68  1  0  0  0  0
 39 70  1  0  0  0  0
 39 83  2  0  0  0  0
 40 44  1  0  0  0  0
 41 53  1  0  0  0  0
 42 45  1  0  0  0  0
 43 69  1  0  0  0  0
 44 47  1  0  0  0  0
 45 49  1  0  0  0  0
 46 48  1  0  0  0  0
 46 50  1  0  0  0  0
 47 52  1  0  0  0  0
 48 54  1  0  0  0  0
 49 68  1  0  0  0  0
 50 70  1  0  0  0  0
 51 54  1  0  0  0  0
 51 70  1  0  0  0  0
 52 75  1  0  0  0  0
 53 69  1  0  0  0  0
 54 67  1  0  0  0  0
 55 64  1  0  0  0  0
 56 65  1  0  0  0  0
 57 65  1  0  0  0  0
 58 65  1  0  0  0  0
 59 77  1  0  0  0  0
 60 74  1  0  0  0  0
 61 62  1  0  0  0  0
 61 85  1  0  0  0  0
 62 88  1  0  0  0  0
 63 65  1  0  0  0  0
 63 76  1  0  0  0  0
 64 77  1  0  0  0  0
 66 67  1  0  0  0  0
M  CHG  1  77   1
M  ISO  4  39 100  61 101  68 100  85 101
M  END
> <Batch ID>
0163

> <Smiles>
CNC(C)C(=O)NC(C(=O)N1Cc2cc([101O:1][101CH2:1]C(F)C(=O)CNc3cc(N)c4c(c3)[100N:0]([100C:0](=O)N3CCCC(n5nc(-c6ccc(Oc7ccc(F)cc7F)cc6)c(C(N)=O)c5N)C3)CCC4)ccc2CC1C(=O)NC1CCCc2ccccc21)C(C)(C)C

> <Shape>
0.248

> <Color>
0.120

> <Negative vol penalty>
0.000

$$$$

  -OEChem-04052303593D

 88 97  0     1  0  0  0  0  0999 V2000
  -28.1220  -33.8031   21.8226 C   0  0  0  0  0  0  0  0  0  0  0  0
  -28.0982  -32.4524   22.1549 C   0  0  0  0  0  0  0  0  0  0  0  0
  -22.8516  -11.2159   22.5075 C   0  0  0  0  0  0  0  0  0  0  0  0
  -23.4055   -9.6163   20.7837 C   0  0  0  0  0  0  0  0  0  0  0  0
  -26.9625  -34.5687   21.9381 C   0  0  0  0  0  0  0  0  0  0  0  0
  -26.9151  -31.8667   22.6040 C   0  0  0  0  0  0  0  0  0  0  0  0
  -26.0193  -27.3823   20.4286 C   0  0  0  0  0  0  0  0  0  0  0  0
  -21.9972  -10.2845   23.0974 C   0  0  0  0  0  0  0  0  0  0  0  0
  -22.5511   -8.6848   21.3736 C   0  0  0  0  0  0  0  0  0  0  0  0
  -26.7355  -26.2870   20.9094 C   0  0  0  0  0  0  0  0  0  0  0  0
  -22.6203   -6.5552   23.9967 C   0  0  0  0  0  0  0  0  0  0  0  0
  -23.0861   -5.2478   24.1356 C   0  0  0  0  0  0  0  0  0  0  0  0
  -24.8225  -25.6182   22.2180 C   0  0  0  0  0  0  0  0  0  0  0  0
  -29.6978  -18.1565   20.8005 C   0  0  0  0  0  0  0  0  0  0  0  0
  -21.2602   -4.4519   22.7683 C   0  0  0  0  0  0  0  0  0  0  0  0
  -23.5557  -10.8819   21.3506 C   0  0  0  0  0  0  0  0  0  0  0  0
  -24.0946  -13.1132   20.2378 C   0  0  0  0  0  0  0  0  0  0  0  0
  -25.7622  -33.9900   22.3797 C   0  0  0  0  0  0  0  0  0  0  0  0
  -24.7008  -27.6103   20.8480 C   0  0  0  0  0  0  0  0  0  0  0  0
  -25.7388  -32.6257   22.7268 C   0  0  0  0  0  0  0  0  0  0  0  0
  -24.0909  -26.7157   21.7391 C   0  0  0  0  0  0  0  0  0  0  0  0
  -30.1972  -19.4527   20.7404 C   0  0  0  0  0  0  0  0  0  0  0  0
  -31.5297  -19.6635   20.4040 C   0  0  0  0  0  0  0  0  0  0  0  0
  -21.8470   -9.0189   22.5305 C   0  0  0  0  0  0  0  0  0  0  0  0
  -26.1381  -25.4064   21.8064 C   0  0  0  0  0  0  0  0  0  0  0  0
  -21.4743   -6.8110   23.2436 C   0  0  0  0  0  0  0  0  0  0  0  0
  -22.4061   -4.1962   23.5214 C   0  0  0  0  0  0  0  0  0  0  0  0
  -20.7943   -5.7593   22.6294 C   0  0  0  0  0  0  0  0  0  0  0  0
  -24.4380  -11.8439   20.7405 C   0  0  0  0  0  0  0  0  0  0  0  0
  -30.5650  -17.1136   20.5175 C   0  0  0  0  0  0  0  0  0  0  0  0
  -32.3150  -18.5532   20.1389 C   0  0  0  0  0  0  0  0  0  0  0  0
  -25.2782  -13.6284   19.7686 C   0  0  0  0  0  0  0  0  0  0  0  0
  -22.8198  -13.7682   20.1986 C   0  0  0  0  0  0  0  0  0  0  0  0
  -23.2185  -29.9409   22.4211 C   0  0  0  0  0  0  0  0  0  0  0  0
  -20.5702  -28.2096   21.7063 C   0  0  0  0  0  0  0  0  0  0  0  0
  -19.6386  -24.7245   21.6491 C   0  0  0  0  0  0  0  0  0  0  0  0
  -30.7302  -14.6063   20.3369 C   0  0  0  0  0  0  0  0  0  0  0  0
  -24.5461  -34.8687   22.5335 C   0  0  0  0  0  0  0  0  0  0  0  0
  -23.9328  -28.7815   20.2995 C   0  0  0  0  0  0  0  0  0  0  0  0
  -22.6710  -26.9045   22.2047 C   0  0  0  0  0  0  0  0  0  0  0  0
  -23.2414  -34.0863   22.6600 C   0  0  0  0  0  0  0  0  0  0  0  0
  -29.7785  -11.4230   19.0572 C   0  0  0  0  0  0  0  0  0  0  0  0
  -29.3276  -21.0206   22.5263 C   0  0  0  0  0  0  0  0  0  0  0  0
  -27.8246  -20.3231   20.6086 C   0  0  0  0  0  0  0  0  0  0  0  0
  -23.3986  -32.9440   23.6586 C   0  0  0  0  0  0  0  0  0  0  0  0
  -28.2760  -11.3531   19.3397 C   0  0  0  0  0  0  0  0  0  0  0  0
  -28.4001  -22.2027   22.8208 C   0  0  0  0  0  0  0  0  0  0  0  0
  -26.9011  -21.5078   20.9038 C   0  0  0  0  0  0  0  0  0  0  0  0
  -30.5339  -12.1342   20.1785 C   0  0  0  0  0  0  0  0  0  0  0  0
  -28.5133  -13.3924   20.8135 C   0  0  0  0  0  0  0  0  0  0  0  0
  -29.2700  -20.6156   21.0441 C   0  0  0  0  0  0  0  0  0  0  0  0
  -24.4686  -31.9486   23.1941 C   0  0  1  0  0  0  0  0  0  0  0  0
  -22.7693  -29.2036   21.1914 C   0  0  1  0  0  0  0  0  0  0  0  0
  -27.7016  -12.7420   19.6813 C   0  0  2  0  0  0  0  0  0  0  0  0
  -26.9536  -21.9339   22.3795 C   0  0  0  0  0  0  0  0  0  0  0  0
  -17.9096  -23.5200   20.2863 C   0  0  0  0  0  0  0  0  0  0  0  0
  -18.7604  -28.6811   24.1172 C   0  0  0  0  0  0  0  0  0  0  0  0
  -17.7937  -26.4011   23.7495 C   0  0  0  0  0  0  0  0  0  0  0  0
  -17.5513  -28.1549   21.9922 C   0  0  0  0  0  0  0  0  0  0  0  0
  -21.6324  -22.8024   20.6054 C   0  0  0  0  0  0  0  0  0  0  0  0
  -25.0955  -20.5698   22.8376 C   0  0  0  0  0  0  0  0  0  0  0  0
  -26.0852  -23.1709   22.6162 C   0  0  0  0  0  0  0  0  0  1  0  0
  -19.8118  -27.0898   22.3769 C   0  0  1  0  0  0  0  0  0  0  0  0
  -19.3830  -23.8722   20.4191 C   0  0  2  0  0  0  0  0  0  0  0  0
  -18.5073  -27.5851   23.0628 C   0  0  0  0  0  0  0  0  0  0  0  0
  -25.7379  -11.5693   20.6033 N   0  0  0  0  0  0  0  0  0  0  0  0
  -31.8654  -17.2791   20.1871 N   0  0  0  0  0  0  0  0  0  0  0  0
  -26.2218  -12.6733   20.0090 N   0  0  0  0  0  0  0  0  0  0  0  0
  -21.9637  -28.0680   21.6448 N   0  0  0  0  0  0  0  0  0  0  0  0
  -29.9365  -13.4447   20.4441 N   0  0  0  0  0  0  0  0  0  0  0  0
  -32.0750  -20.9579   20.3307 N   0  0  0  0  0  0  0  0  0  0  0  0
  -25.5935  -14.8005   19.1778 N   0  0  0  0  0  0  0  0  0  0  0  0
  -22.0041  -13.5758   19.0752 N   0  0  0  0  0  0  0  0  0  0  0  0
  -30.0458  -15.7967   20.5804 N   0  0  0  0  0  0  0  0  0  0  0  0
  -23.9420  -31.0881   22.1564 N   0  0  0  0  0  0  0  0  0  0  0  0
  -19.5995  -26.0709   21.3545 N   0  0  0  0  0  0  0  0  0  0  0  0
  -20.1640  -22.6052   20.4955 N   0  3  0  0  0  0  0  0  0  0  0  0
  -22.4229  -14.5154   21.1247 O   0  0  0  0  0  0  0  0  0  0  0  0
  -22.9288  -29.5024   23.5281 O   0  0  0  0  0  0  0  0  0  0  0  0
  -19.9484  -29.1711   21.2473 O   0  0  0  0  0  0  0  0  0  0  0  0
  -19.8479  -24.2439   22.7607 O   0  0  0  0  0  0  0  0  0  0  0  0
  -31.9221  -14.5512   20.0236 O   0  0  0  0  0  0  0  0  0  0  0  0
  -21.0136   -8.1096   23.1059 O   0  0  0  0  0  0  0  0  0  0  0  0
  -26.8351  -24.3368   22.2778 O   0  0  0  0  0  0  0  0  0  1  0  0
  -26.4346  -20.8750   23.1896 O   0  0  0  0  0  0  0  0  0  0  0  0
  -22.8544   -2.9409   23.6537 F   0  0  0  0  0  0  0  0  0  0  0  0
  -19.6936   -5.9990   21.9036 F   0  0  0  0  0  0  0  0  0  0  0  0
  -33.6057  -18.7302   19.8120 F   0  0  0  0  0  0  0  0  0  0  0  0
  1  2  1  0  0  0  0
  1  5  2  0  0  0  0
  2  6  2  0  0  0  0
  3  8  2  0  0  0  0
  3 16  1  0  0  0  0
  4  9  1  0  0  0  0
  4 16  2  0  0  0  0
  5 18  1  0  0  0  0
  6 20  1  0  0  0  0
  7 10  2  0  0  0  0
  7 19  1  0  0  0  0
  8 24  1  0  0  0  0
  9 24  2  0  0  0  0
 10 25  1  0  0  0  0
 11 12  2  0  0  0  0
 11 26  1  0  0  0  0
 12 27  1  0  0  0  0
 13 21  1  0  0  0  0
 13 25  2  0  0  0  0
 14 22  1  0  0  0  0
 14 30  2  0  0  0  0
 15 27  2  0  0  0  0
 15 28  1  0  0  0  0
 16 29  1  0  0  0  0
 17 29  1  0  0  0  0
 17 32  2  0  0  0  0
 17 33  1  0  0  0  0
 18 20  2  0  0  0  0
 18 38  1  0  0  0  0
 19 21  2  0  0  0  0
 19 39  1  0  0  0  0
 20 52  1  0  0  0  0
 21 40  1  0  0  0  0
 22 23  2  0  0  0  0
 22 51  1  0  0  0  0
 23 31  1  0  0  0  0
 23 71  1  0  0  0  0
 24 83  1  0  0  0  0
 25 84  1  0  0  0  0
 26 28  2  0  0  0  0
 26 83  1  0  0  0  0
 27 86  1  0  0  0  0
 28 87  1  0  0  0  0
 29 66  2  0  0  0  0
 30 67  1  0  0  0  0
 30 74  1  0  0  0  0
 31 67  2  0  0  0  0
 31 88  1  0  0  0  0
 32 68  1  0  0  0  0
 32 72  1  0  0  0  0
 33 73  1  0  0  0  0
 33 78  2  0  0  0  0
 34 53  1  0  0  0  0
 34 75  1  0  0  0  0
 34 79  2  0  0  0  0
 35 63  1  0  0  0  0
 35 69  1  0  0  0  0
 35 80  2  0  0  0  0
 36 64  1  0  0  0  0
 36 76  1  0  0  0  0
 36 81  2  0  0  0  0
 37 70  1  0  0  0  0
 37 74  1  0  0  0  0
 37 82  2  0  0  0  0
 38 41  1  0  0  0  0
 39 53  1  0  0  0  0
 40 69  1  0  0  0  0
 41 45  1  0  0  0  0
 42 46  1  0  0  0  0
 42 49  1  0  0  0  0
 43 47  1  0  0  0  0
 43 51  1  0  0  0  0
 44 48  1  0  0  0  0
 44 51  1  0  0  0  0
 45 52  1  0  0  0  0
 46 54  1  0  0  0  0
 47 55  1  0  0  0  0
 48 55  1  0  0  0  0
 49 70  1  0  0  0  0
 50 54  1  0  0  0  0
 50 70  1  0  0  0  0
 52 75  1  0  0  0  0
 53 69  1  0  0  0  0
 54 68  1  0  0  0  0
 55 62  1  0  0  0  0
 55 85  1  0  0  0  0
 56 64  1  0  0  0  0
 57 65  1  0  0  0  0
 58 65  1  0  0  0  0
 59 65  1  0  0  0  0
 60 77  1  0  0  0  0
 61 85  1  0  0  0  0
 62 84  1  0  0  0  0
 63 65  1  0  0  0  0
 63 76  1  0  0  0  0
 64 77  1  0  0  0  0
 66 68  1  0  0  0  0
M  CHG  1  77   1
M  ISO  4  37 100  62 101  74 100  84 101
M  END
> <Batch ID>
0163

> <Smiles>
CNC(C)C(=O)NC(C(=O)N1Cc2cc([101O:1][101CH2:1]C3(OC)CCC(c4cc([100NH:0][100C:0](=O)N5CCCC(n6nc(-c7ccc(Oc8ccc(F)cc8F)cc7)c(C(N)=O)c6N)C5)nc(F)c4N)CC3)ccc2CC1C(=O)NC1CCCc2ccccc21)C(C)(C)C

> <Shape>
0.316

> <Color>
0.120

> <Negative vol penalty>
0.000

$$$$

  -OEChem-04052303593D

 89 97  0     1  0  0  0  0  0999 V2000
  -40.3558  -26.0566   14.6281 C   0  0  0  0  0  0  0  0  0  0  0  0
  -39.3772  -25.5136   15.4544 C   0  0  0  0  0  0  0  0  0  0  0  0
  -23.0770   -9.9165   19.9217 C   0  0  0  0  0  0  0  0  0  0  0  0
  -23.8486   -9.8852   22.2110 C   0  0  0  0  0  0  0  0  0  0  0  0
  -40.1745  -27.3231   14.0739 C   0  0  0  0  0  0  0  0  0  0  0  0
  -38.2171  -26.2373   15.7280 C   0  0  0  0  0  0  0  0  0  0  0  0
  -32.5818  -23.9855   16.5521 C   0  0  0  0  0  0  0  0  0  0  0  0
  -22.3297   -8.7626   20.1578 C   0  0  0  0  0  0  0  0  0  0  0  0
  -23.1013   -8.7313   22.4471 C   0  0  0  0  0  0  0  0  0  0  0  0
  -31.8461  -23.6958   17.7004 C   0  0  0  0  0  0  0  0  0  0  0  0
  -19.8730   -7.9372   23.0540 C   0  0  0  0  0  0  0  0  0  0  0  0
  -19.1219   -7.8823   24.2281 C   0  0  0  0  0  0  0  0  0  0  0  0
  -30.7667  -25.8475   17.5444 C   0  0  0  0  0  0  0  0  0  0  0  0
  -31.8874  -17.4893   21.7082 C   0  0  0  0  0  0  0  0  0  0  0  0
  -20.3592   -5.9289   24.9283 C   0  0  0  0  0  0  0  0  0  0  0  0
  -29.9558  -17.7964   22.8068 C   0  0  0  0  0  0  0  0  0  0  0  0
  -23.8365  -10.4778   20.9483 C   0  0  0  0  0  0  0  0  0  0  0  0
  -24.1880  -13.0031   20.8653 C   0  0  0  0  0  0  0  0  0  0  0  0
  -39.0072  -28.0586   14.3331 C   0  0  0  0  0  0  0  0  0  0  0  0
  -32.4231  -25.2149   15.8965 C   0  0  0  0  0  0  0  0  0  0  0  0
  -38.0205  -27.5153   15.1779 C   0  0  0  0  0  0  0  0  0  0  0  0
  -31.4997  -26.1494   16.3865 C   0  0  0  0  0  0  0  0  0  0  0  0
  -30.6250  -16.9233   21.9795 C   0  0  0  0  0  0  0  0  0  0  0  0
  -22.3418   -8.1700   21.4205 C   0  0  0  0  0  0  0  0  0  0  0  0
  -30.9405  -24.6280   18.1984 C   0  0  0  0  0  0  0  0  0  0  0  0
  -20.8672   -6.9879   22.8170 C   0  0  0  0  0  0  0  0  0  0  0  0
  -19.3650   -6.8782   25.1652 C   0  0  0  0  0  0  0  0  0  0  0  0
  -21.1103   -5.9838   23.7542 C   0  0  0  0  0  0  0  0  0  0  0  0
  -24.6091  -11.6694   20.7049 C   0  0  0  0  0  0  0  0  0  0  0  0
  -31.9519  -18.6909   22.3787 C   0  0  0  0  0  0  0  0  0  0  0  0
  -25.2813  -13.7537   20.5079 C   0  0  0  0  0  0  0  0  0  0  0  0
  -33.2989  -21.6809   21.4901 C   0  0  0  0  0  0  0  0  0  0  0  0
  -22.9218  -13.5175   21.2986 C   0  0  0  0  0  0  0  0  0  0  0  0
  -33.1297  -19.5977   22.3479 C   0  0  0  0  0  0  0  0  0  0  0  0
  -34.3297  -27.6746   15.2495 C   0  0  0  0  0  0  0  0  0  0  0  0
  -30.4064  -19.9793   23.8653 C   0  0  0  0  0  0  0  0  0  0  0  0
  -31.7608  -28.7219   13.5684 C   0  0  0  0  0  0  0  0  0  0  0  0
  -28.3811  -28.6529   13.0995 C   0  0  0  0  0  0  0  0  0  0  0  0
  -30.7525  -14.7748   20.6703 C   0  0  0  0  0  0  0  0  0  0  0  0
  -38.8771  -29.4433   13.7495 C   0  0  0  0  0  0  0  0  0  0  0  0
  -33.2047  -25.5013   14.6436 C   0  0  0  0  0  0  0  0  0  0  0  0
  -31.2774  -27.4755   15.7080 C   0  0  0  0  0  0  0  0  0  0  0  0
  -37.4519  -29.9888   13.7874 C   0  0  0  0  0  0  0  0  0  0  0  0
  -29.6163  -12.4019   18.2712 C   0  0  0  0  0  0  0  0  0  0  0  0
  -36.8277  -29.7564   15.1597 C   0  0  0  0  0  0  0  0  0  0  0  0
  -28.1776  -12.1095   18.7037 C   0  0  0  0  0  0  0  0  0  0  0  0
  -30.5384  -12.6086   19.4715 C   0  0  0  0  0  0  0  0  0  0  0  0
  -28.6415  -13.3195   20.8734 C   0  0  0  0  0  0  0  0  0  0  0  0
  -36.7373  -28.2592   15.4783 C   0  0  1  0  0  0  0  0  0  0  0  0
  -33.3379  -26.9925   14.3503 C   0  0  1  0  0  0  0  0  0  0  0  0
  -27.6619  -13.1681   19.6982 C   0  0  2  0  0  0  0  0  0  0  0  0
  -28.9450  -20.3072   23.9080 C   0  0  0  0  0  0  0  0  0  0  0  0
  -26.5697  -29.6431   11.6727 C   0  0  0  0  0  0  0  0  0  0  0  0
  -31.9575  -31.3329   15.1349 C   0  0  0  0  0  0  0  0  0  0  0  0
  -29.6322  -31.8777   14.3836 C   0  0  0  0  0  0  0  0  0  0  0  0
  -31.4546  -31.6120   12.7011 C   0  0  0  0  0  0  0  0  0  0  0  0
  -30.4356  -22.0530   19.9246 C   0  0  0  0  0  0  0  0  0  0  0  0
  -30.2499  -23.8525   21.6539 C   0  0  0  0  0  0  0  0  0  0  0  0
  -27.5892  -25.9979   12.0590 C   0  0  0  0  0  0  0  0  0  0  0  0
  -32.3608  -23.7002   20.2900 C   0  0  0  0  0  0  0  0  0  0  0  0
  -33.1048  -23.1731   21.5238 C   0  0  2  0  0  0  0  0  0  0  0  0
  -30.5503  -29.5676   13.8821 C   0  0  1  0  0  0  0  0  0  0  0  0
  -27.5413  -28.4860   11.8459 C   0  0  2  0  0  0  0  0  0  0  0  0
  -30.9040  -31.0734   14.0396 C   0  0  0  0  0  0  0  0  0  0  0  0
  -30.8285  -23.4868   20.2819 C   0  0  0  0  0  0  0  0  0  1  0  0
  -25.8714  -11.5749   20.2787 N   0  0  0  0  0  0  0  0  0  0  0  0
  -32.9078  -20.9468   22.4814 N   0  0  0  0  0  0  0  0  0  0  0  0
  -30.7656  -18.8899   23.0592 N   0  0  0  0  0  0  0  0  0  0  0  0
  -26.2529  -12.8588   20.1681 N   0  0  0  0  0  0  0  0  0  0  0  0
  -32.0699  -27.7115   14.4899 N   0  0  0  0  0  0  0  0  0  0  0  0
  -29.9881  -13.6282   20.3674 N   0  0  0  0  0  0  0  0  0  0  0  0
  -25.4968  -15.0852   20.4542 N   0  0  0  0  0  0  0  0  0  0  0  0
  -21.9079  -12.6073   21.6272 N   0  0  0  0  0  0  0  0  0  0  0  0
  -30.1130  -15.6898   21.5060 N   0  0  0  0  0  0  0  0  0  0  0  0
  -35.6263  -27.6583   14.7720 N   0  0  0  0  0  0  0  0  0  0  0  0
  -29.5750  -29.2894   12.8334 N   0  0  0  0  0  0  0  0  0  0  0  0
  -34.3343  -19.1591   22.2415 N   0  3  0  0  0  0  0  0  0  0  0  0
  -34.4557  -23.8105   21.5518 N   0  3  0  0  0  0  0  0  0  0  0  0
  -26.7577  -27.2202   11.9122 N   0  3  0  0  0  0  0  0  0  0  0  0
  -22.6908  -14.7480   21.3761 O   0  0  0  0  0  0  0  0  0  0  0  0
  -33.9467  -28.1797   16.2983 O   0  0  0  0  0  0  0  0  0  0  0  0
  -31.2776  -20.5852   24.4734 O   0  0  0  0  0  0  0  0  0  0  0  0
  -32.4041  -28.9449   12.5398 O   0  0  0  0  0  0  0  0  0  0  0  0
  -28.0131  -28.2614   14.2048 O   0  0  0  0  0  0  0  0  0  0  0  0
  -31.8798  -14.9461   20.1995 O   0  0  0  0  0  0  0  0  0  0  0  0
  -21.6125   -7.0442   21.6513 O   0  0  0  0  0  0  0  0  0  0  0  0
  -30.2217  -24.3481   19.3195 O   0  0  0  0  0  0  0  0  0  1  0  0
  -18.6447   -6.8265   26.2933 F   0  0  0  0  0  0  0  0  0  0  0  0
  -22.0648   -5.0697   23.5326 F   0  0  0  0  0  0  0  0  0  0  0  0
  1  2  1  0  0  0  0
  1  5  2  0  0  0  0
  2  6  2  0  0  0  0
  3  8  2  0  0  0  0
  3 17  1  0  0  0  0
  4  9  1  0  0  0  0
  4 17  2  0  0  0  0
  5 19  1  0  0  0  0
  6 21  1  0  0  0  0
  7 10  2  0  0  0  0
  7 20  1  0  0  0  0
  8 24  1  0  0  0  0
  9 24  2  0  0  0  0
 10 25  1  0  0  0  0
 11 12  2  0  0  0  0
 11 26  1  0  0  0  0
 12 27  1  0  0  0  0
 13 22  1  0  0  0  0
 13 25  2  0  0  0  0
 14 23  1  0  0  0  0
 14 30  2  0  0  0  0
 15 27  2  0  0  0  0
 15 28  1  0  0  0  0
 16 23  2  0  0  0  0
 16 68  1  0  0  0  0
 17 29  1  0  0  0  0
 18 29  1  0  0  0  0
 18 31  2  0  0  0  0
 18 33  1  0  0  0  0
 19 21  2  0  0  0  0
 19 40  1  0  0  0  0
 20 22  2  0  0  0  0
 20 41  1  0  0  0  0
 21 49  1  0  0  0  0
 22 42  1  0  0  0  0
 23 74  1  0  0  0  0
 24 86  1  0  0  0  0
 25 87  1  0  0  0  0
 26 28  2  0  0  0  0
 26 86  1  0  0  0  0
 27 88  1  0  0  0  0
 28 89  1  0  0  0  0
 29 66  2  0  0  0  0
 30 34  1  0  0  0  0
 30 68  1  0  0  0  0
 31 69  1  0  0  0  0
 31 72  1  0  0  0  0
 32 61  1  0  0  0  0
 32 67  2  0  0  0  0
 33 73  1  0  0  0  0
 33 80  2  0  0  0  0
 34 67  1  0  0  0  0
 34 77  2  0  0  0  0
 35 50  1  0  0  0  0
 35 75  1  0  0  0  0
 35 81  2  0  0  0  0
 36 52  1  0  0  0  0
 36 68  1  0  0  0  0
 36 82  2  0  0  0  0
 37 62  1  0  0  0  0
 37 70  1  0  0  0  0
 37 83  2  0  0  0  0
 38 63  1  0  0  0  0
 38 76  1  0  0  0  0
 38 84  2  0  0  0  0
 39 71  1  0  0  0  0
 39 74  1  0  0  0  0
 39 85  2  0  0  0  0
 40 43  1  0  0  0  0
 41 50  1  0  0  0  0
 42 70  1  0  0  0  0
 43 45  1  0  0  0  0
 44 46  1  0  0  0  0
 44 47  1  0  0  0  0
 45 49  1  0  0  0  0
 46 51  1  0  0  0  0
 47 71  1  0  0  0  0
 48 51  1  0  0  0  0
 48 71  1  0  0  0  0
 49 75  1  0  0  0  0
 50 70  1  0  0  0  0
 51 69  1  0  0  0  0
 53 63  1  0  0  0  0
 54 64  1  0  0  0  0
 55 64  1  0  0  0  0
 56 64  1  0  0  0  0
 57 65  1  0  0  0  0
 58 65  1  0  0  0  0
 59 79  1  0  0  0  0
 60 61  1  0  0  0  0
 60 65  1  0  0  0  0
 61 78  1  0  0  0  0
 62 64  1  0  0  0  0
 62 76  1  0  0  0  0
 63 79  1  0  0  0  0
 65 87  1  0  0  0  0
 66 69  1  0  0  0  0
M  CHG  3  77   1  78   1  79   1
M  ISO  4  39 100  65 101  74 100  87 101
M  END
> <Batch ID>
0163

> <Smiles>
CNC(C)C(=O)NC(C(=O)N1Cc2cc([101O:1][101C:1](C)(C)CC(=N)CNC(=N)c3cc([100NH:0][100C:0](=O)N4CCCC(n5nc(-c6ccc(Oc7ccc(F)cc7F)cc6)c(C(N)=O)c5N)C4)cn3C(C)=O)ccc2CC1C(=O)NC1CCCc2ccccc21)C(C)(C)C

> <Shape>
0.200

> <Color>
0.180

> <Negative vol penalty>
0.000

$$$$

  -OEChem-04052303593D

 87 96  0     1  0  0  0  0  0999 V2000
  -19.6486  -26.8623   26.3845 C   0  0  0  0  0  0  0  0  0  0  0  0
  -20.9954  -26.7253   26.0638 C   0  0  0  0  0  0  0  0  0  0  0  0
  -30.0822  -21.0183   23.8660 C   0  0  0  0  0  0  0  0  0  0  0  0
  -24.4008  -12.8029   19.8205 C   0  0  0  0  0  0  0  0  0  0  0  0
  -25.1988  -13.5067   21.9896 C   0  0  0  0  0  0  0  0  0  0  0  0
  -18.7189  -27.1365   25.3823 C   0  0  0  0  0  0  0  0  0  0  0  0
  -21.4131  -26.8614   24.7404 C   0  0  0  0  0  0  0  0  0  0  0  0
  -31.1987  -21.6675   23.3393 C   0  0  0  0  0  0  0  0  0  0  0  0
  -26.6971  -29.2541   22.7755 C   0  0  0  0  0  0  0  0  0  0  0  0
  -29.0594  -20.5914   23.0189 C   0  0  0  0  0  0  0  0  0  0  0  0
  -24.7405  -11.4844   20.1233 C   0  0  0  0  0  0  0  0  0  0  0  0
  -25.5384  -12.1881   22.2925 C   0  0  0  0  0  0  0  0  0  0  0  0
  -27.8974  -28.6718   22.3707 C   0  0  0  0  0  0  0  0  0  0  0  0
  -23.4503   -8.9308   21.9255 C   0  0  0  0  0  0  0  0  0  0  0  0
  -22.5224   -7.9356   21.6187 C   0  0  0  0  0  0  0  0  0  0  0  0
  -30.2697  -21.4632   21.1184 C   0  0  0  0  0  0  0  0  0  0  0  0
  -27.1856  -28.8183   20.0704 C   0  0  0  0  0  0  0  0  0  0  0  0
  -24.1343   -6.8827   20.1592 C   0  0  0  0  0  0  0  0  0  0  0  0
  -24.6300  -13.8141   20.7536 C   0  0  0  0  0  0  0  0  0  0  0  0
  -23.0499  -15.8156   20.6865 C   0  0  0  0  0  0  0  0  0  0  0  0
  -31.2924  -21.8900   21.9655 C   0  0  0  0  0  0  0  0  0  0  0  0
  -19.1268  -27.2857   24.0473 C   0  0  0  0  0  0  0  0  0  0  0  0
  -25.7258  -29.6135   21.8300 C   0  0  0  0  0  0  0  0  0  0  0  0
  -20.4879  -27.1366   23.7192 C   0  0  0  0  0  0  0  0  0  0  0  0
  -25.9749  -29.4074   20.4657 C   0  0  0  0  0  0  0  0  0  0  0  0
  -29.1532  -20.8139   21.6451 C   0  0  0  0  0  0  0  0  0  0  0  0
  -25.3092  -11.1769   21.3593 C   0  0  0  0  0  0  0  0  0  0  0  0
  -28.1406  -28.4511   21.0182 C   0  0  0  0  0  0  0  0  0  0  0  0
  -24.7202   -8.9020   21.3491 C   0  0  0  0  0  0  0  0  0  0  0  0
  -22.8644   -6.9115   20.7356 C   0  0  0  0  0  0  0  0  0  0  0  0
  -25.0622   -7.8779   20.4660 C   0  0  0  0  0  0  0  0  0  0  0  0
  -24.2799  -15.1764   20.4412 C   0  0  0  0  0  0  0  0  0  0  0  0
  -23.2248  -17.0915   20.2091 C   0  0  0  0  0  0  0  0  0  0  0  0
  -21.8560  -15.3021   21.2919 C   0  0  0  0  0  0  0  0  0  0  0  0
  -22.7252  -28.7379   21.2528 C   0  0  0  0  0  0  0  0  0  0  0  0
  -30.7275  -25.9266   20.7702 C   0  0  0  0  0  0  0  0  0  0  0  0
  -22.8600  -31.1283   19.0641 C   0  0  0  0  0  0  0  0  0  0  0  0
  -24.7756  -33.1020   17.0438 C   0  0  0  0  0  0  0  0  0  0  0  0
  -28.0505  -20.5212   19.3991 C   0  0  0  0  0  0  0  0  0  0  0  0
  -18.0790  -27.5350   22.9916 C   0  0  0  0  0  0  0  0  0  0  0  0
  -24.4474  -30.2652   22.2810 C   0  0  0  0  0  0  0  0  0  0  0  0
  -24.9732  -29.7938   19.4094 C   0  0  0  0  0  0  0  0  0  0  0  0
  -18.6539  -28.0356   21.6691 C   0  0  0  0  0  0  0  0  0  0  0  0
  -34.4763  -22.3322   19.8022 C   0  0  0  0  0  0  0  0  0  0  0  0
  -25.6844  -19.5549   16.9202 C   0  0  0  0  0  0  0  0  0  0  0  0
  -34.1320  -23.6675   19.1598 C   0  0  0  0  0  0  0  0  0  0  0  0
  -19.8604  -27.1968   21.2598 C   0  0  0  0  0  0  0  0  0  0  0  0
  -33.2332  -21.6782   20.3923 C   0  0  0  0  0  0  0  0  0  0  0  0
  -24.9397  -18.3845   17.5665 C   0  0  0  0  0  0  0  0  0  0  0  0
  -27.1674  -19.5552   17.2867 C   0  0  0  0  0  0  0  0  0  0  0  0
  -26.7064  -18.3284   19.3727 C   0  0  0  0  0  0  0  0  0  0  0  0
  -33.4468  -24.5956   20.1478 C   0  0  0  0  0  0  0  0  0  0  0  0
  -20.9833  -27.3018   22.2988 C   0  0  1  0  0  0  0  0  0  0  0  0
  -32.5080  -22.5968   21.3926 C   0  0  1  0  0  0  0  0  0  0  0  0
  -23.3139  -30.1202   21.2703 C   0  0  1  0  0  0  0  0  0  0  0  0
  -25.1962  -18.3230   19.0850 C   0  0  2  0  0  0  0  0  0  0  0  0
  -24.5989  -34.9382   15.3424 C   0  0  0  0  0  0  0  0  0  0  0  0
  -21.9237  -29.1048   16.9811 C   0  0  0  0  0  0  0  0  0  0  0  0
  -22.6705  -30.6976   15.1997 C   0  0  0  0  0  0  0  0  0  0  0  0
  -20.8675  -31.3636   16.7897 C   0  0  0  0  0  0  0  0  0  0  0  0
  -26.3688  -34.9577   18.7104 C   0  0  0  0  0  0  0  0  0  0  0  0
  -31.4607  -24.9024   21.5956 C   0  0  0  0  0  0  0  0  0  0  0  0
  -29.9309  -26.9703   21.5262 C   0  0  0  0  0  0  0  0  0  1  0  0
  -23.2549  -31.2257   17.6103 C   0  0  1  0  0  0  0  0  0  0  0  0
  -24.7820  -34.6026   16.8144 C   0  0  2  0  0  0  0  0  0  0  0  0
  -22.1974  -30.5887   16.6650 C   0  0  0  0  0  0  0  0  0  0  0  0
  -25.1704  -15.9798   19.8534 N   0  0  0  0  0  0  0  0  0  0  0  0
  -24.4993  -17.1371   19.7254 N   0  0  0  0  0  0  0  0  0  0  0  0
  -23.7357  -30.4221   19.9009 N   0  0  0  0  0  0  0  0  0  0  0  0
  -27.3331  -19.5000   18.7408 N   0  0  0  0  0  0  0  0  0  0  0  0
  -22.4113  -18.1677   20.1600 N   0  0  0  0  0  0  0  0  0  0  0  0
  -21.8472  -13.9697   21.7266 N   0  0  0  0  0  0  0  0  0  0  0  0
  -28.1144  -20.3796   20.7849 N   0  0  0  0  0  0  0  0  0  0  0  0
  -21.6921  -28.5550   22.1521 N   0  0  0  0  0  0  0  0  0  0  0  0
  -23.5142  -32.6378   17.3514 N   0  0  0  0  0  0  0  0  0  0  0  0
  -32.2010  -23.9343   20.7025 N   0  3  1  0  0  0  0  0  0  0  0  0
  -26.0718  -35.1914   17.2737 N   0  3  0  0  0  0  0  0  0  0  0  0
  -20.8220  -15.9991   21.4279 O   0  0  0  0  0  0  0  0  0  0  0  0
  -23.1739  -27.8998   20.4795 O   0  0  0  0  0  0  0  0  0  0  0  0
  -30.7635  -25.8936   19.5403 O   0  0  0  0  0  0  0  0  0  0  0  0
  -21.8168  -31.6653   19.4446 O   0  0  0  0  0  0  0  0  0  0  0  0
  -25.7876  -32.4103   16.9551 O   0  0  0  0  0  0  0  0  0  0  0  0
  -28.5466  -21.4672   18.7819 O   0  0  0  0  0  0  0  0  0  0  0  0
  -25.6406   -9.8904   21.6553 O   0  0  0  0  0  0  0  0  0  0  0  0
  -29.3111  -27.8823   20.6203 O   0  0  0  0  0  0  0  0  0  1  0  0
  -21.9738   -5.9550   20.4423 F   0  0  0  0  0  0  0  0  0  0  0  0
  -26.2811   -7.8443   19.9100 F   0  0  0  0  0  0  0  0  0  0  0  0
  1  2  1  0  0  0  0
  1  6  2  0  0  0  0
  2  7  2  0  0  0  0
  3  8  2  0  0  0  0
  3 10  1  0  0  0  0
  4 11  2  0  0  0  0
  4 19  1  0  0  0  0
  5 12  1  0  0  0  0
  5 19  2  0  0  0  0
  6 22  1  0  0  0  0
  7 24  1  0  0  0  0
  8 21  1  0  0  0  0
  9 13  2  0  0  0  0
  9 23  1  0  0  0  0
 10 26  2  0  0  0  0
 11 27  1  0  0  0  0
 12 27  2  0  0  0  0
 13 28  1  0  0  0  0
 14 15  2  0  0  0  0
 14 29  1  0  0  0  0
 15 30  1  0  0  0  0
 16 21  2  0  0  0  0
 16 26  1  0  0  0  0
 17 25  1  0  0  0  0
 17 28  2  0  0  0  0
 18 30  2  0  0  0  0
 18 31  1  0  0  0  0
 19 32  1  0  0  0  0
 20 32  1  0  0  0  0
 20 33  2  0  0  0  0
 20 34  1  0  0  0  0
 21 54  1  0  0  0  0
 22 24  2  0  0  0  0
 22 40  1  0  0  0  0
 23 25  2  0  0  0  0
 23 41  1  0  0  0  0
 24 53  1  0  0  0  0
 25 42  1  0  0  0  0
 26 73  1  0  0  0  0
 27 84  1  0  0  0  0
 28 85  1  0  0  0  0
 29 31  2  0  0  0  0
 29 84  1  0  0  0  0
 30 86  1  0  0  0  0
 31 87  1  0  0  0  0
 32 67  2  0  0  0  0
 33 68  1  0  0  0  0
 33 71  1  0  0  0  0
 34 72  1  0  0  0  0
 34 78  2  0  0  0  0
 35 55  1  0  0  0  0
 35 74  1  0  0  0  0
 35 79  2  0  0  0  0
 36 62  1  0  0  0  0
 36 63  1  0  0  0  0
 36 80  2  0  0  0  0
 37 64  1  0  0  0  0
 37 69  1  0  0  0  0
 37 81  2  0  0  0  0
 38 65  1  0  0  0  0
 38 75  1  0  0  0  0
 38 82  2  0  0  0  0
 39 70  1  0  0  0  0
 39 73  1  0  0  0  0
 39 83  2  0  0  0  0
 40 43  1  0  0  0  0
 41 55  1  0  0  0  0
 42 69  1  0  0  0  0
 43 47  1  0  0  0  0
 44 46  1  0  0  0  0
 44 48  1  0  0  0  0
 45 49  1  0  0  0  0
 45 50  1  0  0  0  0
 46 52  1  0  0  0  0
 47 53  1  0  0  0  0
 48 54  1  0  0  0  0
 49 56  1  0  0  0  0
 50 70  1  0  0  0  0
 51 56  1  0  0  0  0
 51 70  1  0  0  0  0
 52 76  1  0  0  0  0
 53 74  1  0  0  0  0
 54 76  1  0  0  0  0
 55 69  1  0  0  0  0
 56 68  1  0  0  0  0
 57 65  1  0  0  0  0
 58 66  1  0  0  0  0
 59 66  1  0  0  0  0
 60 66  1  0  0  0  0
 61 77  1  0  0  0  0
 62 76  1  0  0  0  0
 63 85  1  0  0  0  0
 64 66  1  0  0  0  0
 64 75  1  0  0  0  0
 65 77  1  0  0  0  0
 67 68  1  0  0  0  0
M  CHG  2  76   1  77   1
M  ISO  4  39 100  63 101  73 100  85 101
M  END
> <Batch ID>
0163

> <Smiles>
CNC(C)C(=O)NC(C(=O)N1Cc2cc([101O:1][101CH2:1]C(=O)CN3CCCCC3c3cccc([100NH:0][100C:0](=O)N4CCCC(n5nc(-c6ccc(Oc7ccc(F)cc7F)cc6)c(C(N)=O)c5N)C4)c3)ccc2CC1C(=O)NC1CCCc2ccccc21)C(C)(C)C

> <Shape>
0.219

> <Color>
0.090

> <Negative vol penalty>
0.000

$$$$

  -OEChem-04052303593D

 85 93  0     1  0  0  0  0  0999 V2000
  -28.4513  -26.6164   13.0286 C   0  0  0  0  0  0  0  0  0  0  0  0
  -27.5193  -26.1803   13.9648 C   0  0  0  0  0  0  0  0  0  0  0  0
  -27.6004  -12.1750   23.1487 C   0  0  0  0  0  0  0  0  0  0  0  0
  -26.3413  -12.8537   21.2017 C   0  0  0  0  0  0  0  0  0  0  0  0
  -25.6711  -21.3164   17.7780 C   0  0  0  0  0  0  0  0  0  0  0  0
  -29.7046  -27.0597   13.4487 C   0  0  0  0  0  0  0  0  0  0  0  0
  -27.8405  -26.1861   15.3217 C   0  0  0  0  0  0  0  0  0  0  0  0
  -24.1081  -28.0476   18.1938 C   0  0  0  0  0  0  0  0  0  0  0  0
  -26.6008  -20.4868   18.4050 C   0  0  0  0  0  0  0  0  0  0  0  0
  -26.5514  -11.3416   23.5368 C   0  0  0  0  0  0  0  0  0  0  0  0
  -25.2922  -12.0203   21.5897 C   0  0  0  0  0  0  0  0  0  0  0  0
  -23.0293  -27.2056   18.4602 C   0  0  0  0  0  0  0  0  0  0  0  0
  -22.4291   -9.7980   21.8768 C   0  0  0  0  0  0  0  0  0  0  0  0
  -21.8371   -9.0005   20.8974 C   0  0  0  0  0  0  0  0  0  0  0  0
  -23.9564  -26.7151   20.6326 C   0  0  0  0  0  0  0  0  0  0  0  0
  -27.0675  -22.2265   20.0151 C   0  0  0  0  0  0  0  0  0  0  0  0
  -23.9617   -7.9250   20.4890 C   0  0  0  0  0  0  0  0  0  0  0  0
  -27.4954  -12.9310   21.9812 C   0  0  0  0  0  0  0  0  0  0  0  0
  -25.4397  -22.6012   18.2695 C   0  0  0  0  0  0  0  0  0  0  0  0
  -29.6706  -13.4582   20.7572 C   0  0  0  0  0  0  0  0  0  0  0  0
  -30.0379  -27.0801   14.8122 C   0  0  0  0  0  0  0  0  0  0  0  0
  -25.1264  -28.2215   19.1421 C   0  0  0  0  0  0  0  0  0  0  0  0
  -29.1000  -26.6288   15.7604 C   0  0  0  0  0  0  0  0  0  0  0  0
  -25.0457  -27.5619   20.3768 C   0  0  0  0  0  0  0  0  0  0  0  0
  -27.2989  -20.9418   19.5235 C   0  0  0  0  0  0  0  0  0  0  0  0
  -25.3972  -11.2642   22.7572 C   0  0  0  0  0  0  0  0  0  0  0  0
  -22.9547  -26.5370   19.6786 C   0  0  0  0  0  0  0  0  0  0  0  0
  -23.7874   -9.6591   22.1622 C   0  0  0  0  0  0  0  0  0  0  0  0
  -22.6034   -8.0640   20.2035 C   0  0  0  0  0  0  0  0  0  0  0  0
  -26.1379  -23.0562   19.3881 C   0  0  0  0  0  0  0  0  0  0  0  0
  -24.5536   -8.7226   21.4684 C   0  0  0  0  0  0  0  0  0  0  0  0
  -28.5785  -13.7925   21.5802 C   0  0  0  0  0  0  0  0  0  0  0  0
  -30.4095  -14.6135   20.6810 C   0  0  0  0  0  0  0  0  0  0  0  0
  -24.4553  -23.4773   17.6032 C   0  0  0  0  0  0  0  0  0  0  0  0
  -29.9886  -12.2145   20.1185 C   0  0  0  0  0  0  0  0  0  0  0  0
  -28.2499  -27.6361   19.2123 C   0  0  0  0  0  0  0  0  0  0  0  0
  -28.0778  -29.1683   22.0662 C   0  0  0  0  0  0  0  0  0  0  0  0
  -26.1748  -30.1144   24.7365 C   0  0  0  0  0  0  0  0  0  0  0  0
  -29.0206  -20.3943   21.2792 C   0  0  0  0  0  0  0  0  0  0  0  0
  -31.4222  -27.5235   15.2146 C   0  0  0  0  0  0  0  0  0  0  0  0
  -26.2698  -29.1540   18.8499 C   0  0  0  0  0  0  0  0  0  0  0  0
  -26.1027  -27.7304   21.4364 C   0  0  0  0  0  0  0  0  0  0  0  0
  -31.5492  -27.8506   16.7003 C   0  0  0  0  0  0  0  0  0  0  0  0
  -31.4301  -18.5767   23.1680 C   0  0  0  0  0  0  0  0  0  0  0  0
  -30.9014  -26.7579   17.5448 C   0  0  0  0  0  0  0  0  0  0  0  0
  -31.0755  -17.1131   22.8954 C   0  0  0  0  0  0  0  0  0  0  0  0
  -30.1832  -19.4540   23.2639 C   0  0  0  0  0  0  0  0  0  0  0  0
  -28.9089  -17.8891   21.8510 C   0  0  0  0  0  0  0  0  0  0  0  0
  -29.4022  -26.6435   17.2431 C   0  0  1  0  0  0  0  0  0  0  0  0
  -27.5117  -28.8566   19.6847 C   0  0  1  0  0  0  0  0  0  0  0  0
  -30.1354  -16.9777   21.6816 C   0  0  2  0  0  0  0  0  0  0  0  0
  -26.3218  -31.3241   26.9303 C   0  0  0  0  0  0  0  0  0  0  0  0
  -29.4467  -26.7416   23.3100 C   0  0  0  0  0  0  0  0  0  0  0  0
  -28.7165  -27.5688   25.5574 C   0  0  0  0  0  0  0  0  0  0  0  0
  -30.2579  -28.9481   24.1631 C   0  0  0  0  0  0  0  0  0  0  0  0
  -20.1836  -25.9643   18.3023 C   0  0  0  0  0  0  0  0  0  0  0  0
  -20.7062  -23.7366   19.3240 C   0  0  0  0  0  0  0  0  0  0  0  0
  -24.2190  -32.1602   23.8716 C   0  0  0  0  0  0  0  0  0  0  0  0
  -22.3679  -24.7862   17.7650 C   0  0  0  0  0  0  0  0  0  0  0  0
  -27.8284  -28.7449   23.4936 C   0  0  1  0  0  0  0  0  0  0  0  0
  -26.0247  -31.4490   25.4440 C   0  0  2  0  0  0  0  0  0  0  0  0
  -29.0433  -27.9960   24.1105 C   0  0  0  0  0  0  0  0  0  0  0  0
  -21.2981  -25.0582   18.8273 C   0  0  0  0  0  0  0  0  0  1  0  0
  -28.6164  -15.0609   21.9972 N   0  0  0  0  0  0  0  0  0  0  0  0
  -29.7413  -15.5336   21.4340 N   0  0  0  0  0  0  0  0  0  0  0  0
  -27.2040  -28.6480   21.1010 N   0  0  0  0  0  0  0  0  0  0  0  0
  -29.3427  -19.2766   22.0778 N   0  0  0  0  0  0  0  0  0  0  0  0
  -31.5591  -14.9218   20.0441 N   0  0  0  0  0  0  0  0  0  0  0  0
  -24.6575  -23.7896   16.3232 N   0  0  0  0  0  0  0  0  0  0  0  0
  -29.1217  -11.1286   20.3016 N   0  0  0  0  0  0  0  0  0  0  0  0
  -28.2430  -20.0985   20.1601 N   0  0  0  0  0  0  0  0  0  0  0  0
  -28.6721  -27.7074   17.8985 N   0  0  0  0  0  0  0  0  0  0  0  0
  -27.4412  -29.9520   24.2157 N   0  0  0  0  0  0  0  0  0  0  0  0
  -23.4118  -23.9159   18.3158 N   0  3  0  0  0  0  0  0  0  0  0  0
  -24.6363  -31.9667   25.2842 N   0  3  0  0  0  0  0  0  0  0  0  0
  -31.0199  -12.0658   19.4200 O   0  0  0  0  0  0  0  0  0  0  0  0
  -28.4248  -26.6997   19.9832 O   0  0  0  0  0  0  0  0  0  0  0  0
  -29.0090  -29.9382   21.8177 O   0  0  0  0  0  0  0  0  0  0  0  0
  -25.2613  -29.2960   24.6573 O   0  0  0  0  0  0  0  0  0  0  0  0
  -29.4289  -21.5261   21.5519 O   0  0  0  0  0  0  0  0  0  0  0  0
  -24.3734  -10.4510   23.1354 O   0  0  0  0  0  0  0  0  0  0  0  0
  -21.9032  -25.7141   19.9409 O   0  0  0  0  0  0  0  0  0  1  0  0
  -22.0345   -7.2972   19.2641 F   0  0  0  0  0  0  0  0  0  0  0  0
  -25.9237  -24.2898   19.8666 F   0  0  0  0  0  0  0  0  0  0  0  0
  -25.8587   -8.5837   21.7391 F   0  0  0  0  0  0  0  0  0  0  0  0
  1  2  1  0  0  0  0
  1  6  2  0  0  0  0
  2  7  2  0  0  0  0
  3 10  2  0  0  0  0
  3 18  1  0  0  0  0
  4 11  1  0  0  0  0
  4 18  2  0  0  0  0
  5  9  2  0  0  0  0
  5 19  1  0  0  0  0
  6 21  1  0  0  0  0
  7 23  1  0  0  0  0
  8 12  2  0  0  0  0
  8 22  1  0  0  0  0
  9 25  1  0  0  0  0
 10 26  1  0  0  0  0
 11 26  2  0  0  0  0
 12 27  1  0  0  0  0
 13 14  2  0  0  0  0
 13 28  1  0  0  0  0
 14 29  1  0  0  0  0
 15 24  1  0  0  0  0
 15 27  2  0  0  0  0
 16 25  2  0  0  0  0
 16 30  1  0  0  0  0
 17 29  2  0  0  0  0
 17 31  1  0  0  0  0
 18 32  1  0  0  0  0
 19 30  2  0  0  0  0
 19 34  1  0  0  0  0
 20 32  1  0  0  0  0
 20 33  2  0  0  0  0
 20 35  1  0  0  0  0
 21 23  2  0  0  0  0
 21 40  1  0  0  0  0
 22 24  2  0  0  0  0
 22 41  1  0  0  0  0
 23 49  1  0  0  0  0
 24 42  1  0  0  0  0
 25 71  1  0  0  0  0
 26 81  1  0  0  0  0
 27 82  1  0  0  0  0
 28 31  2  0  0  0  0
 28 81  1  0  0  0  0
 29 83  1  0  0  0  0
 30 84  1  0  0  0  0
 31 85  1  0  0  0  0
 32 64  2  0  0  0  0
 33 65  1  0  0  0  0
 33 68  1  0  0  0  0
 34 69  1  0  0  0  0
 34 74  2  0  0  0  0
 35 70  1  0  0  0  0
 35 76  2  0  0  0  0
 36 50  1  0  0  0  0
 36 72  1  0  0  0  0
 36 77  2  0  0  0  0
 37 60  1  0  0  0  0
 37 66  1  0  0  0  0
 37 78  2  0  0  0  0
 38 61  1  0  0  0  0
 38 73  1  0  0  0  0
 38 79  2  0  0  0  0
 39 67  1  0  0  0  0
 39 71  1  0  0  0  0
 39 80  2  0  0  0  0
 40 43  1  0  0  0  0
 41 50  1  0  0  0  0
 42 66  1  0  0  0  0
 43 45  1  0  0  0  0
 44 46  1  0  0  0  0
 44 47  1  0  0  0  0
 45 49  1  0  0  0  0
 46 51  1  0  0  0  0
 47 67  1  0  0  0  0
 48 51  1  0  0  0  0
 48 67  1  0  0  0  0
 49 72  1  0  0  0  0
 50 66  1  0  0  0  0
 51 65  1  0  0  0  0
 52 61  1  0  0  0  0
 53 62  1  0  0  0  0
 54 62  1  0  0  0  0
 55 62  1  0  0  0  0
 56 63  1  0  0  0  0
 57 63  1  0  0  0  0
 58 75  1  0  0  0  0
 59 63  1  0  0  0  0
 59 74  1  0  0  0  0
 60 62  1  0  0  0  0
 60 73  1  0  0  0  0
 61 75  1  0  0  0  0
 63 82  1  0  0  0  0
 64 65  1  0  0  0  0
M  CHG  2  74   1  75   1
M  ISO  4  39 100  63 101  71 100  82 101
M  END
> <Batch ID>
0163

> <Smiles>
CNC(C)C(=O)NC(C(=O)N1Cc2cc([101O:1][101C:1](C)(C)CNC(=N)c3ccc([100NH:0][100C:0](=O)N4CCCC(n5nc(-c6ccc(Oc7ccc(F)cc7F)cc6)c(C(N)=O)c5N)C4)cc3F)ccc2CC1C(=O)NC1CCCc2ccccc21)C(C)(C)C

> <Shape>
0.227

> <Color>
0.070

> <Negative vol penalty>
0.000

$$$$

  -OEChem-04052303593D

 86 94  0     1  0  0  0  0  0999 V2000
  -28.6187  -37.4816   21.7874 C   0  0  0  0  0  0  0  0  0  0  0  0
  -28.9796  -36.1972   21.3933 C   0  0  0  0  0  0  0  0  0  0  0  0
  -24.5414   -8.5359   21.4128 C   0  0  0  0  0  0  0  0  0  0  0  0
  -23.1553  -10.3496   20.6213 C   0  0  0  0  0  0  0  0  0  0  0  0
  -25.9137  -18.7837   18.3719 C   0  0  0  0  0  0  0  0  0  0  0  0
  -27.6356  -37.6608   22.7597 C   0  0  0  0  0  0  0  0  0  0  0  0
  -28.3584  -35.0910   21.9720 C   0  0  0  0  0  0  0  0  0  0  0  0
  -27.0159  -29.7758   19.2423 C   0  0  0  0  0  0  0  0  0  0  0  0
  -26.3524  -17.4613   18.3055 C   0  0  0  0  0  0  0  0  0  0  0  0
  -23.5621   -8.1946   22.3456 C   0  0  0  0  0  0  0  0  0  0  0  0
  -22.1760  -10.0082   21.5541 C   0  0  0  0  0  0  0  0  0  0  0  0
  -27.6608  -28.5398   19.2274 C   0  0  0  0  0  0  0  0  0  0  0  0
  -20.6104   -6.5454   22.3681 C   0  0  0  0  0  0  0  0  0  0  0  0
  -20.2864   -5.1955   22.5033 C   0  0  0  0  0  0  0  0  0  0  0  0
  -26.2270  -27.7771   21.0112 C   0  0  0  0  0  0  0  0  0  0  0  0
  -28.4449  -18.1042   19.3278 C   0  0  0  0  0  0  0  0  0  0  0  0
  -20.9476   -5.2694   24.8259 C   0  0  0  0  0  0  0  0  0  0  0  0
  -24.3380   -9.6135   20.5507 C   0  0  0  0  0  0  0  0  0  0  0  0
  -26.7406  -19.7664   18.9162 C   0  0  0  0  0  0  0  0  0  0  0  0
  -25.4732   -9.4869   18.2697 C   0  0  0  0  0  0  0  0  0  0  0  0
  -26.9951  -36.5565   23.3437 C   0  0  0  0  0  0  0  0  0  0  0  0
  -25.9772  -30.0258   20.1506 C   0  0  0  0  0  0  0  0  0  0  0  0
  -27.3667  -35.2556   22.9540 C   0  0  0  0  0  0  0  0  0  0  0  0
  -25.5689  -29.0162   21.0338 C   0  0  0  0  0  0  0  0  0  0  0  0
  -27.6180  -17.1215   18.7835 C   0  0  0  0  0  0  0  0  0  0  0  0
  -22.3794   -8.9307   22.4163 C   0  0  0  0  0  0  0  0  0  0  0  0
  -27.2683  -27.5412   20.1139 C   0  0  0  0  0  0  0  0  0  0  0  0
  -21.1031   -7.2574   23.4618 C   0  0  0  0  0  0  0  0  0  0  0  0
  -20.4550   -4.5575   23.7322 C   0  0  0  0  0  0  0  0  0  0  0  0
  -28.0062  -19.4266   19.3941 C   0  0  0  0  0  0  0  0  0  0  0  0
  -21.2717   -6.6194   24.6907 C   0  0  0  0  0  0  0  0  0  0  0  0
  -25.3494   -9.9670   19.5873 C   0  0  0  0  0  0  0  0  0  0  0  0
  -26.5859  -10.1228   17.7757 C   0  0  0  0  0  0  0  0  0  0  0  0
  -26.2660  -21.1867   18.9828 C   0  0  0  0  0  0  0  0  0  0  0  0
  -24.6555   -8.5500   17.5561 C   0  0  0  0  0  0  0  0  0  0  0  0
  -25.5303  -32.0764   22.5379 C   0  0  0  0  0  0  0  0  0  0  0  0
  -22.5487  -30.7989   22.5601 C   0  0  0  0  0  0  0  0  0  0  0  0
  -20.5224  -28.1586   21.8053 C   0  0  0  0  0  0  0  0  0  0  0  0
  -29.2900  -15.2723   19.1452 C   0  0  0  0  0  0  0  0  0  0  0  0
  -25.9718  -36.7989   24.4248 C   0  0  0  0  0  0  0  0  0  0  0  0
  -25.2739  -31.3553   20.1358 C   0  0  0  0  0  0  0  0  0  0  0  0
  -24.4457  -29.2274   22.0149 C   0  0  0  0  0  0  0  0  0  0  0  0
  -25.0967  -35.5832   24.7188 C   0  0  0  0  0  0  0  0  0  0  0  0
  -30.7483  -12.0244   19.1872 C   0  0  0  0  0  0  0  0  0  0  0  0
  -25.9532  -34.3275   24.8478 C   0  0  0  0  0  0  0  0  0  0  0  0
  -29.5407  -11.0845   19.1685 C   0  0  0  0  0  0  0  0  0  0  0  0
  -30.4806  -13.2752   20.0223 C   0  0  0  0  0  0  0  0  0  0  0  0
  -28.0546  -13.0723   19.6448 C   0  0  0  0  0  0  0  0  0  0  0  0
  -26.6982  -34.0312   23.5406 C   0  0  1  0  0  0  0  0  0  0  0  0
  -24.5723  -31.6748   21.4523 C   0  0  1  0  0  0  0  0  0  0  0  0
  -28.2535  -11.8288   18.7629 C   0  0  2  0  0  0  0  0  0  0  0  0
  -18.1389  -27.3924   21.9773 C   0  0  0  0  0  0  0  0  0  0  0  0
  -22.9444  -30.2433   25.5341 C   0  0  0  0  0  0  0  0  0  0  0  0
  -20.9989  -28.6711   25.4280 C   0  0  0  0  0  0  0  0  0  0  0  0
  -20.6724  -31.0924   24.9247 C   0  0  0  0  0  0  0  0  0  0  0  0
  -20.2618  -27.9308   18.8661 C   0  0  0  0  0  0  0  0  0  0  0  0
  -28.4293  -25.8915   18.8544 C   0  0  0  0  0  0  0  0  0  1  0  0
  -28.4534  -24.3766   18.8256 C   0  0  0  0  0  0  0  0  0  0  0  0
  -21.8902  -29.6331   23.2576 C   0  0  1  0  0  0  0  0  0  0  0  0
  -19.1750  -28.0896   21.1094 C   0  0  2  0  0  0  0  0  0  0  0  0
  -21.6490  -29.9063   24.7690 C   0  0  0  0  0  0  0  0  0  0  0  0
  -26.3071  -10.8403   19.9099 N   0  0  0  0  0  0  0  0  0  0  0  0
  -27.1877  -22.1055   18.9091 N   0  0  0  0  0  0  0  0  0  0  0  0
  -27.0433  -10.9140   18.7881 N   0  0  0  0  0  0  0  0  0  0  0  0
  -23.7934  -30.5463   21.9660 N   0  0  0  0  0  0  0  0  0  0  0  0
  -29.2481  -13.9302   19.5786 N   0  0  0  0  0  0  0  0  0  0  0  0
  -27.2079  -10.0766   16.5784 N   0  0  0  0  0  0  0  0  0  0  0  0
  -24.9106  -21.4026   19.1192 N   0  0  0  0  0  0  0  0  0  0  0  0
  -23.5507   -7.9914   18.2132 N   0  0  0  0  0  0  0  0  0  0  0  0
  -28.0634  -15.7781   18.7160 N   0  0  0  0  0  0  0  0  0  0  0  0
  -25.8040  -33.4303   22.5743 N   0  0  0  0  0  0  0  0  0  0  0  0
  -20.6772  -29.3380   22.5026 N   0  0  0  0  0  0  0  0  0  0  0  0
  -19.2927  -27.3417   19.8257 N   0  3  0  0  0  0  0  0  0  0  0  0
  -24.9069   -8.2055   16.3764 O   0  0  0  0  0  0  0  0  0  0  0  0
  -25.9862  -31.2213   23.2881 O   0  0  0  0  0  0  0  0  0  0  0  0
  -21.9764  -31.8914   22.5368 O   0  0  0  0  0  0  0  0  0  0  0  0
  -21.3528  -27.2549   21.7402 O   0  0  0  0  0  0  0  0  0  0  0  0
  -30.3421  -15.9163   19.1285 O   0  0  0  0  0  0  0  0  0  0  0  0
  -26.0922  -24.0881   17.7834 O   0  0  0  0  0  0  0  0  0  0  0  0
  -26.3371  -24.0443   20.2932 O   0  0  0  0  0  0  0  0  0  0  0  0
  -21.4235   -8.5977   23.3262 O   0  0  0  0  0  0  0  0  0  0  0  0
  -27.8965  -26.3341   20.1020 O   0  0  0  0  0  0  0  0  0  1  0  0
  -20.1424   -3.2615   23.8623 F   0  0  0  0  0  0  0  0  0  0  0  0
  -28.8097  -20.3629   19.9189 F   0  0  0  0  0  0  0  0  0  0  0  0
  -21.7435   -7.2984   25.7453 F   0  0  0  0  0  0  0  0  0  0  0  0
  -26.8306  -23.6938   18.9717 S   0  0  0  0  0  0  0  0  0  0  0  0
  1  2  1  0  0  0  0
  1  6  2  0  0  0  0
  2  7  2  0  0  0  0
  3 10  2  0  0  0  0
  3 18  1  0  0  0  0
  4 11  1  0  0  0  0
  4 18  2  0  0  0  0
  5  9  2  0  0  0  0
  5 19  1  0  0  0  0
  6 21  1  0  0  0  0
  7 23  1  0  0  0  0
  8 12  2  0  0  0  0
  8 22  1  0  0  0  0
  9 25  1  0  0  0  0
 10 26  1  0  0  0  0
 11 26  2  0  0  0  0
 12 27  1  0  0  0  0
 13 14  2  0  0  0  0
 13 28  1  0  0  0  0
 14 29  1  0  0  0  0
 15 24  1  0  0  0  0
 15 27  2  0  0  0  0
 16 25  2  0  0  0  0
 16 30  1  0  0  0  0
 17 29  2  0  0  0  0
 17 31  1  0  0  0  0
 18 32  1  0  0  0  0
 19 30  2  0  0  0  0
 19 34  1  0  0  0  0
 20 32  1  0  0  0  0
 20 33  2  0  0  0  0
 20 35  1  0  0  0  0
 21 23  2  0  0  0  0
 21 40  1  0  0  0  0
 22 24  2  0  0  0  0
 22 41  1  0  0  0  0
 23 49  1  0  0  0  0
 24 42  1  0  0  0  0
 25 70  1  0  0  0  0
 26 81  1  0  0  0  0
 27 82  1  0  0  0  0
 28 31  2  0  0  0  0
 28 81  1  0  0  0  0
 29 83  1  0  0  0  0
 30 84  1  0  0  0  0
 31 85  1  0  0  0  0
 32 62  2  0  0  0  0
 33 64  1  0  0  0  0
 33 67  1  0  0  0  0
 34 63  2  0  0  0  0
 34 68  1  0  0  0  0
 35 69  1  0  0  0  0
 35 74  2  0  0  0  0
 36 50  1  0  0  0  0
 36 71  1  0  0  0  0
 36 75  2  0  0  0  0
 37 59  1  0  0  0  0
 37 65  1  0  0  0  0
 37 76  2  0  0  0  0
 38 60  1  0  0  0  0
 38 72  1  0  0  0  0
 38 77  2  0  0  0  0
 39 66  1  0  0  0  0
 39 70  1  0  0  0  0
 39 78  2  0  0  0  0
 40 43  1  0  0  0  0
 41 50  1  0  0  0  0
 42 65  1  0  0  0  0
 43 45  1  0  0  0  0
 44 46  1  0  0  0  0
 44 47  1  0  0  0  0
 45 49  1  0  0  0  0
 46 51  1  0  0  0  0
 47 66  1  0  0  0  0
 48 51  1  0  0  0  0
 48 66  1  0  0  0  0
 49 71  1  0  0  0  0
 50 65  1  0  0  0  0
 51 64  1  0  0  0  0
 52 60  1  0  0  0  0
 53 61  1  0  0  0  0
 54 61  1  0  0  0  0
 55 61  1  0  0  0  0
 56 73  1  0  0  0  0
 57 58  1  0  0  0  0
 57 82  1  0  0  0  0
 58 86  1  0  0  0  0
 59 61  1  0  0  0  0
 59 72  1  0  0  0  0
 60 73  1  0  0  0  0
 62 64  1  0  0  0  0
 63 86  1  0  0  0  0
 79 86  2  0  0  0  0
 80 86  2  0  0  0  0
M  CHG  1  73   1
M  ISO  4  39 100  57 101  70 100  82 101
M  END
> <Batch ID>
0163

> <Smiles>
CNC(C)C(=O)NC(C(=O)N1Cc2cc([101O:1][101CH2:1]CS(=O)(=O)NC(=N)c3ccc([100NH:0][100C:0](=O)N4CCCC(n5nc(-c6ccc(Oc7ccc(F)cc7F)cc6)c(C(N)=O)c5N)C4)cc3F)ccc2CC1C(=O)NC1CCCc2ccccc21)C(C)(C)C

> <Shape>
0.302

> <Color>
0.095

> <Negative vol penalty>
0.000

$$$$

  -OEChem-04052303593D

 84 92  0     1  0  0  0  0  0999 V2000
  -36.1068  -14.1820   21.7796 C   0  0  0  0  0  0  0  0  0  0  0  0
  -35.4497  -15.2590   21.1934 C   0  0  0  0  0  0  0  0  0  0  0  0
  -23.0612   -9.8799   19.9397 C   0  0  0  0  0  0  0  0  0  0  0  0
  -23.7938   -9.9001   22.2418 C   0  0  0  0  0  0  0  0  0  0  0  0
  -36.2953  -14.1498   23.1607 C   0  0  0  0  0  0  0  0  0  0  0  0
  -34.9799  -16.3041   21.9881 C   0  0  0  0  0  0  0  0  0  0  0  0
  -36.0334  -20.8557   20.0343 C   0  0  0  0  0  0  0  0  0  0  0  0
  -22.3287   -8.7180   20.1830 C   0  0  0  0  0  0  0  0  0  0  0  0
  -23.0613   -8.7383   22.4852 C   0  0  0  0  0  0  0  0  0  0  0  0
  -35.2288  -21.3005   18.9862 C   0  0  0  0  0  0  0  0  0  0  0  0
  -23.3998   -5.4192   21.9374 C   0  0  0  0  0  0  0  0  0  0  0  0
  -24.0194   -4.4028   22.6645 C   0  0  0  0  0  0  0  0  0  0  0  0
  -33.9776  -22.6642   20.5336 C   0  0  0  0  0  0  0  0  0  0  0  0
  -22.2959   -4.5583   24.3505 C   0  0  0  0  0  0  0  0  0  0  0  0
  -23.7938  -10.4709   20.9691 C   0  0  0  0  0  0  0  0  0  0  0  0
  -24.1058  -12.9999   20.8484 C   0  0  0  0  0  0  0  0  0  0  0  0
  -35.8360  -15.1995   23.9716 C   0  0  0  0  0  0  0  0  0  0  0  0
  -35.8090  -21.3042   21.3438 C   0  0  0  0  0  0  0  0  0  0  0  0
  -35.1613  -16.2852   23.3814 C   0  0  0  0  0  0  0  0  0  0  0  0
  -34.7825  -22.2256   21.5961 C   0  0  0  0  0  0  0  0  0  0  0  0
  -22.3287   -8.1473   21.4557 C   0  0  0  0  0  0  0  0  0  0  0  0
  -34.1988  -22.2027   19.2362 C   0  0  0  0  0  0  0  0  0  0  0  0
  -22.2283   -6.0052   22.4169 C   0  0  0  0  0  0  0  0  0  0  0  0
  -23.4675   -3.9723   23.8710 C   0  0  0  0  0  0  0  0  0  0  0  0
  -21.6764   -5.5747   23.6234 C   0  0  0  0  0  0  0  0  0  0  0  0
  -24.5511  -11.6708   20.7182 C   0  0  0  0  0  0  0  0  0  0  0  0
  -29.4717  -18.9317   20.6795 C   0  0  0  0  0  0  0  0  0  0  0  0
  -30.5045  -18.0920   21.0152 C   0  0  0  0  0  0  0  0  0  0  0  0
  -25.1928  -13.7622   20.4967 C   0  0  0  0  0  0  0  0  0  0  0  0
  -31.1092  -19.4254   19.4556 C   0  0  0  0  0  0  0  0  0  0  0  0
  -22.8241  -13.5007   21.2514 C   0  0  0  0  0  0  0  0  0  0  0  0
  -28.1622  -18.9588   21.2540 C   0  0  0  0  0  0  0  0  0  0  0  0
  -35.0159  -19.9092   24.0877 C   0  0  0  0  0  0  0  0  0  0  0  0
  -35.5160  -22.8792   25.2924 C   0  0  0  0  0  0  0  0  0  0  0  0
  -35.6478  -26.2446   24.7419 C   0  0  0  0  0  0  0  0  0  0  0  0
  -30.6609  -14.8494   20.7477 C   0  0  0  0  0  0  0  0  0  0  0  0
  -36.0213  -15.0977   25.4649 C   0  0  0  0  0  0  0  0  0  0  0  0
  -36.7028  -20.8355   22.4590 C   0  0  0  0  0  0  0  0  0  0  0  0
  -34.5131  -22.7532   22.9808 C   0  0  0  0  0  0  0  0  0  0  0  0
  -35.8242  -16.4238   26.1950 C   0  0  0  0  0  0  0  0  0  0  0  0
  -29.5811  -12.4469   18.3521 C   0  0  0  0  0  0  0  0  0  0  0  0
  -34.5607  -17.1219   25.7020 C   0  0  0  0  0  0  0  0  0  0  0  0
  -28.1424  -12.1362   18.7686 C   0  0  0  0  0  0  0  0  0  0  0  0
  -30.4812  -12.6811   19.5633 C   0  0  0  0  0  0  0  0  0  0  0  0
  -28.5543  -13.3909   20.9261 C   0  0  0  0  0  0  0  0  0  0  0  0
  -34.6590  -17.4497   24.2072 C   0  0  1  0  0  0  0  0  0  0  0  0
  -36.0574  -20.9624   23.8355 C   0  0  1  0  0  0  0  0  0  0  0  0
  -27.5964  -13.2023   19.7374 C   0  0  2  0  0  0  0  0  0  0  0  0
  -27.1700  -19.9735   20.7310 C   0  0  0  0  0  0  0  0  0  0  0  0
  -36.0427  -28.4207   25.9277 C   0  0  0  0  0  0  0  0  0  0  0  0
  -31.2739  -23.5086   17.6312 C   0  0  0  0  0  0  0  0  0  0  0  0
  -32.7236  -22.7186   26.5117 C   0  0  0  0  0  0  0  0  0  0  0  0
  -32.8025  -25.1987   26.8452 C   0  0  0  0  0  0  0  0  0  0  0  0
  -34.4562  -23.7331   28.0028 C   0  0  0  0  0  0  0  0  0  0  0  0
  -37.9970  -26.8713   23.0544 C   0  0  0  0  0  0  0  0  0  0  0  0
  -30.6856  -17.0027   21.9814 C   0  0  0  0  0  0  0  0  0  0  0  0
  -31.7050  -21.0297   17.6399 C   0  0  0  0  0  0  0  0  0  0  0  0
  -34.6592  -24.1029   25.5099 C   0  0  1  0  0  0  0  0  0  0  0  0
  -36.6770  -27.2897   25.1332 C   0  0  2  0  0  0  0  0  0  0  0  0
  -32.0140  -22.3659   18.3113 C   0  0  1  0  0  0  0  0  0  1  0  0
  -33.6639  -23.9271   26.6915 C   0  0  0  0  0  0  0  0  0  0  0  0
  -25.8219  -11.5899   20.3151 N   0  0  0  0  0  0  0  0  0  0  0  0
  -29.8653  -19.7841   19.6798 N   0  0  0  0  0  0  0  0  0  0  0  0
  -26.1844  -12.8778   20.1888 N   0  0  0  0  0  0  0  0  0  0  0  0
  -35.4103  -22.2602   24.0389 N   0  0  0  0  0  0  0  0  0  0  0  0
  -29.9076  -13.7042   20.4409 N   0  0  0  0  0  0  0  0  0  0  0  0
  -25.3876  -15.0961   20.4237 N   0  0  0  0  0  0  0  0  0  0  0  0
  -21.8196  -12.5796   21.5784 N   0  0  0  0  0  0  0  0  0  0  0  0
  -32.0127  -19.9442   18.5433 N   0  0  0  0  0  0  0  0  0  0  0  0
  -35.4917  -18.6149   23.9990 N   0  0  0  0  0  0  0  0  0  0  0  0
  -35.5801  -25.2235   25.6661 N   0  0  0  0  0  0  0  0  0  0  0  0
  -30.0404  -15.7721   21.5809 N   0  0  0  0  0  0  0  0  0  0  0  0
  -37.3144  -27.8696   23.9173 N   0  3  0  0  0  0  0  0  0  0  0  0
  -22.5720  -14.7284   21.3037 O   0  0  0  0  0  0  0  0  0  0  0  0
  -27.7491  -18.2161   22.1662 O   0  0  0  0  0  0  0  0  0  0  0  0
  -33.8661  -20.2459   24.3451 O   0  0  0  0  0  0  0  0  0  0  0  0
  -36.2573  -22.4911   26.1988 O   0  0  0  0  0  0  0  0  0  0  0  0
  -34.9691  -26.3277   23.7207 O   0  0  0  0  0  0  0  0  0  0  0  0
  -31.7999  -15.0381   20.3072 O   0  0  0  0  0  0  0  0  0  0  0  0
  -31.5711  -18.4038   20.2274 O   0  0  0  0  0  0  0  0  0  0  0  0
  -21.6139   -7.0137   21.6936 O   0  0  0  0  0  0  0  0  0  0  0  0
  -33.4115  -22.6379   18.2152 O   0  0  0  0  0  0  0  0  0  1  0  0
  -24.0617   -2.9952   24.5683 F   0  0  0  0  0  0  0  0  0  0  0  0
  -20.5504   -6.1331   24.0886 F   0  0  0  0  0  0  0  0  0  0  0  0
  1  2  1  0  0  0  0
  1  5  2  0  0  0  0
  2  6  2  0  0  0  0
  3  8  2  0  0  0  0
  3 15  1  0  0  0  0
  4  9  1  0  0  0  0
  4 15  2  0  0  0  0
  5 17  1  0  0  0  0
  6 19  1  0  0  0  0
  7 10  2  0  0  0  0
  7 18  1  0  0  0  0
  8 21  1  0  0  0  0
  9 21  2  0  0  0  0
 10 22  1  0  0  0  0
 11 12  2  0  0  0  0
 11 23  1  0  0  0  0
 12 24  1  0  0  0  0
 13 20  1  0  0  0  0
 13 22  2  0  0  0  0
 14 24  2  0  0  0  0
 14 25  1  0  0  0  0
 15 26  1  0  0  0  0
 16 26  1  0  0  0  0
 16 29  2  0  0  0  0
 16 31  1  0  0  0  0
 17 19  2  0  0  0  0
 17 37  1  0  0  0  0
 18 20  2  0  0  0  0
 18 38  1  0  0  0  0
 19 46  1  0  0  0  0
 20 39  1  0  0  0  0
 21 81  1  0  0  0  0
 22 82  1  0  0  0  0
 23 25  2  0  0  0  0
 23 81  1  0  0  0  0
 24 83  1  0  0  0  0
 25 84  1  0  0  0  0
 26 62  2  0  0  0  0
 27 28  2  0  0  0  0
 27 32  1  0  0  0  0
 27 63  1  0  0  0  0
 28 56  1  0  0  0  0
 28 80  1  0  0  0  0
 29 64  1  0  0  0  0
 29 67  1  0  0  0  0
 30 63  2  0  0  0  0
 30 69  1  0  0  0  0
 30 80  1  0  0  0  0
 31 68  1  0  0  0  0
 31 74  2  0  0  0  0
 32 49  1  0  0  0  0
 32 75  2  0  0  0  0
 33 47  1  0  0  0  0
 33 70  1  0  0  0  0
 33 76  2  0  0  0  0
 34 58  1  0  0  0  0
 34 65  1  0  0  0  0
 34 77  2  0  0  0  0
 35 59  1  0  0  0  0
 35 71  1  0  0  0  0
 35 78  2  0  0  0  0
 36 66  1  0  0  0  0
 36 72  1  0  0  0  0
 36 79  2  0  0  0  0
 37 40  1  0  0  0  0
 38 47  1  0  0  0  0
 39 65  1  0  0  0  0
 40 42  1  0  0  0  0
 41 43  1  0  0  0  0
 41 44  1  0  0  0  0
 42 46  1  0  0  0  0
 43 48  1  0  0  0  0
 44 66  1  0  0  0  0
 45 48  1  0  0  0  0
 45 66  1  0  0  0  0
 46 70  1  0  0  0  0
 47 65  1  0  0  0  0
 48 64  1  0  0  0  0
 50 59  1  0  0  0  0
 51 60  1  0  0  0  0
 52 61  1  0  0  0  0
 53 61  1  0  0  0  0
 54 61  1  0  0  0  0
 55 73  1  0  0  0  0
 56 72  1  0  0  0  0
 57 60  1  0  0  0  0
 57 69  1  0  0  0  0
 58 61  1  0  0  0  0
 58 71  1  0  0  0  0
 59 73  1  0  0  0  0
 60 82  1  0  0  0  0
 62 64  1  0  0  0  0
M  CHG  1  73   1
M  ISO  4  36 100  60 101  72 100  82 101
M  END
> <Batch ID>
0163

> <Smiles>
CNC(C)C(=O)NC(C(=O)N1Cc2cc([101O:1][101CH:1](C)CNc3nc(C(C)=O)c(C[100NH:0][100C:0](=O)N4CCCC(n5nc(-c6ccc(Oc7ccc(F)cc7F)cc6)c(C(N)=O)c5N)C4)o3)ccc2CC1C(=O)NC1CCCc2ccccc21)C(C)(C)C

> <Shape>
0.200

> <Color>
0.202

> <Negative vol penalty>
0.000

$$$$

  -OEChem-04052303593D

 82 90  0     1  0  0  0  0  0999 V2000
  -20.4630  -30.8427   24.2407 C   0  0  0  0  0  0  0  0  0  0  0  0
  -21.5962  -30.0388   24.1702 C   0  0  0  0  0  0  0  0  0  0  0  0
  -27.5447  -12.9748   22.6411 C   0  0  0  0  0  0  0  0  0  0  0  0
  -26.8628  -12.8030   20.3297 C   0  0  0  0  0  0  0  0  0  0  0  0
  -19.2368  -30.3584   23.7872 C   0  0  0  0  0  0  0  0  0  0  0  0
  -21.5036  -28.7495   23.6472 C   0  0  0  0  0  0  0  0  0  0  0  0
  -25.2713  -27.6801   20.4369 C   0  0  0  0  0  0  0  0  0  0  0  0
  -26.9666  -11.7329   22.9039 C   0  0  0  0  0  0  0  0  0  0  0  0
  -26.2847  -11.5611   20.5925 C   0  0  0  0  0  0  0  0  0  0  0  0
  -26.5089  -27.3581   20.9923 C   0  0  0  0  0  0  0  0  0  0  0  0
  -24.3151   -8.5098   20.7338 C   0  0  0  0  0  0  0  0  0  0  0  0
  -23.0452   -8.2624   20.2126 C   0  0  0  0  0  0  0  0  0  0  0  0
  -31.3227  -22.2873   17.9659 C   0  0  0  0  0  0  0  0  0  0  0  0
  -31.9094  -23.4145   18.5890 C   0  0  0  0  0  0  0  0  0  0  0  0
  -26.0467  -25.0155   20.6489 C   0  0  0  0  0  0  0  0  0  0  0  0
  -22.1673  -10.1340   21.4630 C   0  0  0  0  0  0  0  0  0  0  0  0
  -27.4927  -13.5099   21.3540 C   0  0  0  0  0  0  0  0  0  0  0  0
  -29.4122  -15.0458   20.6727 C   0  0  0  0  0  0  0  0  0  0  0  0
  -19.1310  -29.0660   23.2494 C   0  0  0  0  0  0  0  0  0  0  0  0
  -24.4060  -26.6700   19.9926 C   0  0  0  0  0  0  0  0  0  0  0  0
  -20.2745  -28.2469   23.1873 C   0  0  0  0  0  0  0  0  0  0  0  0
  -24.7997  -25.3275   20.0860 C   0  0  0  0  0  0  0  0  0  0  0  0
  -26.3367  -11.0260   21.8797 C   0  0  0  0  0  0  0  0  0  0  0  0
  -26.8955  -26.0255   21.1010 C   0  0  0  0  0  0  0  0  0  0  0  0
  -24.5111   -9.5692   21.6197 C   0  0  0  0  0  0  0  0  0  0  0  0
  -21.9713   -9.0745   20.5771 C   0  0  0  0  0  0  0  0  0  0  0  0
  -23.4373  -10.3814   21.9843 C   0  0  0  0  0  0  0  0  0  0  0  0
  -28.0892  -14.7930   21.0819 C   0  0  0  0  0  0  0  0  0  0  0  0
  -30.0205  -22.6363   17.6929 C   0  0  0  0  0  0  0  0  0  0  0  0
  -30.9240  -24.3721   18.6523 C   0  0  0  0  0  0  0  0  0  0  0  0
  -29.4787  -16.4123   20.5506 C   0  0  0  0  0  0  0  0  0  0  0  0
  -30.4851  -14.1276   20.4248 C   0  0  0  0  0  0  0  0  0  0  0  0
  -21.4856  -25.7049   20.7947 C   0  0  0  0  0  0  0  0  0  0  0  0
  -30.6990  -25.8776   20.4290 C   0  0  0  0  0  0  0  0  0  0  0  0
  -21.8497  -23.7512   18.2310 C   0  0  0  0  0  0  0  0  0  0  0  0
  -23.9670  -22.1192   16.1096 C   0  0  0  0  0  0  0  0  0  0  0  0
  -27.3001  -21.2573   18.8405 C   0  0  0  0  0  0  0  0  0  0  0  0
  -17.7747  -28.5691   22.8155 C   0  0  0  0  0  0  0  0  0  0  0  0
  -23.0857  -27.0352   19.3714 C   0  0  0  0  0  0  0  0  0  0  0  0
  -23.9159  -24.2066   19.6052 C   0  0  0  0  0  0  0  0  0  0  0  0
  -17.8358  -27.3274   21.9296 C   0  0  0  0  0  0  0  0  0  0  0  0
  -26.2298  -20.0088   21.9984 C   0  0  0  0  0  0  0  0  0  0  0  0
  -18.7923  -26.2965   22.5205 C   0  0  0  0  0  0  0  0  0  0  0  0
  -26.7216  -18.5604   22.0048 C   0  0  0  0  0  0  0  0  0  0  0  0
  -25.7686  -20.4420   20.6086 C   0  0  0  0  0  0  0  0  0  0  0  0
  -27.2505  -18.7870   19.5416 C   0  0  0  0  0  0  0  0  0  0  0  0
  -20.2193  -26.8518   22.6035 C   0  0  1  0  0  0  0  0  0  0  0  0
  -22.0669  -25.9008   19.4231 C   0  0  1  0  0  0  0  0  0  0  0  0
  -27.7785  -18.3222   20.9096 C   0  0  2  0  0  0  0  0  0  0  0  0
  -30.7293  -27.2267   21.1126 C   0  0  0  0  0  0  0  0  0  0  0  0
  -23.9701  -20.5686   14.1366 C   0  0  0  0  0  0  0  0  0  0  0  0
  -21.1444  -21.4181   20.0665 C   0  0  0  0  0  0  0  0  0  0  0  0
  -22.0747  -19.8662   18.3361 C   0  0  0  0  0  0  0  0  0  0  0  0
  -20.1111  -21.3052   17.7919 C   0  0  0  0  0  0  0  0  0  0  0  0
  -25.3702  -24.0956   14.4115 C   0  0  0  0  0  0  0  0  0  0  0  0
  -28.8994  -21.9243   17.0638 C   0  0  0  0  0  0  0  0  0  0  0  0
  -30.2434  -24.6837   21.2510 C   0  0  0  0  0  0  0  0  0  0  0  0
  -28.7340  -24.5186   21.1720 C   0  0  0  0  0  0  0  0  0  1  0  0
  -22.3974  -22.3610   18.0155 C   0  0  1  0  0  0  0  0  0  0  0  0
  -23.9956  -22.0183   14.5952 C   0  0  2  0  0  0  0  0  0  0  0  0
  -21.4480  -21.2584   18.5634 C   0  0  0  0  0  0  0  0  0  0  0  0
  -27.3673  -15.9093   21.2115 N   0  0  0  0  0  0  0  0  0  0  0  0
  -30.9869  -25.6717   19.1781 N   0  0  0  0  0  0  0  0  0  0  0  0
  -28.2398  -16.8768   20.8817 N   0  0  0  0  0  0  0  0  0  0  0  0
  -22.6321  -24.6143   19.0111 N   0  0  0  0  0  0  0  0  0  0  0  0
  -26.8170  -20.1910   19.6167 N   0  0  0  0  0  0  0  0  0  0  0  0
  -30.4754  -17.2498   20.1936 N   0  0  0  0  0  0  0  0  0  0  0  0
  -30.2455  -12.7576   20.5981 N   0  0  0  0  0  0  0  0  0  0  0  0
  -20.8497  -26.8223   21.3012 N   0  0  0  0  0  0  0  0  0  0  0  0
  -22.6807  -22.2506   16.5886 N   0  0  0  0  0  0  0  0  0  0  0  0
  -28.2978  -20.9341   17.9289 N   0  0  0  0  0  0  0  0  0  0  0  0
  -25.2279  -22.6601   14.0565 N   0  3  0  0  0  0  0  0  0  0  0  0
  -31.6273  -14.5118   20.0764 O   0  0  0  0  0  0  0  0  0  0  0  0
  -21.6039  -24.6198   21.3517 O   0  0  0  0  0  0  0  0  0  0  0  0
  -20.7709  -24.0621   17.7199 O   0  0  0  0  0  0  0  0  0  0  0  0
  -24.9838  -22.0811   16.7990 O   0  0  0  0  0  0  0  0  0  0  0  0
  -26.8777  -22.4129   18.9554 O   0  0  0  0  0  0  0  0  0  0  0  0
  -29.7695  -23.9056   18.1081 O   0  0  0  0  0  0  0  0  0  0  0  0
  -25.7727   -9.8140   22.1357 O   0  0  0  0  0  0  0  0  0  0  0  0
  -28.1027  -25.7084   21.6433 O   0  0  0  0  0  0  0  0  0  1  0  0
  -20.7522   -8.8378   20.0753 F   0  0  0  0  0  0  0  0  0  0  0  0
  -23.6197  -11.4014   22.8341 F   0  0  0  0  0  0  0  0  0  0  0  0
  1  2  1  0  0  0  0
  1  5  2  0  0  0  0
  2  6  2  0  0  0  0
  3  8  2  0  0  0  0
  3 17  1  0  0  0  0
  4  9  1  0  0  0  0
  4 17  2  0  0  0  0
  5 19  1  0  0  0  0
  6 21  1  0  0  0  0
  7 10  2  0  0  0  0
  7 20  1  0  0  0  0
  8 23  1  0  0  0  0
  9 23  2  0  0  0  0
 10 24  1  0  0  0  0
 11 12  2  0  0  0  0
 11 25  1  0  0  0  0
 12 26  1  0  0  0  0
 13 14  1  0  0  0  0
 13 29  2  0  0  0  0
 14 30  2  0  0  0  0
 15 22  1  0  0  0  0
 15 24  2  0  0  0  0
 16 26  2  0  0  0  0
 16 27  1  0  0  0  0
 17 28  1  0  0  0  0
 18 28  1  0  0  0  0
 18 31  2  0  0  0  0
 18 32  1  0  0  0  0
 19 21  2  0  0  0  0
 19 38  1  0  0  0  0
 20 22  2  0  0  0  0
 20 39  1  0  0  0  0
 21 47  1  0  0  0  0
 22 40  1  0  0  0  0
 23 79  1  0  0  0  0
 24 80  1  0  0  0  0
 25 27  2  0  0  0  0
 25 79  1  0  0  0  0
 26 81  1  0  0  0  0
 27 82  1  0  0  0  0
 28 62  2  0  0  0  0
 29 56  1  0  0  0  0
 29 78  1  0  0  0  0
 30 63  1  0  0  0  0
 30 78  1  0  0  0  0
 31 64  1  0  0  0  0
 31 67  1  0  0  0  0
 32 68  1  0  0  0  0
 32 73  2  0  0  0  0
 33 48  1  0  0  0  0
 33 69  1  0  0  0  0
 33 74  2  0  0  0  0
 34 50  1  0  0  0  0
 34 57  1  0  0  0  0
 34 63  2  0  0  0  0
 35 59  1  0  0  0  0
 35 65  1  0  0  0  0
 35 75  2  0  0  0  0
 36 60  1  0  0  0  0
 36 70  1  0  0  0  0
 36 76  2  0  0  0  0
 37 66  1  0  0  0  0
 37 71  1  0  0  0  0
 37 77  2  0  0  0  0
 38 41  1  0  0  0  0
 39 48  1  0  0  0  0
 40 65  1  0  0  0  0
 41 43  1  0  0  0  0
 42 44  1  0  0  0  0
 42 45  1  0  0  0  0
 43 47  1  0  0  0  0
 44 49  1  0  0  0  0
 45 66  1  0  0  0  0
 46 49  1  0  0  0  0
 46 66  1  0  0  0  0
 47 69  1  0  0  0  0
 48 65  1  0  0  0  0
 49 64  1  0  0  0  0
 51 60  1  0  0  0  0
 52 61  1  0  0  0  0
 53 61  1  0  0  0  0
 54 61  1  0  0  0  0
 55 72  1  0  0  0  0
 56 71  1  0  0  0  0
 57 58  1  0  0  0  0
 58 80  1  0  0  0  0
 59 61  1  0  0  0  0
 59 70  1  0  0  0  0
 60 72  1  0  0  0  0
 62 64  1  0  0  0  0
M  CHG  1  72   1
M  ISO  4  37 100  58 101  71 100  80 101
M  END
> <Batch ID>
0163

> <Smiles>
CNC(C)C(=O)NC(C(=O)N1Cc2cc([101O:1][101CH2:1]C=C(C)Nc3ccc(C[100NH:0][100C:0](=O)N4CCCC(n5nc(-c6ccc(Oc7ccc(F)cc7F)cc6)c(C(N)=O)c5N)C4)o3)ccc2CC1C(=O)NC1CCCc2ccccc21)C(C)(C)C

> <Shape>
0.239

> <Color>
0.089

> <Negative vol penalty>
0.000

$$$$

  -OEChem-04052303593D

 82 90  0     1  0  0  0  0  0999 V2000
  -35.2796  -26.1577   12.4238 C   0  0  0  0  0  0  0  0  0  0  0  0
  -34.6303  -25.0865   13.0291 C   0  0  0  0  0  0  0  0  0  0  0  0
  -23.3004   -9.7774   20.0978 C   0  0  0  0  0  0  0  0  0  0  0  0
  -23.9189  -10.0540   22.4169 C   0  0  0  0  0  0  0  0  0  0  0  0
  -35.7327  -27.2246   13.1986 C   0  0  0  0  0  0  0  0  0  0  0  0
  -34.4347  -25.0811   14.4097 C   0  0  0  0  0  0  0  0  0  0  0  0
  -29.6379  -22.7751   17.4393 C   0  0  0  0  0  0  0  0  0  0  0  0
  -22.6165   -8.6052   20.4200 C   0  0  0  0  0  0  0  0  0  0  0  0
  -23.2349   -8.8818   22.7391 C   0  0  0  0  0  0  0  0  0  0  0  0
  -29.4403  -21.5636   18.1005 C   0  0  0  0  0  0  0  0  0  0  0  0
  -20.0326   -7.9266   23.2427 C   0  0  0  0  0  0  0  0  0  0  0  0
  -19.2105   -7.9466   24.3693 C   0  0  0  0  0  0  0  0  0  0  0  0
  -30.0234  -22.6164   20.1911 C   0  0  0  0  0  0  0  0  0  0  0  0
  -20.5242   -6.1770   25.3592 C   0  0  0  0  0  0  0  0  0  0  0  0
  -32.3714  -16.8989   24.2980 C   0  0  0  0  0  0  0  0  0  0  0  0
  -23.9516  -10.5018   21.0963 C   0  0  0  0  0  0  0  0  0  0  0  0
  -24.1413  -13.0215   20.7461 C   0  0  0  0  0  0  0  0  0  0  0  0
  -35.5340  -27.2368   14.5882 C   0  0  0  0  0  0  0  0  0  0  0  0
  -30.0410  -23.9156   18.1487 C   0  0  0  0  0  0  0  0  0  0  0  0
  -34.8868  -26.1486   15.2040 C   0  0  0  0  0  0  0  0  0  0  0  0
  -30.2229  -23.8417   19.5371 C   0  0  0  0  0  0  0  0  0  0  0  0
  -22.5837   -8.1574   21.7406 C   0  0  0  0  0  0  0  0  0  0  0  0
  -29.6358  -21.4834   19.4761 C   0  0  0  0  0  0  0  0  0  0  0  0
  -21.1005   -7.0318   23.1743 C   0  0  0  0  0  0  0  0  0  0  0  0
  -19.4563   -7.0718   25.4276 C   0  0  0  0  0  0  0  0  0  0  0  0
  -21.3463   -6.1570   24.2325 C   0  0  0  0  0  0  0  0  0  0  0  0
  -24.6588  -11.7125   20.7640 C   0  0  0  0  0  0  0  0  0  0  0  0
  -25.2043  -13.8058   20.3700 C   0  0  0  0  0  0  0  0  0  0  0  0
  -31.6336  -17.1086   23.1673 C   0  0  0  0  0  0  0  0  0  0  0  0
  -31.9280  -14.9265   23.3961 C   0  0  0  0  0  0  0  0  0  0  0  0
  -22.8181  -13.4870   21.0430 C   0  0  0  0  0  0  0  0  0  0  0  0
  -32.5849  -25.8200   18.0756 C   0  0  0  0  0  0  0  0  0  0  0  0
  -30.8654  -27.5510   20.2132 C   0  0  0  0  0  0  0  0  0  0  0  0
  -30.4628  -18.5807   21.4951 C   0  0  0  0  0  0  0  0  0  0  0  0
  -28.4032  -27.6173   22.5754 C   0  0  0  0  0  0  0  0  0  0  0  0
  -31.1361  -13.1122   20.7983 C   0  0  0  0  0  0  0  0  0  0  0  0
  -36.0835  -28.3900   15.3900 C   0  0  0  0  0  0  0  0  0  0  0  0
  -30.2239  -25.2213   17.4249 C   0  0  0  0  0  0  0  0  0  0  0  0
  -30.6359  -25.0421   20.3477 C   0  0  0  0  0  0  0  0  0  0  0  0
  -35.5043  -28.4827   16.7994 C   0  0  0  0  0  0  0  0  0  0  0  0
  -29.2533  -13.6553   17.8256 C   0  0  0  0  0  0  0  0  0  0  0  0
  -35.5080  -27.1122   17.4692 C   0  0  0  0  0  0  0  0  0  0  0  0
  -27.8156  -13.3371   18.2400 C   0  0  0  0  0  0  0  0  0  0  0  0
  -30.2564  -12.7323   18.5139 C   0  0  0  0  0  0  0  0  0  0  0  0
  -28.7106  -12.3683   20.3985 C   0  0  0  0  0  0  0  0  0  0  0  0
  -34.6338  -26.1178   16.6957 C   0  0  1  0  0  0  0  0  0  0  0  0
  -31.1329  -26.1948   18.1690 C   0  0  1  0  0  0  0  0  0  0  0  0
  -27.6669  -13.3095   19.7731 C   0  0  2  0  0  0  0  0  0  0  0  0
  -27.2508  -29.1683   24.1766 C   0  0  0  0  0  0  0  0  0  0  0  0
  -33.2842  -27.4282   22.0691 C   0  0  0  0  0  0  0  0  0  0  0  0
  -31.7885  -28.1293   23.9506 C   0  0  0  0  0  0  0  0  0  0  0  0
  -32.1328  -29.6473   22.0013 C   0  0  0  0  0  0  0  0  0  0  0  0
  -33.2646  -14.8780   25.4808 C   0  0  0  0  0  0  0  0  0  0  0  0
  -25.7798  -27.2030   21.2697 C   0  0  0  0  0  0  0  0  0  0  0  0
  -31.8665  -13.4658   23.1436 C   0  0  0  0  0  0  0  0  0  0  0  0
  -30.2307  -20.0663   21.2910 C   0  0  0  0  0  0  0  0  0  1  0  0
  -30.7300  -27.5633   21.7167 C   0  0  1  0  0  0  0  0  0  0  0  0
  -27.2315  -28.5599   22.7829 C   0  0  2  0  0  0  0  0  0  0  0  0
  -31.9780  -28.1687   22.4191 C   0  0  0  0  0  0  0  0  0  0  0  0
  -25.9500  -11.6638   20.4260 N   0  0  0  0  0  0  0  0  0  0  0  0
  -32.5381  -15.5401   24.4154 N   0  0  0  0  0  0  0  0  0  0  0  0
  -26.2529  -12.9520   20.1921 N   0  0  0  0  0  0  0  0  0  0  0  0
  -31.3737  -15.8711   22.6295 N   0  3  0  0  0  0  0  0  0  0  0  0
  -30.8084  -26.2946   19.5934 N   0  0  0  0  0  0  0  0  0  0  0  0
  -30.0631  -12.7532   19.9659 N   0  0  0  0  0  0  0  0  0  0  0  0
  -25.3349  -15.1356   20.1773 N   0  0  0  0  0  0  0  0  0  0  0  0
  -21.8466  -12.5471   21.4134 N   0  0  0  0  0  0  0  0  0  0  0  0
  -31.2135  -18.3543   22.6437 N   0  0  0  0  0  0  0  0  0  0  0  0
  -33.2334  -26.3507   16.9769 N   0  0  0  0  0  0  0  0  0  0  0  0
  -29.4826  -28.2613   22.0085 N   0  0  0  0  0  0  0  0  0  0  0  0
  -30.8660  -13.1127   22.1613 N   0  0  0  0  0  0  0  0  0  0  0  0
  -25.9433  -27.8319   22.6056 N   0  3  0  0  0  0  0  0  0  0  0  0
  -22.5022  -14.6985   20.9658 O   0  0  0  0  0  0  0  0  0  0  0  0
  -33.0806  -25.1035   18.9374 O   0  0  0  0  0  0  0  0  0  0  0  0
  -31.0090  -28.6175   19.6102 O   0  0  0  0  0  0  0  0  0  0  0  0
  -30.0186  -17.7474   20.7122 O   0  0  0  0  0  0  0  0  0  0  0  0
  -28.3660  -26.4294   22.8885 O   0  0  0  0  0  0  0  0  0  0  0  0
  -32.2506  -13.4154   20.3590 O   0  0  0  0  0  0  0  0  0  0  0  0
  -21.9163   -7.0137   22.0554 O   0  0  0  0  0  0  0  0  0  0  0  0
  -29.4443  -20.3020   20.1238 O   0  0  0  0  0  0  0  0  0  1  0  0
  -18.6677   -7.0922   26.5101 F   0  0  0  0  0  0  0  0  0  0  0  0
  -22.3714   -5.2959   24.1731 F   0  0  0  0  0  0  0  0  0  0  0  0
  1  2  1  0  0  0  0
  1  5  2  0  0  0  0
  2  6  2  0  0  0  0
  3  8  2  0  0  0  0
  3 16  1  0  0  0  0
  4  9  1  0  0  0  0
  4 16  2  0  0  0  0
  5 18  1  0  0  0  0
  6 20  1  0  0  0  0
  7 10  2  0  0  0  0
  7 19  1  0  0  0  0
  8 22  1  0  0  0  0
  9 22  2  0  0  0  0
 10 23  1  0  0  0  0
 11 12  2  0  0  0  0
 11 24  1  0  0  0  0
 12 25  1  0  0  0  0
 13 21  1  0  0  0  0
 13 23  2  0  0  0  0
 14 25  2  0  0  0  0
 14 26  1  0  0  0  0
 15 29  2  0  0  0  0
 15 61  1  0  0  0  0
 16 27  1  0  0  0  0
 17 27  1  0  0  0  0
 17 28  2  0  0  0  0
 17 31  1  0  0  0  0
 18 20  2  0  0  0  0
 18 37  1  0  0  0  0
 19 21  2  0  0  0  0
 19 38  1  0  0  0  0
 20 46  1  0  0  0  0
 21 39  1  0  0  0  0
 22 79  1  0  0  0  0
 23 80  1  0  0  0  0
 24 26  2  0  0  0  0
 24 79  1  0  0  0  0
 25 81  1  0  0  0  0
 26 82  1  0  0  0  0
 27 60  2  0  0  0  0
 28 62  1  0  0  0  0
 28 66  1  0  0  0  0
 29 63  1  0  0  0  0
 29 68  1  0  0  0  0
 30 55  1  0  0  0  0
 30 61  1  0  0  0  0
 30 63  2  0  0  0  0
 31 67  1  0  0  0  0
 31 73  2  0  0  0  0
 32 47  1  0  0  0  0
 32 69  1  0  0  0  0
 32 74  2  0  0  0  0
 33 57  1  0  0  0  0
 33 64  1  0  0  0  0
 33 75  2  0  0  0  0
 34 56  1  0  0  0  0
 34 68  1  0  0  0  0
 34 76  2  0  0  0  0
 35 58  1  0  0  0  0
 35 70  1  0  0  0  0
 35 77  2  0  0  0  0
 36 65  1  0  0  0  0
 36 71  1  0  0  0  0
 36 78  2  0  0  0  0
 37 40  1  0  0  0  0
 38 47  1  0  0  0  0
 39 64  1  0  0  0  0
 40 42  1  0  0  0  0
 41 43  1  0  0  0  0
 41 44  1  0  0  0  0
 42 46  1  0  0  0  0
 43 48  1  0  0  0  0
 44 65  1  0  0  0  0
 45 48  1  0  0  0  0
 45 65  1  0  0  0  0
 46 69  1  0  0  0  0
 47 64  1  0  0  0  0
 48 62  1  0  0  0  0
 49 58  1  0  0  0  0
 50 59  1  0  0  0  0
 51 59  1  0  0  0  0
 52 59  1  0  0  0  0
 53 61  1  0  0  0  0
 54 72  1  0  0  0  0
 55 71  1  0  0  0  0
 56 80  1  0  0  0  0
 57 59  1  0  0  0  0
 57 70  1  0  0  0  0
 58 72  1  0  0  0  0
 60 62  1  0  0  0  0
M  CHG  2  63   1  72   1
M  ISO  4  36 100  56 101  71 100  80 101
M  END
> <Batch ID>
0163

> <Smiles>
CNC(C)C(=O)NC(C(=O)N1Cc2cc([101O:1][101CH2:1]C(=O)Nc3cn(C)c(C[100NH:0][100C:0](=O)N4CCCC(n5nc(-c6ccc(Oc7ccc(F)cc7F)cc6)c(C(N)=O)c5N)C4)n3)ccc2CC1C(=O)NC1CCCc2ccccc21)C(C)(C)C

> <Shape>
0.270

> <Color>
0.190

> <Negative vol penalty>
0.000

$$$$

  -OEChem-04052303593D

 86 95  0     1  0  0  0  0  0999 V2000
  -20.6252  -37.7902   20.5816 C   0  0  0  0  0  0  0  0  0  0  0  0
  -21.5766  -37.2353   19.7317 C   0  0  0  0  0  0  0  0  0  0  0  0
  -25.0123   -8.3921   21.4072 C   0  0  0  0  0  0  0  0  0  0  0  0
  -23.4761  -10.0235   20.5040 C   0  0  0  0  0  0  0  0  0  0  0  0
  -20.7628  -37.6557   21.9625 C   0  0  0  0  0  0  0  0  0  0  0  0
  -22.6668  -36.5465   20.2623 C   0  0  0  0  0  0  0  0  0  0  0  0
  -25.1089  -29.2492   18.9162 C   0  0  0  0  0  0  0  0  0  0  0  0
  -23.9575   -7.4968   21.5843 C   0  0  0  0  0  0  0  0  0  0  0  0
  -22.4212   -9.1281   20.6810 C   0  0  0  0  0  0  0  0  0  0  0  0
  -25.5461  -27.9249   18.8799 C   0  0  0  0  0  0  0  0  0  0  0  0
  -21.4444   -7.0143   23.7925 C   0  0  0  0  0  0  0  0  0  0  0  0
  -21.3750   -6.3272   25.0043 C   0  0  0  0  0  0  0  0  0  0  0  0
  -24.4012  -17.7333   18.2716 C   0  0  0  0  0  0  0  0  0  0  0  0
  -26.4595  -28.1543   21.1073 C   0  0  0  0  0  0  0  0  0  0  0  0
  -21.5428   -4.2265   23.8228 C   0  0  0  0  0  0  0  0  0  0  0  0
  -24.0260  -18.7851   17.4609 C   0  0  0  0  0  0  0  0  0  0  0  0
  -24.7716   -9.6555   20.8672 C   0  0  0  0  0  0  0  0  0  0  0  0
  -27.0105  -10.3954   19.8939 C   0  0  0  0  0  0  0  0  0  0  0  0
  -21.8500  -36.9566   22.5100 C   0  0  0  0  0  0  0  0  0  0  0  0
  -25.3321  -30.0273   20.0555 C   0  0  0  0  0  0  0  0  0  0  0  0
  -22.8197  -36.4037   21.6519 C   0  0  0  0  0  0  0  0  0  0  0  0
  -26.0129  -29.4776   21.1542 C   0  0  0  0  0  0  0  0  0  0  0  0
  -22.6620   -7.8648   21.2211 C   0  0  0  0  0  0  0  0  0  0  0  0
  -26.2199  -27.3789   19.9727 C   0  0  0  0  0  0  0  0  0  0  0  0
  -21.5629   -6.3076   22.5957 C   0  0  0  0  0  0  0  0  0  0  0  0
  -21.4243   -4.9333   25.0195 C   0  0  0  0  0  0  0  0  0  0  0  0
  -21.6122   -4.9137   22.6109 C   0  0  0  0  0  0  0  0  0  0  0  0
  -25.8607  -10.5810   20.6846 C   0  0  0  0  0  0  0  0  0  0  0  0
  -25.0864  -18.0784   19.4186 C   0  0  0  0  0  0  0  0  0  0  0  0
  -27.7291  -11.5548   20.0554 C   0  0  0  0  0  0  0  0  0  0  0  0
  -24.9673  -20.2851   18.8861 C   0  0  0  0  0  0  0  0  0  0  0  0
  -27.3947   -9.2753   19.0856 C   0  0  0  0  0  0  0  0  0  0  0  0
  -24.8914  -33.3457   21.7497 C   0  0  0  0  0  0  0  0  0  0  0  0
  -24.4081  -31.1884   23.8763 C   0  0  0  0  0  0  0  0  0  0  0  0
  -23.3598  -29.3739   26.5682 C   0  0  0  0  0  0  0  0  0  0  0  0
  -26.1868  -17.1479   21.4849 C   0  0  0  0  0  0  0  0  0  0  0  0
  -21.9813  -36.8781   24.0104 C   0  0  0  0  0  0  0  0  0  0  0  0
  -24.9331  -31.4768   20.1149 C   0  0  0  0  0  0  0  0  0  0  0  0
  -26.2612  -30.3624   22.3451 C   0  0  0  0  0  0  0  0  0  0  0  0
  -22.9666  -35.8112   24.4807 C   0  0  0  0  0  0  0  0  0  0  0  0
  -28.5049  -15.0704   23.2133 C   0  0  0  0  0  0  0  0  0  0  0  0
  -24.2611  -35.8890   23.6775 C   0  0  0  0  0  0  0  0  0  0  0  0
  -26.8014  -21.9816   19.2877 C   0  0  0  0  0  0  0  0  0  0  0  0
  -24.6073  -22.1636   20.5431 C   0  0  0  0  0  0  0  0  0  0  0  0
  -28.1987  -13.6673   22.6845 C   0  0  0  0  0  0  0  0  0  0  0  0
  -27.1135  -23.4421   19.6254 C   0  0  0  0  0  0  0  0  0  0  0  0
  -24.9210  -23.6245   20.8762 C   0  0  0  0  0  0  0  0  0  0  0  0
  -27.2368  -15.9085   23.3654 C   0  0  0  0  0  0  0  0  0  0  0  0
  -26.0892  -14.5821   21.6355 C   0  0  0  0  0  0  0  0  0  0  0  0
  -24.0031  -35.6281   22.1886 C   0  0  1  0  0  0  0  0  0  0  0  0
  -25.2858  -21.7280   19.2338 C   0  0  0  0  0  0  0  0  0  0  0  0
  -24.4809  -31.9213   21.5175 C   0  0  1  0  0  0  0  0  0  0  0  0
  -27.3424  -13.7221   21.4041 C   0  0  2  0  0  0  0  0  0  0  0  0
  -26.4324  -23.8995   20.9239 C   0  0  0  0  0  0  0  0  0  0  0  0
  -23.2081  -29.4715   29.0711 C   0  0  0  0  0  0  0  0  0  0  0  0
  -27.4003  -30.6303   24.0757 C   0  0  0  0  0  0  0  0  0  0  0  0
  -27.0200  -29.8123   26.4112 C   0  0  0  0  0  0  0  0  0  0  0  0
  -26.5094  -32.1821   25.8230 C   0  0  0  0  0  0  0  0  0  0  0  0
  -20.4091  -29.1521   26.5139 C   0  0  0  0  0  0  0  0  0  0  0  0
  -26.4241  -23.5330   23.2453 C   0  0  0  0  0  0  0  0  0  0  0  0
  -26.7039  -25.3841   21.1742 C   0  0  0  0  0  0  0  0  0  1  0  0
  -24.9976  -30.3413   24.9756 C   0  0  1  0  0  0  0  0  0  0  0  0
  -22.4925  -29.7452   27.7575 C   0  0  2  0  0  0  0  0  0  0  0  0
  -26.4678  -30.7299   25.2995 C   0  0  0  0  0  0  0  0  0  0  0  0
  -24.2936  -20.0780   17.7386 N   0  0  0  0  0  0  0  0  0  0  0  0
  -25.8455  -11.7650   21.3027 N   0  0  0  0  0  0  0  0  0  0  0  0
  -25.3877  -19.3490   19.7582 N   0  0  0  0  0  0  0  0  0  0  0  0
  -26.9948  -12.3338   20.9004 N   0  0  0  0  0  0  0  0  0  0  0  0
  -25.0599  -31.1601   22.6374 N   0  0  0  0  0  0  0  0  0  0  0  0
  -26.4789  -15.9183   22.1123 N   0  0  0  0  0  0  0  0  0  0  0  0
  -28.9112  -11.9735   19.5557 N   0  0  0  0  0  0  0  0  0  0  0  0
  -26.9902   -9.2495   17.7439 N   0  0  0  0  0  0  0  0  0  0  0  0
  -25.4898  -17.0305   20.2828 N   0  0  0  0  0  0  0  0  0  0  0  0
  -23.8325  -34.2116   21.9459 N   0  0  0  0  0  0  0  0  0  0  0  0
  -24.0865  -30.4523   26.1096 N   0  0  0  0  0  0  0  0  0  0  0  0
  -21.2258  -28.9602   27.7399 N   0  3  0  0  0  0  0  0  0  0  0  0
  -28.0625   -8.3174   19.5440 O   0  0  0  0  0  0  0  0  0  0  0  0
  -26.0813  -33.6388   21.7524 O   0  0  0  0  0  0  0  0  0  0  0  0
  -23.4006  -31.8623   24.1086 O   0  0  0  0  0  0  0  0  0  0  0  0
  -23.3925  -28.2398   26.0958 O   0  0  0  0  0  0  0  0  0  0  0  0
  -26.5533  -18.2241   21.9638 O   0  0  0  0  0  0  0  0  0  0  0  0
  -21.6325   -6.9913   21.3935 O   0  0  0  0  0  0  0  0  0  0  0  0
  -26.6400  -26.0841   19.9323 O   0  0  0  0  0  0  0  0  0  1  0  0
  -27.0068  -23.1622   22.0071 O   0  0  0  0  0  0  0  0  0  0  0  0
  -21.3592   -4.2736   26.1834 F   0  0  0  0  0  0  0  0  0  0  0  0
  -21.7272   -4.2293   21.4645 F   0  0  0  0  0  0  0  0  0  0  0  0
  1  2  1  0  0  0  0
  1  5  2  0  0  0  0
  2  6  2  0  0  0  0
  3  8  2  0  0  0  0
  3 17  1  0  0  0  0
  4  9  1  0  0  0  0
  4 17  2  0  0  0  0
  5 19  1  0  0  0  0
  6 21  1  0  0  0  0
  7 10  2  0  0  0  0
  7 20  1  0  0  0  0
  8 23  1  0  0  0  0
  9 23  2  0  0  0  0
 10 24  1  0  0  0  0
 11 12  2  0  0  0  0
 11 25  1  0  0  0  0
 12 26  1  0  0  0  0
 13 16  1  0  0  0  0
 13 29  2  0  0  0  0
 14 22  1  0  0  0  0
 14 24  2  0  0  0  0
 15 26  2  0  0  0  0
 15 27  1  0  0  0  0
 16 65  2  0  0  0  0
 17 28  1  0  0  0  0
 18 28  1  0  0  0  0
 18 30  2  0  0  0  0
 18 32  1  0  0  0  0
 19 21  2  0  0  0  0
 19 37  1  0  0  0  0
 20 22  2  0  0  0  0
 20 38  1  0  0  0  0
 21 50  1  0  0  0  0
 22 39  1  0  0  0  0
 23 82  1  0  0  0  0
 24 83  1  0  0  0  0
 25 27  2  0  0  0  0
 25 82  1  0  0  0  0
 26 85  1  0  0  0  0
 27 86  1  0  0  0  0
 28 66  2  0  0  0  0
 29 67  1  0  0  0  0
 29 73  1  0  0  0  0
 30 68  1  0  0  0  0
 30 71  1  0  0  0  0
 31 51  1  0  0  0  0
 31 65  1  0  0  0  0
 31 67  2  0  0  0  0
 32 72  1  0  0  0  0
 32 77  2  0  0  0  0
 33 52  1  0  0  0  0
 33 74  1  0  0  0  0
 33 78  2  0  0  0  0
 34 62  1  0  0  0  0
 34 69  1  0  0  0  0
 34 79  2  0  0  0  0
 35 63  1  0  0  0  0
 35 75  1  0  0  0  0
 35 80  2  0  0  0  0
 36 70  1  0  0  0  0
 36 73  1  0  0  0  0
 36 81  2  0  0  0  0
 37 40  1  0  0  0  0
 38 52  1  0  0  0  0
 39 69  1  0  0  0  0
 40 42  1  0  0  0  0
 41 45  1  0  0  0  0
 41 48  1  0  0  0  0
 42 50  1  0  0  0  0
 43 46  1  0  0  0  0
 43 51  1  0  0  0  0
 44 47  1  0  0  0  0
 44 51  1  0  0  0  0
 45 53  1  0  0  0  0
 46 54  1  0  0  0  0
 47 54  1  0  0  0  0
 48 70  1  0  0  0  0
 49 53  1  0  0  0  0
 49 70  1  0  0  0  0
 50 74  1  0  0  0  0
 52 69  1  0  0  0  0
 53 68  1  0  0  0  0
 54 61  1  0  0  0  0
 54 84  1  0  0  0  0
 55 63  1  0  0  0  0
 56 64  1  0  0  0  0
 57 64  1  0  0  0  0
 58 64  1  0  0  0  0
 59 76  1  0  0  0  0
 60 84  1  0  0  0  0
 61 83  1  0  0  0  0
 62 64  1  0  0  0  0
 62 75  1  0  0  0  0
 63 76  1  0  0  0  0
 66 68  1  0  0  0  0
M  CHG  1  76   1
M  ISO  4  36 100  61 101  73 100  83 101
M  END
> <Batch ID>
0163

> <Smiles>
CNC(C)C(=O)NC(C(=O)N1Cc2cc([101O:1][101CH2:1]C3(OC)CCC(c4nccc([100NH:0][100C:0](=O)N5CCCC(n6nc(-c7ccc(Oc8ccc(F)cc8F)cc7)c(C(N)=O)c6N)C5)n4)CC3)ccc2CC1C(=O)NC1CCCc2ccccc21)C(C)(C)C

> <Shape>
0.232

> <Color>
0.111

> <Negative vol penalty>
0.000

$$$$

  -OEChem-04052303593D

 83 91  0     1  0  0  0  0  0999 V2000
  -27.4373  -38.1692   22.0940 C   0  0  0  0  0  0  0  0  0  0  0  0
  -27.8644  -37.1487   21.2505 C   0  0  0  0  0  0  0  0  0  0  0  0
  -26.3694   -7.0255   21.3965 C   0  0  0  0  0  0  0  0  0  0  0  0
  -24.3591   -8.3606   21.5104 C   0  0  0  0  0  0  0  0  0  0  0  0
  -26.8638  -37.8591   23.3265 C   0  0  0  0  0  0  0  0  0  0  0  0
  -27.7193  -35.8175   21.6394 C   0  0  0  0  0  0  0  0  0  0  0  0
  -26.4895  -29.3075   18.9146 C   0  0  0  0  0  0  0  0  0  0  0  0
  -25.8641   -6.1803   22.3844 C   0  0  0  0  0  0  0  0  0  0  0  0
  -23.8537   -7.5155   22.4982 C   0  0  0  0  0  0  0  0  0  0  0  0
  -27.0191  -28.0179   18.9252 C   0  0  0  0  0  0  0  0  0  0  0  0
  -22.3812   -4.4781   22.6609 C   0  0  0  0  0  0  0  0  0  0  0  0
  -21.0530   -4.0685   22.5439 C   0  0  0  0  0  0  0  0  0  0  0  0
  -25.9419  -27.5994   21.0427 C   0  0  0  0  0  0  0  0  0  0  0  0
  -26.4366  -17.9594   20.1781 C   0  0  0  0  0  0  0  0  0  0  0  0
  -20.5500   -5.0908   24.6744 C   0  0  0  0  0  0  0  0  0  0  0  0
  -24.5878  -16.7131   20.2462 C   0  0  0  0  0  0  0  0  0  0  0  0
  -25.6169   -8.1157   20.9595 C   0  0  0  0  0  0  0  0  0  0  0  0
  -25.9756   -8.8629   18.5469 C   0  0  0  0  0  0  0  0  0  0  0  0
  -26.7028  -36.5232   23.7265 C   0  0  0  0  0  0  0  0  0  0  0  0
  -25.6898  -29.7573   19.9751 C   0  0  0  0  0  0  0  0  0  0  0  0
  -27.1444  -35.4893   22.8789 C   0  0  0  0  0  0  0  0  0  0  0  0
  -25.4013  -28.8943   21.0420 C   0  0  0  0  0  0  0  0  0  0  0  0
  -25.9602  -16.6272   20.2165 C   0  0  0  0  0  0  0  0  0  0  0  0
  -24.6062   -6.4253   22.9353 C   0  0  0  0  0  0  0  0  0  0  0  0
  -26.7477  -27.1646   19.9907 C   0  0  0  0  0  0  0  0  0  0  0  0
  -22.7939   -5.1940   23.7847 C   0  0  0  0  0  0  0  0  0  0  0  0
  -20.1374   -4.3748   23.5506 C   0  0  0  0  0  0  0  0  0  0  0  0
  -21.8783   -5.5004   24.7914 C   0  0  0  0  0  0  0  0  0  0  0  0
  -26.1387   -8.9894   19.9395 C   0  0  0  0  0  0  0  0  0  0  0  0
  -26.6565   -9.9344   18.0228 C   0  0  0  0  0  0  0  0  0  0  0  0
  -25.3213  -18.7644   20.1868 C   0  0  0  0  0  0  0  0  0  0  0  0
  -26.3925  -24.8533   20.0418 C   0  0  0  0  0  0  0  0  0  1  0  0
  -25.2714   -7.8661   17.7945 C   0  0  0  0  0  0  0  0  0  0  0  0
  -26.7897  -23.5756   20.0577 C   0  0  0  0  0  0  0  0  0  0  0  0
  -25.7607  -22.4896   20.1006 C   0  0  0  0  0  0  0  0  0  0  0  0
  -25.9194  -32.0853   22.1271 C   0  0  0  0  0  0  0  0  0  0  0  0
  -22.9208  -31.1273   22.9100 C   0  0  0  0  0  0  0  0  0  0  0  0
  -20.5826  -28.6414   22.9166 C   0  0  0  0  0  0  0  0  0  0  0  0
  -28.1066  -15.3086   20.1953 C   0  0  0  0  0  0  0  0  0  0  0  0
  -26.1206  -36.2384   25.0884 C   0  0  0  0  0  0  0  0  0  0  0  0
  -25.1042  -31.1422   19.9358 C   0  0  0  0  0  0  0  0  0  0  0  0
  -24.5317  -29.3220   22.1950 C   0  0  0  0  0  0  0  0  0  0  0  0
  -25.6606  -34.7935   25.2641 C   0  0  0  0  0  0  0  0  0  0  0  0
  -30.3490  -12.8404   18.9476 C   0  0  0  0  0  0  0  0  0  0  0  0
  -26.7254  -33.8283   24.7528 C   0  0  0  0  0  0  0  0  0  0  0  0
  -29.5071  -11.5625   18.9279 C   0  0  0  0  0  0  0  0  0  0  0  0
  -30.0169  -13.7199   20.1517 C   0  0  0  0  0  0  0  0  0  0  0  0
  -27.7511  -12.7631   20.2924 C   0  0  0  0  0  0  0  0  0  0  0  0
  -26.9814  -34.0325   23.2547 C   0  0  1  0  0  0  0  0  0  0  0  0
  -24.7247  -31.6698   21.3160 C   0  0  1  0  0  0  0  0  0  0  0  0
  -28.0040  -11.8758   19.0626 C   0  0  2  0  0  0  0  0  0  0  0  0
  -18.2381  -28.1442   23.6604 C   0  0  0  0  0  0  0  0  0  0  0  0
  -23.8945  -30.8545   25.7888 C   0  0  0  0  0  0  0  0  0  0  0  0
  -21.8551  -29.4860   26.2753 C   0  0  0  0  0  0  0  0  0  0  0  0
  -21.6174  -31.8605   25.5486 C   0  0  0  0  0  0  0  0  0  0  0  0
  -19.6875  -28.1293   20.1425 C   0  0  0  0  0  0  0  0  0  0  0  0
  -26.2815  -21.0663   20.1166 C   0  0  0  0  0  0  0  0  0  0  0  0
  -22.3373  -30.1156   23.8665 C   0  0  1  0  0  0  0  0  0  0  0  0
  -19.1171  -28.6359   22.5209 C   0  0  2  0  0  0  0  0  0  0  0  0
  -22.4441  -30.5714   25.3492 C   0  0  0  0  0  0  0  0  0  0  0  0
  -26.8663  -10.0569   20.2786 N   0  0  0  0  0  0  0  0  0  0  0  0
  -27.1665  -10.6110   19.0916 N   0  0  0  0  0  0  0  0  0  0  0  0
  -23.9877  -30.6876   22.1137 N   0  0  0  0  0  0  0  0  0  0  0  0
  -28.5766  -13.9783   20.2123 N   0  0  0  0  0  0  0  0  0  0  0  0
  -26.8629  -10.3544   16.7565 N   0  0  0  0  0  0  0  0  0  0  0  0
  -24.6268   -6.8347   18.4910 N   0  0  0  0  0  0  0  0  0  0  0  0
  -26.7177  -15.4298   20.2242 N   0  0  0  0  0  0  0  0  0  0  0  0
  -25.1748  -20.1432   20.1613 N   0  0  0  0  0  0  0  0  0  0  0  0
  -25.9263  -33.4229   22.4740 N   0  0  0  0  0  0  0  0  0  0  0  0
  -20.9726  -29.8665   23.4148 N   0  0  0  0  0  0  0  0  0  0  0  0
  -18.9016  -27.7474   21.3440 N   0  3  0  0  0  0  0  0  0  0  0  0
  -25.2294   -7.8801   16.5409 O   0  0  0  0  0  0  0  0  0  0  0  0
  -24.5595  -22.7526   20.1212 O   0  0  0  0  0  0  0  0  0  0  0  0
  -26.7711  -31.2536   22.4180 O   0  0  0  0  0  0  0  0  0  0  0  0
  -22.4428  -32.2635   22.8658 O   0  0  0  0  0  0  0  0  0  0  0  0
  -21.3079  -27.6561   22.7992 O   0  0  0  0  0  0  0  0  0  0  0  0
  -28.8785  -16.2688   20.1305 O   0  0  0  0  0  0  0  0  0  0  0  0
  -24.1902  -18.0124   20.2282 O   0  0  0  0  0  0  0  0  0  0  0  0
  -28.1173  -23.2061   20.0368 O   0  0  0  0  0  0  0  0  0  0  0  0
  -24.1127   -5.6006   23.8991 O   0  0  0  0  0  0  0  0  0  0  0  0
  -27.2638  -25.9055   20.0039 O   0  0  0  0  0  0  0  0  0  1  0  0
  -18.8616   -3.9828   23.4374 F   0  0  0  0  0  0  0  0  0  0  0  0
  -22.2685   -6.1890   25.8728 F   0  0  0  0  0  0  0  0  0  0  0  0
  1  2  1  0  0  0  0
  1  5  2  0  0  0  0
  2  6  2  0  0  0  0
  3  8  2  0  0  0  0
  3 17  1  0  0  0  0
  4  9  1  0  0  0  0
  4 17  2  0  0  0  0
  5 19  1  0  0  0  0
  6 21  1  0  0  0  0
  7 10  2  0  0  0  0
  7 20  1  0  0  0  0
  8 24  1  0  0  0  0
  9 24  2  0  0  0  0
 10 25  1  0  0  0  0
 11 12  2  0  0  0  0
 11 26  1  0  0  0  0
 12 27  1  0  0  0  0
 13 22  1  0  0  0  0
 13 25  2  0  0  0  0
 14 23  1  0  0  0  0
 14 31  2  0  0  0  0
 15 27  2  0  0  0  0
 15 28  1  0  0  0  0
 16 23  2  0  0  0  0
 16 78  1  0  0  0  0
 17 29  1  0  0  0  0
 18 29  1  0  0  0  0
 18 30  2  0  0  0  0
 18 33  1  0  0  0  0
 19 21  2  0  0  0  0
 19 40  1  0  0  0  0
 20 22  2  0  0  0  0
 20 41  1  0  0  0  0
 21 49  1  0  0  0  0
 22 42  1  0  0  0  0
 23 67  1  0  0  0  0
 24 80  1  0  0  0  0
 25 81  1  0  0  0  0
 26 28  2  0  0  0  0
 26 80  1  0  0  0  0
 27 82  1  0  0  0  0
 28 83  1  0  0  0  0
 29 61  2  0  0  0  0
 30 62  1  0  0  0  0
 30 65  1  0  0  0  0
 31 68  1  0  0  0  0
 31 78  1  0  0  0  0
 32 34  2  0  0  0  0
 32 81  1  0  0  0  0
 33 66  1  0  0  0  0
 33 72  2  0  0  0  0
 34 35  1  0  0  0  0
 34 79  1  0  0  0  0
 35 57  1  0  0  0  0
 35 73  2  0  0  0  0
 36 50  1  0  0  0  0
 36 69  1  0  0  0  0
 36 74  2  0  0  0  0
 37 58  1  0  0  0  0
 37 63  1  0  0  0  0
 37 75  2  0  0  0  0
 38 59  1  0  0  0  0
 38 70  1  0  0  0  0
 38 76  2  0  0  0  0
 39 64  1  0  0  0  0
 39 67  1  0  0  0  0
 39 77  2  0  0  0  0
 40 43  1  0  0  0  0
 41 50  1  0  0  0  0
 42 63  1  0  0  0  0
 43 45  1  0  0  0  0
 44 46  1  0  0  0  0
 44 47  1  0  0  0  0
 45 49  1  0  0  0  0
 46 51  1  0  0  0  0
 47 64  1  0  0  0  0
 48 51  1  0  0  0  0
 48 64  1  0  0  0  0
 49 69  1  0  0  0  0
 50 63  1  0  0  0  0
 51 62  1  0  0  0  0
 52 59  1  0  0  0  0
 53 60  1  0  0  0  0
 54 60  1  0  0  0  0
 55 60  1  0  0  0  0
 56 71  1  0  0  0  0
 57 68  1  0  0  0  0
 58 60  1  0  0  0  0
 58 70  1  0  0  0  0
 59 71  1  0  0  0  0
 61 62  1  0  0  0  0
M  CHG  1  71   1
M  ISO  4  32 101  39 100  67 100  81 101
M  END
> <Batch ID>
0163

> <Smiles>
CNC(C)C(=O)NC(C(=O)N1Cc2cc([101O:1][101CH2:1]C(=O)C(=O)CNc3cc([100NH:0][100C:0](=O)N4CCCC(n5nc(-c6ccc(Oc7ccc(F)cc7F)cc6)c(C(N)=O)c5N)C4)co3)ccc2CC1C(=O)NC1CCCc2ccccc21)C(C)(C)C

> <Shape>
0.260

> <Color>
0.082

> <Negative vol penalty>
0.000

$$$$

  -OEChem-04052303593D

 84 92  0     1  0  0  0  0  0999 V2000
  -29.0159  -11.1564   20.0651 C   0  0  0  0  0  0  0  0  0  0  0  0
  -29.0682  -12.4975   19.6988 C   0  0  0  0  0  0  0  0  0  0  0  0
  -19.7576  -28.6156   23.4572 C   0  0  0  0  0  0  0  0  0  0  0  0
  -20.8181  -26.7725   22.3103 C   0  0  0  0  0  0  0  0  0  0  0  0
  -27.8000  -10.5828   20.4347 C   0  0  0  0  0  0  0  0  0  0  0  0
  -27.9043  -13.2655   19.7010 C   0  0  0  0  0  0  0  0  0  0  0  0
  -28.5813  -17.8126   21.8249 C   0  0  0  0  0  0  0  0  0  0  0  0
  -18.5543  -28.3224   22.8156 C   0  0  0  0  0  0  0  0  0  0  0  0
  -19.6148  -26.4793   21.6687 C   0  0  0  0  0  0  0  0  0  0  0  0
  -29.2144  -18.7872   21.0547 C   0  0  0  0  0  0  0  0  0  0  0  0
  -16.7307  -25.0225   20.0020 C   0  0  0  0  0  0  0  0  0  0  0  0
  -16.3351  -23.6863   19.9430 C   0  0  0  0  0  0  0  0  0  0  0  0
  -30.1872  -28.8989   20.0047 C   0  0  0  0  0  0  0  0  0  0  0  0
  -27.0695  -19.7603   20.5336 C   0  0  0  0  0  0  0  0  0  0  0  0
  -16.3114  -23.5867   22.3569 C   0  0  0  0  0  0  0  0  0  0  0  0
  -20.8896  -27.8406   23.2045 C   0  0  0  0  0  0  0  0  0  0  0  0
  -30.8062  -27.7865   19.3862 C   0  0  0  0  0  0  0  0  0  0  0  0
  -22.5852  -27.6360   25.0994 C   0  0  0  0  0  0  0  0  0  0  0  0
  -26.6224  -11.3467   20.4507 C   0  0  0  0  0  0  0  0  0  0  0  0
  -27.1844  -17.7980   21.9465 C   0  0  0  0  0  0  0  0  0  0  0  0
  -26.6714  -12.7013   20.0699 C   0  0  0  0  0  0  0  0  0  0  0  0
  -26.4213  -18.7860   21.3080 C   0  0  0  0  0  0  0  0  0  0  0  0
  -18.4828  -27.2543   21.9214 C   0  0  0  0  0  0  0  0  0  0  0  0
  -28.4584  -19.7595   20.4066 C   0  0  0  0  0  0  0  0  0  0  0  0
  -16.9167  -25.6409   21.2385 C   0  0  0  0  0  0  0  0  0  0  0  0
  -16.1254  -22.9683   21.1204 C   0  0  0  0  0  0  0  0  0  0  0  0
  -16.7071  -24.9229   22.4159 C   0  0  0  0  0  0  0  0  0  0  0  0
  -22.1331  -28.1433   23.8665 C   0  0  0  0  0  0  0  0  0  0  0  0
  -23.8118  -28.2257   25.2842 C   0  0  0  0  0  0  0  0  0  0  0  0
  -28.9516  -28.4640   20.4243 C   0  0  0  0  0  0  0  0  0  0  0  0
  -29.9049  -26.7511   19.4722 C   0  0  0  0  0  0  0  0  0  0  0  0
  -32.1054  -27.7176   18.7834 C   0  0  0  0  0  0  0  0  0  0  0  0
  -21.9530  -26.7141   25.9972 C   0  0  0  0  0  0  0  0  0  0  0  0
  -24.8864  -15.7440   21.1692 C   0  0  0  0  0  0  0  0  0  0  0  0
  -29.4532  -23.0864   19.3556 C   0  0  0  0  0  0  0  0  0  0  0  0
  -22.9988  -17.8611   22.7432 C   0  0  0  0  0  0  0  0  0  0  0  0
  -22.5175  -21.0576   23.8374 C   0  0  0  0  0  0  0  0  0  0  0  0
  -27.8751  -30.4624   21.5170 C   0  0  0  0  0  0  0  0  0  0  0  0
  -25.3235  -10.6707   20.8120 C   0  0  0  0  0  0  0  0  0  0  0  0
  -26.5185  -16.7559   22.8027 C   0  0  0  0  0  0  0  0  0  0  0  0
  -24.9201  -18.8264   21.4232 C   0  0  0  0  0  0  0  0  0  0  0  0
  -24.2008  -11.6488   21.1484 C   0  0  0  0  0  0  0  0  0  0  0  0
  -26.2661  -32.1879   24.1836 C   0  0  0  0  0  0  0  0  0  0  0  0
  -24.1335  -12.7625   20.1082 C   0  0  0  0  0  0  0  0  0  0  0  0
  -25.0682  -31.2973   24.5212 C   0  0  0  0  0  0  0  0  0  0  0  0
  -26.5500  -32.2117   22.6828 C   0  0  0  0  0  0  0  0  0  0  0  0
  -25.5024  -30.0005   22.3959 C   0  0  0  0  0  0  0  0  0  0  0  0
  -25.4347  -13.5735   20.0834 C   0  0  1  0  0  0  0  0  0  0  0  0
  -25.0543  -16.5300   22.4387 C   0  0  1  0  0  0  0  0  0  0  0  0
  -25.2178  -29.8934   23.9029 C   0  0  2  0  0  0  0  0  0  0  0  0
  -32.9595  -28.9637   18.7834 C   0  0  0  0  0  0  0  0  0  0  0  0
  -20.8623  -22.4924   25.0618 C   0  0  0  0  0  0  0  0  0  0  0  0
  -21.2407  -17.9553   20.2512 C   0  0  0  0  0  0  0  0  0  0  0  0
  -20.2008  -20.0483   21.1489 C   0  0  0  0  0  0  0  0  0  0  0  0
  -19.9843  -17.9088   22.4131 C   0  0  0  0  0  0  0  0  0  0  0  0
  -24.4569  -21.6600   25.9902 C   0  0  0  0  0  0  0  0  0  0  0  0
  -28.8876  -24.4854   19.2326 C   0  0  0  0  0  0  0  0  0  0  0  0
  -28.4336  -21.9838   19.5654 C   0  0  0  0  0  0  0  0  0  1  0  0
  -22.2175  -19.0925   22.3532 C   0  0  1  0  0  0  0  0  0  0  0  0
  -22.0923  -21.6070   25.1872 C   0  0  2  0  0  0  0  0  0  0  0  0
  -20.9390  -18.7496   21.5376 C   0  0  0  0  0  0  0  0  0  0  0  0
  -23.0017  -28.9902   23.3077 N   0  0  0  0  0  0  0  0  0  0  0  0
  -24.0119  -29.0196   24.1935 N   0  0  0  0  0  0  0  0  0  0  0  0
  -24.3150  -17.7823   22.2666 N   0  0  0  0  0  0  0  0  0  0  0  0
  -26.6838  -30.8473   22.1676 N   0  0  0  0  0  0  0  0  0  0  0  0
  -24.7280  -28.1373   26.2718 N   0  0  0  0  0  0  0  0  0  0  0  0
  -20.6935  -26.2041   25.6537 N   0  0  0  0  0  0  0  0  0  0  0  0
  -27.9000  -29.1323   21.0991 N   0  0  0  0  0  0  0  0  0  0  0  0
  -29.9568  -25.4322   19.0442 N   0  0  0  0  0  0  0  0  0  0  0  0
  -25.4771  -14.4952   21.1984 N   0  0  0  0  0  0  0  0  0  0  0  0
  -21.9595  -19.8211   23.5905 N   0  0  0  0  0  0  0  0  0  0  0  0
  -23.1924  -22.4131   25.7881 N   0  3  0  0  0  0  0  0  0  0  0  0
  -32.6050  -26.7123   18.2459 O   0  0  0  0  0  0  0  0  0  0  0  0
  -22.4818  -26.3659   27.0801 O   0  0  0  0  0  0  0  0  0  0  0  0
  -24.2655  -16.2337   20.2330 O   0  0  0  0  0  0  0  0  0  0  0  0
  -30.6586  -22.8481   19.2915 O   0  0  0  0  0  0  0  0  0  0  0  0
  -22.4634  -17.0042   23.4507 O   0  0  0  0  0  0  0  0  0  0  0  0
  -23.2664  -21.6663   23.0764 O   0  0  0  0  0  0  0  0  0  0  0  0
  -28.8155  -31.2468   21.3676 O   0  0  0  0  0  0  0  0  0  0  0  0
  -28.7718  -27.1558   20.1037 O   0  0  0  0  0  0  0  0  0  0  0  0
  -17.3087  -26.9678   21.2954 O   0  0  0  0  0  0  0  0  0  0  0  0
  -29.0738  -20.7115   19.6537 O   0  0  0  0  0  0  0  0  0  1  0  0
  -15.7441  -21.6856   21.0636 F   0  0  0  0  0  0  0  0  0  0  0  0
  -16.8831  -25.5119   23.6066 F   0  0  0  0  0  0  0  0  0  0  0  0
  1  2  1  0  0  0  0
  1  5  2  0  0  0  0
  2  6  2  0  0  0  0
  3  8  2  0  0  0  0
  3 16  1  0  0  0  0
  4  9  1  0  0  0  0
  4 16  2  0  0  0  0
  5 19  1  0  0  0  0
  6 21  1  0  0  0  0
  7 10  2  0  0  0  0
  7 20  1  0  0  0  0
  8 23  1  0  0  0  0
  9 23  2  0  0  0  0
 10 24  1  0  0  0  0
 11 12  2  0  0  0  0
 11 25  1  0  0  0  0
 12 26  1  0  0  0  0
 13 17  1  0  0  0  0
 13 30  2  0  0  0  0
 14 22  1  0  0  0  0
 14 24  2  0  0  0  0
 15 26  2  0  0  0  0
 15 27  1  0  0  0  0
 16 28  1  0  0  0  0
 17 31  2  0  0  0  0
 17 32  1  0  0  0  0
 18 28  1  0  0  0  0
 18 29  2  0  0  0  0
 18 33  1  0  0  0  0
 19 21  2  0  0  0  0
 19 39  1  0  0  0  0
 20 22  2  0  0  0  0
 20 40  1  0  0  0  0
 21 48  1  0  0  0  0
 22 41  1  0  0  0  0
 23 81  1  0  0  0  0
 24 82  1  0  0  0  0
 25 27  2  0  0  0  0
 25 81  1  0  0  0  0
 26 83  1  0  0  0  0
 27 84  1  0  0  0  0
 28 62  2  0  0  0  0
 29 63  1  0  0  0  0
 29 66  1  0  0  0  0
 30 68  1  0  0  0  0
 30 80  1  0  0  0  0
 31 69  1  0  0  0  0
 31 80  1  0  0  0  0
 32 51  1  0  0  0  0
 32 73  2  0  0  0  0
 33 67  1  0  0  0  0
 33 74  2  0  0  0  0
 34 49  1  0  0  0  0
 34 70  1  0  0  0  0
 34 75  2  0  0  0  0
 35 57  1  0  0  0  0
 35 58  1  0  0  0  0
 35 76  2  0  0  0  0
 36 59  1  0  0  0  0
 36 64  1  0  0  0  0
 36 77  2  0  0  0  0
 37 60  1  0  0  0  0
 37 71  1  0  0  0  0
 37 78  2  0  0  0  0
 38 65  1  0  0  0  0
 38 68  1  0  0  0  0
 38 79  2  0  0  0  0
 39 42  1  0  0  0  0
 40 49  1  0  0  0  0
 41 64  1  0  0  0  0
 42 44  1  0  0  0  0
 43 45  1  0  0  0  0
 43 46  1  0  0  0  0
 44 48  1  0  0  0  0
 45 50  1  0  0  0  0
 46 65  1  0  0  0  0
 47 50  1  0  0  0  0
 47 65  1  0  0  0  0
 48 70  1  0  0  0  0
 49 64  1  0  0  0  0
 50 63  1  0  0  0  0
 52 60  1  0  0  0  0
 53 61  1  0  0  0  0
 54 61  1  0  0  0  0
 55 61  1  0  0  0  0
 56 72  1  0  0  0  0
 57 69  1  0  0  0  0
 58 82  1  0  0  0  0
 59 61  1  0  0  0  0
 59 71  1  0  0  0  0
 60 72  1  0  0  0  0
 62 63  1  0  0  0  0
M  CHG  1  72   1
M  ISO  4  38 100  58 101  68 100  82 101
M  END
> <Batch ID>
0163

> <Smiles>
CNC(C)C(=O)NC(C(=O)N1Cc2cc([101O:1][101CH2:1]C(=O)CNc3oc([100NH:0][100C:0](=O)N4CCCC(n5nc(-c6ccc(Oc7ccc(F)cc7F)cc6)c(C(N)=O)c5N)C4)cc3C(C)=O)ccc2CC1C(=O)NC1CCCc2ccccc21)C(C)(C)C

> <Shape>
0.248

> <Color>
0.084

> <Negative vol penalty>
0.000

$$$$

  -OEChem-04052303593D

 85 93  0     1  0  0  0  0  0999 V2000
  -22.4986   -8.2271   22.0118 C   0  0  0  0  0  0  0  0  0  0  0  0
  -23.3696   -9.0048   21.2555 C   0  0  0  0  0  0  0  0  0  0  0  0
  -25.7964  -19.6718   13.7261 C   0  0  0  0  0  0  0  0  0  0  0  0
  -24.8201  -30.0812   20.3507 C   0  0  0  0  0  0  0  0  0  0  0  0
  -24.0626  -28.3224   21.8237 C   0  0  0  0  0  0  0  0  0  0  0  0
  -26.7764  -19.0690   14.5146 C   0  0  0  0  0  0  0  0  0  0  0  0
  -21.3193   -8.7833   22.5056 C   0  0  0  0  0  0  0  0  0  0  0  0
  -23.0612  -10.3388   20.9916 C   0  0  0  0  0  0  0  0  0  0  0  0
  -27.0298  -13.4160   21.6448 C   0  0  0  0  0  0  0  0  0  0  0  0
  -24.9178  -20.5963   14.2910 C   0  0  0  0  0  0  0  0  0  0  0  0
  -24.4630  -31.0340   21.3047 C   0  0  0  0  0  0  0  0  0  0  0  0
  -23.7056  -29.2753   22.7778 C   0  0  0  0  0  0  0  0  0  0  0  0
  -27.9870  -13.4443   20.6315 C   0  0  0  0  0  0  0  0  0  0  0  0
  -24.0844  -33.9082   23.4980 C   0  0  0  0  0  0  0  0  0  0  0  0
  -24.9900  -34.9368   23.7578 C   0  0  0  0  0  0  0  0  0  0  0  0
  -27.0170  -15.4824   19.7804 C   0  0  0  0  0  0  0  0  0  0  0  0
  -26.6419  -33.3105   24.4385 C   0  0  0  0  0  0  0  0  0  0  0  0
  -24.6198  -28.7253   20.6102 C   0  0  0  0  0  0  0  0  0  0  0  0
  -26.8777  -19.3905   15.8681 C   0  0  0  0  0  0  0  0  0  0  0  0
  -26.2313  -27.0939   19.4925 C   0  0  0  0  0  0  0  0  0  0  0  0
  -21.0010  -10.1275   22.2558 C   0  0  0  0  0  0  0  0  0  0  0  0
  -26.0506  -14.4164   21.7271 C   0  0  0  0  0  0  0  0  0  0  0  0
  -21.8759  -10.9131   21.4814 C   0  0  0  0  0  0  0  0  0  0  0  0
  -26.0500  -15.4658   20.7972 C   0  0  0  0  0  0  0  0  0  0  0  0
  -25.9991  -20.3150   16.4331 C   0  0  0  0  0  0  0  0  0  0  0  0
  -25.0191  -20.9178   15.6445 C   0  0  0  0  0  0  0  0  0  0  0  0
  -23.9058  -30.6311   22.5182 C   0  0  0  0  0  0  0  0  0  0  0  0
  -27.9790  -14.4761   19.6974 C   0  0  0  0  0  0  0  0  0  0  0  0
  -24.4575  -32.5807   23.7086 C   0  0  0  0  0  0  0  0  0  0  0  0
  -26.2687  -34.6379   24.2280 C   0  0  0  0  0  0  0  0  0  0  0  0
  -25.7362  -32.2819   24.1788 C   0  0  0  0  0  0  0  0  0  0  0  0
  -24.9879  -27.7406   19.6248 C   0  0  0  0  0  0  0  0  0  0  0  0
  -26.0709  -26.2586   18.4141 C   0  0  0  0  0  0  0  0  0  0  0  0
  -27.9237  -18.7388   16.6827 C   0  0  0  0  0  0  0  0  0  0  0  0
  -27.4247  -27.2356   20.2745 C   0  0  0  0  0  0  0  0  0  0  0  0
  -22.8773  -14.4691   21.5513 C   0  0  0  0  0  0  0  0  0  0  0  0
  -23.2736  -17.5873   22.3527 C   0  0  0  0  0  0  0  0  0  0  0  0
  -25.3047  -20.3293   22.4061 C   0  0  0  0  0  0  0  0  0  0  0  0
  -28.8356  -16.5879   17.5303 C   0  0  0  0  0  0  0  0  0  0  0  0
  -23.0924  -22.5372   15.5361 C   0  0  0  0  0  0  0  0  0  0  0  0
  -19.6919  -10.6713   22.7708 C   0  0  0  0  0  0  0  0  0  0  0  0
  -25.0414  -14.3859   22.8420 C   0  0  0  0  0  0  0  0  0  0  0  0
  -25.0326  -16.5750   20.8538 C   0  0  0  0  0  0  0  0  0  0  0  0
  -19.6201  -12.1961   22.7621 C   0  0  0  0  0  0  0  0  0  0  0  0
  -22.3537  -25.9771   14.9899 C   0  0  0  0  0  0  0  0  0  0  0  0
  -20.1204  -12.7465   21.4304 C   0  0  0  0  0  0  0  0  0  0  0  0
  -23.0755  -26.6894   16.1362 C   0  0  0  0  0  0  0  0  0  0  0  0
  -21.7684  -24.6376   15.4336 C   0  0  0  0  0  0  0  0  0  0  0  0
  -23.4429  -24.4409   17.2299 C   0  0  0  0  0  0  0  0  0  0  0  0
  -21.5884  -12.3709   21.1947 C   0  0  1  0  0  0  0  0  0  0  0  0
  -23.7764  -15.1775   22.5246 C   0  0  1  0  0  0  0  0  0  0  0  0
  -24.1051  -25.7648   16.8147 C   0  0  2  0  0  0  0  0  0  0  0  0
  -26.1089  -20.6554   17.8866 C   0  0  0  0  0  0  0  0  0  0  0  0
  -25.3369  -22.7439   23.0891 C   0  0  0  0  0  0  0  0  0  0  0  0
  -29.3056  -14.4390   16.3519 C   0  0  0  0  0  0  0  0  0  0  0  0
  -21.5985  -18.2998   19.9040 C   0  0  0  0  0  0  0  0  0  0  0  0
  -22.4487  -20.6472   20.0919 C   0  0  0  0  0  0  0  0  0  0  0  0
  -21.0979  -19.6599   21.9421 C   0  0  0  0  0  0  0  0  0  0  0  0
  -27.5126  -19.8774   24.3244 C   0  0  0  0  0  0  0  0  0  0  0  0
  -23.4733  -18.8715   21.5845 C   0  0  1  0  0  0  0  0  0  0  0  0
  -25.6382  -21.3144   23.5120 C   0  0  2  0  0  0  0  0  0  0  0  0
  -28.5281  -15.1077   17.4714 C   0  0  1  0  0  0  0  0  0  1  0  0
  -22.1727  -19.3478   20.8781 C   0  0  0  0  0  0  0  0  0  0  0  0
  -24.1029  -27.3498   18.7040 N   0  0  0  0  0  0  0  0  0  0  0  0
  -24.7911  -26.4486   17.9826 N   0  0  0  0  0  0  0  0  0  0  0  0
  -24.0627  -16.4974   21.9587 N   0  0  0  0  0  0  0  0  0  0  0  0
  -22.8022  -23.8133   16.0635 N   0  0  0  0  0  0  0  0  0  0  0  0
  -26.9012  -25.3876   17.8022 N   0  0  0  0  0  0  0  0  0  0  0  0
  -27.4175  -28.1379   21.3469 N   0  0  0  0  0  0  0  0  0  0  0  0
  -24.1159  -21.8592   16.1974 N   0  0  0  0  0  0  0  0  0  0  0  0
  -27.9038  -17.4026   16.7843 N   0  0  0  0  0  0  0  0  0  0  0  0
  -22.4596  -13.2223   21.9761 N   0  0  0  0  0  0  0  0  0  0  0  0
  -24.0245  -19.8331   22.5332 N   0  0  0  0  0  0  0  0  0  0  0  0
  -28.8282  -19.5205   17.2717 N   0  3  0  0  0  0  0  0  0  0  0  0
  -27.0825  -21.2241   23.8680 N   0  3  0  0  0  0  0  0  0  0  0  0
  -28.4716  -26.5935   20.0195 O   0  0  0  0  0  0  0  0  0  0  0  0
  -22.5830  -15.0140   20.4939 O   0  0  0  0  0  0  0  0  0  0  0  0
  -22.4530  -17.5545   23.2731 O   0  0  0  0  0  0  0  0  0  0  0  0
  -26.0990  -20.0328   21.5164 O   0  0  0  0  0  0  0  0  0  0  0  0
  -29.7607  -17.0850   18.1574 O   0  0  0  0  0  0  0  0  0  0  0  0
  -22.4969  -22.0909   14.5522 O   0  0  0  0  0  0  0  0  0  0  0  0
  -23.5575  -31.5606   23.4495 O   0  0  0  0  0  0  0  0  0  0  0  0
  -28.9118  -14.5058   18.7071 O   0  0  0  0  0  0  0  0  0  1  0  0
  -27.1388  -35.6257   24.4759 F   0  0  0  0  0  0  0  0  0  0  0  0
  -26.1008  -31.0084   24.3819 F   0  0  0  0  0  0  0  0  0  0  0  0
  1  2  1  0  0  0  0
  1  7  2  0  0  0  0
  2  8  2  0  0  0  0
  3  6  2  0  0  0  0
  3 10  1  0  0  0  0
  4 11  2  0  0  0  0
  4 18  1  0  0  0  0
  5 12  1  0  0  0  0
  5 18  2  0  0  0  0
  6 19  1  0  0  0  0
  7 21  1  0  0  0  0
  8 23  1  0  0  0  0
  9 13  2  0  0  0  0
  9 22  1  0  0  0  0
 10 26  2  0  0  0  0
 11 27  1  0  0  0  0
 12 27  2  0  0  0  0
 13 28  1  0  0  0  0
 14 15  2  0  0  0  0
 14 29  1  0  0  0  0
 15 30  1  0  0  0  0
 16 24  1  0  0  0  0
 16 28  2  0  0  0  0
 17 30  2  0  0  0  0
 17 31  1  0  0  0  0
 18 32  1  0  0  0  0
 19 25  2  0  0  0  0
 19 34  1  0  0  0  0
 20 32  1  0  0  0  0
 20 33  2  0  0  0  0
 20 35  1  0  0  0  0
 21 23  2  0  0  0  0
 21 41  1  0  0  0  0
 22 24  2  0  0  0  0
 22 42  1  0  0  0  0
 23 50  1  0  0  0  0
 24 43  1  0  0  0  0
 25 26  1  0  0  0  0
 25 53  1  0  0  0  0
 26 70  1  0  0  0  0
 27 82  1  0  0  0  0
 28 83  1  0  0  0  0
 29 31  2  0  0  0  0
 29 82  1  0  0  0  0
 30 84  1  0  0  0  0
 31 85  1  0  0  0  0
 32 64  2  0  0  0  0
 33 65  1  0  0  0  0
 33 68  1  0  0  0  0
 34 71  1  0  0  0  0
 34 74  2  0  0  0  0
 35 69  1  0  0  0  0
 35 76  2  0  0  0  0
 36 51  1  0  0  0  0
 36 72  1  0  0  0  0
 36 77  2  0  0  0  0
 37 60  1  0  0  0  0
 37 66  1  0  0  0  0
 37 78  2  0  0  0  0
 38 61  1  0  0  0  0
 38 73  1  0  0  0  0
 38 79  2  0  0  0  0
 39 62  1  0  0  0  0
 39 71  1  0  0  0  0
 39 80  2  0  0  0  0
 40 67  1  0  0  0  0
 40 70  1  0  0  0  0
 40 81  2  0  0  0  0
 41 44  1  0  0  0  0
 42 51  1  0  0  0  0
 43 66  1  0  0  0  0
 44 46  1  0  0  0  0
 45 47  1  0  0  0  0
 45 48  1  0  0  0  0
 46 50  1  0  0  0  0
 47 52  1  0  0  0  0
 48 67  1  0  0  0  0
 49 52  1  0  0  0  0
 49 67  1  0  0  0  0
 50 72  1  0  0  0  0
 51 66  1  0  0  0  0
 52 65  1  0  0  0  0
 54 61  1  0  0  0  0
 55 62  1  0  0  0  0
 56 63  1  0  0  0  0
 57 63  1  0  0  0  0
 58 63  1  0  0  0  0
 59 75  1  0  0  0  0
 60 63  1  0  0  0  0
 60 73  1  0  0  0  0
 61 75  1  0  0  0  0
 62 83  1  0  0  0  0
 64 65  1  0  0  0  0
M  CHG  2  74   1  75   1
M  ISO  4  40 100  62 101  70 100  83 101
M  END
> <Batch ID>
0163

> <Smiles>
CNC(C)C(=O)NC(C(=O)N1Cc2cc([101O:1][101CH:1](C)C(=O)NC(=N)c3cccc([100NH:0][100C:0](=O)N4CCCC(n5nc(-c6ccc(Oc7ccc(F)cc7F)cc6)c(C(N)=O)c5N)C4)c3C)ccc2CC1C(=O)NC1CCCc2ccccc21)C(C)(C)C

> <Shape>
0.195

> <Color>
0.073

> <Negative vol penalty>
0.000

$$$$

  -OEChem-04052303593D

 91100  0     1  0  0  0  0  0999 V2000
  -40.5167  -20.2312   21.9699 C   0  0  0  0  0  0  0  0  0  0  0  0
  -39.2143  -20.7153   22.0385 C   0  0  0  0  0  0  0  0  0  0  0  0
  -23.0769   -9.8655   19.9427 C   0  0  0  0  0  0  0  0  0  0  0  0
  -23.8348   -9.8770   22.2367 C   0  0  0  0  0  0  0  0  0  0  0  0
  -41.4611  -20.8842   21.1789 C   0  0  0  0  0  0  0  0  0  0  0  0
  -38.8558  -21.8534   21.3170 C   0  0  0  0  0  0  0  0  0  0  0  0
  -32.6453  -17.5032   23.4491 C   0  0  0  0  0  0  0  0  0  0  0  0
  -34.4211  -21.3236   18.9300 C   0  0  0  0  0  0  0  0  0  0  0  0
  -32.0594  -16.6155   22.5467 C   0  0  0  0  0  0  0  0  0  0  0  0
  -22.3332   -8.7126   20.1942 C   0  0  0  0  0  0  0  0  0  0  0  0
  -23.0911   -8.7241   22.4882 C   0  0  0  0  0  0  0  0  0  0  0  0
  -33.2649  -21.4551   19.6979 C   0  0  0  0  0  0  0  0  0  0  0  0
  -19.8627   -7.9263   23.0895 C   0  0  0  0  0  0  0  0  0  0  0  0
  -19.1048   -7.8883   24.2599 C   0  0  0  0  0  0  0  0  0  0  0  0
  -33.0016  -23.7175   18.9033 C   0  0  0  0  0  0  0  0  0  0  0  0
  -29.8741  -17.4648   23.1302 C   0  0  0  0  0  0  0  0  0  0  0  0
  -20.3463   -5.9526   25.0009 C   0  0  0  0  0  0  0  0  0  0  0  0
  -23.8277  -10.4477   20.9640 C   0  0  0  0  0  0  0  0  0  0  0  0
  -24.1688  -12.9728   20.8395 C   0  0  0  0  0  0  0  0  0  0  0  0
  -41.1115  -22.0253   20.4398 C   0  0  0  0  0  0  0  0  0  0  0  0
  -34.8830  -22.3936   18.1501 C   0  0  0  0  0  0  0  0  0  0  0  0
  -39.7967  -22.5231   20.5165 C   0  0  0  0  0  0  0  0  0  0  0  0
  -31.8457  -18.3716   24.1921 C   0  0  0  0  0  0  0  0  0  0  0  0
  -34.1625  -23.5962   18.1244 C   0  0  0  0  0  0  0  0  0  0  0  0
  -30.4601  -18.3525   24.0327 C   0  0  0  0  0  0  0  0  0  0  0  0
  -30.6738  -16.5963   22.3873 C   0  0  0  0  0  0  0  0  0  0  0  0
  -22.3403   -8.1419   21.4669 C   0  0  0  0  0  0  0  0  0  0  0  0
  -32.5566  -22.6531   19.6870 C   0  0  0  0  0  0  0  0  0  0  0  0
  -20.8624   -6.9774   22.8748 C   0  0  0  0  0  0  0  0  0  0  0  0
  -19.3466   -6.9015   25.2156 C   0  0  0  0  0  0  0  0  0  0  0  0
  -21.1042   -5.9906   23.8305 C   0  0  0  0  0  0  0  0  0  0  0  0
  -24.5966  -11.6384   20.7047 C   0  0  0  0  0  0  0  0  0  0  0  0
  -25.2610  -13.7220   20.4758 C   0  0  0  0  0  0  0  0  0  0  0  0
  -22.8978  -13.4889   21.2564 C   0  0  0  0  0  0  0  0  0  0  0  0
  -29.2305  -20.8916   22.8516 C   0  0  0  0  0  0  0  0  0  0  0  0
  -29.6119  -20.6826   24.2819 C   0  0  0  0  0  0  0  0  0  0  0  0
  -29.7783  -21.9828   21.9826 C   0  0  0  0  0  0  0  0  0  0  0  0
  -37.5256  -24.1595   18.1046 C   0  0  0  0  0  0  0  0  0  0  0  0
  -36.1838  -25.3996   15.4243 C   0  0  0  0  0  0  0  0  0  0  0  0
  -33.3534  -26.0156   13.6200 C   0  0  0  0  0  0  0  0  0  0  0  0
  -30.7267  -14.7698   20.6531 C   0  0  0  0  0  0  0  0  0  0  0  0
  -42.1790  -22.7247   19.6361 C   0  0  0  0  0  0  0  0  0  0  0  0
  -36.1171  -22.2269   17.3065 C   0  0  0  0  0  0  0  0  0  0  0  0
  -34.6051  -24.7682   17.2882 C   0  0  0  0  0  0  0  0  0  0  0  0
  -41.6223  -23.7066   18.6083 C   0  0  0  0  0  0  0  0  0  0  0  0
  -34.2342  -21.1383   25.4067 C   0  0  0  0  0  0  0  0  0  0  0  0
  -29.6151  -12.3512   18.2884 C   0  0  0  0  0  0  0  0  0  0  0  0
  -34.8822  -20.3536   26.5441 C   0  0  0  0  0  0  0  0  0  0  0  0
  -40.5452  -24.5846   19.2375 C   0  0  0  0  0  0  0  0  0  0  0  0
  -33.5074  -20.2131   24.4312 C   0  0  0  0  0  0  0  0  0  0  0  0
  -28.1752  -12.0599   18.7173 C   0  0  0  0  0  0  0  0  0  0  0  0
  -30.5291  -12.5826   19.4904 C   0  0  0  0  0  0  0  0  0  0  0  0
  -28.6207  -13.3089   20.8687 C   0  0  0  0  0  0  0  0  0  0  0  0
  -33.8762  -19.4626   27.2541 C   0  0  0  0  0  0  0  0  0  0  0  0
  -39.3631  -23.7405   19.7291 C   0  0  1  0  0  0  0  0  0  0  0  0
  -32.4958  -19.3125   25.1527 C   0  0  2  0  0  0  0  0  0  0  0  0
  -36.7804  -23.5534   16.9492 C   0  0  1  0  0  0  0  0  0  0  0  0
  -27.6490  -13.1331   19.6904 C   0  0  2  0  0  0  0  0  0  0  0  0
  -32.5698  -27.0795   11.4865 C   0  0  0  0  0  0  0  0  0  0  0  0
  -36.5487  -28.1609   16.6701 C   0  0  0  0  0  0  0  0  0  0  0  0
  -34.9327  -29.0593   14.9820 C   0  0  0  0  0  0  0  0  0  0  0  0
  -37.0810  -28.0389   14.2295 C   0  0  0  0  0  0  0  0  0  0  0  0
  -32.2569  -23.4583   12.6115 C   0  0  0  0  0  0  0  0  0  0  0  0
  -29.5775  -19.2816   24.8219 C   0  0  0  0  0  0  0  0  0  0  0  0
  -31.0272  -21.6543   21.2099 C   0  0  0  0  0  0  0  0  0  1  0  0
  -35.2487  -26.5475   15.1297 C   0  0  1  0  0  0  0  0  0  0  0  0
  -33.0238  -25.7912   12.1552 C   0  0  2  0  0  0  0  0  0  0  0  0
  -35.9453  -27.9304   15.2702 C   0  0  0  0  0  0  0  0  0  0  0  0
  -25.8619  -11.5422   20.2876 N   0  0  0  0  0  0  0  0  0  0  0  0
  -28.3726  -20.0856   22.3200 N   0  0  0  0  0  0  0  0  0  0  0  0
  -29.9279  -21.7220   24.9779 N   0  0  0  0  0  0  0  0  0  0  0  0
  -26.2384  -12.8257   20.1572 N   0  0  0  0  0  0  0  0  0  0  0  0
  -35.8213  -24.5581   16.4856 N   0  0  0  0  0  0  0  0  0  0  0  0
  -29.9690  -13.6148   20.3654 N   0  0  0  0  0  0  0  0  0  0  0  0
  -25.4710  -15.0534   20.4005 N   0  0  0  0  0  0  0  0  0  0  0  0
  -21.8859  -12.5800   21.5945 N   0  0  0  0  0  0  0  0  0  0  0  0
  -30.0783  -15.6961   21.4692 N   0  0  0  0  0  0  0  0  0  0  0  0
  -38.5227  -23.3515   18.6170 N   0  0  0  0  0  0  0  0  0  0  0  0
  -34.6916  -26.2907   13.8060 N   0  0  0  0  0  0  0  0  0  0  0  0
  -33.2153  -18.5715   26.2531 N   0  3  0  0  0  0  0  0  0  0  0  0
  -31.9361  -24.7818   12.0178 N   0  3  0  0  0  0  0  0  0  0  0  0
  -22.6610  -14.7196   21.3113 O   0  0  0  0  0  0  0  0  0  0  0  0
  -29.1864  -23.0511   21.9606 O   0  0  0  0  0  0  0  0  0  0  0  0
  -37.2197  -25.2780   18.5010 O   0  0  0  0  0  0  0  0  0  0  0  0
  -37.1950  -25.2507   14.7336 O   0  0  0  0  0  0  0  0  0  0  0  0
  -32.5075  -25.9567   14.5097 O   0  0  0  0  0  0  0  0  0  0  0  0
  -31.8561  -14.9381   20.1861 O   0  0  0  0  0  0  0  0  0  0  0  0
  -21.6145   -7.0170   21.7128 O   0  0  0  0  0  0  0  0  0  0  0  0
  -31.4281  -22.7843   20.4361 O   0  0  0  0  0  0  0  0  0  1  0  0
  -18.6198   -6.8660   26.3401 F   0  0  0  0  0  0  0  0  0  0  0  0
  -22.0640   -5.0771   23.6304 F   0  0  0  0  0  0  0  0  0  0  0  0
  1  2  1  0  0  0  0
  1  5  2  0  0  0  0
  2  6  2  0  0  0  0
  3 10  2  0  0  0  0
  3 18  1  0  0  0  0
  4 11  1  0  0  0  0
  4 18  2  0  0  0  0
  5 20  1  0  0  0  0
  6 22  1  0  0  0  0
  7  9  2  0  0  0  0
  7 23  1  0  0  0  0
  8 12  2  0  0  0  0
  8 21  1  0  0  0  0
  9 26  1  0  0  0  0
 10 27  1  0  0  0  0
 11 27  2  0  0  0  0
 12 28  1  0  0  0  0
 13 14  2  0  0  0  0
 13 29  1  0  0  0  0
 14 30  1  0  0  0  0
 15 24  1  0  0  0  0
 15 28  2  0  0  0  0
 16 25  1  0  0  0  0
 16 26  2  0  0  0  0
 17 30  2  0  0  0  0
 17 31  1  0  0  0  0
 18 32  1  0  0  0  0
 19 32  1  0  0  0  0
 19 33  2  0  0  0  0
 19 34  1  0  0  0  0
 20 22  2  0  0  0  0
 20 42  1  0  0  0  0
 21 24  2  0  0  0  0
 21 43  1  0  0  0  0
 22 55  1  0  0  0  0
 23 25  2  0  0  0  0
 23 56  1  0  0  0  0
 24 44  1  0  0  0  0
 25 64  1  0  0  0  0
 26 77  1  0  0  0  0
 27 88  1  0  0  0  0
 28 89  1  0  0  0  0
 29 31  2  0  0  0  0
 29 88  1  0  0  0  0
 30 90  1  0  0  0  0
 31 91  1  0  0  0  0
 32 69  2  0  0  0  0
 33 72  1  0  0  0  0
 33 75  1  0  0  0  0
 34 76  1  0  0  0  0
 34 82  2  0  0  0  0
 35 36  1  0  0  0  0
 35 37  1  0  0  0  0
 35 70  2  0  0  0  0
 36 64  1  0  0  0  0
 36 71  2  0  0  0  0
 37 65  1  0  0  0  0
 37 83  2  0  0  0  0
 38 57  1  0  0  0  0
 38 78  1  0  0  0  0
 38 84  2  0  0  0  0
 39 66  1  0  0  0  0
 39 73  1  0  0  0  0
 39 85  2  0  0  0  0
 40 67  1  0  0  0  0
 40 79  1  0  0  0  0
 40 86  2  0  0  0  0
 41 74  1  0  0  0  0
 41 77  1  0  0  0  0
 41 87  2  0  0  0  0
 42 45  1  0  0  0  0
 43 57  1  0  0  0  0
 44 73  1  0  0  0  0
 45 49  1  0  0  0  0
 46 48  1  0  0  0  0
 46 50  1  0  0  0  0
 47 51  1  0  0  0  0
 47 52  1  0  0  0  0
 48 54  1  0  0  0  0
 49 55  1  0  0  0  0
 50 56  1  0  0  0  0
 51 58  1  0  0  0  0
 52 74  1  0  0  0  0
 53 58  1  0  0  0  0
 53 74  1  0  0  0  0
 54 80  1  0  0  0  0
 55 78  1  0  0  0  0
 56 80  1  0  0  0  0
 57 73  1  0  0  0  0
 58 72  1  0  0  0  0
 59 67  1  0  0  0  0
 60 68  1  0  0  0  0
 61 68  1  0  0  0  0
 62 68  1  0  0  0  0
 63 81  1  0  0  0  0
 65 89  1  0  0  0  0
 66 68  1  0  0  0  0
 66 79  1  0  0  0  0
 67 81  1  0  0  0  0
 69 72  1  0  0  0  0
M  CHG  2  80   1  81   1
M  ISO  4  41 100  65 101  77 100  89 101
M  END
> <Batch ID>
0163

> <Smiles>
CNC(C)C(=O)NC(C(=O)N1Cc2cc([101O:1][101CH2:1]C(=O)C(=N)C(=N)Cc3cc([100NH:0][100C:0](=O)N4CCCC(n5nc(-c6ccc(Oc7ccc(F)cc7F)cc6)c(C(N)=O)c5N)C4)ccc3C3CCCCN3)ccc2CC1C(=O)NC1CCCc2ccccc21)C(C)(C)C

> <Shape>
0.177

> <Color>
0.170

> <Negative vol penalty>
0.000

$$$$

  -OEChem-04052303593D

 88 96  0     1  0  0  0  0  0999 V2000
  -17.3610  -14.4729   22.8652 C   0  0  0  0  0  0  0  0  0  0  0  0
  -18.2714  -15.3997   22.3676 C   0  0  0  0  0  0  0  0  0  0  0  0
  -25.1993  -28.9330   19.8892 C   0  0  0  0  0  0  0  0  0  0  0  0
  -25.5410  -29.8428   22.1011 C   0  0  0  0  0  0  0  0  0  0  0  0
  -17.8189  -13.3239   23.5086 C   0  0  0  0  0  0  0  0  0  0  0  0
  -19.6404  -15.1785   22.5140 C   0  0  0  0  0  0  0  0  0  0  0  0
  -22.2282  -16.1350   18.2675 C   0  0  0  0  0  0  0  0  0  0  0  0
  -23.9523  -29.5547   19.8261 C   0  0  0  0  0  0  0  0  0  0  0  0
  -24.2940  -30.4646   22.0380 C   0  0  0  0  0  0  0  0  0  0  0  0
  -22.4839  -17.4718   17.9651 C   0  0  0  0  0  0  0  0  0  0  0  0
  -21.0506  -29.5863   22.4120 C   0  0  0  0  0  0  0  0  0  0  0  0
  -20.2228  -29.4933   23.5307 C   0  0  0  0  0  0  0  0  0  0  0  0
  -24.7211  -17.2345   18.8356 C   0  0  0  0  0  0  0  0  0  0  0  0
  -20.2170  -31.9014   23.7265 C   0  0  0  0  0  0  0  0  0  0  0  0
  -29.0310  -23.0262   16.3798 C   0  0  0  0  0  0  0  0  0  0  0  0
  -25.9937  -29.0770   21.0268 C   0  0  0  0  0  0  0  0  0  0  0  0
  -29.2379  -21.9362   18.4222 C   0  0  0  0  0  0  0  0  0  0  0  0
  -28.5190  -28.9665   20.6830 C   0  0  0  0  0  0  0  0  0  0  0  0
  -19.1943  -13.0838   23.6545 C   0  0  0  0  0  0  0  0  0  0  0  0
  -23.2151  -15.3395   18.8672 C   0  0  0  0  0  0  0  0  0  0  0  0
  -20.1171  -14.0258   23.1612 C   0  0  0  0  0  0  0  0  0  0  0  0
  -24.4762  -15.8872   19.1422 C   0  0  0  0  0  0  0  0  0  0  0  0
  -28.4984  -22.0656   17.2112 C   0  0  0  0  0  0  0  0  0  0  0  0
  -23.4996  -30.3205   20.9005 C   0  0  0  0  0  0  0  0  0  0  0  0
  -23.7295  -18.0225   18.2518 C   0  0  0  0  0  0  0  0  0  0  0  0
  -21.4617  -30.8368   21.9505 C   0  0  0  0  0  0  0  0  0  0  0  0
  -19.8059  -30.6509   24.1880 C   0  0  0  0  0  0  0  0  0  0  0  0
  -21.0449  -31.9944   22.6078 C   0  0  0  0  0  0  0  0  0  0  0  0
  -27.2817  -28.4346   21.0928 C   0  0  0  0  0  0  0  0  0  0  0  0
  -29.4268  -27.9717   20.9529 C   0  0  0  0  0  0  0  0  0  0  0  0
  -30.3078  -22.8028   18.4702 C   0  0  0  0  0  0  0  0  0  0  0  0
  -28.9358  -21.0206   19.4947 C   0  0  0  0  0  0  0  0  0  0  0  0
  -28.8209  -30.2456   20.1098 C   0  0  0  0  0  0  0  0  0  0  0  0
  -25.4588  -20.4499   15.6921 C   0  0  0  0  0  0  0  0  0  0  0  0
  -26.6157  -21.4069   15.7067 C   0  0  0  0  0  0  0  0  0  0  0  0
  -23.4677  -13.7767   21.6235 C   0  0  0  0  0  0  0  0  0  0  0  0
  -26.2284  -12.6939   20.3088 C   0  0  0  0  0  0  0  0  0  0  0  0
  -28.7509  -13.1750   18.0611 C   0  0  0  0  0  0  0  0  0  0  0  0
  -31.0362  -22.8129   20.8494 C   0  0  0  0  0  0  0  0  0  0  0  0
  -19.6410  -11.8506   24.3991 C   0  0  0  0  0  0  0  0  0  0  0  0
  -22.9323  -13.8921   19.1626 C   0  0  0  0  0  0  0  0  0  0  0  0
  -25.5765  -15.0702   19.7671 C   0  0  0  0  0  0  0  0  0  0  0  0
  -21.1125  -11.5075   24.1820 C   0  0  0  0  0  0  0  0  0  0  0  0
  -28.9477  -23.6913   23.5898 C   0  0  0  0  0  0  0  0  0  0  0  0
  -21.9787  -12.7545   24.3291 C   0  0  0  0  0  0  0  0  0  0  0  0
  -28.4169  -25.0529   23.1425 C   0  0  0  0  0  0  0  0  0  0  0  0
  -29.0398  -22.7027   22.4270 C   0  0  0  0  0  0  0  0  0  0  0  0
  -29.2814  -24.5699   20.8208 C   0  0  0  0  0  0  0  0  0  0  0  0
  -21.6102  -13.8092   23.2787 C   0  0  1  0  0  0  0  0  0  0  0  0
  -23.8408  -13.3143   20.2435 C   0  0  1  0  0  0  0  0  0  0  0  0
  -29.2324  -25.6017   21.9584 C   0  0  1  0  0  0  0  0  0  0  0  0
  -29.4969  -18.5336   19.7726 C   0  0  0  0  0  0  0  0  0  0  0  0
  -30.8850  -12.1385   17.2433 C   0  0  0  0  0  0  0  0  0  0  0  0
  -27.6592  -13.6608   22.8243 C   0  0  0  0  0  0  0  0  0  0  0  0
  -29.8233  -13.4813   21.5782 C   0  0  0  0  0  0  0  0  0  0  0  0
  -28.4379  -11.4438   21.9683 C   0  0  0  0  0  0  0  0  0  0  0  0
  -32.7029  -23.2281   19.0536 C   0  0  0  0  0  0  0  0  0  0  0  0
  -27.6886  -12.8745   15.3152 C   0  0  0  0  0  0  0  0  0  0  0  0
  -29.9873  -19.9677   19.8962 C   0  0  0  0  0  0  0  0  0  0  0  0
  -24.1421  -20.9801   16.2159 C   0  0  0  0  0  0  0  0  0  0  0  0
  -23.2895  -19.8874   16.8430 C   0  0  0  0  0  0  0  0  0  1  0  0
  -27.6615  -13.1679   20.2899 C   0  0  1  0  0  0  0  0  0  0  0  0
  -29.3816  -12.2450   17.0404 C   0  0  2  0  0  0  0  0  0  0  0  0
  -28.3743  -12.9546   21.6552 C   0  0  0  0  0  0  0  0  0  0  0  0
  -27.3899  -27.1977   21.5853 N   0  0  0  0  0  0  0  0  0  0  0  0
  -28.7060  -26.9442   21.4867 N   0  0  0  0  0  0  0  0  0  0  0  0
  -25.2492  -13.6615   20.0430 N   0  0  0  0  0  0  0  0  0  0  0  0
  -29.7913  -23.2852   21.3061 N   0  0  0  0  0  0  0  0  0  0  0  0
  -30.7632  -27.8843   20.7831 N   0  0  0  0  0  0  0  0  0  0  0  0
  -27.7697  -31.1486   19.9000 N   0  0  0  0  0  0  0  0  0  0  0  0
  -27.3499  -21.3143   16.8693 N   0  0  0  0  0  0  0  0  0  0  0  0
  -22.1742  -13.4601   21.9924 N   0  0  0  0  0  0  0  0  0  0  0  0
  -28.3016  -12.4880   19.1690 N   0  0  0  0  0  0  0  0  0  0  0  0
  -31.3152  -23.0213   19.4815 N   0  0  0  0  0  0  0  0  0  0  0  0
  -29.1279  -12.7435   15.6591 N   0  3  0  0  0  0  0  0  0  0  0  0
  -27.8570  -21.0309   20.1248 O   0  0  0  0  0  0  0  0  0  0  0  0
  -29.9858  -30.5717   19.7779 O   0  0  0  0  0  0  0  0  0  0  0  0
  -25.6651  -19.3293   15.2516 O   0  0  0  0  0  0  0  0  0  0  0  0
  -26.7654  -22.0979   14.7127 O   0  0  0  0  0  0  0  0  0  0  0  0
  -24.2927  -14.3751   22.3039 O   0  0  0  0  0  0  0  0  0  0  0  0
  -25.9870  -11.5071   20.5435 O   0  0  0  0  0  0  0  0  0  0  0  0
  -28.6687  -14.3898   17.8941 O   0  0  0  0  0  0  0  0  0  0  0  0
  -31.8470  -22.2707   21.6101 O   0  0  0  0  0  0  0  0  0  0  0  0
  -22.2829  -30.9275   20.8392 O   0  0  0  0  0  0  0  0  0  0  0  0
  -23.9815  -19.3272   17.9582 O   0  0  0  0  0  0  0  0  0  1  0  0
  -19.0097  -30.5615   25.2614 F   0  0  0  0  0  0  0  0  0  0  0  0
  -21.4356  -33.1986   22.1684 F   0  0  0  0  0  0  0  0  0  0  0  0
  -30.4171  -23.7673   17.0595 S   0  0  0  0  0  0  0  0  0  0  0  0
  1  2  1  0  0  0  0
  1  5  2  0  0  0  0
  2  6  2  0  0  0  0
  3  8  2  0  0  0  0
  3 16  1  0  0  0  0
  4  9  1  0  0  0  0
  4 16  2  0  0  0  0
  5 19  1  0  0  0  0
  6 21  1  0  0  0  0
  7 10  2  0  0  0  0
  7 20  1  0  0  0  0
  8 24  1  0  0  0  0
  9 24  2  0  0  0  0
 10 25  1  0  0  0  0
 11 12  2  0  0  0  0
 11 26  1  0  0  0  0
 12 27  1  0  0  0  0
 13 22  1  0  0  0  0
 13 25  2  0  0  0  0
 14 27  2  0  0  0  0
 14 28  1  0  0  0  0
 15 23  2  0  0  0  0
 15 88  1  0  0  0  0
 16 29  1  0  0  0  0
 17 23  1  0  0  0  0
 17 31  2  0  0  0  0
 17 32  1  0  0  0  0
 18 29  1  0  0  0  0
 18 30  2  0  0  0  0
 18 33  1  0  0  0  0
 19 21  2  0  0  0  0
 19 40  1  0  0  0  0
 20 22  2  0  0  0  0
 20 41  1  0  0  0  0
 21 49  1  0  0  0  0
 22 42  1  0  0  0  0
 23 71  1  0  0  0  0
 24 84  1  0  0  0  0
 25 85  1  0  0  0  0
 26 28  2  0  0  0  0
 26 84  1  0  0  0  0
 27 86  1  0  0  0  0
 28 87  1  0  0  0  0
 29 65  2  0  0  0  0
 30 66  1  0  0  0  0
 30 69  1  0  0  0  0
 31 74  1  0  0  0  0
 31 88  1  0  0  0  0
 32 59  1  0  0  0  0
 32 76  2  0  0  0  0
 33 70  1  0  0  0  0
 33 77  2  0  0  0  0
 34 35  1  0  0  0  0
 34 60  1  0  0  0  0
 34 78  2  0  0  0  0
 35 71  1  0  0  0  0
 35 79  2  0  0  0  0
 36 50  1  0  0  0  0
 36 72  1  0  0  0  0
 36 80  2  0  0  0  0
 37 62  1  0  0  0  0
 37 67  1  0  0  0  0
 37 81  2  0  0  0  0
 38 63  1  0  0  0  0
 38 73  1  0  0  0  0
 38 82  2  0  0  0  0
 39 68  1  0  0  0  0
 39 74  1  0  0  0  0
 39 83  2  0  0  0  0
 40 43  1  0  0  0  0
 41 50  1  0  0  0  0
 42 67  1  0  0  0  0
 43 45  1  0  0  0  0
 44 46  1  0  0  0  0
 44 47  1  0  0  0  0
 45 49  1  0  0  0  0
 46 51  1  0  0  0  0
 47 68  1  0  0  0  0
 48 51  1  0  0  0  0
 48 68  1  0  0  0  0
 49 72  1  0  0  0  0
 50 67  1  0  0  0  0
 51 66  1  0  0  0  0
 52 59  1  0  0  0  0
 53 63  1  0  0  0  0
 54 64  1  0  0  0  0
 55 64  1  0  0  0  0
 56 64  1  0  0  0  0
 57 74  1  0  0  0  0
 58 75  1  0  0  0  0
 60 61  1  0  0  0  0
 61 85  1  0  0  0  0
 62 64  1  0  0  0  0
 62 73  1  0  0  0  0
 63 75  1  0  0  0  0
 65 66  1  0  0  0  0
M  CHG  1  75   1
M  ISO  4  39 100  61 101  74 100  85 101
M  END
> <Batch ID>
0163

> <Smiles>
CCC(=O)c1c(NC(=O)C(=O)C[101CH2:1][101O:1]c2ccc3c(c2)CN(C(=O)C(NC(=O)C(C)NC)C(C)(C)C)C(C(=O)NC2CCCc4ccccc42)C3)csc1[100N:0](C)[100C:0](=O)N1CCCC(n2nc(-c3ccc(Oc4ccc(F)cc4F)cc3)c(C(N)=O)c2N)C1

> <Shape>
0.244

> <Color>
0.046

> <Negative vol penalty>
0.000

$$$$

  -OEChem-04052303593D

 86 94  0     1  0  0  0  0  0999 V2000
  -28.0870  -23.7794   18.1181 C   0  0  0  0  0  0  0  0  0  0  0  0
  -26.9936  -24.6279   18.2512 C   0  0  0  0  0  0  0  0  0  0  0  0
  -28.2328  -13.8665   20.3723 C   0  0  0  0  0  0  0  0  0  0  0  0
  -26.0375  -14.6847   19.7820 C   0  0  0  0  0  0  0  0  0  0  0  0
  -29.1210  -23.8297   19.0506 C   0  0  0  0  0  0  0  0  0  0  0  0
  -26.9396  -25.5351   19.3100 C   0  0  0  0  0  0  0  0  0  0  0  0
  -23.2454  -28.7841   19.2827 C   0  0  0  0  0  0  0  0  0  0  0  0
  -27.7213  -12.5736   20.4825 C   0  0  0  0  0  0  0  0  0  0  0  0
  -25.5260  -13.3917   19.8922 C   0  0  0  0  0  0  0  0  0  0  0  0
  -21.9246  -28.4258   19.5490 C   0  0  0  0  0  0  0  0  0  0  0  0
  -23.5686  -10.3666   20.3687 C   0  0  0  0  0  0  0  0  0  0  0  0
  -22.3619  -10.2026   21.0489 C   0  0  0  0  0  0  0  0  0  0  0  0
  -22.1200  -29.3720   21.7594 C   0  0  0  0  0  0  0  0  0  0  0  0
  -23.4429  -22.4328   22.0819 C   0  0  0  0  0  0  0  0  0  0  0  0
  -23.3608  -11.1284   23.0444 C   0  0  0  0  0  0  0  0  0  0  0  0
  -24.5782  -23.6690   23.5828 C   0  0  0  0  0  0  0  0  0  0  0  0
  -27.3909  -14.9222   20.0221 C   0  0  0  0  0  0  0  0  0  0  0  0
  -28.4544  -16.8656   18.7573 C   0  0  0  0  0  0  0  0  0  0  0  0
  -29.0729  -24.7297   20.1280 C   0  0  0  0  0  0  0  0  0  0  0  0
  -24.0181  -29.4303   20.2582 C   0  0  0  0  0  0  0  0  0  0  0  0
  -27.9846  -25.6177   20.2479 C   0  0  0  0  0  0  0  0  0  0  0  0
  -23.4495  -29.7397   21.5020 C   0  0  0  0  0  0  0  0  0  0  0  0
  -24.6410  -22.5150   22.8334 C   0  0  0  0  0  0  0  0  0  0  0  0
  -26.3679  -12.3361   20.2424 C   0  0  0  0  0  0  0  0  0  0  0  0
  -21.3626  -28.7172   20.7885 C   0  0  0  0  0  0  0  0  0  0  0  0
  -24.6714  -10.9115   21.0264 C   0  0  0  0  0  0  0  0  0  0  0  0
  -22.2580  -10.5835   22.3867 C   0  0  0  0  0  0  0  0  0  0  0  0
  -24.5675  -11.2925   22.3643 C   0  0  0  0  0  0  0  0  0  0  0  0
  -27.9186  -16.2581   19.9087 C   0  0  0  0  0  0  0  0  0  0  0  0
  -22.6845  -23.5393   22.3947 C   0  0  0  0  0  0  0  0  0  0  0  0
  -28.8125  -18.1260   19.1692 C   0  0  0  0  0  0  0  0  0  0  0  0
  -28.6140  -16.3378   17.4338 C   0  0  0  0  0  0  0  0  0  0  0  0
  -21.3540  -23.8692   21.8456 C   0  0  0  0  0  0  0  0  0  0  0  0
  -26.6895  -28.7287   21.8314 C   0  0  0  0  0  0  0  0  0  0  0  0
  -19.0109  -28.1975   23.1895 C   0  0  0  0  0  0  0  0  0  0  0  0
  -26.3574  -31.7520   22.9592 C   0  0  0  0  0  0  0  0  0  0  0  0
  -24.2898  -34.3823   23.6324 C   0  0  0  0  0  0  0  0  0  0  0  0
  -26.8983  -21.6784   23.5760 C   0  0  0  0  0  0  0  0  0  0  0  0
  -30.2231  -24.7474   21.1037 C   0  0  0  0  0  0  0  0  0  0  0  0
  -25.4330  -29.8341   19.9459 C   0  0  0  0  0  0  0  0  0  0  0  0
  -24.2304  -30.4503   22.5762 C   0  0  0  0  0  0  0  0  0  0  0  0
  -29.8708  -25.4212   22.4258 C   0  0  0  0  0  0  0  0  0  0  0  0
  -30.2296  -20.5330   23.0593 C   0  0  0  0  0  0  0  0  0  0  0  0
  -29.2131  -26.7678   22.1638 C   0  0  0  0  0  0  0  0  0  0  0  0
  -30.0644  -19.3659   22.0832 C   0  0  0  0  0  0  0  0  0  0  0  0
  -29.0818  -20.5978   24.0653 C   0  0  0  0  0  0  0  0  0  0  0  0
  -27.5725  -19.4428   22.4977 C   0  0  0  0  0  0  0  0  0  0  0  0
  -27.8896  -26.5914   21.4086 C   0  0  1  0  0  0  0  0  0  0  0  0
  -26.2882  -30.0289   21.1941 C   0  0  1  0  0  0  0  0  0  0  0  0
  -28.6711  -19.3753   21.4242 C   0  0  2  0  0  0  0  0  0  0  0  0
  -19.2587  -27.8445   24.6340 C   0  0  0  0  0  0  0  0  0  0  0  0
  -24.3015  -36.7030   24.5871 C   0  0  0  0  0  0  0  0  0  0  0  0
  -26.5602  -30.5906   25.7735 C   0  0  0  0  0  0  0  0  0  0  0  0
  -25.6313  -32.7427   26.6533 C   0  0  0  0  0  0  0  0  0  0  0  0
  -27.8086  -32.7311   25.4358 C   0  0  0  0  0  0  0  0  0  0  0  0
  -22.9429  -25.5283   23.8964 C   0  0  0  0  0  0  0  0  0  0  0  0
  -23.3389  -35.5586   21.0885 C   0  0  0  0  0  0  0  0  0  0  0  0
  -19.1388  -26.2228   21.6318 C   0  0  0  0  0  0  0  0  0  0  0  0
  -19.9416  -25.4559   20.5870 C   0  0  0  0  0  0  0  0  0  0  0  0
  -19.8523  -27.4763   22.1431 C   0  0  1  0  0  0  0  0  0  1  0  0
  -25.6640  -32.3811   24.1434 C   0  0  1  0  0  0  0  0  0  0  0  0
  -24.4112  -35.8636   23.3237 C   0  0  2  0  0  0  0  0  0  0  0  0
  -26.4017  -32.0963   25.4822 C   0  0  0  0  0  0  0  0  0  0  0  0
  -27.9332  -17.0660   20.9722 N   0  0  0  0  0  0  0  0  0  0  0  0
  -23.3846  -24.2838   23.3077 N   0  0  0  0  0  0  0  0  0  0  0  0
  -28.4826  -18.1941   20.4908 N   0  0  0  0  0  0  0  0  0  0  0  0
  -25.6118  -30.8188   22.2250 N   0  0  0  0  0  0  0  0  0  0  0  0
  -27.7935  -20.6078   23.3687 N   0  0  0  0  0  0  0  0  0  0  0  0
  -29.3743  -19.1716   18.5261 N   0  0  0  0  0  0  0  0  0  0  0  0
  -28.1929  -15.0247   17.1829 N   0  0  0  0  0  0  0  0  0  0  0  0
  -20.3600  -23.0035   22.0447 N   0  0  0  0  0  0  0  0  0  0  0  0
  -25.7195  -21.5960   22.8355 N   0  0  0  0  0  0  0  0  0  0  0  0
  -27.4041  -27.8902   20.9972 N   0  0  0  0  0  0  0  0  0  0  0  0
  -25.5236  -33.7986   23.8285 N   0  0  0  0  0  0  0  0  0  0  0  0
  -21.2088  -25.0184   21.1731 N   0  3  0  0  0  0  0  0  0  0  0  0
  -23.3352  -36.2867   22.3834 N   0  3  0  0  0  0  0  0  0  0  0  0
  -29.1303  -17.0049   16.5055 O   0  0  0  0  0  0  0  0  0  0  0  0
  -26.3755  -28.5036   22.9943 O   0  0  0  0  0  0  0  0  0  0  0  0
  -18.1621  -29.0354   22.8835 O   0  0  0  0  0  0  0  0  0  0  0  0
  -27.5155  -32.0818   22.6912 O   0  0  0  0  0  0  0  0  0  0  0  0
  -23.2084  -33.8018   23.6970 O   0  0  0  0  0  0  0  0  0  0  0  0
  -27.1699  -22.6143   24.3325 O   0  0  0  0  0  0  0  0  0  0  0  0
  -25.8685  -11.0745   20.3496 O   0  0  0  0  0  0  0  0  0  0  0  0
  -20.0738  -28.3680   21.0513 O   0  0  0  0  0  0  0  0  0  1  0  0
  -21.0987  -10.4273   23.0393 F   0  0  0  0  0  0  0  0  0  0  0  0
  -25.6232  -11.8176   23.0011 F   0  0  0  0  0  0  0  0  0  0  0  0
  1  2  1  0  0  0  0
  1  5  2  0  0  0  0
  2  6  2  0  0  0  0
  3  8  2  0  0  0  0
  3 17  1  0  0  0  0
  4  9  1  0  0  0  0
  4 17  2  0  0  0  0
  5 19  1  0  0  0  0
  6 21  1  0  0  0  0
  7 10  2  0  0  0  0
  7 20  1  0  0  0  0
  8 24  1  0  0  0  0
  9 24  2  0  0  0  0
 10 25  1  0  0  0  0
 11 12  2  0  0  0  0
 11 26  1  0  0  0  0
 12 27  1  0  0  0  0
 13 22  1  0  0  0  0
 13 25  2  0  0  0  0
 14 23  1  0  0  0  0
 14 30  2  0  0  0  0
 15 27  2  0  0  0  0
 15 28  1  0  0  0  0
 16 23  2  0  0  0  0
 16 65  1  0  0  0  0
 17 29  1  0  0  0  0
 18 29  1  0  0  0  0
 18 31  2  0  0  0  0
 18 32  1  0  0  0  0
 19 21  2  0  0  0  0
 19 39  1  0  0  0  0
 20 22  2  0  0  0  0
 20 40  1  0  0  0  0
 21 48  1  0  0  0  0
 22 41  1  0  0  0  0
 23 72  1  0  0  0  0
 24 83  1  0  0  0  0
 25 84  1  0  0  0  0
 26 28  2  0  0  0  0
 26 83  1  0  0  0  0
 27 85  1  0  0  0  0
 28 86  1  0  0  0  0
 29 64  2  0  0  0  0
 30 33  1  0  0  0  0
 30 65  1  0  0  0  0
 31 66  1  0  0  0  0
 31 69  1  0  0  0  0
 32 70  1  0  0  0  0
 32 77  2  0  0  0  0
 33 71  1  0  0  0  0
 33 75  2  0  0  0  0
 34 49  1  0  0  0  0
 34 73  1  0  0  0  0
 34 78  2  0  0  0  0
 35 51  1  0  0  0  0
 35 60  1  0  0  0  0
 35 79  2  0  0  0  0
 36 61  1  0  0  0  0
 36 67  1  0  0  0  0
 36 80  2  0  0  0  0
 37 62  1  0  0  0  0
 37 74  1  0  0  0  0
 37 81  2  0  0  0  0
 38 68  1  0  0  0  0
 38 72  1  0  0  0  0
 38 82  2  0  0  0  0
 39 42  1  0  0  0  0
 40 49  1  0  0  0  0
 41 67  1  0  0  0  0
 42 44  1  0  0  0  0
 43 45  1  0  0  0  0
 43 46  1  0  0  0  0
 44 48  1  0  0  0  0
 45 50  1  0  0  0  0
 46 68  1  0  0  0  0
 47 50  1  0  0  0  0
 47 68  1  0  0  0  0
 48 73  1  0  0  0  0
 49 67  1  0  0  0  0
 50 66  1  0  0  0  0
 52 62  1  0  0  0  0
 53 63  1  0  0  0  0
 54 63  1  0  0  0  0
 55 63  1  0  0  0  0
 56 65  1  0  0  0  0
 57 76  1  0  0  0  0
 58 59  1  0  0  0  0
 58 60  1  0  0  0  0
 59 75  1  0  0  0  0
 60 84  1  0  0  0  0
 61 63  1  0  0  0  0
 61 74  1  0  0  0  0
 62 76  1  0  0  0  0
 64 66  1  0  0  0  0
M  CHG  2  75   1  76   1
M  ISO  4  38 100  60 101  72 100  84 101
M  END
> <Batch ID>
0163

> <Smiles>
CNC(C)C(=O)NC(C(=O)N1Cc2cc([101O:1][101CH:1](CCNC(=N)c3cc([100NH:0][100C:0](=O)N4CCCC(n5nc(-c6ccc(Oc7ccc(F)cc7F)cc6)c(C(N)=O)c5N)C4)cn3C)C(C)=O)ccc2CC1C(=O)NC1CCCc2ccccc21)C(C)(C)C

> <Shape>
0.308

> <Color>
0.058

> <Negative vol penalty>
0.000

$$$$

  -OEChem-04052303593D

 87 95  0     1  0  0  0  0  0999 V2000
  -26.9828  -20.4037   20.3756 C   0  0  0  0  0  0  0  0  0  0  0  0
  -26.1676  -21.4899   20.0781 C   0  0  0  0  0  0  0  0  0  0  0  0
  -23.0491  -23.9609   25.4135 C   0  0  0  0  0  0  0  0  0  0  0  0
  -23.5881  -10.0754   22.2611 C   0  0  0  0  0  0  0  0  0  0  0  0
  -22.4895  -10.2552   20.1168 C   0  0  0  0  0  0  0  0  0  0  0  0
  -23.5028  -22.6813   25.0933 C   0  0  0  0  0  0  0  0  0  0  0  0
  -28.0756  -20.5690   21.2239 C   0  0  0  0  0  0  0  0  0  0  0  0
  -26.4518  -22.7442   20.6192 C   0  0  0  0  0  0  0  0  0  0  0  0
  -23.7534  -26.5330   19.0169 C   0  0  0  0  0  0  0  0  0  0  0  0
  -22.3271  -24.6997   24.4761 C   0  0  0  0  0  0  0  0  0  0  0  0
  -23.1552   -8.7541   22.3720 C   0  0  0  0  0  0  0  0  0  0  0  0
  -22.0567   -8.9339   20.2277 C   0  0  0  0  0  0  0  0  0  0  0  0
  -22.4154  -26.7073   19.3680 C   0  0  0  0  0  0  0  0  0  0  0  0
  -20.3083   -7.1265   23.1909 C   0  0  0  0  0  0  0  0  0  0  0  0
  -19.7744   -6.7208   24.4139 C   0  0  0  0  0  0  0  0  0  0  0  0
  -23.0562  -28.4295   20.9309 C   0  0  0  0  0  0  0  0  0  0  0  0
  -21.4997   -5.0409   24.6098 C   0  0  0  0  0  0  0  0  0  0  0  0
  -23.2552  -10.8260   21.1335 C   0  0  0  0  0  0  0  0  0  0  0  0
  -23.2347  -22.1407   23.8357 C   0  0  0  0  0  0  0  0  0  0  0  0
  -22.5128  -22.8795   22.8983 C   0  0  0  0  0  0  0  0  0  0  0  0
  -24.9019  -12.6474   20.4416 C   0  0  0  0  0  0  0  0  0  0  0  0
  -28.3653  -21.8236   21.7852 C   0  0  0  0  0  0  0  0  0  0  0  0
  -24.7556  -27.2994   19.6291 C   0  0  0  0  0  0  0  0  0  0  0  0
  -27.5641  -22.9365   21.4585 C   0  0  0  0  0  0  0  0  0  0  0  0
  -24.4058  -28.2648   20.5839 C   0  0  0  0  0  0  0  0  0  0  0  0
  -22.0590  -24.1591   23.2186 C   0  0  0  0  0  0  0  0  0  0  0  0
  -22.3896   -8.1833   21.3554 C   0  0  0  0  0  0  0  0  0  0  0  0
  -22.0669  -27.6536   20.3273 C   0  0  0  0  0  0  0  0  0  0  0  0
  -21.4379   -6.4894   22.6772 C   0  0  0  0  0  0  0  0  0  0  0  0
  -20.3701   -5.6780   25.1234 C   0  0  0  0  0  0  0  0  0  0  0  0
  -22.0336   -5.4466   23.3867 C   0  0  0  0  0  0  0  0  0  0  0  0
  -23.7015  -12.1912   21.0185 C   0  0  0  0  0  0  0  0  0  0  0  0
  -24.8523  -14.0130   20.5806 C   0  0  0  0  0  0  0  0  0  0  0  0
  -23.7251  -20.7998   23.5402 C   0  0  0  0  0  0  0  0  0  0  0  0
  -23.3785  -19.6789   24.2041 C   0  0  0  0  0  0  0  0  0  0  0  0
  -22.2265  -22.3199   21.5781 C   0  0  0  0  0  0  0  0  0  0  0  0
  -25.9664  -11.9034   19.8343 C   0  0  0  0  0  0  0  0  0  0  0  0
  -23.9557  -18.3886   23.7767 C   0  0  0  0  0  0  0  0  0  0  0  0
  -27.2832  -26.6491   21.4435 C   0  0  0  0  0  0  0  0  0  0  0  0
  -27.8619  -29.8217   21.0941 C   0  0  0  0  0  0  0  0  0  0  0  0
  -26.6284  -32.9382   20.4515 C   0  0  0  0  0  0  0  0  0  0  0  0
  -20.8154  -26.2127   22.4602 C   0  0  0  0  0  0  0  0  0  0  0  0
  -29.5652  -21.9478   22.6909 C   0  0  0  0  0  0  0  0  0  0  0  0
  -26.1915  -27.1179   19.2199 C   0  0  0  0  0  0  0  0  0  0  0  0
  -25.4418  -29.1272   21.2560 C   0  0  0  0  0  0  0  0  0  0  0  0
  -29.5261  -23.1998   23.5611 C   0  0  0  0  0  0  0  0  0  0  0  0
  -21.0736  -17.0623   21.9419 C   0  0  0  0  0  0  0  0  0  0  0  0
  -29.2234  -24.4195   22.7036 C   0  0  0  0  0  0  0  0  0  0  0  0
  -21.5937  -15.6869   21.5326 C   0  0  0  0  0  0  0  0  0  0  0  0
  -21.6116  -17.4946   23.3051 C   0  0  0  0  0  0  0  0  0  0  0  0
  -23.6199  -16.0777   22.9894 C   0  0  0  0  0  0  0  0  0  0  0  0
  -27.8359  -24.3036   22.0598 C   0  0  1  0  0  0  0  0  0  0  0  0
  -27.1797  -27.5943   20.2801 C   0  0  1  0  0  0  0  0  0  0  0  0
  -23.1285  -15.6432   21.5997 C   0  0  1  0  0  0  0  0  0  0  0  0
  -20.1503  -21.2653   20.6237 C   0  0  0  0  0  0  0  0  0  0  0  0
  -27.3370  -35.3389   20.2723 C   0  0  0  0  0  0  0  0  0  0  0  0
  -18.6396  -27.0782   21.5240 C   0  0  0  0  0  0  0  0  0  0  0  0
  -28.0126  -30.0019   24.1363 C   0  0  0  0  0  0  0  0  0  0  0  0
  -27.7666  -32.4850   23.9319 C   0  0  0  0  0  0  0  0  0  0  0  0
  -29.7421  -31.3420   22.9249 C   0  0  0  0  0  0  0  0  0  0  0  0
  -25.7880  -33.0956   17.6182 C   0  0  0  0  0  0  0  0  0  0  0  0
  -21.4210  -21.0240   21.4193 C   0  0  0  0  0  0  0  0  0  0  0  0
  -27.4706  -31.0693   21.8488 C   0  0  1  0  0  0  0  0  0  0  0  0
  -27.1050  -34.0378   19.5198 C   0  0  2  0  0  0  0  0  0  0  0  0
  -20.0789  -26.6950   21.2131 C   0  0  1  0  0  0  0  0  0  1  0  0
  -28.2284  -31.2071   23.1994 C   0  0  0  0  0  0  0  0  0  0  0  0
  -22.9448  -13.1862   21.4891 N   0  0  0  0  0  0  0  0  0  0  0  0
  -22.6467  -22.9074   20.4848 N   0  0  0  0  0  0  0  0  0  0  0  0
  -23.6715  -14.2812   21.2081 N   0  0  0  0  0  0  0  0  0  0  0  0
  -23.0773  -17.3885   23.3636 N   0  0  0  0  0  0  0  0  0  0  0  0
  -26.8328  -28.9078   20.8265 N   0  0  0  0  0  0  0  0  0  0  0  0
  -25.7041  -14.9984   20.2260 N   0  0  0  0  0  0  0  0  0  0  0  0
  -25.8564  -10.5074   19.7744 N   0  0  0  0  0  0  0  0  0  0  0  0
  -21.3234  -24.9294   22.2867 N   0  0  0  0  0  0  0  0  0  0  0  0
  -27.6722  -25.3696   21.0960 N   0  0  0  0  0  0  0  0  0  0  0  0
  -27.6785  -32.1838   20.9306 N   0  0  0  0  0  0  0  0  0  0  0  0
  -26.0954  -34.2859   18.4521 N   0  3  0  0  0  0  0  0  0  0  0  0
  -26.9925  -12.4587   19.3736 O   0  0  0  0  0  0  0  0  0  0  0  0
  -25.1820  -18.2732   23.8163 O   0  0  0  0  0  0  0  0  0  0  0  0
  -27.0302  -27.0514   22.5731 O   0  0  0  0  0  0  0  0  0  0  0  0
  -29.0358  -29.6673   20.7484 O   0  0  0  0  0  0  0  0  0  0  0  0
  -25.4434  -32.7680   20.7297 O   0  0  0  0  0  0  0  0  0  0  0  0
  -20.9226  -26.9277   23.4524 O   0  0  0  0  0  0  0  0  0  0  0  0
  -21.9672   -6.8939   21.4632 O   0  0  0  0  0  0  0  0  0  0  0  0
  -20.7618  -27.8253   20.6723 O   0  0  0  0  0  0  0  0  0  1  0  0
  -19.8582   -5.2895   26.2987 F   0  0  0  0  0  0  0  0  0  0  0  0
  -23.1196   -4.8315   22.8989 F   0  0  0  0  0  0  0  0  0  0  0  0
  1  2  1  0  0  0  0
  1  7  2  0  0  0  0
  2  8  2  0  0  0  0
  3  6  1  0  0  0  0
  3 10  2  0  0  0  0
  4 11  2  0  0  0  0
  4 18  1  0  0  0  0
  5 12  1  0  0  0  0
  5 18  2  0  0  0  0
  6 19  2  0  0  0  0
  7 22  1  0  0  0  0
  8 24  1  0  0  0  0
  9 13  2  0  0  0  0
  9 23  1  0  0  0  0
 10 26  1  0  0  0  0
 11 27  1  0  0  0  0
 12 27  2  0  0  0  0
 13 28  1  0  0  0  0
 14 15  2  0  0  0  0
 14 29  1  0  0  0  0
 15 30  1  0  0  0  0
 16 25  1  0  0  0  0
 16 28  2  0  0  0  0
 17 30  2  0  0  0  0
 17 31  1  0  0  0  0
 18 32  1  0  0  0  0
 19 20  1  0  0  0  0
 19 34  1  0  0  0  0
 20 26  2  0  0  0  0
 20 36  1  0  0  0  0
 21 32  1  0  0  0  0
 21 33  2  0  0  0  0
 21 37  1  0  0  0  0
 22 24  2  0  0  0  0
 22 43  1  0  0  0  0
 23 25  2  0  0  0  0
 23 44  1  0  0  0  0
 24 52  1  0  0  0  0
 25 45  1  0  0  0  0
 26 74  1  0  0  0  0
 27 84  1  0  0  0  0
 28 85  1  0  0  0  0
 29 31  2  0  0  0  0
 29 84  1  0  0  0  0
 30 86  1  0  0  0  0
 31 87  1  0  0  0  0
 32 67  2  0  0  0  0
 33 69  1  0  0  0  0
 33 72  1  0  0  0  0
 34 35  2  0  0  0  0
 35 38  1  0  0  0  0
 36 62  1  0  0  0  0
 36 68  2  0  0  0  0
 37 73  1  0  0  0  0
 37 78  2  0  0  0  0
 38 70  1  0  0  0  0
 38 79  2  0  0  0  0
 39 53  1  0  0  0  0
 39 75  1  0  0  0  0
 39 80  2  0  0  0  0
 40 63  1  0  0  0  0
 40 71  1  0  0  0  0
 40 81  2  0  0  0  0
 41 64  1  0  0  0  0
 41 76  1  0  0  0  0
 41 82  2  0  0  0  0
 42 65  1  0  0  0  0
 42 74  1  0  0  0  0
 42 83  2  0  0  0  0
 43 46  1  0  0  0  0
 44 53  1  0  0  0  0
 45 71  1  0  0  0  0
 46 48  1  0  0  0  0
 47 49  1  0  0  0  0
 47 50  1  0  0  0  0
 48 52  1  0  0  0  0
 49 54  1  0  0  0  0
 50 70  1  0  0  0  0
 51 54  1  0  0  0  0
 51 70  1  0  0  0  0
 52 75  1  0  0  0  0
 53 71  1  0  0  0  0
 54 69  1  0  0  0  0
 55 62  1  0  0  0  0
 56 64  1  0  0  0  0
 57 65  1  0  0  0  0
 58 66  1  0  0  0  0
 59 66  1  0  0  0  0
 60 66  1  0  0  0  0
 61 77  1  0  0  0  0
 63 66  1  0  0  0  0
 63 76  1  0  0  0  0
 64 77  1  0  0  0  0
 65 85  1  0  0  0  0
 67 69  1  0  0  0  0
M  CHG  1  77   1
M  ISO  4  35 100  38 100  65 101  85 101
M  END
> <Batch ID>
0163

> <Smiles>
CCC(=N)c1c(C=[100CH:0][100C:0](=O)N2CCCC(n3nc(-c4ccc(Oc5ccc(F)cc5F)cc4)c(C(N)=O)c3N)C2)cccc1NC(=O)[101CH:1](C)[101O:1]c1ccc2c(c1)CN(C(=O)C(NC(=O)C(C)NC)C(C)(C)C)C(C(=O)NC1CCCc3ccccc31)C2

> <Shape>
0.234

> <Color>
0.090

> <Negative vol penalty>
0.000

$$$$

  -OEChem-04052303593D

 83 90  0     1  0  0  0  0  0999 V2000
  -19.3947  -26.9843   26.2176 C   0  0  0  0  0  0  0  0  0  0  0  0
  -20.4359  -26.5202   25.4200 C   0  0  0  0  0  0  0  0  0  0  0  0
  -23.5274  -10.3274   21.5009 C   0  0  0  0  0  0  0  0  0  0  0  0
  -24.8941   -8.4306   22.1101 C   0  0  0  0  0  0  0  0  0  0  0  0
  -18.5455  -27.9826   25.7421 C   0  0  0  0  0  0  0  0  0  0  0  0
  -20.6278  -27.0536   24.1460 C   0  0  0  0  0  0  0  0  0  0  0  0
  -25.4920  -28.0817   23.1829 C   0  0  0  0  0  0  0  0  0  0  0  0
  -22.4234   -9.4867   21.3597 C   0  0  0  0  0  0  0  0  0  0  0  0
  -23.7901   -7.5898   21.9689 C   0  0  0  0  0  0  0  0  0  0  0  0
  -26.3159  -27.0075   22.8494 C   0  0  0  0  0  0  0  0  0  0  0  0
  -21.0489   -6.7584   23.7621 C   0  0  0  0  0  0  0  0  0  0  0  0
  -20.8288   -5.8075   24.7586 C   0  0  0  0  0  0  0  0  0  0  0  0
  -26.1152  -27.5859   20.5160 C   0  0  0  0  0  0  0  0  0  0  0  0
  -21.0277   -4.0438   23.1194 C   0  0  0  0  0  0  0  0  0  0  0  0
  -24.7627   -9.7994   21.8760 C   0  0  0  0  0  0  0  0  0  0  0  0
  -26.3173  -11.3394   23.1872 C   0  0  0  0  0  0  0  0  0  0  0  0
  -18.7331  -28.5354   24.4654 C   0  0  0  0  0  0  0  0  0  0  0  0
  -24.9638  -28.9109   22.1829 C   0  0  0  0  0  0  0  0  0  0  0  0
  -19.7795  -28.0594   23.6525 C   0  0  0  0  0  0  0  0  0  0  0  0
  -25.2870  -28.6714   20.8397 C   0  0  0  0  0  0  0  0  0  0  0  0
  -22.5547   -8.1179   21.5937 C   0  0  0  0  0  0  0  0  0  0  0  0
  -26.6252  -26.7577   21.5156 C   0  0  0  0  0  0  0  0  0  0  0  0
  -21.2584   -6.3520   22.4443 C   0  0  0  0  0  0  0  0  0  0  0  0
  -20.8182   -4.4502   24.4373 C   0  0  0  0  0  0  0  0  0  0  0  0
  -21.2478   -4.9947   22.1230 C   0  0  0  0  0  0  0  0  0  0  0  0
  -25.9037  -10.6673   22.0215 C   0  0  0  0  0  0  0  0  0  0  0  0
  -27.4433  -12.0272   22.8057 C   0  0  0  0  0  0  0  0  0  0  0  0
  -25.7357  -11.3419   24.4977 C   0  0  0  0  0  0  0  0  0  0  0  0
  -29.6506  -18.0371   21.3941 C   0  0  0  0  0  0  0  0  0  0  0  0
  -30.2322  -17.2719   20.2367 C   0  0  0  0  0  0  0  0  0  0  0  0
  -22.0340  -29.6344   21.1848 C   0  0  0  0  0  0  0  0  0  0  0  0
  -23.6180  -31.7526   19.3070 C   0  0  0  0  0  0  0  0  0  0  0  0
  -27.9449  -20.7974   21.2928 C   0  0  0  0  0  0  0  0  0  0  0  0
  -26.5215  -32.6328   17.7443 C   0  0  0  0  0  0  0  0  0  0  0  0
  -30.1027  -15.3021   19.1146 C   0  0  0  0  0  0  0  0  0  0  0  0
  -17.7606  -29.5794   23.9764 C   0  0  0  0  0  0  0  0  0  0  0  0
  -24.0983  -30.0815   22.5612 C   0  0  0  0  0  0  0  0  0  0  0  0
  -24.7620  -29.5440   19.7300 C   0  0  0  0  0  0  0  0  0  0  0  0
  -18.2608  -30.3558   22.7610 C   0  0  0  0  0  0  0  0  0  0  0  0
  -30.2200  -11.7397   18.5964 C   0  0  0  0  0  0  0  0  0  0  0  0
  -18.8332  -29.4024   21.7169 C   0  0  0  0  0  0  0  0  0  0  0  0
  -29.1225  -11.2032   19.5147 C   0  0  0  0  0  0  0  0  0  0  0  0
  -29.8360  -13.0878   17.9936 C   0  0  0  0  0  0  0  0  0  0  0  0
  -28.3725  -13.5882   19.9276 C   0  0  0  0  0  0  0  0  0  0  0  0
  -20.0351  -28.6305   22.2746 C   0  0  1  0  0  0  0  0  0  0  0  0
  -23.1994  -30.5526   21.4222 C   0  0  1  0  0  0  0  0  0  0  0  0
  -28.7361  -12.2433   20.5810 C   0  0  1  0  0  0  0  0  0  0  0  0
  -27.4984  -34.3973   16.2512 C   0  0  0  0  0  0  0  0  0  0  0  0
  -22.1573  -30.5377   16.9195 C   0  0  0  0  0  0  0  0  0  0  0  0
  -23.8307  -31.6438   15.4214 C   0  0  0  0  0  0  0  0  0  0  0  0
  -22.3459  -33.0309   16.8685 C   0  0  0  0  0  0  0  0  0  0  0  0
  -27.6701  -19.5157   23.4467 C   0  0  0  0  0  0  0  0  0  0  0  0
  -28.5342  -33.4002   19.7738 C   0  0  0  0  0  0  0  0  0  0  0  0
  -28.1707  -18.3209   21.3515 C   0  0  0  0  0  0  0  0  0  0  0  0
  -27.6760  -22.0643   22.0945 C   0  0  0  0  0  0  0  0  0  0  0  0
  -27.7146  -23.3243   21.2325 C   0  0  0  0  0  0  0  0  0  0  0  0
  -27.3971  -24.5714   22.0449 C   0  0  0  0  0  0  0  0  0  1  0  0
  -24.2254  -31.7110   17.9256 C   0  0  1  0  0  0  0  0  0  0  0  0
  -27.2758  -33.9489   17.6872 C   0  0  2  0  0  0  0  0  0  0  0  0
  -23.1483  -31.7131   16.8043 C   0  0  0  0  0  0  0  0  0  0  0  0
  -26.7019  -10.9065   20.9776 N   0  0  0  0  0  0  0  0  0  0  0  0
  -29.6620  -16.0751   20.1161 N   0  5  0  0  0  0  0  0  0  0  0  0
  -27.6283  -11.7367   21.4860 N   0  0  0  0  0  0  0  0  0  0  0  0
  -23.9147  -30.6724   20.1501 N   0  0  0  0  0  0  0  0  0  0  0  0
  -29.4584  -14.0437   19.0389 N   0  0  0  0  0  0  0  0  0  0  0  0
  -28.2833  -12.8460   23.4738 N   0  0  0  0  0  0  0  0  0  0  0  0
  -24.5797  -10.5804   24.7171 N   0  0  0  0  0  0  0  0  0  0  0  0
  -21.2141  -29.4698   22.2848 N   0  0  0  0  0  0  0  0  0  0  0  0
  -25.1612  -32.8281   17.8573 N   0  0  0  0  0  0  0  0  0  0  0  0
  -27.9312  -19.5762   21.9997 N   0  0  0  0  0  0  0  0  0  0  0  0
  -28.6044  -33.8136   18.3486 N   0  3  0  0  0  0  0  0  0  0  0  0
  -26.2172  -12.0128   25.4419 O   0  0  0  0  0  0  0  0  0  0  0  0
  -30.4114  -18.3424   22.3018 O   0  0  0  0  0  0  0  0  0  0  0  0
  -31.1333  -17.8279   19.6209 O   0  0  0  0  0  0  0  0  0  0  0  0
  -21.8885  -29.1148   20.0845 O   0  0  0  0  0  0  0  0  0  0  0  0
  -22.9124  -32.7119   19.6286 O   0  0  0  0  0  0  0  0  0  0  0  0
  -28.1627  -20.8593   20.0799 O   0  0  0  0  0  0  0  0  0  0  0  0
  -27.0825  -31.5406   17.6900 O   0  0  0  0  0  0  0  0  0  0  0  0
  -30.9839  -15.5980   18.3011 O   0  0  0  0  0  0  0  0  0  0  0  0
  -21.4776   -7.2972   21.4563 O   0  0  0  0  0  0  0  0  0  0  0  0
  -27.4345  -25.7019   21.1849 O   0  0  0  0  0  0  0  0  0  1  0  0
  -20.6083   -3.5371   25.3946 F   0  0  0  0  0  0  0  0  0  0  0  0
  -21.4495   -4.5981   20.8589 F   0  0  0  0  0  0  0  0  0  0  0  0
  1  2  1  0  0  0  0
  1  5  2  0  0  0  0
  2  6  2  0  0  0  0
  3  8  2  0  0  0  0
  3 15  1  0  0  0  0
  4  9  1  0  0  0  0
  4 15  2  0  0  0  0
  5 17  1  0  0  0  0
  6 19  1  0  0  0  0
  7 10  2  0  0  0  0
  7 18  1  0  0  0  0
  8 21  1  0  0  0  0
  9 21  2  0  0  0  0
 10 22  1  0  0  0  0
 11 12  2  0  0  0  0
 11 23  1  0  0  0  0
 12 24  1  0  0  0  0
 13 20  1  0  0  0  0
 13 22  2  0  0  0  0
 14 24  2  0  0  0  0
 14 25  1  0  0  0  0
 15 26  1  0  0  0  0
 16 26  1  0  0  0  0
 16 27  2  0  0  0  0
 16 28  1  0  0  0  0
 17 19  2  0  0  0  0
 17 36  1  0  0  0  0
 18 20  2  0  0  0  0
 18 37  1  0  0  0  0
 19 45  1  0  0  0  0
 20 38  1  0  0  0  0
 21 80  1  0  0  0  0
 22 81  1  0  0  0  0
 23 25  2  0  0  0  0
 23 80  1  0  0  0  0
 24 82  1  0  0  0  0
 25 83  1  0  0  0  0
 26 61  2  0  0  0  0
 27 63  1  0  0  0  0
 27 66  1  0  0  0  0
 28 67  1  0  0  0  0
 28 72  2  0  0  0  0
 29 30  1  0  0  0  0
 29 54  1  0  0  0  0
 29 73  2  0  0  0  0
 30 62  1  0  0  0  0
 30 74  2  0  0  0  0
 31 46  1  0  0  0  0
 31 68  1  0  0  0  0
 31 75  2  0  0  0  0
 32 58  1  0  0  0  0
 32 64  1  0  0  0  0
 32 76  2  0  0  0  0
 33 55  1  0  0  0  0
 33 70  1  0  0  0  0
 33 77  2  0  0  0  0
 34 59  1  0  0  0  0
 34 69  1  0  0  0  0
 34 78  2  0  0  0  0
 35 62  1  0  0  0  0
 35 65  1  0  0  0  0
 35 79  2  0  0  0  0
 36 39  1  0  0  0  0
 37 46  1  0  0  0  0
 38 64  1  0  0  0  0
 39 41  1  0  0  0  0
 40 42  1  0  0  0  0
 40 43  1  0  0  0  0
 41 45  1  0  0  0  0
 42 47  1  0  0  0  0
 43 65  1  0  0  0  0
 44 47  1  0  0  0  0
 44 65  1  0  0  0  0
 45 68  1  0  0  0  0
 46 64  1  0  0  0  0
 47 63  1  0  0  0  0
 48 59  1  0  0  0  0
 49 60  1  0  0  0  0
 50 60  1  0  0  0  0
 51 60  1  0  0  0  0
 52 70  1  0  0  0  0
 53 71  1  0  0  0  0
 54 70  1  0  0  0  0
 55 56  1  0  0  0  0
 56 57  1  0  0  0  0
 57 81  1  0  0  0  0
 58 60  1  0  0  0  0
 58 69  1  0  0  0  0
 59 71  1  0  0  0  0
 61 63  1  0  0  0  0
M  CHG  2  62  -1  71   1
M  ISO  4  35 100  57 101  62 100  81 101
M  END
> <Batch ID>
0163

> <Smiles>
CNC(C)C(=O)NC(C(=O)N1Cc2cc([101O:1][101CH2:1]CCC(=O)N(C)CC(=O)C(=O)[100NH:0][100C:0](=O)N3CCCC(n4nc(-c5ccc(Oc6ccc(F)cc6F)cc5)c(C(N)=O)c4N)C3)ccc2CC1C(=O)NC1CCCc2ccccc21)C(C)(C)C

> <Shape>
0.257

> <Color>
0.118

> <Negative vol penalty>
0.000

$$$$

  -OEChem-04052303593D

 86 94  0     1  0  0  0  0  0999 V2000
  -27.6801  -24.2518   16.7750 C   0  0  0  0  0  0  0  0  0  0  0  0
  -26.5040  -24.5335   17.4626 C   0  0  0  0  0  0  0  0  0  0  0  0
  -26.8415  -15.6241   19.8035 C   0  0  0  0  0  0  0  0  0  0  0  0
  -24.4383  -15.3891   19.7207 C   0  0  0  0  0  0  0  0  0  0  0  0
  -28.9043  -24.6828   17.2842 C   0  0  0  0  0  0  0  0  0  0  0  0
  -26.5516  -25.2455   18.6607 C   0  0  0  0  0  0  0  0  0  0  0  0
  -23.0122  -28.8583   18.9154 C   0  0  0  0  0  0  0  0  0  0  0  0
  -26.9607  -14.2805   20.1585 C   0  0  0  0  0  0  0  0  0  0  0  0
  -24.5575  -14.0454   20.0756 C   0  0  0  0  0  0  0  0  0  0  0  0
  -21.7116  -28.4554   19.2150 C   0  0  0  0  0  0  0  0  0  0  0  0
  -25.3431  -11.1301   18.5576 C   0  0  0  0  0  0  0  0  0  0  0  0
  -24.5803  -10.2035   17.8469 C   0  0  0  0  0  0  0  0  0  0  0  0
  -22.0373  -29.1293   21.5082 C   0  0  0  0  0  0  0  0  0  0  0  0
  -20.0019  -23.6404   22.9333 C   0  0  0  0  0  0  0  0  0  0  0  0
  -23.4854   -9.5347   19.8941 C   0  0  0  0  0  0  0  0  0  0  0  0
  -19.3570  -21.7673   21.8808 C   0  0  0  0  0  0  0  0  0  0  0  0
  -25.5803  -16.1784   19.5847 C   0  0  0  0  0  0  0  0  0  0  0  0
  -25.4484  -18.1052   17.9179 C   0  0  0  0  0  0  0  0  0  0  0  0
  -28.9661  -25.4088   18.4841 C   0  0  0  0  0  0  0  0  0  0  0  0
  -23.8403  -29.3905   19.9142 C   0  0  0  0  0  0  0  0  0  0  0  0
  -27.7780  -25.6854   19.1871 C   0  0  0  0  0  0  0  0  0  0  0  0
  -23.3473  -29.5406   21.2182 C   0  0  0  0  0  0  0  0  0  0  0  0
  -20.4646  -22.4703   22.2974 C   0  0  0  0  0  0  0  0  0  0  0  0
  -25.8187  -13.4911   20.2945 C   0  0  0  0  0  0  0  0  0  0  0  0
  -21.2249  -28.5882   20.5121 C   0  0  0  0  0  0  0  0  0  0  0  0
  -25.1772  -11.2589   19.9365 C   0  0  0  0  0  0  0  0  0  0  0  0
  -23.6514   -9.4058   18.5151 C   0  0  0  0  0  0  0  0  0  0  0  0
  -24.2483  -10.4613   20.6048 C   0  0  0  0  0  0  0  0  0  0  0  0
  -25.4564  -17.5665   19.2185 C   0  0  0  0  0  0  0  0  0  0  0  0
  -18.6253  -23.6166   22.8869 C   0  0  0  0  0  0  0  0  0  0  0  0
  -25.3087  -19.4583   18.1075 C   0  0  0  0  0  0  0  0  0  0  0  0
  -25.5574  -17.4417   16.6516 C   0  0  0  0  0  0  0  0  0  0  0  0
  -17.7564  -24.6799   23.4552 C   0  0  0  0  0  0  0  0  0  0  0  0
  -26.6054  -28.5341   21.2275 C   0  0  0  0  0  0  0  0  0  0  0  0
  -18.6076  -26.6929   22.1458 C   0  0  0  0  0  0  0  0  0  0  0  0
  -16.9069  -22.0441   21.9743 C   0  0  0  0  0  0  0  0  0  0  0  0
  -26.3303  -31.3946   22.7321 C   0  0  0  0  0  0  0  0  0  0  0  0
  -24.2970  -33.9004   23.8426 C   0  0  0  0  0  0  0  0  0  0  0  0
  -22.9599  -22.7420   22.5127 C   0  0  0  0  0  0  0  0  0  0  0  0
  -30.3170  -25.8127   19.0195 C   0  0  0  0  0  0  0  0  0  0  0  0
  -25.2319  -29.8452   19.5689 C   0  0  0  0  0  0  0  0  0  0  0  0
  -24.1892  -30.1248   22.3220 C   0  0  0  0  0  0  0  0  0  0  0  0
  -30.2468  -26.8859   20.1028 C   0  0  0  0  0  0  0  0  0  0  0  0
  -26.2918  -22.9177   21.2700 C   0  0  0  0  0  0  0  0  0  0  0  0
  -29.1729  -26.5391   21.1291 C   0  0  0  0  0  0  0  0  0  0  0  0
  -26.4529  -21.6172   20.4794 C   0  0  0  0  0  0  0  0  0  0  0  0
  -25.4447  -22.7170   22.5253 C   0  0  0  0  0  0  0  0  0  0  0  0
  -24.2978  -20.7889   21.5073 C   0  0  0  0  0  0  0  0  0  0  0  0
  -27.7864  -26.4767   20.4771 C   0  0  1  0  0  0  0  0  0  0  0  0
  -26.1607  -29.8972   20.7781 C   0  0  1  0  0  0  0  0  0  0  0  0
  -25.0895  -20.9550   20.1999 C   0  0  2  0  0  0  0  0  0  0  0  0
  -15.3141  -20.3880   21.0595 C   0  0  0  0  0  0  0  0  0  0  0  0
  -24.3574  -36.0885   25.0698 C   0  0  0  0  0  0  0  0  0  0  0  0
  -26.7087  -29.9036   25.3672 C   0  0  0  0  0  0  0  0  0  0  0  0
  -25.8265  -31.9227   26.5560 C   0  0  0  0  0  0  0  0  0  0  0  0
  -27.9256  -32.0833   25.2179 C   0  0  0  0  0  0  0  0  0  0  0  0
  -23.1882  -35.3651   21.5221 C   0  0  0  0  0  0  0  0  0  0  0  0
  -18.2671  -26.1064   23.5013 C   0  0  0  0  0  0  0  0  0  0  0  0
  -19.7121  -27.7305   22.1343 C   0  0  0  0  0  0  0  0  0  1  0  0
  -16.7740  -20.7399   21.2487 C   0  0  0  0  0  0  0  0  0  0  0  0
  -25.7078  -31.8679   24.0234 C   0  0  1  0  0  0  0  0  0  0  0  0
  -24.3934  -35.4096   23.7095 C   0  0  2  0  0  0  0  0  0  0  0  0
  -26.5267  -31.4315   25.2710 C   0  0  0  0  0  0  0  0  0  0  0  0
  -25.3319  -18.5012   20.1645 N   0  0  0  0  0  0  0  0  0  0  0  0
  -16.5694  -24.4422   23.9154 N   0  0  0  0  0  0  0  0  0  0  0  0
  -18.2174  -22.4656   22.2397 N   0  0  0  0  0  0  0  0  0  0  0  0
  -25.2444  -19.6408   19.4576 N   0  0  0  0  0  0  0  0  0  0  0  0
  -25.5452  -30.5488   21.9360 N   0  0  0  0  0  0  0  0  0  0  0  0
  -24.1665  -22.0894   22.1827 N   0  0  0  0  0  0  0  0  0  0  0  0
  -25.2358  -20.4979   17.2495 N   0  0  0  0  0  0  0  0  0  0  0  0
  -25.6950  -16.0470   16.6377 N   0  0  0  0  0  0  0  0  0  0  0  0
  -21.8094  -22.0657   22.1083 N   0  0  0  0  0  0  0  0  0  0  0  0
  -27.2712  -27.8110   20.2563 N   0  0  0  0  0  0  0  0  0  0  0  0
  -25.5427  -33.3115   23.8920 N   0  0  0  0  0  0  0  0  0  0  0  0
  -23.2604  -35.9310   22.8938 N   0  3  0  0  0  0  0  0  0  0  0  0
  -25.5499  -18.0687   15.5652 O   0  0  0  0  0  0  0  0  0  0  0  0
  -26.3636  -28.1663   22.3711 O   0  0  0  0  0  0  0  0  0  0  0  0
  -18.0267  -26.3496   21.1172 O   0  0  0  0  0  0  0  0  0  0  0  0
  -15.9701  -22.7409   22.3386 O   0  0  0  0  0  0  0  0  0  0  0  0
  -27.4686  -31.7676   22.4372 O   0  0  0  0  0  0  0  0  0  0  0  0
  -23.2239  -33.3041   23.9010 O   0  0  0  0  0  0  0  0  0  0  0  0
  -22.9486  -23.8344   23.0859 O   0  0  0  0  0  0  0  0  0  0  0  0
  -25.9347  -12.1799   20.6406 O   0  0  0  0  0  0  0  0  0  0  0  0
  -19.9559  -28.1952   20.8073 O   0  0  0  0  0  0  0  0  0  1  0  0
  -22.9178   -8.5171   17.8322 F   0  0  0  0  0  0  0  0  0  0  0  0
  -24.0836  -10.5814   21.9293 F   0  0  0  0  0  0  0  0  0  0  0  0
  1  2  1  0  0  0  0
  1  5  2  0  0  0  0
  2  6  2  0  0  0  0
  3  8  2  0  0  0  0
  3 17  1  0  0  0  0
  4  9  1  0  0  0  0
  4 17  2  0  0  0  0
  5 19  1  0  0  0  0
  6 21  1  0  0  0  0
  7 10  2  0  0  0  0
  7 20  1  0  0  0  0
  8 24  1  0  0  0  0
  9 24  2  0  0  0  0
 10 25  1  0  0  0  0
 11 12  2  0  0  0  0
 11 26  1  0  0  0  0
 12 27  1  0  0  0  0
 13 22  1  0  0  0  0
 13 25  2  0  0  0  0
 14 23  1  0  0  0  0
 14 30  2  0  0  0  0
 15 27  2  0  0  0  0
 15 28  1  0  0  0  0
 16 23  2  0  0  0  0
 16 66  1  0  0  0  0
 17 29  1  0  0  0  0
 18 29  1  0  0  0  0
 18 31  2  0  0  0  0
 18 32  1  0  0  0  0
 19 21  2  0  0  0  0
 19 40  1  0  0  0  0
 20 22  2  0  0  0  0
 20 41  1  0  0  0  0
 21 49  1  0  0  0  0
 22 42  1  0  0  0  0
 23 72  1  0  0  0  0
 24 83  1  0  0  0  0
 25 84  1  0  0  0  0
 26 28  2  0  0  0  0
 26 83  1  0  0  0  0
 27 85  1  0  0  0  0
 28 86  1  0  0  0  0
 29 64  2  0  0  0  0
 30 33  1  0  0  0  0
 30 66  1  0  0  0  0
 31 67  1  0  0  0  0
 31 70  1  0  0  0  0
 32 71  1  0  0  0  0
 32 76  2  0  0  0  0
 33 58  1  0  0  0  0
 33 65  2  0  0  0  0
 34 50  1  0  0  0  0
 34 73  1  0  0  0  0
 34 77  2  0  0  0  0
 35 58  1  0  0  0  0
 35 59  1  0  0  0  0
 35 78  2  0  0  0  0
 36 60  1  0  0  0  0
 36 66  1  0  0  0  0
 36 79  2  0  0  0  0
 37 61  1  0  0  0  0
 37 68  1  0  0  0  0
 37 80  2  0  0  0  0
 38 62  1  0  0  0  0
 38 74  1  0  0  0  0
 38 81  2  0  0  0  0
 39 69  1  0  0  0  0
 39 72  1  0  0  0  0
 39 82  2  0  0  0  0
 40 43  1  0  0  0  0
 41 50  1  0  0  0  0
 42 68  1  0  0  0  0
 43 45  1  0  0  0  0
 44 46  1  0  0  0  0
 44 47  1  0  0  0  0
 45 49  1  0  0  0  0
 46 51  1  0  0  0  0
 47 69  1  0  0  0  0
 48 51  1  0  0  0  0
 48 69  1  0  0  0  0
 49 73  1  0  0  0  0
 50 68  1  0  0  0  0
 51 67  1  0  0  0  0
 52 60  1  0  0  0  0
 53 62  1  0  0  0  0
 54 63  1  0  0  0  0
 55 63  1  0  0  0  0
 56 63  1  0  0  0  0
 57 75  1  0  0  0  0
 59 84  1  0  0  0  0
 61 63  1  0  0  0  0
 61 74  1  0  0  0  0
 62 75  1  0  0  0  0
 64 67  1  0  0  0  0
M  CHG  1  75   1
M  ISO  4  39 100  59 101  72 100  84 101
M  END
> <Batch ID>
0163

> <Smiles>
CCC(=O)n1cc([100NH:0][100C:0](=O)N2CCCC(n3nc(-c4ccc(Oc5ccc(F)cc5F)cc4)c(C(N)=O)c3N)C2)cc1C(=N)CC(=O)[101CH2:1][101O:1]c1ccc2c(c1)CN(C(=O)C(NC(=O)C(C)NC)C(C)(C)C)C(C(=O)NC1CCCc3ccccc31)C2

> <Shape>
0.249

> <Color>
0.064

> <Negative vol penalty>
0.000

$$$$

  -OEChem-04052303593D

 87 95  0     1  0  0  0  0  0999 V2000
  -22.3046   -8.5397   20.8051 C   0  0  0  0  0  0  0  0  0  0  0  0
  -21.7656   -9.7925   21.0799 C   0  0  0  0  0  0  0  0  0  0  0  0
  -30.2725  -27.4141   18.8991 C   0  0  0  0  0  0  0  0  0  0  0  0
  -29.6392  -25.9944   20.7485 C   0  0  0  0  0  0  0  0  0  0  0  0
  -23.6829   -8.3435   20.8796 C   0  0  0  0  0  0  0  0  0  0  0  0
  -22.6047  -10.8496   21.4304 C   0  0  0  0  0  0  0  0  0  0  0  0
  -21.8637  -16.7624   20.0177 C   0  0  0  0  0  0  0  0  0  0  0  0
  -31.6100  -27.0683   19.0915 C   0  0  0  0  0  0  0  0  0  0  0  0
  -30.9768  -25.6485   20.9410 C   0  0  0  0  0  0  0  0  0  0  0  0
  -21.3473  -17.8406   20.7350 C   0  0  0  0  0  0  0  0  0  0  0  0
  -33.6374  -24.4605   18.3691 C   0  0  0  0  0  0  0  0  0  0  0  0
  -34.3924  -24.1383   17.2414 C   0  0  0  0  0  0  0  0  0  0  0  0
  -18.1041  -26.8981   23.2583 C   0  0  0  0  0  0  0  0  0  0  0  0
  -23.5825  -18.4655   21.3930 C   0  0  0  0  0  0  0  0  0  0  0  0
  -19.6694  -28.7383   23.2352 C   0  0  0  0  0  0  0  0  0  0  0  0
  -35.9074  -25.9539   17.7369 C   0  0  0  0  0  0  0  0  0  0  0  0
  -29.2871  -26.8772   19.7276 C   0  0  0  0  0  0  0  0  0  0  0  0
  -18.8384  -26.2610   22.2581 C   0  0  0  0  0  0  0  0  0  0  0  0
  -26.9678  -26.5812   18.7074 C   0  0  0  0  0  0  0  0  0  0  0  0
  -24.5402   -9.4012   21.2218 C   0  0  0  0  0  0  0  0  0  0  0  0
  -23.2448  -16.5209   19.9915 C   0  0  0  0  0  0  0  0  0  0  0  0
  -23.9957  -10.6670   21.5109 C   0  0  0  0  0  0  0  0  0  0  0  0
  -24.1140  -17.3851   20.6724 C   0  0  0  0  0  0  0  0  0  0  0  0
  -20.4037  -28.1012   22.2350 C   0  0  0  0  0  0  0  0  0  0  0  0
  -31.9621  -26.1855   20.1125 C   0  0  0  0  0  0  0  0  0  0  0  0
  -22.2065  -18.6907   21.4252 C   0  0  0  0  0  0  0  0  0  0  0  0
  -34.0173  -25.5295   19.1807 C   0  0  0  0  0  0  0  0  0  0  0  0
  -35.5274  -24.8850   16.9253 C   0  0  0  0  0  0  0  0  0  0  0  0
  -18.5195  -28.1369   23.7468 C   0  0  0  0  0  0  0  0  0  0  0  0
  -35.1523  -26.2762   18.8646 C   0  0  0  0  0  0  0  0  0  0  0  0
  -19.9882  -26.8624   21.7464 C   0  0  0  0  0  0  0  0  0  0  0  0
  -27.9053  -27.2344   19.5296 C   0  0  0  0  0  0  0  0  0  0  0  0
  -25.8100  -27.3030   18.8662 C   0  0  0  0  0  0  0  0  0  0  0  0
  -27.1289  -25.4253   17.8746 C   0  0  0  0  0  0  0  0  0  0  0  0
  -18.3918  -24.9423   21.7414 C   0  0  0  0  0  0  0  0  0  0  0  0
  -20.4438  -21.8027   21.9970 C   0  0  0  0  0  0  0  0  0  0  0  0
  -19.2722  -22.5804   21.6159 C   0  0  0  0  0  0  0  0  0  0  0  0
  -25.1238  -14.1390   20.9399 C   0  0  0  0  0  0  0  0  0  0  0  0
  -27.4286  -15.8944   19.4809 C   0  0  0  0  0  0  0  0  0  0  0  0
  -28.4919  -18.9504   18.3962 C   0  0  0  0  0  0  0  0  0  0  0  0
  -22.1187  -29.9410   22.0939 C   0  0  0  0  0  0  0  0  0  0  0  0
  -26.0193   -9.1291   21.3356 C   0  0  0  0  0  0  0  0  0  0  0  0
  -23.7881  -15.3691   19.1910 C   0  0  0  0  0  0  0  0  0  0  0  0
  -25.6062  -17.1812   20.6593 C   0  0  0  0  0  0  0  0  0  0  0  0
  -26.8722  -10.3950   21.3488 C   0  0  0  0  0  0  0  0  0  0  0  0
  -24.9971  -31.7787   21.0864 C   0  0  0  0  0  0  0  0  0  0  0  0
  -26.2840  -11.4251   22.3078 C   0  0  0  0  0  0  0  0  0  0  0  0
  -25.9332  -30.7065   20.5239 C   0  0  0  0  0  0  0  0  0  0  0  0
  -24.2100  -31.2685   22.2922 C   0  0  0  0  0  0  0  0  0  0  0  0
  -24.4154  -28.9419   21.5085 C   0  0  0  0  0  0  0  0  0  0  0  0
  -24.8754  -11.8448   21.8704 C   0  0  1  0  0  0  0  0  0  0  0  0
  -25.1693  -14.9175   19.6556 C   0  0  1  0  0  0  0  0  0  0  0  0
  -25.1818  -29.3884   20.2528 C   0  0  2  0  0  0  0  0  0  0  0  0
  -30.4345  -20.0766   17.2756 C   0  0  0  0  0  0  0  0  0  0  0  0
  -29.0109  -15.7517   22.0859 C   0  0  0  0  0  0  0  0  0  0  0  0
  -30.4327  -17.6327   21.2441 C   0  0  0  0  0  0  0  0  0  0  0  0
  -30.3827  -15.4626   20.0150 C   0  0  0  0  0  0  0  0  0  0  0  0
  -26.8216  -19.8161   16.1115 C   0  0  0  0  0  0  0  0  0  0  0  0
  -20.4970  -20.3295   21.6436 C   0  0  0  0  0  0  0  0  0  1  0  0
  -28.3715  -16.9912   19.9132 C   0  0  1  0  0  0  0  0  0  0  0  0
  -29.0883  -19.3985   17.0740 C   0  0  2  0  0  0  0  0  0  0  0  0
  -29.5212  -16.4625   20.8166 C   0  0  0  0  0  0  0  0  0  0  0  0
  -27.3880  -28.2902   20.1636 N   0  0  0  0  0  0  0  0  0  0  0  0
  -26.1129  -28.3058   19.7396 N   0  0  0  0  0  0  0  0  0  0  0  0
  -26.0885  -16.0375   19.8675 N   0  0  0  0  0  0  0  0  0  0  0  0
  -23.5211  -30.0196   21.9598 N   0  0  0  0  0  0  0  0  0  0  0  0
  -24.5728  -27.1714   18.3425 N   0  0  0  0  0  0  0  0  0  0  0  0
  -28.3850  -24.8054   17.8279 N   0  0  0  0  0  0  0  0  0  0  0  0
  -18.3043  -21.9391   20.9701 N   0  0  0  0  0  0  0  0  0  0  0  0
  -21.5713  -28.7149   21.7176 N   0  0  0  0  0  0  0  0  0  0  0  0
  -24.9461  -12.7795   20.7678 N   0  0  0  0  0  0  0  0  0  0  0  0
  -28.8250  -17.6451   18.6904 N   0  0  0  0  0  0  0  0  0  0  0  0
  -17.2364  -24.8133   21.1932 N   0  3  0  0  0  0  0  0  0  0  0  0
  -19.3477  -23.8732   21.9517 N   0  3  0  0  0  0  0  0  0  0  0  0
  -28.1752  -20.3595   16.3931 N   0  3  0  0  0  0  0  0  0  0  0  0
  -26.1912  -24.9658   17.1795 O   0  0  0  0  0  0  0  0  0  0  0  0
  -21.3715  -22.3442   22.5970 O   0  0  0  0  0  0  0  0  0  0  0  0
  -25.2428  -14.7279   22.0080 O   0  0  0  0  0  0  0  0  0  0  0  0
  -27.8637  -14.9492   18.8184 O   0  0  0  0  0  0  0  0  0  0  0  0
  -27.8029  -19.6860   19.0995 O   0  0  0  0  0  0  0  0  0  0  0  0
  -21.4495  -30.9004   22.4860 O   0  0  0  0  0  0  0  0  0  0  0  0
  -33.2672  -25.8476   20.3004 O   0  0  0  0  0  0  0  0  0  0  0  0
  -21.7050  -19.7434   22.1267 O   0  0  0  0  0  0  0  0  0  1  0  0
  -36.2532  -24.5745   15.8432 F   0  0  0  0  0  0  0  0  0  0  0  0
  -17.8144  -28.7487   24.7074 F   0  0  0  0  0  0  0  0  0  0  0  0
  -35.5230  -27.3035   19.6412 F   0  0  0  0  0  0  0  0  0  0  0  0
  -20.6947  -26.2492   20.7845 F   0  0  0  0  0  0  0  0  0  0  0  0
  1  2  1  0  0  0  0
  1  5  2  0  0  0  0
  2  6  2  0  0  0  0
  3  8  2  0  0  0  0
  3 17  1  0  0  0  0
  4  9  1  0  0  0  0
  4 17  2  0  0  0  0
  5 20  1  0  0  0  0
  6 22  1  0  0  0  0
  7 10  2  0  0  0  0
  7 21  1  0  0  0  0
  8 25  1  0  0  0  0
  9 25  2  0  0  0  0
 10 26  1  0  0  0  0
 11 12  2  0  0  0  0
 11 27  1  0  0  0  0
 12 28  1  0  0  0  0
 13 18  1  0  0  0  0
 13 29  2  0  0  0  0
 14 23  1  0  0  0  0
 14 26  2  0  0  0  0
 15 24  2  0  0  0  0
 15 29  1  0  0  0  0
 16 28  2  0  0  0  0
 16 30  1  0  0  0  0
 17 32  1  0  0  0  0
 18 31  2  0  0  0  0
 18 35  1  0  0  0  0
 19 32  1  0  0  0  0
 19 33  2  0  0  0  0
 19 34  1  0  0  0  0
 20 22  2  0  0  0  0
 20 42  1  0  0  0  0
 21 23  2  0  0  0  0
 21 43  1  0  0  0  0
 22 51  1  0  0  0  0
 23 44  1  0  0  0  0
 24 31  1  0  0  0  0
 24 70  1  0  0  0  0
 25 82  1  0  0  0  0
 26 83  1  0  0  0  0
 27 30  2  0  0  0  0
 27 82  1  0  0  0  0
 28 84  1  0  0  0  0
 29 85  1  0  0  0  0
 30 86  1  0  0  0  0
 31 87  1  0  0  0  0
 32 63  2  0  0  0  0
 33 64  1  0  0  0  0
 33 67  1  0  0  0  0
 34 68  1  0  0  0  0
 34 76  2  0  0  0  0
 35 73  2  0  0  0  0
 35 74  1  0  0  0  0
 36 37  1  0  0  0  0
 36 59  1  0  0  0  0
 36 77  2  0  0  0  0
 37 69  1  0  0  0  0
 37 74  2  0  0  0  0
 38 52  1  0  0  0  0
 38 71  1  0  0  0  0
 38 78  2  0  0  0  0
 39 60  1  0  0  0  0
 39 65  1  0  0  0  0
 39 79  2  0  0  0  0
 40 61  1  0  0  0  0
 40 72  1  0  0  0  0
 40 80  2  0  0  0  0
 41 66  1  0  0  0  0
 41 70  1  0  0  0  0
 41 81  2  0  0  0  0
 42 45  1  0  0  0  0
 43 52  1  0  0  0  0
 44 65  1  0  0  0  0
 45 47  1  0  0  0  0
 46 48  1  0  0  0  0
 46 49  1  0  0  0  0
 47 51  1  0  0  0  0
 48 53  1  0  0  0  0
 49 66  1  0  0  0  0
 50 53  1  0  0  0  0
 50 66  1  0  0  0  0
 51 71  1  0  0  0  0
 52 65  1  0  0  0  0
 53 64  1  0  0  0  0
 54 61  1  0  0  0  0
 55 62  1  0  0  0  0
 56 62  1  0  0  0  0
 57 62  1  0  0  0  0
 58 75  1  0  0  0  0
 59 83  1  0  0  0  0
 60 62  1  0  0  0  0
 60 72  1  0  0  0  0
 61 75  1  0  0  0  0
 63 64  1  0  0  0  0
M  CHG  3  73   1  74   1  75   1
M  ISO  4  41 100  59 101  70 100  83 101
M  END
> <Batch ID>
0163

> <Smiles>
CNC(C)C(=O)NC(C(=O)N1Cc2cc([101O:1][101CH2:1]C(=O)C(=N)NC(=N)c3cc(F)cc([100NH:0][100C:0](=O)N4CCCC(n5nc(-c6ccc(Oc7ccc(F)cc7F)cc6)c(C(N)=O)c5N)C4)c3F)ccc2CC1C(=O)NC1CCCc2ccccc21)C(C)(C)C

> <Shape>
0.268

> <Color>
0.061

> <Negative vol penalty>
0.000

$$$$

  -OEChem-04052303593D

 85 93  0     1  0  0  0  0  0999 V2000
  -21.5054  -20.2259   20.8475 C   0  0  0  0  0  0  0  0  0  0  0  0
  -22.8385  -20.4117   21.1990 C   0  0  0  0  0  0  0  0  0  0  0  0
  -24.4616   -9.8155   21.3907 C   0  0  0  0  0  0  0  0  0  0  0  0
  -24.9394  -10.8604   23.5159 C   0  0  0  0  0  0  0  0  0  0  0  0
  -20.7743  -21.2830   20.3071 C   0  0  0  0  0  0  0  0  0  0  0  0
  -23.4417  -21.6545   21.0093 C   0  0  0  0  0  0  0  0  0  0  0  0
  -27.7109  -24.2533   24.5486 C   0  0  0  0  0  0  0  0  0  0  0  0
  -24.1819   -8.6151   22.0437 C   0  0  0  0  0  0  0  0  0  0  0  0
  -24.6597   -9.6601   24.1690 C   0  0  0  0  0  0  0  0  0  0  0  0
  -29.0985  -24.3339   24.4388 C   0  0  0  0  0  0  0  0  0  0  0  0
  -21.6197   -7.2683   23.7913 C   0  0  0  0  0  0  0  0  0  0  0  0
  -20.4779   -6.5687   23.4010 C   0  0  0  0  0  0  0  0  0  0  0  0
  -28.8851  -26.5071   23.4138 C   0  0  0  0  0  0  0  0  0  0  0  0
  -27.6070  -20.3389   21.0325 C   0  0  0  0  0  0  0  0  0  0  0  0
  -21.8473   -4.6738   22.7917 C   0  0  0  0  0  0  0  0  0  0  0  0
  -24.8404  -10.9381   22.1268 C   0  0  0  0  0  0  0  0  0  0  0  0
  -24.2242  -13.2120   21.1483 C   0  0  0  0  0  0  0  0  0  0  0  0
  -21.3661  -22.5421   20.1196 C   0  0  0  0  0  0  0  0  0  0  0  0
  -26.8982  -25.2960   24.0811 C   0  0  0  0  0  0  0  0  0  0  0  0
  -22.7183  -22.7291   20.4646 C   0  0  0  0  0  0  0  0  0  0  0  0
  -27.4876  -26.4385   23.5212 C   0  0  0  0  0  0  0  0  0  0  0  0
  -28.1138  -21.6314   20.7570 C   0  0  0  0  0  0  0  0  0  0  0  0
  -24.2810   -8.5374   23.4329 C   0  0  0  0  0  0  0  0  0  0  0  0
  -29.6856  -25.4596   23.8687 C   0  0  0  0  0  0  0  0  0  0  0  0
  -22.8753   -6.6707   23.6818 C   0  0  0  0  0  0  0  0  0  0  0  0
  -20.5916   -5.2714   22.9012 C   0  0  0  0  0  0  0  0  0  0  0  0
  -22.9891   -5.3734   23.1821 C   0  0  0  0  0  0  0  0  0  0  0  0
  -25.1300  -12.1782   21.4527 C   0  0  0  0  0  0  0  0  0  0  0  0
  -29.3392  -21.4423   20.1616 C   0  0  0  0  0  0  0  0  0  0  0  0
  -24.9869  -14.1603   20.5115 C   0  0  0  0  0  0  0  0  0  0  0  0
  -28.5588  -19.4521   20.5856 C   0  0  0  0  0  0  0  0  0  0  0  0
  -22.8190  -13.3066   21.4171 C   0  0  0  0  0  0  0  0  0  0  0  0
  -24.6468  -25.5588   21.8527 C   0  0  0  0  0  0  0  0  0  0  0  0
  -24.3231  -28.5418   23.0853 C   0  0  0  0  0  0  0  0  0  0  0  0
  -31.9166  -24.0554   20.6476 C   0  0  0  0  0  0  0  0  0  0  0  0
  -25.7268  -31.1343   24.8044 C   0  0  0  0  0  0  0  0  0  0  0  0
  -29.6228  -17.2183   20.1120 C   0  0  0  0  0  0  0  0  0  0  0  0
  -20.5492  -23.6414   19.4881 C   0  0  0  0  0  0  0  0  0  0  0  0
  -25.4043  -25.2054   24.2312 C   0  0  0  0  0  0  0  0  0  0  0  0
  -26.6605  -27.5942   23.0226 C   0  0  0  0  0  0  0  0  0  0  0  0
  -21.1558  -25.0307   19.6673 C   0  0  0  0  0  0  0  0  0  0  0  0
  -29.7240  -13.9334   18.7423 C   0  0  0  0  0  0  0  0  0  0  0  0
  -22.6470  -25.0075   19.3469 C   0  0  0  0  0  0  0  0  0  0  0  0
  -28.4633  -13.2690   19.3003 C   0  0  0  0  0  0  0  0  0  0  0  0
  -30.3673  -14.8738   19.7600 C   0  0  0  0  0  0  0  0  0  0  0  0
  -28.2044  -15.2180   20.8881 C   0  0  0  0  0  0  0  0  0  0  0  0
  -23.4009  -24.0693   20.2971 C   0  0  1  0  0  0  0  0  0  0  0  0
  -24.6502  -26.1017   23.2538 C   0  0  1  0  0  0  0  0  0  0  0  0
  -27.4848  -14.3112   19.8764 C   0  0  2  0  0  0  0  0  0  0  0  0
  -31.1744  -21.7892   18.4575 C   0  0  0  0  0  0  0  0  0  0  0  0
  -25.2297  -33.4539   25.6228 C   0  0  0  0  0  0  0  0  0  0  0  0
  -24.6835  -29.6160   20.2523 C   0  0  0  0  0  0  0  0  0  0  0  0
  -25.1279  -31.8734   21.2395 C   0  0  0  0  0  0  0  0  0  0  0  0
  -22.9163  -30.7741   21.5901 C   0  0  0  0  0  0  0  0  0  0  0  0
  -26.1095  -30.3442   27.6308 C   0  0  0  0  0  0  0  0  0  0  0  0
  -32.8052  -24.2564   21.8621 C   0  0  0  0  0  0  0  0  0  0  0  0
  -32.9120  -25.7214   22.2702 C   0  0  0  0  0  0  0  0  0  0  0  0
  -31.5592  -26.2953   22.6657 C   0  0  0  0  0  0  0  0  0  1  0  0
  -30.3930  -22.3872   19.6257 C   0  0  2  0  0  0  0  0  0  0  0  0
  -24.9477  -29.8875   22.8062 C   0  0  1  0  0  0  0  0  0  0  0  0
  -25.2124  -31.9714   25.9616 C   0  0  2  0  0  0  0  0  0  0  0  0
  -24.4346  -30.5153   21.4796 C   0  0  0  0  0  0  0  0  0  0  0  0
  -26.3730  -12.4445   21.0428 N   0  0  0  0  0  0  0  0  0  0  0  0
  -26.2537  -13.6564   20.4743 N   0  0  0  0  0  0  0  0  0  0  0  0
  -25.2039  -27.4555   23.1857 N   0  0  0  0  0  0  0  0  0  0  0  0
  -29.3821  -15.8358   20.2588 N   0  0  0  0  0  0  0  0  0  0  0  0
  -27.5166  -22.8100   21.0249 N   0  0  0  0  0  0  0  0  0  0  0  0
  -24.6907  -15.3677   19.9852 N   0  0  0  0  0  0  0  0  0  0  0  0
  -22.1925  -12.2427   22.0803 N   0  0  0  0  0  0  0  0  0  0  0  0
  -28.6014  -18.0358   20.5945 N   0  0  0  0  0  0  0  0  0  0  0  0
  -23.5959  -24.7028   21.5836 N   0  0  0  0  0  0  0  0  0  0  0  0
  -31.2915  -22.8172   20.6707 N   0  0  0  0  0  0  0  0  0  0  0  0
  -24.7011  -30.7052   23.9889 N   0  0  0  0  0  0  0  0  0  0  0  0
  -26.0553  -31.7560   27.1716 N   0  3  0  0  0  0  0  0  0  0  0  0
  -22.1359  -14.2979   21.0648 O   0  0  0  0  0  0  0  0  0  0  0  0
  -25.5312  -25.8930   21.0731 O   0  0  0  0  0  0  0  0  0  0  0  0
  -23.0994  -28.4587   23.2167 O   0  0  0  0  0  0  0  0  0  0  0  0
  -31.7805  -24.8976   19.7642 O   0  0  0  0  0  0  0  0  0  0  0  0
  -26.9195  -30.8889   24.6383 O   0  0  0  0  0  0  0  0  0  0  0  0
  -30.6466  -17.6450   19.5717 O   0  0  0  0  0  0  0  0  0  0  0  0
  -29.6179  -20.1167   20.0533 O   0  0  0  0  0  0  0  0  0  0  0  0
  -24.0079   -7.3663   24.0705 O   0  0  0  0  0  0  0  0  0  0  0  0
  -31.0397  -25.5406   23.7597 O   0  0  0  0  0  0  0  0  0  1  0  0
  -19.4949   -4.5992   22.5278 F   0  0  0  0  0  0  0  0  0  0  0  0
  -24.1925   -4.7936   23.0756 F   0  0  0  0  0  0  0  0  0  0  0  0
  1  2  1  0  0  0  0
  1  5  2  0  0  0  0
  2  6  2  0  0  0  0
  3  8  2  0  0  0  0
  3 16  1  0  0  0  0
  4  9  1  0  0  0  0
  4 16  2  0  0  0  0
  5 18  1  0  0  0  0
  6 20  1  0  0  0  0
  7 10  2  0  0  0  0
  7 19  1  0  0  0  0
  8 23  1  0  0  0  0
  9 23  2  0  0  0  0
 10 24  1  0  0  0  0
 11 12  2  0  0  0  0
 11 25  1  0  0  0  0
 12 26  1  0  0  0  0
 13 21  1  0  0  0  0
 13 24  2  0  0  0  0
 14 22  1  0  0  0  0
 14 31  2  0  0  0  0
 15 26  2  0  0  0  0
 15 27  1  0  0  0  0
 16 28  1  0  0  0  0
 17 28  1  0  0  0  0
 17 30  2  0  0  0  0
 17 32  1  0  0  0  0
 18 20  2  0  0  0  0
 18 38  1  0  0  0  0
 19 21  2  0  0  0  0
 19 39  1  0  0  0  0
 20 47  1  0  0  0  0
 21 40  1  0  0  0  0
 22 29  2  0  0  0  0
 22 67  1  0  0  0  0
 23 82  1  0  0  0  0
 24 83  1  0  0  0  0
 25 27  2  0  0  0  0
 25 82  1  0  0  0  0
 26 84  1  0  0  0  0
 27 85  1  0  0  0  0
 28 63  2  0  0  0  0
 29 59  1  0  0  0  0
 29 81  1  0  0  0  0
 30 64  1  0  0  0  0
 30 68  1  0  0  0  0
 31 70  1  0  0  0  0
 31 81  1  0  0  0  0
 32 69  1  0  0  0  0
 32 75  2  0  0  0  0
 33 48  1  0  0  0  0
 33 71  1  0  0  0  0
 33 76  2  0  0  0  0
 34 60  1  0  0  0  0
 34 65  1  0  0  0  0
 34 77  2  0  0  0  0
 35 56  1  0  0  0  0
 35 72  1  0  0  0  0
 35 78  2  0  0  0  0
 36 61  1  0  0  0  0
 36 73  1  0  0  0  0
 36 79  2  0  0  0  0
 37 66  1  0  0  0  0
 37 70  1  0  0  0  0
 37 80  2  0  0  0  0
 38 41  1  0  0  0  0
 39 48  1  0  0  0  0
 40 65  1  0  0  0  0
 41 43  1  0  0  0  0
 42 44  1  0  0  0  0
 42 45  1  0  0  0  0
 43 47  1  0  0  0  0
 44 49  1  0  0  0  0
 45 66  1  0  0  0  0
 46 49  1  0  0  0  0
 46 66  1  0  0  0  0
 47 71  1  0  0  0  0
 48 65  1  0  0  0  0
 49 64  1  0  0  0  0
 50 59  1  0  0  0  0
 51 61  1  0  0  0  0
 52 62  1  0  0  0  0
 53 62  1  0  0  0  0
 54 62  1  0  0  0  0
 55 74  1  0  0  0  0
 56 57  1  0  0  0  0
 57 58  1  0  0  0  0
 58 83  1  0  0  0  0
 59 72  1  0  0  0  0
 60 62  1  0  0  0  0
 60 73  1  0  0  0  0
 61 74  1  0  0  0  0
 63 64  1  0  0  0  0
M  CHG  1  74   1
M  ISO  4  37 100  58 101  70 100  83 101
M  END
> <Batch ID>
0163

> <Smiles>
CNC(C)C(=O)NC(C(=O)N1Cc2cc([101O:1][101CH2:1]CCC(=O)NC(C)c3oc([100NH:0][100C:0](=O)N4CCCC(n5nc(-c6ccc(Oc7ccc(F)cc7F)cc6)c(C(N)=O)c5N)C4)cc3N)ccc2CC1C(=O)NC1CCCc2ccccc21)C(C)(C)C

> <Shape>
0.257

> <Color>
0.129

> <Negative vol penalty>
0.000

$$$$

  -OEChem-04052303593D

 89 97  0     1  0  0  0  0  0999 V2000
  -17.0777  -26.5226   22.1728 C   0  0  0  0  0  0  0  0  0  0  0  0
  -18.3869  -26.0776   22.0204 C   0  0  0  0  0  0  0  0  0  0  0  0
  -30.3556  -17.5574   18.8988 C   0  0  0  0  0  0  0  0  0  0  0  0
  -23.4211  -15.6377   21.0927 C   0  0  0  0  0  0  0  0  0  0  0  0
  -22.8422  -14.4192   19.0884 C   0  0  0  0  0  0  0  0  0  0  0  0
  -16.7837  -27.8790   22.0394 C   0  0  0  0  0  0  0  0  0  0  0  0
  -19.4028  -26.9886   21.7332 C   0  0  0  0  0  0  0  0  0  0  0  0
  -23.5550  -26.2124   24.5265 C   0  0  0  0  0  0  0  0  0  0  0  0
  -29.5755  -18.5049   19.5617 C   0  0  0  0  0  0  0  0  0  0  0  0
  -30.7795  -16.4103   19.5696 C   0  0  0  0  0  0  0  0  0  0  0  0
  -22.4619  -16.6020   20.7835 C   0  0  0  0  0  0  0  0  0  0  0  0
  -21.8829  -15.3835   18.7793 C   0  0  0  0  0  0  0  0  0  0  0  0
  -24.3940  -25.1670   24.1432 C   0  0  0  0  0  0  0  0  0  0  0  0
  -20.4134  -19.5729   20.3347 C   0  0  0  0  0  0  0  0  0  0  0  0
  -20.7732  -20.9138   20.4684 C   0  0  0  0  0  0  0  0  0  0  0  0
  -25.8631  -26.7488   23.0668 C   0  0  0  0  0  0  0  0  0  0  0  0
  -22.5369  -20.6023   18.8468 C   0  0  0  0  0  0  0  0  0  0  0  0
  -23.6113  -14.5463   20.2451 C   0  0  0  0  0  0  0  0  0  0  0  0
  -29.6434  -17.1581   21.5664 C   0  0  0  0  0  0  0  0  0  0  0  0
  -24.4186  -12.3816   21.3269 C   0  0  0  0  0  0  0  0  0  0  0  0
  -17.7981  -28.8083   21.7600 C   0  0  0  0  0  0  0  0  0  0  0  0
  -23.8586  -27.5350   24.1728 C   0  0  0  0  0  0  0  0  0  0  0  0
  -19.1219  -28.3584   21.5945 C   0  0  0  0  0  0  0  0  0  0  0  0
  -25.0277  -27.8095   23.4490 C   0  0  0  0  0  0  0  0  0  0  0  0
  -29.2194  -18.3052   20.8955 C   0  0  0  0  0  0  0  0  0  0  0  0
  -30.4234  -16.2106   20.9034 C   0  0  0  0  0  0  0  0  0  0  0  0
  -21.6928  -16.4749   19.6269 C   0  0  0  0  0  0  0  0  0  0  0  0
  -25.5467  -25.4348   23.4108 C   0  0  0  0  0  0  0  0  0  0  0  0
  -21.1154  -18.7465   19.4572 C   0  0  0  0  0  0  0  0  0  0  0  0
  -21.8349  -21.4286   19.7244 C   0  0  0  0  0  0  0  0  0  0  0  0
  -22.1771  -19.2612   18.7132 C   0  0  0  0  0  0  0  0  0  0  0  0
  -24.6024  -13.5501   20.5636 C   0  0  0  0  0  0  0  0  0  0  0  0
  -25.6529  -11.7793   21.3355 C   0  0  0  0  0  0  0  0  0  0  0  0
  -27.1376  -21.2245   22.0190 C   0  0  0  0  0  0  0  0  0  0  0  0
  -29.2731  -16.9503   22.9648 C   0  0  0  0  0  0  0  0  0  0  0  0
  -23.2375  -11.8850   21.9705 C   0  0  0  0  0  0  0  0  0  0  0  0
  -26.5464  -22.4036   21.7664 C   0  0  0  0  0  0  0  0  0  0  0  0
  -27.9344  -20.4651   21.0043 C   0  0  0  0  0  0  0  0  0  0  0  0
  -22.4358  -29.7706   22.4174 C   0  0  0  0  0  0  0  0  0  0  0  0
  -24.8501  -31.6292   23.5306 C   0  0  0  0  0  0  0  0  0  0  0  0
  -28.0112  -31.8174   24.8028 C   0  0  0  0  0  0  0  0  0  0  0  0
  -31.0895  -13.8135   20.8634 C   0  0  0  0  0  0  0  0  0  0  0  0
  -17.4243  -30.2581   21.5779 C   0  0  0  0  0  0  0  0  0  0  0  0
  -22.9572  -28.6542   24.6169 C   0  0  0  0  0  0  0  0  0  0  0  0
  -25.4093  -29.2141   23.0617 C   0  0  0  0  0  0  0  0  0  0  0  0
  -18.6177  -31.2077   21.6437 C   0  0  0  0  0  0  0  0  0  0  0  0
  -29.6404  -11.3575   18.7395 C   0  0  0  0  0  0  0  0  0  0  0  0
  -19.7680  -30.6791   20.7927 C   0  0  0  0  0  0  0  0  0  0  0  0
  -28.1525  -11.5385   19.0373 C   0  0  0  0  0  0  0  0  0  0  0  0
  -30.3808  -12.6943   18.6881 C   0  0  0  0  0  0  0  0  0  0  0  0
  -28.7008  -13.7153   20.1914 C   0  0  0  0  0  0  0  0  0  0  0  0
  -20.2553  -29.3192   21.3072 C   0  0  1  0  0  0  0  0  0  0  0  0
  -23.0958  -29.9088   23.7601 C   0  0  1  0  0  0  0  0  0  0  0  0
  -27.9421  -12.3840   20.3058 C   0  0  1  0  0  0  0  0  0  0  0  0
  -27.3298  -16.6310   24.5809 C   0  0  0  0  0  0  0  0  0  0  0  0
  -29.7266  -33.4763   25.5792 C   0  0  0  0  0  0  0  0  0  0  0  0
  -25.4759  -32.3364   20.6292 C   0  0  0  0  0  0  0  0  0  0  0  0
  -27.7047  -33.1860   21.3901 C   0  0  0  0  0  0  0  0  0  0  0  0
  -25.6123  -34.2579   22.2241 C   0  0  0  0  0  0  0  0  0  0  0  0
  -31.3434  -15.1232   22.9599 C   0  0  0  0  0  0  0  0  0  0  0  0
  -28.0372  -30.6855   27.5372 C   0  0  0  0  0  0  0  0  0  0  0  0
  -27.9701  -16.2044   23.2692 C   0  0  0  0  0  0  0  0  0  0  0  0
  -25.7612  -23.1441   22.8084 C   0  0  0  0  0  0  0  0  0  1  0  0
  -26.2473  -31.9594   23.0641 C   0  0  1  0  0  0  0  0  0  0  0  0
  -28.5749  -32.5733   25.9925 C   0  0  2  0  0  0  0  0  0  0  0  0
  -26.2521  -32.9082   21.8323 C   0  0  0  0  0  0  0  0  0  0  0  0
  -25.8550  -13.6842   20.1196 N   0  0  0  0  0  0  0  0  0  0  0  0
  -26.4694  -12.5922   20.6055 N   0  0  0  0  0  0  0  0  0  0  0  0
  -24.4925  -30.2736   23.5138 N   0  0  0  0  0  0  0  0  0  0  0  0
  -30.1176  -13.4826   19.9004 N   0  0  0  0  0  0  0  0  0  0  0  0
  -26.1087  -10.6391   21.8962 N   0  0  0  0  0  0  0  0  0  0  0  0
  -22.0544  -12.6283   21.8613 N   0  0  0  0  0  0  0  0  0  0  0  0
  -28.4258  -19.2828   21.5448 N   0  0  0  0  0  0  0  0  0  0  0  0
  -21.0841  -29.4904   22.4811 N   0  0  0  0  0  0  0  0  0  0  0  0
  -26.9520  -32.4870   24.2275 N   0  0  0  0  0  0  0  0  0  0  0  0
  -30.8755  -15.0142   21.5739 N   0  0  0  0  0  0  0  0  0  0  0  0
  -29.0723  -31.6193   27.0238 N   0  3  0  0  0  0  0  0  0  0  0  0
  -29.9686  -17.3530   23.9076 O   0  0  0  0  0  0  0  0  0  0  0  0
  -23.2356  -10.8222   22.6369 O   0  0  0  0  0  0  0  0  0  0  0  0
  -28.0936  -20.8862   19.8652 O   0  0  0  0  0  0  0  0  0  0  0  0
  -23.1030  -29.9094   21.3990 O   0  0  0  0  0  0  0  0  0  0  0  0
  -24.1059  -32.5397   23.9031 O   0  0  0  0  0  0  0  0  0  0  0  0
  -28.4675  -30.7424   24.4196 O   0  0  0  0  0  0  0  0  0  0  0  0
  -32.0596  -13.0802   21.0896 O   0  0  0  0  0  0  0  0  0  0  0  0
  -26.6359  -23.0256   20.5369 O   0  0  0  0  0  0  0  0  0  0  0  0
  -20.7565  -17.4156   19.3250 O   0  0  0  0  0  0  0  0  0  0  0  0
  -26.3671  -24.4162   23.0348 O   0  0  0  0  0  0  0  0  0  1  0  0
  -22.1793  -22.7167   19.8517 F   0  0  0  0  0  0  0  0  0  0  0  0
  -22.8545  -18.4726   17.8676 F   0  0  0  0  0  0  0  0  0  0  0  0
  1  2  1  0  0  0  0
  1  6  2  0  0  0  0
  2  7  2  0  0  0  0
  3  9  1  0  0  0  0
  3 10  2  0  0  0  0
  4 11  2  0  0  0  0
  4 18  1  0  0  0  0
  5 12  1  0  0  0  0
  5 18  2  0  0  0  0
  6 21  1  0  0  0  0
  7 23  1  0  0  0  0
  8 13  2  0  0  0  0
  8 22  1  0  0  0  0
  9 25  2  0  0  0  0
 10 26  1  0  0  0  0
 11 27  1  0  0  0  0
 12 27  2  0  0  0  0
 13 28  1  0  0  0  0
 14 15  2  0  0  0  0
 14 29  1  0  0  0  0
 15 30  1  0  0  0  0
 16 24  1  0  0  0  0
 16 28  2  0  0  0  0
 17 30  2  0  0  0  0
 17 31  1  0  0  0  0
 18 32  1  0  0  0  0
 19 25  1  0  0  0  0
 19 26  2  0  0  0  0
 19 35  1  0  0  0  0
 20 32  1  0  0  0  0
 20 33  2  0  0  0  0
 20 36  1  0  0  0  0
 21 23  2  0  0  0  0
 21 43  1  0  0  0  0
 22 24  2  0  0  0  0
 22 44  1  0  0  0  0
 23 52  1  0  0  0  0
 24 45  1  0  0  0  0
 25 73  1  0  0  0  0
 26 76  1  0  0  0  0
 27 86  1  0  0  0  0
 28 87  1  0  0  0  0
 29 31  2  0  0  0  0
 29 86  1  0  0  0  0
 30 88  1  0  0  0  0
 31 89  1  0  0  0  0
 32 67  2  0  0  0  0
 33 68  1  0  0  0  0
 33 71  1  0  0  0  0
 34 37  2  0  0  0  0
 34 38  1  0  0  0  0
 35 62  1  0  0  0  0
 35 78  2  0  0  0  0
 36 72  1  0  0  0  0
 36 79  2  0  0  0  0
 37 63  1  0  0  0  0
 37 85  1  0  0  0  0
 38 73  1  0  0  0  0
 38 80  2  0  0  0  0
 39 53  1  0  0  0  0
 39 74  1  0  0  0  0
 39 81  2  0  0  0  0
 40 64  1  0  0  0  0
 40 69  1  0  0  0  0
 40 82  2  0  0  0  0
 41 65  1  0  0  0  0
 41 75  1  0  0  0  0
 41 83  2  0  0  0  0
 42 70  1  0  0  0  0
 42 76  1  0  0  0  0
 42 84  2  0  0  0  0
 43 46  1  0  0  0  0
 44 53  1  0  0  0  0
 45 69  1  0  0  0  0
 46 48  1  0  0  0  0
 47 49  1  0  0  0  0
 47 50  1  0  0  0  0
 48 52  1  0  0  0  0
 49 54  1  0  0  0  0
 50 70  1  0  0  0  0
 51 54  1  0  0  0  0
 51 70  1  0  0  0  0
 52 74  1  0  0  0  0
 53 69  1  0  0  0  0
 54 68  1  0  0  0  0
 55 62  1  0  0  0  0
 56 65  1  0  0  0  0
 57 66  1  0  0  0  0
 58 66  1  0  0  0  0
 59 66  1  0  0  0  0
 60 76  1  0  0  0  0
 61 77  1  0  0  0  0
 63 87  1  0  0  0  0
 64 66  1  0  0  0  0
 64 75  1  0  0  0  0
 65 77  1  0  0  0  0
 67 68  1  0  0  0  0
M  CHG  1  77   1
M  ISO  4  42 100  63 101  76 100  87 101
M  END
> <Batch ID>
0163

> <Smiles>
CCC(=O)c1c(NC(=O)CC(=O)[101CH2:1][101O:1]c2ccc3c(c2)CN(C(=O)C(NC(=O)C(C)NC)C(C)(C)C)C(C(=O)NC2CCCc4ccccc42)C3)cccc1[100N:0](C)[100C:0](=O)N1CCCC(n2nc(-c3ccc(Oc4ccc(F)cc4F)cc3)c(C(N)=O)c2N)C1

> <Shape>
0.283

> <Color>
0.090

> <Negative vol penalty>
0.000

$$$$

  -OEChem-04052303593D

 85 93  0     1  0  0  0  0  0999 V2000
  -29.5371  -30.0592   26.7673 C   0  0  0  0  0  0  0  0  0  0  0  0
  -29.1465  -29.1269   25.8115 C   0  0  0  0  0  0  0  0  0  0  0  0
  -23.2669  -11.9424   23.1884 C   0  0  0  0  0  0  0  0  0  0  0  0
  -23.0045  -14.2740   22.6124 C   0  0  0  0  0  0  0  0  0  0  0  0
  -28.5938  -30.9209   27.3253 C   0  0  0  0  0  0  0  0  0  0  0  0
  -27.8119  -29.0551   25.4138 C   0  0  0  0  0  0  0  0  0  0  0  0
  -27.2993  -28.6761   20.3900 C   0  0  0  0  0  0  0  0  0  0  0  0
  -22.4237  -12.1185   24.2854 C   0  0  0  0  0  0  0  0  0  0  0  0
  -22.1612  -14.4501   23.7094 C   0  0  0  0  0  0  0  0  0  0  0  0
  -27.5292  -27.4252   19.8191 C   0  0  0  0  0  0  0  0  0  0  0  0
  -18.9356  -13.8196   24.4960 C   0  0  0  0  0  0  0  0  0  0  0  0
  -17.7598  -14.5432   24.2980 C   0  0  0  0  0  0  0  0  0  0  0  0
  -25.1499  -27.0401   19.7195 C   0  0  0  0  0  0  0  0  0  0  0  0
  -31.4061  -17.9603   20.2442 C   0  0  0  0  0  0  0  0  0  0  0  0
  -30.8609  -20.3095   20.1013 C   0  0  0  0  0  0  0  0  0  0  0  0
  -29.1759  -18.6468   19.6183 C   0  0  0  0  0  0  0  0  0  0  0  0
  -18.4733  -16.1549   25.9504 C   0  0  0  0  0  0  0  0  0  0  0  0
  -23.5574  -13.0202   22.3519 C   0  0  0  0  0  0  0  0  0  0  0  0
  -24.0579  -12.4744   19.9107 C   0  0  0  0  0  0  0  0  0  0  0  0
  -27.2487  -30.8662   26.9273 C   0  0  0  0  0  0  0  0  0  0  0  0
  -25.9911  -29.1147   20.6404 C   0  0  0  0  0  0  0  0  0  0  0  0
  -26.8494  -29.9160   25.9680 C   0  0  0  0  0  0  0  0  0  0  0  0
  -24.9060  -28.2981   20.2913 C   0  0  0  0  0  0  0  0  0  0  0  0
  -31.7860  -19.2976   20.3575 C   0  0  0  0  0  0  0  0  0  0  0  0
  -30.1011  -17.6349   19.8745 C   0  0  0  0  0  0  0  0  0  0  0  0
  -29.5558  -19.9842   19.7317 C   0  0  0  0  0  0  0  0  0  0  0  0
  -21.8708  -13.3723   24.5459 C   0  0  0  0  0  0  0  0  0  0  0  0
  -26.4545  -26.6057   19.4864 C   0  0  0  0  0  0  0  0  0  0  0  0
  -19.8804  -14.2636   25.4213 C   0  0  0  0  0  0  0  0  0  0  0  0
  -17.5286  -15.7109   25.0251 C   0  0  0  0  0  0  0  0  0  0  0  0
  -19.6492  -15.4312   26.1484 C   0  0  0  0  0  0  0  0  0  0  0  0
  -24.4289  -12.8391   21.2188 C   0  0  0  0  0  0  0  0  0  0  0  0
  -25.2421  -12.4369   19.2158 C   0  0  0  0  0  0  0  0  0  0  0  0
  -22.7590  -12.1946   19.3719 C   0  0  0  0  0  0  0  0  0  0  0  0
  -24.3516  -29.9094   23.2451 C   0  0  0  0  0  0  0  0  0  0  0  0
  -27.7114  -23.2125   19.2233 C   0  0  0  0  0  0  0  0  0  0  0  0
  -22.0827  -30.7529   21.0858 C   0  0  0  0  0  0  0  0  0  0  0  0
  -20.7745  -30.3672   17.9574 C   0  0  0  0  0  0  0  0  0  0  0  0
  -30.5104  -15.1513   19.9782 C   0  0  0  0  0  0  0  0  0  0  0  0
  -26.2565  -31.7864   27.5932 C   0  0  0  0  0  0  0  0  0  0  0  0
  -25.7592  -30.4779   21.2322 C   0  0  0  0  0  0  0  0  0  0  0  0
  -23.4818  -28.7308   20.5210 C   0  0  0  0  0  0  0  0  0  0  0  0
  -24.9313  -31.8982   26.8438 C   0  0  0  0  0  0  0  0  0  0  0  0
  -29.9239  -11.6424   19.8352 C   0  0  0  0  0  0  0  0  0  0  0  0
  -24.4280  -30.5159   26.4402 C   0  0  0  0  0  0  0  0  0  0  0  0
  -28.4135  -11.5183   20.0486 C   0  0  0  0  0  0  0  0  0  0  0  0
  -30.5251  -12.7666   20.6768 C   0  0  0  0  0  0  0  0  0  0  0  0
  -28.3653  -13.9503   20.7342 C   0  0  0  0  0  0  0  0  0  0  0  0
  -25.4156  -29.8242   25.4927 C   0  0  1  0  0  0  0  0  0  0  0  0
  -24.4019  -30.6092   21.9164 C   0  0  1  0  0  0  0  0  0  0  0  0
  -27.7043  -12.8734   19.8584 C   0  0  2  0  0  0  0  0  0  0  0  0
  -33.5880  -19.0730   22.1169 C   0  0  0  0  0  0  0  0  0  0  0  0
  -18.8961  -31.1627   16.4958 C   0  0  0  0  0  0  0  0  0  0  0  0
  -20.1367  -28.9758   22.6236 C   0  0  0  0  0  0  0  0  0  0  0  0
  -18.6110  -29.0491   20.6399 C   0  0  0  0  0  0  0  0  0  0  0  0
  -19.1764  -31.1532   21.8547 C   0  0  0  0  0  0  0  0  0  0  0  0
  -22.6488  -31.4957   15.9643 C   0  0  0  0  0  0  0  0  0  0  0  0
  -28.9386  -22.3963   19.5696 C   0  0  0  0  0  0  0  0  0  0  0  0
  -27.8864  -24.7174   19.2866 C   0  0  0  0  0  0  0  0  0  1  0  0
  -33.1814  -19.6455   20.7526 C   0  0  1  0  0  0  0  0  0  0  0  0
  -20.9321  -30.0449   20.4121 C   0  0  1  0  0  0  0  0  0  0  0  0
  -20.3417  -31.3817   16.9145 C   0  0  2  0  0  0  0  0  0  0  0  0
  -19.7408  -29.7965   21.3799 C   0  0  0  0  0  0  0  0  0  0  0  0
  -25.7458  -13.0202   21.3498 N   0  0  0  0  0  0  0  0  0  0  0  0
  -26.2126  -12.7681   20.1150 N   0  0  0  0  0  0  0  0  0  0  0  0
  -23.3068  -30.0696   21.1079 N   0  0  0  0  0  0  0  0  0  0  0  0
  -29.8055  -14.0202   20.4414 N   0  0  0  0  0  0  0  0  0  0  0  0
  -25.5374  -12.1531   17.9295 N   0  0  0  0  0  0  0  0  0  0  0  0
  -21.6497  -12.2796   20.2242 N   0  0  0  0  0  0  0  0  0  0  0  0
  -29.7158  -16.2762   19.7594 N   0  0  0  0  0  0  0  0  0  0  0  0
  -28.6356  -20.9910   19.4772 N   0  0  0  0  0  0  0  0  0  0  0  0
  -25.2905  -30.3591   24.1538 N   0  0  0  0  0  0  0  0  0  0  0  0
  -20.5925  -30.8426   19.2388 N   0  0  0  0  0  0  0  0  0  0  0  0
  -34.2133  -19.1988   19.7550 N   0  3  0  0  0  0  0  0  0  0  0  0
  -21.2027  -31.2783   15.7025 N   0  3  0  0  0  0  0  0  0  0  0  0
  -22.5891  -11.8627   18.1742 O   0  0  0  0  0  0  0  0  0  0  0  0
  -23.5215  -29.0277   23.4325 O   0  0  0  0  0  0  0  0  0  0  0  0
  -26.6378  -22.6995   18.9102 O   0  0  0  0  0  0  0  0  0  0  0  0
  -21.9038  -31.8741   21.5681 O   0  0  0  0  0  0  0  0  0  0  0  0
  -21.2252  -29.2619   17.6647 O   0  0  0  0  0  0  0  0  0  0  0  0
  -31.7248  -15.1161   19.7636 O   0  0  0  0  0  0  0  0  0  0  0  0
  -21.0477  -13.5445   25.6161 O   0  0  0  0  0  0  0  0  0  0  0  0
  -26.6761  -25.3839   18.9297 O   0  0  0  0  0  0  0  0  0  1  0  0
  -16.4000  -16.4065   24.8338 F   0  0  0  0  0  0  0  0  0  0  0  0
  -20.5536  -15.8634   27.0378 F   0  0  0  0  0  0  0  0  0  0  0  0
  1  2  1  0  0  0  0
  1  5  2  0  0  0  0
  2  6  2  0  0  0  0
  3  8  2  0  0  0  0
  3 18  1  0  0  0  0
  4  9  1  0  0  0  0
  4 18  2  0  0  0  0
  5 20  1  0  0  0  0
  6 22  1  0  0  0  0
  7 10  2  0  0  0  0
  7 21  1  0  0  0  0
  8 27  1  0  0  0  0
  9 27  2  0  0  0  0
 10 28  1  0  0  0  0
 11 12  2  0  0  0  0
 11 29  1  0  0  0  0
 12 30  1  0  0  0  0
 13 23  1  0  0  0  0
 13 28  2  0  0  0  0
 14 24  2  0  0  0  0
 14 25  1  0  0  0  0
 15 24  1  0  0  0  0
 15 26  2  0  0  0  0
 16 25  2  0  0  0  0
 16 26  1  0  0  0  0
 17 30  2  0  0  0  0
 17 31  1  0  0  0  0
 18 32  1  0  0  0  0
 19 32  1  0  0  0  0
 19 33  2  0  0  0  0
 19 34  1  0  0  0  0
 20 22  2  0  0  0  0
 20 40  1  0  0  0  0
 21 23  2  0  0  0  0
 21 41  1  0  0  0  0
 22 49  1  0  0  0  0
 23 42  1  0  0  0  0
 24 60  1  0  0  0  0
 25 70  1  0  0  0  0
 26 71  1  0  0  0  0
 27 82  1  0  0  0  0
 28 83  1  0  0  0  0
 29 31  2  0  0  0  0
 29 82  1  0  0  0  0
 30 84  1  0  0  0  0
 31 85  1  0  0  0  0
 32 64  2  0  0  0  0
 33 65  1  0  0  0  0
 33 68  1  0  0  0  0
 34 69  1  0  0  0  0
 34 76  2  0  0  0  0
 35 50  1  0  0  0  0
 35 72  1  0  0  0  0
 35 77  2  0  0  0  0
 36 58  1  0  0  0  0
 36 59  1  0  0  0  0
 36 78  2  0  0  0  0
 37 61  1  0  0  0  0
 37 66  1  0  0  0  0
 37 79  2  0  0  0  0
 38 62  1  0  0  0  0
 38 73  1  0  0  0  0
 38 80  2  0  0  0  0
 39 67  1  0  0  0  0
 39 70  1  0  0  0  0
 39 81  2  0  0  0  0
 40 43  1  0  0  0  0
 41 50  1  0  0  0  0
 42 66  1  0  0  0  0
 43 45  1  0  0  0  0
 44 46  1  0  0  0  0
 44 47  1  0  0  0  0
 45 49  1  0  0  0  0
 46 51  1  0  0  0  0
 47 67  1  0  0  0  0
 48 51  1  0  0  0  0
 48 67  1  0  0  0  0
 49 72  1  0  0  0  0
 50 66  1  0  0  0  0
 51 65  1  0  0  0  0
 52 60  1  0  0  0  0
 53 62  1  0  0  0  0
 54 63  1  0  0  0  0
 55 63  1  0  0  0  0
 56 63  1  0  0  0  0
 57 75  1  0  0  0  0
 58 71  1  0  0  0  0
 59 83  1  0  0  0  0
 60 74  1  0  0  0  0
 61 63  1  0  0  0  0
 61 73  1  0  0  0  0
 62 75  1  0  0  0  0
 64 65  1  0  0  0  0
M  CHG  2  74   1  75   1
M  ISO  4  39 100  59 101  70 100  83 101
M  END
> <Batch ID>
0163

> <Smiles>
CNC(C)C(=O)NC(C(=O)N1Cc2cc([101O:1][101CH2:1]C(=O)CNc3cc([100NH:0][100C:0](=O)N4CCCC(n5nc(-c6ccc(Oc7ccc(F)cc7F)cc6)c(C(N)=O)c5N)C4)cc(C(C)N)c3)ccc2CC1C(=O)NC1CCCc2ccccc21)C(C)(C)C

> <Shape>
0.248

> <Color>
0.092

> <Negative vol penalty>
0.000

$$$$

  -OEChem-04052303593D

 89 98  0     1  0  0  0  0  0999 V2000
  -27.4707  -33.3716   30.8651 C   0  0  0  0  0  0  0  0  0  0  0  0
  -27.7368  -32.0706   30.4505 C   0  0  0  0  0  0  0  0  0  0  0  0
  -23.9224  -11.3396   23.7566 C   0  0  0  0  0  0  0  0  0  0  0  0
  -24.8551   -9.8795   22.0728 C   0  0  0  0  0  0  0  0  0  0  0  0
  -26.2981  -34.0060   30.4571 C   0  0  0  0  0  0  0  0  0  0  0  0
  -26.8298  -31.4028   29.6284 C   0  0  0  0  0  0  0  0  0  0  0  0
  -28.8186  -28.9099   23.1692 C   0  0  0  0  0  0  0  0  0  0  0  0
  -23.5471  -10.2287   24.5121 C   0  0  0  0  0  0  0  0  0  0  0  0
  -24.4798   -8.7686   22.8283 C   0  0  0  0  0  0  0  0  0  0  0  0
  -29.1771  -28.2192   22.0114 C   0  0  0  0  0  0  0  0  0  0  0  0
  -21.6591   -7.0063   23.4356 C   0  0  0  0  0  0  0  0  0  0  0  0
  -21.0497   -5.9442   22.7677 C   0  0  0  0  0  0  0  0  0  0  0  0
  -26.8813  -27.5254   21.7015 C   0  0  0  0  0  0  0  0  0  0  0  0
  -22.8352   -4.4769   23.4719 C   0  0  0  0  0  0  0  0  0  0  0  0
  -24.5763  -11.1650   22.5369 C   0  0  0  0  0  0  0  0  0  0  0  0
  -24.1182  -13.3068   21.2291 C   0  0  0  0  0  0  0  0  0  0  0  0
  -25.3809  -33.3491   29.6218 C   0  0  0  0  0  0  0  0  0  0  0  0
  -27.4857  -28.9238   23.5896 C   0  0  0  0  0  0  0  0  0  0  0  0
  -25.6432  -32.0285   29.2099 C   0  0  0  0  0  0  0  0  0  0  0  0
  -26.5141  -28.2259   22.8536 C   0  0  0  0  0  0  0  0  0  0  0  0
  -23.8259   -8.9432   24.0479 C   0  0  0  0  0  0  0  0  0  0  0  0
  -28.2109  -27.5284   21.2796 C   0  0  0  0  0  0  0  0  0  0  0  0
  -22.8566   -6.8037   24.1216 C   0  0  0  0  0  0  0  0  0  0  0  0
  -21.6377   -4.6795   22.7858 C   0  0  0  0  0  0  0  0  0  0  0  0
  -23.4447   -5.5390   24.1398 C   0  0  0  0  0  0  0  0  0  0  0  0
  -24.9637  -12.3121   21.7558 C   0  0  0  0  0  0  0  0  0  0  0  0
  -27.7171  -21.3488   20.4158 C   0  0  0  0  0  0  0  0  0  0  0  0
  -28.9952  -21.4134   19.9188 C   0  0  0  0  0  0  0  0  0  0  0  0
  -24.9657  -14.1659   20.5733 C   0  0  0  0  0  0  0  0  0  0  0  0
  -28.6012  -19.4011   20.3861 C   0  0  0  0  0  0  0  0  0  0  0  0
  -29.4050  -23.8581   20.0331 C   0  0  0  0  0  0  0  0  0  0  0  0
  -22.6940  -13.4422   21.3243 C   0  0  0  0  0  0  0  0  0  0  0  0
  -24.9823  -30.1253   26.1125 C   0  0  0  0  0  0  0  0  0  0  0  0
  -23.6391  -30.3207   23.3616 C   0  0  0  0  0  0  0  0  0  0  0  0
  -22.0306  -31.5997   20.9784 C   0  0  0  0  0  0  0  0  0  0  0  0
  -29.6772  -17.1238   20.3355 C   0  0  0  0  0  0  0  0  0  0  0  0
  -24.1044  -34.0587   29.2454 C   0  0  0  0  0  0  0  0  0  0  0  0
  -27.0646  -29.6034   24.8642 C   0  0  0  0  0  0  0  0  0  0  0  0
  -25.0986  -28.2398   23.3626 C   0  0  0  0  0  0  0  0  0  0  0  0
  -23.3744  -33.4160   28.0689 C   0  0  0  0  0  0  0  0  0  0  0  0
  -31.2291  -23.6208   17.7513 C   0  0  0  0  0  0  0  0  0  0  0  0
  -29.8649  -13.6961   19.3905 C   0  0  0  0  0  0  0  0  0  0  0  0
  -23.2956  -31.9036   28.2513 C   0  0  0  0  0  0  0  0  0  0  0  0
  -31.2736  -24.8527   18.6294 C   0  0  0  0  0  0  0  0  0  0  0  0
  -28.5369  -13.1123   19.8783 C   0  0  0  0  0  0  0  0  0  0  0  0
  -30.8522  -22.4069   18.5828 C   0  0  0  0  0  0  0  0  0  0  0  0
  -30.4094  -14.7492   20.3539 C   0  0  0  0  0  0  0  0  0  0  0  0
  -28.1417  -15.2415   21.1811 C   0  0  0  0  0  0  0  0  0  0  0  0
  -24.6957  -31.2799   28.2978 C   0  0  1  0  0  0  0  0  0  0  0  0
  -29.8958  -25.0714   19.2362 C   0  0  2  0  0  0  0  0  0  0  0  0
  -25.6615  -30.2303   24.7787 C   0  0  1  0  0  0  0  0  0  0  0  0
  -27.5213  -14.2230   20.2108 C   0  0  2  0  0  0  0  0  0  0  0  0
  -20.3970  -33.1847   22.0349 C   0  0  0  0  0  0  0  0  0  0  0  0
  -26.7344  -23.5988   18.4718 C   0  0  0  0  0  0  0  0  0  0  0  0
  -25.2218  -21.6233   18.6524 C   0  0  0  0  0  0  0  0  0  0  0  0
  -24.6701  -23.7476   19.8647 C   0  0  0  0  0  0  0  0  0  0  0  0
  -23.2355  -27.2984   23.2778 C   0  0  0  0  0  0  0  0  0  0  0  0
  -21.2981  -27.6711   21.7365 C   0  0  0  0  0  0  0  0  0  0  0  0
  -21.2431  -28.5962   24.0525 C   0  0  0  0  0  0  0  0  0  0  0  0
  -19.9707  -31.0230   18.9331 C   0  0  0  0  0  0  0  0  0  0  0  0
  -26.6497  -22.3233   20.6685 C   0  0  0  0  0  0  0  0  0  0  0  0
  -29.8938  -26.3375   20.0934 C   0  0  0  0  0  0  0  0  0  1  0  0
  -22.7633  -29.6536   22.3313 C   0  0  1  0  0  0  0  0  0  0  0  0
  -20.8360  -32.5071   20.7462 C   0  0  2  0  0  0  0  0  0  0  0  0
  -25.8121  -22.8136   19.4283 C   0  0  0  0  0  0  0  0  0  0  0  0
  -22.1608  -28.3147   22.8429 C   0  0  0  0  0  0  0  0  0  0  0  0
  -26.2497  -12.5189   21.4600 N   0  0  0  0  0  0  0  0  0  0  0  0
  -29.5567  -20.1622   19.9025 N   0  0  0  0  0  0  0  0  0  0  0  0
  -26.2185  -13.6534   20.7402 N   0  0  0  0  0  0  0  0  0  0  0  0
  -29.6905  -22.5995   19.4670 N   0  0  0  0  0  0  0  0  0  0  0  0
  -24.7428  -29.5918   23.8209 N   0  0  0  0  0  0  0  0  0  0  0  0
  -29.3942  -15.7709   20.6191 N   0  0  0  0  0  0  0  0  0  0  0  0
  -24.7540  -15.3022   19.8758 N   0  0  0  0  0  0  0  0  0  0  0  0
  -21.9766  -12.4706   22.0355 N   0  0  0  0  0  0  0  0  0  0  0  0
  -28.6247  -18.0002   20.5979 N   0  0  0  0  0  0  0  0  0  0  0  0
  -25.2491  -31.1801   26.9643 N   0  0  0  0  0  0  0  0  0  0  0  0
  -21.7679  -30.6451   21.9381 N   0  0  0  0  0  0  0  0  0  0  0  0
  -19.6864  -31.7236   20.2119 N   0  3  0  0  0  0  0  0  0  0  0  0
  -28.7459  -24.0307   21.0618 O   0  0  0  0  0  0  0  0  0  0  0  0
  -22.0742  -14.3875   20.7806 O   0  0  0  0  0  0  0  0  0  0  0  0
  -24.2673  -29.1593   26.3520 O   0  0  0  0  0  0  0  0  0  0  0  0
  -23.3515  -31.4548   23.7544 O   0  0  0  0  0  0  0  0  0  0  0  0
  -23.0895  -31.7228   20.3667 O   0  0  0  0  0  0  0  0  0  0  0  0
  -30.7629  -17.4752   19.8669 O   0  0  0  0  0  0  0  0  0  0  0  0
  -27.4517  -20.0482   20.7218 O   0  0  0  0  0  0  0  0  0  0  0  0
  -23.4600   -7.8590   24.7849 O   0  0  0  0  0  0  0  0  0  0  0  0
  -28.5670  -26.8599   20.1477 O   0  0  0  0  0  0  0  0  0  1  0  0
  -21.0516   -3.6593   22.1456 F   0  0  0  0  0  0  0  0  0  0  0  0
  -24.5944   -5.3380   24.7981 F   0  0  0  0  0  0  0  0  0  0  0  0
  1  2  1  0  0  0  0
  1  5  2  0  0  0  0
  2  6  2  0  0  0  0
  3  8  2  0  0  0  0
  3 15  1  0  0  0  0
  4  9  1  0  0  0  0
  4 15  2  0  0  0  0
  5 17  1  0  0  0  0
  6 19  1  0  0  0  0
  7 10  2  0  0  0  0
  7 18  1  0  0  0  0
  8 21  1  0  0  0  0
  9 21  2  0  0  0  0
 10 22  1  0  0  0  0
 11 12  2  0  0  0  0
 11 23  1  0  0  0  0
 12 24  1  0  0  0  0
 13 20  1  0  0  0  0
 13 22  2  0  0  0  0
 14 24  2  0  0  0  0
 14 25  1  0  0  0  0
 15 26  1  0  0  0  0
 16 26  1  0  0  0  0
 16 29  2  0  0  0  0
 16 32  1  0  0  0  0
 17 19  2  0  0  0  0
 17 37  1  0  0  0  0
 18 20  2  0  0  0  0
 18 38  1  0  0  0  0
 19 49  1  0  0  0  0
 20 39  1  0  0  0  0
 21 86  1  0  0  0  0
 22 87  1  0  0  0  0
 23 25  2  0  0  0  0
 23 86  1  0  0  0  0
 24 88  1  0  0  0  0
 25 89  1  0  0  0  0
 26 67  2  0  0  0  0
 27 28  2  0  0  0  0
 27 61  1  0  0  0  0
 27 85  1  0  0  0  0
 28 68  1  0  0  0  0
 28 70  1  0  0  0  0
 29 69  1  0  0  0  0
 29 73  1  0  0  0  0
 30 68  2  0  0  0  0
 30 75  1  0  0  0  0
 30 85  1  0  0  0  0
 31 50  1  0  0  0  0
 31 70  1  0  0  0  0
 31 79  2  0  0  0  0
 32 74  1  0  0  0  0
 32 80  2  0  0  0  0
 33 51  1  0  0  0  0
 33 76  1  0  0  0  0
 33 81  2  0  0  0  0
 34 63  1  0  0  0  0
 34 71  1  0  0  0  0
 34 82  2  0  0  0  0
 35 64  1  0  0  0  0
 35 77  1  0  0  0  0
 35 83  2  0  0  0  0
 36 72  1  0  0  0  0
 36 75  1  0  0  0  0
 36 84  2  0  0  0  0
 37 40  1  0  0  0  0
 38 51  1  0  0  0  0
 39 71  1  0  0  0  0
 40 43  1  0  0  0  0
 41 44  1  0  0  0  0
 41 46  1  0  0  0  0
 42 45  1  0  0  0  0
 42 47  1  0  0  0  0
 43 49  1  0  0  0  0
 44 50  1  0  0  0  0
 45 52  1  0  0  0  0
 46 70  1  0  0  0  0
 47 72  1  0  0  0  0
 48 52  1  0  0  0  0
 48 72  1  0  0  0  0
 49 76  1  0  0  0  0
 50 62  1  0  0  0  0
 51 71  1  0  0  0  0
 52 69  1  0  0  0  0
 53 64  1  0  0  0  0
 54 65  1  0  0  0  0
 55 65  1  0  0  0  0
 56 65  1  0  0  0  0
 57 66  1  0  0  0  0
 58 66  1  0  0  0  0
 59 66  1  0  0  0  0
 60 78  1  0  0  0  0
 61 65  1  0  0  0  0
 62 87  1  0  0  0  0
 63 66  1  0  0  0  0
 63 77  1  0  0  0  0
 64 78  1  0  0  0  0
 67 69  1  0  0  0  0
M  CHG  1  78   1
M  ISO  4  36 100  62 101  75 100  87 101
M  END
> <Batch ID>
0163

> <Smiles>
CNC(C)C(=O)NC(C(=O)N1Cc2cc([101O:1][101CH2:1]C3CCCN(c4nc([100NH:0][100C:0](=O)N5CCCC(n6nc(-c7ccc(Oc8ccc(F)cc8F)cc7)c(C(N)=O)c6N)C5)oc4CC(C)(C)C)C3=O)ccc2CC1C(=O)NC1CCCc2ccccc21)C(C)(C)C

> <Shape>
0.302

> <Color>
0.147

> <Negative vol penalty>
0.000

$$$$

  -OEChem-04052303593D

 83 91  0     1  0  0  0  0  0999 V2000
  -37.0380  -26.8781   16.5265 C   0  0  0  0  0  0  0  0  0  0  0  0
  -35.9441  -26.4864   17.2915 C   0  0  0  0  0  0  0  0  0  0  0  0
  -22.9995   -9.8975   19.9828 C   0  0  0  0  0  0  0  0  0  0  0  0
  -23.7242   -9.9500   22.2869 C   0  0  0  0  0  0  0  0  0  0  0  0
  -37.2736  -28.2320   16.2910 C   0  0  0  0  0  0  0  0  0  0  0  0
  -35.0857  -27.4485   17.8225 C   0  0  0  0  0  0  0  0  0  0  0  0
  -30.2046  -26.2393   17.2243 C   0  0  0  0  0  0  0  0  0  0  0  0
  -22.2320   -8.7639   20.2500 C   0  0  0  0  0  0  0  0  0  0  0  0
  -22.9566   -8.8163   22.5541 C   0  0  0  0  0  0  0  0  0  0  0  0
  -29.6716  -25.2922   18.0977 C   0  0  0  0  0  0  0  0  0  0  0  0
  -23.1984   -5.4768   22.0853 C   0  0  0  0  0  0  0  0  0  0  0  0
  -23.7849   -4.4598   22.8384 C   0  0  0  0  0  0  0  0  0  0  0  0
  -31.9244  -18.7495   22.3237 C   0  0  0  0  0  0  0  0  0  0  0  0
  -31.8243  -17.4760   21.6925 C   0  0  0  0  0  0  0  0  0  0  0  0
  -28.6899  -27.0629   19.4092 C   0  0  0  0  0  0  0  0  0  0  0  0
  -22.0609   -4.7056   24.5131 C   0  0  0  0  0  0  0  0  0  0  0  0
  -23.7456  -10.4905   21.0012 C   0  0  0  0  0  0  0  0  0  0  0  0
  -24.1330  -13.0056   20.8230 C   0  0  0  0  0  0  0  0  0  0  0  0
  -36.4122  -29.2107   16.8113 C   0  0  0  0  0  0  0  0  0  0  0  0
  -29.9930  -27.6081   17.4434 C   0  0  0  0  0  0  0  0  0  0  0  0
  -35.3107  -28.8168   17.5949 C   0  0  0  0  0  0  0  0  0  0  0  0
  -29.2192  -28.0252   18.5358 C   0  0  0  0  0  0  0  0  0  0  0  0
  -22.2105   -8.2233   21.5356 C   0  0  0  0  0  0  0  0  0  0  0  0
  -28.9166  -25.7041   19.1919 C   0  0  0  0  0  0  0  0  0  0  0  0
  -22.0431   -6.1083   22.5460 C   0  0  0  0  0  0  0  0  0  0  0  0
  -23.2162   -4.0742   24.0523 C   0  0  0  0  0  0  0  0  0  0  0  0
  -21.4743   -5.7227   23.7599 C   0  0  0  0  0  0  0  0  0  0  0  0
  -24.5391  -11.6612   20.7257 C   0  0  0  0  0  0  0  0  0  0  0  0
  -30.7719  -19.0837   23.0002 C   0  0  0  0  0  0  0  0  0  0  0  0
  -25.2434  -13.7270   20.4582 C   0  0  0  0  0  0  0  0  0  0  0  0
  -30.5991  -16.8853   21.9108 C   0  0  0  0  0  0  0  0  0  0  0  0
  -29.2607  -23.9511   20.7017 C   0  0  0  0  0  0  0  0  0  1  0  0
  -22.8654  -13.5534   21.2088 C   0  0  0  0  0  0  0  0  0  0  0  0
  -28.9386  -22.9858   21.5768 C   0  0  0  0  0  0  0  0  0  0  0  0
  -30.0521  -22.1887   22.1842 C   0  0  0  0  0  0  0  0  0  0  0  0
  -31.8739  -30.1037   18.0250 C   0  0  0  0  0  0  0  0  0  0  0  0
  -29.1020  -31.7645   17.7405 C   0  0  0  0  0  0  0  0  0  0  0  0
  -25.6937  -31.7645   17.9136 C   0  0  0  0  0  0  0  0  0  0  0  0
  -30.7237  -14.6838   20.6926 C   0  0  0  0  0  0  0  0  0  0  0  0
  -36.7344  -30.6641   16.5694 C   0  0  0  0  0  0  0  0  0  0  0  0
  -30.5524  -28.6160   16.4771 C   0  0  0  0  0  0  0  0  0  0  0  0
  -28.9459  -29.4819   18.8039 C   0  0  0  0  0  0  0  0  0  0  0  0
  -35.5650  -31.6029   16.8548 C   0  0  0  0  0  0  0  0  0  0  0  0
  -29.6038  -12.2298   18.3685 C   0  0  0  0  0  0  0  0  0  0  0  0
  -34.9127  -31.2530   18.1886 C   0  0  0  0  0  0  0  0  0  0  0  0
  -28.1529  -11.9737   18.7826 C   0  0  0  0  0  0  0  0  0  0  0  0
  -30.5043  -12.4735   19.5782 C   0  0  0  0  0  0  0  0  0  0  0  0
  -28.5893  -13.2651   20.9107 C   0  0  0  0  0  0  0  0  0  0  0  0
  -34.3428  -29.8295   18.1673 C   0  0  1  0  0  0  0  0  0  0  0  0
  -30.7052  -30.0065   17.0857 C   0  0  1  0  0  0  0  0  0  0  0  0
  -27.6318  -13.0785   19.7225 C   0  0  2  0  0  0  0  0  0  0  0  0
  -23.7087  -33.2798   17.6670 C   0  0  0  0  0  0  0  0  0  0  0  0
  -29.7040  -32.9928   20.4680 C   0  0  0  0  0  0  0  0  0  0  0  0
  -27.3121  -33.7224   20.5896 C   0  0  0  0  0  0  0  0  0  0  0  0
  -28.7903  -34.5965   18.7803 C   0  0  0  0  0  0  0  0  0  0  0  0
  -24.5982  -30.1579   15.6826 C   0  0  0  0  0  0  0  0  0  0  0  0
  -30.4768  -20.3287   23.7857 C   0  0  0  0  0  0  0  0  0  0  0  0
  -28.0102  -32.1932   18.6909 C   0  0  1  0  0  0  0  0  0  0  0  0
  -24.6369  -32.3009   16.9650 C   0  0  2  0  0  0  0  0  0  0  0  0
  -28.4607  -33.3488   19.6285 C   0  0  0  0  0  0  0  0  0  0  0  0
  -25.8084  -11.5334   20.3299 N   0  0  0  0  0  0  0  0  0  0  0  0
  -26.2094  -12.8067   20.1753 N   0  0  0  0  0  0  0  0  0  0  0  0
  -29.5196  -30.4293   17.8340 N   0  0  0  0  0  0  0  0  0  0  0  0
  -29.9500  -13.5356   20.4205 N   0  0  0  0  0  0  0  0  0  0  0  0
  -25.4780  -15.0524   20.3550 N   0  0  0  0  0  0  0  0  0  0  0  0
  -21.8328  -12.6704   21.5529 N   0  0  0  0  0  0  0  0  0  0  0  0
  -30.0800  -15.6401   21.4772 N   0  0  0  0  0  0  0  0  0  0  0  0
  -29.5982  -21.2254   23.0686 N   0  0  0  0  0  0  0  0  0  0  0  0
  -33.0897  -29.7976   17.4440 N   0  0  0  0  0  0  0  0  0  0  0  0
  -26.8513  -32.5120   17.8641 N   0  0  0  0  0  0  0  0  0  0  0  0
  -23.8156  -31.1835   16.4192 N   0  3  0  0  0  0  0  0  0  0  0  0
  -22.6497  -14.7889   21.2314 O   0  0  0  0  0  0  0  0  0  0  0  0
  -31.2306  -22.3942   21.9073 O   0  0  0  0  0  0  0  0  0  0  0  0
  -31.6866  -30.4335   19.1903 O   0  0  0  0  0  0  0  0  0  0  0  0
  -29.5623  -32.5822   16.9398 O   0  0  0  0  0  0  0  0  0  0  0  0
  -25.5093  -30.7829   18.6299 O   0  0  0  0  0  0  0  0  0  0  0  0
  -31.8625  -14.8214   20.2387 O   0  0  0  0  0  0  0  0  0  0  0  0
  -27.6499  -22.6796   21.9553 O   0  0  0  0  0  0  0  0  0  0  0  0
  -21.4615   -7.1172   21.7968 O   0  0  0  0  0  0  0  0  0  0  0  0
  -28.3957  -24.7817   20.0463 O   0  0  0  0  0  0  0  0  0  1  0  0
  -23.7787   -3.0965   24.7747 F   0  0  0  0  0  0  0  0  0  0  0  0
  -20.3638   -6.3248   24.2071 F   0  0  0  0  0  0  0  0  0  0  0  0
  -29.5758  -17.8648   22.8730 S   0  0  0  0  0  0  0  0  0  0  0  0
  1  2  1  0  0  0  0
  1  5  2  0  0  0  0
  2  6  2  0  0  0  0
  3  8  2  0  0  0  0
  3 17  1  0  0  0  0
  4  9  1  0  0  0  0
  4 17  2  0  0  0  0
  5 19  1  0  0  0  0
  6 21  1  0  0  0  0
  7 10  2  0  0  0  0
  7 20  1  0  0  0  0
  8 23  1  0  0  0  0
  9 23  2  0  0  0  0
 10 24  1  0  0  0  0
 11 12  2  0  0  0  0
 11 25  1  0  0  0  0
 12 26  1  0  0  0  0
 13 14  1  0  0  0  0
 13 29  2  0  0  0  0
 14 31  2  0  0  0  0
 15 22  1  0  0  0  0
 15 24  2  0  0  0  0
 16 26  2  0  0  0  0
 16 27  1  0  0  0  0
 17 28  1  0  0  0  0
 18 28  1  0  0  0  0
 18 30  2  0  0  0  0
 18 33  1  0  0  0  0
 19 21  2  0  0  0  0
 19 40  1  0  0  0  0
 20 22  2  0  0  0  0
 20 41  1  0  0  0  0
 21 49  1  0  0  0  0
 22 42  1  0  0  0  0
 23 79  1  0  0  0  0
 24 80  1  0  0  0  0
 25 27  2  0  0  0  0
 25 79  1  0  0  0  0
 26 81  1  0  0  0  0
 27 82  1  0  0  0  0
 28 61  2  0  0  0  0
 29 57  1  0  0  0  0
 29 83  1  0  0  0  0
 30 62  1  0  0  0  0
 30 65  1  0  0  0  0
 31 67  1  0  0  0  0
 31 83  1  0  0  0  0
 32 34  2  0  0  0  0
 32 80  1  0  0  0  0
 33 66  1  0  0  0  0
 33 72  2  0  0  0  0
 34 35  1  0  0  0  0
 34 78  1  0  0  0  0
 35 68  1  0  0  0  0
 35 73  2  0  0  0  0
 36 50  1  0  0  0  0
 36 69  1  0  0  0  0
 36 74  2  0  0  0  0
 37 58  1  0  0  0  0
 37 63  1  0  0  0  0
 37 75  2  0  0  0  0
 38 59  1  0  0  0  0
 38 70  1  0  0  0  0
 38 76  2  0  0  0  0
 39 64  1  0  0  0  0
 39 67  1  0  0  0  0
 39 77  2  0  0  0  0
 40 43  1  0  0  0  0
 41 50  1  0  0  0  0
 42 63  1  0  0  0  0
 43 45  1  0  0  0  0
 44 46  1  0  0  0  0
 44 47  1  0  0  0  0
 45 49  1  0  0  0  0
 46 51  1  0  0  0  0
 47 64  1  0  0  0  0
 48 51  1  0  0  0  0
 48 64  1  0  0  0  0
 49 69  1  0  0  0  0
 50 63  1  0  0  0  0
 51 62  1  0  0  0  0
 52 59  1  0  0  0  0
 53 60  1  0  0  0  0
 54 60  1  0  0  0  0
 55 60  1  0  0  0  0
 56 71  1  0  0  0  0
 57 68  1  0  0  0  0
 58 60  1  0  0  0  0
 58 70  1  0  0  0  0
 59 71  1  0  0  0  0
 61 62  1  0  0  0  0
M  CHG  1  71   1
M  ISO  4  32 101  39 100  67 100  80 101
M  END
> <Batch ID>
0163

> <Smiles>
CNC(C)C(=O)NC(C(=O)N1Cc2cc([101O:1][101CH2:1]C(=O)C(=O)NCc3ccc([100NH:0][100C:0](=O)N4CCCC(n5nc(-c6ccc(Oc7ccc(F)cc7F)cc6)c(C(N)=O)c5N)C4)s3)ccc2CC1C(=O)NC1CCCc2ccccc21)C(C)(C)C

> <Shape>
0.222

> <Color>
0.194

> <Negative vol penalty>
0.000

$$$$

  -OEChem-04052303593D

 86 94  0     1  0  0  0  0  0999 V2000
  -27.1237  -37.5888   23.5309 C   0  0  0  0  0  0  0  0  0  0  0  0
  -27.7180  -36.4356   24.0332 C   0  0  0  0  0  0  0  0  0  0  0  0
  -29.8042  -13.1778   18.2285 C   0  0  0  0  0  0  0  0  0  0  0  0
  -30.5595  -12.5348   20.4315 C   0  0  0  0  0  0  0  0  0  0  0  0
  -25.7520  -37.6132   23.2825 C   0  0  0  0  0  0  0  0  0  0  0  0
  -26.9407  -35.3064   24.2885 C   0  0  0  0  0  0  0  0  0  0  0  0
  -27.6909  -28.0074   21.6073 C   0  0  0  0  0  0  0  0  0  0  0  0
  -30.9649  -12.6391   17.6733 C   0  0  0  0  0  0  0  0  0  0  0  0
  -31.7202  -11.9961   19.8763 C   0  0  0  0  0  0  0  0  0  0  0  0
  -27.6269  -26.7187   21.0769 C   0  0  0  0  0  0  0  0  0  0  0  0
  -34.3512  -11.0763   15.9776 C   0  0  0  0  0  0  0  0  0  0  0  0
  -34.5066  -11.1541   14.5936 C   0  0  0  0  0  0  0  0  0  0  0  0
  -29.9658  -18.2923   21.1735 C   0  0  0  0  0  0  0  0  0  0  0  0
  -25.2424  -26.6617   21.4753 C   0  0  0  0  0  0  0  0  0  0  0  0
  -32.3756  -12.2789   14.4175 C   0  0  0  0  0  0  0  0  0  0  0  0
  -29.6015  -13.1257   19.6076 C   0  0  0  0  0  0  0  0  0  0  0  0
  -31.0549  -17.4202   21.4115 C   0  0  0  0  0  0  0  0  0  0  0  0
  -27.3448  -14.3100   19.4975 C   0  0  0  0  0  0  0  0  0  0  0  0
  -24.9591  -36.4806   23.5257 C   0  0  0  0  0  0  0  0  0  0  0  0
  -26.5270  -28.6348   22.0602 C   0  0  0  0  0  0  0  0  0  0  0  0
  -25.5569  -35.3161   24.0443 C   0  0  0  0  0  0  0  0  0  0  0  0
  -25.2984  -27.9572   21.9962 C   0  0  0  0  0  0  0  0  0  0  0  0
  -31.9229  -12.0482   18.4972 C   0  0  0  0  0  0  0  0  0  0  0  0
  -26.4056  -26.0475   21.0112 C   0  0  0  0  0  0  0  0  0  0  0  0
  -33.2079  -11.5996   16.5815 C   0  0  0  0  0  0  0  0  0  0  0  0
  -33.5189  -11.7555   13.8136 C   0  0  0  0  0  0  0  0  0  0  0  0
  -32.2202  -12.2009   15.8015 C   0  0  0  0  0  0  0  0  0  0  0  0
  -28.4030  -13.6825   20.1817 C   0  0  0  0  0  0  0  0  0  0  0  0
  -32.1047  -17.9088   20.6691 C   0  0  0  0  0  0  0  0  0  0  0  0
  -30.4279  -19.2517   20.3029 C   0  0  0  0  0  0  0  0  0  0  0  0
  -26.4562  -14.6586   20.4851 C   0  0  0  0  0  0  0  0  0  0  0  0
  -28.5097  -20.4797   20.1084 C   0  0  0  0  0  0  0  0  0  0  0  0
  -31.0593  -16.2332   22.2778 C   0  0  0  0  0  0  0  0  0  0  0  0
  -27.1797  -14.5558   18.0947 C   0  0  0  0  0  0  0  0  0  0  0  0
  -24.9728  -31.6989   23.5673 C   0  0  0  0  0  0  0  0  0  0  0  0
  -27.1155  -22.5035   20.6902 C   0  0  0  0  0  0  0  0  0  0  0  0
  -23.0420  -30.6911   21.4070 C   0  0  0  0  0  0  0  0  0  0  0  0
  -19.9900  -29.9451   22.7358 C   0  0  0  0  0  0  0  0  0  0  0  0
  -29.7860  -14.7303   23.8436 C   0  0  0  0  0  0  0  0  0  0  0  0
  -23.4727  -36.5701   23.2863 C   0  0  0  0  0  0  0  0  0  0  0  0
  -26.5586  -29.9982   22.6957 C   0  0  0  0  0  0  0  0  0  0  0  0
  -24.0777  -28.6580   22.5270 C   0  0  0  0  0  0  0  0  0  0  0  0
  -22.7818  -35.2100   23.2304 C   0  0  0  0  0  0  0  0  0  0  0  0
  -27.3722  -12.4489   24.5350 C   0  0  0  0  0  0  0  0  0  0  0  0
  -23.2430  -34.3291   24.3872 C   0  0  0  0  0  0  0  0  0  0  0  0
  -26.1470  -13.0695   23.8427 C   0  0  0  0  0  0  0  0  0  0  0  0
  -28.2151  -13.4865   25.2721 C   0  0  0  0  0  0  0  0  0  0  0  0
  -27.2944  -15.3116   23.9365 C   0  0  0  0  0  0  0  0  0  0  0  0
  -24.7513  -34.0631   24.3107 C   0  0  1  0  0  0  0  0  0  0  0  0
  -25.3069  -30.8382   22.3845 C   0  0  1  0  0  0  0  0  0  0  0  0
  -26.4342  -14.3766   23.0591 C   0  0  1  0  0  0  0  0  0  0  0  0
  -33.4959  -17.4723   20.4778 C   0  0  0  0  0  0  0  0  0  0  0  0
  -20.6108  -29.8028   25.1631 C   0  0  0  0  0  0  0  0  0  0  0  0
  -21.4831  -28.6674   18.8123 C   0  0  0  0  0  0  0  0  0  0  0  0
  -21.8059  -27.3162   20.8952 C   0  0  0  0  0  0  0  0  0  0  0  0
  -23.7163  -28.6018   19.9361 C   0  0  0  0  0  0  0  0  0  0  0  0
  -32.3606  -14.3274   23.2431 C   0  0  0  0  0  0  0  0  0  0  0  0
  -18.1003  -27.4406   24.4013 C   0  0  0  0  0  0  0  0  0  0  0  0
  -27.6821  -21.6237   19.5964 C   0  0  0  0  0  0  0  0  0  0  0  0
  -27.4969  -23.9687   20.6241 C   0  0  0  0  0  0  0  0  0  1  0  0
  -21.8369  -29.8450   21.0826 C   0  0  1  0  0  0  0  0  0  0  0  0
  -19.5864  -29.4260   24.1040 C   0  0  2  0  0  0  0  0  0  0  0  0
  -22.1919  -28.6290   20.1809 C   0  0  0  0  0  0  0  0  0  0  0  0
  -28.2066  -13.6339   21.5020 N   0  0  0  0  0  0  0  0  0  0  0  0
  -29.7701  -20.3089   19.7712 N   0  0  0  0  0  0  0  0  0  0  0  0
  -27.0146  -14.2354   21.6553 N   0  0  0  0  0  0  0  0  0  0  0  0
  -24.0837  -30.0672   22.1042 N   0  0  0  0  0  0  0  0  0  0  0  0
  -28.5011  -14.6059   24.3793 N   0  0  0  0  0  0  0  0  0  0  0  0
  -25.2595  -15.2827   20.4581 N   0  0  0  0  0  0  0  0  0  0  0  0
  -28.1885  -14.1319   17.2189 N   0  0  0  0  0  0  0  0  0  0  0  0
  -29.9627  -15.8597   22.9531 N   0  0  0  0  0  0  0  0  0  0  0  0
  -25.0368  -33.0555   23.3118 N   0  0  0  0  0  0  0  0  0  0  0  0
  -21.2347  -29.4848   22.3616 N   0  0  0  0  0  0  0  0  0  0  0  0
  -32.1914  -15.5302   22.4195 N   0  3  0  0  0  0  0  0  0  0  0  0
  -19.4612  -27.9412   24.0785 N   0  3  0  0  0  0  0  0  0  0  0  0
  -26.1753  -15.1487   17.6332 O   0  0  0  0  0  0  0  0  0  0  0  0
  -24.6770  -31.1723   24.6335 O   0  0  0  0  0  0  0  0  0  0  0  0
  -26.3950  -22.0581   21.5824 O   0  0  0  0  0  0  0  0  0  0  0  0
  -23.0596  -31.8748   21.0579 O   0  0  0  0  0  0  0  0  0  0  0  0
  -19.2712  -30.6820   22.0643 O   0  0  0  0  0  0  0  0  0  0  0  0
  -30.7169  -13.9630   24.0631 O   0  0  0  0  0  0  0  0  0  0  0  0
  -31.7308  -19.0251   19.9905 O   0  0  0  0  0  0  0  0  0  0  0  0
  -33.0555  -11.5222   17.9557 O   0  0  0  0  0  0  0  0  0  0  0  0
  -26.3489  -24.7784   20.4826 O   0  0  0  0  0  0  0  0  0  1  0  0
  -33.6690  -11.8316   12.4847 F   0  0  0  0  0  0  0  0  0  0  0  0
  -31.1202  -12.7066   16.3762 F   0  0  0  0  0  0  0  0  0  0  0  0
  1  2  1  0  0  0  0
  1  5  2  0  0  0  0
  2  6  2  0  0  0  0
  3  8  2  0  0  0  0
  3 16  1  0  0  0  0
  4  9  1  0  0  0  0
  4 16  2  0  0  0  0
  5 19  1  0  0  0  0
  6 21  1  0  0  0  0
  7 10  2  0  0  0  0
  7 20  1  0  0  0  0
  8 23  1  0  0  0  0
  9 23  2  0  0  0  0
 10 24  1  0  0  0  0
 11 12  2  0  0  0  0
 11 25  1  0  0  0  0
 12 26  1  0  0  0  0
 13 17  1  0  0  0  0
 13 30  2  0  0  0  0
 14 22  1  0  0  0  0
 14 24  2  0  0  0  0
 15 26  2  0  0  0  0
 15 27  1  0  0  0  0
 16 28  1  0  0  0  0
 17 29  2  0  0  0  0
 17 33  1  0  0  0  0
 18 28  1  0  0  0  0
 18 31  2  0  0  0  0
 18 34  1  0  0  0  0
 19 21  2  0  0  0  0
 19 40  1  0  0  0  0
 20 22  2  0  0  0  0
 20 41  1  0  0  0  0
 21 49  1  0  0  0  0
 22 42  1  0  0  0  0
 23 83  1  0  0  0  0
 24 84  1  0  0  0  0
 25 27  2  0  0  0  0
 25 83  1  0  0  0  0
 26 85  1  0  0  0  0
 27 86  1  0  0  0  0
 28 64  2  0  0  0  0
 29 52  1  0  0  0  0
 29 82  1  0  0  0  0
 30 65  1  0  0  0  0
 30 82  1  0  0  0  0
 31 66  1  0  0  0  0
 31 69  1  0  0  0  0
 32 59  1  0  0  0  0
 32 65  2  0  0  0  0
 33 71  1  0  0  0  0
 33 74  2  0  0  0  0
 34 70  1  0  0  0  0
 34 76  2  0  0  0  0
 35 50  1  0  0  0  0
 35 72  1  0  0  0  0
 35 77  2  0  0  0  0
 36 59  1  0  0  0  0
 36 60  1  0  0  0  0
 36 78  2  0  0  0  0
 37 61  1  0  0  0  0
 37 67  1  0  0  0  0
 37 79  2  0  0  0  0
 38 62  1  0  0  0  0
 38 73  1  0  0  0  0
 38 80  2  0  0  0  0
 39 68  1  0  0  0  0
 39 71  1  0  0  0  0
 39 81  2  0  0  0  0
 40 43  1  0  0  0  0
 41 50  1  0  0  0  0
 42 67  1  0  0  0  0
 43 45  1  0  0  0  0
 44 46  1  0  0  0  0
 44 47  1  0  0  0  0
 45 49  1  0  0  0  0
 46 51  1  0  0  0  0
 47 68  1  0  0  0  0
 48 51  1  0  0  0  0
 48 68  1  0  0  0  0
 49 72  1  0  0  0  0
 50 67  1  0  0  0  0
 51 66  1  0  0  0  0
 53 62  1  0  0  0  0
 54 63  1  0  0  0  0
 55 63  1  0  0  0  0
 56 63  1  0  0  0  0
 57 74  1  0  0  0  0
 58 75  1  0  0  0  0
 60 84  1  0  0  0  0
 61 63  1  0  0  0  0
 61 73  1  0  0  0  0
 62 75  1  0  0  0  0
 64 66  1  0  0  0  0
M  CHG  2  74   1  75   1
M  ISO  4  39 100  60 101  71 100  84 101
M  END
> <Batch ID>
0163

> <Smiles>
CN=C([100NH:0][100C:0](=O)N1CCCC(n2nc(-c3ccc(Oc4ccc(F)cc4F)cc3)c(C(N)=O)c2N)C1)c1cc(NC=CC(=O)[101CH2:1][101O:1]c2ccc3c(c2)CN(C(=O)C(NC(=O)C(C)NC)C(C)(C)C)C(C(=O)NC2CCCc4ccccc42)C3)oc1C

> <Shape>
0.275

> <Color>
0.076

> <Negative vol penalty>
0.000

$$$$

  -OEChem-04052303593D

 85 93  0     1  0  0  0  0  0999 V2000
  -18.1850  -25.6181   22.5575 C   0  0  0  0  0  0  0  0  0  0  0  0
  -19.5229  -25.3440   22.2920 C   0  0  0  0  0  0  0  0  0  0  0  0
  -26.2755  -21.0161   16.6601 C   0  0  0  0  0  0  0  0  0  0  0  0
  -23.4224  -15.8294   24.4473 C   0  0  0  0  0  0  0  0  0  0  0  0
  -23.4223  -15.5155   22.0518 C   0  0  0  0  0  0  0  0  0  0  0  0
  -25.0937  -21.3179   17.3367 C   0  0  0  0  0  0  0  0  0  0  0  0
  -17.6978  -26.9160   22.4089 C   0  0  0  0  0  0  0  0  0  0  0  0
  -20.3740  -26.3674   21.8765 C   0  0  0  0  0  0  0  0  0  0  0  0
  -26.3150  -26.9905   23.2265 C   0  0  0  0  0  0  0  0  0  0  0  0
  -27.4928  -21.5120   17.1271 C   0  0  0  0  0  0  0  0  0  0  0  0
  -22.5227  -14.7727   24.5858 C   0  0  0  0  0  0  0  0  0  0  0  0
  -22.5225  -14.4587   22.1903 C   0  0  0  0  0  0  0  0  0  0  0  0
  -27.4753  -26.6751   22.5209 C   0  0  0  0  0  0  0  0  0  0  0  0
  -22.6300  -11.1968   23.0673 C   0  0  0  0  0  0  0  0  0  0  0  0
  -22.8811  -10.0341   22.3389 C   0  0  0  0  0  0  0  0  0  0  0  0
  -26.3463  -22.6118   18.9473 C   0  0  0  0  0  0  0  0  0  0  0  0
  -27.6038  -28.9495   21.7274 C   0  0  0  0  0  0  0  0  0  0  0  0
  -20.7574  -10.2802   21.2136 C   0  0  0  0  0  0  0  0  0  0  0  0
  -23.8722  -16.2009   23.1802 C   0  0  0  0  0  0  0  0  0  0  0  0
  -25.1291  -22.1158   18.4803 C   0  0  0  0  0  0  0  0  0  0  0  0
  -26.2071  -17.2197   23.0456 C   0  0  0  0  0  0  0  0  0  0  0  0
  -18.5457  -27.9577   22.0007 C   0  0  0  0  0  0  0  0  0  0  0  0
  -25.7834  -28.2872   23.1790 C   0  0  0  0  0  0  0  0  0  0  0  0
  -19.8974  -27.6801   21.7210 C   0  0  0  0  0  0  0  0  0  0  0  0
  -26.4380  -29.2795   22.4354 C   0  0  0  0  0  0  0  0  0  0  0  0
  -27.5282  -22.3098   18.2707 C   0  0  0  0  0  0  0  0  0  0  0  0
  -22.0727  -14.0873   23.4574 C   0  0  0  0  0  0  0  0  0  0  0  0
  -28.1183  -27.6539   21.7689 C   0  0  0  0  0  0  0  0  0  0  0  0
  -21.4425  -11.9012   22.8689 C   0  0  0  0  0  0  0  0  0  0  0  0
  -21.9449   -9.5758   21.4121 C   0  0  0  0  0  0  0  0  0  0  0  0
  -20.5062  -11.4429   21.9421 C   0  0  0  0  0  0  0  0  0  0  0  0
  -24.8012  -17.2928   23.0364 C   0  0  0  0  0  0  0  0  0  0  0  0
  -26.6196  -18.5186   22.8745 C   0  0  0  0  0  0  0  0  0  0  0  0
  -29.1098  -23.9595   18.2696 C   0  0  0  0  0  0  0  0  0  0  0  0
  -23.8963  -22.4298   19.1849 C   0  0  0  0  0  0  0  0  0  0  0  0
  -27.0635  -16.0796   23.1955 C   0  0  0  0  0  0  0  0  0  0  0  0
  -23.8973  -23.2737   20.4019 C   0  0  0  0  0  0  0  0  0  0  0  0
  -23.0498  -29.5552   22.1675 C   0  0  0  0  0  0  0  0  0  0  0  0
  -30.1978  -25.9670   19.3283 C   0  0  0  0  0  0  0  0  0  0  0  0
  -24.2777  -32.2634   23.4638 C   0  0  0  0  0  0  0  0  0  0  0  0
  -27.0402  -34.0166   24.4340 C   0  0  0  0  0  0  0  0  0  0  0  0
  -17.9625  -29.3353   21.8085 C   0  0  0  0  0  0  0  0  0  0  0  0
  -24.5458  -28.6181   23.9673 C   0  0  0  0  0  0  0  0  0  0  0  0
  -25.9193  -30.6918   22.3680 C   0  0  0  0  0  0  0  0  0  0  0  0
  -19.0162  -30.4366   21.7254 C   0  0  0  0  0  0  0  0  0  0  0  0
  -25.2755  -23.0259   23.7028 C   0  0  0  0  0  0  0  0  0  0  0  0
  -20.1438  -30.0266   20.7835 C   0  0  0  0  0  0  0  0  0  0  0  0
  -25.4014  -21.5184   23.9205 C   0  0  0  0  0  0  0  0  0  0  0  0
  -24.0519  -23.3677   22.8587 C   0  0  0  0  0  0  0  0  0  0  0  0
  -24.1374  -21.1491   21.7546 C   0  0  0  0  0  0  0  0  0  0  0  0
  -20.8576  -28.7684   21.2922 C   0  0  1  0  0  0  0  0  0  0  0  0
  -23.8066  -29.8412   23.4336 C   0  0  1  0  0  0  0  0  0  0  0  0
  -25.3773  -20.7630   22.5798 C   0  0  2  0  0  0  0  0  0  0  0  0
  -27.7295  -36.2172   25.4238 C   0  0  0  0  0  0  0  0  0  0  0  0
  -23.7869  -33.6229   20.7766 C   0  0  0  0  0  0  0  0  0  0  0  0
  -25.3237  -35.4605   21.5044 C   0  0  0  0  0  0  0  0  0  0  0  0
  -23.2206  -35.0205   22.7717 C   0  0  0  0  0  0  0  0  0  0  0  0
  -28.2545  -32.7068   26.7938 C   0  0  0  0  0  0  0  0  0  0  0  0
  -29.3827  -26.0080   20.6077 C   0  0  0  0  0  0  0  0  0  1  0  0
  -30.3987  -24.5973   18.7065 C   0  0  2  0  0  0  0  0  0  0  0  0
  -25.1450  -33.3917   22.9602 C   0  0  1  0  0  0  0  0  0  0  0  0
  -27.3565  -34.7715   25.7126 C   0  0  2  0  0  0  0  0  0  0  0  0
  -24.3780  -34.3469   22.0028 C   0  0  0  0  0  0  0  0  0  0  0  0
  -24.3508  -18.5396   22.8725 N   0  0  0  0  0  0  0  0  0  0  0  0
  -22.7234  -22.0015   18.8030 N   0  0  0  0  0  0  0  0  0  0  0  0
  -28.7542  -22.8090   18.7410 N   0  0  0  0  0  0  0  0  0  0  0  0
  -25.4802  -19.2618   22.7773 N   0  0  0  0  0  0  0  0  0  0  0  0
  -24.0415  -22.6072   21.6107 N   0  0  0  0  0  0  0  0  0  0  0  0
  -24.7026  -30.9644   23.1509 N   0  0  0  0  0  0  0  0  0  0  0  0
  -27.8422  -19.0860   22.7994 N   0  0  0  0  0  0  0  0  0  0  0  0
  -26.4745  -14.8188   23.3615 N   0  0  0  0  0  0  0  0  0  0  0  0
  -21.7607  -29.1017   22.3728 N   0  0  0  0  0  0  0  0  0  0  0  0
  -25.6925  -34.0453   24.1440 N   0  0  0  0  0  0  0  0  0  0  0  0
  -31.3040  -24.6891   17.5246 N   0  3  0  0  0  0  0  0  0  0  0  0
  -28.4941  -34.1263   26.4271 N   0  3  0  0  0  0  0  0  0  0  0  0
  -28.3140  -16.1783   23.1989 O   0  0  0  0  0  0  0  0  0  0  0  0
  -23.7696  -24.4759   20.2101 O   0  0  0  0  0  0  0  0  0  0  0  0
  -23.5944  -29.7343   21.0844 O   0  0  0  0  0  0  0  0  0  0  0  0
  -30.6754  -26.9886   18.8352 O   0  0  0  0  0  0  0  0  0  0  0  0
  -23.2644  -32.5247   24.1170 O   0  0  0  0  0  0  0  0  0  0  0  0
  -27.9030  -33.4605   23.7581 O   0  0  0  0  0  0  0  0  0  0  0  0
  -21.1949  -13.0558   23.5923 O   0  0  0  0  0  0  0  0  0  0  0  0
  -29.2507  -27.3486   21.0787 O   0  0  0  0  0  0  0  0  0  1  0  0
  -22.1869   -8.4600   20.7116 F   0  0  0  0  0  0  0  0  0  0  0  0
  -19.3641  -12.1161   21.7462 F   0  0  0  0  0  0  0  0  0  0  0  0
  1  2  1  0  0  0  0
  1  7  2  0  0  0  0
  2  8  2  0  0  0  0
  3  6  1  0  0  0  0
  3 10  2  0  0  0  0
  4 11  2  0  0  0  0
  4 19  1  0  0  0  0
  5 12  1  0  0  0  0
  5 19  2  0  0  0  0
  6 20  2  0  0  0  0
  7 22  1  0  0  0  0
  8 24  1  0  0  0  0
  9 13  2  0  0  0  0
  9 23  1  0  0  0  0
 10 26  1  0  0  0  0
 11 27  1  0  0  0  0
 12 27  2  0  0  0  0
 13 28  1  0  0  0  0
 14 15  2  0  0  0  0
 14 29  1  0  0  0  0
 15 30  1  0  0  0  0
 16 20  1  0  0  0  0
 16 26  2  0  0  0  0
 17 25  1  0  0  0  0
 17 28  2  0  0  0  0
 18 30  2  0  0  0  0
 18 31  1  0  0  0  0
 19 32  1  0  0  0  0
 20 35  1  0  0  0  0
 21 32  1  0  0  0  0
 21 33  2  0  0  0  0
 21 36  1  0  0  0  0
 22 24  2  0  0  0  0
 22 42  1  0  0  0  0
 23 25  2  0  0  0  0
 23 43  1  0  0  0  0
 24 51  1  0  0  0  0
 25 44  1  0  0  0  0
 26 66  1  0  0  0  0
 27 82  1  0  0  0  0
 28 83  1  0  0  0  0
 29 31  2  0  0  0  0
 29 82  1  0  0  0  0
 30 84  1  0  0  0  0
 31 85  1  0  0  0  0
 32 64  2  0  0  0  0
 33 67  1  0  0  0  0
 33 70  1  0  0  0  0
 34 60  1  0  0  0  0
 34 66  2  0  0  0  0
 35 37  1  0  0  0  0
 35 65  2  0  0  0  0
 36 71  1  0  0  0  0
 36 76  2  0  0  0  0
 37 68  1  0  0  0  0
 37 77  2  0  0  0  0
 38 52  1  0  0  0  0
 38 72  1  0  0  0  0
 38 78  2  0  0  0  0
 39 59  1  0  0  0  0
 39 60  1  0  0  0  0
 39 79  2  0  0  0  0
 40 61  1  0  0  0  0
 40 69  1  0  0  0  0
 40 80  2  0  0  0  0
 41 62  1  0  0  0  0
 41 73  1  0  0  0  0
 41 81  2  0  0  0  0
 42 45  1  0  0  0  0
 43 52  1  0  0  0  0
 44 69  1  0  0  0  0
 45 47  1  0  0  0  0
 46 48  1  0  0  0  0
 46 49  1  0  0  0  0
 47 51  1  0  0  0  0
 48 53  1  0  0  0  0
 49 68  1  0  0  0  0
 50 53  1  0  0  0  0
 50 68  1  0  0  0  0
 51 72  1  0  0  0  0
 52 69  1  0  0  0  0
 53 67  1  0  0  0  0
 54 62  1  0  0  0  0
 55 63  1  0  0  0  0
 56 63  1  0  0  0  0
 57 63  1  0  0  0  0
 58 75  1  0  0  0  0
 59 83  1  0  0  0  0
 60 74  1  0  0  0  0
 61 63  1  0  0  0  0
 61 73  1  0  0  0  0
 62 75  1  0  0  0  0
 64 67  1  0  0  0  0
M  CHG  2  74   1  75   1
M  ISO  4  35 100  37 100  59 101  83 101
M  END
> <Batch ID>
0163

> <Smiles>
CNC(C)C(=O)NC(C(=O)N1Cc2cc([101O:1][101CH2:1]C(=O)C(=N)CNc3cccc([100C:0](=N)[100C:0](=O)N4CCCC(n5nc(-c6ccc(Oc7ccc(F)cc7F)cc6)c(C(N)=O)c5N)C4)c3)ccc2CC1C(=O)NC1CCCc2ccccc21)C(C)(C)C

> <Shape>
0.209

> <Color>
0.071

> <Negative vol penalty>
0.000

$$$$

  -OEChem-04052303593D

 83 91  0     1  0  0  0  0  0999 V2000
  -31.2304  -23.1412   19.0946 C   0  0  0  0  0  0  0  0  0  0  0  0
  -30.1762  -23.9178   18.6271 C   0  0  0  0  0  0  0  0  0  0  0  0
  -25.2447  -13.6740   21.0692 C   0  0  0  0  0  0  0  0  0  0  0  0
  -27.0102  -12.9119   19.6065 C   0  0  0  0  0  0  0  0  0  0  0  0
  -31.4125  -22.9728   20.4656 C   0  0  0  0  0  0  0  0  0  0  0  0
  -29.3109  -24.5357   19.5306 C   0  0  0  0  0  0  0  0  0  0  0  0
  -24.2683  -27.8195   18.5727 C   0  0  0  0  0  0  0  0  0  0  0  0
  -24.4695  -12.5722   20.7076 C   0  0  0  0  0  0  0  0  0  0  0  0
  -26.2350  -11.8101   19.2449 C   0  0  0  0  0  0  0  0  0  0  0  0
  -22.8959  -27.5935   18.4767 C   0  0  0  0  0  0  0  0  0  0  0  0
  -22.1704   -9.7687   20.4440 C   0  0  0  0  0  0  0  0  0  0  0  0
  -21.5168   -9.0736   21.4615 C   0  0  0  0  0  0  0  0  0  0  0  0
  -22.6387  -28.2086   20.7950 C   0  0  0  0  0  0  0  0  0  0  0  0
  -23.6349  -22.8571   19.8962 C   0  0  0  0  0  0  0  0  0  0  0  0
  -23.6450   -8.5887   22.4972 C   0  0  0  0  0  0  0  0  0  0  0  0
  -22.5292  -23.2941   21.8934 C   0  0  0  0  0  0  0  0  0  0  0  0
  -26.5150  -13.8439   20.5186 C   0  0  0  0  0  0  0  0  0  0  0  0
  -28.2335  -15.0640   21.9558 C   0  0  0  0  0  0  0  0  0  0  0  0
  -30.5412  -23.5791   21.3854 C   0  0  0  0  0  0  0  0  0  0  0  0
  -24.8387  -28.2319   19.7855 C   0  0  0  0  0  0  0  0  0  0  0  0
  -29.4923  -24.3973   20.9186 C   0  0  0  0  0  0  0  0  0  0  0  0
  -24.0182  -28.4416   20.9031 C   0  0  0  0  0  0  0  0  0  0  0  0
  -22.5176  -23.4758   20.5280 C   0  0  0  0  0  0  0  0  0  0  0  0
  -24.9646  -11.6402   19.7955 C   0  0  0  0  0  0  0  0  0  0  0  0
  -22.0813  -27.7853   19.5887 C   0  0  0  0  0  0  0  0  0  0  0  0
  -23.5613   -9.8738   20.4531 C   0  0  0  0  0  0  0  0  0  0  0  0
  -22.2541   -8.4837   22.4881 C   0  0  0  0  0  0  0  0  0  0  0  0
  -24.2985   -9.2838   21.4797 C   0  0  0  0  0  0  0  0  0  0  0  0
  -27.3160  -14.9821   20.8913 C   0  0  0  0  0  0  0  0  0  0  0  0
  -28.7283  -16.3433   21.8850 C   0  0  0  0  0  0  0  0  0  0  0  0
  -24.4581  -22.2263   20.8030 C   0  0  0  0  0  0  0  0  0  0  0  0
  -28.6054  -14.0723   22.9222 C   0  0  0  0  0  0  0  0  0  0  0  0
  -26.9829  -27.0072   21.7871 C   0  0  0  0  0  0  0  0  0  0  0  0
  -26.6580  -29.8728   23.2720 C   0  0  0  0  0  0  0  0  0  0  0  0
  -20.3922  -24.8225   20.4129 C   0  0  0  0  0  0  0  0  0  0  0  0
  -24.7294  -32.6243   23.8690 C   0  0  0  0  0  0  0  0  0  0  0  0
  -26.2366  -21.3044   19.3258 C   0  0  0  0  0  0  0  0  0  0  0  0
  -30.7892  -23.3698   22.8584 C   0  0  0  0  0  0  0  0  0  0  0  0
  -26.3171  -28.4971   19.8654 C   0  0  0  0  0  0  0  0  0  0  0  0
  -24.5784  -28.9033   22.2227 C   0  0  0  0  0  0  0  0  0  0  0  0
  -29.5717  -23.6932   23.7182 C   0  0  0  0  0  0  0  0  0  0  0  0
  -29.5913  -19.8702   18.7787 C   0  0  0  0  0  0  0  0  0  0  0  0
  -29.0118  -25.0549   23.3351 C   0  0  0  0  0  0  0  0  0  0  0  0
  -29.4381  -18.4399   19.2933 C   0  0  0  0  0  0  0  0  0  0  0  0
  -28.2767  -20.4202   18.2335 C   0  0  0  0  0  0  0  0  0  0  0  0
  -26.9918  -18.9105   19.7168 C   0  0  0  0  0  0  0  0  0  0  0  0
  -28.5203  -25.0542   21.8820 C   0  0  1  0  0  0  0  0  0  0  0  0
  -26.8621  -28.4193   21.2882 C   0  0  1  0  0  0  0  0  0  0  0  0
  -28.2894  -18.3434   20.3121 C   0  0  1  0  0  0  0  0  0  0  0  0
  -24.7165  -34.7797   25.1542 C   0  0  0  0  0  0  0  0  0  0  0  0
  -19.4136  -27.2438   17.5297 C   0  0  0  0  0  0  0  0  0  0  0  0
  -26.0774  -28.3341   25.8421 C   0  0  0  0  0  0  0  0  0  0  0  0
  -25.1582  -30.4486   26.8179 C   0  0  0  0  0  0  0  0  0  0  0  0
  -27.5540  -30.3315   26.1329 C   0  0  0  0  0  0  0  0  0  0  0  0
  -26.4771  -21.1298   21.7919 C   0  0  0  0  0  0  0  0  0  0  0  0
  -24.5231  -34.2335   21.3938 C   0  0  0  0  0  0  0  0  0  0  0  0
  -19.5513  -25.4867   19.3270 C   0  0  0  0  0  0  0  0  0  0  0  0
  -25.7593  -30.4202   24.3544 C   0  0  1  0  0  0  0  0  0  0  0  0
  -25.0513  -34.1074   23.8318 C   0  0  2  0  0  0  0  0  0  0  0  0
  -20.3077  -26.5754   18.5657 C   0  0  2  0  0  0  0  0  0  1  0  0
  -26.1266  -29.8730   25.7626 C   0  0  0  0  0  0  0  0  0  0  0  0
  -27.2309  -16.1190   20.1953 N   0  0  0  0  0  0  0  0  0  0  0  0
  -28.1012  -16.9273   20.8240 N   0  0  0  0  0  0  0  0  0  0  0  0
  -26.0307  -29.1431   22.2523 N   0  0  0  0  0  0  0  0  0  0  0  0
  -27.1914  -20.2749   19.2044 N   0  0  0  0  0  0  0  0  0  0  0  0
  -29.6342  -17.0145   22.6276 N   0  0  0  0  0  0  0  0  0  0  0  0
  -28.0005  -12.8100   22.8509 N   0  0  0  0  0  0  0  0  0  0  0  0
  -21.5033  -24.1966   19.8540 N   0  0  0  0  0  0  0  0  0  0  0  0
  -28.1932  -26.4084   21.4936 N   0  0  0  0  0  0  0  0  0  0  0  0
  -25.8239  -31.8734   24.2425 N   0  0  0  0  0  0  0  0  0  0  0  0
  -25.6826  -21.4856   20.6116 N   0  0  0  0  0  0  0  0  0  0  0  0
  -24.2734  -34.7793   22.7527 N   0  3  0  0  0  0  0  0  0  0  0  0
  -29.4371  -14.3039   23.8322 O   0  0  0  0  0  0  0  0  0  0  0  0
  -26.0479  -26.4989   22.3947 O   0  0  0  0  0  0  0  0  0  0  0  0
  -27.8709  -30.0909   23.3254 O   0  0  0  0  0  0  0  0  0  0  0  0
  -20.0822  -24.8677   21.5987 O   0  0  0  0  0  0  0  0  0  0  0  0
  -23.6172  -32.1771   23.5979 O   0  0  0  0  0  0  0  0  0  0  0  0
  -25.9268  -22.0231   18.3682 O   0  0  0  0  0  0  0  0  0  0  0  0
  -24.2086  -10.5648   19.4426 O   0  0  0  0  0  0  0  0  0  0  0  0
  -20.7415  -27.5648   19.4980 O   0  0  0  0  0  0  0  0  0  1  0  0
  -21.6262   -7.8175   23.4660 F   0  0  0  0  0  0  0  0  0  0  0  0
  -25.6349   -9.3824   21.4945 F   0  0  0  0  0  0  0  0  0  0  0  0
  -23.8831  -22.3809   22.4086 S   0  0  0  0  0  0  0  0  0  0  0  0
  1  2  1  0  0  0  0
  1  5  2  0  0  0  0
  2  6  2  0  0  0  0
  3  8  2  0  0  0  0
  3 17  1  0  0  0  0
  4  9  1  0  0  0  0
  4 17  2  0  0  0  0
  5 19  1  0  0  0  0
  6 21  1  0  0  0  0
  7 10  2  0  0  0  0
  7 20  1  0  0  0  0
  8 24  1  0  0  0  0
  9 24  2  0  0  0  0
 10 25  1  0  0  0  0
 11 12  2  0  0  0  0
 11 26  1  0  0  0  0
 12 27  1  0  0  0  0
 13 22  1  0  0  0  0
 13 25  2  0  0  0  0
 14 23  1  0  0  0  0
 14 31  2  0  0  0  0
 15 27  2  0  0  0  0
 15 28  1  0  0  0  0
 16 23  2  0  0  0  0
 16 83  1  0  0  0  0
 17 29  1  0  0  0  0
 18 29  1  0  0  0  0
 18 30  2  0  0  0  0
 18 32  1  0  0  0  0
 19 21  2  0  0  0  0
 19 38  1  0  0  0  0
 20 22  2  0  0  0  0
 20 39  1  0  0  0  0
 21 47  1  0  0  0  0
 22 40  1  0  0  0  0
 23 68  1  0  0  0  0
 24 79  1  0  0  0  0
 25 80  1  0  0  0  0
 26 28  2  0  0  0  0
 26 79  1  0  0  0  0
 27 81  1  0  0  0  0
 28 82  1  0  0  0  0
 29 62  2  0  0  0  0
 30 63  1  0  0  0  0
 30 66  1  0  0  0  0
 31 71  1  0  0  0  0
 31 83  1  0  0  0  0
 32 67  1  0  0  0  0
 32 73  2  0  0  0  0
 33 48  1  0  0  0  0
 33 69  1  0  0  0  0
 33 74  2  0  0  0  0
 34 58  1  0  0  0  0
 34 64  1  0  0  0  0
 34 75  2  0  0  0  0
 35 57  1  0  0  0  0
 35 68  1  0  0  0  0
 35 76  2  0  0  0  0
 36 59  1  0  0  0  0
 36 70  1  0  0  0  0
 36 77  2  0  0  0  0
 37 65  1  0  0  0  0
 37 71  1  0  0  0  0
 37 78  2  0  0  0  0
 38 41  1  0  0  0  0
 39 48  1  0  0  0  0
 40 64  1  0  0  0  0
 41 43  1  0  0  0  0
 42 44  1  0  0  0  0
 42 45  1  0  0  0  0
 43 47  1  0  0  0  0
 44 49  1  0  0  0  0
 45 65  1  0  0  0  0
 46 49  1  0  0  0  0
 46 65  1  0  0  0  0
 47 69  1  0  0  0  0
 48 64  1  0  0  0  0
 49 63  1  0  0  0  0
 50 59  1  0  0  0  0
 51 60  1  0  0  0  0
 52 61  1  0  0  0  0
 53 61  1  0  0  0  0
 54 61  1  0  0  0  0
 55 71  1  0  0  0  0
 56 72  1  0  0  0  0
 57 60  1  0  0  0  0
 58 61  1  0  0  0  0
 58 70  1  0  0  0  0
 59 72  1  0  0  0  0
 60 80  1  0  0  0  0
 62 63  1  0  0  0  0
M  CHG  1  72   1
M  ISO  4  37 100  60 101  71 100  80 101
M  END
> <Batch ID>
0163

> <Smiles>
CNC(C)C(=O)NC(C(=O)N1Cc2cc([101O:1][101CH:1](C)CC(=O)Nc3csc([100N:0](C)[100C:0](=O)N4CCCC(n5nc(-c6ccc(Oc7ccc(F)cc7F)cc6)c(C(N)=O)c5N)C4)c3)ccc2CC1C(=O)NC1CCCc2ccccc21)C(C)(C)C

> <Shape>
0.260

> <Color>
0.054

> <Negative vol penalty>
0.000

$$$$

  -OEChem-04052303593D

 86 94  0     1  0  0  0  0  0999 V2000
  -28.2660  -37.1494   19.5976 C   0  0  0  0  0  0  0  0  0  0  0  0
  -28.6506  -35.8292   19.3868 C   0  0  0  0  0  0  0  0  0  0  0  0
  -20.3741   -9.1108   19.0554 C   0  0  0  0  0  0  0  0  0  0  0  0
  -22.5691   -9.1469   18.0465 C   0  0  0  0  0  0  0  0  0  0  0  0
  -27.4099  -37.4651   20.6518 C   0  0  0  0  0  0  0  0  0  0  0  0
  -28.1801  -34.8239   20.2308 C   0  0  0  0  0  0  0  0  0  0  0  0
  -26.8212  -29.0558   18.6853 C   0  0  0  0  0  0  0  0  0  0  0  0
  -19.8725   -8.4399   17.9402 C   0  0  0  0  0  0  0  0  0  0  0  0
  -22.0675   -8.4758   16.9312 C   0  0  0  0  0  0  0  0  0  0  0  0
  -27.5335  -27.8625   18.7960 C   0  0  0  0  0  0  0  0  0  0  0  0
  -20.2882   -9.2356   14.1585 C   0  0  0  0  0  0  0  0  0  0  0  0
  -20.6614   -9.7035   12.8986 C   0  0  0  0  0  0  0  0  0  0  0  0
  -26.3960  -27.3828   20.8685 C   0  0  0  0  0  0  0  0  0  0  0  0
  -27.2428  -17.5943   20.2784 C   0  0  0  0  0  0  0  0  0  0  0  0
  -21.6617   -7.5616   12.3994 C   0  0  0  0  0  0  0  0  0  0  0  0
  -27.8218  -15.5535   19.3284 C   0  0  0  0  0  0  0  0  0  0  0  0
  -21.7224   -9.4644   19.1086 C   0  0  0  0  0  0  0  0  0  0  0  0
  -22.7859   -9.5839   21.4243 C   0  0  0  0  0  0  0  0  0  0  0  0
  -26.9209  -36.4619   21.5033 C   0  0  0  0  0  0  0  0  0  0  0  0
  -25.8973  -29.4275   19.6726 C   0  0  0  0  0  0  0  0  0  0  0  0
  -27.3176  -35.1266   21.2982 C   0  0  0  0  0  0  0  0  0  0  0  0
  -25.6714  -28.5801   20.7666 C   0  0  0  0  0  0  0  0  0  0  0  0
  -26.8374  -16.2607   19.9829 C   0  0  0  0  0  0  0  0  0  0  0  0
  -20.7191   -8.1223   16.8781 C   0  0  0  0  0  0  0  0  0  0  0  0
  -27.3231  -27.0271   19.8891 C   0  0  0  0  0  0  0  0  0  0  0  0
  -20.6019   -7.9307   14.5389 C   0  0  0  0  0  0  0  0  0  0  0  0
  -21.3481   -8.8665   12.0190 C   0  0  0  0  0  0  0  0  0  0  0  0
  -21.2886   -7.0938   13.6594 C   0  0  0  0  0  0  0  0  0  0  0  0
  -22.2411  -10.1580   20.2601 C   0  0  0  0  0  0  0  0  0  0  0  0
  -23.1296  -10.6579   22.2083 C   0  0  0  0  0  0  0  0  0  0  0  0
  -28.5221  -17.8555   19.8387 C   0  0  0  0  0  0  0  0  0  0  0  0
  -22.9653   -8.2031   21.7663 C   0  0  0  0  0  0  0  0  0  0  0  0
  -27.7003  -20.9357   20.1506 C   0  0  0  0  0  0  0  0  0  0  0  0
  -28.7845  -20.2245   20.5541 C   0  0  0  0  0  0  0  0  0  0  0  0
  -25.6420  -31.8585   21.7044 C   0  0  0  0  0  0  0  0  0  0  0  0
  -27.8511  -23.4489   20.1433 C   0  0  0  0  0  0  0  0  0  0  0  0
  -22.7736  -30.4962   22.3666 C   0  0  0  0  0  0  0  0  0  0  0  0
  -20.8324  -27.6893   22.3755 C   0  0  0  0  0  0  0  0  0  0  0  0
  -24.5215  -16.3357   20.9715 C   0  0  0  0  0  0  0  0  0  0  0  0
  -26.0354  -36.8579   22.6581 C   0  0  0  0  0  0  0  0  0  0  0  0
  -25.1175  -30.7052   19.5249 C   0  0  0  0  0  0  0  0  0  0  0  0
  -24.6759  -28.9236   21.8434 C   0  0  0  0  0  0  0  0  0  0  0  0
  -25.2830  -35.6838   23.2793 C   0  0  0  0  0  0  0  0  0  0  0  0
  -21.8931  -15.2002   23.0879 C   0  0  0  0  0  0  0  0  0  0  0  0
  -26.2248  -34.5051   23.5039 C   0  0  0  0  0  0  0  0  0  0  0  0
  -21.7378  -13.7245   22.7132 C   0  0  0  0  0  0  0  0  0  0  0  0
  -22.2210  -16.0630   21.8706 C   0  0  0  0  0  0  0  0  0  0  0  0
  -23.2179  -14.1344   20.7061 C   0  0  0  0  0  0  0  0  0  0  0  0
  -26.8087  -34.0048   22.1772 C   0  0  1  0  0  0  0  0  0  0  0  0
  -24.5764  -31.2316   20.8506 C   0  0  1  0  0  0  0  0  0  0  0  0
  -22.9512  -13.2163   21.9101 C   0  0  2  0  0  0  0  0  0  0  0  0
  -26.8013  -20.5111   19.0113 C   0  0  0  0  0  0  0  0  0  0  0  0
  -29.1925  -20.1332   23.0441 C   0  0  0  0  0  0  0  0  0  0  0  0
  -18.5439  -26.8789   23.0107 C   0  0  0  0  0  0  0  0  0  0  0  0
  -23.5897  -30.5037   25.3067 C   0  0  0  0  0  0  0  0  0  0  0  0
  -21.7477  -28.8671   25.7502 C   0  0  0  0  0  0  0  0  0  0  0  0
  -21.2094  -31.1433   24.8832 C   0  0  0  0  0  0  0  0  0  0  0  0
  -20.2028  -26.9233   19.5869 C   0  0  0  0  0  0  0  0  0  0  0  0
  -27.2437  -22.2207   20.8100 C   0  0  0  0  0  0  0  0  0  0  0  0
  -29.6688  -20.6806   21.7052 C   0  0  0  0  0  0  0  0  0  0  0  0
  -27.3743  -24.7847   20.6797 C   0  0  0  0  0  0  0  0  0  1  0  0
  -22.2855  -29.4525   23.3420 C   0  0  1  0  0  0  0  0  0  0  0  0
  -19.4122  -27.4453   21.8980 C   0  0  2  0  0  0  0  0  0  0  0  0
  -22.2283  -29.9858   24.8014 C   0  0  0  0  0  0  0  0  0  0  0  0
  -22.2367  -11.4932   20.2971 N   0  0  0  0  0  0  0  0  0  0  0  0
  -22.7829  -11.7669   21.4941 N   0  0  0  0  0  0  0  0  0  0  0  0
  -23.9427  -30.1867   21.6573 N   0  0  0  0  0  0  0  0  0  0  0  0
  -23.3835  -15.5236   21.1618 N   0  0  0  0  0  0  0  0  0  0  0  0
  -23.6914  -10.7525   23.4322 N   0  0  0  0  0  0  0  0  0  0  0  0
  -22.5573   -7.2283   20.8457 N   0  0  0  0  0  0  0  0  0  0  0  0
  -25.5766  -15.7048   20.3134 N   0  0  0  0  0  0  0  0  0  0  0  0
  -29.2148  -19.0588   19.9704 N   0  0  0  0  0  0  0  0  0  0  0  0
  -25.8341  -33.2059   21.4654 N   0  0  0  0  0  0  0  0  0  0  0  0
  -21.0044  -28.9805   22.8277 N   0  0  0  0  0  0  0  0  0  0  0  0
  -19.4063  -26.4822   20.7608 N   0  3  0  0  0  0  0  0  0  0  0  0
  -23.4573   -7.8442   22.8630 O   0  0  0  0  0  0  0  0  0  0  0  0
  -26.2443  -31.1711   22.5208 O   0  0  0  0  0  0  0  0  0  0  0  0
  -28.6828  -23.3765   19.2396 O   0  0  0  0  0  0  0  0  0  0  0  0
  -22.1369  -31.5443   22.2337 O   0  0  0  0  0  0  0  0  0  0  0  0
  -21.7012  -26.8203   22.3531 O   0  0  0  0  0  0  0  0  0  0  0  0
  -24.5674  -17.4963   21.3875 O   0  0  0  0  0  0  0  0  0  0  0  0
  -20.2300   -7.4674   15.7898 O   0  0  0  0  0  0  0  0  0  0  0  0
  -28.0175  -25.8620   20.0000 O   0  0  0  0  0  0  0  0  0  1  0  0
  -21.7050   -9.3155   10.8086 F   0  0  0  0  0  0  0  0  0  0  0  0
  -21.5916   -5.8388   14.0188 F   0  0  0  0  0  0  0  0  0  0  0  0
  -29.2283  -16.4964   19.0729 S   0  0  0  0  0  0  0  0  0  0  0  0
  1  2  1  0  0  0  0
  1  5  2  0  0  0  0
  2  6  2  0  0  0  0
  3  8  2  0  0  0  0
  3 17  1  0  0  0  0
  4  9  1  0  0  0  0
  4 17  2  0  0  0  0
  5 19  1  0  0  0  0
  6 21  1  0  0  0  0
  7 10  2  0  0  0  0
  7 20  1  0  0  0  0
  8 24  1  0  0  0  0
  9 24  2  0  0  0  0
 10 25  1  0  0  0  0
 11 12  2  0  0  0  0
 11 26  1  0  0  0  0
 12 27  1  0  0  0  0
 13 22  1  0  0  0  0
 13 25  2  0  0  0  0
 14 23  1  0  0  0  0
 14 31  2  0  0  0  0
 15 27  2  0  0  0  0
 15 28  1  0  0  0  0
 16 23  2  0  0  0  0
 16 86  1  0  0  0  0
 17 29  1  0  0  0  0
 18 29  1  0  0  0  0
 18 30  2  0  0  0  0
 18 32  1  0  0  0  0
 19 21  2  0  0  0  0
 19 40  1  0  0  0  0
 20 22  2  0  0  0  0
 20 41  1  0  0  0  0
 21 49  1  0  0  0  0
 22 42  1  0  0  0  0
 23 71  1  0  0  0  0
 24 82  1  0  0  0  0
 25 83  1  0  0  0  0
 26 28  2  0  0  0  0
 26 82  1  0  0  0  0
 27 84  1  0  0  0  0
 28 85  1  0  0  0  0
 29 65  2  0  0  0  0
 30 66  1  0  0  0  0
 30 69  1  0  0  0  0
 31 72  1  0  0  0  0
 31 86  1  0  0  0  0
 32 70  1  0  0  0  0
 32 76  2  0  0  0  0
 33 34  2  0  0  0  0
 33 52  1  0  0  0  0
 33 59  1  0  0  0  0
 34 60  1  0  0  0  0
 34 72  1  0  0  0  0
 35 50  1  0  0  0  0
 35 73  1  0  0  0  0
 35 77  2  0  0  0  0
 36 59  1  0  0  0  0
 36 61  1  0  0  0  0
 36 78  2  0  0  0  0
 37 62  1  0  0  0  0
 37 67  1  0  0  0  0
 37 79  2  0  0  0  0
 38 63  1  0  0  0  0
 38 74  1  0  0  0  0
 38 80  2  0  0  0  0
 39 68  1  0  0  0  0
 39 71  1  0  0  0  0
 39 81  2  0  0  0  0
 40 43  1  0  0  0  0
 41 50  1  0  0  0  0
 42 67  1  0  0  0  0
 43 45  1  0  0  0  0
 44 46  1  0  0  0  0
 44 47  1  0  0  0  0
 45 49  1  0  0  0  0
 46 51  1  0  0  0  0
 47 68  1  0  0  0  0
 48 51  1  0  0  0  0
 48 68  1  0  0  0  0
 49 73  1  0  0  0  0
 50 67  1  0  0  0  0
 51 66  1  0  0  0  0
 53 60  1  0  0  0  0
 54 63  1  0  0  0  0
 55 64  1  0  0  0  0
 56 64  1  0  0  0  0
 57 64  1  0  0  0  0
 58 75  1  0  0  0  0
 61 83  1  0  0  0  0
 62 64  1  0  0  0  0
 62 74  1  0  0  0  0
 63 75  1  0  0  0  0
 65 66  1  0  0  0  0
M  CHG  1  75   1
M  ISO  4  39 100  61 101  71 100  83 101
M  END
> <Batch ID>
0163

> <Smiles>
CCC(Nc1cc([100NH:0][100C:0](=O)N2CCCC(n3nc(-c4ccc(Oc5ccc(F)cc5F)cc4)c(C(N)=O)c3N)C2)cs1)=C(C)CC(=O)[101CH2:1][101O:1]c1ccc2c(c1)CN(C(=O)C(NC(=O)C(C)NC)C(C)(C)C)C(C(=O)NC1CCCc3ccccc31)C2

> <Shape>
0.266

> <Color>
0.074

> <Negative vol penalty>
0.000

$$$$

  -OEChem-04052303593D

 82 90  0     1  0  0  0  0  0999 V2000
  -30.4917  -23.7461   17.5616 C   0  0  0  0  0  0  0  0  0  0  0  0
  -29.2338  -23.7690   18.1555 C   0  0  0  0  0  0  0  0  0  0  0  0
  -28.3630  -15.4677   20.4928 C   0  0  0  0  0  0  0  0  0  0  0  0
  -27.2025  -17.4803   21.1561 C   0  0  0  0  0  0  0  0  0  0  0  0
  -31.5174  -24.5400   18.0731 C   0  0  0  0  0  0  0  0  0  0  0  0
  -29.0013  -24.5851   19.2620 C   0  0  0  0  0  0  0  0  0  0  0  0
  -24.6295  -27.1185   18.9228 C   0  0  0  0  0  0  0  0  0  0  0  0
  -29.4890  -16.2240   20.1679 C   0  0  0  0  0  0  0  0  0  0  0  0
  -28.3286  -18.2366   20.8312 C   0  0  0  0  0  0  0  0  0  0  0  0
  -23.4611  -26.4129   19.2067 C   0  0  0  0  0  0  0  0  0  0  0  0
  -31.0225  -20.6578   20.5163 C   0  0  0  0  0  0  0  0  0  0  0  0
  -31.4260  -21.6420   21.4186 C   0  0  0  0  0  0  0  0  0  0  0  0
  -23.4223  -27.3783   21.4170 C   0  0  0  0  0  0  0  0  0  0  0  0
  -19.4849  -19.4511   19.7950 C   0  0  0  0  0  0  0  0  0  0  0  0
  -31.7259  -19.9564   23.1232 C   0  0  0  0  0  0  0  0  0  0  0  0
  -18.4683  -19.4067   21.7801 C   0  0  0  0  0  0  0  0  0  0  0  0
  -27.2197  -16.0958   20.9869 C   0  0  0  0  0  0  0  0  0  0  0  0
  -25.7539  -14.7310   22.5669 C   0  0  0  0  0  0  0  0  0  0  0  0
  -31.2946  -25.3735   19.1805 C   0  0  0  0  0  0  0  0  0  0  0  0
  -25.2101  -27.9523   19.8893 C   0  0  0  0  0  0  0  0  0  0  0  0
  -30.0253  -25.3899   19.7896 C   0  0  0  0  0  0  0  0  0  0  0  0
  -24.5967  -28.0954   21.1421 C   0  0  0  0  0  0  0  0  0  0  0  0
  -19.2236  -20.2118   20.9596 C   0  0  0  0  0  0  0  0  0  0  0  0
  -29.4719  -17.6085   20.3371 C   0  0  0  0  0  0  0  0  0  0  0  0
  -22.8588  -26.5405   20.4549 C   0  0  0  0  0  0  0  0  0  0  0  0
  -30.9706  -19.3229   20.9175 C   0  0  0  0  0  0  0  0  0  0  0  0
  -31.7777  -21.2913   22.7220 C   0  0  0  0  0  0  0  0  0  0  0  0
  -31.3224  -18.9722   22.2210 C   0  0  0  0  0  0  0  0  0  0  0  0
  -26.0560  -15.3151   21.3222 C   0  0  0  0  0  0  0  0  0  0  0  0
  -18.8708  -18.2354   19.9870 C   0  0  0  0  0  0  0  0  0  0  0  0
  -24.5489  -14.1027   22.3680 C   0  0  0  0  0  0  0  0  0  0  0  0
  -26.4962  -14.7543   23.7933 C   0  0  0  0  0  0  0  0  0  0  0  0
  -27.9941  -28.0093   21.4223 C   0  0  0  0  0  0  0  0  0  0  0  0
  -20.7039  -23.6599   20.9253 C   0  0  0  0  0  0  0  0  0  0  0  0
  -26.8642  -30.8274   22.5642 C   0  0  0  0  0  0  0  0  0  0  0  0
  -24.1661  -32.7926   23.2749 C   0  0  0  0  0  0  0  0  0  0  0  0
  -20.0654  -15.0117   18.5048 C   0  0  0  0  0  0  0  0  0  0  0  0
  -32.4472  -26.1782   19.7269 C   0  0  0  0  0  0  0  0  0  0  0  0
  -26.4560  -28.7273   19.5582 C   0  0  0  0  0  0  0  0  0  0  0  0
  -25.1689  -28.9934   22.2073 C   0  0  0  0  0  0  0  0  0  0  0  0
  -32.0153  -27.2970   20.6715 C   0  0  0  0  0  0  0  0  0  0  0  0
  -21.9346  -12.0140   18.9483 C   0  0  0  0  0  0  0  0  0  0  0  0
  -30.9947  -26.7797   21.6802 C   0  0  0  0  0  0  0  0  0  0  0  0
  -23.1756  -12.4674   19.7193 C   0  0  0  0  0  0  0  0  0  0  0  0
  -21.4854  -13.0637   17.9343 C   0  0  0  0  0  0  0  0  0  0  0  0
  -22.5151  -14.8662   19.2627 C   0  0  0  0  0  0  0  0  0  0  0  0
  -29.7272  -26.2807   20.9761 C   0  0  1  0  0  0  0  0  0  0  0  0
  -27.2433  -29.1496   20.7949 C   0  0  1  0  0  0  0  0  0  0  0  0
  -22.9730  -13.8643   20.3365 C   0  0  2  0  0  0  0  0  0  0  0  0
  -23.5565  -35.0288   24.2366 C   0  0  0  0  0  0  0  0  0  0  0  0
  -27.4176  -29.7682   25.3717 C   0  0  0  0  0  0  0  0  0  0  0  0
  -25.9484  -31.5849   26.2713 C   0  0  0  0  0  0  0  0  0  0  0  0
  -28.0280  -32.1682   25.0231 C   0  0  0  0  0  0  0  0  0  0  0  0
  -22.8930  -33.6618   20.7485 C   0  0  0  0  0  0  0  0  0  0  0  0
  -18.7666  -17.0202   19.1667 C   0  0  0  0  0  0  0  0  0  0  0  0
  -20.4330  -22.2986   20.3208 C   0  0  0  0  0  0  0  0  0  0  0  0
  -21.5379  -24.5995   20.0762 C   0  0  0  0  0  0  0  0  0  1  0  0
  -26.0424  -31.2439   23.7601 C   0  0  1  0  0  0  0  0  0  0  0  0
  -23.8733  -34.2504   22.9692 C   0  0  2  0  0  0  0  0  0  0  0  0
  -26.8491  -31.1728   25.0874 C   0  0  0  0  0  0  0  0  0  0  0  0
  -25.1185  -15.0789   20.4006 N   0  0  0  0  0  0  0  0  0  0  0  0
  -24.2155  -14.3392   21.0668 N   0  0  0  0  0  0  0  0  0  0  0  0
  -26.3917  -29.7253   21.8377 N   0  0  0  0  0  0  0  0  0  0  0  0
  -21.3098  -14.3650   18.5838 N   0  0  0  0  0  0  0  0  0  0  0  0
  -23.7525  -13.3765   23.1808 N   0  0  0  0  0  0  0  0  0  0  0  0
  -27.7148  -15.4460   23.8237 N   0  0  0  0  0  0  0  0  0  0  0  0
  -19.6408  -21.5077   21.2274 N   0  0  0  0  0  0  0  0  0  0  0  0
  -28.8985  -27.3975   20.5755 N   0  0  0  0  0  0  0  0  0  0  0  0
  -25.5151  -32.5688   23.4516 N   0  0  0  0  0  0  0  0  0  0  0  0
  -19.9825  -16.2378   19.1533 N   0  0  0  0  0  0  0  0  0  0  0  0
  -22.7090  -34.3623   22.0456 N   0  3  0  0  0  0  0  0  0  0  0  0
  -26.0989  -14.1650   24.8269 O   0  0  0  0  0  0  0  0  0  0  0  0
  -27.7705  -27.7079   22.5888 O   0  0  0  0  0  0  0  0  0  0  0  0
  -20.2807  -23.9927   22.0317 O   0  0  0  0  0  0  0  0  0  0  0  0
  -27.8839  -31.4611   22.2809 O   0  0  0  0  0  0  0  0  0  0  0  0
  -23.2857  -31.9385   23.3530 O   0  0  0  0  0  0  0  0  0  0  0  0
  -19.0983  -14.5295   17.9057 O   0  0  0  0  0  0  0  0  0  0  0  0
  -18.2489  -18.2002   21.1947 O   0  0  0  0  0  0  0  0  0  0  0  0
  -30.5706  -18.3468   20.0204 O   0  0  0  0  0  0  0  0  0  0  0  0
  -21.7186  -25.8524   20.7348 O   0  0  0  0  0  0  0  0  0  1  0  0
  -32.1667  -22.2364   23.5879 F   0  0  0  0  0  0  0  0  0  0  0  0
  -31.2757  -17.6912   22.6118 F   0  0  0  0  0  0  0  0  0  0  0  0
  1  2  1  0  0  0  0
  1  5  2  0  0  0  0
  2  6  2  0  0  0  0
  3  8  2  0  0  0  0
  3 17  1  0  0  0  0
  4  9  1  0  0  0  0
  4 17  2  0  0  0  0
  5 19  1  0  0  0  0
  6 21  1  0  0  0  0
  7 10  2  0  0  0  0
  7 20  1  0  0  0  0
  8 24  1  0  0  0  0
  9 24  2  0  0  0  0
 10 25  1  0  0  0  0
 11 12  2  0  0  0  0
 11 26  1  0  0  0  0
 12 27  1  0  0  0  0
 13 22  1  0  0  0  0
 13 25  2  0  0  0  0
 14 23  1  0  0  0  0
 14 30  2  0  0  0  0
 15 27  2  0  0  0  0
 15 28  1  0  0  0  0
 16 23  2  0  0  0  0
 16 78  1  0  0  0  0
 17 29  1  0  0  0  0
 18 29  1  0  0  0  0
 18 31  2  0  0  0  0
 18 32  1  0  0  0  0
 19 21  2  0  0  0  0
 19 38  1  0  0  0  0
 20 22  2  0  0  0  0
 20 39  1  0  0  0  0
 21 47  1  0  0  0  0
 22 40  1  0  0  0  0
 23 67  1  0  0  0  0
 24 79  1  0  0  0  0
 25 80  1  0  0  0  0
 26 28  2  0  0  0  0
 26 79  1  0  0  0  0
 27 81  1  0  0  0  0
 28 82  1  0  0  0  0
 29 61  2  0  0  0  0
 30 55  1  0  0  0  0
 30 78  1  0  0  0  0
 31 62  1  0  0  0  0
 31 65  1  0  0  0  0
 32 66  1  0  0  0  0
 32 72  2  0  0  0  0
 33 48  1  0  0  0  0
 33 68  1  0  0  0  0
 33 73  2  0  0  0  0
 34 56  1  0  0  0  0
 34 57  1  0  0  0  0
 34 74  2  0  0  0  0
 35 58  1  0  0  0  0
 35 63  1  0  0  0  0
 35 75  2  0  0  0  0
 36 59  1  0  0  0  0
 36 69  1  0  0  0  0
 36 76  2  0  0  0  0
 37 64  1  0  0  0  0
 37 70  1  0  0  0  0
 37 77  2  0  0  0  0
 38 41  1  0  0  0  0
 39 48  1  0  0  0  0
 40 63  1  0  0  0  0
 41 43  1  0  0  0  0
 42 44  1  0  0  0  0
 42 45  1  0  0  0  0
 43 47  1  0  0  0  0
 44 49  1  0  0  0  0
 45 64  1  0  0  0  0
 46 49  1  0  0  0  0
 46 64  1  0  0  0  0
 47 68  1  0  0  0  0
 48 63  1  0  0  0  0
 49 62  1  0  0  0  0
 50 59  1  0  0  0  0
 51 60  1  0  0  0  0
 52 60  1  0  0  0  0
 53 60  1  0  0  0  0
 54 71  1  0  0  0  0
 55 70  1  0  0  0  0
 56 67  1  0  0  0  0
 57 80  1  0  0  0  0
 58 60  1  0  0  0  0
 58 69  1  0  0  0  0
 59 71  1  0  0  0  0
 61 62  1  0  0  0  0
M  CHG  1  71   1
M  ISO  4  37 100  57 101  70 100  80 101
M  END
> <Batch ID>
0163

> <Smiles>
CNC(C)C(=O)NC(C(=O)N1Cc2cc([101O:1][101CH2:1]C(=O)CNc3coc(C[100NH:0][100C:0](=O)N4CCCC(n5nc(-c6ccc(Oc7ccc(F)cc7F)cc6)c(C(N)=O)c5N)C4)c3)ccc2CC1C(=O)NC1CCCc2ccccc21)C(C)(C)C

> <Shape>
0.221

> <Color>
0.068

> <Negative vol penalty>
0.000

$$$$

  -OEChem-04052303593D

 84 92  0     1  0  0  0  0  0999 V2000
  -18.8673  -23.5578   31.1603 C   0  0  0  0  0  0  0  0  0  0  0  0
  -19.6846  -23.1081   30.1282 C   0  0  0  0  0  0  0  0  0  0  0  0
  -32.6626  -17.4779   23.4564 C   0  0  0  0  0  0  0  0  0  0  0  0
  -23.0722   -9.8735   19.9402 C   0  0  0  0  0  0  0  0  0  0  0  0
  -23.8348   -9.8750   22.2327 C   0  0  0  0  0  0  0  0  0  0  0  0
  -31.8670  -18.3443   24.2062 C   0  0  0  0  0  0  0  0  0  0  0  0
  -17.6081  -24.0829   30.8725 C   0  0  0  0  0  0  0  0  0  0  0  0
  -19.2427  -23.1822   28.8077 C   0  0  0  0  0  0  0  0  0  0  0  0
  -22.7992  -24.9488   25.6652 C   0  0  0  0  0  0  0  0  0  0  0  0
  -32.0721  -16.5966   22.5508 C   0  0  0  0  0  0  0  0  0  0  0  0
  -22.3270   -8.7209   20.1888 C   0  0  0  0  0  0  0  0  0  0  0  0
  -23.0895   -8.7225   22.4813 C   0  0  0  0  0  0  0  0  0  0  0  0
  -23.8001  -24.0611   25.2729 C   0  0  0  0  0  0  0  0  0  0  0  0
  -19.8609   -7.9282   23.0860 C   0  0  0  0  0  0  0  0  0  0  0  0
  -19.1052   -7.8871   24.2577 C   0  0  0  0  0  0  0  0  0  0  0  0
  -29.8904  -17.4478   23.1447 C   0  0  0  0  0  0  0  0  0  0  0  0
  -22.6539  -23.7029   23.1807 C   0  0  0  0  0  0  0  0  0  0  0  0
  -20.3446   -5.9465   24.9891 C   0  0  0  0  0  0  0  0  0  0  0  0
  -23.8262  -10.4505   20.9621 C   0  0  0  0  0  0  0  0  0  0  0  0
  -30.4809  -18.3292   24.0503 C   0  0  0  0  0  0  0  0  0  0  0  0
  -24.1715  -12.9754   20.8465 C   0  0  0  0  0  0  0  0  0  0  0  0
  -17.1545  -24.1723   29.5471 C   0  0  0  0  0  0  0  0  0  0  0  0
  -21.7107  -25.2124   24.8213 C   0  0  0  0  0  0  0  0  0  0  0  0
  -17.9757  -23.7077   28.5021 C   0  0  0  0  0  0  0  0  0  0  0  0
  -21.6419  -24.5964   23.5636 C   0  0  0  0  0  0  0  0  0  0  0  0
  -30.6861  -16.5815   22.3949 C   0  0  0  0  0  0  0  0  0  0  0  0
  -22.3356   -8.1454   21.4594 C   0  0  0  0  0  0  0  0  0  0  0  0
  -23.7261  -23.4358   24.0317 C   0  0  0  0  0  0  0  0  0  0  0  0
  -20.8584   -6.9783   22.8658 C   0  0  0  0  0  0  0  0  0  0  0  0
  -19.3471   -6.8963   25.2092 C   0  0  0  0  0  0  0  0  0  0  0  0
  -21.1003   -5.9875   23.8173 C   0  0  0  0  0  0  0  0  0  0  0  0
  -24.5967  -11.6408   20.7057 C   0  0  0  0  0  0  0  0  0  0  0  0
  -25.2643  -13.7240   20.4834 C   0  0  0  0  0  0  0  0  0  0  0  0
  -29.6379  -19.2464   24.8432 C   0  0  0  0  0  0  0  0  0  0  0  0
  -22.9023  -13.4922   21.2678 C   0  0  0  0  0  0  0  0  0  0  0  0
  -18.5656  -24.7975   25.0211 C   0  0  0  0  0  0  0  0  0  0  0  0
  -26.7849  -21.3777   23.9842 C   0  0  0  0  0  0  0  0  0  0  0  0
  -18.5651  -26.4248   22.2150 C   0  0  0  0  0  0  0  0  0  0  0  0
  -20.2691  -27.3679   19.4125 C   0  0  0  0  0  0  0  0  0  0  0  0
  -30.7322  -14.7614   20.6538 C   0  0  0  0  0  0  0  0  0  0  0  0
  -15.7668  -24.7038   29.2891 C   0  0  0  0  0  0  0  0  0  0  0  0
  -20.6530  -26.1929   25.2482 C   0  0  0  0  0  0  0  0  0  0  0  0
  -20.5046  -24.8608   22.6122 C   0  0  0  0  0  0  0  0  0  0  0  0
  -15.5246  -25.0930   27.8330 C   0  0  0  0  0  0  0  0  0  0  0  0
  -29.6116  -12.3537   18.2822 C   0  0  0  0  0  0  0  0  0  0  0  0
  -16.0305  -23.9999   26.8970 C   0  0  0  0  0  0  0  0  0  0  0  0
  -28.1721  -12.0633   18.7129 C   0  0  0  0  0  0  0  0  0  0  0  0
  -30.5284  -12.5789   19.4833 C   0  0  0  0  0  0  0  0  0  0  0  0
  -28.6241  -13.3034   20.8681 C   0  0  0  0  0  0  0  0  0  0  0  0
  -17.5419  -23.7943   27.0549 C   0  0  1  0  0  0  0  0  0  0  0  0
  -19.3259  -25.9938   24.5226 C   0  0  1  0  0  0  0  0  0  0  0  0
  -27.6497  -13.1338   19.6911 C   0  0  2  0  0  0  0  0  0  0  0  0
  -19.9929  -28.6655   17.2824 C   0  0  0  0  0  0  0  0  0  0  0  0
  -16.9541  -24.1232   21.0246 C   0  0  0  0  0  0  0  0  0  0  0  0
  -17.5236  -24.9943   18.7475 C   0  0  0  0  0  0  0  0  0  0  0  0
  -16.1952  -26.4004   20.3226 C   0  0  0  0  0  0  0  0  0  0  0  0
  -22.4078  -29.2724   20.1592 C   0  0  0  0  0  0  0  0  0  0  0  0
  -27.9776  -21.0740   24.8659 C   0  0  0  0  0  0  0  0  0  0  0  0
  -25.7716  -22.3454   24.5637 C   0  0  0  0  0  0  0  0  0  1  0  0
  -18.6600  -26.0428   20.7576 C   0  0  1  0  0  0  0  0  0  0  0  0
  -20.4299  -28.7184   18.7381 C   0  0  2  0  0  0  0  0  0  0  0  0
  -17.3538  -25.3835   20.2315 C   0  0  0  0  0  0  0  0  0  0  0  0
  -25.8609  -11.5439   20.2858 N   0  0  0  0  0  0  0  0  0  0  0  0
  -26.2395  -12.8272   20.1595 N   0  0  0  0  0  0  0  0  0  0  0  0
  -19.4918  -25.8226   23.0778 N   0  0  0  0  0  0  0  0  0  0  0  0
  -29.9720  -13.6088   20.3632 N   0  0  0  0  0  0  0  0  0  0  0  0
  -25.4766  -15.0553   20.4126 N   0  0  0  0  0  0  0  0  0  0  0  0
  -21.8894  -12.5839   21.6045 N   0  0  0  0  0  0  0  0  0  0  0  0
  -30.0871  -15.6858   21.4747 N   0  0  0  0  0  0  0  0  0  0  0  0
  -28.8536  -20.1422   24.2028 N   0  0  0  0  0  0  0  0  0  0  0  0
  -18.2687  -24.8417   26.3699 N   0  0  0  0  0  0  0  0  0  0  0  0
  -19.0479  -27.2538   20.0425 N   0  0  0  0  0  0  0  0  0  0  0  0
  -29.6871  -19.1543   26.1722 N   0  3  0  0  0  0  0  0  0  0  0  0
  -21.8540  -29.1548   18.7857 N   0  3  0  0  0  0  0  0  0  0  0  0
  -22.6678  -14.7231   21.3278 O   0  0  0  0  0  0  0  0  0  0  0  0
  -18.2689  -23.9015   24.2395 O   0  0  0  0  0  0  0  0  0  0  0  0
  -26.6370  -20.8779   22.8697 O   0  0  0  0  0  0  0  0  0  0  0  0
  -17.7053  -27.2334   22.5735 O   0  0  0  0  0  0  0  0  0  0  0  0
  -21.1382  -26.4995   19.3802 O   0  0  0  0  0  0  0  0  0  0  0  0
  -31.8610  -14.9294   20.1852 O   0  0  0  0  0  0  0  0  0  0  0  0
  -21.6083   -7.0209   21.7024 O   0  0  0  0  0  0  0  0  0  0  0  0
  -24.7014  -22.5684   23.6465 O   0  0  0  0  0  0  0  0  0  1  0  0
  -18.6224   -6.8579   26.3351 F   0  0  0  0  0  0  0  0  0  0  0  0
  -22.0581   -5.0730   23.6119 F   0  0  0  0  0  0  0  0  0  0  0  0
  1  2  1  0  0  0  0
  1  7  2  0  0  0  0
  2  8  2  0  0  0  0
  3  6  2  0  0  0  0
  3 10  1  0  0  0  0
  4 11  2  0  0  0  0
  4 19  1  0  0  0  0
  5 12  1  0  0  0  0
  5 19  2  0  0  0  0
  6 20  1  0  0  0  0
  7 22  1  0  0  0  0
  8 24  1  0  0  0  0
  9 13  2  0  0  0  0
  9 23  1  0  0  0  0
 10 26  2  0  0  0  0
 11 27  1  0  0  0  0
 12 27  2  0  0  0  0
 13 28  1  0  0  0  0
 14 15  2  0  0  0  0
 14 29  1  0  0  0  0
 15 30  1  0  0  0  0
 16 20  2  0  0  0  0
 16 26  1  0  0  0  0
 17 25  1  0  0  0  0
 17 28  2  0  0  0  0
 18 30  2  0  0  0  0
 18 31  1  0  0  0  0
 19 32  1  0  0  0  0
 20 34  1  0  0  0  0
 21 32  1  0  0  0  0
 21 33  2  0  0  0  0
 21 35  1  0  0  0  0
 22 24  2  0  0  0  0
 22 41  1  0  0  0  0
 23 25  2  0  0  0  0
 23 42  1  0  0  0  0
 24 50  1  0  0  0  0
 25 43  1  0  0  0  0
 26 69  1  0  0  0  0
 27 81  1  0  0  0  0
 28 82  1  0  0  0  0
 29 31  2  0  0  0  0
 29 81  1  0  0  0  0
 30 83  1  0  0  0  0
 31 84  1  0  0  0  0
 32 63  2  0  0  0  0
 33 64  1  0  0  0  0
 33 67  1  0  0  0  0
 34 70  1  0  0  0  0
 34 73  2  0  0  0  0
 35 68  1  0  0  0  0
 35 75  2  0  0  0  0
 36 51  1  0  0  0  0
 36 71  1  0  0  0  0
 36 76  2  0  0  0  0
 37 58  1  0  0  0  0
 37 59  1  0  0  0  0
 37 77  2  0  0  0  0
 38 60  1  0  0  0  0
 38 65  1  0  0  0  0
 38 78  2  0  0  0  0
 39 61  1  0  0  0  0
 39 72  1  0  0  0  0
 39 79  2  0  0  0  0
 40 66  1  0  0  0  0
 40 69  1  0  0  0  0
 40 80  2  0  0  0  0
 41 44  1  0  0  0  0
 42 51  1  0  0  0  0
 43 65  1  0  0  0  0
 44 46  1  0  0  0  0
 45 47  1  0  0  0  0
 45 48  1  0  0  0  0
 46 50  1  0  0  0  0
 47 52  1  0  0  0  0
 48 66  1  0  0  0  0
 49 52  1  0  0  0  0
 49 66  1  0  0  0  0
 50 71  1  0  0  0  0
 51 65  1  0  0  0  0
 52 64  1  0  0  0  0
 53 61  1  0  0  0  0
 54 62  1  0  0  0  0
 55 62  1  0  0  0  0
 56 62  1  0  0  0  0
 57 74  1  0  0  0  0
 58 70  1  0  0  0  0
 59 82  1  0  0  0  0
 60 62  1  0  0  0  0
 60 72  1  0  0  0  0
 61 74  1  0  0  0  0
 63 64  1  0  0  0  0
M  CHG  2  73   1  74   1
M  ISO  4  40 100  59 101  69 100  82 101
M  END
> <Batch ID>
0163

> <Smiles>
CNC(C)C(=O)NC(C(=O)N1Cc2cc([101O:1][101CH2:1]C(=O)CNC(=N)c3cccc([100NH:0][100C:0](=O)N4CCCC(n5nc(-c6ccc(Oc7ccc(F)cc7F)cc6)c(C(N)=O)c5N)C4)c3)ccc2CC1C(=O)NC1CCCc2ccccc21)C(C)(C)C

> <Shape>
0.213

> <Color>
0.184

> <Negative vol penalty>
0.000

$$$$

  -OEChem-04052303593D

 88 96  0     1  0  0  0  0  0999 V2000
  -23.3281  -24.0395   18.6528 C   0  0  0  0  0  0  0  0  0  0  0  0
  -24.2601  -23.0161   18.5222 C   0  0  0  0  0  0  0  0  0  0  0  0
  -22.2576  -28.2837   19.4719 C   0  0  0  0  0  0  0  0  0  0  0  0
  -22.6888  -27.7608   21.7909 C   0  0  0  0  0  0  0  0  0  0  0  0
  -22.2393  -23.8805   19.5074 C   0  0  0  0  0  0  0  0  0  0  0  0
  -24.0972  -21.8289   19.2370 C   0  0  0  0  0  0  0  0  0  0  0  0
  -27.2170  -18.1629   18.2218 C   0  0  0  0  0  0  0  0  0  0  0  0
  -20.8855  -28.2567   19.7209 C   0  0  0  0  0  0  0  0  0  0  0  0
  -21.3167  -27.7339   22.0399 C   0  0  0  0  0  0  0  0  0  0  0  0
  -28.5573  -18.1859   18.6051 C   0  0  0  0  0  0  0  0  0  0  0  0
  -18.8334  -29.9705   22.5416 C   0  0  0  0  0  0  0  0  0  0  0  0
  -18.3708  -30.6227   23.6845 C   0  0  0  0  0  0  0  0  0  0  0  0
  -28.0653  -16.6462   20.3957 C   0  0  0  0  0  0  0  0  0  0  0  0
  -31.1532  -25.2937   23.8285 C   0  0  0  0  0  0  0  0  0  0  0  0
  -33.2827  -24.3457   24.4207 C   0  0  0  0  0  0  0  0  0  0  0  0
  -17.4724  -28.5377   24.5107 C   0  0  0  0  0  0  0  0  0  0  0  0
  -23.1593  -28.0357   20.5068 C   0  0  0  0  0  0  0  0  0  0  0  0
  -25.4362  -29.1743   20.3411 C   0  0  0  0  0  0  0  0  0  0  0  0
  -22.0704  -22.6954   20.2421 C   0  0  0  0  0  0  0  0  0  0  0  0
  -26.2872  -17.3886   18.9304 C   0  0  0  0  0  0  0  0  0  0  0  0
  -22.9920  -21.6400   20.0864 C   0  0  0  0  0  0  0  0  0  0  0  0
  -26.7143  -16.6131   20.0178 C   0  0  0  0  0  0  0  0  0  0  0  0
  -32.2248  -25.2005   24.7095 C   0  0  0  0  0  0  0  0  0  0  0  0
  -20.4150  -27.9818   21.0049 C   0  0  0  0  0  0  0  0  0  0  0  0
  -28.9811  -17.4297   19.6939 C   0  0  0  0  0  0  0  0  0  0  0  0
  -18.6155  -28.6019   22.3832 C   0  0  0  0  0  0  0  0  0  0  0  0
  -17.6903  -29.9063   24.6690 C   0  0  0  0  0  0  0  0  0  0  0  0
  -17.9350  -27.8855   23.3678 C   0  0  0  0  0  0  0  0  0  0  0  0
  -24.5769  -28.0629   20.2501 C   0  0  0  0  0  0  0  0  0  0  0  0
  -31.1872  -24.5172   22.6815 C   0  0  0  0  0  0  0  0  0  0  0  0
  -33.2213  -23.6114   23.2473 C   0  0  0  0  0  0  0  0  0  0  0  0
  -26.6722  -28.6814   20.0010 C   0  0  0  0  0  0  0  0  0  0  0  0
  -25.1432  -30.5309   20.7010 C   0  0  0  0  0  0  0  0  0  0  0  0
  -23.6633  -18.0156   20.6114 C   0  0  0  0  0  0  0  0  0  0  0  0
  -33.5225  -20.6904   21.9787 C   0  0  0  0  0  0  0  0  0  0  0  0
  -32.1024  -18.8512   20.8595 C   0  0  0  0  0  0  0  0  0  0  0  0
  -23.4308  -14.7819   20.7204 C   0  0  0  0  0  0  0  0  0  0  0  0
  -25.0009  -11.7568   20.5457 C   0  0  0  0  0  0  0  0  0  0  0  0
  -29.9145  -23.9374   20.5861 C   0  0  0  0  0  0  0  0  0  0  0  0
  -20.8695  -22.5735   21.1466 C   0  0  0  0  0  0  0  0  0  0  0  0
  -24.8501  -17.3538   18.4878 C   0  0  0  0  0  0  0  0  0  0  0  0
  -25.7597  -15.7492   20.7993 C   0  0  0  0  0  0  0  0  0  0  0  0
  -21.0200  -21.4705   22.1892 C   0  0  0  0  0  0  0  0  0  0  0  0
  -28.2797  -24.7136   17.5198 C   0  0  0  0  0  0  0  0  0  0  0  0
  -21.4697  -20.1804   21.5198 C   0  0  0  0  0  0  0  0  0  0  0  0
  -27.2417  -25.7652   17.9185 C   0  0  0  0  0  0  0  0  0  0  0  0
  -28.4498  -23.6467   18.5999 C   0  0  0  0  0  0  0  0  0  0  0  0
  -27.6959  -25.2158   20.3431 C   0  0  0  0  0  0  0  0  0  0  0  0
  -22.8519  -20.3518   20.8770 C   0  0  1  0  0  0  0  0  0  0  0  0
  -23.8931  -16.9303   19.5979 C   0  0  1  0  0  0  0  0  0  0  0  0
  -27.5370  -26.3475   19.3147 C   0  0  2  0  0  0  0  0  0  0  0  0
  -32.1599  -27.5248   25.7025 C   0  0  0  0  0  0  0  0  0  0  0  0
  -24.5539   -9.2930   20.7104 C   0  0  0  0  0  0  0  0  0  0  0  0
  -23.2286  -15.0238   23.7553 C   0  0  0  0  0  0  0  0  0  0  0  0
  -23.7399  -12.5781   23.9146 C   0  0  0  0  0  0  0  0  0  0  0  0
  -21.6790  -13.3456   22.7370 C   0  0  0  0  0  0  0  0  0  0  0  0
  -25.9194  -11.2871   17.7718 C   0  0  0  0  0  0  0  0  0  0  0  0
  -32.9360  -20.1078   20.7069 C   0  0  0  0  0  0  0  0  0  0  0  0
  -34.3663  -21.9360   21.7956 C   0  0  0  0  0  0  0  0  0  0  0  0
  -31.0178  -18.6513   19.8186 C   0  0  0  0  0  0  0  0  0  1  0  0
  -32.2395  -26.0139   25.9589 C   0  0  1  0  0  0  0  0  0  0  0  0
  -23.9337  -13.7047   21.6509 C   0  0  1  0  0  0  0  0  0  0  0  0
  -24.6648  -10.4903   19.7793 C   0  0  2  0  0  0  0  0  0  0  0  0
  -23.1632  -13.6808   23.0011 C   0  0  0  0  0  0  0  0  0  0  0  0
  -25.2132  -26.9480   19.8809 N   0  0  0  0  0  0  0  0  0  0  0  0
  -32.1972  -23.6755   22.3670 N   0  0  0  0  0  0  0  0  0  0  0  0
  -26.4854  -27.3564   19.7369 N   0  0  0  0  0  0  0  0  0  0  0  0
  -24.3637  -15.7537   20.3315 N   0  0  0  0  0  0  0  0  0  0  0  0
  -28.7313  -24.2718   19.8940 N   0  0  0  0  0  0  0  0  0  0  0  0
  -27.8898  -29.2564   19.9050 N   0  0  0  0  0  0  0  0  0  0  0  0
  -23.8207  -30.8663   21.0217 N   0  0  0  0  0  0  0  0  0  0  0  0
  -30.0907  -24.6191   21.7898 N   0  0  0  0  0  0  0  0  0  0  0  0
  -34.2840  -22.7627   22.9725 N   0  0  0  0  0  0  0  0  0  0  0  0
  -23.1497  -19.1828   20.0792 N   0  0  0  0  0  0  0  0  0  0  0  0
  -23.8661  -12.4544   20.9021 N   0  0  0  0  0  0  0  0  0  0  0  0
  -31.1314  -25.6640   26.9128 N   0  3  0  0  0  0  0  0  0  0  0  0
  -25.7198  -10.2022   18.7669 N   0  3  0  0  0  0  0  0  0  0  0  0
  -26.0250  -31.4228   20.7211 O   0  0  0  0  0  0  0  0  0  0  0  0
  -23.9307  -17.8087   21.7893 O   0  0  0  0  0  0  0  0  0  0  0  0
  -33.3577  -20.1643   23.0785 O   0  0  0  0  0  0  0  0  0  0  0  0
  -32.2619  -18.0573   21.7852 O   0  0  0  0  0  0  0  0  0  0  0  0
  -22.2555  -14.7579   20.3466 O   0  0  0  0  0  0  0  0  0  0  0  0
  -26.1545  -12.0918   20.8058 O   0  0  0  0  0  0  0  0  0  0  0  0
  -30.7260  -23.1275   20.1305 O   0  0  0  0  0  0  0  0  0  0  0  0
  -19.0761  -27.9556   21.2483 O   0  0  0  0  0  0  0  0  0  0  0  0
  -30.2886  -17.4509   20.0706 O   0  0  0  0  0  0  0  0  0  1  0  0
  -17.2475  -30.5325   25.7672 F   0  0  0  0  0  0  0  0  0  0  0  0
  -17.7237  -26.5702   23.2217 F   0  0  0  0  0  0  0  0  0  0  0  0
  1  2  1  0  0  0  0
  1  5  2  0  0  0  0
  2  6  2  0  0  0  0
  3  8  2  0  0  0  0
  3 17  1  0  0  0  0
  4  9  1  0  0  0  0
  4 17  2  0  0  0  0
  5 19  1  0  0  0  0
  6 21  1  0  0  0  0
  7 10  2  0  0  0  0
  7 20  1  0  0  0  0
  8 24  1  0  0  0  0
  9 24  2  0  0  0  0
 10 25  1  0  0  0  0
 11 12  2  0  0  0  0
 11 26  1  0  0  0  0
 12 27  1  0  0  0  0
 13 22  1  0  0  0  0
 13 25  2  0  0  0  0
 14 23  1  0  0  0  0
 14 30  2  0  0  0  0
 15 23  2  0  0  0  0
 15 31  1  0  0  0  0
 16 27  2  0  0  0  0
 16 28  1  0  0  0  0
 17 29  1  0  0  0  0
 18 29  1  0  0  0  0
 18 32  2  0  0  0  0
 18 33  1  0  0  0  0
 19 21  2  0  0  0  0
 19 40  1  0  0  0  0
 20 22  2  0  0  0  0
 20 41  1  0  0  0  0
 21 49  1  0  0  0  0
 22 42  1  0  0  0  0
 23 61  1  0  0  0  0
 24 85  1  0  0  0  0
 25 86  1  0  0  0  0
 26 28  2  0  0  0  0
 26 85  1  0  0  0  0
 27 87  1  0  0  0  0
 28 88  1  0  0  0  0
 29 65  2  0  0  0  0
 30 66  1  0  0  0  0
 30 72  1  0  0  0  0
 31 66  2  0  0  0  0
 31 73  1  0  0  0  0
 32 67  1  0  0  0  0
 32 70  1  0  0  0  0
 33 71  1  0  0  0  0
 33 78  2  0  0  0  0
 34 50  1  0  0  0  0
 34 74  1  0  0  0  0
 34 79  2  0  0  0  0
 35 58  1  0  0  0  0
 35 59  1  0  0  0  0
 35 80  2  0  0  0  0
 36 58  1  0  0  0  0
 36 60  1  0  0  0  0
 36 81  2  0  0  0  0
 37 62  1  0  0  0  0
 37 68  1  0  0  0  0
 37 82  2  0  0  0  0
 38 63  1  0  0  0  0
 38 75  1  0  0  0  0
 38 83  2  0  0  0  0
 39 69  1  0  0  0  0
 39 72  1  0  0  0  0
 39 84  2  0  0  0  0
 40 43  1  0  0  0  0
 41 50  1  0  0  0  0
 42 68  1  0  0  0  0
 43 45  1  0  0  0  0
 44 46  1  0  0  0  0
 44 47  1  0  0  0  0
 45 49  1  0  0  0  0
 46 51  1  0  0  0  0
 47 69  1  0  0  0  0
 48 51  1  0  0  0  0
 48 69  1  0  0  0  0
 49 74  1  0  0  0  0
 50 68  1  0  0  0  0
 51 67  1  0  0  0  0
 52 61  1  0  0  0  0
 53 63  1  0  0  0  0
 54 64  1  0  0  0  0
 55 64  1  0  0  0  0
 56 64  1  0  0  0  0
 57 77  1  0  0  0  0
 59 73  1  0  0  0  0
 60 86  1  0  0  0  0
 61 76  1  0  0  0  0
 62 64  1  0  0  0  0
 62 75  1  0  0  0  0
 63 77  1  0  0  0  0
 65 67  1  0  0  0  0
M  CHG  2  76   1  77   1
M  ISO  4  39 100  60 101  72 100  86 101
M  END
> <Batch ID>
0163

> <Smiles>
CNC(C)C(=O)NC(C(=O)N1Cc2cc([101O:1][101CH2:1]C(=O)CC(=O)CNc3cc(C(C)N)cc([100NH:0][100C:0](=O)N4CCCC(n5nc(-c6ccc(Oc7ccc(F)cc7F)cc6)c(C(N)=O)c5N)C4)n3)ccc2CC1C(=O)NC1CCCc2ccccc21)C(C)(C)C

> <Shape>
0.208

> <Color>
0.076

> <Negative vol penalty>
0.000

$$$$

  -OEChem-04052303593D

 86 94  0     1  0  0  0  0  0999 V2000
  -19.2074  -34.4837   22.6163 C   0  0  0  0  0  0  0  0  0  0  0  0
  -20.5797  -34.2559   22.5958 C   0  0  0  0  0  0  0  0  0  0  0  0
  -25.6162  -10.7426   20.1421 C   0  0  0  0  0  0  0  0  0  0  0  0
  -26.0532  -11.4115   22.4222 C   0  0  0  0  0  0  0  0  0  0  0  0
  -18.3351  -33.4488   22.9508 C   0  0  0  0  0  0  0  0  0  0  0  0
  -21.0805  -32.9932   22.9109 C   0  0  0  0  0  0  0  0  0  0  0  0
  -25.9984  -30.2713   20.4796 C   0  0  0  0  0  0  0  0  0  0  0  0
  -25.7231   -9.4027   20.5147 C   0  0  0  0  0  0  0  0  0  0  0  0
  -26.1601  -10.0716   22.7948 C   0  0  0  0  0  0  0  0  0  0  0  0
  -27.3148  -30.1449   20.9211 C   0  0  0  0  0  0  0  0  0  0  0  0
  -23.7965   -7.0801   22.0402 C   0  0  0  0  0  0  0  0  0  0  0  0
  -22.8307   -6.1951   21.5612 C   0  0  0  0  0  0  0  0  0  0  0  0
  -26.7927  -27.9754   21.8376 C   0  0  0  0  0  0  0  0  0  0  0  0
  -28.3424  -21.7987   22.0305 C   0  0  0  0  0  0  0  0  0  0  0  0
  -24.5545   -4.9110   20.4581 C   0  0  0  0  0  0  0  0  0  0  0  0
  -26.1001  -21.1687   22.5121 C   0  0  0  0  0  0  0  0  0  0  0  0
  -25.7813  -11.7470   21.0959 C   0  0  0  0  0  0  0  0  0  0  0  0
  -24.5065  -13.9215   20.7032 C   0  0  0  0  0  0  0  0  0  0  0  0
  -18.8249  -32.1702   23.2608 C   0  0  0  0  0  0  0  0  0  0  0  0
  -25.0650  -29.2537   20.7238 C   0  0  0  0  0  0  0  0  0  0  0  0
  -20.2140  -31.9406   23.2512 C   0  0  0  0  0  0  0  0  0  0  0  0
  -25.4657  -28.0902   21.3959 C   0  0  0  0  0  0  0  0  0  0  0  0
  -28.1696  -22.9169   22.8386 C   0  0  0  0  0  0  0  0  0  0  0  0
  -27.2928  -20.9030   21.8589 C   0  0  0  0  0  0  0  0  0  0  0  0
  -25.9950   -9.0672   21.8410 C   0  0  0  0  0  0  0  0  0  0  0  0
  -27.7114  -28.9981   21.6028 C   0  0  0  0  0  0  0  0  0  0  0  0
  -25.1414   -6.8807   21.7281 C   0  0  0  0  0  0  0  0  0  0  0  0
  -23.2097   -5.1105   20.7701 C   0  0  0  0  0  0  0  0  0  0  0  0
  -25.5204   -5.7961   20.9371 C   0  0  0  0  0  0  0  0  0  0  0  0
  -25.6716  -13.1313   20.7115 C   0  0  0  0  0  0  0  0  0  0  0  0
  -26.9376  -23.0926   23.4478 C   0  0  0  0  0  0  0  0  0  0  0  0
  -24.9291  -15.1517   20.2622 C   0  0  0  0  0  0  0  0  0  0  0  0
  -29.4407  -24.7994   21.8444 C   0  0  0  0  0  0  0  0  0  0  0  0
  -23.1625  -13.5745   21.0621 C   0  0  0  0  0  0  0  0  0  0  0  0
  -22.3336  -29.0553   22.3374 C   0  0  0  0  0  0  0  0  0  0  0  0
  -29.4327  -26.8482   20.8291 C   0  0  0  0  0  0  0  0  0  0  0  0
  -22.2269  -26.0897   21.0272 C   0  0  0  0  0  0  0  0  0  0  0  0
  -23.9251  -23.4600   19.6680 C   0  0  0  0  0  0  0  0  0  0  0  0
  -28.5712  -19.3628   20.3293 C   0  0  0  0  0  0  0  0  0  0  0  0
  -17.8459  -31.0955   23.6624 C   0  0  0  0  0  0  0  0  0  0  0  0
  -23.6555  -29.3937   20.2175 C   0  0  0  0  0  0  0  0  0  0  0  0
  -24.5073  -26.9601   21.6655 C   0  0  0  0  0  0  0  0  0  0  0  0
  -18.4349  -29.6879   23.6188 C   0  0  0  0  0  0  0  0  0  0  0  0
  -29.3396  -16.5876   18.2353 C   0  0  0  0  0  0  0  0  0  0  0  0
  -19.8039  -29.6609   24.2909 C   0  0  0  0  0  0  0  0  0  0  0  0
  -28.3579  -15.5060   18.6921 C   0  0  0  0  0  0  0  0  0  0  0  0
  -29.8365  -17.4336   19.4062 C   0  0  0  0  0  0  0  0  0  0  0  0
  -27.7986  -16.9375   20.6984 C   0  0  0  0  0  0  0  0  0  0  0  0
  -20.7941  -30.5781   23.5629 C   0  0  1  0  0  0  0  0  0  0  0  0
  -22.6598  -28.5185   20.9724 C   0  0  1  0  0  0  0  0  0  0  0  0
  -27.2205  -16.1012   19.5451 C   0  0  2  0  0  0  0  0  0  0  0  0
  -23.5703  -21.1614   18.7257 C   0  0  0  0  0  0  0  0  0  0  0  0
  -31.2755  -28.2196   21.8514 C   0  0  0  0  0  0  0  0  0  0  0  0
  -29.9979  -29.1128   19.8694 C   0  0  0  0  0  0  0  0  0  0  0  0
  -21.8567  -24.9923   23.8501 C   0  0  0  0  0  0  0  0  0  0  0  0
  -22.4576  -22.7257   22.9727 C   0  0  0  0  0  0  0  0  0  0  0  0
  -20.4317  -23.8982   22.1103 C   0  0  0  0  0  0  0  0  0  0  0  0
  -25.0056  -24.2492   17.0282 C   0  0  0  0  0  0  0  0  0  0  0  0
  -29.2885  -23.9019   23.0408 C   0  0  0  0  0  0  0  0  0  0  0  0
  -22.7236  -24.7231   21.4331 C   0  0  1  0  0  0  0  0  0  0  0  0
  -23.6812  -22.6451   18.4107 C   0  0  2  0  0  0  0  0  0  0  0  0
  -29.9265  -28.2671   21.1392 C   0  0  0  0  0  0  0  0  0  1  0  0
  -21.8853  -24.1068   22.5883 C   0  0  0  0  0  0  0  0  0  0  0  0
  -25.8947  -22.2443   23.3050 N   0  0  0  0  0  0  0  0  0  0  0  0
  -26.7531  -13.8031   20.3076 N   0  0  0  0  0  0  0  0  0  0  0  0
  -29.2672  -26.0737   21.9598 N   0  0  0  0  0  0  0  0  0  0  0  0
  -26.2694  -15.0283   20.0414 N   0  0  0  0  0  0  0  0  0  0  0  0
  -23.1387  -27.1470   21.1562 N   0  0  0  0  0  0  0  0  0  0  0  0
  -28.7041  -17.9677   20.1659 N   0  0  0  0  0  0  0  0  0  0  0  0
  -24.2813  -16.3161   20.0455 N   0  0  0  0  0  0  0  0  0  0  0  0
  -22.9028  -12.2669   21.4947 N   0  0  0  0  0  0  0  0  0  0  0  0
  -27.4383  -19.7546   21.0417 N   0  0  0  0  0  0  0  0  0  0  0  0
  -21.2756  -29.9440   22.3544 N   0  0  0  0  0  0  0  0  0  0  0  0
  -22.7460  -23.9189   20.2160 N   0  0  0  0  0  0  0  0  0  0  0  0
  -24.7984  -22.8380   17.4435 N   0  3  0  0  0  0  0  0  0  0  0  0
  -22.2167  -14.3950   20.9854 O   0  0  0  0  0  0  0  0  0  0  0  0
  -22.9920  -28.6890   23.3038 O   0  0  0  0  0  0  0  0  0  0  0  0
  -29.2105  -26.4916   19.6726 O   0  0  0  0  0  0  0  0  0  0  0  0
  -21.0746  -26.2133   20.6045 O   0  0  0  0  0  0  0  0  0  0  0  0
  -25.0490  -23.6656   20.1209 O   0  0  0  0  0  0  0  0  0  0  0  0
  -29.3868  -20.1532   19.8475 O   0  0  0  0  0  0  0  0  0  0  0  0
  -26.0991   -7.7598   22.2050 O   0  0  0  0  0  0  0  0  0  0  0  0
  -28.9955  -28.8725   22.0354 O   0  0  0  0  0  0  0  0  0  1  0  0
  -22.2823   -4.2598   20.3115 F   0  0  0  0  0  0  0  0  0  0  0  0
  -26.8109   -5.5986   20.6349 F   0  0  0  0  0  0  0  0  0  0  0  0
  -26.7476  -24.1657   24.2323 F   0  0  0  0  0  0  0  0  0  0  0  0
  1  2  1  0  0  0  0
  1  5  2  0  0  0  0
  2  6  2  0  0  0  0
  3  8  2  0  0  0  0
  3 17  1  0  0  0  0
  4  9  1  0  0  0  0
  4 17  2  0  0  0  0
  5 19  1  0  0  0  0
  6 21  1  0  0  0  0
  7 10  2  0  0  0  0
  7 20  1  0  0  0  0
  8 25  1  0  0  0  0
  9 25  2  0  0  0  0
 10 26  1  0  0  0  0
 11 12  2  0  0  0  0
 11 27  1  0  0  0  0
 12 28  1  0  0  0  0
 13 22  1  0  0  0  0
 13 26  2  0  0  0  0
 14 23  1  0  0  0  0
 14 24  2  0  0  0  0
 15 28  2  0  0  0  0
 15 29  1  0  0  0  0
 16 24  1  0  0  0  0
 16 64  2  0  0  0  0
 17 30  1  0  0  0  0
 18 30  1  0  0  0  0
 18 32  2  0  0  0  0
 18 34  1  0  0  0  0
 19 21  2  0  0  0  0
 19 40  1  0  0  0  0
 20 22  2  0  0  0  0
 20 41  1  0  0  0  0
 21 49  1  0  0  0  0
 22 42  1  0  0  0  0
 23 31  2  0  0  0  0
 23 59  1  0  0  0  0
 24 72  1  0  0  0  0
 25 82  1  0  0  0  0
 26 83  1  0  0  0  0
 27 29  2  0  0  0  0
 27 82  1  0  0  0  0
 28 84  1  0  0  0  0
 29 85  1  0  0  0  0
 30 65  2  0  0  0  0
 31 64  1  0  0  0  0
 31 86  1  0  0  0  0
 32 67  1  0  0  0  0
 32 70  1  0  0  0  0
 33 59  1  0  0  0  0
 33 66  2  0  0  0  0
 34 71  1  0  0  0  0
 34 76  2  0  0  0  0
 35 50  1  0  0  0  0
 35 73  1  0  0  0  0
 35 77  2  0  0  0  0
 36 62  1  0  0  0  0
 36 66  1  0  0  0  0
 36 78  2  0  0  0  0
 37 60  1  0  0  0  0
 37 68  1  0  0  0  0
 37 79  2  0  0  0  0
 38 61  1  0  0  0  0
 38 74  1  0  0  0  0
 38 80  2  0  0  0  0
 39 69  1  0  0  0  0
 39 72  1  0  0  0  0
 39 81  2  0  0  0  0
 40 43  1  0  0  0  0
 41 50  1  0  0  0  0
 42 68  1  0  0  0  0
 43 45  1  0  0  0  0
 44 46  1  0  0  0  0
 44 47  1  0  0  0  0
 45 49  1  0  0  0  0
 46 51  1  0  0  0  0
 47 69  1  0  0  0  0
 48 51  1  0  0  0  0
 48 69  1  0  0  0  0
 49 73  1  0  0  0  0
 50 68  1  0  0  0  0
 51 67  1  0  0  0  0
 52 61  1  0  0  0  0
 53 62  1  0  0  0  0
 54 62  1  0  0  0  0
 55 63  1  0  0  0  0
 56 63  1  0  0  0  0
 57 63  1  0  0  0  0
 58 75  1  0  0  0  0
 60 63  1  0  0  0  0
 60 74  1  0  0  0  0
 61 75  1  0  0  0  0
 62 83  1  0  0  0  0
 65 67  1  0  0  0  0
M  CHG  1  75   1
M  ISO  4  39 100  62 101  72 100  83 101
M  END
> <Batch ID>
0163

> <Smiles>
CNC(C)C(=O)NC(C(=O)N1Cc2cc([101O:1][101C:1](C)(C)C(=O)NC=Cc3cc([100NH:0][100C:0](=O)N4CCCC(n5nc(-c6ccc(Oc7ccc(F)cc7F)cc6)c(C(N)=O)c5N)C4)cnc3F)ccc2CC1C(=O)NC1CCCc2ccccc21)C(C)(C)C

> <Shape>
0.222

> <Color>
0.082

> <Negative vol penalty>
0.000

$$$$

  -OEChem-04052303593D

 88 97  0     1  0  0  0  0  0999 V2000
  -24.8979  -35.3158   20.2901 C   0  0  0  0  0  0  0  0  0  0  0  0
  -25.6479  -34.1671   20.5210 C   0  0  0  0  0  0  0  0  0  0  0  0
  -23.9063   -9.4149   20.9422 C   0  0  0  0  0  0  0  0  0  0  0  0
  -25.8132   -9.6528   22.4066 C   0  0  0  0  0  0  0  0  0  0  0  0
  -23.5909  -35.4014   20.7679 C   0  0  0  0  0  0  0  0  0  0  0  0
  -25.0916  -33.1036   21.2308 C   0  0  0  0  0  0  0  0  0  0  0  0
  -26.0328  -28.6216   19.0696 C   0  0  0  0  0  0  0  0  0  0  0  0
  -23.7953   -8.0726   21.3048 C   0  0  0  0  0  0  0  0  0  0  0  0
  -25.7022   -8.3104   22.7692 C   0  0  0  0  0  0  0  0  0  0  0  0
  -27.3015  -28.0763   19.2611 C   0  0  0  0  0  0  0  0  0  0  0  0
  -22.5855   -6.2877   23.9093 C   0  0  0  0  0  0  0  0  0  0  0  0
  -21.3132   -5.7998   24.2070 C   0  0  0  0  0  0  0  0  0  0  0  0
  -26.4178  -26.6419   20.9876 C   0  0  0  0  0  0  0  0  0  0  0  0
  -21.5132   -4.1874   22.4189 C   0  0  0  0  0  0  0  0  0  0  0  0
  -27.0759  -19.4577   22.3482 C   0  0  0  0  0  0  0  0  0  0  0  0
  -24.9153  -10.2050   21.4931 C   0  0  0  0  0  0  0  0  0  0  0  0
  -24.0645  -12.6011   21.2876 C   0  0  0  0  0  0  0  0  0  0  0  0
  -23.0150  -34.3346   21.4755 C   0  0  0  0  0  0  0  0  0  0  0  0
  -24.9474  -28.1881   19.8445 C   0  0  0  0  0  0  0  0  0  0  0  0
  -23.7760  -33.1755   21.7197 C   0  0  0  0  0  0  0  0  0  0  0  0
  -25.1358  -27.1815   20.8022 C   0  0  0  0  0  0  0  0  0  0  0  0
  -24.6932   -7.5204   22.2183 C   0  0  0  0  0  0  0  0  0  0  0  0
  -27.4948  -27.0883   20.2222 C   0  0  0  0  0  0  0  0  0  0  0  0
  -23.3217   -5.7256   22.8663 C   0  0  0  0  0  0  0  0  0  0  0  0
  -20.7770   -4.7496   23.4618 C   0  0  0  0  0  0  0  0  0  0  0  0
  -22.7855   -4.6754   22.1212 C   0  0  0  0  0  0  0  0  0  0  0  0
  -25.0309  -11.5915   21.1185 C   0  0  0  0  0  0  0  0  0  0  0  0
  -27.0313  -20.8024   22.6549 C   0  0  0  0  0  0  0  0  0  0  0  0
  -28.0540  -19.0823   21.4501 C   0  0  0  0  0  0  0  0  0  0  0  0
  -24.6542  -13.7303   20.7742 C   0  0  0  0  0  0  0  0  0  0  0  0
  -28.7814  -21.2281   21.2681 C   0  0  0  0  0  0  0  0  0  0  0  0
  -22.7512  -12.5251   21.8578 C   0  0  0  0  0  0  0  0  0  0  0  0
  -22.9770  -29.5734   21.9187 C   0  0  0  0  0  0  0  0  0  0  0  0
  -21.4829  -26.6957   21.8263 C   0  0  0  0  0  0  0  0  0  0  0  0
  -22.4584  -23.2224   21.7789 C   0  0  0  0  0  0  0  0  0  0  0  0
  -29.0419  -17.1143   20.2264 C   0  0  0  0  0  0  0  0  0  0  0  0
  -21.6147  -34.4920   22.0133 C   0  0  0  0  0  0  0  0  0  0  0  0
  -23.5797  -28.7674   19.6072 C   0  0  0  0  0  0  0  0  0  0  0  0
  -23.9993  -26.6670   21.6461 C   0  0  0  0  0  0  0  0  0  0  0  0
  -20.9713  -33.1727   22.4323 C   0  0  0  0  0  0  0  0  0  0  0  0
  -31.6557  -23.8772   21.2719 C   0  0  0  0  0  0  0  0  0  0  0  0
  -28.8913  -14.2910   18.0622 C   0  0  0  0  0  0  0  0  0  0  0  0
  -21.9433  -32.3466   23.2688 C   0  0  0  0  0  0  0  0  0  0  0  0
  -30.6355  -22.8435   21.7528 C   0  0  0  0  0  0  0  0  0  0  0  0
  -28.9930  -23.2652   19.7908 C   0  0  0  0  0  0  0  0  0  0  0  0
  -27.7940  -13.4201   18.6783 C   0  0  0  0  0  0  0  0  0  0  0  0
  -31.0062  -25.2085   20.8916 C   0  0  0  0  0  0  0  0  0  0  0  0
  -29.9199  -24.0319   18.8470 C   0  0  0  0  0  0  0  0  0  0  0  0
  -29.7273  -14.9912   19.1320 C   0  0  0  0  0  0  0  0  0  0  0  0
  -27.8593  -14.8876   20.7348 C   0  0  0  0  0  0  0  0  0  0  0  0
  -23.1992  -31.9909   22.4640 C   0  0  1  0  0  0  0  0  0  0  0  0
  -29.7484  -22.2335   20.6536 C   0  0  2  0  0  0  0  0  0  0  0  0
  -22.6503  -28.6163   20.8075 C   0  0  1  0  0  0  0  0  0  0  0  0
  -26.9496  -14.2130   19.6951 C   0  0  2  0  0  0  0  0  0  0  0  0
  -30.5492  -25.3097   19.4274 C   0  0  1  0  0  0  0  0  0  0  0  0
  -21.2804  -21.2094   20.8528 C   0  0  0  0  0  0  0  0  0  0  0  0
  -20.4047  -26.3814   24.6633 C   0  0  0  0  0  0  0  0  0  0  0  0
  -20.6610  -23.9037   24.4116 C   0  0  0  0  0  0  0  0  0  0  0  0
  -19.1078  -25.1538   22.9125 C   0  0  0  0  0  0  0  0  0  0  0  0
  -24.7848  -22.4876   20.1035 C   0  0  0  0  0  0  0  0  0  0  0  0
  -31.3840  -25.7135   17.2679 C   0  0  0  0  0  0  0  0  0  0  0  0
  -29.5990  -26.5063   19.2790 C   0  0  0  0  0  0  0  0  0  1  0  0
  -21.6038  -25.4030   22.5967 C   0  0  1  0  0  0  0  0  0  0  0  0
  -22.3486  -22.2636   20.6071 C   0  0  2  0  0  0  0  0  0  0  0  0
  -20.4666  -25.2278   23.6424 C   0  0  0  0  0  0  0  0  0  0  0  0
  -26.1495  -12.0397   20.5426 N   0  0  0  0  0  0  0  0  0  0  0  0
  -27.8718  -21.7189   22.1314 N   0  0  0  0  0  0  0  0  0  0  0  0
  -28.9267  -19.9443   20.8883 N   0  0  0  0  0  0  0  0  0  0  0  0
  -25.8897  -13.3434   20.3452 N   0  0  0  0  0  0  0  0  0  0  0  0
  -22.6823  -27.2693   21.3810 N   0  0  0  0  0  0  0  0  0  0  0  0
  -28.8607  -15.7254   20.0566 N   0  0  0  0  0  0  0  0  0  0  0  0
  -26.0424  -21.2291   23.5750 N   0  0  0  0  0  0  0  0  0  0  0  0
  -24.2313  -15.0065   20.6523 N   0  0  0  0  0  0  0  0  0  0  0  0
  -22.6060  -12.7505   23.2334 N   0  0  0  0  0  0  0  0  0  0  0  0
  -28.1385  -17.7104   21.1056 N   0  0  0  0  0  0  0  0  0  0  0  0
  -22.9224  -30.9039   21.5495 N   0  0  0  0  0  0  0  0  0  0  0  0
  -21.6691  -24.3389   21.6009 N   0  0  0  0  0  0  0  0  0  0  0  0
  -23.6488  -21.5713   20.3807 N   0  3  0  0  0  0  0  0  0  0  0  0
  -21.7387  -12.2487   21.1707 O   0  0  0  0  0  0  0  0  0  0  0  0
  -23.2565  -29.1372   23.0293 O   0  0  0  0  0  0  0  0  0  0  0  0
  -20.3650  -27.1749   21.6209 O   0  0  0  0  0  0  0  0  0  0  0  0
  -23.1701  -23.0012   22.7562 O   0  0  0  0  0  0  0  0  0  0  0  0
  -29.9156  -17.7343   19.6145 O   0  0  0  0  0  0  0  0  0  0  0  0
  -24.5850   -6.2106   22.5725 O   0  0  0  0  0  0  0  0  0  0  0  0
  -28.7323  -26.5548   20.4116 O   0  0  0  0  0  0  0  0  0  1  0  0
  -31.7142  -25.6021   18.6402 O   0  0  0  0  0  0  0  0  0  0  0  0
  -19.5558   -4.2801   23.7488 F   0  0  0  0  0  0  0  0  0  0  0  0
  -23.4885   -4.1305   21.1188 F   0  0  0  0  0  0  0  0  0  0  0  0
  1  2  1  0  0  0  0
  1  5  2  0  0  0  0
  2  6  2  0  0  0  0
  3  8  2  0  0  0  0
  3 16  1  0  0  0  0
  4  9  1  0  0  0  0
  4 16  2  0  0  0  0
  5 18  1  0  0  0  0
  6 20  1  0  0  0  0
  7 10  2  0  0  0  0
  7 19  1  0  0  0  0
  8 22  1  0  0  0  0
  9 22  2  0  0  0  0
 10 23  1  0  0  0  0
 11 12  2  0  0  0  0
 11 24  1  0  0  0  0
 12 25  1  0  0  0  0
 13 21  1  0  0  0  0
 13 23  2  0  0  0  0
 14 25  2  0  0  0  0
 14 26  1  0  0  0  0
 15 28  1  0  0  0  0
 15 29  2  0  0  0  0
 16 27  1  0  0  0  0
 17 27  1  0  0  0  0
 17 30  2  0  0  0  0
 17 32  1  0  0  0  0
 18 20  2  0  0  0  0
 18 37  1  0  0  0  0
 19 21  2  0  0  0  0
 19 38  1  0  0  0  0
 20 51  1  0  0  0  0
 21 39  1  0  0  0  0
 22 84  1  0  0  0  0
 23 85  1  0  0  0  0
 24 26  2  0  0  0  0
 24 84  1  0  0  0  0
 25 87  1  0  0  0  0
 26 88  1  0  0  0  0
 27 66  2  0  0  0  0
 28 67  2  0  0  0  0
 28 72  1  0  0  0  0
 29 68  1  0  0  0  0
 29 75  1  0  0  0  0
 30 69  1  0  0  0  0
 30 73  1  0  0  0  0
 31 52  1  0  0  0  0
 31 67  1  0  0  0  0
 31 68  2  0  0  0  0
 32 74  1  0  0  0  0
 32 79  2  0  0  0  0
 33 53  1  0  0  0  0
 33 76  1  0  0  0  0
 33 80  2  0  0  0  0
 34 63  1  0  0  0  0
 34 70  1  0  0  0  0
 34 81  2  0  0  0  0
 35 64  1  0  0  0  0
 35 77  1  0  0  0  0
 35 82  2  0  0  0  0
 36 71  1  0  0  0  0
 36 75  1  0  0  0  0
 36 83  2  0  0  0  0
 37 40  1  0  0  0  0
 38 53  1  0  0  0  0
 39 70  1  0  0  0  0
 40 43  1  0  0  0  0
 41 44  1  0  0  0  0
 41 47  1  0  0  0  0
 42 46  1  0  0  0  0
 42 49  1  0  0  0  0
 43 51  1  0  0  0  0
 44 52  1  0  0  0  0
 45 48  1  0  0  0  0
 45 52  1  0  0  0  0
 46 54  1  0  0  0  0
 47 55  1  0  0  0  0
 48 55  1  0  0  0  0
 49 71  1  0  0  0  0
 50 54  1  0  0  0  0
 50 71  1  0  0  0  0
 51 76  1  0  0  0  0
 53 70  1  0  0  0  0
 54 69  1  0  0  0  0
 55 62  1  0  0  0  0
 55 86  1  0  0  0  0
 56 64  1  0  0  0  0
 57 65  1  0  0  0  0
 58 65  1  0  0  0  0
 59 65  1  0  0  0  0
 60 78  1  0  0  0  0
 61 86  1  0  0  0  0
 62 85  1  0  0  0  0
 63 65  1  0  0  0  0
 63 77  1  0  0  0  0
 64 78  1  0  0  0  0
 66 69  1  0  0  0  0
M  CHG  1  78   1
M  ISO  4  36 100  62 101  75 100  85 101
M  END
> <Batch ID>
0163

> <Smiles>
CNC(C)C(=O)NC(C(=O)N1Cc2cc([101O:1][101CH2:1]C3(OC)CCCC(c4nc(N)cc([100NH:0][100C:0](=O)N5CCCC(n6nc(-c7ccc(Oc8ccc(F)cc8F)cc7)c(C(N)=O)c6N)C5)n4)CC3)ccc2CC1C(=O)NC1CCCc2ccccc21)C(C)(C)C

> <Shape>
0.294

> <Color>
0.124

> <Negative vol penalty>
0.000

$$$$
