
  -OEChem-04052304023D

 88 96  0     1  0  0  0  0  0999 V2000
  -28.8361  -25.5848   16.3346 C   0  0  0  0  0  0  0  0  0  0  0  0
  -27.6775  -25.5623   17.1044 C   0  0  0  0  0  0  0  0  0  0  0  0
  -31.2090  -17.7968   19.4230 C   0  0  0  0  0  0  0  0  0  0  0  0
  -29.1976  -16.4935   19.7278 C   0  0  0  0  0  0  0  0  0  0  0  0
  -29.9622  -26.2681   16.7917 C   0  0  0  0  0  0  0  0  0  0  0  0
  -27.6446  -26.2222   18.3323 C   0  0  0  0  0  0  0  0  0  0  0  0
  -23.4011  -28.9086   18.9812 C   0  0  0  0  0  0  0  0  0  0  0  0
  -31.9753  -16.6347   19.5110 C   0  0  0  0  0  0  0  0  0  0  0  0
  -29.9640  -15.3314   19.8158 C   0  0  0  0  0  0  0  0  0  0  0  0
  -22.2507  -28.2057   19.3364 C   0  0  0  0  0  0  0  0  0  0  0  0
  -31.3646  -11.9768   19.7601 C   0  0  0  0  0  0  0  0  0  0  0  0
  -30.9319  -10.8582   19.0480 C   0  0  0  0  0  0  0  0  0  0  0  0
  -22.5728  -28.8532   21.6377 C   0  0  0  0  0  0  0  0  0  0  0  0
  -22.4458  -22.1244   23.9391 C   0  0  0  0  0  0  0  0  0  0  0  0
  -22.5281  -19.7921   23.3139 C   0  0  0  0  0  0  0  0  0  0  0  0
  -31.1105  -12.1027   16.9848 C   0  0  0  0  0  0  0  0  0  0  0  0
  -29.8201  -17.7262   19.5314 C   0  0  0  0  0  0  0  0  0  0  0  0
  -28.4807  -19.4982   18.2770 C   0  0  0  0  0  0  0  0  0  0  0  0
  -29.9400  -26.9449   18.0214 C   0  0  0  0  0  0  0  0  0  0  0  0
  -24.1534  -29.5811   19.9550 C   0  0  0  0  0  0  0  0  0  0  0  0
  -28.7719  -26.9141   18.8069 C   0  0  0  0  0  0  0  0  0  0  0  0
  -23.7310  -29.5660   21.2919 C   0  0  0  0  0  0  0  0  0  0  0  0
  -21.0519  -22.0833   23.9088 C   0  0  0  0  0  0  0  0  0  0  0  0
  -20.3961  -20.8967   23.5811 C   0  0  0  0  0  0  0  0  0  0  0  0
  -23.1839  -20.9787   23.6416 C   0  0  0  0  0  0  0  0  0  0  0  0
  -31.3529  -15.4020   19.7074 C   0  0  0  0  0  0  0  0  0  0  0  0
  -21.8379  -28.1755   20.6652 C   0  0  0  0  0  0  0  0  0  0  0  0
  -31.6702  -13.1584   19.0847 C   0  0  0  0  0  0  0  0  0  0  0  0
  -30.8049  -10.9212   17.6603 C   0  0  0  0  0  0  0  0  0  0  0  0
  -21.1341  -19.7511   23.2836 C   0  0  0  0  0  0  0  0  0  0  0  0
  -31.5431  -13.2213   17.6971 C   0  0  0  0  0  0  0  0  0  0  0  0
  -29.0279  -18.9264   19.4412 C   0  0  0  0  0  0  0  0  0  0  0  0
  -27.8215  -20.6181   18.7217 C   0  0  0  0  0  0  0  0  0  0  0  0
  -28.5611  -19.0566   16.9153 C   0  0  0  0  0  0  0  0  0  0  0  0
  -27.1253  -29.3393   21.0563 C   0  0  0  0  0  0  0  0  0  0  0  0
  -19.5377  -26.8039   19.0440 C   0  0  0  0  0  0  0  0  0  0  0  0
  -26.3105  -32.0028   22.7190 C   0  0  0  0  0  0  0  0  0  0  0  0
  -20.4324  -24.8737   22.2923 C   0  0  0  0  0  0  0  0  0  0  0  0
  -23.8416  -33.9295   24.0750 C   0  0  0  0  0  0  0  0  0  0  0  0
  -25.4066  -22.1157   23.9782 C   0  0  0  0  0  0  0  0  0  0  0  0
  -31.1971  -27.6301   18.4956 C   0  0  0  0  0  0  0  0  0  0  0  0
  -25.3772  -30.3570   19.5515 C   0  0  0  0  0  0  0  0  0  0  0  0
  -24.4921  -30.2885   22.3722 C   0  0  0  0  0  0  0  0  0  0  0  0
  -30.9595  -28.6183   19.6346 C   0  0  0  0  0  0  0  0  0  0  0  0
  -27.9381  -23.8926   22.2143 C   0  0  0  0  0  0  0  0  0  0  0  0
  -30.0670  -27.9960   20.7038 C   0  0  0  0  0  0  0  0  0  0  0  0
  -28.4508  -22.8747   21.1930 C   0  0  0  0  0  0  0  0  0  0  0  0
  -27.5843  -23.2316   23.5453 C   0  0  0  0  0  0  0  0  0  0  0  0
  -27.1743  -21.0756   22.4261 C   0  0  0  0  0  0  0  0  0  0  0  0
  -28.6893  -27.6387   20.1329 C   0  0  1  0  0  0  0  0  0  0  0  0
  -26.3514  -30.5783   20.7044 C   0  0  1  0  0  0  0  0  0  0  0  0
  -27.4822  -21.6846   21.0484 C   0  0  2  0  0  0  0  0  0  0  0  0
  -18.9044  -20.8316   23.5443 C   0  0  0  0  0  0  0  0  0  0  0  0
  -19.1305  -25.7533   18.0423 C   0  0  0  0  0  0  0  0  0  0  0  0
  -23.4866  -36.0266   25.4068 C   0  0  0  0  0  0  0  0  0  0  0  0
  -27.2012  -30.5451   25.2473 C   0  0  0  0  0  0  0  0  0  0  0  0
  -25.9666  -32.2615   26.5881 C   0  0  0  0  0  0  0  0  0  0  0  0
  -27.8756  -32.9508   25.1377 C   0  0  0  0  0  0  0  0  0  0  0  0
  -22.2695  -35.1815   21.9024 C   0  0  0  0  0  0  0  0  0  0  0  0
  -20.2787  -23.3288   24.2332 C   0  0  0  0  0  0  0  0  0  0  0  0
  -19.6149  -25.3617   21.1055 C   0  0  0  0  0  0  0  0  0  0  0  0
  -20.3813  -26.3472   20.2278 C   0  0  2  0  0  0  0  0  0  1  0  0
  -25.6878  -32.2724   24.0675 C   0  0  1  0  0  0  0  0  0  0  0  0
  -23.5818  -35.4239   24.0138 C   0  0  2  0  0  0  0  0  0  0  0  0
  -26.6693  -31.9921   25.2403 C   0  0  0  0  0  0  0  0  0  0  0  0
  -28.7413  -19.6254   20.5427 N   0  0  0  0  0  0  0  0  0  0  0  0
  -28.0069  -20.6480   20.0726 N   0  0  0  0  0  0  0  0  0  0  0  0
  -25.6855  -31.0278   21.9287 N   0  0  0  0  0  0  0  0  0  0  0  0
  -26.6602  -22.1159   23.3306 N   0  0  0  0  0  0  0  0  0  0  0  0
  -27.1071  -21.5704   18.0851 N   0  0  0  0  0  0  0  0  0  0  0  0
  -29.2781  -17.8857   16.6339 N   0  0  0  0  0  0  0  0  0  0  0  0
  -24.5999  -21.0201   23.6725 N   0  0  0  0  0  0  0  0  0  0  0  0
  -27.8693  -28.8251   20.0116 N   0  0  0  0  0  0  0  0  0  0  0  0
  -19.7292  -23.9475   23.0494 N   0  0  0  0  0  0  0  0  0  0  0  0
  -25.1891  -33.6427   24.0202 N   0  0  0  0  0  0  0  0  0  0  0  0
  -22.3059  -35.6988   23.2945 N   0  3  0  0  0  0  0  0  0  0  0  0
  -28.0271  -19.6907   15.9739 O   0  0  0  0  0  0  0  0  0  0  0  0
  -27.0540  -28.8846   22.1920 O   0  0  0  0  0  0  0  0  0  0  0  0
  -19.1928  -27.9772   18.9004 O   0  0  0  0  0  0  0  0  0  0  0  0
  -27.3104  -32.6389   22.3766 O   0  0  0  0  0  0  0  0  0  0  0  0
  -21.5714  -25.2638   22.5343 O   0  0  0  0  0  0  0  0  0  0  0  0
  -22.9395  -33.0998   24.1663 O   0  0  0  0  0  0  0  0  0  0  0  0
  -25.0624  -23.0344   24.7261 O   0  0  0  0  0  0  0  0  0  0  0  0
  -32.1004  -14.2678   19.7931 O   0  0  0  0  0  0  0  0  0  0  0  0
  -20.7157  -27.4897   21.0147 O   0  0  0  0  0  0  0  0  0  1  0  0
  -30.3909   -9.8465   16.9764 F   0  0  0  0  0  0  0  0  0  0  0  0
  -20.5135  -18.6050   22.9700 F   0  0  0  0  0  0  0  0  0  0  0  0
  -31.8364  -14.3533   17.0425 F   0  0  0  0  0  0  0  0  0  0  0  0
  1  2  1  0  0  0  0
  1  5  2  0  0  0  0
  2  6  2  0  0  0  0
  3  8  2  0  0  0  0
  3 17  1  0  0  0  0
  4  9  1  0  0  0  0
  4 17  2  0  0  0  0
  5 19  1  0  0  0  0
  6 21  1  0  0  0  0
  7 10  2  0  0  0  0
  7 20  1  0  0  0  0
  8 26  1  0  0  0  0
  9 26  2  0  0  0  0
 10 27  1  0  0  0  0
 11 12  2  0  0  0  0
 11 28  1  0  0  0  0
 12 29  1  0  0  0  0
 13 22  1  0  0  0  0
 13 27  2  0  0  0  0
 14 23  1  0  0  0  0
 14 25  2  0  0  0  0
 15 25  1  0  0  0  0
 15 30  2  0  0  0  0
 16 29  2  0  0  0  0
 16 31  1  0  0  0  0
 17 32  1  0  0  0  0
 18 32  1  0  0  0  0
 18 33  2  0  0  0  0
 18 34  1  0  0  0  0
 19 21  2  0  0  0  0
 19 41  1  0  0  0  0
 20 22  2  0  0  0  0
 20 42  1  0  0  0  0
 21 50  1  0  0  0  0
 22 43  1  0  0  0  0
 23 24  2  0  0  0  0
 23 60  1  0  0  0  0
 24 30  1  0  0  0  0
 24 53  1  0  0  0  0
 25 72  1  0  0  0  0
 26 84  1  0  0  0  0
 27 85  1  0  0  0  0
 28 31  2  0  0  0  0
 28 84  1  0  0  0  0
 29 86  1  0  0  0  0
 30 87  1  0  0  0  0
 31 88  1  0  0  0  0
 32 66  2  0  0  0  0
 33 67  1  0  0  0  0
 33 70  1  0  0  0  0
 34 71  1  0  0  0  0
 34 77  2  0  0  0  0
 35 51  1  0  0  0  0
 35 73  1  0  0  0  0
 35 78  2  0  0  0  0
 36 54  1  0  0  0  0
 36 62  1  0  0  0  0
 36 79  2  0  0  0  0
 37 63  1  0  0  0  0
 37 68  1  0  0  0  0
 37 80  2  0  0  0  0
 38 61  1  0  0  0  0
 38 74  1  0  0  0  0
 38 81  2  0  0  0  0
 39 64  1  0  0  0  0
 39 75  1  0  0  0  0
 39 82  2  0  0  0  0
 40 69  1  0  0  0  0
 40 72  1  0  0  0  0
 40 83  2  0  0  0  0
 41 44  1  0  0  0  0
 42 51  1  0  0  0  0
 43 68  1  0  0  0  0
 44 46  1  0  0  0  0
 45 47  1  0  0  0  0
 45 48  1  0  0  0  0
 46 50  1  0  0  0  0
 47 52  1  0  0  0  0
 48 69  1  0  0  0  0
 49 52  1  0  0  0  0
 49 69  1  0  0  0  0
 50 73  1  0  0  0  0
 51 68  1  0  0  0  0
 52 67  1  0  0  0  0
 55 64  1  0  0  0  0
 56 65  1  0  0  0  0
 57 65  1  0  0  0  0
 58 65  1  0  0  0  0
 59 76  1  0  0  0  0
 60 74  1  0  0  0  0
 61 62  1  0  0  0  0
 62 85  1  0  0  0  0
 63 65  1  0  0  0  0
 63 75  1  0  0  0  0
 64 76  1  0  0  0  0
 66 67  1  0  0  0  0
M  CHG  1  76   1
M  ISO  4  40 100  62 101  72 100  85 101
M  END
> <Batch ID>
0164

> <Smiles>
CNC(C)C(=O)NC(C(=O)N1Cc2cc([101O:1][101CH:1](CC(=O)NCc3cc([100NH:0][100C:0](=O)N4CCCC(n5nc(-c6ccc(Oc7ccc(F)cc7F)cc6)c(C(N)=O)c5N)C4)cc(F)c3C)C(C)=O)ccc2CC1C(=O)NC1CCCc2ccccc21)C(C)(C)C

> <Shape>
0.249

> <Color>
0.068

> <Negative vol penalty>
0.000

$$$$

  -OEChem-04052304023D

 88 96  0     1  0  0  0  0  0999 V2000
  -18.9290  -24.8794   24.6477 C   0  0  0  0  0  0  0  0  0  0  0  0
  -20.2080  -25.4239   24.5909 C   0  0  0  0  0  0  0  0  0  0  0  0
  -28.8367  -22.1860   16.8575 C   0  0  0  0  0  0  0  0  0  0  0  0
  -26.4867  -12.5431   21.6426 C   0  0  0  0  0  0  0  0  0  0  0  0
  -25.9226  -13.6409   19.5656 C   0  0  0  0  0  0  0  0  0  0  0  0
  -18.4428  -24.1315   23.5762 C   0  0  0  0  0  0  0  0  0  0  0  0
  -21.0019  -25.2199   23.4628 C   0  0  0  0  0  0  0  0  0  0  0  0
  -25.0220  -29.1479   21.0307 C   0  0  0  0  0  0  0  0  0  0  0  0
  -25.2319  -11.9345   21.6618 C   0  0  0  0  0  0  0  0  0  0  0  0
  -24.6677  -13.0322   19.5848 C   0  0  0  0  0  0  0  0  0  0  0  0
  -26.4077  -29.2578   21.1369 C   0  0  0  0  0  0  0  0  0  0  0  0
  -22.3116   -9.8087   22.0716 C   0  0  0  0  0  0  0  0  0  0  0  0
  -22.2540   -8.4511   22.3868 C   0  0  0  0  0  0  0  0  0  0  0  0
  -28.8391  -21.1539   17.7891 C   0  0  0  0  0  0  0  0  0  0  0  0
  -29.3909  -23.4170   17.1906 C   0  0  0  0  0  0  0  0  0  0  0  0
  -26.6576  -28.0141   19.0851 C   0  0  0  0  0  0  0  0  0  0  0  0
  -23.6554   -7.9498   20.4836 C   0  0  0  0  0  0  0  0  0  0  0  0
  -26.8321  -13.3964   20.5945 C   0  0  0  0  0  0  0  0  0  0  0  0
  -29.3070  -13.5259   19.9897 C   0  0  0  0  0  0  0  0  0  0  0  0
  -19.2275  -23.9263   22.4305 C   0  0  0  0  0  0  0  0  0  0  0  0
  -24.4429  -28.4597   19.9548 C   0  0  0  0  0  0  0  0  0  0  0  0
  -20.5262  -24.4674   22.3755 C   0  0  0  0  0  0  0  0  0  0  0  0
  -25.2641  -27.8991   18.9662 C   0  0  0  0  0  0  0  0  0  0  0  0
  -24.3223  -12.1790   20.6329 C   0  0  0  0  0  0  0  0  0  0  0  0
  -27.2259  -28.6884   20.1656 C   0  0  0  0  0  0  0  0  0  0  0  0
  -23.0410  -10.2368   20.9624 C   0  0  0  0  0  0  0  0  0  0  0  0
  -22.9259   -7.5217   21.5928 C   0  0  0  0  0  0  0  0  0  0  0  0
  -23.7129   -9.3074   20.1684 C   0  0  0  0  0  0  0  0  0  0  0  0
  -28.1280  -14.0259   20.5744 C   0  0  0  0  0  0  0  0  0  0  0  0
  -29.4035  -21.4016   19.0300 C   0  0  0  0  0  0  0  0  0  0  0  0
  -29.9304  -23.5634   18.4583 C   0  0  0  0  0  0  0  0  0  0  0  0
  -30.2514  -14.4907   20.2421 C   0  0  0  0  0  0  0  0  0  0  0  0
  -29.5286  -12.2990   19.2816 C   0  0  0  0  0  0  0  0  0  0  0  0
  -31.5916  -26.5196   20.0119 C   0  0  0  0  0  0  0  0  0  0  0  0
  -30.6489  -27.5987   20.4728 C   0  0  0  0  0  0  0  0  0  0  0  0
  -22.6070  -25.8807   19.6689 C   0  0  0  0  0  0  0  0  0  0  0  0
  -33.6835  -25.9901   19.2239 C   0  0  0  0  0  0  0  0  0  0  0  0
  -22.5280  -26.7614   16.5480 C   0  0  0  0  0  0  0  0  0  0  0  0
  -24.0126  -28.4368   13.9719 C   0  0  0  0  0  0  0  0  0  0  0  0
  -29.9099  -20.3670   21.2705 C   0  0  0  0  0  0  0  0  0  0  0  0
  -18.6767  -23.0710   21.3170 C   0  0  0  0  0  0  0  0  0  0  0  0
  -22.9456  -28.3731   19.8406 C   0  0  0  0  0  0  0  0  0  0  0  0
  -24.6915  -27.1674   17.7807 C   0  0  0  0  0  0  0  0  0  0  0  0
  -19.4398  -23.2162   20.0029 C   0  0  0  0  0  0  0  0  0  0  0  0
  -31.3565  -17.9122   23.4055 C   0  0  0  0  0  0  0  0  0  0  0  0
  -20.9437  -23.1458   20.2484 C   0  0  0  0  0  0  0  0  0  0  0  0
  -30.8049  -16.5910   22.8647 C   0  0  0  0  0  0  0  0  0  0  0  0
  -30.3220  -19.0334   23.3264 C   0  0  0  0  0  0  0  0  0  0  0  0
  -29.1702  -17.9109   21.4602 C   0  0  0  0  0  0  0  0  0  0  0  0
  -21.4082  -24.2889   21.1589 C   0  0  1  0  0  0  0  0  0  0  0  0
  -22.4789  -27.2070   18.9746 C   0  0  1  0  0  0  0  0  0  0  0  0
  -30.1974  -16.7671   21.4592 C   0  0  2  0  0  0  0  0  0  0  0  0
  -35.9231  -24.9002   19.6208 C   0  0  0  0  0  0  0  0  0  0  0  0
  -23.7318  -28.9442   11.5304 C   0  0  0  0  0  0  0  0  0  0  0  0
  -23.4529  -23.9370   15.8571 C   0  0  0  0  0  0  0  0  0  0  0  0
  -24.0598  -24.7688   13.5750 C   0  0  0  0  0  0  0  0  0  0  0  0
  -21.6879  -24.8564   14.3426 C   0  0  0  0  0  0  0  0  0  0  0  0
  -23.8563  -31.3489   14.4763 C   0  0  0  0  0  0  0  0  0  0  0  0
  -31.0774  -25.1056   20.0495 C   0  0  0  0  0  0  0  0  0  0  0  0
  -29.3562  -27.7331   19.7129 C   0  0  0  0  0  0  0  0  0  1  0  0
  -34.9375  -25.9598   20.0786 C   0  0  0  0  0  0  0  0  0  0  0  0
  -23.3707  -26.4634   15.3314 C   0  0  1  0  0  0  0  0  0  0  0  0
  -23.4555  -29.4121   12.9508 C   0  0  2  0  0  0  0  0  0  0  0  0
  -23.1540  -25.0185   14.7998 C   0  0  0  0  0  0  0  0  0  0  0  0
  -28.3048  -15.2158   21.1548 N   0  0  0  0  0  0  0  0  0  0  0  0
  -29.9512  -22.5840   19.3899 N   0  0  0  0  0  0  0  0  0  0  0  0
  -32.7701  -26.9233   19.6546 N   0  0  0  0  0  0  0  0  0  0  0  0
  -29.6059  -15.4716   20.9360 N   0  0  0  0  0  0  0  0  0  0  0  0
  -23.2220  -27.1041   17.7170 N   0  0  0  0  0  0  0  0  0  0  0  0
  -29.7936  -19.1444   21.9650 N   0  0  0  0  0  0  0  0  0  0  0  0
  -31.5626  -14.5872   19.9361 N   0  0  0  0  0  0  0  0  0  0  0  0
  -28.4493  -11.4213   19.1117 N   0  0  0  0  0  0  0  0  0  0  0  0
  -29.4010  -20.3434   19.9724 N   0  0  0  0  0  0  0  0  0  0  0  0
  -30.4799  -24.7977   18.7761 N   0  0  0  0  0  0  0  0  0  0  0  0
  -21.4976  -25.5254   20.4122 N   0  0  0  0  0  0  0  0  0  0  0  0
  -23.0691  -27.5091   14.3598 N   0  0  0  0  0  0  0  0  0  0  0  0
  -24.0705  -30.7577   13.1303 N   0  3  0  0  0  0  0  0  0  0  0  0
  -30.6544  -11.9828   18.8276 O   0  0  0  0  0  0  0  0  0  0  0  0
  -30.9833  -28.2710   21.4366 O   0  0  0  0  0  0  0  0  0  0  0  0
  -23.6355  -25.2274   19.5388 O   0  0  0  0  0  0  0  0  0  0  0  0
  -33.5515  -25.2944   18.2206 O   0  0  0  0  0  0  0  0  0  0  0  0
  -21.2990  -26.6995   16.4622 O   0  0  0  0  0  0  0  0  0  0  0  0
  -25.1701  -28.4901   14.3816 O   0  0  0  0  0  0  0  0  0  0  0  0
  -30.4477  -21.3538   21.7794 O   0  0  0  0  0  0  0  0  0  0  0  0
  -23.0978  -11.5850   20.6512 O   0  0  0  0  0  0  0  0  0  0  0  0
  -28.5788  -28.7936   20.2672 O   0  0  0  0  0  0  0  0  0  1  0  0
  -22.8718   -6.2183   21.8965 F   0  0  0  0  0  0  0  0  0  0  0  0
  -24.4162   -9.7128   19.1022 F   0  0  0  0  0  0  0  0  0  0  0  0
  1  2  1  0  0  0  0
  1  6  2  0  0  0  0
  2  7  2  0  0  0  0
  3 14  1  0  0  0  0
  3 15  2  0  0  0  0
  4  9  2  0  0  0  0
  4 18  1  0  0  0  0
  5 10  1  0  0  0  0
  5 18  2  0  0  0  0
  6 20  1  0  0  0  0
  7 22  1  0  0  0  0
  8 11  2  0  0  0  0
  8 21  1  0  0  0  0
  9 24  1  0  0  0  0
 10 24  2  0  0  0  0
 11 25  1  0  0  0  0
 12 13  2  0  0  0  0
 12 26  1  0  0  0  0
 13 27  1  0  0  0  0
 14 30  2  0  0  0  0
 15 31  1  0  0  0  0
 16 23  1  0  0  0  0
 16 25  2  0  0  0  0
 17 27  2  0  0  0  0
 17 28  1  0  0  0  0
 18 29  1  0  0  0  0
 19 29  1  0  0  0  0
 19 32  2  0  0  0  0
 19 33  1  0  0  0  0
 20 22  2  0  0  0  0
 20 41  1  0  0  0  0
 21 23  2  0  0  0  0
 21 42  1  0  0  0  0
 22 50  1  0  0  0  0
 23 43  1  0  0  0  0
 24 85  1  0  0  0  0
 25 86  1  0  0  0  0
 26 28  2  0  0  0  0
 26 85  1  0  0  0  0
 27 87  1  0  0  0  0
 28 88  1  0  0  0  0
 29 65  2  0  0  0  0
 30 66  1  0  0  0  0
 30 73  1  0  0  0  0
 31 66  2  0  0  0  0
 31 74  1  0  0  0  0
 32 68  1  0  0  0  0
 32 71  1  0  0  0  0
 33 72  1  0  0  0  0
 33 78  2  0  0  0  0
 34 35  1  0  0  0  0
 34 59  1  0  0  0  0
 34 67  2  0  0  0  0
 35 60  1  0  0  0  0
 35 79  2  0  0  0  0
 36 51  1  0  0  0  0
 36 75  1  0  0  0  0
 36 80  2  0  0  0  0
 37 61  1  0  0  0  0
 37 67  1  0  0  0  0
 37 81  2  0  0  0  0
 38 62  1  0  0  0  0
 38 69  1  0  0  0  0
 38 82  2  0  0  0  0
 39 63  1  0  0  0  0
 39 76  1  0  0  0  0
 39 83  2  0  0  0  0
 40 70  1  0  0  0  0
 40 73  1  0  0  0  0
 40 84  2  0  0  0  0
 41 44  1  0  0  0  0
 42 51  1  0  0  0  0
 43 69  1  0  0  0  0
 44 46  1  0  0  0  0
 45 47  1  0  0  0  0
 45 48  1  0  0  0  0
 46 50  1  0  0  0  0
 47 52  1  0  0  0  0
 48 70  1  0  0  0  0
 49 52  1  0  0  0  0
 49 70  1  0  0  0  0
 50 75  1  0  0  0  0
 51 69  1  0  0  0  0
 52 68  1  0  0  0  0
 53 61  1  0  0  0  0
 54 63  1  0  0  0  0
 55 64  1  0  0  0  0
 56 64  1  0  0  0  0
 57 64  1  0  0  0  0
 58 77  1  0  0  0  0
 59 74  1  0  0  0  0
 60 86  1  0  0  0  0
 62 64  1  0  0  0  0
 62 76  1  0  0  0  0
 63 77  1  0  0  0  0
 65 68  1  0  0  0  0
M  CHG  1  77   1
M  ISO  4  40 100  60 101  73 100  86 101
M  END
> <Batch ID>
0164

> <Smiles>
CCC(=O)N=C(CNc1cccc([100NH:0][100C:0](=O)N2CCCC(n3nc(-c4ccc(Oc5ccc(F)cc5F)cc4)c(C(N)=O)c3N)C2)n1)C(=O)[101CH2:1][101O:1]c1ccc2c(c1)CN(C(=O)C(NC(=O)C(C)NC)C(C)(C)C)C(C(=O)NC1CCCc3ccccc31)C2

> <Shape>
0.251

> <Color>
0.067

> <Negative vol penalty>
0.000

$$$$

  -OEChem-04052304023D

 87 95  0     1  0  0  0  0  0999 V2000
  -32.2904  -13.1322   20.4228 C   0  0  0  0  0  0  0  0  0  0  0  0
  -31.7429  -14.3840   20.6847 C   0  0  0  0  0  0  0  0  0  0  0  0
  -25.8905  -24.6806   19.9903 C   0  0  0  0  0  0  0  0  0  0  0  0
  -26.3267  -25.5469   17.7775 C   0  0  0  0  0  0  0  0  0  0  0  0
  -31.4793  -12.1041   19.9443 C   0  0  0  0  0  0  0  0  0  0  0  0
  -30.3840  -14.6088   20.4673 C   0  0  0  0  0  0  0  0  0  0  0  0
  -26.6828  -18.2325   23.7345 C   0  0  0  0  0  0  0  0  0  0  0  0
  -25.6832  -23.4106   19.4522 C   0  0  0  0  0  0  0  0  0  0  0  0
  -26.1194  -24.2768   17.2394 C   0  0  0  0  0  0  0  0  0  0  0  0
  -26.2256  -19.5338   23.5314 C   0  0  0  0  0  0  0  0  0  0  0  0
  -25.3936  -19.8654   18.7019 C   0  0  0  0  0  0  0  0  0  0  0  0
  -25.9874  -18.7820   19.3493 C   0  0  0  0  0  0  0  0  0  0  0  0
  -24.2033  -18.6631   22.5459 C   0  0  0  0  0  0  0  0  0  0  0  0
  -28.1673  -19.7558   18.9799 C   0  0  0  0  0  0  0  0  0  0  0  0
  -26.2122  -25.7489   19.1529 C   0  0  0  0  0  0  0  0  0  0  0  0
  -27.6430  -27.6049   20.1606 C   0  0  0  0  0  0  0  0  0  0  0  0
  -30.1079  -12.3136   19.7300 C   0  0  0  0  0  0  0  0  0  0  0  0
  -25.9072  -17.1350   23.3342 C   0  0  0  0  0  0  0  0  0  0  0  0
  -29.5540  -13.5829   19.9842 C   0  0  0  0  0  0  0  0  0  0  0  0
  -24.6518  -17.3488   22.7473 C   0  0  0  0  0  0  0  0  0  0  0  0
  -25.7977  -23.2086   18.0768 C   0  0  0  0  0  0  0  0  0  0  0  0
  -24.9870  -19.7493   22.9344 C   0  0  0  0  0  0  0  0  0  0  0  0
  -26.1867  -20.8940   18.1933 C   0  0  0  0  0  0  0  0  0  0  0  0
  -27.3742  -18.7272   19.4884 C   0  0  0  0  0  0  0  0  0  0  0  0
  -27.5736  -20.8393   18.3324 C   0  0  0  0  0  0  0  0  0  0  0  0
  -26.4259  -27.0612   19.7081 C   0  0  0  0  0  0  0  0  0  0  0  0
  -19.4673  -27.9396   22.7979 C   0  0  0  0  0  0  0  0  0  0  0  0
  -27.3163  -28.8680   20.5898 C   0  0  0  0  0  0  0  0  0  0  0  0
  -18.2443  -27.6577   22.2261 C   0  0  0  0  0  0  0  0  0  0  0  0
  -19.6541  -25.7576   22.6785 C   0  0  0  0  0  0  0  0  0  0  0  0
  -23.3599  -21.3801   23.3394 C   0  0  0  0  0  0  0  0  0  1  0  0
  -20.9634  -24.2370   23.7603 C   0  0  0  0  0  0  0  0  0  0  0  0
  -28.9519  -27.0205   20.1903 C   0  0  0  0  0  0  0  0  0  0  0  0
  -22.8123  -22.5950   23.2225 C   0  0  0  0  0  0  0  0  0  0  0  0
  -21.5344  -22.8687   23.9206 C   0  0  0  0  0  0  0  0  0  0  0  0
  -26.2918  -14.7512   21.2670 C   0  0  0  0  0  0  0  0  0  0  0  0
  -23.5014  -13.7066   22.5494 C   0  0  0  0  0  0  0  0  0  0  0  0
  -20.6083  -14.4592   24.1957 C   0  0  0  0  0  0  0  0  0  0  0  0
  -21.6104  -30.8980   22.0895 C   0  0  0  0  0  0  0  0  0  0  0  0
  -29.2804  -11.1854   19.1669 C   0  0  0  0  0  0  0  0  0  0  0  0
  -26.4028  -15.7371   23.5847 C   0  0  0  0  0  0  0  0  0  0  0  0
  -23.7718  -16.2043   22.3181 C   0  0  0  0  0  0  0  0  0  0  0  0
  -27.7765  -11.3983   19.3187 C   0  0  0  0  0  0  0  0  0  0  0  0
  -23.9657  -32.2266   19.5955 C   0  0  0  0  0  0  0  0  0  0  0  0
  -27.3925  -12.8132   18.8974 C   0  0  0  0  0  0  0  0  0  0  0  0
  -25.1116  -31.2161   19.5167 C   0  0  0  0  0  0  0  0  0  0  0  0
  -23.3276  -32.2947   20.9762 C   0  0  0  0  0  0  0  0  0  0  0  0
  -23.6834  -29.8186   21.0904 C   0  0  0  0  0  0  0  0  0  0  0  0
  -28.0795  -13.8586   19.7844 C   0  0  1  0  0  0  0  0  0  0  0  0
  -25.7565  -14.7011   22.6701 C   0  0  1  0  0  0  0  0  0  0  0  0
  -25.1113  -30.2098   20.6798 C   0  0  1  0  0  0  0  0  0  0  0  0
  -18.5070  -13.4020   25.0700 C   0  0  0  0  0  0  0  0  0  0  0  0
  -22.3944  -13.5643   19.7097 C   0  0  0  0  0  0  0  0  0  0  0  0
  -20.0931  -13.4387   20.6876 C   0  0  0  0  0  0  0  0  0  0  0  0
  -21.7538  -11.6427   21.1765 C   0  0  0  0  0  0  0  0  0  0  0  0
  -18.9963  -29.2432   25.4888 C   0  0  0  0  0  0  0  0  0  0  0  0
  -21.2383  -15.2359   26.9812 C   0  0  0  0  0  0  0  0  0  0  0  0
  -19.9909  -29.3137   23.1594 C   0  0  2  0  0  0  0  0  0  0  0  0
  -22.0384  -13.9176   22.2424 C   0  0  1  0  0  0  0  0  0  0  0  0
  -19.9343  -13.8152   25.3938 C   0  0  2  0  0  0  0  0  0  0  0  0
  -21.5871  -13.1627   20.9603 C   0  0  0  0  0  0  0  0  0  0  0  0
  -25.4023  -27.9094   19.8379 N   0  0  0  0  0  0  0  0  0  0  0  0
  -20.2769  -26.8512   23.0584 N   0  0  0  0  0  0  0  0  0  0  0  0
  -20.1379  -24.4937   22.7772 N   0  0  0  0  0  0  0  0  0  0  0  0
  -25.9755  -28.9989   20.3769 N   0  0  0  0  0  0  0  0  0  0  0  0
  -24.3033  -14.8563   22.5785 N   0  0  0  0  0  0  0  0  0  0  0  0
  -22.8383  -30.9820   21.4044 N   0  0  0  0  0  0  0  0  0  0  0  0
  -28.0479  -29.8684   21.1249 N   0  0  0  0  0  0  0  0  0  0  0  0
  -17.2673  -28.5269   21.8713 N   0  0  0  0  0  0  0  0  0  0  0  0
  -29.1110  -25.7132   19.7107 N   0  0  0  0  0  0  0  0  0  0  0  0
  -27.4055  -13.9596   21.0611 N   0  0  0  0  0  0  0  0  0  0  0  0
  -21.3094  -13.5374   23.4475 N   0  0  0  0  0  0  0  0  0  0  0  0
  -21.2313  -29.6064   22.4487 N   0  0  0  0  0  0  0  0  0  0  0  0
  -20.2045  -29.4654   24.6455 N   0  3  0  0  0  0  0  0  0  0  0  0
  -19.8996  -14.7653   26.5414 N   0  3  0  0  0  0  0  0  0  0  0  0
  -29.9479  -27.6332   20.6443 O   0  0  0  0  0  0  0  0  0  0  0  0
  -20.9196  -22.0750   24.6151 O   0  0  0  0  0  0  0  0  0  0  0  0
  -25.7346  -15.4547   20.4325 O   0  0  0  0  0  0  0  0  0  0  0  0
  -23.9159  -12.5645   22.7629 O   0  0  0  0  0  0  0  0  0  0  0  0
  -20.5185  -15.6593   23.9464 O   0  0  0  0  0  0  0  0  0  0  0  0
  -20.9171  -31.8854   22.3508 O   0  0  0  0  0  0  0  0  0  0  0  0
  -23.3781  -23.6075   22.4797 O   0  0  0  0  0  0  0  0  0  0  0  0
  -25.5957  -21.9694   17.5514 O   0  0  0  0  0  0  0  0  0  0  0  0
  -24.5354  -21.0275   22.7330 O   0  0  0  0  0  0  0  0  0  1  0  0
  -27.9441  -17.6875   20.1116 F   0  0  0  0  0  0  0  0  0  0  0  0
  -28.3406  -21.8251   17.8470 F   0  0  0  0  0  0  0  0  0  0  0  0
  -18.0919  -25.9646   21.9992 S   0  0  0  0  0  0  0  0  0  0  0  0
  1  2  1  0  0  0  0
  1  5  2  0  0  0  0
  2  6  2  0  0  0  0
  3  8  2  0  0  0  0
  3 15  1  0  0  0  0
  4  9  1  0  0  0  0
  4 15  2  0  0  0  0
  5 17  1  0  0  0  0
  6 19  1  0  0  0  0
  7 10  2  0  0  0  0
  7 18  1  0  0  0  0
  8 21  1  0  0  0  0
  9 21  2  0  0  0  0
 10 22  1  0  0  0  0
 11 12  2  0  0  0  0
 11 23  1  0  0  0  0
 12 24  1  0  0  0  0
 13 20  1  0  0  0  0
 13 22  2  0  0  0  0
 14 24  2  0  0  0  0
 14 25  1  0  0  0  0
 15 26  1  0  0  0  0
 16 26  1  0  0  0  0
 16 28  2  0  0  0  0
 16 33  1  0  0  0  0
 17 19  2  0  0  0  0
 17 40  1  0  0  0  0
 18 20  2  0  0  0  0
 18 41  1  0  0  0  0
 19 49  1  0  0  0  0
 20 42  1  0  0  0  0
 21 83  1  0  0  0  0
 22 84  1  0  0  0  0
 23 25  2  0  0  0  0
 23 83  1  0  0  0  0
 24 85  1  0  0  0  0
 25 86  1  0  0  0  0
 26 62  2  0  0  0  0
 27 29  2  0  0  0  0
 27 58  1  0  0  0  0
 27 63  1  0  0  0  0
 28 65  1  0  0  0  0
 28 68  1  0  0  0  0
 29 69  1  0  0  0  0
 29 87  1  0  0  0  0
 30 63  2  0  0  0  0
 30 64  1  0  0  0  0
 30 87  1  0  0  0  0
 31 34  2  0  0  0  0
 31 84  1  0  0  0  0
 32 35  1  0  0  0  0
 32 64  2  0  0  0  0
 33 70  1  0  0  0  0
 33 76  2  0  0  0  0
 34 35  1  0  0  0  0
 34 82  1  0  0  0  0
 35 77  2  0  0  0  0
 36 50  1  0  0  0  0
 36 71  1  0  0  0  0
 36 78  2  0  0  0  0
 37 59  1  0  0  0  0
 37 66  1  0  0  0  0
 37 79  2  0  0  0  0
 38 60  1  0  0  0  0
 38 72  1  0  0  0  0
 38 80  2  0  0  0  0
 39 67  1  0  0  0  0
 39 73  1  0  0  0  0
 39 81  2  0  0  0  0
 40 43  1  0  0  0  0
 41 50  1  0  0  0  0
 42 66  1  0  0  0  0
 43 45  1  0  0  0  0
 44 46  1  0  0  0  0
 44 47  1  0  0  0  0
 45 49  1  0  0  0  0
 46 51  1  0  0  0  0
 47 67  1  0  0  0  0
 48 51  1  0  0  0  0
 48 67  1  0  0  0  0
 49 71  1  0  0  0  0
 50 66  1  0  0  0  0
 51 65  1  0  0  0  0
 52 60  1  0  0  0  0
 53 61  1  0  0  0  0
 54 61  1  0  0  0  0
 55 61  1  0  0  0  0
 56 74  1  0  0  0  0
 57 75  1  0  0  0  0
 58 73  1  0  0  0  0
 58 74  1  0  0  0  0
 59 61  1  0  0  0  0
 59 72  1  0  0  0  0
 60 75  1  0  0  0  0
 62 65  1  0  0  0  0
M  CHG  2  74   1  75   1
M  ISO  4  31 101  39 100  73 100  84 101
M  END
> <Batch ID>
0164

> <Smiles>
CN=C([100NH:0][100C:0](=O)N1CCCC(n2nc(-c3ccc(Oc4ccc(F)cc4F)cc3)c(C(N)=O)c2N)C1)c1nc(NCC(=O)C(=O)[101CH2:1][101O:1]c2ccc3c(c2)CN(C(=O)C(NC(=O)C(C)NC)C(C)(C)C)C(C(=O)NC2CCCc4ccccc42)C3)sc1N

> <Shape>
0.247

> <Color>
0.070

> <Negative vol penalty>
0.000

$$$$

  -OEChem-04052304023D

 88 97  0     1  0  0  0  0  0999 V2000
  -25.8168  -37.5443   23.3151 C   0  0  0  0  0  0  0  0  0  0  0  0
  -26.4263  -36.7446   22.3536 C   0  0  0  0  0  0  0  0  0  0  0  0
  -22.7014  -10.3599   22.0873 C   0  0  0  0  0  0  0  0  0  0  0  0
  -24.4091   -9.6427   20.5360 C   0  0  0  0  0  0  0  0  0  0  0  0
  -25.3138  -36.9694   24.4814 C   0  0  0  0  0  0  0  0  0  0  0  0
  -26.5341  -35.3695   22.5585 C   0  0  0  0  0  0  0  0  0  0  0  0
  -26.5421  -29.1732   18.9637 C   0  0  0  0  0  0  0  0  0  0  0  0
  -22.1078   -9.0997   22.0165 C   0  0  0  0  0  0  0  0  0  0  0  0
  -23.8156   -8.3824   20.4652 C   0  0  0  0  0  0  0  0  0  0  0  0
  -27.3041  -28.0152   18.8152 C   0  0  0  0  0  0  0  0  0  0  0  0
  -22.6314   -6.0230   23.3175 C   0  0  0  0  0  0  0  0  0  0  0  0
  -22.2336   -5.4257   24.5136 C   0  0  0  0  0  0  0  0  0  0  0  0
  -26.3283  -27.1215   20.8322 C   0  0  0  0  0  0  0  0  0  0  0  0
  -19.9520   -5.3595   23.7218 C   0  0  0  0  0  0  0  0  0  0  0  0
  -31.2075  -19.5444   18.8897 C   0  0  0  0  0  0  0  0  0  0  0  0
  -30.0731  -17.6307   19.4191 C   0  0  0  0  0  0  0  0  0  0  0  0
  -23.8520  -10.6315   21.3470 C   0  0  0  0  0  0  0  0  0  0  0  0
  -25.4613  -12.3549   22.3204 C   0  0  0  0  0  0  0  0  0  0  0  0
  -25.4069  -35.5853   24.6963 C   0  0  0  0  0  0  0  0  0  0  0  0
  -25.6741  -29.3189   20.0554 C   0  0  0  0  0  0  0  0  0  0  0  0
  -26.0330  -34.7757   23.7294 C   0  0  0  0  0  0  0  0  0  0  0  0
  -25.5544  -28.2813   20.9909 C   0  0  0  0  0  0  0  0  0  0  0  0
  -22.6649   -8.1109   21.2055 C   0  0  0  0  0  0  0  0  0  0  0  0
  -27.1994  -26.9903   19.7510 C   0  0  0  0  0  0  0  0  0  0  0  0
  -21.6894   -6.2887   22.3236 C   0  0  0  0  0  0  0  0  0  0  0  0
  -20.8939   -5.0939   24.7157 C   0  0  0  0  0  0  0  0  0  0  0  0
  -20.3498   -5.9569   22.5257 C   0  0  0  0  0  0  0  0  0  0  0  0
  -24.4654  -11.9333   21.4193 C   0  0  0  0  0  0  0  0  0  0  0  0
  -30.0897  -20.0294   18.2473 C   0  0  0  0  0  0  0  0  0  0  0  0
  -28.9549  -18.1159   18.7773 C   0  0  0  0  0  0  0  0  0  0  0  0
  -25.7017  -13.6634   21.9789 C   0  0  0  0  0  0  0  0  0  0  0  0
  -31.2292  -21.5197   16.5552 C   0  0  0  0  0  0  0  0  0  0  0  0
  -26.1111  -11.6288   23.3722 C   0  0  0  0  0  0  0  0  0  0  0  0
  -25.4668  -31.3366   22.5027 C   0  0  0  0  0  0  0  0  0  0  0  0
  -28.3974  -23.9554   18.1867 C   0  0  0  0  0  0  0  0  0  0  0  0
  -22.7024  -29.7406   23.0802 C   0  0  0  0  0  0  0  0  0  0  0  0
  -20.8719  -26.8854   22.7007 C   0  0  0  0  0  0  0  0  0  0  0  0
  -26.5639  -17.6205   18.1578 C   0  0  0  0  0  0  0  0  0  0  0  0
  -24.8908  -35.0158   25.9940 C   0  0  0  0  0  0  0  0  0  0  0  0
  -24.8391  -30.5631   20.1868 C   0  0  0  0  0  0  0  0  0  0  0  0
  -24.6221  -28.3799   22.1696 C   0  0  0  0  0  0  0  0  0  0  0  0
  -31.0224  -20.8623   15.2168 C   0  0  0  0  0  0  0  0  0  0  0  0
  -24.7102  -33.5003   25.9651 C   0  0  0  0  0  0  0  0  0  0  0  0
  -29.7257  -21.3806   14.6133 C   0  0  0  0  0  0  0  0  0  0  0  0
  -23.1819  -16.7760   18.8831 C   0  0  0  0  0  0  0  0  0  0  0  0
  -25.9362  -32.8282   25.3553 C   0  0  0  0  0  0  0  0  0  0  0  0
  -23.2962  -15.4755   19.6817 C   0  0  0  0  0  0  0  0  0  0  0  0
  -24.2308  -16.8554   17.7753 C   0  0  0  0  0  0  0  0  0  0  0  0
  -25.7300  -15.3429   19.0139 C   0  0  0  0  0  0  0  0  0  0  0  0
  -28.5460  -21.2128   15.5644 C   0  0  0  0  0  0  0  0  0  0  0  0
  -26.1468  -33.2768   23.9041 C   0  0  1  0  0  0  0  0  0  0  0  0
  -30.1130  -21.4020   17.5818 C   0  0  1  0  0  0  0  0  0  0  0  0
  -24.3699  -30.8196   21.6156 C   0  0  1  0  0  0  0  0  0  0  0  0
  -24.7358  -15.2465   20.1826 C   0  0  2  0  0  0  0  0  0  0  0  0
  -18.6634  -25.8650   23.3161 C   0  0  0  0  0  0  0  0  0  0  0  0
  -23.7150  -29.2674   25.9193 C   0  0  0  0  0  0  0  0  0  0  0  0
  -21.9693  -27.4905   26.1711 C   0  0  0  0  0  0  0  0  0  0  0  0
  -21.2893  -29.8553   25.7612 C   0  0  0  0  0  0  0  0  0  0  0  0
  -20.0838  -26.5953   19.8628 C   0  0  0  0  0  0  0  0  0  0  0  0
  -28.7230  -23.3819   16.8328 C   0  0  0  0  0  0  0  0  0  0  0  0
  -28.2738  -25.4627   18.2786 C   0  0  0  0  0  0  0  0  0  1  0  0
  -22.3206  -28.5182   23.8795 C   0  0  1  0  0  0  0  0  0  0  0  0
  -19.4327  -26.6609   22.2733 C   0  0  2  0  0  0  0  0  0  0  0  0
  -22.3426  -28.7815   25.4117 C   0  0  0  0  0  0  0  0  0  0  0  0
  -31.2193  -18.3363   19.4871 N   0  0  0  0  0  0  0  0  0  0  0  0
  -24.0982  -12.8959   20.5692 N   0  0  0  0  0  0  0  0  0  0  0  0
  -28.9433  -19.3238   18.1796 N   0  0  0  0  0  0  0  0  0  0  0  0
  -32.3279  -22.1557   16.8019 N   0  0  0  0  0  0  0  0  0  0  0  0
  -24.8674  -13.9354   20.9348 N   0  0  0  0  0  0  0  0  0  0  0  0
  -23.8315  -29.6188   22.2578 N   0  0  0  0  0  0  0  0  0  0  0  0
  -25.5701  -16.6330   18.3246 N   0  0  0  0  0  0  0  0  0  0  0  0
  -26.5432  -14.5963   22.4729 N   0  0  0  0  0  0  0  0  0  0  0  0
  -25.7446  -10.2932   23.5873 N   0  0  0  0  0  0  0  0  0  0  0  0
  -27.7879  -17.3127   18.7507 N   0  0  0  0  0  0  0  0  0  0  0  0
  -25.2234  -32.5928   23.0245 N   0  0  0  0  0  0  0  0  0  0  0  0
  -21.0261  -28.0830   23.3666 N   0  0  0  0  0  0  0  0  0  0  0  0
  -28.8158  -21.8749   16.9045 N   0  3  1  0  0  0  0  0  0  0  0  0
  -19.3856  -25.9152   20.9839 N   0  3  0  0  0  0  0  0  0  0  0  0
  -26.9789  -12.1538   24.1103 O   0  0  0  0  0  0  0  0  0  0  0  0
  -26.4598  -30.6463   22.7005 O   0  0  0  0  0  0  0  0  0  0  0  0
  -28.2623  -23.2257   19.1687 O   0  0  0  0  0  0  0  0  0  0  0  0
  -22.0197  -30.7635   23.1762 O   0  0  0  0  0  0  0  0  0  0  0  0
  -21.7689  -26.0774   22.4705 O   0  0  0  0  0  0  0  0  0  0  0  0
  -26.3371  -18.6746   17.5583 O   0  0  0  0  0  0  0  0  0  0  0  0
  -22.0860   -6.8810   21.1363 O   0  0  0  0  0  0  0  0  0  0  0  0
  -27.9426  -25.8592   19.6088 O   0  0  0  0  0  0  0  0  0  1  0  0
  -20.5124   -4.5189   25.8637 F   0  0  0  0  0  0  0  0  0  0  0  0
  -19.4405   -6.2086   21.5740 F   0  0  0  0  0  0  0  0  0  0  0  0
  1  2  1  0  0  0  0
  1  5  2  0  0  0  0
  2  6  2  0  0  0  0
  3  8  2  0  0  0  0
  3 17  1  0  0  0  0
  4  9  1  0  0  0  0
  4 17  2  0  0  0  0
  5 19  1  0  0  0  0
  6 21  1  0  0  0  0
  7 10  2  0  0  0  0
  7 20  1  0  0  0  0
  8 23  1  0  0  0  0
  9 23  2  0  0  0  0
 10 24  1  0  0  0  0
 11 12  2  0  0  0  0
 11 25  1  0  0  0  0
 12 26  1  0  0  0  0
 13 22  1  0  0  0  0
 13 24  2  0  0  0  0
 14 26  2  0  0  0  0
 14 27  1  0  0  0  0
 15 29  1  0  0  0  0
 15 65  2  0  0  0  0
 16 30  2  0  0  0  0
 16 65  1  0  0  0  0
 17 28  1  0  0  0  0
 18 28  1  0  0  0  0
 18 31  2  0  0  0  0
 18 33  1  0  0  0  0
 19 21  2  0  0  0  0
 19 39  1  0  0  0  0
 20 22  2  0  0  0  0
 20 40  1  0  0  0  0
 21 51  1  0  0  0  0
 22 41  1  0  0  0  0
 23 85  1  0  0  0  0
 24 86  1  0  0  0  0
 25 27  2  0  0  0  0
 25 85  1  0  0  0  0
 26 87  1  0  0  0  0
 27 88  1  0  0  0  0
 28 66  2  0  0  0  0
 29 52  1  0  0  0  0
 29 67  2  0  0  0  0
 30 67  1  0  0  0  0
 30 74  1  0  0  0  0
 31 69  1  0  0  0  0
 31 72  1  0  0  0  0
 32 42  1  0  0  0  0
 32 52  1  0  0  0  0
 32 68  2  0  0  0  0
 33 73  1  0  0  0  0
 33 79  2  0  0  0  0
 34 53  1  0  0  0  0
 34 75  1  0  0  0  0
 34 80  2  0  0  0  0
 35 60  1  0  0  0  0
 35 61  1  0  0  0  0
 35 81  2  0  0  0  0
 36 62  1  0  0  0  0
 36 70  1  0  0  0  0
 36 82  2  0  0  0  0
 37 63  1  0  0  0  0
 37 76  1  0  0  0  0
 37 83  2  0  0  0  0
 38 71  1  0  0  0  0
 38 74  1  0  0  0  0
 38 84  2  0  0  0  0
 39 43  1  0  0  0  0
 40 53  1  0  0  0  0
 41 70  1  0  0  0  0
 42 44  1  0  0  0  0
 43 46  1  0  0  0  0
 44 50  1  0  0  0  0
 45 47  1  0  0  0  0
 45 48  1  0  0  0  0
 46 51  1  0  0  0  0
 47 54  1  0  0  0  0
 48 71  1  0  0  0  0
 49 54  1  0  0  0  0
 49 71  1  0  0  0  0
 50 77  1  0  0  0  0
 51 75  1  0  0  0  0
 52 77  1  0  0  0  0
 53 70  1  0  0  0  0
 54 69  1  0  0  0  0
 55 63  1  0  0  0  0
 56 64  1  0  0  0  0
 57 64  1  0  0  0  0
 58 64  1  0  0  0  0
 59 78  1  0  0  0  0
 60 77  1  0  0  0  0
 61 86  1  0  0  0  0
 62 64  1  0  0  0  0
 62 76  1  0  0  0  0
 63 78  1  0  0  0  0
 66 69  1  0  0  0  0
M  CHG  2  77   1  78   1
M  ISO  4  38 100  61 101  74 100  86 101
M  END
> <Batch ID>
0164

> <Smiles>
CNC(C)C(=O)NC(C(=O)N1Cc2cc([101O:1][101CH2:1]C(=O)CN3CCCC(=N)C3c3cncc([100NH:0][100C:0](=O)N4CCCC(n5nc(-c6ccc(Oc7ccc(F)cc7F)cc6)c(C(N)=O)c5N)C4)n3)ccc2CC1C(=O)NC1CCCc2ccccc21)C(C)(C)C

> <Shape>
0.311

> <Color>
0.098

> <Negative vol penalty>
0.000

$$$$

  -OEChem-04052304023D

 85 93  0     1  0  0  0  0  0999 V2000
  -19.1721  -25.4043   18.8329 C   0  0  0  0  0  0  0  0  0  0  0  0
  -20.2278  -26.2907   18.6450 C   0  0  0  0  0  0  0  0  0  0  0  0
  -25.8087  -13.8875   21.9311 C   0  0  0  0  0  0  0  0  0  0  0  0
  -24.3079  -15.2406   20.6068 C   0  0  0  0  0  0  0  0  0  0  0  0
  -18.6762  -25.1745   20.1155 C   0  0  0  0  0  0  0  0  0  0  0  0
  -20.7875  -26.9486   19.7397 C   0  0  0  0  0  0  0  0  0  0  0  0
  -25.8504  -26.9380   19.6321 C   0  0  0  0  0  0  0  0  0  0  0  0
  -24.8162  -12.9165   22.0637 C   0  0  0  0  0  0  0  0  0  0  0  0
  -23.3154  -14.2695   20.7394 C   0  0  0  0  0  0  0  0  0  0  0  0
  -26.4710  -27.8477   18.7771 C   0  0  0  0  0  0  0  0  0  0  0  0
  -22.7976   -9.9177   22.4481 C   0  0  0  0  0  0  0  0  0  0  0  0
  -23.1656   -8.5849   22.2643 C   0  0  0  0  0  0  0  0  0  0  0  0
  -26.8823  -29.3152   20.6471 C   0  0  0  0  0  0  0  0  0  0  0  0
  -29.9672  -24.7635   20.2896 C   0  0  0  0  0  0  0  0  0  0  0  0
  -23.8708   -9.0906   20.0095 C   0  0  0  0  0  0  0  0  0  0  0  0
  -29.6697  -23.4297   18.5001 C   0  0  0  0  0  0  0  0  0  0  0  0
  -25.5545  -15.0496   21.2026 C   0  0  0  0  0  0  0  0  0  0  0  0
  -27.5526  -16.1418   20.0526 C   0  0  0  0  0  0  0  0  0  0  0  0
  -19.2364  -25.8226   21.2276 C   0  0  0  0  0  0  0  0  0  0  0  0
  -25.7312  -27.2154   21.0015 C   0  0  0  0  0  0  0  0  0  0  0  0
  -20.2977  -26.7283   21.0382 C   0  0  0  0  0  0  0  0  0  0  0  0
  -26.2621  -28.4062   21.5177 C   0  0  0  0  0  0  0  0  0  0  0  0
  -29.4486  -23.5182   19.8568 C   0  0  0  0  0  0  0  0  0  0  0  0
  -23.5696  -13.1074   21.4678 C   0  0  0  0  0  0  0  0  0  0  0  0
  -26.9845  -29.0379   19.2841 C   0  0  0  0  0  0  0  0  0  0  0  0
  -22.9661  -10.8370   21.4125 C   0  0  0  0  0  0  0  0  0  0  0  0
  -23.7023   -8.1714   21.0450 C   0  0  0  0  0  0  0  0  0  0  0  0
  -23.5027  -10.4234   20.1933 C   0  0  0  0  0  0  0  0  0  0  0  0
  -26.5792  -16.0534   21.0658 C   0  0  0  0  0  0  0  0  0  0  0  0
  -30.4894  -25.3981   19.1842 C   0  0  0  0  0  0  0  0  0  0  0  0
  -28.2797  -17.2624   20.3720 C   0  0  0  0  0  0  0  0  0  0  0  0
  -27.7792  -15.2875   18.9237 C   0  0  0  0  0  0  0  0  0  0  0  0
  -31.1355  -26.7266   19.1639 C   0  0  0  0  0  0  0  0  0  0  0  0
  -23.2966  -27.6176   23.0051 C   0  0  0  0  0  0  0  0  0  0  0  0
  -25.6533  -27.7240   25.2315 C   0  0  0  0  0  0  0  0  0  0  0  0
  -31.0755  -29.0348   18.2448 C   0  0  0  0  0  0  0  0  0  0  0  0
  -28.9353  -28.3233   25.9499 C   0  0  0  0  0  0  0  0  0  0  0  0
  -28.5727  -22.5725   22.0212 C   0  0  0  0  0  0  0  0  0  0  0  0
  -18.6356  -25.5780   22.5892 C   0  0  0  0  0  0  0  0  0  0  0  0
  -25.0827  -26.2116   21.9148 C   0  0  0  0  0  0  0  0  0  0  0  0
  -26.1778  -28.7421   22.9835 C   0  0  0  0  0  0  0  0  0  0  0  0
  -19.5305  -26.0308   23.7400 C   0  0  0  0  0  0  0  0  0  0  0  0
  -28.2905  -20.0976   24.5653 C   0  0  0  0  0  0  0  0  0  0  0  0
  -20.0826  -27.4268   23.4696 C   0  0  0  0  0  0  0  0  0  0  0  0
  -27.9002  -18.8321   23.7983 C   0  0  0  0  0  0  0  0  0  0  0  0
  -27.6398  -21.3449   23.9700 C   0  0  0  0  0  0  0  0  0  0  0  0
  -27.4658  -20.2652   21.7625 C   0  0  0  0  0  0  0  0  0  0  0  0
  -20.9477  -27.4423   22.2035 C   0  0  1  0  0  0  0  0  0  0  0  0
  -24.5602  -26.8302   23.2077 C   0  0  1  0  0  0  0  0  0  0  0  0
  -28.1486  -18.9909   22.2855 C   0  0  2  0  0  0  0  0  0  0  0  0
  -30.5570  -28.3649   27.8645 C   0  0  0  0  0  0  0  0  0  0  0  0
  -24.4828  -30.3837   26.1619 C   0  0  0  0  0  0  0  0  0  0  0  0
  -26.6269  -30.8224   27.3779 C   0  0  0  0  0  0  0  0  0  0  0  0
  -25.2160  -28.8640   28.0078 C   0  0  0  0  0  0  0  0  0  0  0  0
  -30.7060  -24.8697   16.7446 C   0  0  0  0  0  0  0  0  0  0  0  0
  -30.6084  -26.2084   24.7304 C   0  0  0  0  0  0  0  0  0  0  0  0
  -30.2512  -29.8496   17.2755 C   0  0  0  0  0  0  0  0  0  0  0  0
  -29.6214  -31.0850   17.9100 C   0  0  0  0  0  0  0  0  0  0  0  0
  -28.6237  -30.7388   19.0089 C   0  0  0  0  0  0  0  0  0  1  0  0
  -26.5063  -28.8141   25.8341 C   0  0  1  0  0  0  0  0  0  0  0  0
  -29.9534  -27.5281   26.7473 C   0  0  2  0  0  0  0  0  0  0  0  0
  -25.7080  -29.7159   26.8174 C   0  0  0  0  0  0  0  0  0  0  0  0
  -26.6765  -17.0391   21.9618 N   0  0  0  0  0  0  0  0  0  0  0  0
  -30.3027  -24.5782   18.1021 N   0  0  0  0  0  0  0  0  0  0  0  0
  -27.7197  -17.7576   21.5128 N   0  0  0  0  0  0  0  0  0  0  0  0
  -25.5289  -27.7315   23.8350 N   0  0  0  0  0  0  0  0  0  0  0  0
  -27.9213  -21.4314   22.5354 N   0  0  0  0  0  0  0  0  0  0  0  0
  -29.3372  -17.8626   19.7856 N   0  0  0  0  0  0  0  0  0  0  0  0
  -26.9394  -14.1797   18.7449 N   0  0  0  0  0  0  0  0  0  0  0  0
  -28.8164  -22.5279   20.6489 N   0  0  0  0  0  0  0  0  0  0  0  0
  -30.5922  -27.6815   18.3962 N   0  0  0  0  0  0  0  0  0  0  0  0
  -22.2535  -26.8813   22.4768 N   0  0  0  0  0  0  0  0  0  0  0  0
  -27.6566  -28.1472   26.4347 N   0  0  0  0  0  0  0  0  0  0  0  0
  -32.2255  -26.8977   19.9112 N   0  3  0  0  0  0  0  0  0  0  0  0
  -31.0567  -27.0624   25.8603 N   0  3  0  0  0  0  0  0  0  0  0  0
  -28.7094  -15.4908   18.1071 O   0  0  0  0  0  0  0  0  0  0  0  0
  -23.2696  -28.8049   23.3072 O   0  0  0  0  0  0  0  0  0  0  0  0
  -25.1229  -26.8922   25.9720 O   0  0  0  0  0  0  0  0  0  0  0  0
  -32.0690  -29.4293   18.8378 O   0  0  0  0  0  0  0  0  0  0  0  0
  -29.2441  -29.0327   24.9950 O   0  0  0  0  0  0  0  0  0  0  0  0
  -28.9152  -23.5075   22.7495 O   0  0  0  0  0  0  0  0  0  0  0  0
  -22.6009  -12.1600   21.5968 O   0  0  0  0  0  0  0  0  0  0  0  0
  -27.5902  -29.9279   18.4517 O   0  0  0  0  0  0  0  0  0  1  0  0
  -24.0571   -6.8918   20.8692 F   0  0  0  0  0  0  0  0  0  0  0  0
  -23.6681  -11.3022   19.1952 F   0  0  0  0  0  0  0  0  0  0  0  0
  1  2  1  0  0  0  0
  1  5  2  0  0  0  0
  2  6  2  0  0  0  0
  3  8  2  0  0  0  0
  3 17  1  0  0  0  0
  4  9  1  0  0  0  0
  4 17  2  0  0  0  0
  5 19  1  0  0  0  0
  6 21  1  0  0  0  0
  7 10  2  0  0  0  0
  7 20  1  0  0  0  0
  8 24  1  0  0  0  0
  9 24  2  0  0  0  0
 10 25  1  0  0  0  0
 11 12  2  0  0  0  0
 11 26  1  0  0  0  0
 12 27  1  0  0  0  0
 13 22  1  0  0  0  0
 13 25  2  0  0  0  0
 14 23  1  0  0  0  0
 14 30  2  0  0  0  0
 15 27  2  0  0  0  0
 15 28  1  0  0  0  0
 16 23  2  0  0  0  0
 16 64  1  0  0  0  0
 17 29  1  0  0  0  0
 18 29  1  0  0  0  0
 18 31  2  0  0  0  0
 18 32  1  0  0  0  0
 19 21  2  0  0  0  0
 19 39  1  0  0  0  0
 20 22  2  0  0  0  0
 20 40  1  0  0  0  0
 21 48  1  0  0  0  0
 22 41  1  0  0  0  0
 23 70  1  0  0  0  0
 24 82  1  0  0  0  0
 25 83  1  0  0  0  0
 26 28  2  0  0  0  0
 26 82  1  0  0  0  0
 27 84  1  0  0  0  0
 28 85  1  0  0  0  0
 29 63  2  0  0  0  0
 30 33  1  0  0  0  0
 30 64  1  0  0  0  0
 31 65  1  0  0  0  0
 31 68  1  0  0  0  0
 32 69  1  0  0  0  0
 32 76  2  0  0  0  0
 33 71  1  0  0  0  0
 33 74  2  0  0  0  0
 34 49  1  0  0  0  0
 34 72  1  0  0  0  0
 34 77  2  0  0  0  0
 35 60  1  0  0  0  0
 35 66  1  0  0  0  0
 35 78  2  0  0  0  0
 36 57  1  0  0  0  0
 36 71  1  0  0  0  0
 36 79  2  0  0  0  0
 37 61  1  0  0  0  0
 37 73  1  0  0  0  0
 37 80  2  0  0  0  0
 38 67  1  0  0  0  0
 38 70  1  0  0  0  0
 38 81  2  0  0  0  0
 39 42  1  0  0  0  0
 40 49  1  0  0  0  0
 41 66  1  0  0  0  0
 42 44  1  0  0  0  0
 43 45  1  0  0  0  0
 43 46  1  0  0  0  0
 44 48  1  0  0  0  0
 45 50  1  0  0  0  0
 46 67  1  0  0  0  0
 47 50  1  0  0  0  0
 47 67  1  0  0  0  0
 48 72  1  0  0  0  0
 49 66  1  0  0  0  0
 50 65  1  0  0  0  0
 51 61  1  0  0  0  0
 52 62  1  0  0  0  0
 53 62  1  0  0  0  0
 54 62  1  0  0  0  0
 55 64  1  0  0  0  0
 56 75  1  0  0  0  0
 57 58  1  0  0  0  0
 58 59  1  0  0  0  0
 59 83  1  0  0  0  0
 60 62  1  0  0  0  0
 60 73  1  0  0  0  0
 61 75  1  0  0  0  0
 63 65  1  0  0  0  0
M  CHG  2  74   1  75   1
M  ISO  4  38 100  59 101  70 100  83 101
M  END
> <Batch ID>
0164

> <Smiles>
CNC(C)C(=O)NC(C(=O)N1Cc2cc([101O:1][101CH2:1]CCC(=O)NC(=N)c3cc([100NH:0][100C:0](=O)N4CCCC(n5nc(-c6ccc(Oc7ccc(F)cc7F)cc6)c(C(N)=O)c5N)C4)cn3C)ccc2CC1C(=O)NC1CCCc2ccccc21)C(C)(C)C

> <Shape>
0.237

> <Color>
0.063

> <Negative vol penalty>
0.000

$$$$

  -OEChem-04052304023D

 95103  0     1  0  0  0  0  0999 V2000
  -34.5777  -20.0897   24.9385 C   0  0  0  0  0  0  0  0  0  0  0  0
  -33.2152  -20.3693   24.9682 C   0  0  0  0  0  0  0  0  0  0  0  0
  -23.0685   -9.8727   19.9417 C   0  0  0  0  0  0  0  0  0  0  0  0
  -23.8361   -9.8731   22.2326 C   0  0  0  0  0  0  0  0  0  0  0  0
  -35.4926  -21.1121   24.6906 C   0  0  0  0  0  0  0  0  0  0  0  0
  -32.7669  -21.6717   24.7511 C   0  0  0  0  0  0  0  0  0  0  0  0
  -28.8069  -21.8635   21.6005 C   0  0  0  0  0  0  0  0  0  0  0  0
  -22.3234   -8.7203   20.1916 C   0  0  0  0  0  0  0  0  0  0  0  0
  -23.0910   -8.7207   22.4824 C   0  0  0  0  0  0  0  0  0  0  0  0
  -27.5591  -21.5293   22.1251 C   0  0  0  0  0  0  0  0  0  0  0  0
  -19.8635   -7.9272   23.0940 C   0  0  0  0  0  0  0  0  0  0  0  0
  -19.1104   -7.8859   24.2673 C   0  0  0  0  0  0  0  0  0  0  0  0
  -26.8068  -19.5718   28.3415 C   0  0  0  0  0  0  0  0  0  0  0  0
  -27.0292  -23.8727   22.3417 C   0  0  0  0  0  0  0  0  0  0  0  0
  -27.8634  -18.9394   26.2629 C   0  0  0  0  0  0  0  0  0  0  0  0
  -20.3509   -5.9446   24.9952 C   0  0  0  0  0  0  0  0  0  0  0  0
  -23.8249  -10.4491   20.9622 C   0  0  0  0  0  0  0  0  0  0  0  0
  -27.5694  -18.6202   29.0187 C   0  0  0  0  0  0  0  0  0  0  0  0
  -24.1708  -12.9739   20.8468 C   0  0  0  0  0  0  0  0  0  0  0  0
  -35.0548  -22.4259   24.4607 C   0  0  0  0  0  0  0  0  0  0  0  0
  -29.1800  -23.2072   21.4525 C   0  0  0  0  0  0  0  0  0  0  0  0
  -33.6770  -22.7129   24.5012 C   0  0  0  0  0  0  0  0  0  0  0  0
  -28.2812  -24.2213   21.8126 C   0  0  0  0  0  0  0  0  0  0  0  0
  -26.9537  -19.7314   26.9636 C   0  0  0  0  0  0  0  0  0  0  0  0
  -28.6260  -17.9879   26.9400 C   0  0  0  0  0  0  0  0  0  0  0  0
  -22.3347   -8.1443   21.4619 C   0  0  0  0  0  0  0  0  0  0  0  0
  -26.6712  -22.5339   22.4984 C   0  0  0  0  0  0  0  0  0  0  0  0
  -20.8602   -6.9771   22.8712 C   0  0  0  0  0  0  0  0  0  0  0  0
  -19.3541   -6.8946   25.2179 C   0  0  0  0  0  0  0  0  0  0  0  0
  -21.1039   -5.9858   23.8218 C   0  0  0  0  0  0  0  0  0  0  0  0
  -28.4790  -17.8283   28.3180 C   0  0  0  0  0  0  0  0  0  0  0  0
  -24.5952  -11.6392   20.7046 C   0  0  0  0  0  0  0  0  0  0  0  0
  -25.2630  -13.7223   20.4816 C   0  0  0  0  0  0  0  0  0  0  0  0
  -27.4131  -18.4577   30.4556 C   0  0  0  0  0  0  0  0  0  0  0  0
  -22.9026  -13.4910   21.2712 C   0  0  0  0  0  0  0  0  0  0  0  0
  -26.4333  -19.3050   31.2398 C   0  0  0  0  0  0  0  0  0  0  0  0
  -31.4834  -25.0406   22.6512 C   0  0  0  0  0  0  0  0  0  0  0  0
  -30.7976  -16.3117   24.3680 C   0  0  0  0  0  0  0  0  0  0  0  0
  -30.2972  -27.2221   20.5640 C   0  0  0  0  0  0  0  0  0  0  0  0
  -27.6482  -28.3187   18.7128 C   0  0  0  0  0  0  0  0  0  0  0  0
  -30.7491  -14.7313   20.6538 C   0  0  0  0  0  0  0  0  0  0  0  0
  -36.0842  -23.5066   24.2438 C   0  0  0  0  0  0  0  0  0  0  0  0
  -30.5191  -23.5511   20.8602 C   0  0  0  0  0  0  0  0  0  0  0  0
  -28.6257  -25.6790   21.6549 C   0  0  0  0  0  0  0  0  0  0  0  0
  -35.5053  -24.7893   23.6524 C   0  0  0  0  0  0  0  0  0  0  0  0
  -29.5993  -12.3542   18.2655 C   0  0  0  0  0  0  0  0  0  0  0  0
  -34.2299  -25.1882   24.3880 C   0  0  0  0  0  0  0  0  0  0  0  0
  -28.1628  -12.0620   18.7025 C   0  0  0  0  0  0  0  0  0  0  0  0
  -30.5209  -12.5707   19.4637 C   0  0  0  0  0  0  0  0  0  0  0  0
  -28.6251  -13.3019   20.8584 C   0  0  0  0  0  0  0  0  0  0  0  0
  -33.1504  -24.1085   24.2458 C   0  0  1  0  0  0  0  0  0  0  0  0
  -30.9954  -24.9517   21.2328 C   0  0  1  0  0  0  0  0  0  0  0  0
  -27.6467  -13.1317   19.6836 C   0  0  2  0  0  0  0  0  0  0  0  0
  -25.0434  -18.7639   31.3783 C   0  0  0  0  0  0  0  0  0  0  0  0
  -26.9699  -30.1496   17.1364 C   0  0  0  0  0  0  0  0  0  0  0  0
  -30.0492  -29.1513   22.9149 C   0  0  0  0  0  0  0  0  0  0  0  0
  -28.5284  -30.5585   21.5096 C   0  0  0  0  0  0  0  0  0  0  0  0
  -30.8908  -30.1870   20.7998 C   0  0  0  0  0  0  0  0  0  0  0  0
  -23.9097  -21.6982   24.7427 C   0  0  0  0  0  0  0  0  0  0  0  0
  -25.7237  -23.3894   25.0888 C   0  0  0  0  0  0  0  0  0  0  0  0
  -27.1175  -26.3971   16.5254 C   0  0  0  0  0  0  0  0  0  0  0  0
  -29.7438  -17.3023   24.8172 C   0  0  0  0  0  0  0  0  0  0  0  0
  -30.8229  -16.8789   21.8954 C   0  0  0  0  0  0  0  0  0  0  0  0
  -26.2850  -20.9075   24.8672 C   0  0  0  0  0  0  0  0  0  0  0  0
  -31.6391  -16.7020   23.1656 C   0  0  2  0  0  0  0  0  0  0  0  0
  -29.2304  -28.2886   20.6233 C   0  0  1  0  0  0  0  0  0  0  0  0
  -27.5426  -28.7462   17.2601 C   0  0  2  0  0  0  0  0  0  0  0  0
  -29.6687  -29.5190   21.4668 C   0  0  0  0  0  0  0  0  0  0  0  0
  -25.3644  -22.0564   24.4272 C   0  0  0  0  0  0  0  0  0  1  0  0
  -25.8585  -11.5421   20.2819 N   0  0  0  0  0  0  0  0  0  0  0  0
  -28.0918  -17.5932   31.1622 N   0  0  0  0  0  0  0  0  0  0  0  0
  -26.2372  -12.8253   20.1552 N   0  0  0  0  0  0  0  0  0  0  0  0
  -29.9493  -25.9645   21.0769 N   0  0  0  0  0  0  0  0  0  0  0  0
  -29.9751  -13.5981   20.3539 N   0  0  0  0  0  0  0  0  0  0  0  0
  -25.4755  -15.0535   20.4109 N   0  0  0  0  0  0  0  0  0  0  0  0
  -21.8902  -12.5828   21.6098 N   0  0  0  0  0  0  0  0  0  0  0  0
  -29.5451  -17.1887   26.2291 N   0  0  0  0  0  0  0  0  0  0  0  0
  -26.1967  -20.6761   26.2916 N   0  0  0  0  0  0  0  0  0  0  0  0
  -32.5284  -24.1844   22.9413 N   0  0  0  0  0  0  0  0  0  0  0  0
  -28.8901  -28.6031   19.2400 N   0  0  0  0  0  0  0  0  0  0  0  0
  -30.1545  -15.6592   21.5000 N   0  0  0  0  0  0  0  0  0  0  0  0
  -26.6601  -27.8104   16.5075 N   0  3  0  0  0  0  0  0  0  0  0  0
  -22.6687  -14.7219   21.3321 O   0  0  0  0  0  0  0  0  0  0  0  0
  -26.8328  -20.3577   31.7126 O   0  0  0  0  0  0  0  0  0  0  0  0
  -30.9521  -25.8288   23.4246 O   0  0  0  0  0  0  0  0  0  0  0  0
  -30.9842  -15.2376   24.9405 O   0  0  0  0  0  0  0  0  0  0  0  0
  -31.3963  -27.4929   20.0738 O   0  0  0  0  0  0  0  0  0  0  0  0
  -26.7203  -27.7892   19.3204 O   0  0  0  0  0  0  0  0  0  0  0  0
  -31.8839  -14.9058   20.1968 O   0  0  0  0  0  0  0  0  0  0  0  0
  -21.6076   -7.0199   21.7061 O   0  0  0  0  0  0  0  0  0  0  0  0
  -25.4529  -22.2104   23.0113 O   0  0  0  0  0  0  0  0  0  1  0  0
  -18.6319   -6.8560   26.3454 F   0  0  0  0  0  0  0  0  0  0  0  0
  -22.0609   -5.0711   23.6138 F   0  0  0  0  0  0  0  0  0  0  0  0
  -29.2125  -16.9127   28.9693 F   0  0  0  0  0  0  0  0  0  0  0  0
  -32.5978  -15.7600   22.9288 F   0  0  0  0  0  0  0  0  0  0  0  0
  1  2  1  0  0  0  0
  1  5  2  0  0  0  0
  2  6  2  0  0  0  0
  3  8  2  0  0  0  0
  3 17  1  0  0  0  0
  4  9  1  0  0  0  0
  4 17  2  0  0  0  0
  5 20  1  0  0  0  0
  6 22  1  0  0  0  0
  7 10  2  0  0  0  0
  7 21  1  0  0  0  0
  8 26  1  0  0  0  0
  9 26  2  0  0  0  0
 10 27  1  0  0  0  0
 11 12  2  0  0  0  0
 11 28  1  0  0  0  0
 12 29  1  0  0  0  0
 13 18  1  0  0  0  0
 13 24  2  0  0  0  0
 14 23  1  0  0  0  0
 14 27  2  0  0  0  0
 15 24  1  0  0  0  0
 15 25  2  0  0  0  0
 16 29  2  0  0  0  0
 16 30  1  0  0  0  0
 17 32  1  0  0  0  0
 18 31  2  0  0  0  0
 18 34  1  0  0  0  0
 19 32  1  0  0  0  0
 19 33  2  0  0  0  0
 19 35  1  0  0  0  0
 20 22  2  0  0  0  0
 20 42  1  0  0  0  0
 21 23  2  0  0  0  0
 21 43  1  0  0  0  0
 22 51  1  0  0  0  0
 23 44  1  0  0  0  0
 24 78  1  0  0  0  0
 25 31  1  0  0  0  0
 25 77  1  0  0  0  0
 26 90  1  0  0  0  0
 27 91  1  0  0  0  0
 28 30  2  0  0  0  0
 28 90  1  0  0  0  0
 29 92  1  0  0  0  0
 30 93  1  0  0  0  0
 31 94  1  0  0  0  0
 32 70  2  0  0  0  0
 33 72  1  0  0  0  0
 33 75  1  0  0  0  0
 34 36  1  0  0  0  0
 34 71  2  0  0  0  0
 35 76  1  0  0  0  0
 35 83  2  0  0  0  0
 36 54  1  0  0  0  0
 36 84  2  0  0  0  0
 37 52  1  0  0  0  0
 37 79  1  0  0  0  0
 37 85  2  0  0  0  0
 38 62  1  0  0  0  0
 38 65  1  0  0  0  0
 38 86  2  0  0  0  0
 39 66  1  0  0  0  0
 39 73  1  0  0  0  0
 39 87  2  0  0  0  0
 40 67  1  0  0  0  0
 40 80  1  0  0  0  0
 40 88  2  0  0  0  0
 41 74  1  0  0  0  0
 41 81  1  0  0  0  0
 41 89  2  0  0  0  0
 42 45  1  0  0  0  0
 43 52  1  0  0  0  0
 44 73  1  0  0  0  0
 45 47  1  0  0  0  0
 46 48  1  0  0  0  0
 46 49  1  0  0  0  0
 47 51  1  0  0  0  0
 48 53  1  0  0  0  0
 49 74  1  0  0  0  0
 50 53  1  0  0  0  0
 50 74  1  0  0  0  0
 51 79  1  0  0  0  0
 52 73  1  0  0  0  0
 53 72  1  0  0  0  0
 55 67  1  0  0  0  0
 56 68  1  0  0  0  0
 57 68  1  0  0  0  0
 58 68  1  0  0  0  0
 59 69  1  0  0  0  0
 60 69  1  0  0  0  0
 61 82  1  0  0  0  0
 62 77  1  0  0  0  0
 63 65  1  0  0  0  0
 63 81  1  0  0  0  0
 64 69  1  0  0  0  0
 64 78  1  0  0  0  0
 65 95  1  0  0  0  0
 66 68  1  0  0  0  0
 66 80  1  0  0  0  0
 67 82  1  0  0  0  0
 69 91  1  0  0  0  0
 70 72  1  0  0  0  0
M  CHG  1  82   1
M  ISO  4  41 100  69 101  81 100  91 101
M  END
> <Batch ID>
0164

> <Smiles>
CNC(C)C(=O)NC(C(=O)N1Cc2cc([101O:1][101C:1](C)(C)CNc3cc(NCC(=O)C(F)C[100NH:0][100C:0](=O)N4CCCC(n5nc(-c6ccc(Oc7ccc(F)cc7F)cc6)c(C(N)=O)c5N)C4)c(F)c(C(=N)C(C)=O)c3)ccc2CC1C(=O)NC1CCCc2ccccc21)C(C)(C)C

> <Shape>
0.219

> <Color>
0.173

> <Negative vol penalty>
0.000

$$$$

  -OEChem-04052304023D

 87 96  0     1  0  0  0  0  0999 V2000
  -33.9262  -10.8661   14.3069 C   0  0  0  0  0  0  0  0  0  0  0  0
  -33.4489  -10.4459   15.5442 C   0  0  0  0  0  0  0  0  0  0  0  0
  -27.2053  -28.5846   19.1655 C   0  0  0  0  0  0  0  0  0  0  0  0
  -25.6187  -27.5044   20.6328 C   0  0  0  0  0  0  0  0  0  0  0  0
  -34.2548  -12.2062   14.1063 C   0  0  0  0  0  0  0  0  0  0  0  0
  -33.3009  -11.3654   16.5821 C   0  0  0  0  0  0  0  0  0  0  0  0
  -22.6633  -18.7997   22.2195 C   0  0  0  0  0  0  0  0  0  0  0  0
  -26.9000  -12.4056   18.3581 C   0  0  0  0  0  0  0  0  0  0  0  0
  -23.1584  -19.7909   21.3723 C   0  0  0  0  0  0  0  0  0  0  0  0
  -26.8303  -29.8276   19.6752 C   0  0  0  0  0  0  0  0  0  0  0  0
  -25.2437  -28.7475   21.1425 C   0  0  0  0  0  0  0  0  0  0  0  0
  -25.6964  -12.1301   19.0073 C   0  0  0  0  0  0  0  0  0  0  0  0
  -26.4470  -30.9932   23.3628 C   0  0  0  0  0  0  0  0  0  0  0  0
  -26.3160  -31.1118   24.7464 C   0  0  0  0  0  0  0  0  0  0  0  0
  -22.3367  -18.5707   19.4538 C   0  0  0  0  0  0  0  0  0  0  0  0
  -26.6206  -12.9432   21.0888 C   0  0  0  0  0  0  0  0  0  0  0  0
  -23.9953  -31.7261   24.4739 C   0  0  0  0  0  0  0  0  0  0  0  0
  -26.5994  -27.4229   19.6443 C   0  0  0  0  0  0  0  0  0  0  0  0
  -28.2673  -25.5566   19.1516 C   0  0  0  0  0  0  0  0  0  0  0  0
  -34.1017  -13.1443   15.1392 C   0  0  0  0  0  0  0  0  0  0  0  0
  -27.9647  -12.9660   19.0693 C   0  0  0  0  0  0  0  0  0  0  0  0
  -22.0159  -17.6842   21.6822 C   0  0  0  0  0  0  0  0  0  0  0  0
  -33.6291  -12.7190   16.3955 C   0  0  0  0  0  0  0  0  0  0  0  0
  -21.8524  -17.5668   20.2975 C   0  0  0  0  0  0  0  0  0  0  0  0
  -27.8245  -13.2329   20.4411 C   0  0  0  0  0  0  0  0  0  0  0  0
  -22.9955  -19.6766   19.9917 C   0  0  0  0  0  0  0  0  0  0  0  0
  -25.8496  -29.9092   20.6637 C   0  0  0  0  0  0  0  0  0  0  0  0
  -25.5571  -12.3980   20.3693 C   0  0  0  0  0  0  0  0  0  0  0  0
  -25.3522  -31.2410   22.5348 C   0  0  0  0  0  0  0  0  0  0  0  0
  -25.0901  -31.4783   25.3020 C   0  0  0  0  0  0  0  0  0  0  0  0
  -24.1263  -31.6074   23.0903 C   0  0  0  0  0  0  0  0  0  0  0  0
  -26.9859  -26.1386   19.1178 C   0  0  0  0  0  0  0  0  0  0  0  0
  -28.1102  -24.3439   18.5262 C   0  0  0  0  0  0  0  0  0  0  0  0
  -21.2765  -15.1083   20.5747 C   0  0  0  0  0  0  0  0  0  0  0  0
  -23.7147  -13.1692   21.5872 C   0  0  0  0  0  0  0  0  0  1  0  0
  -29.4902  -26.0666   19.6994 C   0  0  0  0  0  0  0  0  0  0  0  0
  -22.5526  -13.0263   22.2288 C   0  0  0  0  0  0  0  0  0  0  0  0
  -21.9372  -14.2298   22.8251 C   0  0  0  0  0  0  0  0  0  0  0  0
  -31.4881  -14.2524   18.9874 C   0  0  0  0  0  0  0  0  0  0  0  0
  -29.8858  -16.1566   20.7810 C   0  0  0  0  0  0  0  0  0  0  0  0
  -27.7235  -18.2347   21.7341 C   0  0  0  0  0  0  0  0  0  0  0  0
  -23.4145  -20.7325   17.7432 C   0  0  0  0  0  0  0  0  0  0  0  0
  -21.0918  -16.3860   19.7686 C   0  0  0  0  0  0  0  0  0  0  0  0
  -34.5148  -14.5732   14.8893 C   0  0  0  0  0  0  0  0  0  0  0  0
  -29.2999  -13.2221   18.4246 C   0  0  0  0  0  0  0  0  0  0  0  0
  -21.4315  -16.6039   22.5406 C   0  0  0  0  0  0  0  0  0  0  0  0
  -29.0081  -13.8037   21.1734 C   0  0  0  0  0  0  0  0  0  0  0  0
  -33.9746  -15.5538   15.9271 C   0  0  0  0  0  0  0  0  0  0  0  0
  -25.4469  -22.1655   15.1951 C   0  0  0  0  0  0  0  0  0  0  0  0
  -34.1867  -15.0101   17.3364 C   0  0  0  0  0  0  0  0  0  0  0  0
  -26.1934  -23.2901   15.9164 C   0  0  0  0  0  0  0  0  0  0  0  0
  -24.0138  -22.0190   15.7034 C   0  0  0  0  0  0  0  0  0  0  0  0
  -24.6297  -22.9953   17.8798 C   0  0  0  0  0  0  0  0  0  0  0  0
  -33.4313  -13.6910   17.5384 C   0  0  1  0  0  0  0  0  0  0  0  0
  -30.0045  -14.4757   18.9734 C   0  0  1  0  0  0  0  0  0  0  0  0
  -26.0980  -23.1385   17.4472 C   0  0  2  0  0  0  0  0  0  0  0  0
  -26.9087  -20.1724   23.1048 C   0  0  0  0  0  0  0  0  0  0  0  0
  -31.0290  -14.7652   23.2429 C   0  0  0  0  0  0  0  0  0  0  0  0
  -30.0375  -16.5869   24.6453 C   0  0  0  0  0  0  0  0  0  0  0  0
  -31.7757  -17.1329   22.9413 C   0  0  0  0  0  0  0  0  0  0  0  0
  -27.0463  -19.8073   19.3201 C   0  0  0  0  0  0  0  0  0  0  0  0
  -29.4473  -16.5073   22.1803 C   0  0  1  0  0  0  0  0  0  0  0  0
  -27.5030  -19.7361   21.7747 C   0  0  2  0  0  0  0  0  0  0  0  0
  -30.5559  -16.2325   23.2352 C   0  0  0  0  0  0  0  0  0  0  0  0
  -26.0815  -25.3597   18.5183 N   0  0  0  0  0  0  0  0  0  0  0  0
  -26.7955  -24.2760   18.1694 N   0  0  0  0  0  0  0  0  0  0  0  0
  -21.6203  -15.2772   21.9376 N   0  0  0  0  0  0  0  0  0  0  0  0
  -29.6515  -14.8435   20.3552 N   0  0  0  0  0  0  0  0  0  0  0  0
  -24.0020  -21.8755   17.1608 N   0  0  0  0  0  0  0  0  0  0  0  0
  -28.9698  -23.3397   18.2520 N   0  0  0  0  0  0  0  0  0  0  0  0
  -29.4747  -27.3296   20.3068 N   0  0  0  0  0  0  0  0  0  0  0  0
  -23.4918  -20.6901   19.1349 N   0  0  0  0  0  0  0  0  0  0  0  0
  -32.0222  -13.9430   17.7511 N   0  0  0  0  0  0  0  0  0  0  0  0
  -28.9992  -17.8949   22.1319 N   0  0  0  0  0  0  0  0  0  0  0  0
  -26.5749  -20.1530   20.6859 N   0  3  0  0  0  0  0  0  0  0  0  0
  -21.0624  -14.0232   20.0293 O   0  0  0  0  0  0  0  0  0  0  0  0
  -30.5683  -25.4285   19.6371 O   0  0  0  0  0  0  0  0  0  0  0  0
  -21.7320  -14.2443   24.0386 O   0  0  0  0  0  0  0  0  0  0  0  0
  -32.1046  -14.3545   20.0415 O   0  0  0  0  0  0  0  0  0  0  0  0
  -30.4268  -17.0198   20.0843 O   0  0  0  0  0  0  0  0  0  0  0  0
  -26.8500  -17.4424   21.3880 O   0  0  0  0  0  0  0  0  0  0  0  0
  -22.9060  -19.8428   17.0563 O   0  0  0  0  0  0  0  0  0  0  0  0
  -21.9184  -11.8127   22.3503 O   0  0  0  0  0  0  0  0  0  0  0  0
  -25.4837  -31.1220   21.1614 O   0  0  0  0  0  0  0  0  0  0  0  0
  -24.3778  -12.1308   20.9958 O   0  0  0  0  0  0  0  0  0  1  0  0
  -24.9640  -31.5907   26.6308 F   0  0  0  0  0  0  0  0  0  0  0  0
  -23.0707  -31.8456   22.3000 F   0  0  0  0  0  0  0  0  0  0  0  0
  1  2  1  0  0  0  0
  1  5  2  0  0  0  0
  2  6  2  0  0  0  0
  3 10  2  0  0  0  0
  3 18  1  0  0  0  0
  4 11  1  0  0  0  0
  4 18  2  0  0  0  0
  5 20  1  0  0  0  0
  6 23  1  0  0  0  0
  7  9  2  0  0  0  0
  7 22  1  0  0  0  0
  8 12  2  0  0  0  0
  8 21  1  0  0  0  0
  9 26  1  0  0  0  0
 10 27  1  0  0  0  0
 11 27  2  0  0  0  0
 12 28  1  0  0  0  0
 13 14  2  0  0  0  0
 13 29  1  0  0  0  0
 14 30  1  0  0  0  0
 15 24  1  0  0  0  0
 15 26  2  0  0  0  0
 16 25  1  0  0  0  0
 16 28  2  0  0  0  0
 17 30  2  0  0  0  0
 17 31  1  0  0  0  0
 18 32  1  0  0  0  0
 19 32  1  0  0  0  0
 19 33  2  0  0  0  0
 19 36  1  0  0  0  0
 20 23  2  0  0  0  0
 20 44  1  0  0  0  0
 21 25  2  0  0  0  0
 21 45  1  0  0  0  0
 22 24  2  0  0  0  0
 22 46  1  0  0  0  0
 23 54  1  0  0  0  0
 24 43  1  0  0  0  0
 25 47  1  0  0  0  0
 26 72  1  0  0  0  0
 27 84  1  0  0  0  0
 28 85  1  0  0  0  0
 29 31  2  0  0  0  0
 29 84  1  0  0  0  0
 30 86  1  0  0  0  0
 31 87  1  0  0  0  0
 32 65  2  0  0  0  0
 33 66  1  0  0  0  0
 33 70  1  0  0  0  0
 34 43  1  0  0  0  0
 34 67  1  0  0  0  0
 34 76  2  0  0  0  0
 35 37  2  0  0  0  0
 35 85  1  0  0  0  0
 36 71  1  0  0  0  0
 36 77  2  0  0  0  0
 37 38  1  0  0  0  0
 37 83  1  0  0  0  0
 38 67  1  0  0  0  0
 38 78  2  0  0  0  0
 39 55  1  0  0  0  0
 39 73  1  0  0  0  0
 39 79  2  0  0  0  0
 40 62  1  0  0  0  0
 40 68  1  0  0  0  0
 40 80  2  0  0  0  0
 41 63  1  0  0  0  0
 41 74  1  0  0  0  0
 41 81  2  0  0  0  0
 42 69  1  0  0  0  0
 42 72  1  0  0  0  0
 42 82  2  0  0  0  0
 44 48  1  0  0  0  0
 45 55  1  0  0  0  0
 46 67  1  0  0  0  0
 47 68  1  0  0  0  0
 48 50  1  0  0  0  0
 49 51  1  0  0  0  0
 49 52  1  0  0  0  0
 50 54  1  0  0  0  0
 51 56  1  0  0  0  0
 52 69  1  0  0  0  0
 53 56  1  0  0  0  0
 53 69  1  0  0  0  0
 54 73  1  0  0  0  0
 55 68  1  0  0  0  0
 56 66  1  0  0  0  0
 57 63  1  0  0  0  0
 58 64  1  0  0  0  0
 59 64  1  0  0  0  0
 60 64  1  0  0  0  0
 61 75  1  0  0  0  0
 62 64  1  0  0  0  0
 62 74  1  0  0  0  0
 63 75  1  0  0  0  0
 65 66  1  0  0  0  0
M  CHG  1  75   1
M  ISO  4  35 101  42 100  72 100  85 101
M  END
> <Batch ID>
0164

> <Smiles>
CNC(C)C(=O)NC(C(=O)N1Cc2cc([101O:1][101CH2:1]C(=O)C(=O)N3Cc4ccc([100NH:0][100C:0](=O)N5CCCC(n6nc(-c7ccc(Oc8ccc(F)cc8F)cc7)c(C(N)=O)c6N)C5)cc4CC3=O)ccc2CC1C(=O)NC1CCCc2ccccc21)C(C)(C)C

> <Shape>
0.236

> <Color>
0.088

> <Negative vol penalty>
0.000

$$$$

  -OEChem-04052304023D

 85 93  0     1  0  0  0  0  0999 V2000
  -31.3569  -33.5963   18.0240 C   0  0  0  0  0  0  0  0  0  0  0  0
  -31.1920  -32.2170   17.9474 C   0  0  0  0  0  0  0  0  0  0  0  0
  -33.0355  -18.2851   18.5593 C   0  0  0  0  0  0  0  0  0  0  0  0
  -23.3684   -9.9343   21.3535 C   0  0  0  0  0  0  0  0  0  0  0  0
  -23.2440  -11.8692   22.7949 C   0  0  0  0  0  0  0  0  0  0  0  0
  -30.7722  -34.3101   19.0692 C   0  0  0  0  0  0  0  0  0  0  0  0
  -30.4432  -31.5506   18.9167 C   0  0  0  0  0  0  0  0  0  0  0  0
  -26.8732  -26.6451   18.0820 C   0  0  0  0  0  0  0  0  0  0  0  0
  -31.9584  -19.1360   18.8069 C   0  0  0  0  0  0  0  0  0  0  0  0
  -22.5669   -9.2196   22.2437 C   0  0  0  0  0  0  0  0  0  0  0  0
  -22.4424  -11.1546   23.6850 C   0  0  0  0  0  0  0  0  0  0  0  0
  -27.0842  -25.2839   18.2974 C   0  0  0  0  0  0  0  0  0  0  0  0
  -19.2038  -10.2172   23.9166 C   0  0  0  0  0  0  0  0  0  0  0  0
  -18.0729  -10.8565   24.4246 C   0  0  0  0  0  0  0  0  0  0  0  0
  -33.3367  -17.2616   19.4580 C   0  0  0  0  0  0  0  0  0  0  0  0
  -26.0188  -25.4662   20.4540 C   0  0  0  0  0  0  0  0  0  0  0  0
  -31.4837  -17.9402   20.8518 C   0  0  0  0  0  0  0  0  0  0  0  0
  -18.9322  -10.5944   26.6674 C   0  0  0  0  0  0  0  0  0  0  0  0
  -23.7070  -11.2591   21.6292 C   0  0  0  0  0  0  0  0  0  0  0  0
  -24.1080  -12.7813   19.6218 C   0  0  0  0  0  0  0  0  0  0  0  0
  -30.0078  -33.6533   20.0465 C   0  0  0  0  0  0  0  0  0  0  0  0
  -26.2421  -27.4306   19.0573 C   0  0  0  0  0  0  0  0  0  0  0  0
  -29.8489  -32.2561   19.9767 C   0  0  0  0  0  0  0  0  0  0  0  0
  -25.7987  -26.8366   20.2475 C   0  0  0  0  0  0  0  0  0  0  0  0
  -31.1825  -18.9636   19.9531 C   0  0  0  0  0  0  0  0  0  0  0  0
  -22.1038   -9.8297   23.4094 C   0  0  0  0  0  0  0  0  0  0  0  0
  -26.6596  -24.6948   19.4848 C   0  0  0  0  0  0  0  0  0  0  0  0
  -20.1989   -9.7665   24.7840 C   0  0  0  0  0  0  0  0  0  0  0  0
  -17.9371  -11.0451   25.7999 C   0  0  0  0  0  0  0  0  0  0  0  0
  -20.0631   -9.9552   26.1594 C   0  0  0  0  0  0  0  0  0  0  0  0
  -32.5608  -17.0892   20.6042 C   0  0  0  0  0  0  0  0  0  0  0  0
  -24.5355  -11.9977   20.7104 C   0  0  0  0  0  0  0  0  0  0  0  0
  -25.2690  -13.2670   19.0715 C   0  0  0  0  0  0  0  0  0  0  0  0
  -22.7803  -13.0466   19.1502 C   0  0  0  0  0  0  0  0  0  0  0  0
  -27.0939  -29.9400   20.8125 C   0  0  0  0  0  0  0  0  0  0  0  0
  -28.5196  -21.6070   19.8960 C   0  0  0  0  0  0  0  0  0  0  0  0
  -23.9855  -29.8572   21.7362 C   0  0  0  0  0  0  0  0  0  0  0  0
  -21.1296  -28.0322   22.1363 C   0  0  0  0  0  0  0  0  0  0  0  0
  -30.5924  -14.3131   21.3747 C   0  0  0  0  0  0  0  0  0  0  0  0
  -29.4346  -34.4612   21.1838 C   0  0  0  0  0  0  0  0  0  0  0  0
  -25.9981  -28.8920   18.7984 C   0  0  0  0  0  0  0  0  0  0  0  0
  -25.0980  -27.6318   21.3176 C   0  0  0  0  0  0  0  0  0  0  0  0
  -28.3442  -33.7291   21.9619 C   0  0  0  0  0  0  0  0  0  0  0  0
  -29.8996  -12.1939   18.5390 C   0  0  0  0  0  0  0  0  0  0  0  0
  -28.7813  -32.3027   22.2797 C   0  0  0  0  0  0  0  0  0  0  0  0
  -28.3922  -11.9767   18.6802 C   0  0  0  0  0  0  0  0  0  0  0  0
  -30.5889  -12.2208   19.9009 C   0  0  0  0  0  0  0  0  0  0  0  0
  -28.5212  -12.9995   20.9952 C   0  0  0  0  0  0  0  0  0  0  0  0
  -29.0231  -31.5006   20.9953 C   0  0  1  0  0  0  0  0  0  0  0  0
  -25.8055  -29.7014   20.0771 C   0  0  1  0  0  0  0  0  0  0  0  0
  -27.7702  -12.9962   19.6521 C   0  0  2  0  0  0  0  0  0  0  0  0
  -18.7634  -28.2293   22.9484 C   0  0  0  0  0  0  0  0  0  0  0  0
  -24.9745  -29.8076   24.6223 C   0  0  0  0  0  0  0  0  0  0  0  0
  -22.6899  -29.0568   25.3189 C   0  0  0  0  0  0  0  0  0  0  0  0
  -22.9911  -31.2780   24.2244 C   0  0  0  0  0  0  0  0  0  0  0  0
  -20.0359  -27.3267   19.4783 C   0  0  0  0  0  0  0  0  0  0  0  0
  -29.7280  -20.8925   19.3292 C   0  0  0  0  0  0  0  0  0  0  0  0
  -28.0091  -22.7789   19.0801 C   0  0  0  0  0  0  0  0  0  1  0  0
  -23.2163  -29.1738   22.8410 C   0  0  1  0  0  0  0  0  0  0  0  0
  -19.6902  -28.3154   21.7458 C   0  0  2  0  0  0  0  0  0  0  0  0
  -23.4828  -29.8142   24.2325 C   0  0  0  0  0  0  0  0  0  0  0  0
  -25.8643  -11.9834   20.8451 N   0  0  0  0  0  0  0  0  0  0  0  0
  -26.2818  -12.7640   19.8340 N   0  0  0  0  0  0  0  0  0  0  0  0
  -24.8883  -29.0584   21.0203 N   0  0  0  0  0  0  0  0  0  0  0  0
  -29.9559  -13.2129   20.7776 N   0  0  0  0  0  0  0  0  0  0  0  0
  -25.5121  -14.0708   18.0145 N   0  0  0  0  0  0  0  0  0  0  0  0
  -21.7011  -12.4682   19.8322 N   0  0  0  0  0  0  0  0  0  0  0  0
  -30.1114  -19.8106   20.1996 N   0  0  0  0  0  0  0  0  0  0  0  0
  -27.7645  -31.0815   20.4167 N   0  0  0  0  0  0  0  0  0  0  0  0
  -21.8154  -29.1907   22.4339 N   0  0  0  0  0  0  0  0  0  0  0  0
  -31.9912  -14.5092   21.1065 N   0  0  0  0  0  0  0  0  0  0  0  0
  -19.2277  -27.3333   20.7248 N   0  3  0  0  0  0  0  0  0  0  0  0
  -22.5583  -13.7617   18.1438 O   0  0  0  0  0  0  0  0  0  0  0  0
  -27.4522  -29.1480   21.6763 O   0  0  0  0  0  0  0  0  0  0  0  0
  -27.9793  -21.2684   20.9483 O   0  0  0  0  0  0  0  0  0  0  0  0
  -23.7871  -31.0538   21.5120 O   0  0  0  0  0  0  0  0  0  0  0  0
  -21.5976  -26.8964   22.1771 O   0  0  0  0  0  0  0  0  0  0  0  0
  -29.9893  -15.1040   22.1012 O   0  0  0  0  0  0  0  0  0  0  0  0
  -34.3449  -15.4771   21.5627 O   0  0  0  0  0  0  0  0  0  0  0  0
  -32.4288  -16.1653   23.0454 O   0  0  0  0  0  0  0  0  0  0  0  0
  -21.3214   -9.1328   24.2781 O   0  0  0  0  0  0  0  0  0  0  0  0
  -26.8648  -23.3665   19.6978 O   0  0  0  0  0  0  0  0  0  1  0  0
  -16.8518  -11.6604   26.2875 F   0  0  0  0  0  0  0  0  0  0  0  0
  -21.0163   -9.5254   26.9975 F   0  0  0  0  0  0  0  0  0  0  0  0
  -32.9403  -15.7905   21.7412 S   0  0  0  0  0  0  0  0  0  0  0  0
  1  2  1  0  0  0  0
  1  6  2  0  0  0  0
  2  7  2  0  0  0  0
  3  9  2  0  0  0  0
  3 15  1  0  0  0  0
  4 10  2  0  0  0  0
  4 19  1  0  0  0  0
  5 11  1  0  0  0  0
  5 19  2  0  0  0  0
  6 21  1  0  0  0  0
  7 23  1  0  0  0  0
  8 12  2  0  0  0  0
  8 22  1  0  0  0  0
  9 25  1  0  0  0  0
 10 26  1  0  0  0  0
 11 26  2  0  0  0  0
 12 27  1  0  0  0  0
 13 14  2  0  0  0  0
 13 28  1  0  0  0  0
 14 29  1  0  0  0  0
 15 31  2  0  0  0  0
 16 24  1  0  0  0  0
 16 27  2  0  0  0  0
 17 25  2  0  0  0  0
 17 31  1  0  0  0  0
 18 29  2  0  0  0  0
 18 30  1  0  0  0  0
 19 32  1  0  0  0  0
 20 32  1  0  0  0  0
 20 33  2  0  0  0  0
 20 34  1  0  0  0  0
 21 23  2  0  0  0  0
 21 40  1  0  0  0  0
 22 24  2  0  0  0  0
 22 41  1  0  0  0  0
 23 49  1  0  0  0  0
 24 42  1  0  0  0  0
 25 68  1  0  0  0  0
 26 81  1  0  0  0  0
 27 82  1  0  0  0  0
 28 30  2  0  0  0  0
 28 81  1  0  0  0  0
 29 83  1  0  0  0  0
 30 84  1  0  0  0  0
 31 85  1  0  0  0  0
 32 62  2  0  0  0  0
 33 63  1  0  0  0  0
 33 66  1  0  0  0  0
 34 67  1  0  0  0  0
 34 73  2  0  0  0  0
 35 50  1  0  0  0  0
 35 69  1  0  0  0  0
 35 74  2  0  0  0  0
 36 57  1  0  0  0  0
 36 58  1  0  0  0  0
 36 75  2  0  0  0  0
 37 59  1  0  0  0  0
 37 64  1  0  0  0  0
 37 76  2  0  0  0  0
 38 60  1  0  0  0  0
 38 70  1  0  0  0  0
 38 77  2  0  0  0  0
 39 65  1  0  0  0  0
 39 71  1  0  0  0  0
 39 78  2  0  0  0  0
 40 43  1  0  0  0  0
 41 50  1  0  0  0  0
 42 64  1  0  0  0  0
 43 45  1  0  0  0  0
 44 46  1  0  0  0  0
 44 47  1  0  0  0  0
 45 49  1  0  0  0  0
 46 51  1  0  0  0  0
 47 65  1  0  0  0  0
 48 51  1  0  0  0  0
 48 65  1  0  0  0  0
 49 69  1  0  0  0  0
 50 64  1  0  0  0  0
 51 63  1  0  0  0  0
 52 60  1  0  0  0  0
 53 61  1  0  0  0  0
 54 61  1  0  0  0  0
 55 61  1  0  0  0  0
 56 72  1  0  0  0  0
 57 68  1  0  0  0  0
 58 82  1  0  0  0  0
 59 61  1  0  0  0  0
 59 70  1  0  0  0  0
 60 72  1  0  0  0  0
 62 63  1  0  0  0  0
 71 85  1  0  0  0  0
 79 85  2  0  0  0  0
 80 85  2  0  0  0  0
M  CHG  1  72   1
M  ISO  4  39 100  58 101  71 100  82 101
M  END
> <Batch ID>
0164

> <Smiles>
CNC(C)C(=O)NC(C(=O)N1Cc2cc([101O:1][101CH2:1]C(=O)CNc3cccc(S(=O)(=O)[100NH:0][100C:0](=O)N4CCCC(n5nc(-c6ccc(Oc7ccc(F)cc7F)cc6)c(C(N)=O)c5N)C4)c3)ccc2CC1C(=O)NC1CCCc2ccccc21)C(C)(C)C

> <Shape>
0.243

> <Color>
0.078

> <Negative vol penalty>
0.000

$$$$

  -OEChem-04052304023D

 93101  0     1  0  0  0  0  0999 V2000
  -31.0755  -31.4343   17.0909 C   0  0  0  0  0  0  0  0  0  0  0  0
  -30.0535  -30.4917   17.0397 C   0  0  0  0  0  0  0  0  0  0  0  0
  -26.6406  -12.6779   21.7526 C   0  0  0  0  0  0  0  0  0  0  0  0
  -26.0182  -14.0516   19.8651 C   0  0  0  0  0  0  0  0  0  0  0  0
  -31.5553  -31.8744   18.3237 C   0  0  0  0  0  0  0  0  0  0  0  0
  -29.5115  -29.9879   18.2216 C   0  0  0  0  0  0  0  0  0  0  0  0
  -24.4522  -29.7975   18.1121 C   0  0  0  0  0  0  0  0  0  0  0  0
  -25.3625  -12.1197   21.7679 C   0  0  0  0  0  0  0  0  0  0  0  0
  -24.7400  -13.4933   19.8803 C   0  0  0  0  0  0  0  0  0  0  0  0
  -23.8697  -28.7464   17.4053 C   0  0  0  0  0  0  0  0  0  0  0  0
  -23.6515   -9.7661   20.0457 C   0  0  0  0  0  0  0  0  0  0  0  0
  -23.5502   -8.3822   20.1879 C   0  0  0  0  0  0  0  0  0  0  0  0
  -23.5005  -27.5663   19.4766 C   0  0  0  0  0  0  0  0  0  0  0  0
  -28.1606  -24.0273   19.2882 C   0  0  0  0  0  0  0  0  0  0  0  0
  -28.7137  -21.6852   19.0747 C   0  0  0  0  0  0  0  0  0  0  0  0
  -29.2484  -22.8720   21.1101 C   0  0  0  0  0  0  0  0  0  0  0  0
  -22.2738   -8.6842   22.2169 C   0  0  0  0  0  0  0  0  0  0  0  0
  -26.9685  -13.6439   20.8012 C   0  0  0  0  0  0  0  0  0  0  0  0
  -29.4116  -13.7556   20.0758 C   0  0  0  0  0  0  0  0  0  0  0  0
  -31.0123  -31.3829   19.5213 C   0  0  0  0  0  0  0  0  0  0  0  0
  -24.5732  -29.7361   19.5078 C   0  0  0  0  0  0  0  0  0  0  0  0
  -29.9854  -30.4209   19.4717 C   0  0  0  0  0  0  0  0  0  0  0  0
  -24.0826  -28.6191   20.1990 C   0  0  0  0  0  0  0  0  0  0  0  0
  -28.1668  -22.8511   18.5386 C   0  0  0  0  0  0  0  0  0  0  0  0
  -28.7015  -24.0378   20.5740 C   0  0  0  0  0  0  0  0  0  0  0  0
  -29.2545  -21.6957   20.3605 C   0  0  0  0  0  0  0  0  0  0  0  0
  -24.4122  -12.5274   20.8317 C   0  0  0  0  0  0  0  0  0  0  0  0
  -23.3964  -27.6292   18.0873 C   0  0  0  0  0  0  0  0  0  0  0  0
  -23.0641  -10.6090   20.9892 C   0  0  0  0  0  0  0  0  0  0  0  0
  -22.8613   -7.8412   21.2735 C   0  0  0  0  0  0  0  0  0  0  0  0
  -22.3752  -10.0681   22.0747 C   0  0  0  0  0  0  0  0  0  0  0  0
  -28.2885  -14.2213   20.7853 C   0  0  0  0  0  0  0  0  0  0  0  0
  -30.4102  -14.6440   20.3919 C   0  0  0  0  0  0  0  0  0  0  0  0
  -25.3598  -22.2620   16.3446 C   0  0  0  0  0  0  0  0  0  0  0  0
  -29.5407  -12.6213   19.2083 C   0  0  0  0  0  0  0  0  0  0  0  0
  -27.0090  -29.7322   21.5500 C   0  0  0  0  0  0  0  0  0  0  0  0
  -23.0165  -24.2478   16.8626 C   0  0  0  0  0  0  0  0  0  0  0  0
  -24.6446  -29.8798   23.7660 C   0  0  0  0  0  0  0  0  0  0  0  0
  -21.3821  -29.2775   24.5662 C   0  0  0  0  0  0  0  0  0  0  0  0
  -30.3868  -20.3504   22.1645 C   0  0  0  0  0  0  0  0  0  0  0  0
  -31.5959  -31.8534   20.8300 C   0  0  0  0  0  0  0  0  0  0  0  0
  -25.1798  -30.8901   20.2579 C   0  0  0  0  0  0  0  0  0  0  0  0
  -24.1703  -28.5133   21.6989 C   0  0  0  0  0  0  0  0  0  0  0  0
  -30.7112  -31.5486   22.0361 C   0  0  0  0  0  0  0  0  0  0  0  0
  -31.8318  -17.5909   23.8891 C   0  0  0  0  0  0  0  0  0  0  0  0
  -30.2113  -30.1085   21.9811 C   0  0  0  0  0  0  0  0  0  0  0  0
  -31.1939  -16.3711   23.2202 C   0  0  0  0  0  0  0  0  0  0  0  0
  -30.8458  -18.7514   24.0104 C   0  0  0  0  0  0  0  0  0  0  0  0
  -29.5487  -17.9199   22.0881 C   0  0  0  0  0  0  0  0  0  0  0  0
  -29.3547  -29.8692   20.7318 C   0  0  1  0  0  0  0  0  0  0  0  0
  -25.7167  -30.4947   21.6301 C   0  0  1  0  0  0  0  0  0  0  0  0
  -30.5222  -16.7474   21.8850 C   0  0  2  0  0  0  0  0  0  0  0  0
  -19.7518  -29.4684   26.4643 C   0  0  0  0  0  0  0  0  0  0  0  0
  -20.9958  -22.6494   18.5693 C   0  0  0  0  0  0  0  0  0  0  0  0
  -21.0515  -22.0572   16.1480 C   0  0  0  0  0  0  0  0  0  0  0  0
  -22.0910  -20.5278   17.8310 C   0  0  0  0  0  0  0  0  0  0  0  0
  -25.9046  -27.4369   25.0906 C   0  0  0  0  0  0  0  0  0  0  0  0
  -23.7706  -27.1104   26.3585 C   0  0  0  0  0  0  0  0  0  0  0  0
  -25.1064  -29.1920   26.6835 C   0  0  0  0  0  0  0  0  0  0  0  0
  -19.6412  -31.1199   23.0385 C   0  0  0  0  0  0  0  0  0  0  0  0
  -27.5856  -22.8399   17.1567 C   0  0  0  0  0  0  0  0  0  0  0  0
  -22.9595  -25.2950   17.9586 C   0  0  0  0  0  0  0  0  0  1  0  0
  -23.1739  -22.8025   17.3142 C   0  0  1  0  0  0  0  0  0  0  0  0
  -23.8279  -28.8637   24.5272 C   0  0  1  0  0  0  0  0  0  0  0  0
  -20.3315  -30.1470   25.2330 C   0  0  2  0  0  0  0  0  0  0  0  0
  -28.6947  -25.2956   21.3754 C   0  0  0  0  0  0  0  0  0  0  0  0
  -21.8549  -22.0041   17.4612 C   0  0  0  0  0  0  0  0  0  0  0  0
  -24.6523  -28.1516   25.6365 C   0  0  0  0  0  0  0  0  0  0  0  0
  -28.5486  -15.3202   21.4986 N   0  0  0  0  0  0  0  0  0  0  0  0
  -29.8466  -15.5523   21.2390 N   0  0  0  0  0  0  0  0  0  0  0  0
  -24.7774  -29.6646   22.3869 N   0  0  0  0  0  0  0  0  0  0  0  0
  -30.2524  -19.0546   22.7063 N   0  0  0  0  0  0  0  0  0  0  0  0
  -31.7067  -14.7290   20.0254 N   0  0  0  0  0  0  0  0  0  0  0  0
  -28.4157  -11.8138   18.9925 N   0  0  0  0  0  0  0  0  0  0  0  0
  -29.8100  -20.5114   20.9051 N   0  0  0  0  0  0  0  0  0  0  0  0
  -24.0353  -22.1906   16.2991 N   0  0  0  0  0  0  0  0  0  0  0  0
  -28.0280  -30.4172   20.9161 N   0  0  0  0  0  0  0  0  0  0  0  0
  -22.6509  -29.5717   25.0189 N   0  0  0  0  0  0  0  0  0  0  0  0
  -26.1259  -22.8565   17.2523 N   0  3  0  0  0  0  0  0  0  0  0  0
  -19.2173  -30.4320   24.2851 N   0  3  0  0  0  0  0  0  0  0  0  0
  -30.6259  -12.3230   18.6543 O   0  0  0  0  0  0  0  0  0  0  0  0
  -27.0769  -28.6065   22.0293 O   0  0  0  0  0  0  0  0  0  0  0  0
  -22.9523  -24.5564   15.6724 O   0  0  0  0  0  0  0  0  0  0  0  0
  -25.1404  -30.8333   24.3714 O   0  0  0  0  0  0  0  0  0  0  0  0
  -21.1047  -28.4204   23.7302 O   0  0  0  0  0  0  0  0  0  0  0  0
  -30.9942  -21.2434   22.7608 O   0  0  0  0  0  0  0  0  0  0  0  0
  -23.1649  -11.9827   20.8462 O   0  0  0  0  0  0  0  0  0  0  0  0
  -22.8280  -26.6015   17.3998 O   0  0  0  0  0  0  0  0  0  1  0  0
  -22.7628   -6.5123   21.4091 F   0  0  0  0  0  0  0  0  0  0  0  0
  -21.8078  -10.8728   22.9837 F   0  0  0  0  0  0  0  0  0  0  0  0
  -28.1286  -26.3556   20.7259 F   0  0  0  0  0  0  0  0  0  0  0  0
  -28.0079  -25.1908   22.5515 F   0  0  0  0  0  0  0  0  0  0  0  0
  -29.9501  -25.7055   21.7199 F   0  0  0  0  0  0  0  0  0  0  0  0
  1  2  1  0  0  0  0
  1  5  2  0  0  0  0
  2  6  2  0  0  0  0
  3  8  2  0  0  0  0
  3 18  1  0  0  0  0
  4  9  1  0  0  0  0
  4 18  2  0  0  0  0
  5 20  1  0  0  0  0
  6 22  1  0  0  0  0
  7 10  2  0  0  0  0
  7 21  1  0  0  0  0
  8 27  1  0  0  0  0
  9 27  2  0  0  0  0
 10 28  1  0  0  0  0
 11 12  2  0  0  0  0
 11 29  1  0  0  0  0
 12 30  1  0  0  0  0
 13 23  1  0  0  0  0
 13 28  2  0  0  0  0
 14 24  2  0  0  0  0
 14 25  1  0  0  0  0
 15 24  1  0  0  0  0
 15 26  2  0  0  0  0
 16 25  2  0  0  0  0
 16 26  1  0  0  0  0
 17 30  2  0  0  0  0
 17 31  1  0  0  0  0
 18 32  1  0  0  0  0
 19 32  1  0  0  0  0
 19 33  2  0  0  0  0
 19 35  1  0  0  0  0
 20 22  2  0  0  0  0
 20 41  1  0  0  0  0
 21 23  2  0  0  0  0
 21 42  1  0  0  0  0
 22 50  1  0  0  0  0
 23 43  1  0  0  0  0
 24 61  1  0  0  0  0
 25 66  1  0  0  0  0
 26 75  1  0  0  0  0
 27 87  1  0  0  0  0
 28 88  1  0  0  0  0
 29 31  2  0  0  0  0
 29 87  1  0  0  0  0
 30 89  1  0  0  0  0
 31 90  1  0  0  0  0
 32 69  2  0  0  0  0
 33 70  1  0  0  0  0
 33 73  1  0  0  0  0
 34 76  1  0  0  0  0
 34 79  2  0  0  0  0
 35 74  1  0  0  0  0
 35 81  2  0  0  0  0
 36 51  1  0  0  0  0
 36 77  1  0  0  0  0
 36 82  2  0  0  0  0
 37 62  1  0  0  0  0
 37 63  1  0  0  0  0
 37 83  2  0  0  0  0
 38 64  1  0  0  0  0
 38 71  1  0  0  0  0
 38 84  2  0  0  0  0
 39 65  1  0  0  0  0
 39 78  1  0  0  0  0
 39 85  2  0  0  0  0
 40 72  1  0  0  0  0
 40 75  1  0  0  0  0
 40 86  2  0  0  0  0
 41 44  1  0  0  0  0
 42 51  1  0  0  0  0
 43 71  1  0  0  0  0
 44 46  1  0  0  0  0
 45 47  1  0  0  0  0
 45 48  1  0  0  0  0
 46 50  1  0  0  0  0
 47 52  1  0  0  0  0
 48 72  1  0  0  0  0
 49 52  1  0  0  0  0
 49 72  1  0  0  0  0
 50 77  1  0  0  0  0
 51 71  1  0  0  0  0
 52 70  1  0  0  0  0
 53 65  1  0  0  0  0
 54 67  1  0  0  0  0
 55 67  1  0  0  0  0
 56 67  1  0  0  0  0
 57 68  1  0  0  0  0
 58 68  1  0  0  0  0
 59 68  1  0  0  0  0
 60 80  1  0  0  0  0
 61 79  1  0  0  0  0
 62 88  1  0  0  0  0
 63 67  1  0  0  0  0
 63 76  1  0  0  0  0
 64 68  1  0  0  0  0
 64 78  1  0  0  0  0
 65 80  1  0  0  0  0
 66 91  1  0  0  0  0
 66 92  1  0  0  0  0
 66 93  1  0  0  0  0
 69 70  1  0  0  0  0
M  CHG  2  79   1  80   1
M  ISO  4  40 100  62 101  75 100  88 101
M  END
> <Batch ID>
0164

> <Smiles>
CNC(C)C(=O)NC(C(=O)N1Cc2cc([101O:1][101CH2:1]C(=O)C(NC=NCc3cc([100NH:0][100C:0](=O)N4CCCC(n5nc(-c6ccc(Oc7ccc(F)cc7F)cc6)c(C(N)=O)c5N)C4)cc(C(F)(F)F)c3)C(C)(C)C)ccc2CC1C(=O)NC1CCCc2ccccc21)C(C)(C)C

> <Shape>
0.253

> <Color>
0.062

> <Negative vol penalty>
0.000

$$$$

  -OEChem-04052304023D

 84 92  0     1  0  0  0  0  0999 V2000
  -16.9829  -29.6185   19.9017 C   0  0  0  0  0  0  0  0  0  0  0  0
  -18.1053  -30.4341   19.7999 C   0  0  0  0  0  0  0  0  0  0  0  0
  -23.7766  -12.2839   20.3810 C   0  0  0  0  0  0  0  0  0  0  0  0
  -23.0723  -13.7721   22.1492 C   0  0  0  0  0  0  0  0  0  0  0  0
  -16.8710  -28.7174   20.9597 C   0  0  0  0  0  0  0  0  0  0  0  0
  -19.1161  -30.3498   20.7568 C   0  0  0  0  0  0  0  0  0  0  0  0
  -25.8763  -28.7206   18.8761 C   0  0  0  0  0  0  0  0  0  0  0  0
  -23.2748  -11.1966   21.0963 C   0  0  0  0  0  0  0  0  0  0  0  0
  -22.5705  -12.6848   22.8644 C   0  0  0  0  0  0  0  0  0  0  0  0
  -27.2338  -28.6216   18.5703 C   0  0  0  0  0  0  0  0  0  0  0  0
  -24.2351   -9.2754   23.7061 C   0  0  0  0  0  0  0  0  0  0  0  0
  -25.0317   -8.1336   23.7916 C   0  0  0  0  0  0  0  0  0  0  0  0
  -26.6026  -24.2184   18.6696 C   0  0  0  0  0  0  0  0  0  0  0  0
  -26.0981  -22.9332   18.9813 C   0  0  0  0  0  0  0  0  0  0  0  0
  -27.7796  -28.6797   20.9255 C   0  0  0  0  0  0  0  0  0  0  0  0
  -23.3002   -6.8444   22.7067 C   0  0  0  0  0  0  0  0  0  0  0  0
  -23.6754  -13.5717   20.9075 C   0  0  0  0  0  0  0  0  0  0  0  0
  -23.5058  -15.4860   19.2299 C   0  0  0  0  0  0  0  0  0  0  0  0
  -17.8854  -28.6152   21.9247 C   0  0  0  0  0  0  0  0  0  0  0  0
  -25.4638  -28.7841   20.2100 C   0  0  0  0  0  0  0  0  0  0  0  0
  -19.0171  -29.4474   21.8294 C   0  0  0  0  0  0  0  0  0  0  0  0
  -26.4204  -28.7664   21.2383 C   0  0  0  0  0  0  0  0  0  0  0  0
  -22.6717  -11.3971   22.3379 C   0  0  0  0  0  0  0  0  0  0  0  0
  -28.1831  -28.6015   19.5925 C   0  0  0  0  0  0  0  0  0  0  0  0
  -22.9710   -9.2017   23.1209 C   0  0  0  0  0  0  0  0  0  0  0  0
  -24.5643   -6.9181   23.2919 C   0  0  0  0  0  0  0  0  0  0  0  0
  -22.5036   -7.9862   22.6212 C   0  0  0  0  0  0  0  0  0  0  0  0
  -24.1941  -14.6952   20.1694 C   0  0  0  0  0  0  0  0  0  0  0  0
  -24.4311  -16.4139   18.8186 C   0  0  0  0  0  0  0  0  0  0  0  0
  -27.9699  -24.1317   18.7908 C   0  0  0  0  0  0  0  0  0  0  0  0
  -27.1932  -22.1528   19.2704 C   0  0  0  0  0  0  0  0  0  0  0  0
  -22.1511  -15.3903   18.7702 C   0  0  0  0  0  0  0  0  0  0  0  0
  -31.1156  -26.1531   18.4693 C   0  0  0  0  0  0  0  0  0  0  0  0
  -31.4659  -27.1761   19.5059 C   0  0  0  0  0  0  0  0  0  0  0  0
  -30.3471  -24.8988   18.7500 C   0  0  0  0  0  0  0  0  0  0  0  0
  -22.5995  -29.0112   22.6225 C   0  0  0  0  0  0  0  0  0  0  0  0
  -24.6165  -27.0330   23.8177 C   0  0  0  0  0  0  0  0  0  0  0  0
  -26.4617  -24.5074   24.1639 C   0  0  0  0  0  0  0  0  0  0  0  0
  -28.4724  -20.0822   19.9208 C   0  0  0  0  0  0  0  0  0  0  0  0
  -17.6980  -27.6597   23.0765 C   0  0  0  0  0  0  0  0  0  0  0  0
  -24.0163  -28.9535   20.5838 C   0  0  0  0  0  0  0  0  0  0  0  0
  -25.9327  -28.8720   22.6575 C   0  0  0  0  0  0  0  0  0  0  0  0
  -18.9865  -27.3670   23.8409 C   0  0  0  0  0  0  0  0  0  0  0  0
  -29.4234  -16.6647   19.6156 C   0  0  0  0  0  0  0  0  0  0  0  0
  -19.7397  -28.6610   24.1327 C   0  0  0  0  0  0  0  0  0  0  0  0
  -28.0911  -15.9127   19.6552 C   0  0  0  0  0  0  0  0  0  0  0  0
  -29.4206  -17.8732   20.5501 C   0  0  0  0  0  0  0  0  0  0  0  0
  -26.9681  -18.0513   20.3984 C   0  0  0  0  0  0  0  0  0  0  0  0
  -20.1461  -29.3677   22.8339 C   0  0  1  0  0  0  0  0  0  0  0  0
  -23.6389  -28.2205   21.8837 C   0  0  1  0  0  0  0  0  0  0  0  0
  -26.9002  -16.8636   19.4245 C   0  0  2  0  0  0  0  0  0  0  0  0
  -27.6176  -22.7257   25.5007 C   0  0  0  0  0  0  0  0  0  0  0  0
  -25.6402  -29.2292   25.6704 C   0  0  0  0  0  0  0  0  0  0  0  0
  -26.9669  -27.4879   26.8853 C   0  0  0  0  0  0  0  0  0  0  0  0
  -24.4771  -27.3435   26.8304 C   0  0  0  0  0  0  0  0  0  0  0  0
  -25.0958  -22.3431   22.6775 C   0  0  0  0  0  0  0  0  0  0  0  0
  -30.3438  -27.8470   20.2403 C   0  0  0  0  0  0  0  0  0  1  0  0
  -25.7951  -26.8276   24.7354 C   0  0  1  0  0  0  0  0  0  0  0  0
  -26.3852  -23.0834   24.6845 C   0  0  2  0  0  0  0  0  0  0  0  0
  -25.7233  -27.7260   26.0024 C   0  0  0  0  0  0  0  0  0  0  0  0
  -25.4591  -15.0865   20.3446 N   0  0  0  0  0  0  0  0  0  0  0  0
  -31.4850  -26.3486   17.2466 N   0  0  0  0  0  0  0  0  0  0  0  0
  -32.7135  -27.4074   19.7420 N   0  0  0  0  0  0  0  0  0  0  0  0
  -25.5730  -16.1333   19.5095 N   0  0  0  0  0  0  0  0  0  0  0  0
  -24.7403  -28.0303   22.8428 N   0  0  0  0  0  0  0  0  0  0  0  0
  -28.2668  -18.7309   20.2706 N   0  0  0  0  0  0  0  0  0  0  0  0
  -24.3712  -17.4344   17.9368 N   0  0  0  0  0  0  0  0  0  0  0  0
  -21.3368  -14.3784   19.2966 N   0  0  0  0  0  0  0  0  0  0  0  0
  -28.9905  -25.0928   18.6053 N   0  0  0  0  0  0  0  0  0  0  0  0
  -27.3033  -20.7909   19.6457 N   0  0  0  0  0  0  0  0  0  0  0  0
  -21.3012  -28.7224   22.2476 N   0  0  0  0  0  0  0  0  0  0  0  0
  -25.8472  -25.3975   25.0191 N   0  0  0  0  0  0  0  0  0  0  0  0
  -26.2774  -22.1225   23.5506 N   0  3  0  0  0  0  0  0  0  0  0  0
  -21.6816  -16.1687   17.9057 O   0  0  0  0  0  0  0  0  0  0  0  0
  -30.9921  -23.9087   19.0514 O   0  0  0  0  0  0  0  0  0  0  0  0
  -22.9484  -29.8229   23.4717 O   0  0  0  0  0  0  0  0  0  0  0  0
  -23.6101  -26.3334   23.9628 O   0  0  0  0  0  0  0  0  0  0  0  0
  -27.0146  -24.8012   23.1063 O   0  0  0  0  0  0  0  0  0  0  0  0
  -29.6040  -20.5674   19.8425 O   0  0  0  0  0  0  0  0  0  0  0  0
  -28.3381  -22.8758   19.1565 O   0  0  0  0  0  0  0  0  0  0  0  0
  -22.1817  -10.3364   23.0360 O   0  0  0  0  0  0  0  0  0  0  0  0
  -29.5064  -28.5001   19.2871 O   0  0  0  0  0  0  0  0  0  1  0  0
  -25.3300   -5.8220   23.3727 F   0  0  0  0  0  0  0  0  0  0  0  0
  -21.2906   -7.9095   22.0569 F   0  0  0  0  0  0  0  0  0  0  0  0
  1  2  1  0  0  0  0
  1  5  2  0  0  0  0
  2  6  2  0  0  0  0
  3  8  2  0  0  0  0
  3 17  1  0  0  0  0
  4  9  1  0  0  0  0
  4 17  2  0  0  0  0
  5 19  1  0  0  0  0
  6 21  1  0  0  0  0
  7 10  2  0  0  0  0
  7 20  1  0  0  0  0
  8 23  1  0  0  0  0
  9 23  2  0  0  0  0
 10 24  1  0  0  0  0
 11 12  2  0  0  0  0
 11 25  1  0  0  0  0
 12 26  1  0  0  0  0
 13 14  1  0  0  0  0
 13 30  2  0  0  0  0
 14 31  2  0  0  0  0
 15 22  1  0  0  0  0
 15 24  2  0  0  0  0
 16 26  2  0  0  0  0
 16 27  1  0  0  0  0
 17 28  1  0  0  0  0
 18 28  1  0  0  0  0
 18 29  2  0  0  0  0
 18 32  1  0  0  0  0
 19 21  2  0  0  0  0
 19 40  1  0  0  0  0
 20 22  2  0  0  0  0
 20 41  1  0  0  0  0
 21 49  1  0  0  0  0
 22 42  1  0  0  0  0
 23 81  1  0  0  0  0
 24 82  1  0  0  0  0
 25 27  2  0  0  0  0
 25 81  1  0  0  0  0
 26 83  1  0  0  0  0
 27 84  1  0  0  0  0
 28 61  2  0  0  0  0
 29 64  1  0  0  0  0
 29 67  1  0  0  0  0
 30 69  1  0  0  0  0
 30 80  1  0  0  0  0
 31 70  1  0  0  0  0
 31 80  1  0  0  0  0
 32 68  1  0  0  0  0
 32 74  2  0  0  0  0
 33 34  1  0  0  0  0
 33 35  1  0  0  0  0
 33 62  2  0  0  0  0
 34 57  1  0  0  0  0
 34 63  2  0  0  0  0
 35 69  1  0  0  0  0
 35 75  2  0  0  0  0
 36 50  1  0  0  0  0
 36 71  1  0  0  0  0
 36 76  2  0  0  0  0
 37 58  1  0  0  0  0
 37 65  1  0  0  0  0
 37 77  2  0  0  0  0
 38 59  1  0  0  0  0
 38 72  1  0  0  0  0
 38 78  2  0  0  0  0
 39 66  1  0  0  0  0
 39 70  1  0  0  0  0
 39 79  2  0  0  0  0
 40 43  1  0  0  0  0
 41 50  1  0  0  0  0
 42 65  1  0  0  0  0
 43 45  1  0  0  0  0
 44 46  1  0  0  0  0
 44 47  1  0  0  0  0
 45 49  1  0  0  0  0
 46 51  1  0  0  0  0
 47 66  1  0  0  0  0
 48 51  1  0  0  0  0
 48 66  1  0  0  0  0
 49 71  1  0  0  0  0
 50 65  1  0  0  0  0
 51 64  1  0  0  0  0
 52 59  1  0  0  0  0
 53 60  1  0  0  0  0
 54 60  1  0  0  0  0
 55 60  1  0  0  0  0
 56 73  1  0  0  0  0
 57 82  1  0  0  0  0
 58 60  1  0  0  0  0
 58 72  1  0  0  0  0
 59 73  1  0  0  0  0
 61 64  1  0  0  0  0
M  CHG  1  73   1
M  ISO  4  39 100  57 101  70 100  82 101
M  END
> <Batch ID>
0164

> <Smiles>
CNC(C)C(=O)NC(C(=O)N1Cc2cc([101O:1][101CH2:1]C(=N)C(=N)C(=O)Nc3ccc([100NH:0][100C:0](=O)N4CCCC(n5nc(-c6ccc(Oc7ccc(F)cc7F)cc6)c(C(N)=O)c5N)C4)o3)ccc2CC1C(=O)NC1CCCc2ccccc21)C(C)(C)C

> <Shape>
0.237

> <Color>
0.080

> <Negative vol penalty>
0.000

$$$$

  -OEChem-04052304023D

 87 96  0     1  0  0  0  0  0999 V2000
  -25.7338  -37.8148   24.0302 C   0  0  0  0  0  0  0  0  0  0  0  0
  -26.2621  -36.5753   24.3765 C   0  0  0  0  0  0  0  0  0  0  0  0
  -22.8097  -10.4999   20.4772 C   0  0  0  0  0  0  0  0  0  0  0  0
  -24.5459   -9.1605   21.4916 C   0  0  0  0  0  0  0  0  0  0  0  0
  -24.4018  -37.9166   23.6312 C   0  0  0  0  0  0  0  0  0  0  0  0
  -25.4584  -35.4370   24.3250 C   0  0  0  0  0  0  0  0  0  0  0  0
  -27.2344  -29.8284   20.1679 C   0  0  0  0  0  0  0  0  0  0  0  0
  -21.8839   -9.9884   21.3864 C   0  0  0  0  0  0  0  0  0  0  0  0
  -23.6200   -8.6490   22.4008 C   0  0  0  0  0  0  0  0  0  0  0  0
  -27.6148  -28.6316   19.5604 C   0  0  0  0  0  0  0  0  0  0  0  0
  -21.1800   -6.3086   22.4215 C   0  0  0  0  0  0  0  0  0  0  0  0
  -21.1952   -4.9340   22.6578 C   0  0  0  0  0  0  0  0  0  0  0  0
  -25.5408  -27.6043   20.2612 C   0  0  0  0  0  0  0  0  0  0  0  0
  -26.8850  -18.1760   19.7898 C   0  0  0  0  0  0  0  0  0  0  0  0
  -21.6539   -5.3408   24.9947 C   0  0  0  0  0  0  0  0  0  0  0  0
  -29.2375  -18.4712   19.9776 C   0  0  0  0  0  0  0  0  0  0  0  0
  -24.1408  -10.0859   20.5297 C   0  0  0  0  0  0  0  0  0  0  0  0
  -25.0574  -10.5096   18.1871 C   0  0  0  0  0  0  0  0  0  0  0  0
  -23.5839  -36.7776   23.5654 C   0  0  0  0  0  0  0  0  0  0  0  0
  -25.9975  -29.9224   20.8118 C   0  0  0  0  0  0  0  0  0  0  0  0
  -24.1138  -35.5239   23.9259 C   0  0  0  0  0  0  0  0  0  0  0  0
  -25.1490  -28.8042   20.8607 C   0  0  0  0  0  0  0  0  0  0  0  0
  -28.1496  -17.6146   19.9275 C   0  0  0  0  0  0  0  0  0  0  0  0
  -22.2889   -9.0629   22.3482 C   0  0  0  0  0  0  0  0  0  0  0  0
  -26.7702  -27.5222   19.6072 C   0  0  0  0  0  0  0  0  0  0  0  0
  -21.4019   -7.1993   23.4718 C   0  0  0  0  0  0  0  0  0  0  0  0
  -21.4321   -4.4501   23.9444 C   0  0  0  0  0  0  0  0  0  0  0  0
  -26.7488  -19.5573   19.7076 C   0  0  0  0  0  0  0  0  0  0  0  0
  -21.6388   -6.7154   24.7584 C   0  0  0  0  0  0  0  0  0  0  0  0
  -25.0976  -10.6135   19.5904 C   0  0  0  0  0  0  0  0  0  0  0  0
  -27.8994  -20.3270   19.7678 C   0  0  0  0  0  0  0  0  0  0  0  0
  -26.1842  -11.1696   17.7615 C   0  0  0  0  0  0  0  0  0  0  0  0
  -24.0881   -9.8733   17.3436 C   0  0  0  0  0  0  0  0  0  0  0  0
  -23.5864  -32.0707   22.7217 C   0  0  0  0  0  0  0  0  0  0  0  0
  -21.9257  -30.3895   20.7657 C   0  0  0  0  0  0  0  0  0  0  0  0
  -19.5658  -29.1877   18.6153 C   0  0  0  0  0  0  0  0  0  0  0  0
  -29.5194  -15.5125   20.1533 C   0  0  0  0  0  0  0  0  0  0  0  0
  -22.1371  -36.9444   23.1737 C   0  0  0  0  0  0  0  0  0  0  0  0
  -25.5732  -31.1730   21.5327 C   0  0  0  0  0  0  0  0  0  0  0  0
  -23.8429  -28.9411   21.5944 C   0  0  0  0  0  0  0  0  0  0  0  0
  -21.4561  -35.6343   22.7860 C   0  0  0  0  0  0  0  0  0  0  0  0
  -30.6281  -12.2779   19.1607 C   0  0  0  0  0  0  0  0  0  0  0  0
  -21.7742  -34.5452   23.8056 C   0  0  0  0  0  0  0  0  0  0  0  0
  -27.8099  -22.3311   18.2254 C   0  0  0  0  0  0  0  0  0  0  0  0
  -28.8809  -22.5373   20.5131 C   0  0  0  0  0  0  0  0  0  0  0  0
  -29.3316  -11.4762   19.0247 C   0  0  0  0  0  0  0  0  0  0  0  0
  -27.6873  -23.8554   18.1475 C   0  0  0  0  0  0  0  0  0  0  0  0
  -28.7540  -24.0608   20.4333 C   0  0  0  0  0  0  0  0  0  0  0  0
  -30.5650  -13.2648   20.3251 C   0  0  0  0  0  0  0  0  0  0  0  0
  -28.1078  -13.3625   20.1784 C   0  0  0  0  0  0  0  0  0  0  0  0
  -23.2804  -34.2624   23.8589 C   0  0  1  0  0  0  0  0  0  0  0  0
  -27.7921  -21.8387   19.6819 C   0  0  0  0  0  0  0  0  0  0  0  0
  -24.0587  -31.4344   21.4475 C   0  0  1  0  0  0  0  0  0  0  0  0
  -28.0993  -12.4009   18.9789 C   0  0  2  0  0  0  0  0  0  0  0  0
  -28.7591  -24.5707   18.9835 C   0  0  0  0  0  0  0  0  0  0  0  0
  -17.1042  -28.7295   18.4480 C   0  0  0  0  0  0  0  0  0  0  0  0
  -22.2724  -27.9106   22.5088 C   0  0  0  0  0  0  0  0  0  0  0  0
  -20.1371  -27.0237   21.5487 C   0  0  0  0  0  0  0  0  0  0  0  0
  -20.1258  -29.1437   22.8633 C   0  0  0  0  0  0  0  0  0  0  0  0
  -19.2518  -31.0678   16.3514 C   0  0  0  0  0  0  0  0  0  0  0  0
  -31.0784  -24.9254   19.1183 C   0  0  0  0  0  0  0  0  0  0  0  0
  -28.5449  -26.0848   18.9423 C   0  0  0  0  0  0  0  0  0  1  0  0
  -21.1275  -29.1301   20.5420 C   0  0  1  0  0  0  0  0  0  0  0  0
  -18.2149  -29.7364   18.1928 C   0  0  2  0  0  0  0  0  0  0  0  0
  -20.9374  -28.3091   21.8487 C   0  0  0  0  0  0  0  0  0  0  0  0
  -29.1446  -19.8177   19.9011 N   0  0  0  0  0  0  0  0  0  0  0  0
  -26.1654  -11.2864   20.0273 N   0  0  0  0  0  0  0  0  0  0  0  0
  -26.8067  -11.6113   18.8918 N   0  0  0  0  0  0  0  0  0  0  0  0
  -23.2207  -30.2356   21.2752 N   0  0  0  0  0  0  0  0  0  0  0  0
  -29.3745  -14.1103   20.2128 N   0  0  0  0  0  0  0  0  0  0  0  0
  -26.6933  -11.4095   16.5344 N   0  0  0  0  0  0  0  0  0  0  0  0
  -22.9911   -9.2415   17.9451 N   0  0  0  0  0  0  0  0  0  0  0  0
  -28.3203  -16.2107   20.0142 N   0  0  0  0  0  0  0  0  0  0  0  0
  -23.6823  -33.4492   22.7313 N   0  0  0  0  0  0  0  0  0  0  0  0
  -19.8797  -29.5444   19.9097 N   0  0  0  0  0  0  0  0  0  0  0  0
  -18.2225  -30.0697   16.7403 N   0  3  0  0  0  0  0  0  0  0  0  0
  -24.2003   -9.8513   16.0944 O   0  0  0  0  0  0  0  0  0  0  0  0
  -23.1643  -31.3641   23.6296 O   0  0  0  0  0  0  0  0  0  0  0  0
  -21.4152  -31.4819   20.5019 O   0  0  0  0  0  0  0  0  0  0  0  0
  -20.2703  -28.5074   17.8728 O   0  0  0  0  0  0  0  0  0  0  0  0
  -30.6278  -16.0526   20.1934 O   0  0  0  0  0  0  0  0  0  0  0  0
  -21.3858   -8.5638   23.2357 O   0  0  0  0  0  0  0  0  0  0  0  0
  -27.1458  -26.3582   19.0082 O   0  0  0  0  0  0  0  0  0  1  0  0
  -30.0342  -24.2943   18.3963 O   0  0  0  0  0  0  0  0  0  0  0  0
  -21.4450   -3.1301   24.1715 F   0  0  0  0  0  0  0  0  0  0  0  0
  -25.5396  -20.1158   19.5744 F   0  0  0  0  0  0  0  0  0  0  0  0
  -21.8514   -7.5663   25.7717 F   0  0  0  0  0  0  0  0  0  0  0  0
  1  2  1  0  0  0  0
  1  5  2  0  0  0  0
  2  6  2  0  0  0  0
  3  8  2  0  0  0  0
  3 17  1  0  0  0  0
  4  9  1  0  0  0  0
  4 17  2  0  0  0  0
  5 19  1  0  0  0  0
  6 21  1  0  0  0  0
  7 10  2  0  0  0  0
  7 20  1  0  0  0  0
  8 24  1  0  0  0  0
  9 24  2  0  0  0  0
 10 25  1  0  0  0  0
 11 12  2  0  0  0  0
 11 26  1  0  0  0  0
 12 27  1  0  0  0  0
 13 22  1  0  0  0  0
 13 25  2  0  0  0  0
 14 23  2  0  0  0  0
 14 28  1  0  0  0  0
 15 27  2  0  0  0  0
 15 29  1  0  0  0  0
 16 23  1  0  0  0  0
 16 66  2  0  0  0  0
 17 30  1  0  0  0  0
 18 30  1  0  0  0  0
 18 32  2  0  0  0  0
 18 33  1  0  0  0  0
 19 21  2  0  0  0  0
 19 38  1  0  0  0  0
 20 22  2  0  0  0  0
 20 39  1  0  0  0  0
 21 51  1  0  0  0  0
 22 40  1  0  0  0  0
 23 73  1  0  0  0  0
 24 82  1  0  0  0  0
 25 83  1  0  0  0  0
 26 29  2  0  0  0  0
 26 82  1  0  0  0  0
 27 85  1  0  0  0  0
 28 31  2  0  0  0  0
 28 86  1  0  0  0  0
 29 87  1  0  0  0  0
 30 67  2  0  0  0  0
 31 52  1  0  0  0  0
 31 66  1  0  0  0  0
 32 68  1  0  0  0  0
 32 71  1  0  0  0  0
 33 72  1  0  0  0  0
 33 77  2  0  0  0  0
 34 53  1  0  0  0  0
 34 74  1  0  0  0  0
 34 78  2  0  0  0  0
 35 63  1  0  0  0  0
 35 69  1  0  0  0  0
 35 79  2  0  0  0  0
 36 64  1  0  0  0  0
 36 75  1  0  0  0  0
 36 80  2  0  0  0  0
 37 70  1  0  0  0  0
 37 73  1  0  0  0  0
 37 81  2  0  0  0  0
 38 41  1  0  0  0  0
 39 53  1  0  0  0  0
 40 69  1  0  0  0  0
 41 43  1  0  0  0  0
 42 46  1  0  0  0  0
 42 49  1  0  0  0  0
 43 51  1  0  0  0  0
 44 47  1  0  0  0  0
 44 52  1  0  0  0  0
 45 48  1  0  0  0  0
 45 52  1  0  0  0  0
 46 54  1  0  0  0  0
 47 55  1  0  0  0  0
 48 55  1  0  0  0  0
 49 70  1  0  0  0  0
 50 54  1  0  0  0  0
 50 70  1  0  0  0  0
 51 74  1  0  0  0  0
 53 69  1  0  0  0  0
 54 68  1  0  0  0  0
 55 62  1  0  0  0  0
 55 84  1  0  0  0  0
 56 64  1  0  0  0  0
 57 65  1  0  0  0  0
 58 65  1  0  0  0  0
 59 65  1  0  0  0  0
 60 76  1  0  0  0  0
 61 84  1  0  0  0  0
 62 83  1  0  0  0  0
 63 65  1  0  0  0  0
 63 75  1  0  0  0  0
 64 76  1  0  0  0  0
 67 68  1  0  0  0  0
M  CHG  1  76   1
M  ISO  4  37 100  62 101  73 100  83 101
M  END
> <Batch ID>
0164

> <Smiles>
CNC(C)C(=O)NC(C(=O)N1Cc2cc([101O:1][101CH2:1]C3(OC)CCC(c4ncc([100NH:0][100C:0](=O)N5CCCC(n6nc(-c7ccc(Oc8ccc(F)cc8F)cc7)c(C(N)=O)c6N)C5)cc4F)CC3)ccc2CC1C(=O)NC1CCCc2ccccc21)C(C)(C)C

> <Shape>
0.357

> <Color>
0.118

> <Negative vol penalty>
0.000

$$$$

  -OEChem-04052304023D

 87 95  0     1  0  0  0  0  0999 V2000
  -23.7148   -7.8661   21.0317 C   0  0  0  0  0  0  0  0  0  0  0  0
  -24.4579   -8.9654   20.6134 C   0  0  0  0  0  0  0  0  0  0  0  0
  -21.9264  -26.4802   23.9541 C   0  0  0  0  0  0  0  0  0  0  0  0
  -22.9432  -26.9908   21.8228 C   0  0  0  0  0  0  0  0  0  0  0  0
  -22.3810   -8.0286   21.4038 C   0  0  0  0  0  0  0  0  0  0  0  0
  -23.8672  -10.2276   20.5660 C   0  0  0  0  0  0  0  0  0  0  0  0
  -26.5631  -15.6001   21.7383 C   0  0  0  0  0  0  0  0  0  0  0  0
  -21.1839  -27.6588   23.8823 C   0  0  0  0  0  0  0  0  0  0  0  0
  -22.2007  -28.1695   21.7510 C   0  0  0  0  0  0  0  0  0  0  0  0
  -27.1025  -16.5802   20.9063 C   0  0  0  0  0  0  0  0  0  0  0  0
  -18.7532  -30.3540   24.0896 C   0  0  0  0  0  0  0  0  0  0  0  0
  -17.3995  -30.2887   24.4192 C   0  0  0  0  0  0  0  0  0  0  0  0
  -25.0269  -17.8049   21.0133 C   0  0  0  0  0  0  0  0  0  0  0  0
  -31.2289  -25.1358   19.2228 C   0  0  0  0  0  0  0  0  0  0  0  0
  -30.2748  -22.9835   19.7651 C   0  0  0  0  0  0  0  0  0  0  0  0
  -30.3047  -23.7489   17.4737 C   0  0  0  0  0  0  0  0  0  0  0  0
  -17.0435  -28.6920   22.6413 C   0  0  0  0  0  0  0  0  0  0  0  0
  -22.8061  -26.1462   22.9244 C   0  0  0  0  0  0  0  0  0  0  0  0
  -23.2026  -23.6594   22.5168 C   0  0  0  0  0  0  0  0  0  0  0  0
  -21.7765   -9.2951   21.3702 C   0  0  0  0  0  0  0  0  0  0  0  0
  -25.2456  -15.7098   22.2060 C   0  0  0  0  0  0  0  0  0  0  0  0
  -22.5237  -10.4070   20.9368 C   0  0  0  0  0  0  0  0  0  0  0  0
  -24.4740  -16.8261   21.8532 C   0  0  0  0  0  0  0  0  0  0  0  0
  -30.9009  -24.1633   20.1674 C   0  0  0  0  0  0  0  0  0  0  0  0
  -30.9308  -24.9287   17.8760 C   0  0  0  0  0  0  0  0  0  0  0  0
  -29.9767  -22.7763   18.4183 C   0  0  0  0  0  0  0  0  0  0  0  0
  -21.3211  -28.5035   22.7808 C   0  0  0  0  0  0  0  0  0  0  0  0
  -26.3334  -17.6814   20.5413 C   0  0  0  0  0  0  0  0  0  0  0  0
  -19.2521  -29.5882   23.0357 C   0  0  0  0  0  0  0  0  0  0  0  0
  -16.5446  -29.4577   23.6951 C   0  0  0  0  0  0  0  0  0  0  0  0
  -18.3973  -28.7572   22.3117 C   0  0  0  0  0  0  0  0  0  0  0  0
  -23.5738  -24.9291   22.9983 C   0  0  0  0  0  0  0  0  0  0  0  0
  -24.2667  -22.8491   22.8294 C   0  0  0  0  0  0  0  0  0  0  0  0
  -22.0033  -23.2491   21.8468 C   0  0  0  0  0  0  0  0  0  0  0  0
  -22.6000  -13.9773   21.8852 C   0  0  0  0  0  0  0  0  0  0  0  0
  -21.4156  -16.1008   24.0323 C   0  0  0  0  0  0  0  0  0  0  0  0
  -28.9470  -20.5117   18.8120 C   0  0  0  0  0  0  0  0  0  0  0  0
  -21.5978  -19.2040   25.4409 C   0  0  0  0  0  0  0  0  0  0  0  0
  -30.0804  -23.9334   23.7655 C   0  0  0  0  0  0  0  0  0  0  0  0
  -20.3183   -9.4134   21.7367 C   0  0  0  0  0  0  0  0  0  0  0  0
  -24.6875  -14.6574   23.1244 C   0  0  0  0  0  0  0  0  0  0  0  0
  -23.0612  -17.0010   22.3450 C   0  0  0  0  0  0  0  0  0  0  0  0
  -19.8747  -10.8472   22.0156 C   0  0  0  0  0  0  0  0  0  0  0  0
  -27.8035  -22.3761   26.0166 C   0  0  0  0  0  0  0  0  0  0  0  0
  -20.3925  -11.7867   20.9311 C   0  0  0  0  0  0  0  0  0  0  0  0
  -26.4278  -22.7393   25.4548 C   0  0  0  0  0  0  0  0  0  0  0  0
  -28.8021  -23.5189   25.8465 C   0  0  0  0  0  0  0  0  0  0  0  0
  -27.5570  -24.3904   23.9065 C   0  0  0  0  0  0  0  0  0  0  0  0
  -21.9255  -11.7964   20.8955 C   0  0  1  0  0  0  0  0  0  0  0  0
  -23.1626  -14.6128   23.1251 C   0  0  1  0  0  0  0  0  0  0  0  0
  -26.5309  -23.2485   24.0046 C   0  0  2  0  0  0  0  0  0  0  0  0
  -20.4713  -20.6641   27.1428 C   0  0  0  0  0  0  0  0  0  0  0  0
  -19.1307  -16.6139   22.0763 C   0  0  0  0  0  0  0  0  0  0  0  0
  -18.5961  -18.6984   23.3558 C   0  0  0  0  0  0  0  0  0  0  0  0
  -18.4386  -16.4748   24.4755 C   0  0  0  0  0  0  0  0  0  0  0  0
  -24.0581  -19.3969   27.0744 C   0  0  0  0  0  0  0  0  0  0  0  0
  -31.2195  -24.3850   21.6074 C   0  0  0  0  0  0  0  0  0  0  0  0
  -28.2985  -19.4210   17.9670 C   0  0  0  0  0  0  0  0  0  0  0  0
  -27.8434  -18.2223   18.7854 C   0  0  0  0  0  0  0  0  0  1  0  0
  -20.7156  -17.4353   23.9416 C   0  0  1  0  0  0  0  0  0  0  0  0
  -21.5806  -19.6549   26.8903 C   0  0  2  0  0  0  0  0  0  0  0  0
  -31.2817  -25.9686   16.8662 C   0  0  0  0  0  0  0  0  0  0  0  0
  -19.2462  -17.3016   23.4513 C   0  0  0  0  0  0  0  0  0  0  0  0
  -24.7794  -24.9304   23.5732 N   0  0  0  0  0  0  0  0  0  0  0  0
  -25.1750  -23.6515   23.4551 N   0  0  0  0  0  0  0  0  0  0  0  0
  -22.5582  -15.9420   23.2356 N   0  0  0  0  0  0  0  0  0  0  0  0
  -28.8533  -23.9541   24.4487 N   0  0  0  0  0  0  0  0  0  0  0  0
  -24.5046  -21.5357   22.6274 N   0  0  0  0  0  0  0  0  0  0  0  0
  -21.0114  -24.2092   21.6045 N   0  0  0  0  0  0  0  0  0  0  0  0
  -29.3415  -21.5793   18.0101 N   0  0  0  0  0  0  0  0  0  0  0  0
  -22.4510  -12.6064   21.9736 N   0  0  0  0  0  0  0  0  0  0  0  0
  -20.8534  -18.0586   25.2534 N   0  0  0  0  0  0  0  0  0  0  0  0
  -30.0394  -24.3558   22.4424 N   0  0  0  0  0  0  0  0  0  0  0  0
  -22.8813  -20.2860   27.2519 N   0  3  0  0  0  0  0  0  0  0  0  0
  -21.8097  -22.0626   21.4887 O   0  0  0  0  0  0  0  0  0  0  0  0
  -22.3203  -14.6791   20.9203 O   0  0  0  0  0  0  0  0  0  0  0  0
  -20.9692  -15.2339   24.7879 O   0  0  0  0  0  0  0  0  0  0  0  0
  -29.0761  -20.4060   20.0271 O   0  0  0  0  0  0  0  0  0  0  0  0
  -22.2073  -19.8096   24.5621 O   0  0  0  0  0  0  0  0  0  0  0  0
  -31.1334  -23.5607   24.2938 O   0  0  0  0  0  0  0  0  0  0  0  0
  -20.5965  -29.6535   22.7102 O   0  0  0  0  0  0  0  0  0  0  0  0
  -26.8572  -18.6391   19.7288 O   0  0  0  0  0  0  0  0  0  1  0  0
  -15.2449  -29.3940   24.0128 F   0  0  0  0  0  0  0  0  0  0  0  0
  -18.8710  -28.0184   21.2990 F   0  0  0  0  0  0  0  0  0  0  0  0
  -31.8893  -27.0686   17.4016 F   0  0  0  0  0  0  0  0  0  0  0  0
  -32.1377  -25.5245   15.8989 F   0  0  0  0  0  0  0  0  0  0  0  0
  -30.1893  -26.4424   16.1989 F   0  0  0  0  0  0  0  0  0  0  0  0
  1  2  1  0  0  0  0
  1  5  2  0  0  0  0
  2  6  2  0  0  0  0
  3  8  2  0  0  0  0
  3 18  1  0  0  0  0
  4  9  1  0  0  0  0
  4 18  2  0  0  0  0
  5 20  1  0  0  0  0
  6 22  1  0  0  0  0
  7 10  2  0  0  0  0
  7 21  1  0  0  0  0
  8 27  1  0  0  0  0
  9 27  2  0  0  0  0
 10 28  1  0  0  0  0
 11 12  2  0  0  0  0
 11 29  1  0  0  0  0
 12 30  1  0  0  0  0
 13 23  1  0  0  0  0
 13 28  2  0  0  0  0
 14 24  1  0  0  0  0
 14 25  2  0  0  0  0
 15 24  2  0  0  0  0
 15 26  1  0  0  0  0
 16 25  1  0  0  0  0
 16 26  2  0  0  0  0
 17 30  2  0  0  0  0
 17 31  1  0  0  0  0
 18 32  1  0  0  0  0
 19 32  1  0  0  0  0
 19 33  2  0  0  0  0
 19 34  1  0  0  0  0
 20 22  2  0  0  0  0
 20 40  1  0  0  0  0
 21 23  2  0  0  0  0
 21 41  1  0  0  0  0
 22 49  1  0  0  0  0
 23 42  1  0  0  0  0
 24 57  1  0  0  0  0
 25 62  1  0  0  0  0
 26 70  1  0  0  0  0
 27 81  1  0  0  0  0
 28 82  1  0  0  0  0
 29 31  2  0  0  0  0
 29 81  1  0  0  0  0
 30 83  1  0  0  0  0
 31 84  1  0  0  0  0
 32 64  2  0  0  0  0
 33 65  1  0  0  0  0
 33 68  1  0  0  0  0
 34 69  1  0  0  0  0
 34 75  2  0  0  0  0
 35 50  1  0  0  0  0
 35 71  1  0  0  0  0
 35 76  2  0  0  0  0
 36 60  1  0  0  0  0
 36 66  1  0  0  0  0
 36 77  2  0  0  0  0
 37 58  1  0  0  0  0
 37 70  1  0  0  0  0
 37 78  2  0  0  0  0
 38 61  1  0  0  0  0
 38 72  1  0  0  0  0
 38 79  2  0  0  0  0
 39 67  1  0  0  0  0
 39 73  1  0  0  0  0
 39 80  2  0  0  0  0
 40 43  1  0  0  0  0
 41 50  1  0  0  0  0
 42 66  1  0  0  0  0
 43 45  1  0  0  0  0
 44 46  1  0  0  0  0
 44 47  1  0  0  0  0
 45 49  1  0  0  0  0
 46 51  1  0  0  0  0
 47 67  1  0  0  0  0
 48 51  1  0  0  0  0
 48 67  1  0  0  0  0
 49 71  1  0  0  0  0
 50 66  1  0  0  0  0
 51 65  1  0  0  0  0
 52 61  1  0  0  0  0
 53 63  1  0  0  0  0
 54 63  1  0  0  0  0
 55 63  1  0  0  0  0
 56 74  1  0  0  0  0
 57 73  1  0  0  0  0
 58 59  1  0  0  0  0
 59 82  1  0  0  0  0
 60 63  1  0  0  0  0
 60 72  1  0  0  0  0
 61 74  1  0  0  0  0
 62 85  1  0  0  0  0
 62 86  1  0  0  0  0
 62 87  1  0  0  0  0
 64 65  1  0  0  0  0
M  CHG  1  74   1
M  ISO  4  39 100  59 101  73 100  82 101
M  END
> <Batch ID>
0164

> <Smiles>
CNC(C)C(=O)NC(C(=O)N1Cc2cc([101O:1][101CH2:1]CC(=O)Nc3cc(C[100NH:0][100C:0](=O)N4CCCC(n5nc(-c6ccc(Oc7ccc(F)cc7F)cc6)c(C(N)=O)c5N)C4)cc(C(F)(F)F)c3)ccc2CC1C(=O)NC1CCCc2ccccc21)C(C)(C)C

> <Shape>
0.174

> <Color>
0.089

> <Negative vol penalty>
0.000

$$$$

  -OEChem-04052304023D

 84 92  0     1  0  0  0  0  0999 V2000
  -22.8891  -23.7639   18.4504 C   0  0  0  0  0  0  0  0  0  0  0  0
  -24.0252  -23.0776   18.8672 C   0  0  0  0  0  0  0  0  0  0  0  0
  -22.9506  -28.2480   20.0389 C   0  0  0  0  0  0  0  0  0  0  0  0
  -22.8415  -27.2004   22.2132 C   0  0  0  0  0  0  0  0  0  0  0  0
  -21.6258  -23.3183   18.8371 C   0  0  0  0  0  0  0  0  0  0  0  0
  -23.8987  -21.9459   19.6720 C   0  0  0  0  0  0  0  0  0  0  0  0
  -26.8708  -18.1383   18.1508 C   0  0  0  0  0  0  0  0  0  0  0  0
  -21.5575  -28.2499   19.9699 C   0  0  0  0  0  0  0  0  0  0  0  0
  -21.4484  -27.2023   22.1442 C   0  0  0  0  0  0  0  0  0  0  0  0
  -28.2228  -18.2143   18.4827 C   0  0  0  0  0  0  0  0  0  0  0  0
  -18.9370  -29.4191   22.5910 C   0  0  0  0  0  0  0  0  0  0  0  0
  -18.2342  -29.8295   23.7238 C   0  0  0  0  0  0  0  0  0  0  0  0
  -27.8503  -16.6986   20.3220 C   0  0  0  0  0  0  0  0  0  0  0  0
  -17.1528  -27.6718   23.8343 C   0  0  0  0  0  0  0  0  0  0  0  0
  -23.5927  -27.7232   21.1606 C   0  0  0  0  0  0  0  0  0  0  0  0
  -25.8871  -28.8377   21.1903 C   0  0  0  0  0  0  0  0  0  0  0  0
  -21.4833  -22.1749   19.6390 C   0  0  0  0  0  0  0  0  0  0  0  0
  -25.9948  -17.3492   18.9100 C   0  0  0  0  0  0  0  0  0  0  0  0
  -22.6324  -21.4854   20.0708 C   0  0  0  0  0  0  0  0  0  0  0  0
  -26.4881  -16.6124   19.9962 C   0  0  0  0  0  0  0  0  0  0  0  0
  -20.8064  -27.7271   21.0225 C   0  0  0  0  0  0  0  0  0  0  0  0
  -28.7122  -17.4967   19.5701 C   0  0  0  0  0  0  0  0  0  0  0  0
  -18.7478  -28.1352   22.0798 C   0  0  0  0  0  0  0  0  0  0  0  0
  -17.3420  -28.9558   24.3455 C   0  0  0  0  0  0  0  0  0  0  0  0
  -17.8556  -27.2615   22.7015 C   0  0  0  0  0  0  0  0  0  0  0  0
  -25.0317  -27.7204   21.2322 C   0  0  0  0  0  0  0  0  0  0  0  0
  -27.1499  -28.3074   21.2932 C   0  0  0  0  0  0  0  0  0  0  0  0
  -32.6046  -20.2392   20.4469 C   0  0  0  0  0  0  0  0  0  0  0  0
  -32.6714  -21.1803   21.4109 C   0  0  0  0  0  0  0  0  0  0  0  0
  -25.5687  -30.2304   21.0693 C   0  0  0  0  0  0  0  0  0  0  0  0
  -31.8103  -19.0091   20.6023 C   0  0  0  0  0  0  0  0  0  0  0  0
  -32.5134  -23.5531   21.0541 C   0  0  0  0  0  0  0  0  0  0  0  0
  -23.4152  -17.9252   20.6756 C   0  0  0  0  0  0  0  0  0  0  0  0
  -23.2972  -14.6888   20.8601 C   0  0  0  0  0  0  0  0  0  0  0  0
  -24.9619  -11.7145   20.6887 C   0  0  0  0  0  0  0  0  0  0  0  0
  -30.8964  -24.5758   19.7769 C   0  0  0  0  0  0  0  0  0  0  0  0
  -20.0994  -21.7589   20.0706 C   0  0  0  0  0  0  0  0  0  0  0  0
  -24.5443  -17.2569   18.5228 C   0  0  0  0  0  0  0  0  0  0  0  0
  -25.5931  -15.7346   20.8309 C   0  0  0  0  0  0  0  0  0  0  0  0
  -33.3344  -20.3515   19.1329 C   0  0  0  0  0  0  0  0  0  0  0  0
  -20.0336  -20.3341   20.6146 C   0  0  0  0  0  0  0  0  0  0  0  0
  -33.9204  -21.7366   18.8524 C   0  0  0  0  0  0  0  0  0  0  0  0
  -28.6815  -23.6329   22.4576 C   0  0  0  0  0  0  0  0  0  0  0  0
  -21.1686  -20.0872   21.6033 C   0  0  0  0  0  0  0  0  0  0  0  0
  -27.5918  -24.7013   22.3587 C   0  0  0  0  0  0  0  0  0  0  0  0
  -29.1917  -23.2263   21.0780 C   0  0  0  0  0  0  0  0  0  0  0  0
  -28.5887  -25.4416   20.1493 C   0  0  0  0  0  0  0  0  0  0  0  0
  -22.5349  -20.2392   20.9239 C   0  0  1  0  0  0  0  0  0  0  0  0
  -33.5018  -22.4329   21.2530 C   0  0  2  0  0  0  0  0  0  0  0  0
  -23.6441  -16.8263   19.6768 C   0  0  1  0  0  0  0  0  0  0  0  0
  -34.5402  -22.3415   20.1168 C   0  0  2  0  0  0  0  0  0  0  0  0
  -28.0643  -25.9034   21.5199 C   0  0  1  0  0  0  0  0  0  0  0  0
  -32.4709  -24.6337   22.1077 C   0  0  0  0  0  0  0  0  0  0  0  0
  -35.2115  -23.6824   19.8173 C   0  0  0  0  0  0  0  0  0  0  0  0
  -24.6054   -9.2414   20.9210 C   0  0  0  0  0  0  0  0  0  0  0  0
  -23.1995  -14.9904   23.8948 C   0  0  0  0  0  0  0  0  0  0  0  0
  -23.7993  -12.5671   24.0851 C   0  0  0  0  0  0  0  0  0  0  0  0
  -21.6713  -13.2396   22.9707 C   0  0  0  0  0  0  0  0  0  0  0  0
  -25.7924  -11.2149   17.8924 C   0  0  0  0  0  0  0  0  0  0  0  0
  -30.7093  -18.7878   19.5925 C   0  0  0  0  0  0  0  0  0  1  0  0
  -23.8706  -13.6496   21.7929 C   0  0  1  0  0  0  0  0  0  0  0  0
  -24.6410  -10.4210   19.9619 C   0  0  2  0  0  0  0  0  0  0  0  0
  -23.1520  -13.6296   23.1715 C   0  0  0  0  0  0  0  0  0  0  0  0
  -25.6951  -26.5674   21.3522 N   0  0  0  0  0  0  0  0  0  0  0  0
  -31.7754  -23.5353   19.9853 N   0  0  0  0  0  0  0  0  0  0  0  0
  -26.9808  -26.9573   21.3865 N   0  0  0  0  0  0  0  0  0  0  0  0
  -24.1814  -15.6823   20.4162 N   0  0  0  0  0  0  0  0  0  0  0  0
  -29.6103  -24.4058   20.3143 N   0  0  0  0  0  0  0  0  0  0  0  0
  -28.3774  -28.8689   21.3120 N   0  0  0  0  0  0  0  0  0  0  0  0
  -25.3593  -30.9721   22.2399 N   0  0  0  0  0  0  0  0  0  0  0  0
  -22.8427  -19.0628   20.1391 N   0  0  0  0  0  0  0  0  0  0  0  0
  -23.8180  -12.3816   21.0733 N   0  0  0  0  0  0  0  0  0  0  0  0
  -25.6669  -10.1461   18.9165 N   0  3  0  0  0  0  0  0  0  0  0  0
  -25.4565  -30.7965   19.9556 O   0  0  0  0  0  0  0  0  0  0  0  0
  -32.0592  -18.2283   21.5163 O   0  0  0  0  0  0  0  0  0  0  0  0
  -23.7330  -17.7533   21.8465 O   0  0  0  0  0  0  0  0  0  0  0  0
  -22.1104  -14.6175   20.5315 O   0  0  0  0  0  0  0  0  0  0  0  0
  -26.1122  -12.0933   20.8980 O   0  0  0  0  0  0  0  0  0  0  0  0
  -31.2179  -25.5797   19.1390 O   0  0  0  0  0  0  0  0  0  0  0  0
  -32.0396  -21.1082   22.6366 O   0  0  0  0  0  0  0  0  0  0  0  0
  -19.4469  -27.7290   20.9556 O   0  0  0  0  0  0  0  0  0  0  0  0
  -30.0313  -17.5695   19.8966 O   0  0  0  0  0  0  0  0  0  1  0  0
  -16.6683  -29.3494   25.4342 F   0  0  0  0  0  0  0  0  0  0  0  0
  -17.6705  -26.0264   22.2157 F   0  0  0  0  0  0  0  0  0  0  0  0
  1  2  1  0  0  0  0
  1  5  2  0  0  0  0
  2  6  2  0  0  0  0
  3  8  2  0  0  0  0
  3 15  1  0  0  0  0
  4  9  1  0  0  0  0
  4 15  2  0  0  0  0
  5 17  1  0  0  0  0
  6 19  1  0  0  0  0
  7 10  2  0  0  0  0
  7 18  1  0  0  0  0
  8 21  1  0  0  0  0
  9 21  2  0  0  0  0
 10 22  1  0  0  0  0
 11 12  2  0  0  0  0
 11 23  1  0  0  0  0
 12 24  1  0  0  0  0
 13 20  1  0  0  0  0
 13 22  2  0  0  0  0
 14 24  2  0  0  0  0
 14 25  1  0  0  0  0
 15 26  1  0  0  0  0
 16 26  1  0  0  0  0
 16 27  2  0  0  0  0
 16 30  1  0  0  0  0
 17 19  2  0  0  0  0
 17 37  1  0  0  0  0
 18 20  2  0  0  0  0
 18 38  1  0  0  0  0
 19 48  1  0  0  0  0
 20 39  1  0  0  0  0
 21 81  1  0  0  0  0
 22 82  1  0  0  0  0
 23 25  2  0  0  0  0
 23 81  1  0  0  0  0
 24 83  1  0  0  0  0
 25 84  1  0  0  0  0
 26 64  2  0  0  0  0
 27 66  1  0  0  0  0
 27 69  1  0  0  0  0
 28 29  2  0  0  0  0
 28 31  1  0  0  0  0
 28 40  1  0  0  0  0
 29 49  1  0  0  0  0
 29 80  1  0  0  0  0
 30 70  1  0  0  0  0
 30 74  2  0  0  0  0
 31 60  1  0  0  0  0
 31 75  2  0  0  0  0
 32 49  1  0  0  0  0
 32 53  1  0  0  0  0
 32 65  2  0  0  0  0
 33 50  1  0  0  0  0
 33 71  1  0  0  0  0
 33 76  2  0  0  0  0
 34 61  1  0  0  0  0
 34 67  1  0  0  0  0
 34 77  2  0  0  0  0
 35 62  1  0  0  0  0
 35 72  1  0  0  0  0
 35 78  2  0  0  0  0
 36 65  1  0  0  0  0
 36 68  1  0  0  0  0
 36 79  2  0  0  0  0
 37 41  1  0  0  0  0
 38 50  1  0  0  0  0
 39 67  1  0  0  0  0
 40 42  1  0  0  0  0
 41 44  1  0  0  0  0
 42 51  1  0  0  0  0
 43 45  1  0  0  0  0
 43 46  1  0  0  0  0
 44 48  1  0  0  0  0
 45 52  1  0  0  0  0
 46 68  1  0  0  0  0
 47 52  1  0  0  0  0
 47 68  1  0  0  0  0
 48 71  1  0  0  0  0
 49 51  1  0  0  0  0
 50 67  1  0  0  0  0
 51 54  1  0  0  0  0
 52 66  1  0  0  0  0
 55 62  1  0  0  0  0
 56 63  1  0  0  0  0
 57 63  1  0  0  0  0
 58 63  1  0  0  0  0
 59 73  1  0  0  0  0
 60 82  1  0  0  0  0
 61 63  1  0  0  0  0
 61 72  1  0  0  0  0
 62 73  1  0  0  0  0
 64 66  1  0  0  0  0
M  CHG  1  73   1
M  ISO  4  36 100  60 101  65 100  82 101
M  END
> <Batch ID>
0164

> <Smiles>
CNC(C)C(=O)NC(C(=O)N1Cc2cc([101O:1][101CH2:1]C(=O)C3CCC(C)C(=C(C)[100NH:0][100C:0](=O)N4CCCC(n5nc(-c6ccc(Oc7ccc(F)cc7F)cc6)c(C(N)=O)c5N)C4)C3=O)ccc2CC1C(=O)NC1CCCc2ccccc21)C(C)(C)C

> <Shape>
0.202

> <Color>
0.074

> <Negative vol penalty>
0.000

$$$$

  -OEChem-04052304023D

 89 98  0     1  0  0  0  0  0999 V2000
  -26.6530  -39.1324   25.5753 C   0  0  0  0  0  0  0  0  0  0  0  0
  -27.6144  -38.2829   25.0373 C   0  0  0  0  0  0  0  0  0  0  0  0
  -24.0702   -9.4556   20.5600 C   0  0  0  0  0  0  0  0  0  0  0  0
  -24.7566  -10.0730   22.7926 C   0  0  0  0  0  0  0  0  0  0  0  0
  -25.4734  -38.6053   26.0993 C   0  0  0  0  0  0  0  0  0  0  0  0
  -27.3972  -36.9055   25.0241 C   0  0  0  0  0  0  0  0  0  0  0  0
  -28.8082  -31.0684   21.1185 C   0  0  0  0  0  0  0  0  0  0  0  0
  -23.7190   -8.1861   21.0190 C   0  0  0  0  0  0  0  0  0  0  0  0
  -24.4053   -8.8035   23.2516 C   0  0  0  0  0  0  0  0  0  0  0  0
  -29.3457  -29.7887   21.2497 C   0  0  0  0  0  0  0  0  0  0  0  0
  -22.3045   -4.9020   21.6735 C   0  0  0  0  0  0  0  0  0  0  0  0
  -21.0860   -4.3728   21.2483 C   0  0  0  0  0  0  0  0  0  0  0  0
  -27.2359  -28.9973   22.1109 C   0  0  0  0  0  0  0  0  0  0  0  0
  -27.9413  -19.3362   21.7928 C   0  0  0  0  0  0  0  0  0  0  0  0
  -19.9246   -6.2338   22.2606 C   0  0  0  0  0  0  0  0  0  0  0  0
  -24.5890  -10.3990   21.4468 C   0  0  0  0  0  0  0  0  0  0  0  0
  -24.1290  -12.8504   20.9112 C   0  0  0  0  0  0  0  0  0  0  0  0
  -25.2374  -37.2216   26.0838 C   0  0  0  0  0  0  0  0  0  0  0  0
  -27.4815  -31.3250   21.4934 C   0  0  0  0  0  0  0  0  0  0  0  0
  -26.2139  -36.3593   25.5497 C   0  0  0  0  0  0  0  0  0  0  0  0
  -26.6832  -30.2806   21.9811 C   0  0  0  0  0  0  0  0  0  0  0  0
  -28.0147  -20.7035   21.9927 C   0  0  0  0  0  0  0  0  0  0  0  0
  -23.8865   -7.8601   22.3648 C   0  0  0  0  0  0  0  0  0  0  0  0
  -28.5605  -28.7536   21.7487 C   0  0  0  0  0  0  0  0  0  0  0  0
  -22.3331   -6.0971   22.3923 C   0  0  0  0  0  0  0  0  0  0  0  0
  -19.8960   -5.0387   21.5418 C   0  0  0  0  0  0  0  0  0  0  0  0
  -21.1431   -6.7630   22.6858 C   0  0  0  0  0  0  0  0  0  0  0  0
  -24.9526  -11.7104   20.9731 C   0  0  0  0  0  0  0  0  0  0  0  0
  -29.1015  -21.3754   21.4703 C   0  0  0  0  0  0  0  0  0  0  0  0
  -28.9593  -18.7313   21.0833 C   0  0  0  0  0  0  0  0  0  0  0  0
  -24.9385  -13.8310   20.3921 C   0  0  0  0  0  0  0  0  0  0  0  0
  -22.7551  -13.0088   21.2893 C   0  0  0  0  0  0  0  0  0  0  0  0
  -26.0815  -33.1917   23.6519 C   0  0  0  0  0  0  0  0  0  0  0  0
  -23.3656  -32.1709   22.2013 C   0  0  0  0  0  0  0  0  0  0  0  0
  -21.8027  -29.7845   20.3280 C   0  0  0  0  0  0  0  0  0  0  0  0
  -29.8038  -16.5313   20.1927 C   0  0  0  0  0  0  0  0  0  0  0  0
  -23.9679  -36.6947   26.7047 C   0  0  0  0  0  0  0  0  0  0  0  0
  -26.9085  -32.7050   21.3205 C   0  0  0  0  0  0  0  0  0  0  0  0
  -25.2470  -30.4993   22.3786 C   0  0  0  0  0  0  0  0  0  0  0  0
  -23.6506  -35.2539   26.3127 C   0  0  0  0  0  0  0  0  0  0  0  0
  -29.5314  -13.5375   18.2849 C   0  0  0  0  0  0  0  0  0  0  0  0
  -24.8947  -34.3802   26.4378 C   0  0  0  0  0  0  0  0  0  0  0  0
  -28.4934  -23.6175   20.5304 C   0  0  0  0  0  0  0  0  0  0  0  0
  -28.2482  -12.8891   18.8091 C   0  0  0  0  0  0  0  0  0  0  0  0
  -28.5943  -25.1358   20.6774 C   0  0  0  0  0  0  0  0  0  0  0  0
  -30.8116  -24.8805   21.8558 C   0  0  0  0  0  0  0  0  0  0  0  0
  -30.3121  -14.2320   19.3993 C   0  0  0  0  0  0  0  0  0  0  0  0
  -28.2545  -14.5464   20.7170 C   0  0  0  0  0  0  0  0  0  0  0  0
  -26.0040  -34.8616   25.4947 C   0  0  1  0  0  0  0  0  0  0  0  0
  -29.2543  -22.8786   21.6476 C   0  0  2  0  0  0  0  0  0  0  0  0
  -25.7013  -32.9670   22.2157 C   0  0  1  0  0  0  0  0  0  0  0  0
  -30.7322  -23.3453   21.7259 C   0  0  2  0  0  0  0  0  0  0  0  0
  -27.4013  -13.8900   19.6193 C   0  0  2  0  0  0  0  0  0  0  0  0
  -30.0497  -25.6137   20.7417 C   0  0  2  0  0  0  0  0  0  0  0  0
  -31.4758  -22.7032   22.9042 C   0  0  0  0  0  0  0  0  0  0  0  0
  -32.6280  -25.4218   18.1235 C   0  0  0  0  0  0  0  0  0  0  0  0
  -19.5713  -29.2085   19.3348 C   0  0  0  0  0  0  0  0  0  0  0  0
  -22.3594  -31.3292   24.9562 C   0  0  0  0  0  0  0  0  0  0  0  0
  -20.6149  -29.9404   23.8178 C   0  0  0  0  0  0  0  0  0  0  0  0
  -20.6374  -32.4149   23.5035 C   0  0  0  0  0  0  0  0  0  0  0  0
  -22.8855  -29.8343   17.5741 C   0  0  0  0  0  0  0  0  0  0  0  0
  -30.1041  -27.1276   20.9554 C   0  0  0  0  0  0  0  0  0  1  0  0
  -32.0233  -25.7463   19.4728 C   0  0  0  0  0  0  0  0  0  0  0  0
  -22.4221  -31.0085   22.3951 C   0  0  1  0  0  0  0  0  0  0  0  0
  -20.9115  -29.8889   19.1035 C   0  0  2  0  0  0  0  0  0  0  0  0
  -21.5361  -31.1692   23.6625 C   0  0  0  0  0  0  0  0  0  0  0  0
  -26.1903  -11.9437   20.5286 N   0  0  0  0  0  0  0  0  0  0  0  0
  -30.0834  -20.7577   20.7800 N   0  0  0  0  0  0  0  0  0  0  0  0
  -30.0110  -19.4139   20.5832 N   0  0  0  0  0  0  0  0  0  0  0  0
  -26.1504  -13.2416   20.1824 N   0  0  0  0  0  0  0  0  0  0  0  0
  -24.7344  -31.8675   22.1969 N   0  0  0  0  0  0  0  0  0  0  0  0
  -29.4471  -15.1681   20.1206 N   0  0  0  0  0  0  0  0  0  0  0  0
  -27.0040  -21.3697   22.7085 N   0  0  0  0  0  0  0  0  0  0  0  0
  -24.7247  -15.1314   20.0990 N   0  0  0  0  0  0  0  0  0  0  0  0
  -22.0719  -11.8992   21.8054 N   0  0  0  0  0  0  0  0  0  0  0  0
  -28.8887  -17.3314   20.8761 N   0  0  0  0  0  0  0  0  0  0  0  0
  -25.7332  -34.4375   24.1378 N   0  0  0  0  0  0  0  0  0  0  0  0
  -21.6693  -30.8822   21.1518 N   0  0  0  0  0  0  0  0  0  0  0  0
  -21.5677  -29.2476   17.9291 N   0  3  0  0  0  0  0  0  0  0  0  0
  -22.1464  -14.0977   21.1577 O   0  0  0  0  0  0  0  0  0  0  0  0
  -26.6476  -32.3002   24.2736 O   0  0  0  0  0  0  0  0  0  0  0  0
  -22.9048  -33.3054   22.0520 O   0  0  0  0  0  0  0  0  0  0  0  0
  -22.5404  -28.8236   20.5350 O   0  0  0  0  0  0  0  0  0  0  0  0
  -30.8309  -16.9624   19.6623 O   0  0  0  0  0  0  0  0  0  0  0  0
  -23.5437   -6.6215   22.8131 O   0  0  0  0  0  0  0  0  0  0  0  0
  -29.0829  -27.5038   21.8784 O   0  0  0  0  0  0  0  0  0  1  0  0
  -30.6684  -25.3284   19.4842 O   0  0  0  0  0  0  0  0  0  0  0  0
  -18.7261   -4.5312   21.1321 F   0  0  0  0  0  0  0  0  0  0  0  0
  -21.1643   -7.9121   23.3750 F   0  0  0  0  0  0  0  0  0  0  0  0
  1  2  1  0  0  0  0
  1  5  2  0  0  0  0
  2  6  2  0  0  0  0
  3  8  2  0  0  0  0
  3 16  1  0  0  0  0
  4  9  1  0  0  0  0
  4 16  2  0  0  0  0
  5 18  1  0  0  0  0
  6 20  1  0  0  0  0
  7 10  2  0  0  0  0
  7 19  1  0  0  0  0
  8 23  1  0  0  0  0
  9 23  2  0  0  0  0
 10 24  1  0  0  0  0
 11 12  2  0  0  0  0
 11 25  1  0  0  0  0
 12 26  1  0  0  0  0
 13 21  1  0  0  0  0
 13 24  2  0  0  0  0
 14 22  1  0  0  0  0
 14 30  2  0  0  0  0
 15 26  2  0  0  0  0
 15 27  1  0  0  0  0
 16 28  1  0  0  0  0
 17 28  1  0  0  0  0
 17 31  2  0  0  0  0
 17 32  1  0  0  0  0
 18 20  2  0  0  0  0
 18 37  1  0  0  0  0
 19 21  2  0  0  0  0
 19 38  1  0  0  0  0
 20 49  1  0  0  0  0
 21 39  1  0  0  0  0
 22 29  2  0  0  0  0
 22 73  1  0  0  0  0
 23 85  1  0  0  0  0
 24 86  1  0  0  0  0
 25 27  2  0  0  0  0
 25 85  1  0  0  0  0
 26 88  1  0  0  0  0
 27 89  1  0  0  0  0
 28 67  2  0  0  0  0
 29 50  1  0  0  0  0
 29 68  1  0  0  0  0
 30 69  1  0  0  0  0
 30 76  1  0  0  0  0
 31 70  1  0  0  0  0
 31 74  1  0  0  0  0
 32 75  1  0  0  0  0
 32 80  2  0  0  0  0
 33 51  1  0  0  0  0
 33 77  1  0  0  0  0
 33 81  2  0  0  0  0
 34 64  1  0  0  0  0
 34 71  1  0  0  0  0
 34 82  2  0  0  0  0
 35 65  1  0  0  0  0
 35 78  1  0  0  0  0
 35 83  2  0  0  0  0
 36 72  1  0  0  0  0
 36 76  1  0  0  0  0
 36 84  2  0  0  0  0
 37 40  1  0  0  0  0
 38 51  1  0  0  0  0
 39 71  1  0  0  0  0
 40 42  1  0  0  0  0
 41 44  1  0  0  0  0
 41 47  1  0  0  0  0
 42 49  1  0  0  0  0
 43 45  1  0  0  0  0
 43 50  1  0  0  0  0
 44 53  1  0  0  0  0
 45 54  1  0  0  0  0
 46 52  1  0  0  0  0
 46 54  1  0  0  0  0
 47 72  1  0  0  0  0
 48 53  1  0  0  0  0
 48 72  1  0  0  0  0
 49 77  1  0  0  0  0
 50 52  1  0  0  0  0
 51 71  1  0  0  0  0
 52 55  1  0  0  0  0
 53 70  1  0  0  0  0
 54 62  1  0  0  0  0
 54 87  1  0  0  0  0
 56 63  1  0  0  0  0
 57 65  1  0  0  0  0
 58 66  1  0  0  0  0
 59 66  1  0  0  0  0
 60 66  1  0  0  0  0
 61 79  1  0  0  0  0
 62 86  1  0  0  0  0
 63 87  1  0  0  0  0
 64 66  1  0  0  0  0
 64 78  1  0  0  0  0
 65 79  1  0  0  0  0
 67 70  1  0  0  0  0
 68 69  2  0  0  0  0
M  CHG  1  79   1
M  ISO  4  36 100  62 101  76 100  86 101
M  END
> <Batch ID>
0164

> <Smiles>
CCOC1([101CH2:1][101O:1]c2ccc3c(c2)CN(C(=O)C(NC(=O)C(C)NC)C(C)(C)C)C(C(=O)NC2CCCc4ccccc42)C3)CCC(c2nnc([100NH:0][100C:0](=O)N3CCCC(n4nc(-c5ccc(Oc6ccc(F)cc6F)cc5)c(C(N)=O)c4N)C3)cc2N)C(C)C1

> <Shape>
0.338

> <Color>
0.133

> <Negative vol penalty>
0.000

$$$$

  -OEChem-04052304023D

 91 99  0     1  0  0  0  0  0999 V2000
  -26.4457  -37.5219   23.7321 C   0  0  0  0  0  0  0  0  0  0  0  0
  -26.9613  -36.7378   22.7050 C   0  0  0  0  0  0  0  0  0  0  0  0
  -20.1820  -14.3461   19.3304 C   0  0  0  0  0  0  0  0  0  0  0  0
  -22.4655  -13.6270   19.0052 C   0  0  0  0  0  0  0  0  0  0  0  0
  -25.9782  -36.9199   24.8996 C   0  0  0  0  0  0  0  0  0  0  0  0
  -27.0107  -35.3514   22.8453 C   0  0  0  0  0  0  0  0  0  0  0  0
  -26.5127  -29.3295   18.9975 C   0  0  0  0  0  0  0  0  0  0  0  0
  -19.7612  -13.4572   18.3413 C   0  0  0  0  0  0  0  0  0  0  0  0
  -22.0446  -12.7379   18.0161 C   0  0  0  0  0  0  0  0  0  0  0  0
  -27.2063  -28.1442   18.7577 C   0  0  0  0  0  0  0  0  0  0  0  0
  -21.1511  -12.8764   14.7583 C   0  0  0  0  0  0  0  0  0  0  0  0
  -21.8894  -12.8253   13.5760 C   0  0  0  0  0  0  0  0  0  0  0  0
  -26.2972  -27.2086   20.7868 C   0  0  0  0  0  0  0  0  0  0  0  0
  -30.7052  -20.2917   19.9737 C   0  0  0  0  0  0  0  0  0  0  0  0
  -28.7624  -18.8740   19.9680 C   0  0  0  0  0  0  0  0  0  0  0  0
  -22.3575  -10.4879   13.9692 C   0  0  0  0  0  0  0  0  0  0  0  0
  -21.5342  -14.4311   19.6623 C   0  0  0  0  0  0  0  0  0  0  0  0
  -22.0859  -15.0943   22.0630 C   0  0  0  0  0  0  0  0  0  0  0  0
  -26.0130  -35.5246   25.0504 C   0  0  0  0  0  0  0  0  0  0  0  0
  -25.7134  -29.4674   20.1414 C   0  0  0  0  0  0  0  0  0  0  0  0
  -26.5445  -34.7303   24.0165 C   0  0  0  0  0  0  0  0  0  0  0  0
  -25.5924  -28.3958   21.0376 C   0  0  0  0  0  0  0  0  0  0  0  0
  -30.1432  -19.0221   19.8989 C   0  0  0  0  0  0  0  0  0  0  0  0
  -20.6924  -12.6531   17.6842 C   0  0  0  0  0  0  0  0  0  0  0  0
  -27.1010  -27.0845   19.6538 C   0  0  0  0  0  0  0  0  0  0  0  0
  -21.0160  -11.7332   15.5461 C   0  0  0  0  0  0  0  0  0  0  0  0
  -22.4926  -11.6311   13.1814 C   0  0  0  0  0  0  0  0  0  0  0  0
  -21.6192  -10.5390   15.1516 C   0  0  0  0  0  0  0  0  0  0  0  0
  -21.9697  -15.3496   20.6834 C   0  0  0  0  0  0  0  0  0  0  0  0
  -29.8498  -21.3722   20.1163 C   0  0  0  0  0  0  0  0  0  0  0  0
  -27.9939  -20.0180   20.1111 C   0  0  0  0  0  0  0  0  0  0  0  0
  -22.5354  -16.2783   22.5946 C   0  0  0  0  0  0  0  0  0  0  0  0
  -31.3608  -17.3494   20.8533 C   0  0  0  0  0  0  0  0  0  0  0  0
  -21.8122  -13.8942   22.7981 C   0  0  0  0  0  0  0  0  0  0  0  0
  -30.3938  -22.7508   20.2014 C   0  0  0  0  0  0  0  0  0  0  0  0
  -32.2396  -16.1434   20.7764 C   0  0  0  0  0  0  0  0  0  0  0  0
  -25.7405  -31.3808   22.6795 C   0  0  0  0  0  0  0  0  0  0  0  0
  -22.9346  -29.8947   23.3436 C   0  0  0  0  0  0  0  0  0  0  0  0
  -20.9450  -27.1504   22.9475 C   0  0  0  0  0  0  0  0  0  0  0  0
  -25.6288  -20.8588   20.3241 C   0  0  0  0  0  0  0  0  0  0  0  0
  -25.5399  -34.9229   26.3498 C   0  0  0  0  0  0  0  0  0  0  0  0
  -24.9503  -30.7430   20.3720 C   0  0  0  0  0  0  0  0  0  0  0  0
  -24.7313  -28.4859   22.2700 C   0  0  0  0  0  0  0  0  0  0  0  0
  -25.2820  -33.4205   26.2671 C   0  0  0  0  0  0  0  0  0  0  0  0
  -22.4122  -21.0064   21.8436 C   0  0  0  0  0  0  0  0  0  0  0  0
  -26.4379  -32.7185   25.5616 C   0  0  0  0  0  0  0  0  0  0  0  0
  -21.9468  -19.5485   21.8496 C   0  0  0  0  0  0  0  0  0  0  0  0
  -23.2052  -21.3434   20.5821 C   0  0  0  0  0  0  0  0  0  0  0  0
  -23.8655  -18.9864   20.3037 C   0  0  0  0  0  0  0  0  0  0  0  0
  -26.5920  -33.2213   24.1211 C   0  0  1  0  0  0  0  0  0  0  0  0
  -24.5725  -30.9573   21.8344 C   0  0  1  0  0  0  0  0  0  0  0  0
  -23.1179  -18.5820   21.5849 C   0  0  2  0  0  0  0  0  0  0  0  0
  -33.5869  -16.2695   21.4151 C   0  0  0  0  0  0  0  0  0  0  0  0
  -29.7465  -25.8873   24.2189 C   0  0  0  0  0  0  0  0  0  0  0  0
  -18.7245  -26.2102   23.6425 C   0  0  0  0  0  0  0  0  0  0  0  0
  -29.6142  -25.6181   17.9260 C   0  0  0  0  0  0  0  0  0  0  0  0
  -24.0741  -29.2465   26.0988 C   0  0  0  0  0  0  0  0  0  0  0  0
  -22.2574  -27.5457   26.3732 C   0  0  0  0  0  0  0  0  0  0  0  0
  -21.6761  -29.9564   26.1023 C   0  0  0  0  0  0  0  0  0  0  0  0
  -19.9910  -27.0260   20.1487 C   0  0  0  0  0  0  0  0  0  0  0  0
  -30.3125  -25.3272   22.9324 C   0  0  0  0  0  0  0  0  0  0  0  0
  -22.5356  -28.6573   24.1109 C   0  0  1  0  0  0  0  0  0  0  0  0
  -19.4753  -27.0145   22.5926 C   0  0  2  0  0  0  0  0  0  0  0  0
  -29.1997  -26.0107   19.3399 C   0  0  2  0  0  0  0  0  0  1  0  0
  -29.8308  -25.1617   20.4577 C   0  0  2  0  0  0  0  0  0  0  0  0
  -22.6536  -28.8501   25.6492 C   0  0  0  0  0  0  0  0  0  0  0  0
  -22.3171  -16.5978   20.3589 N   0  0  0  0  0  0  0  0  0  0  0  0
  -28.5038  -21.2678   20.1872 N   0  0  0  0  0  0  0  0  0  0  0  0
  -30.9633  -17.8989   19.7551 N   0  0  0  0  0  0  0  0  0  0  0  0
  -22.6561  -17.1374   21.5422 N   0  0  0  0  0  0  0  0  0  0  0  0
  -24.0100  -29.7560   22.4547 N   0  0  0  0  0  0  0  0  0  0  0  0
  -24.3005  -20.3887   20.3984 N   0  0  0  0  0  0  0  0  0  0  0  0
  -22.8353  -16.6579   23.8549 N   0  0  0  0  0  0  0  0  0  0  0  0
  -21.3572  -12.7697   22.0961 N   0  0  0  0  0  0  0  0  0  0  0  0
  -26.5880  -19.8567   20.1816 N   0  0  0  0  0  0  0  0  0  0  0  0
  -29.4556  -23.7612   20.3429 N   0  0  0  0  0  0  0  0  0  0  0  0
  -25.5891  -32.6225   23.2667 N   0  0  0  0  0  0  0  0  0  0  0  0
  -21.1950  -28.3081   23.6536 N   0  0  0  0  0  0  0  0  0  0  0  0
  -19.3211  -26.3305   21.2776 N   0  3  0  0  0  0  0  0  0  0  0  0
  -29.4182  -25.6987   21.8002 N   0  3  0  0  0  0  0  0  0  0  0  0
  -21.9507  -13.8261   24.0430 O   0  0  0  0  0  0  0  0  0  0  0  0
  -31.6094  -22.9206   20.1584 O   0  0  0  0  0  0  0  0  0  0  0  0
  -31.8280  -15.1567   20.1870 O   0  0  0  0  0  0  0  0  0  0  0  0
  -26.7068  -30.6356   22.7918 O   0  0  0  0  0  0  0  0  0  0  0  0
  -22.3104  -30.9438   23.5209 O   0  0  0  0  0  0  0  0  0  0  0  0
  -21.7864  -26.3114   22.6334 O   0  0  0  0  0  0  0  0  0  0  0  0
  -25.8979  -22.0598   20.4099 O   0  0  0  0  0  0  0  0  0  0  0  0
  -20.2821  -11.7853   16.7193 O   0  0  0  0  0  0  0  0  0  0  0  0
  -27.7775  -25.9266   19.4224 O   0  0  0  0  0  0  0  0  0  1  0  0
  -23.2003  -11.5819   12.0452 F   0  0  0  0  0  0  0  0  0  0  0  0
  -21.4920   -9.4372   15.9037 F   0  0  0  0  0  0  0  0  0  0  0  0
  1  2  1  0  0  0  0
  1  5  2  0  0  0  0
  2  6  2  0  0  0  0
  3  8  2  0  0  0  0
  3 17  1  0  0  0  0
  4  9  1  0  0  0  0
  4 17  2  0  0  0  0
  5 19  1  0  0  0  0
  6 21  1  0  0  0  0
  7 10  2  0  0  0  0
  7 20  1  0  0  0  0
  8 24  1  0  0  0  0
  9 24  2  0  0  0  0
 10 25  1  0  0  0  0
 11 12  2  0  0  0  0
 11 26  1  0  0  0  0
 12 27  1  0  0  0  0
 13 22  1  0  0  0  0
 13 25  2  0  0  0  0
 14 23  2  0  0  0  0
 14 30  1  0  0  0  0
 15 23  1  0  0  0  0
 15 31  2  0  0  0  0
 16 27  2  0  0  0  0
 16 28  1  0  0  0  0
 17 29  1  0  0  0  0
 18 29  1  0  0  0  0
 18 32  2  0  0  0  0
 18 34  1  0  0  0  0
 19 21  2  0  0  0  0
 19 41  1  0  0  0  0
 20 22  2  0  0  0  0
 20 42  1  0  0  0  0
 21 50  1  0  0  0  0
 22 43  1  0  0  0  0
 23 69  1  0  0  0  0
 24 88  1  0  0  0  0
 25 89  1  0  0  0  0
 26 28  2  0  0  0  0
 26 88  1  0  0  0  0
 27 90  1  0  0  0  0
 28 91  1  0  0  0  0
 29 67  2  0  0  0  0
 30 35  1  0  0  0  0
 30 68  2  0  0  0  0
 31 68  1  0  0  0  0
 31 75  1  0  0  0  0
 32 70  1  0  0  0  0
 32 73  1  0  0  0  0
 33 36  1  0  0  0  0
 33 69  2  0  0  0  0
 34 74  1  0  0  0  0
 34 81  2  0  0  0  0
 35 76  1  0  0  0  0
 35 82  2  0  0  0  0
 36 53  1  0  0  0  0
 36 83  2  0  0  0  0
 37 51  1  0  0  0  0
 37 77  1  0  0  0  0
 37 84  2  0  0  0  0
 38 62  1  0  0  0  0
 38 71  1  0  0  0  0
 38 85  2  0  0  0  0
 39 63  1  0  0  0  0
 39 78  1  0  0  0  0
 39 86  2  0  0  0  0
 40 72  1  0  0  0  0
 40 75  1  0  0  0  0
 40 87  2  0  0  0  0
 41 44  1  0  0  0  0
 42 51  1  0  0  0  0
 43 71  1  0  0  0  0
 44 46  1  0  0  0  0
 45 47  1  0  0  0  0
 45 48  1  0  0  0  0
 46 50  1  0  0  0  0
 47 52  1  0  0  0  0
 48 72  1  0  0  0  0
 49 52  1  0  0  0  0
 49 72  1  0  0  0  0
 50 77  1  0  0  0  0
 51 71  1  0  0  0  0
 52 70  1  0  0  0  0
 54 61  1  0  0  0  0
 55 63  1  0  0  0  0
 56 64  1  0  0  0  0
 57 66  1  0  0  0  0
 58 66  1  0  0  0  0
 59 66  1  0  0  0  0
 60 79  1  0  0  0  0
 61 80  1  0  0  0  0
 62 66  1  0  0  0  0
 62 78  1  0  0  0  0
 63 79  1  0  0  0  0
 64 65  1  0  0  0  0
 64 89  1  0  0  0  0
 65 76  1  0  0  0  0
 65 80  1  0  0  0  0
 67 70  1  0  0  0  0
M  CHG  2  79   1  80   1
M  ISO  4  40 100  64 101  75 100  89 101
M  END
> <Batch ID>
0164

> <Smiles>
CCN=C(NC(=O)c1cc(NCC(C)=O)cc([100NH:0][100C:0](=O)N2CCCC(n3nc(-c4ccc(Oc5ccc(F)cc5F)cc4)c(C(N)=O)c3N)C2)n1)[101CH:1](C)[101O:1]c1ccc2c(c1)CN(C(=O)C(NC(=O)C(C)NC)C(C)(C)C)C(C(=O)NC1CCCc3ccccc31)C2

> <Shape>
0.253

> <Color>
0.074

> <Negative vol penalty>
0.000

$$$$

  -OEChem-04052304023D

 89 98  0     1  0  0  0  0  0999 V2000
  -24.4462  -38.6078   22.8900 C   0  0  0  0  0  0  0  0  0  0  0  0
  -25.2265  -37.5810   23.4118 C   0  0  0  0  0  0  0  0  0  0  0  0
  -24.5210   -8.7678   21.2093 C   0  0  0  0  0  0  0  0  0  0  0  0
  -22.7249  -10.3706   21.0046 C   0  0  0  0  0  0  0  0  0  0  0  0
  -23.1249  -38.3591   22.5210 C   0  0  0  0  0  0  0  0  0  0  0  0
  -24.6855  -36.3051   23.5659 C   0  0  0  0  0  0  0  0  0  0  0  0
  -26.6412  -21.1441   18.8358 C   0  0  0  0  0  0  0  0  0  0  0  0
  -27.1868  -19.5974   17.0618 C   0  0  0  0  0  0  0  0  0  0  0  0
  -27.6383  -30.6054   20.2970 C   0  0  0  0  0  0  0  0  0  0  0  0
  -26.6340  -20.0917   19.7512 C   0  0  0  0  0  0  0  0  0  0  0  0
  -27.1797  -18.5449   17.9773 C   0  0  0  0  0  0  0  0  0  0  0  0
  -23.5883   -7.7429   21.3686 C   0  0  0  0  0  0  0  0  0  0  0  0
  -21.7922   -9.3457   21.1638 C   0  0  0  0  0  0  0  0  0  0  0  0
  -28.2687  -29.4346   19.8753 C   0  0  0  0  0  0  0  0  0  0  0  0
  -21.6214   -6.5267   23.8336 C   0  0  0  0  0  0  0  0  0  0  0  0
  -21.8493   -5.5957   24.8470 C   0  0  0  0  0  0  0  0  0  0  0  0
  -26.4603  -28.1175   20.7934 C   0  0  0  0  0  0  0  0  0  0  0  0
  -21.9129   -3.8243   23.2053 C   0  0  0  0  0  0  0  0  0  0  0  0
  -24.0893  -10.0816   21.0273 C   0  0  0  0  0  0  0  0  0  0  0  0
  -26.0249  -11.2563   19.8522 C   0  0  0  0  0  0  0  0  0  0  0  0
  -26.9175  -20.8969   17.4911 C   0  0  0  0  0  0  0  0  0  0  0  0
  -22.5704  -37.0772   22.6617 C   0  0  0  0  0  0  0  0  0  0  0  0
  -26.4075  -30.5376   20.9557 C   0  0  0  0  0  0  0  0  0  0  0  0
  -23.3551  -36.0393   23.1997 C   0  0  0  0  0  0  0  0  0  0  0  0
  -25.8181  -29.2877   21.2071 C   0  0  0  0  0  0  0  0  0  0  0  0
  -26.9033  -18.7921   19.3220 C   0  0  0  0  0  0  0  0  0  0  0  0
  -22.2239   -8.0319   21.3458 C   0  0  0  0  0  0  0  0  0  0  0  0
  -27.6813  -28.1937   20.1232 C   0  0  0  0  0  0  0  0  0  0  0  0
  -21.5391   -6.1065   22.5060 C   0  0  0  0  0  0  0  0  0  0  0  0
  -21.9951   -4.2446   24.5329 C   0  0  0  0  0  0  0  0  0  0  0  0
  -21.6849   -4.7553   22.1919 C   0  0  0  0  0  0  0  0  0  0  0  0
  -25.0522  -11.1408   20.8633 C   0  0  0  0  0  0  0  0  0  0  0  0
  -26.6810  -12.4284   20.1392 C   0  0  0  0  0  0  0  0  0  0  0  0
  -27.6337  -26.2471   18.8265 C   0  0  0  0  0  0  0  0  0  1  0  0
  -26.3099  -10.3824   18.7519 C   0  0  0  0  0  0  0  0  0  0  0  0
  -28.1405  -25.1080   18.3492 C   0  0  0  0  0  0  0  0  0  0  0  0
  -27.3183  -24.3258   17.4046 C   0  0  0  0  0  0  0  0  0  0  0  0
  -23.5846  -32.4049   22.5744 C   0  0  0  0  0  0  0  0  0  0  0  0
  -22.3304  -30.1168   20.9614 C   0  0  0  0  0  0  0  0  0  0  0  0
  -21.3254  -27.7395   18.7308 C   0  0  0  0  0  0  0  0  0  0  0  0
  -26.6419  -17.7955   21.6209 C   0  0  0  0  0  0  0  0  0  0  0  0
  -21.1229  -36.8679   22.2932 C   0  0  0  0  0  0  0  0  0  0  0  0
  -25.7223  -31.7693   21.4821 C   0  0  0  0  0  0  0  0  0  0  0  0
  -24.5101  -29.2610   21.9497 C   0  0  0  0  0  0  0  0  0  0  0  0
  -20.7400  -35.3983   22.1390 C   0  0  0  0  0  0  0  0  0  0  0  0
  -26.4940  -15.3889   24.2407 C   0  0  0  0  0  0  0  0  0  0  0  0
  -27.1915  -21.7099   15.0070 C   0  0  0  0  0  0  0  0  0  0  0  0
  -21.2801  -34.5804   23.3079 C   0  0  0  0  0  0  0  0  0  0  0  0
  -28.6653  -21.4329   14.7040 C   0  0  0  0  0  0  0  0  0  0  0  0
  -26.1857  -14.0787   23.5124 C   0  0  0  0  0  0  0  0  0  0  0  0
  -25.7727  -16.5752   23.6034 C   0  0  0  0  0  0  0  0  0  0  0  0
  -29.2832  -22.8628   16.6900 C   0  0  0  0  0  0  0  0  0  0  0  0
  -25.6782  -15.4184   21.4304 C   0  0  0  0  0  0  0  0  0  0  0  0
  -26.9252  -22.0504   16.4879 C   0  0  2  0  0  0  0  0  0  0  0  0
  -22.8117  -34.6360   23.3590 C   0  0  1  0  0  0  0  0  0  0  0  0
  -24.1873  -31.6862   21.4032 C   0  0  1  0  0  0  0  0  0  0  0  0
  -29.5622  -22.5669   15.2110 C   0  0  1  0  0  0  0  0  0  0  0  0
  -26.4336  -14.2048   21.9964 C   0  0  2  0  0  0  0  0  0  0  0  0
  -31.0357  -22.2242   14.9976 C   0  0  0  0  0  0  0  0  0  0  0  0
  -19.2604  -26.6603   17.7988 C   0  0  0  0  0  0  0  0  0  0  0  0
  -22.0169  -28.5051   23.5320 C   0  0  0  0  0  0  0  0  0  0  0  0
  -20.6379  -26.8573   22.2468 C   0  0  0  0  0  0  0  0  0  0  0  0
  -19.8638  -29.2174   22.4778 C   0  0  0  0  0  0  0  0  0  0  0  0
  -21.9527  -28.6432   15.9833 C   0  0  0  0  0  0  0  0  0  0  0  0
  -21.8215  -28.6975   20.9647 C   0  0  1  0  0  0  0  0  0  0  0  0
  -20.2853  -27.7704   17.6255 C   0  0  2  0  0  0  0  0  0  0  0  0
  -21.1115  -28.3256   22.2970 C   0  0  0  0  0  0  0  0  0  0  0  0
  -25.0841  -12.1582   21.7281 N   0  0  0  0  0  0  0  0  0  0  0  0
  -26.0848  -12.9242   21.2612 N   0  0  0  0  0  0  0  0  0  0  0  0
  -27.8508  -23.1341   16.9064 N   0  0  0  0  0  0  0  0  0  0  0  0
  -23.6263  -30.3253   21.4488 N   0  0  0  0  0  0  0  0  0  0  0  0
  -26.0575  -16.6337   22.1680 N   0  0  0  0  0  0  0  0  0  0  0  0
  -27.7040  -13.0729   19.5387 N   0  0  0  0  0  0  0  0  0  0  0  0
  -25.6410  -10.5954   17.5388 N   0  0  0  0  0  0  0  0  0  0  0  0
  -26.8965  -17.7229   20.2517 N   0  0  0  0  0  0  0  0  0  0  0  0
  -23.3829  -33.7554   22.3627 N   0  0  0  0  0  0  0  0  0  0  0  0
  -20.9793  -28.5631   19.7811 N   0  0  0  0  0  0  0  0  0  0  0  0
  -20.9374  -27.6047   16.2958 N   0  3  0  0  0  0  0  0  0  0  0  0
  -27.1211   -9.4303   18.8467 O   0  0  0  0  0  0  0  0  0  0  0  0
  -26.2053  -24.7710   17.1187 O   0  0  0  0  0  0  0  0  0  0  0  0
  -23.3202  -31.7808   23.5953 O   0  0  0  0  0  0  0  0  0  0  0  0
  -21.5988  -31.0189   20.5438 O   0  0  0  0  0  0  0  0  0  0  0  0
  -22.3414  -27.0505   18.6702 O   0  0  0  0  0  0  0  0  0  0  0  0
  -26.9227  -18.7719   22.3207 O   0  0  0  0  0  0  0  0  0  0  0  0
  -29.3862  -24.6464   18.7028 O   0  0  0  0  0  0  0  0  0  0  0  0
  -21.3135   -7.0320   21.5010 O   0  0  0  0  0  0  0  0  0  0  0  0
  -28.2999  -27.0549   19.7048 O   0  0  0  0  0  0  0  0  0  1  0  0
  -22.2155   -3.3509   25.5060 F   0  0  0  0  0  0  0  0  0  0  0  0
  -21.6080   -4.3457   20.9183 F   0  0  0  0  0  0  0  0  0  0  0  0
  1  2  1  0  0  0  0
  1  5  2  0  0  0  0
  2  6  2  0  0  0  0
  3 12  2  0  0  0  0
  3 19  1  0  0  0  0
  4 13  1  0  0  0  0
  4 19  2  0  0  0  0
  5 22  1  0  0  0  0
  6 24  1  0  0  0  0
  7 10  2  0  0  0  0
  7 21  1  0  0  0  0
  8 11  1  0  0  0  0
  8 21  2  0  0  0  0
  9 14  2  0  0  0  0
  9 23  1  0  0  0  0
 10 26  1  0  0  0  0
 11 26  2  0  0  0  0
 12 27  1  0  0  0  0
 13 27  2  0  0  0  0
 14 28  1  0  0  0  0
 15 16  2  0  0  0  0
 15 29  1  0  0  0  0
 16 30  1  0  0  0  0
 17 25  1  0  0  0  0
 17 28  2  0  0  0  0
 18 30  2  0  0  0  0
 18 31  1  0  0  0  0
 19 32  1  0  0  0  0
 20 32  1  0  0  0  0
 20 33  2  0  0  0  0
 20 35  1  0  0  0  0
 21 54  1  0  0  0  0
 22 24  2  0  0  0  0
 22 42  1  0  0  0  0
 23 25  2  0  0  0  0
 23 43  1  0  0  0  0
 24 55  1  0  0  0  0
 25 44  1  0  0  0  0
 26 75  1  0  0  0  0
 27 86  1  0  0  0  0
 28 87  1  0  0  0  0
 29 31  2  0  0  0  0
 29 86  1  0  0  0  0
 30 88  1  0  0  0  0
 31 89  1  0  0  0  0
 32 68  2  0  0  0  0
 33 69  1  0  0  0  0
 33 73  1  0  0  0  0
 34 36  2  0  0  0  0
 34 87  1  0  0  0  0
 35 74  1  0  0  0  0
 35 79  2  0  0  0  0
 36 37  1  0  0  0  0
 36 85  1  0  0  0  0
 37 70  1  0  0  0  0
 37 80  2  0  0  0  0
 38 56  1  0  0  0  0
 38 76  1  0  0  0  0
 38 81  2  0  0  0  0
 39 65  1  0  0  0  0
 39 71  1  0  0  0  0
 39 82  2  0  0  0  0
 40 66  1  0  0  0  0
 40 77  1  0  0  0  0
 40 83  2  0  0  0  0
 41 72  1  0  0  0  0
 41 75  1  0  0  0  0
 41 84  2  0  0  0  0
 42 45  1  0  0  0  0
 43 56  1  0  0  0  0
 44 71  1  0  0  0  0
 45 48  1  0  0  0  0
 46 50  1  0  0  0  0
 46 51  1  0  0  0  0
 47 49  1  0  0  0  0
 47 54  1  0  0  0  0
 48 55  1  0  0  0  0
 49 57  1  0  0  0  0
 50 58  1  0  0  0  0
 51 72  1  0  0  0  0
 52 57  1  0  0  0  0
 52 70  1  0  0  0  0
 53 58  1  0  0  0  0
 53 72  1  0  0  0  0
 54 70  1  0  0  0  0
 55 76  1  0  0  0  0
 56 71  1  0  0  0  0
 57 59  1  0  0  0  0
 58 69  1  0  0  0  0
 60 66  1  0  0  0  0
 61 67  1  0  0  0  0
 62 67  1  0  0  0  0
 63 67  1  0  0  0  0
 64 78  1  0  0  0  0
 65 67  1  0  0  0  0
 65 77  1  0  0  0  0
 66 78  1  0  0  0  0
 68 69  1  0  0  0  0
M  CHG  1  78   1
M  ISO  4  34 101  41 100  75 100  87 101
M  END
> <Batch ID>
0164

> <Smiles>
CNC(C)C(=O)NC(C(=O)N1Cc2cc([101O:1][101CH2:1]C(=O)C(=O)N3CC(C)CCC3c3ccc([100NH:0][100C:0](=O)N4CCCC(n5nc(-c6ccc(Oc7ccc(F)cc7F)cc6)c(C(N)=O)c5N)C4)cc3)ccc2CC1C(=O)NC1CCCc2ccccc21)C(C)(C)C

> <Shape>
0.270

> <Color>
0.113

> <Negative vol penalty>
0.000

$$$$

  -OEChem-04052304023D

 83 91  0     1  0  0  0  0  0999 V2000
  -19.5151  -10.5125   20.5020 C   0  0  0  0  0  0  0  0  0  0  0  0
  -20.1520  -11.7481   20.5568 C   0  0  0  0  0  0  0  0  0  0  0  0
  -24.8254  -33.4393   26.8606 C   0  0  0  0  0  0  0  0  0  0  0  0
  -26.9847  -32.3639   26.9951 C   0  0  0  0  0  0  0  0  0  0  0  0
  -20.2567   -9.3403   20.6437 C   0  0  0  0  0  0  0  0  0  0  0  0
  -21.5308  -11.8123   20.7544 C   0  0  0  0  0  0  0  0  0  0  0  0
  -25.4014  -15.9259   18.3874 C   0  0  0  0  0  0  0  0  0  0  0  0
  -24.7490  -33.4600   28.2531 C   0  0  0  0  0  0  0  0  0  0  0  0
  -26.9083  -32.3847   28.3877 C   0  0  0  0  0  0  0  0  0  0  0  0
  -25.9675  -17.0890   18.9076 C   0  0  0  0  0  0  0  0  0  0  0  0
  -26.0112  -35.3052   30.7899 C   0  0  0  0  0  0  0  0  0  0  0  0
  -25.5860  -36.4861   31.3983 C   0  0  0  0  0  0  0  0  0  0  0  0
  -30.0126  -25.6007   20.3148 C   0  0  0  0  0  0  0  0  0  0  0  0
  -29.4673  -26.6606   21.0780 C   0  0  0  0  0  0  0  0  0  0  0  0
  -27.9447  -15.8478   19.5151 C   0  0  0  0  0  0  0  0  0  0  0  0
  -23.7233  -35.3065   32.3863 C   0  0  0  0  0  0  0  0  0  0  0  0
  -25.9433  -32.8912   26.2315 C   0  0  0  0  0  0  0  0  0  0  0  0
  -26.5688  -33.8606   23.9563 C   0  0  0  0  0  0  0  0  0  0  0  0
  -21.6467   -9.3899   20.8335 C   0  0  0  0  0  0  0  0  0  0  0  0
  -26.0995  -14.7108   18.4371 C   0  0  0  0  0  0  0  0  0  0  0  0
  -22.2916  -10.6398   20.9000 C   0  0  0  0  0  0  0  0  0  0  0  0
  -27.3864  -14.6713   18.9926 C   0  0  0  0  0  0  0  0  0  0  0  0
  -25.7904  -32.9328   29.0167 C   0  0  0  0  0  0  0  0  0  0  0  0
  -27.2381  -17.0495   19.4741 C   0  0  0  0  0  0  0  0  0  0  0  0
  -25.2924  -34.1248   30.9797 C   0  0  0  0  0  0  0  0  0  0  0  0
  -24.4421  -36.4868   32.1965 C   0  0  0  0  0  0  0  0  0  0  0  0
  -24.1485  -34.1255   31.7778 C   0  0  0  0  0  0  0  0  0  0  0  0
  -26.0226  -32.8690   24.7930 C   0  0  0  0  0  0  0  0  0  0  0  0
  -29.0186  -25.1999   19.4527 C   0  0  0  0  0  0  0  0  0  0  0  0
  -26.4031  -33.3670   22.6853 C   0  0  0  0  0  0  0  0  0  0  0  0
  -28.1790  -26.8321   20.6276 C   0  0  0  0  0  0  0  0  0  0  0  0
  -28.2520  -21.7721   18.9127 C   0  0  0  0  0  0  0  0  0  0  0  0
  -29.1684  -22.7485   18.9610 C   0  0  0  0  0  0  0  0  0  0  0  0
  -27.1721  -35.1158   24.2974 C   0  0  0  0  0  0  0  0  0  0  0  0
  -28.5317  -20.4323   19.5017 C   0  0  0  0  0  0  0  0  0  0  0  0
  -25.5932  -11.8874   19.8068 C   0  0  0  0  0  0  0  0  0  0  0  0
  -28.2481  -11.0425   18.1454 C   0  0  0  0  0  0  0  0  0  0  0  0
  -31.1370  -12.0148   16.6105 C   0  0  0  0  0  0  0  0  0  0  0  0
  -25.8716  -27.8341   20.4921 C   0  0  0  0  0  0  0  0  0  0  0  0
  -22.3992   -8.0976   21.0288 C   0  0  0  0  0  0  0  0  0  0  0  0
  -25.4859  -13.4705   17.8476 C   0  0  0  0  0  0  0  0  0  0  0  0
  -28.1857  -13.3961   19.0521 C   0  0  0  0  0  0  0  0  0  0  0  0
  -23.9097   -8.2408   20.8603 C   0  0  0  0  0  0  0  0  0  0  0  0
  -23.5446  -30.5036   20.1233 C   0  0  0  0  0  0  0  0  0  0  0  0
  -24.4189   -9.4587   21.6246 C   0  0  0  0  0  0  0  0  0  0  0  0
  -23.9694  -31.5061   21.1988 C   0  0  0  0  0  0  0  0  0  0  0  0
  -23.7127  -29.0604   20.5951 C   0  0  0  0  0  0  0  0  0  0  0  0
  -25.4721  -29.7293   22.1846 C   0  0  0  0  0  0  0  0  0  0  0  0
  -23.7891  -10.7498   21.0881 C   0  0  1  0  0  0  0  0  0  0  0  0
  -26.0768  -12.1837   18.4154 C   0  0  1  0  0  0  0  0  0  0  0  0
  -25.3819  -31.1958   21.7320 C   0  0  2  0  0  0  0  0  0  0  0  0
  -29.9188  -24.3848   17.2248 C   0  0  0  0  0  0  0  0  0  0  0  0
  -33.1175  -11.0939   15.3749 C   0  0  0  0  0  0  0  0  0  0  0  0
  -29.4320  -10.0599   20.7803 C   0  0  0  0  0  0  0  0  0  0  0  0
  -31.6829  -10.0479   19.6841 C   0  0  0  0  0  0  0  0  0  0  0  0
  -29.8689   -8.5695   18.8202 C   0  0  0  0  0  0  0  0  0  0  0  0
  -30.4807  -13.5593   14.1728 C   0  0  0  0  0  0  0  0  0  0  0  0
  -27.4129  -19.4195   19.3800 C   0  0  0  0  0  0  0  0  0  1  0  0
  -28.9431  -24.1259   18.3795 C   0  0  2  0  0  0  0  0  0  0  0  0
  -29.7324  -11.0621   18.4199 C   0  0  1  0  0  0  0  0  0  0  0  0
  -31.7180  -11.6757   15.2497 C   0  0  2  0  0  0  0  0  0  0  0  0
  -30.1635   -9.9586   19.4269 C   0  0  0  0  0  0  0  0  0  0  0  0
  -25.5454  -31.8244   24.1110 N   0  0  0  0  0  0  0  0  0  0  0  0
  -25.7912  -32.1570   22.8323 N   0  0  0  0  0  0  0  0  0  0  0  0
  -27.5400  -12.2088   18.4682 N   0  0  0  0  0  0  0  0  0  0  0  0
  -25.0760  -28.8389   21.0822 N   0  0  0  0  0  0  0  0  0  0  0  0
  -26.7224  -33.8543   21.4676 N   0  0  0  0  0  0  0  0  0  0  0  0
  -27.2623  -35.4677   25.6511 N   0  0  0  0  0  0  0  0  0  0  0  0
  -27.1606  -27.7378   21.0154 N   0  0  0  0  0  0  0  0  0  0  0  0
  -24.4271  -11.1474   19.8515 N   0  0  0  0  0  0  0  0  0  0  0  0
  -30.3891  -10.9745   17.1202 N   0  0  0  0  0  0  0  0  0  0  0  0
  -31.7912  -12.8970   14.3988 N   0  3  0  0  0  0  0  0  0  0  0  0
  -27.6033  -35.9092   23.4268 O   0  0  0  0  0  0  0  0  0  0  0  0
  -29.6000  -20.1712   20.0484 O   0  0  0  0  0  0  0  0  0  0  0  0
  -26.2317  -12.2984   20.7686 O   0  0  0  0  0  0  0  0  0  0  0  0
  -27.7370  -10.0322   17.6557 O   0  0  0  0  0  0  0  0  0  0  0  0
  -31.3304  -13.0932   17.1675 O   0  0  0  0  0  0  0  0  0  0  0  0
  -25.4502  -27.1304   19.5706 O   0  0  0  0  0  0  0  0  0  0  0  0
  -27.8977  -25.9456   19.6369 O   0  0  0  0  0  0  0  0  0  0  0  0
  -25.7163  -32.9530   30.3756 O   0  0  0  0  0  0  0  0  0  0  0  0
  -27.7927  -18.1832   19.9831 O   0  0  0  0  0  0  0  0  0  1  0  0
  -24.0347  -37.6206   32.7819 F   0  0  0  0  0  0  0  0  0  0  0  0
  -23.4545  -32.9945   31.9648 F   0  0  0  0  0  0  0  0  0  0  0  0
  1  2  1  0  0  0  0
  1  5  2  0  0  0  0
  2  6  2  0  0  0  0
  3  8  2  0  0  0  0
  3 17  1  0  0  0  0
  4  9  1  0  0  0  0
  4 17  2  0  0  0  0
  5 19  1  0  0  0  0
  6 21  1  0  0  0  0
  7 10  2  0  0  0  0
  7 20  1  0  0  0  0
  8 23  1  0  0  0  0
  9 23  2  0  0  0  0
 10 24  1  0  0  0  0
 11 12  2  0  0  0  0
 11 25  1  0  0  0  0
 12 26  1  0  0  0  0
 13 14  1  0  0  0  0
 13 29  2  0  0  0  0
 14 31  2  0  0  0  0
 15 22  1  0  0  0  0
 15 24  2  0  0  0  0
 16 26  2  0  0  0  0
 16 27  1  0  0  0  0
 17 28  1  0  0  0  0
 18 28  1  0  0  0  0
 18 30  2  0  0  0  0
 18 34  1  0  0  0  0
 19 21  2  0  0  0  0
 19 40  1  0  0  0  0
 20 22  2  0  0  0  0
 20 41  1  0  0  0  0
 21 49  1  0  0  0  0
 22 42  1  0  0  0  0
 23 80  1  0  0  0  0
 24 81  1  0  0  0  0
 25 27  2  0  0  0  0
 25 80  1  0  0  0  0
 26 82  1  0  0  0  0
 27 83  1  0  0  0  0
 28 63  2  0  0  0  0
 29 59  1  0  0  0  0
 29 79  1  0  0  0  0
 30 64  1  0  0  0  0
 30 67  1  0  0  0  0
 31 69  1  0  0  0  0
 31 79  1  0  0  0  0
 32 33  2  0  0  0  0
 32 35  1  0  0  0  0
 33 59  1  0  0  0  0
 34 68  1  0  0  0  0
 34 73  2  0  0  0  0
 35 58  1  0  0  0  0
 35 74  2  0  0  0  0
 36 50  1  0  0  0  0
 36 70  1  0  0  0  0
 36 75  2  0  0  0  0
 37 60  1  0  0  0  0
 37 65  1  0  0  0  0
 37 76  2  0  0  0  0
 38 61  1  0  0  0  0
 38 71  1  0  0  0  0
 38 77  2  0  0  0  0
 39 66  1  0  0  0  0
 39 69  1  0  0  0  0
 39 78  2  0  0  0  0
 40 43  1  0  0  0  0
 41 50  1  0  0  0  0
 42 65  1  0  0  0  0
 43 45  1  0  0  0  0
 44 46  1  0  0  0  0
 44 47  1  0  0  0  0
 45 49  1  0  0  0  0
 46 51  1  0  0  0  0
 47 66  1  0  0  0  0
 48 51  1  0  0  0  0
 48 66  1  0  0  0  0
 49 70  1  0  0  0  0
 50 65  1  0  0  0  0
 51 64  1  0  0  0  0
 52 59  1  0  0  0  0
 53 61  1  0  0  0  0
 54 62  1  0  0  0  0
 55 62  1  0  0  0  0
 56 62  1  0  0  0  0
 57 72  1  0  0  0  0
 58 81  1  0  0  0  0
 60 62  1  0  0  0  0
 60 71  1  0  0  0  0
 61 72  1  0  0  0  0
 63 64  1  0  0  0  0
M  CHG  1  72   1
M  ISO  4  39 100  58 101  69 100  81 101
M  END
> <Batch ID>
0164

> <Smiles>
CNC(C)C(=O)NC(C(=O)N1Cc2cc([101O:1][101CH2:1]C(=O)CC=C(C)c3ccc([100NH:0][100C:0](=O)N4CCCC(n5nc(-c6ccc(Oc7ccc(F)cc7F)cc6)c(C(N)=O)c5N)C4)o3)ccc2CC1C(=O)NC1CCCc2ccccc21)C(C)(C)C

> <Shape>
0.266

> <Color>
0.073

> <Negative vol penalty>
0.000

$$$$

  -OEChem-04052304023D

 86 94  0     1  0  0  0  0  0999 V2000
  -19.6522  -30.7170   24.6431 C   0  0  0  0  0  0  0  0  0  0  0  0
  -20.9856  -30.3719   24.4472 C   0  0  0  0  0  0  0  0  0  0  0  0
  -27.2250  -13.6960   22.5309 C   0  0  0  0  0  0  0  0  0  0  0  0
  -26.8339  -13.1554   20.2089 C   0  0  0  0  0  0  0  0  0  0  0  0
  -31.5382  -23.2653   15.5517 C   0  0  0  0  0  0  0  0  0  0  0  0
  -18.6408  -29.9076   24.1275 C   0  0  0  0  0  0  0  0  0  0  0  0
  -21.3083  -29.2165   23.7364 C   0  0  0  0  0  0  0  0  0  0  0  0
  -26.1150  -28.3953   20.0314 C   0  0  0  0  0  0  0  0  0  0  0  0
  -26.6642  -12.4763   22.9094 C   0  0  0  0  0  0  0  0  0  0  0  0
  -26.2731  -11.9356   20.5874 C   0  0  0  0  0  0  0  0  0  0  0  0
  -27.3574  -27.7934   20.2262 C   0  0  0  0  0  0  0  0  0  0  0  0
  -23.3239  -10.8216   21.8088 C   0  0  0  0  0  0  0  0  0  0  0  0
  -31.1787  -22.1233   14.8359 C   0  0  0  0  0  0  0  0  0  0  0  0
  -22.1339  -10.4361   21.1915 C   0  0  0  0  0  0  0  0  0  0  0  0
  -26.5070  -25.7450   19.2774 C   0  0  0  0  0  0  0  0  0  0  0  0
  -23.2178   -8.4510   20.3419 C   0  0  0  0  0  0  0  0  0  0  0  0
  -27.3098  -14.0356   21.1807 C   0  0  0  0  0  0  0  0  0  0  0  0
  -30.8278  -23.6224   16.6978 C   0  0  0  0  0  0  0  0  0  0  0  0
  -29.2413  -15.5568   20.5002 C   0  0  0  0  0  0  0  0  0  0  0  0
  -18.9514  -28.7469   23.4017 C   0  0  0  0  0  0  0  0  0  0  0  0
  -25.0543  -27.6721   19.4672 C   0  0  0  0  0  0  0  0  0  0  0  0
  -20.3001  -28.3901   23.2117 C   0  0  0  0  0  0  0  0  0  0  0  0
  -25.2529  -26.3408   19.0742 C   0  0  0  0  0  0  0  0  0  0  0  0
  -29.3985  -21.6956   16.4123 C   0  0  0  0  0  0  0  0  0  0  0  0
  -26.1883  -11.5960   21.9376 C   0  0  0  0  0  0  0  0  0  0  0  0
  -27.5527  -26.4672   19.8518 C   0  0  0  0  0  0  0  0  0  0  0  0
  -24.4608  -10.0218   21.6925 C   0  0  0  0  0  0  0  0  0  0  0  0
  -22.0809   -9.2507   20.4581 C   0  0  0  0  0  0  0  0  0  0  0  0
  -30.1089  -21.3385   15.2662 C   0  0  0  0  0  0  0  0  0  0  0  0
  -24.4078   -8.8365   20.9592 C   0  0  0  0  0  0  0  0  0  0  0  0
  -29.7580  -22.8376   17.1281 C   0  0  0  0  0  0  0  0  0  0  0  0
  -27.8885  -15.2958   20.7891 C   0  0  0  0  0  0  0  0  0  0  0  0
  -29.2731  -16.8927   20.1830 C   0  0  0  0  0  0  0  0  0  0  0  0
  -31.2108  -24.8322   17.4530 C   0  0  0  0  0  0  0  0  0  0  0  0
  -30.3685  -14.6708   20.5171 C   0  0  0  0  0  0  0  0  0  0  0  0
  -22.1679  -26.7832   20.4581 C   0  0  0  0  0  0  0  0  0  0  0  0
  -31.0395  -25.8360   20.7314 C   0  0  0  0  0  0  0  0  0  0  0  0
  -21.8662  -25.7427   17.4006 C   0  0  0  0  0  0  0  0  0  0  0  0
  -23.3912  -24.6933   14.5335 C   0  0  0  0  0  0  0  0  0  0  0  0
  -27.1769  -21.3227   17.5401 C   0  0  0  0  0  0  0  0  0  0  0  0
  -17.8233  -27.8782   22.9042 C   0  0  0  0  0  0  0  0  0  0  0  0
  -23.7281  -28.3439   19.2392 C   0  0  0  0  0  0  0  0  0  0  0  0
  -24.1524  -25.5270   18.4457 C   0  0  0  0  0  0  0  0  0  0  0  0
  -18.2536  -26.8707   21.8411 C   0  0  0  0  0  0  0  0  0  0  0  0
  -25.7412  -20.4833   20.6883 C   0  0  0  0  0  0  0  0  0  0  0  0
  -19.5357  -26.1615   22.2657 C   0  0  0  0  0  0  0  0  0  0  0  0
  -26.2832  -19.0803   20.9714 C   0  0  0  0  0  0  0  0  0  0  0  0
  -25.4439  -20.6875   19.2039 C   0  0  0  0  0  0  0  0  0  0  0  0
  -27.0994  -18.9724   18.5821 C   0  0  0  0  0  0  0  0  0  0  0  0
  -20.6905  -27.1578   22.4248 C   0  0  1  0  0  0  0  0  0  0  0  0
  -22.5696  -27.3574   19.1290 C   0  0  1  0  0  0  0  0  0  0  0  0
  -27.4749  -18.7410   20.0548 C   0  0  2  0  0  0  0  0  0  0  0  0
  -22.8809  -23.8748   12.2168 C   0  0  0  0  0  0  0  0  0  0  0  0
  -21.0912  -23.0188   18.5362 C   0  0  0  0  0  0  0  0  0  0  0  0
  -21.5227  -22.0315   16.2763 C   0  0  0  0  0  0  0  0  0  0  0  0
  -19.7379  -23.7503   16.5645 C   0  0  0  0  0  0  0  0  0  0  0  0
  -24.8156  -26.9701   13.2902 C   0  0  0  0  0  0  0  0  0  0  0  0
  -31.9978  -25.8142   19.5775 C   0  0  0  0  0  0  0  0  0  0  0  0
  -29.7907  -26.6755   20.6291 C   0  0  0  0  0  0  0  0  0  1  0  0
  -22.1642  -24.4522   16.6761 C   0  0  1  0  0  0  0  0  0  0  0  0
  -23.1874  -25.0875   13.0818 C   0  0  2  0  0  0  0  0  0  0  0  0
  -21.1494  -23.3277   17.0269 C   0  0  0  0  0  0  0  0  0  0  0  0
  -27.1167  -16.3790   20.6664 N   0  0  0  0  0  0  0  0  0  0  0  0
  -31.2937  -25.1345   21.7879 N   0  0  0  0  0  0  0  0  0  0  0  0
  -27.9875  -17.3336   20.2970 N   0  0  0  0  0  0  0  0  0  0  0  0
  -22.8720  -26.2265   18.2492 N   0  0  0  0  0  0  0  0  0  0  0  0
  -26.6192  -20.3508   18.3976 N   0  0  0  0  0  0  0  0  0  0  0  0
  -30.2751  -17.7216   19.8205 N   0  0  0  0  0  0  0  0  0  0  0  0
  -30.1589  -13.3295   20.8655 N   0  0  0  0  0  0  0  0  0  0  0  0
  -28.3112  -20.8986   16.8485 N   0  0  0  0  0  0  0  0  0  0  0  0
  -31.5832  -24.7023   18.7388 N   0  0  0  0  0  0  0  0  0  0  0  0
  -21.2190  -27.5300   21.1300 N   0  0  0  0  0  0  0  0  0  0  0  0
  -22.2208  -24.7846   15.2567 N   0  0  0  0  0  0  0  0  0  0  0  0
  -31.1674  -26.0062   16.8229 N   0  3  0  0  0  0  0  0  0  0  0  0
  -24.4117  -25.7484   12.5477 N   0  3  0  0  0  0  0  0  0  0  0  0
  -31.5299  -15.0608   20.2477 O   0  0  0  0  0  0  0  0  0  0  0  0
  -22.6798  -25.7391   20.8448 O   0  0  0  0  0  0  0  0  0  0  0  0
  -20.7839  -26.3045   17.2147 O   0  0  0  0  0  0  0  0  0  0  0  0
  -24.4791  -24.3362   14.9804 O   0  0  0  0  0  0  0  0  0  0  0  0
  -26.7007  -22.4570   17.4481 O   0  0  0  0  0  0  0  0  0  0  0  0
  -25.6412  -10.4056   22.3066 O   0  0  0  0  0  0  0  0  0  0  0  0
  -28.7642  -25.8771   20.0415 O   0  0  0  0  0  0  0  0  0  1  0  0
  -20.9377   -8.8799   19.8667 F   0  0  0  0  0  0  0  0  0  0  0  0
  -29.7726  -20.2430   14.5703 F   0  0  0  0  0  0  0  0  0  0  0  0
  -25.4964   -8.0635   20.8450 F   0  0  0  0  0  0  0  0  0  0  0  0
  -29.0752  -23.1832   18.2304 F   0  0  0  0  0  0  0  0  0  0  0  0
  1  2  1  0  0  0  0
  1  6  2  0  0  0  0
  2  7  2  0  0  0  0
  3  9  2  0  0  0  0
  3 17  1  0  0  0  0
  4 10  1  0  0  0  0
  4 17  2  0  0  0  0
  5 13  2  0  0  0  0
  5 18  1  0  0  0  0
  6 20  1  0  0  0  0
  7 22  1  0  0  0  0
  8 11  2  0  0  0  0
  8 21  1  0  0  0  0
  9 25  1  0  0  0  0
 10 25  2  0  0  0  0
 11 26  1  0  0  0  0
 12 14  2  0  0  0  0
 12 27  1  0  0  0  0
 13 29  1  0  0  0  0
 14 28  1  0  0  0  0
 15 23  1  0  0  0  0
 15 26  2  0  0  0  0
 16 28  2  0  0  0  0
 16 30  1  0  0  0  0
 17 32  1  0  0  0  0
 18 31  2  0  0  0  0
 18 34  1  0  0  0  0
 19 32  1  0  0  0  0
 19 33  2  0  0  0  0
 19 35  1  0  0  0  0
 20 22  2  0  0  0  0
 20 41  1  0  0  0  0
 21 23  2  0  0  0  0
 21 42  1  0  0  0  0
 22 50  1  0  0  0  0
 23 43  1  0  0  0  0
 24 29  2  0  0  0  0
 24 31  1  0  0  0  0
 24 70  1  0  0  0  0
 25 81  1  0  0  0  0
 26 82  1  0  0  0  0
 27 30  2  0  0  0  0
 27 81  1  0  0  0  0
 28 83  1  0  0  0  0
 29 84  1  0  0  0  0
 30 85  1  0  0  0  0
 31 86  1  0  0  0  0
 32 63  2  0  0  0  0
 33 65  1  0  0  0  0
 33 68  1  0  0  0  0
 34 71  1  0  0  0  0
 34 74  2  0  0  0  0
 35 69  1  0  0  0  0
 35 76  2  0  0  0  0
 36 51  1  0  0  0  0
 36 72  1  0  0  0  0
 36 77  2  0  0  0  0
 37 58  1  0  0  0  0
 37 59  1  0  0  0  0
 37 64  2  0  0  0  0
 38 60  1  0  0  0  0
 38 66  1  0  0  0  0
 38 78  2  0  0  0  0
 39 61  1  0  0  0  0
 39 73  1  0  0  0  0
 39 79  2  0  0  0  0
 40 67  1  0  0  0  0
 40 70  1  0  0  0  0
 40 80  2  0  0  0  0
 41 44  1  0  0  0  0
 42 51  1  0  0  0  0
 43 66  1  0  0  0  0
 44 46  1  0  0  0  0
 45 47  1  0  0  0  0
 45 48  1  0  0  0  0
 46 50  1  0  0  0  0
 47 52  1  0  0  0  0
 48 67  1  0  0  0  0
 49 52  1  0  0  0  0
 49 67  1  0  0  0  0
 50 72  1  0  0  0  0
 51 66  1  0  0  0  0
 52 65  1  0  0  0  0
 53 61  1  0  0  0  0
 54 62  1  0  0  0  0
 55 62  1  0  0  0  0
 56 62  1  0  0  0  0
 57 75  1  0  0  0  0
 58 71  1  0  0  0  0
 59 82  1  0  0  0  0
 60 62  1  0  0  0  0
 60 73  1  0  0  0  0
 61 75  1  0  0  0  0
 63 65  1  0  0  0  0
M  CHG  2  74   1  75   1
M  ISO  4  40 100  59 101  70 100  82 101
M  END
> <Batch ID>
0164

> <Smiles>
CNC(C)C(=O)NC(C(=O)N1Cc2cc([101O:1][101CH2:1]C(=N)CNC(=N)c3ccc(F)c([100NH:0][100C:0](=O)N4CCCC(n5nc(-c6ccc(Oc7ccc(F)cc7F)cc6)c(C(N)=O)c5N)C4)c3F)ccc2CC1C(=O)NC1CCCc2ccccc21)C(C)(C)C

> <Shape>
0.247

> <Color>
0.078

> <Negative vol penalty>
0.000

$$$$

  -OEChem-04052304023D

 85 93  0     1  0  0  0  0  0999 V2000
  -26.0488  -37.9939   24.3839 C   0  0  0  0  0  0  0  0  0  0  0  0
  -26.7977  -37.2657   23.4651 C   0  0  0  0  0  0  0  0  0  0  0  0
  -22.5894  -10.3905   20.6108 C   0  0  0  0  0  0  0  0  0  0  0  0
  -24.3301   -9.5089   22.0355 C   0  0  0  0  0  0  0  0  0  0  0  0
  -25.3187  -37.3300   25.3689 C   0  0  0  0  0  0  0  0  0  0  0  0
  -26.8178  -35.8730   23.5313 C   0  0  0  0  0  0  0  0  0  0  0  0
  -27.2763  -30.0900   19.3287 C   0  0  0  0  0  0  0  0  0  0  0  0
  -22.0047   -9.1260   20.5426 C   0  0  0  0  0  0  0  0  0  0  0  0
  -23.7453   -8.2444   21.9674 C   0  0  0  0  0  0  0  0  0  0  0  0
  -28.0120  -28.9136   19.1918 C   0  0  0  0  0  0  0  0  0  0  0  0
  -21.1423   -6.6257   23.3903 C   0  0  0  0  0  0  0  0  0  0  0  0
  -21.0173   -5.9064   24.5788 C   0  0  0  0  0  0  0  0  0  0  0  0
  -28.7004  -20.4023   22.5197 C   0  0  0  0  0  0  0  0  0  0  0  0
  -26.6488  -27.8710   20.8872 C   0  0  0  0  0  0  0  0  0  0  0  0
  -22.3845   -4.1418   23.6545 C   0  0  0  0  0  0  0  0  0  0  0  0
  -23.7521  -10.5820   21.3571 C   0  0  0  0  0  0  0  0  0  0  0  0
  -28.9657  -19.0591   22.9144 C   0  0  0  0  0  0  0  0  0  0  0  0
  -24.0939  -12.8968   22.3734 C   0  0  0  0  0  0  0  0  0  0  0  0
  -25.3222  -35.9281   25.4413 C   0  0  0  0  0  0  0  0  0  0  0  0
  -26.2266  -30.1693   20.2551 C   0  0  0  0  0  0  0  0  0  0  0  0
  -26.0882  -35.1897   24.5190 C   0  0  0  0  0  0  0  0  0  0  0  0
  -25.8998  -29.0487   21.0320 C   0  0  0  0  0  0  0  0  0  0  0  0
  -22.5826   -8.0529   21.2210 C   0  0  0  0  0  0  0  0  0  0  0  0
  -27.7002  -27.8048   19.9731 C   0  0  0  0  0  0  0  0  0  0  0  0
  -21.8884   -6.1032   22.3339 C   0  0  0  0  0  0  0  0  0  0  0  0
  -21.6384   -4.6644   24.7109 C   0  0  0  0  0  0  0  0  0  0  0  0
  -22.5095   -4.8612   22.4660 C   0  0  0  0  0  0  0  0  0  0  0  0
  -24.3569  -11.8879   21.4274 C   0  0  0  0  0  0  0  0  0  0  0  0
  -30.0198  -18.5131   22.2157 C   0  0  0  0  0  0  0  0  0  0  0  0
  -24.9184  -13.9329   22.0086 C   0  0  0  0  0  0  0  0  0  0  0  0
  -29.5622  -20.8317   21.5343 C   0  0  0  0  0  0  0  0  0  0  0  0
  -28.2340  -18.3347   23.9214 C   0  0  0  0  0  0  0  0  0  0  0  0
  -23.1856  -12.8972   23.4827 C   0  0  0  0  0  0  0  0  0  0  0  0
  -25.6398  -31.9318   22.8345 C   0  0  0  0  0  0  0  0  0  0  0  0
  -28.9452  -24.3644   20.4291 C   0  0  0  0  0  0  0  0  0  0  0  0
  -22.7626  -30.4381   22.7220 C   0  0  0  0  0  0  0  0  0  0  0  0
  -20.9359  -27.7416   21.7026 C   0  0  0  0  0  0  0  0  0  0  0  0
  -29.8923  -15.8405   20.3451 C   0  0  0  0  0  0  0  0  0  0  0  0
  -24.5552  -35.2567   26.5528 C   0  0  0  0  0  0  0  0  0  0  0  0
  -25.4255  -31.4370   20.3717 C   0  0  0  0  0  0  0  0  0  0  0  0
  -24.7692  -29.0759   22.0268 C   0  0  0  0  0  0  0  0  0  0  0  0
  -24.3305  -33.7644   26.3229 C   0  0  0  0  0  0  0  0  0  0  0  0
  -27.6842  -14.6251   17.8303 C   0  0  0  0  0  0  0  0  0  0  0  0
  -25.6242  -33.0929   25.8732 C   0  0  0  0  0  0  0  0  0  0  0  0
  -26.6042  -13.8830   18.6194 C   0  0  0  0  0  0  0  0  0  0  0  0
  -29.0629  -14.4569   18.4651 C   0  0  0  0  0  0  0  0  0  0  0  0
  -28.0556  -14.0771   20.6821 C   0  0  0  0  0  0  0  0  0  0  0  0
  -26.1155  -33.6768   24.5431 C   0  0  1  0  0  0  0  0  0  0  0  0
  -24.7089  -31.5698   21.7119 C   0  0  1  0  0  0  0  0  0  0  0  0
  -26.6391  -14.2634   20.1119 C   0  0  2  0  0  0  0  0  0  0  0  0
  -27.6250  -19.1197   25.0555 C   0  0  0  0  0  0  0  0  0  0  0  0
  -18.6176  -26.7852   21.7917 C   0  0  0  0  0  0  0  0  0  0  0  0
  -23.2145  -29.6196   25.6265 C   0  0  0  0  0  0  0  0  0  0  0  0
  -21.3918  -27.9242   25.3594 C   0  0  0  0  0  0  0  0  0  0  0  0
  -20.8820  -30.3522   25.1000 C   0  0  0  0  0  0  0  0  0  0  0  0
  -20.6777  -27.7896   18.7547 C   0  0  0  0  0  0  0  0  0  0  0  0
  -30.6083  -17.1583   22.3224 C   0  0  0  0  0  0  0  0  0  0  0  0
  -28.6516  -23.1396   21.2691 C   0  0  0  0  0  0  0  0  0  0  0  0
  -28.0432  -25.5583   20.6743 C   0  0  0  0  0  0  0  0  0  1  0  0
  -22.1970  -29.1624   23.2980 C   0  0  1  0  0  0  0  0  0  0  0  0
  -19.5939  -27.6414   21.0002 C   0  0  2  0  0  0  0  0  0  0  0  0
  -21.9440  -29.2644   24.8287 C   0  0  0  0  0  0  0  0  0  0  0  0
  -25.2765  -12.2504   20.5291 N   0  0  0  0  0  0  0  0  0  0  0  0
  -25.5984  -13.4987   20.9089 N   0  0  0  0  0  0  0  0  0  0  0  0
  -24.0195  -30.3403   22.1085 N   0  0  0  0  0  0  0  0  0  0  0  0
  -29.0280  -14.8358   19.8797 N   0  0  0  0  0  0  0  0  0  0  0  0
  -25.1208  -15.1639   22.5243 N   0  0  0  0  0  0  0  0  0  0  0  0
  -22.4138  -11.7505   23.7148 N   0  0  0  0  0  0  0  0  0  0  0  0
  -29.5714  -22.0827   20.9342 N   0  0  0  0  0  0  0  0  0  0  0  0
  -25.3477  -33.1387   23.4406 N   0  0  0  0  0  0  0  0  0  0  0  0
  -21.0056  -28.8538   22.5146 N   0  0  0  0  0  0  0  0  0  0  0  0
  -29.7902  -16.1430   21.6974 N   0  0  0  0  0  0  0  0  0  0  0  0
  -19.7606  -27.0365   19.6485 N   0  3  0  0  0  0  0  0  0  0  0  0
  -28.0613  -17.1060   23.9427 O   0  0  0  0  0  0  0  0  0  0  0  0
  -23.0500  -13.8912   24.2357 O   0  0  0  0  0  0  0  0  0  0  0  0
  -26.5544  -31.1716   23.1299 O   0  0  0  0  0  0  0  0  0  0  0  0
  -29.8529  -24.4000   19.5992 O   0  0  0  0  0  0  0  0  0  0  0  0
  -22.1098  -31.4813   22.8068 O   0  0  0  0  0  0  0  0  0  0  0  0
  -21.8314  -26.9139   21.5493 O   0  0  0  0  0  0  0  0  0  0  0  0
  -30.6917  -16.4284   19.6087 O   0  0  0  0  0  0  0  0  0  0  0  0
  -22.0122   -6.8189   21.1549 O   0  0  0  0  0  0  0  0  0  0  0  0
  -28.4170  -26.6556   19.8420 O   0  0  0  0  0  0  0  0  0  1  0  0
  -21.5196   -3.9744   25.8528 F   0  0  0  0  0  0  0  0  0  0  0  0
  -23.2285   -4.3546   21.4550 F   0  0  0  0  0  0  0  0  0  0  0  0
  -30.6850  -19.6179   21.0891 S   0  0  0  0  0  0  0  0  0  0  0  0
  1  2  1  0  0  0  0
  1  5  2  0  0  0  0
  2  6  2  0  0  0  0
  3  8  2  0  0  0  0
  3 16  1  0  0  0  0
  4  9  1  0  0  0  0
  4 16  2  0  0  0  0
  5 19  1  0  0  0  0
  6 21  1  0  0  0  0
  7 10  2  0  0  0  0
  7 20  1  0  0  0  0
  8 23  1  0  0  0  0
  9 23  2  0  0  0  0
 10 24  1  0  0  0  0
 11 12  2  0  0  0  0
 11 25  1  0  0  0  0
 12 26  1  0  0  0  0
 13 17  1  0  0  0  0
 13 31  2  0  0  0  0
 14 22  1  0  0  0  0
 14 24  2  0  0  0  0
 15 26  2  0  0  0  0
 15 27  1  0  0  0  0
 16 28  1  0  0  0  0
 17 29  2  0  0  0  0
 17 32  1  0  0  0  0
 18 28  1  0  0  0  0
 18 30  2  0  0  0  0
 18 33  1  0  0  0  0
 19 21  2  0  0  0  0
 19 39  1  0  0  0  0
 20 22  2  0  0  0  0
 20 40  1  0  0  0  0
 21 48  1  0  0  0  0
 22 41  1  0  0  0  0
 23 81  1  0  0  0  0
 24 82  1  0  0  0  0
 25 27  2  0  0  0  0
 25 81  1  0  0  0  0
 26 83  1  0  0  0  0
 27 84  1  0  0  0  0
 28 63  2  0  0  0  0
 29 57  1  0  0  0  0
 29 85  1  0  0  0  0
 30 64  1  0  0  0  0
 30 67  1  0  0  0  0
 31 69  1  0  0  0  0
 31 85  1  0  0  0  0
 32 51  1  0  0  0  0
 32 74  2  0  0  0  0
 33 68  1  0  0  0  0
 33 75  2  0  0  0  0
 34 49  1  0  0  0  0
 34 70  1  0  0  0  0
 34 76  2  0  0  0  0
 35 58  1  0  0  0  0
 35 59  1  0  0  0  0
 35 77  2  0  0  0  0
 36 60  1  0  0  0  0
 36 65  1  0  0  0  0
 36 78  2  0  0  0  0
 37 61  1  0  0  0  0
 37 71  1  0  0  0  0
 37 79  2  0  0  0  0
 38 66  1  0  0  0  0
 38 72  1  0  0  0  0
 38 80  2  0  0  0  0
 39 42  1  0  0  0  0
 40 49  1  0  0  0  0
 41 65  1  0  0  0  0
 42 44  1  0  0  0  0
 43 45  1  0  0  0  0
 43 46  1  0  0  0  0
 44 48  1  0  0  0  0
 45 50  1  0  0  0  0
 46 66  1  0  0  0  0
 47 50  1  0  0  0  0
 47 66  1  0  0  0  0
 48 70  1  0  0  0  0
 49 65  1  0  0  0  0
 50 64  1  0  0  0  0
 52 61  1  0  0  0  0
 53 62  1  0  0  0  0
 54 62  1  0  0  0  0
 55 62  1  0  0  0  0
 56 73  1  0  0  0  0
 57 72  1  0  0  0  0
 58 69  1  0  0  0  0
 59 82  1  0  0  0  0
 60 62  1  0  0  0  0
 60 71  1  0  0  0  0
 61 73  1  0  0  0  0
 63 64  1  0  0  0  0
M  CHG  1  73   1
M  ISO  4  38 100  59 101  72 100  82 101
M  END
> <Batch ID>
0164

> <Smiles>
CNC(C)C(=O)NC(C(=O)N1Cc2cc([101O:1][101CH2:1]C(=O)CNc3cc(C(C)=O)c(C[100NH:0][100C:0](=O)N4CCCC(n5nc(-c6ccc(Oc7ccc(F)cc7F)cc6)c(C(N)=O)c5N)C4)s3)ccc2CC1C(=O)NC1CCCc2ccccc21)C(C)(C)C

> <Shape>
0.374

> <Color>
0.141

> <Negative vol penalty>
0.000

$$$$

  -OEChem-04052304023D

 90 98  0     1  0  0  0  0  0999 V2000
  -33.2798  -17.3838   16.4142 C   0  0  0  0  0  0  0  0  0  0  0  0
  -32.3788  -17.8489   17.3667 C   0  0  0  0  0  0  0  0  0  0  0  0
  -23.0762   -9.8661   19.9423 C   0  0  0  0  0  0  0  0  0  0  0  0
  -23.8351   -9.8754   22.2360 C   0  0  0  0  0  0  0  0  0  0  0  0
  -34.5922  -17.8545   16.4093 C   0  0  0  0  0  0  0  0  0  0  0  0
  -32.7900  -18.7843   18.3156 C   0  0  0  0  0  0  0  0  0  0  0  0
  -29.4342  -22.5256   18.9368 C   0  0  0  0  0  0  0  0  0  0  0  0
  -22.3324   -8.7130   20.1930 C   0  0  0  0  0  0  0  0  0  0  0  0
  -23.0913   -8.7223   22.4868 C   0  0  0  0  0  0  0  0  0  0  0  0
  -28.3071  -22.2482   19.7092 C   0  0  0  0  0  0  0  0  0  0  0  0
  -19.8630   -7.9245   23.0887 C   0  0  0  0  0  0  0  0  0  0  0  0
  -19.1056   -7.8855   24.2593 C   0  0  0  0  0  0  0  0  0  0  0  0
  -29.3326  -23.3542   21.5919 C   0  0  0  0  0  0  0  0  0  0  0  0
  -29.8762  -17.4601   23.1355 C   0  0  0  0  0  0  0  0  0  0  0  0
  -32.0610  -16.6121   22.5483 C   0  0  0  0  0  0  0  0  0  0  0  0
  -20.3470   -5.9490   24.9981 C   0  0  0  0  0  0  0  0  0  0  0  0
  -23.8276  -10.4472   20.9638 C   0  0  0  0  0  0  0  0  0  0  0  0
  -24.1690  -12.9723   20.8415 C   0  0  0  0  0  0  0  0  0  0  0  0
  -35.0171  -18.8033   17.3526 C   0  0  0  0  0  0  0  0  0  0  0  0
  -30.5252  -23.2109   19.4902 C   0  0  0  0  0  0  0  0  0  0  0  0
  -34.1097  -19.2671   18.3241 C   0  0  0  0  0  0  0  0  0  0  0  0
  -30.4713  -23.6413   20.8236 C   0  0  0  0  0  0  0  0  0  0  0  0
  -31.8486  -18.3645   24.1980 C   0  0  0  0  0  0  0  0  0  0  0  0
  -30.6752  -16.5934   22.3899 C   0  0  0  0  0  0  0  0  0  0  0  0
  -30.4629  -18.3457   24.0395 C   0  0  0  0  0  0  0  0  0  0  0  0
  -22.3399   -8.1411   21.4653 C   0  0  0  0  0  0  0  0  0  0  0  0
  -28.2574  -22.6600   21.0378 C   0  0  0  0  0  0  0  0  0  0  0  0
  -20.8624   -6.9757   22.8727 C   0  0  0  0  0  0  0  0  0  0  0  0
  -19.3476   -6.8978   25.2140 C   0  0  0  0  0  0  0  0  0  0  0  0
  -21.1045   -5.9880   23.8274 C   0  0  0  0  0  0  0  0  0  0  0  0
  -32.6477  -17.4977   23.4524 C   0  0  0  0  0  0  0  0  0  0  0  0
  -24.5966  -11.6380   20.7052 C   0  0  0  0  0  0  0  0  0  0  0  0
  -25.2612  -13.7217   20.4780 C   0  0  0  0  0  0  0  0  0  0  0  0
  -22.8982  -13.4883   21.2594 C   0  0  0  0  0  0  0  0  0  0  0  0
  -33.5842  -22.5160   20.0038 C   0  0  0  0  0  0  0  0  0  0  0  0
  -26.3188  -21.2646   23.7646 C   0  0  0  0  0  0  0  0  0  0  0  0
  -33.7375  -25.6297   20.9002 C   0  0  0  0  0  0  0  0  0  0  0  0
  -28.2485  -19.3131   24.7372 C   0  0  0  0  0  0  0  0  0  0  0  0
  -32.1076  -28.3938   22.0620 C   0  0  0  0  0  0  0  0  0  0  0  0
  -30.7271  -14.7684   20.6540 C   0  0  0  0  0  0  0  0  0  0  0  0
  -36.4584  -19.2472   17.3371 C   0  0  0  0  0  0  0  0  0  0  0  0
  -31.7226  -23.5258   18.6360 C   0  0  0  0  0  0  0  0  0  0  0  0
  -31.6078  -24.3981   21.4593 C   0  0  0  0  0  0  0  0  0  0  0  0
  -36.7129  -20.5182   18.1434 C   0  0  0  0  0  0  0  0  0  0  0  0
  -29.6141  -12.3522   18.2876 C   0  0  0  0  0  0  0  0  0  0  0  0
  -36.0316  -20.4319   19.5054 C   0  0  0  0  0  0  0  0  0  0  0  0
  -28.1744  -12.0607   18.7168 C   0  0  0  0  0  0  0  0  0  0  0  0
  -30.5287  -12.5823   19.4894 C   0  0  0  0  0  0  0  0  0  0  0  0
  -28.6210  -13.3077   20.8691 C   0  0  0  0  0  0  0  0  0  0  0  0
  -34.5113  -20.3003   19.3544 C   0  0  1  0  0  0  0  0  0  0  0  0
  -32.9875  -23.7791   19.4504 C   0  0  1  0  0  0  0  0  0  0  0  0
  -27.6487  -13.1331   19.6911 C   0  0  2  0  0  0  0  0  0  0  0  0
  -32.5159  -20.7426   24.6288 C   0  0  0  0  0  0  0  0  0  0  0  0
  -32.5058  -30.7791   22.7323 C   0  0  0  0  0  0  0  0  0  0  0  0
  -26.1217  -22.2756   26.0657 C   0  0  0  0  0  0  0  0  0  0  0  0
  -25.2016  -20.0084   25.6405 C   0  0  0  0  0  0  0  0  0  0  0  0
  -34.9726  -24.6834   23.5249 C   0  0  0  0  0  0  0  0  0  0  0  0
  -34.4696  -26.9367   24.4934 C   0  0  0  0  0  0  0  0  0  0  0  0
  -36.0268  -26.7335   22.5553 C   0  0  0  0  0  0  0  0  0  0  0  0
  -30.2817  -29.4093   19.9659 C   0  0  0  0  0  0  0  0  0  0  0  0
  -32.4670  -19.3197   25.1724 C   0  0  0  0  0  0  0  0  0  0  0  0
  -27.3626  -22.2125   23.1953 C   0  0  0  0  0  0  0  0  0  1  0  0
  -27.7149  -20.3731   25.6938 C   0  0  0  0  0  0  0  0  0  0  0  0
  -33.5493  -26.3795   22.1969 C   0  0  1  0  0  0  0  0  0  0  0  0
  -32.1211  -29.8397   21.5999 C   0  0  2  0  0  0  0  0  0  0  0  0
  -26.3505  -20.9706   25.2808 C   0  0  0  0  0  0  0  0  0  0  0  0
  -34.7338  -26.1673   23.1815 C   0  0  0  0  0  0  0  0  0  0  0  0
  -25.8616  -11.5420   20.2876 N   0  0  0  0  0  0  0  0  0  0  0  0
  -26.2383  -12.8255   20.1582 N   0  0  0  0  0  0  0  0  0  0  0  0
  -32.7591  -24.6763   20.5849 N   0  0  0  0  0  0  0  0  0  0  0  0
  -29.9692  -13.6138   20.3655 N   0  0  0  0  0  0  0  0  0  0  0  0
  -25.4714  -15.0531   20.4038 N   0  0  0  0  0  0  0  0  0  0  0  0
  -21.8863  -12.5793   21.5971 N   0  0  0  0  0  0  0  0  0  0  0  0
  -29.6327  -19.2155   24.7846 N   0  0  0  0  0  0  0  0  0  0  0  0
  -30.0792  -15.6941   21.4713 N   0  0  0  0  0  0  0  0  0  0  0  0
  -33.9215  -21.5842   19.0409 N   0  0  0  0  0  0  0  0  0  0  0  0
  -33.3172  -27.7730   21.8328 N   0  0  0  0  0  0  0  0  0  0  0  0
  -30.7750  -30.2356   21.0976 N   0  3  0  0  0  0  0  0  0  0  0  0
  -22.6617  -14.7189   21.3154 O   0  0  0  0  0  0  0  0  0  0  0  0
  -33.7291  -22.3964   21.2148 O   0  0  0  0  0  0  0  0  0  0  0  0
  -25.4935  -20.7263   23.0225 O   0  0  0  0  0  0  0  0  0  0  0  0
  -34.7128  -25.8859   20.1897 O   0  0  0  0  0  0  0  0  0  0  0  0
  -27.4769  -18.6689   24.0316 O   0  0  0  0  0  0  0  0  0  0  0  0
  -31.1236  -27.8688   22.5784 O   0  0  0  0  0  0  0  0  0  0  0  0
  -31.8564  -14.9369   20.1867 O   0  0  0  0  0  0  0  0  0  0  0  0
  -21.6141   -7.0161   21.7104 O   0  0  0  0  0  0  0  0  0  0  0  0
  -27.1588  -22.3900   21.7941 O   0  0  0  0  0  0  0  0  0  1  0  0
  -18.6212   -6.8615   26.3388 F   0  0  0  0  0  0  0  0  0  0  0  0
  -22.0640   -5.0745   23.6261 F   0  0  0  0  0  0  0  0  0  0  0  0
  -34.3665  -17.4893   23.6185 Cl  0  0  0  0  0  0  0  0  0  0  0  0
  1  2  1  0  0  0  0
  1  5  2  0  0  0  0
  2  6  2  0  0  0  0
  3  8  2  0  0  0  0
  3 17  1  0  0  0  0
  4  9  1  0  0  0  0
  4 17  2  0  0  0  0
  5 19  1  0  0  0  0
  6 21  1  0  0  0  0
  7 10  2  0  0  0  0
  7 20  1  0  0  0  0
  8 26  1  0  0  0  0
  9 26  2  0  0  0  0
 10 27  1  0  0  0  0
 11 12  2  0  0  0  0
 11 28  1  0  0  0  0
 12 29  1  0  0  0  0
 13 22  1  0  0  0  0
 13 27  2  0  0  0  0
 14 24  2  0  0  0  0
 14 25  1  0  0  0  0
 15 24  1  0  0  0  0
 15 31  2  0  0  0  0
 16 29  2  0  0  0  0
 16 30  1  0  0  0  0
 17 32  1  0  0  0  0
 18 32  1  0  0  0  0
 18 33  2  0  0  0  0
 18 34  1  0  0  0  0
 19 21  2  0  0  0  0
 19 41  1  0  0  0  0
 20 22  2  0  0  0  0
 20 42  1  0  0  0  0
 21 50  1  0  0  0  0
 22 43  1  0  0  0  0
 23 25  2  0  0  0  0
 23 31  1  0  0  0  0
 23 61  1  0  0  0  0
 24 75  1  0  0  0  0
 25 74  1  0  0  0  0
 26 86  1  0  0  0  0
 27 87  1  0  0  0  0
 28 30  2  0  0  0  0
 28 86  1  0  0  0  0
 29 88  1  0  0  0  0
 30 89  1  0  0  0  0
 31 90  1  0  0  0  0
 32 68  2  0  0  0  0
 33 69  1  0  0  0  0
 33 72  1  0  0  0  0
 34 73  1  0  0  0  0
 34 79  2  0  0  0  0
 35 51  1  0  0  0  0
 35 76  1  0  0  0  0
 35 80  2  0  0  0  0
 36 62  1  0  0  0  0
 36 66  1  0  0  0  0
 36 81  2  0  0  0  0
 37 64  1  0  0  0  0
 37 70  1  0  0  0  0
 37 82  2  0  0  0  0
 38 63  1  0  0  0  0
 38 74  1  0  0  0  0
 38 83  2  0  0  0  0
 39 65  1  0  0  0  0
 39 77  1  0  0  0  0
 39 84  2  0  0  0  0
 40 71  1  0  0  0  0
 40 75  1  0  0  0  0
 40 85  2  0  0  0  0
 41 44  1  0  0  0  0
 42 51  1  0  0  0  0
 43 70  1  0  0  0  0
 44 46  1  0  0  0  0
 45 47  1  0  0  0  0
 45 48  1  0  0  0  0
 46 50  1  0  0  0  0
 47 52  1  0  0  0  0
 48 71  1  0  0  0  0
 49 52  1  0  0  0  0
 49 71  1  0  0  0  0
 50 76  1  0  0  0  0
 51 70  1  0  0  0  0
 52 69  1  0  0  0  0
 53 61  1  0  0  0  0
 54 65  1  0  0  0  0
 55 66  1  0  0  0  0
 56 66  1  0  0  0  0
 57 67  1  0  0  0  0
 58 67  1  0  0  0  0
 59 67  1  0  0  0  0
 60 78  1  0  0  0  0
 62 87  1  0  0  0  0
 63 66  1  0  0  0  0
 64 67  1  0  0  0  0
 64 77  1  0  0  0  0
 65 78  1  0  0  0  0
 68 69  1  0  0  0  0
M  CHG  1  78   1
M  ISO  4  40 100  62 101  75 100  87 101
M  END
> <Batch ID>
0164

> <Smiles>
CCc1c(Cl)cc([100NH:0][100C:0](=O)N2CCCC(n3nc(-c4ccc(Oc5ccc(F)cc5F)cc4)c(C(N)=O)c3N)C2)cc1NC(=O)CC(C)(C)C(=O)[101CH2:1][101O:1]c1ccc2c(c1)CN(C(=O)C(NC(=O)C(C)NC)C(C)(C)C)C(C(=O)NC1CCCc3ccccc31)C2

> <Shape>
0.205

> <Color>
0.180

> <Negative vol penalty>
0.000

$$$$

  -OEChem-04052304023D

 86 94  0     1  0  0  0  0  0999 V2000
  -35.6852  -14.2144   23.9330 C   0  0  0  0  0  0  0  0  0  0  0  0
  -35.2127  -15.1443   23.0125 C   0  0  0  0  0  0  0  0  0  0  0  0
  -23.0766   -9.8665   19.9410 C   0  0  0  0  0  0  0  0  0  0  0  0
  -23.8354   -9.8745   22.2348 C   0  0  0  0  0  0  0  0  0  0  0  0
  -35.9542  -14.6071   25.2435 C   0  0  0  0  0  0  0  0  0  0  0  0
  -35.0078  -16.4674   23.4023 C   0  0  0  0  0  0  0  0  0  0  0  0
  -35.8337  -21.4821   19.9853 C   0  0  0  0  0  0  0  0  0  0  0  0
  -31.3174  -19.0813   20.6009 C   0  0  0  0  0  0  0  0  0  0  0  0
  -31.1489  -17.6967   20.5978 C   0  0  0  0  0  0  0  0  0  0  0  0
  -22.3331   -8.7131   20.1910 C   0  0  0  0  0  0  0  0  0  0  0  0
  -23.0918   -8.7211   22.4847 C   0  0  0  0  0  0  0  0  0  0  0  0
  -34.9485  -22.2817   19.2636 C   0  0  0  0  0  0  0  0  0  0  0  0
  -19.8637   -7.9222   23.0860 C   0  0  0  0  0  0  0  0  0  0  0  0
  -19.1062   -7.8823   24.2565 C   0  0  0  0  0  0  0  0  0  0  0  0
  -34.8057  -23.8000   21.1327 C   0  0  0  0  0  0  0  0  0  0  0  0
  -20.3480   -5.9456   24.9941 C   0  0  0  0  0  0  0  0  0  0  0  0
  -23.8278  -10.4471   20.9629 C   0  0  0  0  0  0  0  0  0  0  0  0
  -24.1687  -12.9724   20.8423 C   0  0  0  0  0  0  0  0  0  0  0  0
  -35.7617  -15.9378   25.6470 C   0  0  0  0  0  0  0  0  0  0  0  0
  -36.2038  -21.8303   21.2923 C   0  0  0  0  0  0  0  0  0  0  0  0
  -35.2732  -16.8780   24.7198 C   0  0  0  0  0  0  0  0  0  0  0  0
  -35.6978  -23.0045   21.8679 C   0  0  0  0  0  0  0  0  0  0  0  0
  -30.5854  -19.8710   21.4875 C   0  0  0  0  0  0  0  0  0  0  0  0
  -30.2483  -17.1017   21.4814 C   0  0  0  0  0  0  0  0  0  0  0  0
  -29.6848  -19.2761   22.3711 C   0  0  0  0  0  0  0  0  0  0  0  0
  -22.3407   -8.1404   21.4628 C   0  0  0  0  0  0  0  0  0  0  0  0
  -34.4321  -23.4393   19.8384 C   0  0  0  0  0  0  0  0  0  0  0  0
  -20.8633   -6.9737   22.8694 C   0  0  0  0  0  0  0  0  0  0  0  0
  -19.3484   -6.8941   25.2106 C   0  0  0  0  0  0  0  0  0  0  0  0
  -21.1055   -5.9855   23.8235 C   0  0  0  0  0  0  0  0  0  0  0  0
  -29.5162  -17.8914   22.3680 C   0  0  0  0  0  0  0  0  0  0  0  0
  -24.5966  -11.6382   20.7052 C   0  0  0  0  0  0  0  0  0  0  0  0
  -25.2608  -13.7222   20.4793 C   0  0  0  0  0  0  0  0  0  0  0  0
  -22.8978  -13.4878   21.2604 C   0  0  0  0  0  0  0  0  0  0  0  0
  -35.8807  -20.4780   24.1507 C   0  0  0  0  0  0  0  0  0  0  0  0
  -37.7362  -22.9621   25.1039 C   0  0  0  0  0  0  0  0  0  0  0  0
  -38.8520  -26.1346   24.5234 C   0  0  0  0  0  0  0  0  0  0  0  0
  -30.7264  -14.7700   20.6563 C   0  0  0  0  0  0  0  0  0  0  0  0
  -36.0214  -16.3045   27.0867 C   0  0  0  0  0  0  0  0  0  0  0  0
  -37.1805  -20.9713   22.0476 C   0  0  0  0  0  0  0  0  0  0  0  0
  -36.0795  -23.4333   23.2603 C   0  0  0  0  0  0  0  0  0  0  0  0
  -36.1338  -17.8087   27.3213 C   0  0  0  0  0  0  0  0  0  0  0  0
  -29.6141  -12.3550   18.2882 C   0  0  0  0  0  0  0  0  0  0  0  0
  -35.0002  -18.5454   26.6148 C   0  0  0  0  0  0  0  0  0  0  0  0
  -28.1744  -12.0630   18.7172 C   0  0  0  0  0  0  0  0  0  0  0  0
  -30.5286  -12.5846   19.4902 C   0  0  0  0  0  0  0  0  0  0  0  0
  -28.6207  -13.3087   20.8704 C   0  0  0  0  0  0  0  0  0  0  0  0
  -35.0619  -18.3279   25.0981 C   0  0  1  0  0  0  0  0  0  0  0  0
  -37.0880  -21.1496   23.5598 C   0  0  1  0  0  0  0  0  0  0  0  0
  -27.6485  -13.1347   19.6921 C   0  0  2  0  0  0  0  0  0  0  0  0
  -31.9108  -21.8215   22.3995 C   0  0  0  0  0  0  0  0  0  0  0  0
  -40.3318  -27.9115   25.4980 C   0  0  0  0  0  0  0  0  0  0  0  0
  -33.0456  -24.1245   16.7955 C   0  0  0  0  0  0  0  0  0  0  0  0
  -35.5982  -23.5972   27.1861 C   0  0  0  0  0  0  0  0  0  0  0  0
  -36.6369  -25.8585   27.4612 C   0  0  0  0  0  0  0  0  0  0  0  0
  -37.9506  -23.8097   28.0080 C   0  0  0  0  0  0  0  0  0  0  0  0
  -40.6136  -26.1351   22.1452 C   0  0  0  0  0  0  0  0  0  0  0  0
  -31.2638  -23.8061   18.5494 C   0  0  0  0  0  0  0  0  0  0  0  0
  -30.8874  -23.3546   19.9579 C   0  0  0  0  0  0  0  0  0  0  0  0
  -30.7883  -21.3685   21.4692 C   0  0  1  0  0  0  0  0  0  0  0  0
  -37.4744  -24.3677   25.5885 C   0  0  1  0  0  0  0  0  0  0  0  0
  -40.2479  -26.7309   24.5432 C   0  0  2  0  0  0  0  0  0  0  0  0
  -32.7328  -23.5697   18.1797 C   0  0  2  0  0  0  0  0  0  1  0  0
  -36.9061  -24.3994   27.0354 C   0  0  0  0  0  0  0  0  0  0  0  0
  -25.8617  -11.5428   20.2875 N   0  0  0  0  0  0  0  0  0  0  0  0
  -26.2381  -12.8265   20.1590 N   0  0  0  0  0  0  0  0  0  0  0  0
  -37.0327  -22.5569   23.9607 N   0  0  0  0  0  0  0  0  0  0  0  0
  -29.9688  -13.6154   20.3670 N   0  0  0  0  0  0  0  0  0  0  0  0
  -28.9363  -20.0629   23.2742 N   0  0  0  0  0  0  0  0  0  0  0  0
  -25.4707  -15.0537   20.4060 N   0  0  0  0  0  0  0  0  0  0  0  0
  -21.8861  -12.5784   21.5975 N   0  0  0  0  0  0  0  0  0  0  0  0
  -30.0783  -15.6950   21.4741 N   0  0  0  0  0  0  0  0  0  0  0  0
  -36.0894  -19.1600   24.5096 N   0  0  0  0  0  0  0  0  0  0  0  0
  -38.7271  -25.0967   25.4225 N   0  0  0  0  0  0  0  0  0  0  0  0
  -40.6302  -27.1998   23.1812 N   0  3  0  0  0  0  0  0  0  0  0  0
  -31.0777  -21.8926   20.1057 N   0  3  0  0  0  0  0  0  0  0  0  0
  -22.6611  -14.7184   21.3173 O   0  0  0  0  0  0  0  0  0  0  0  0
  -34.8376  -21.1092   24.2733 O   0  0  0  0  0  0  0  0  0  0  0  0
  -38.5406  -22.2525   25.7128 O   0  0  0  0  0  0  0  0  0  0  0  0
  -37.9603  -26.5507   23.7869 O   0  0  0  0  0  0  0  0  0  0  0  0
  -31.8557  -14.9390   20.1892 O   0  0  0  0  0  0  0  0  0  0  0  0
  -21.6150   -7.0151   21.7072 O   0  0  0  0  0  0  0  0  0  0  0  0
  -33.5673  -24.2212   19.1365 O   0  0  0  0  0  0  0  0  0  1  0  0
  -18.6219   -6.8568   26.3353 F   0  0  0  0  0  0  0  0  0  0  0  0
  -22.0653   -5.0723   23.6217 F   0  0  0  0  0  0  0  0  0  0  0  0
  -28.6498  -17.3179   23.2173 F   0  0  0  0  0  0  0  0  0  0  0  0
  1  2  1  0  0  0  0
  1  5  2  0  0  0  0
  2  6  2  0  0  0  0
  3 10  2  0  0  0  0
  3 17  1  0  0  0  0
  4 11  1  0  0  0  0
  4 17  2  0  0  0  0
  5 19  1  0  0  0  0
  6 21  1  0  0  0  0
  7 12  2  0  0  0  0
  7 20  1  0  0  0  0
  8  9  2  0  0  0  0
  8 23  1  0  0  0  0
  9 24  1  0  0  0  0
 10 26  1  0  0  0  0
 11 26  2  0  0  0  0
 12 27  1  0  0  0  0
 13 14  2  0  0  0  0
 13 28  1  0  0  0  0
 14 29  1  0  0  0  0
 15 22  1  0  0  0  0
 15 27  2  0  0  0  0
 16 29  2  0  0  0  0
 16 30  1  0  0  0  0
 17 32  1  0  0  0  0
 18 32  1  0  0  0  0
 18 33  2  0  0  0  0
 18 34  1  0  0  0  0
 19 21  2  0  0  0  0
 19 39  1  0  0  0  0
 20 22  2  0  0  0  0
 20 40  1  0  0  0  0
 21 48  1  0  0  0  0
 22 41  1  0  0  0  0
 23 25  2  0  0  0  0
 23 60  1  0  0  0  0
 24 31  2  0  0  0  0
 24 72  1  0  0  0  0
 25 31  1  0  0  0  0
 25 69  1  0  0  0  0
 26 82  1  0  0  0  0
 27 83  1  0  0  0  0
 28 30  2  0  0  0  0
 28 82  1  0  0  0  0
 29 84  1  0  0  0  0
 30 85  1  0  0  0  0
 31 86  1  0  0  0  0
 32 65  2  0  0  0  0
 33 66  1  0  0  0  0
 33 70  1  0  0  0  0
 34 71  1  0  0  0  0
 34 77  2  0  0  0  0
 35 49  1  0  0  0  0
 35 73  1  0  0  0  0
 35 78  2  0  0  0  0
 36 61  1  0  0  0  0
 36 67  1  0  0  0  0
 36 79  2  0  0  0  0
 37 62  1  0  0  0  0
 37 74  1  0  0  0  0
 37 80  2  0  0  0  0
 38 68  1  0  0  0  0
 38 72  1  0  0  0  0
 38 81  2  0  0  0  0
 39 42  1  0  0  0  0
 40 49  1  0  0  0  0
 41 67  1  0  0  0  0
 42 44  1  0  0  0  0
 43 45  1  0  0  0  0
 43 46  1  0  0  0  0
 44 48  1  0  0  0  0
 45 50  1  0  0  0  0
 46 68  1  0  0  0  0
 47 50  1  0  0  0  0
 47 68  1  0  0  0  0
 48 73  1  0  0  0  0
 49 67  1  0  0  0  0
 50 66  1  0  0  0  0
 51 60  1  0  0  0  0
 52 62  1  0  0  0  0
 53 63  1  0  0  0  0
 54 64  1  0  0  0  0
 55 64  1  0  0  0  0
 56 64  1  0  0  0  0
 57 75  1  0  0  0  0
 58 59  1  0  0  0  0
 58 63  1  0  0  0  0
 59 76  1  0  0  0  0
 60 76  1  0  0  0  0
 61 64  1  0  0  0  0
 61 74  1  0  0  0  0
 62 75  1  0  0  0  0
 63 83  1  0  0  0  0
 65 66  1  0  0  0  0
M  CHG  2  75   1  76   1
M  ISO  4  38 100  63 101  72 100  83 101
M  END
> <Batch ID>
0164

> <Smiles>
CNC(C)C(=O)NC(C(=O)N1Cc2cc([101O:1][101CH:1](C)CCNC(C)c3ccc([100NH:0][100C:0](=O)N4CCCC(n5nc(-c6ccc(Oc7ccc(F)cc7F)cc6)c(C(N)=O)c5N)C4)c(F)c3N)ccc2CC1C(=O)NC1CCCc2ccccc21)C(C)(C)C

> <Shape>
0.190

> <Color>
0.184

> <Negative vol penalty>
0.000

$$$$

  -OEChem-04052304023D

 87 96  0     1  0  0  0  0  0999 V2000
  -26.0687  -38.1357   24.9967 C   0  0  0  0  0  0  0  0  0  0  0  0
  -26.4719  -36.8569   25.3676 C   0  0  0  0  0  0  0  0  0  0  0  0
  -22.8262  -11.4868   22.3562 C   0  0  0  0  0  0  0  0  0  0  0  0
  -24.6261   -9.9288   22.7682 C   0  0  0  0  0  0  0  0  0  0  0  0
  -24.8506  -38.3193   24.3436 C   0  0  0  0  0  0  0  0  0  0  0  0
  -25.6567  -35.7610   25.0866 C   0  0  0  0  0  0  0  0  0  0  0  0
  -27.2923  -20.0921   20.5069 C   0  0  0  0  0  0  0  0  0  0  0  0
  -28.0495  -30.2989   21.0455 C   0  0  0  0  0  0  0  0  0  0  0  0
  -27.3210  -18.6976   20.5234 C   0  0  0  0  0  0  0  0  0  0  0  0
  -22.1723  -11.0346   23.5023 C   0  0  0  0  0  0  0  0  0  0  0  0
  -23.9723   -9.4765   23.9144 C   0  0  0  0  0  0  0  0  0  0  0  0
  -28.5043  -29.1188   20.4568 C   0  0  0  0  0  0  0  0  0  0  0  0
  -21.4075   -7.4058   24.6661 C   0  0  0  0  0  0  0  0  0  0  0  0
  -21.3384   -6.0280   24.8717 C   0  0  0  0  0  0  0  0  0  0  0  0
  -26.2966  -28.1532   20.6613 C   0  0  0  0  0  0  0  0  0  0  0  0
  -29.6711  -18.7394   19.9646 C   0  0  0  0  0  0  0  0  0  0  0  0
  -22.5353   -6.2788   26.9554 C   0  0  0  0  0  0  0  0  0  0  0  0
  -24.0531  -10.9339   21.9892 C   0  0  0  0  0  0  0  0  0  0  0  0
  -24.2482  -11.3644   19.4823 C   0  0  0  0  0  0  0  0  0  0  0  0
  -24.0245  -37.2240   24.0458 C   0  0  0  0  0  0  0  0  0  0  0  0
  -26.7111  -30.4163   21.4307 C   0  0  0  0  0  0  0  0  0  0  0  0
  -24.4258  -35.9303   24.4301 C   0  0  0  0  0  0  0  0  0  0  0  0
  -28.4530  -20.8102   20.2192 C   0  0  0  0  0  0  0  0  0  0  0  0
  -25.8323  -29.3373   21.2400 C   0  0  0  0  0  0  0  0  0  0  0  0
  -28.5104  -18.0213   20.2523 C   0  0  0  0  0  0  0  0  0  0  0  0
  -22.7454  -10.0295   24.2814 C   0  0  0  0  0  0  0  0  0  0  0  0
  -27.6301  -28.0485   20.2654 C   0  0  0  0  0  0  0  0  0  0  0  0
  -22.0406   -8.2202   25.6051 C   0  0  0  0  0  0  0  0  0  0  0  0
  -21.9023   -5.4644   26.0163 C   0  0  0  0  0  0  0  0  0  0  0  0
  -29.6424  -20.1338   19.9480 C   0  0  0  0  0  0  0  0  0  0  0  0
  -22.6045   -7.6567   26.7497 C   0  0  0  0  0  0  0  0  0  0  0  0
  -24.7287  -11.4002   20.8050 C   0  0  0  0  0  0  0  0  0  0  0  0
  -25.2572  -11.9215   18.7352 C   0  0  0  0  0  0  0  0  0  0  0  0
  -23.0012  -10.8718   18.9744 C   0  0  0  0  0  0  0  0  0  0  0  0
  -24.0365  -32.5719   22.9394 C   0  0  0  0  0  0  0  0  0  0  0  0
  -22.7532  -31.0723   20.5910 C   0  0  0  0  0  0  0  0  0  0  0  0
  -20.8423  -30.0931   17.9402 C   0  0  0  0  0  0  0  0  0  0  0  0
  -29.6356  -15.7793   20.0203 C   0  0  0  0  0  0  0  0  0  0  0  0
  -22.6949  -37.4773   23.3806 C   0  0  0  0  0  0  0  0  0  0  0  0
  -26.1920  -31.6463   22.1247 C   0  0  0  0  0  0  0  0  0  0  0  0
  -24.4094  -29.4962   21.7016 C   0  0  0  0  0  0  0  0  0  0  0  0
  -22.0626  -36.2217   22.7855 C   0  0  0  0  0  0  0  0  0  0  0  0
  -30.0116  -12.4945   18.6991 C   0  0  0  0  0  0  0  0  0  0  0  0
  -28.7499  -22.8933   18.8134 C   0  0  0  0  0  0  0  0  0  0  0  0
  -29.3375  -22.9315   21.2785 C   0  0  0  0  0  0  0  0  0  0  0  0
  -22.1278  -35.0679   23.7811 C   0  0  0  0  0  0  0  0  0  0  0  0
  -28.6538  -11.8398   18.9634 C   0  0  0  0  0  0  0  0  0  0  0  0
  -28.6987  -24.4236   18.8039 C   0  0  0  0  0  0  0  0  0  0  0  0
  -29.2823  -24.4613   21.2662 C   0  0  0  0  0  0  0  0  0  0  0  0
  -30.4214  -13.4291   19.8359 C   0  0  0  0  0  0  0  0  0  0  0  0
  -28.0655  -13.7899   20.4593 C   0  0  0  0  0  0  0  0  0  0  0  0
  -28.4179  -22.3277   20.2042 C   0  0  0  0  0  0  0  0  0  0  0  0
  -23.5807  -34.7137   24.1207 C   0  0  1  0  0  0  0  0  0  0  0  0
  -24.7369  -31.9811   21.7511 C   0  0  1  0  0  0  0  0  0  0  0  0
  -27.5803  -12.8895   19.3116 C   0  0  2  0  0  0  0  0  0  0  0  0
  -29.6012  -25.0446   19.8805 C   0  0  0  0  0  0  0  0  0  0  0  0
  -18.4525  -29.7580   17.2518 C   0  0  0  0  0  0  0  0  0  0  0  0
  -22.6506  -28.4933   22.2164 C   0  0  0  0  0  0  0  0  0  0  0  0
  -20.7270  -27.7565   20.7933 C   0  0  0  0  0  0  0  0  0  0  0  0
  -20.5207  -29.8040   22.2032 C   0  0  0  0  0  0  0  0  0  0  0  0
  -21.0628  -32.1001   15.7763 C   0  0  0  0  0  0  0  0  0  0  0  0
  -31.8549  -25.2847   20.5022 C   0  0  0  0  0  0  0  0  0  0  0  0
  -29.4524  -26.5672   19.8878 C   0  0  0  0  0  0  0  0  0  1  0  0
  -21.9745  -29.8642   20.1356 C   0  0  1  0  0  0  0  0  0  0  0  0
  -19.6261  -30.7246   17.2871 C   0  0  2  0  0  0  0  0  0  0  0  0
  -21.4932  -28.9864   21.3253 C   0  0  0  0  0  0  0  0  0  0  0  0
  -25.9482  -11.9374   20.8962 N   0  0  0  0  0  0  0  0  0  0  0  0
  -26.2425  -12.2442   19.6213 N   0  0  0  0  0  0  0  0  0  0  0  0
  -23.9107  -30.8327   21.3415 N   0  0  0  0  0  0  0  0  0  0  0  0
  -29.3579  -14.3987   20.1071 N   0  0  0  0  0  0  0  0  0  0  0  0
  -25.3888  -12.1617   17.4134 N   0  0  0  0  0  0  0  0  0  0  0  0
  -22.0776  -10.3317   19.8797 N   0  0  0  0  0  0  0  0  0  0  0  0
  -28.5391  -16.6047   20.2671 N   0  0  0  0  0  0  0  0  0  0  0  0
  -24.1760  -33.9421   23.0508 N   0  0  0  0  0  0  0  0  0  0  0  0
  -20.8974  -30.3676   19.2903 N   0  0  0  0  0  0  0  0  0  0  0  0
  -19.9418  -31.1317   15.8887 N   0  3  0  0  0  0  0  0  0  0  0  0
  -22.7212  -10.8944   17.7518 O   0  0  0  0  0  0  0  0  0  0  0  0
  -23.4136  -31.8396   23.6993 O   0  0  0  0  0  0  0  0  0  0  0  0
  -22.3455  -32.1992   20.2956 O   0  0  0  0  0  0  0  0  0  0  0  0
  -21.6597  -29.4203   17.3158 O   0  0  0  0  0  0  0  0  0  0  0  0
  -30.7566  -16.1981   19.7203 O   0  0  0  0  0  0  0  0  0  0  0  0
  -22.1077   -9.5881   25.4000 O   0  0  0  0  0  0  0  0  0  0  0  0
  -28.0797  -26.9010   19.6859 O   0  0  0  0  0  0  0  0  0  1  0  0
  -30.9589  -24.7406   19.5475 O   0  0  0  0  0  0  0  0  0  0  0  0
  -21.8345   -4.1414   26.2144 F   0  0  0  0  0  0  0  0  0  0  0  0
  -30.7628  -20.8151   19.6706 F   0  0  0  0  0  0  0  0  0  0  0  0
  -23.2129   -8.4341   27.6560 F   0  0  0  0  0  0  0  0  0  0  0  0
  1  2  1  0  0  0  0
  1  5  2  0  0  0  0
  2  6  2  0  0  0  0
  3 10  2  0  0  0  0
  3 18  1  0  0  0  0
  4 11  1  0  0  0  0
  4 18  2  0  0  0  0
  5 20  1  0  0  0  0
  6 22  1  0  0  0  0
  7  9  2  0  0  0  0
  7 23  1  0  0  0  0
  8 12  2  0  0  0  0
  8 21  1  0  0  0  0
  9 25  1  0  0  0  0
 10 26  1  0  0  0  0
 11 26  2  0  0  0  0
 12 27  1  0  0  0  0
 13 14  2  0  0  0  0
 13 28  1  0  0  0  0
 14 29  1  0  0  0  0
 15 24  1  0  0  0  0
 15 27  2  0  0  0  0
 16 25  2  0  0  0  0
 16 30  1  0  0  0  0
 17 29  2  0  0  0  0
 17 31  1  0  0  0  0
 18 32  1  0  0  0  0
 19 32  1  0  0  0  0
 19 33  2  0  0  0  0
 19 34  1  0  0  0  0
 20 22  2  0  0  0  0
 20 39  1  0  0  0  0
 21 24  2  0  0  0  0
 21 40  1  0  0  0  0
 22 53  1  0  0  0  0
 23 30  2  0  0  0  0
 23 52  1  0  0  0  0
 24 41  1  0  0  0  0
 25 73  1  0  0  0  0
 26 82  1  0  0  0  0
 27 83  1  0  0  0  0
 28 31  2  0  0  0  0
 28 82  1  0  0  0  0
 29 85  1  0  0  0  0
 30 86  1  0  0  0  0
 31 87  1  0  0  0  0
 32 67  2  0  0  0  0
 33 68  1  0  0  0  0
 33 71  1  0  0  0  0
 34 72  1  0  0  0  0
 34 77  2  0  0  0  0
 35 54  1  0  0  0  0
 35 74  1  0  0  0  0
 35 78  2  0  0  0  0
 36 64  1  0  0  0  0
 36 69  1  0  0  0  0
 36 79  2  0  0  0  0
 37 65  1  0  0  0  0
 37 75  1  0  0  0  0
 37 80  2  0  0  0  0
 38 70  1  0  0  0  0
 38 73  1  0  0  0  0
 38 81  2  0  0  0  0
 39 42  1  0  0  0  0
 40 54  1  0  0  0  0
 41 69  1  0  0  0  0
 42 46  1  0  0  0  0
 43 47  1  0  0  0  0
 43 50  1  0  0  0  0
 44 48  1  0  0  0  0
 44 52  1  0  0  0  0
 45 49  1  0  0  0  0
 45 52  1  0  0  0  0
 46 53  1  0  0  0  0
 47 55  1  0  0  0  0
 48 56  1  0  0  0  0
 49 56  1  0  0  0  0
 50 70  1  0  0  0  0
 51 55  1  0  0  0  0
 51 70  1  0  0  0  0
 53 74  1  0  0  0  0
 54 69  1  0  0  0  0
 55 68  1  0  0  0  0
 56 63  1  0  0  0  0
 56 84  1  0  0  0  0
 57 65  1  0  0  0  0
 58 66  1  0  0  0  0
 59 66  1  0  0  0  0
 60 66  1  0  0  0  0
 61 76  1  0  0  0  0
 62 84  1  0  0  0  0
 63 83  1  0  0  0  0
 64 66  1  0  0  0  0
 64 75  1  0  0  0  0
 65 76  1  0  0  0  0
 67 68  1  0  0  0  0
M  CHG  1  76   1
M  ISO  4  38 100  63 101  73 100  83 101
M  END
> <Batch ID>
0164

> <Smiles>
CNC(C)C(=O)NC(C(=O)N1Cc2cc([101O:1][101CH2:1]C3(OC)CCC(c4ccc([100NH:0][100C:0](=O)N5CCCC(n6nc(-c7ccc(Oc8ccc(F)cc8F)cc7)c(C(N)=O)c6N)C5)cc4F)CC3)ccc2CC1C(=O)NC1CCCc2ccccc21)C(C)(C)C

> <Shape>
0.331

> <Color>
0.098

> <Negative vol penalty>
0.000

$$$$

  -OEChem-04052304023D

 85 93  0     1  0  0  0  0  0999 V2000
  -16.6517  -29.4266   24.1182 C   0  0  0  0  0  0  0  0  0  0  0  0
  -17.7522  -29.7236   24.9158 C   0  0  0  0  0  0  0  0  0  0  0  0
  -24.4131  -15.5582   20.3238 C   0  0  0  0  0  0  0  0  0  0  0  0
  -25.4665  -15.3914   22.4917 C   0  0  0  0  0  0  0  0  0  0  0  0
  -16.8229  -28.7090   22.9352 C   0  0  0  0  0  0  0  0  0  0  0  0
  -19.0245  -29.3020   24.5314 C   0  0  0  0  0  0  0  0  0  0  0  0
  -24.3119  -32.2565   25.4373 C   0  0  0  0  0  0  0  0  0  0  0  0
  -24.7395  -14.2274   20.0629 C   0  0  0  0  0  0  0  0  0  0  0  0
  -25.7929  -14.0606   22.2308 C   0  0  0  0  0  0  0  0  0  0  0  0
  -25.3102  -32.1188   26.4007 C   0  0  0  0  0  0  0  0  0  0  0  0
  -24.9785  -10.7681   18.9716 C   0  0  0  0  0  0  0  0  0  0  0  0
  -23.9912   -9.9555   18.4145 C   0  0  0  0  0  0  0  0  0  0  0  0
  -26.5635  -30.7140   24.8923 C   0  0  0  0  0  0  0  0  0  0  0  0
  -24.7229  -24.1898   26.6458 C   0  0  0  0  0  0  0  0  0  0  0  0
  -22.5805  -10.3525   20.3353 C   0  0  0  0  0  0  0  0  0  0  0  0
  -26.6520  -25.3874   25.9381 C   0  0  0  0  0  0  0  0  0  0  0  0
  -24.7767  -16.1402   21.5382 C   0  0  0  0  0  0  0  0  0  0  0  0
  -23.2666  -17.9995   22.4160 C   0  0  0  0  0  0  0  0  0  0  0  0
  -18.0993  -28.2867   22.5312 C   0  0  0  0  0  0  0  0  0  0  0  0
  -24.4269  -31.6141   24.1961 C   0  0  0  0  0  0  0  0  0  0  0  0
  -19.2128  -28.5768   23.3425 C   0  0  0  0  0  0  0  0  0  0  0  0
  -25.5664  -30.8473   23.9140 C   0  0  0  0  0  0  0  0  0  0  0  0
  -25.6815  -24.4358   25.6691 C   0  0  0  0  0  0  0  0  0  0  0  0
  -25.4293  -13.4786   21.0163 C   0  0  0  0  0  0  0  0  0  0  0  0
  -26.4349  -31.3451   26.1293 C   0  0  0  0  0  0  0  0  0  0  0  0
  -24.7669  -11.3728   20.2107 C   0  0  0  0  0  0  0  0  0  0  0  0
  -22.7922   -9.7477   19.0963 C   0  0  0  0  0  0  0  0  0  0  0  0
  -24.7636  -24.8930   27.8446 C   0  0  0  0  0  0  0  0  0  0  0  0
  -23.5679  -11.1651   20.8924 C   0  0  0  0  0  0  0  0  0  0  0  0
  -24.4404  -17.5150   21.8082 C   0  0  0  0  0  0  0  0  0  0  0  0
  -25.7754  -25.8239   28.0163 C   0  0  0  0  0  0  0  0  0  0  0  0
  -23.4310  -19.3629   22.4420 C   0  0  0  0  0  0  0  0  0  0  0  0
  -22.1295  -17.2813   22.9128 C   0  0  0  0  0  0  0  0  0  0  0  0
  -22.7483  -29.3999   22.6524 C   0  0  0  0  0  0  0  0  0  0  0  0
  -26.4363  -28.8313   28.8810 C   0  0  0  0  0  0  0  0  0  0  0  0
  -24.8182  -30.0662   20.2454 C   0  0  0  0  0  0  0  0  0  0  0  0
  -27.8699  -31.2639   19.2968 C   0  0  0  0  0  0  0  0  0  0  0  0
  -26.5569  -23.8753   23.3744 C   0  0  0  0  0  0  0  0  0  0  0  0
  -18.2286  -27.4727   21.2681 C   0  0  0  0  0  0  0  0  0  0  0  0
  -23.3538  -31.7944   23.1577 C   0  0  0  0  0  0  0  0  0  0  0  0
  -25.7473  -30.1535   22.5894 C   0  0  0  0  0  0  0  0  0  0  0  0
  -19.6593  -27.3867   20.7427 C   0  0  0  0  0  0  0  0  0  0  0  0
  -26.8791  -22.3084   20.1935 C   0  0  0  0  0  0  0  0  0  0  0  0
  -20.6257  -27.0599   21.8767 C   0  0  0  0  0  0  0  0  0  0  0  0
  -26.1768  -20.9615   20.3800 C   0  0  0  0  0  0  0  0  0  0  0  0
  -27.6368  -22.7318   21.4506 C   0  0  0  0  0  0  0  0  0  0  0  0
  -26.1379  -21.3881   22.8707 C   0  0  0  0  0  0  0  0  0  0  0  0
  -20.6122  -28.1583   22.9467 C   0  0  1  0  0  0  0  0  0  0  0  0
  -23.3334  -30.6770   22.1193 C   0  0  1  0  0  0  0  0  0  0  0  0
  -25.3077  -20.9506   21.6529 C   0  0  2  0  0  0  0  0  0  0  0  0
  -29.2906  -31.6470   17.2640 C   0  0  0  0  0  0  0  0  0  0  0  0
  -27.7054  -32.4764   29.0588 C   0  0  0  0  0  0  0  0  0  0  0  0
  -25.4319  -27.0802   20.1144 C   0  0  0  0  0  0  0  0  0  0  0  0
  -27.4812  -27.6305   18.7857 C   0  0  0  0  0  0  0  0  0  0  0  0
  -25.2246  -28.2012   17.8885 C   0  0  0  0  0  0  0  0  0  0  0  0
  -27.9695  -34.1830   19.7739 C   0  0  0  0  0  0  0  0  0  0  0  0
  -27.4013  -29.9798   29.1498 C   0  0  0  0  0  0  0  0  0  0  0  0
  -26.7931  -27.5154   29.5423 C   0  0  0  0  0  0  0  0  0  0  0  0
  -26.1659  -29.5376   19.8172 C   0  0  1  0  0  0  0  0  0  0  0  0
  -28.2728  -32.2528   18.2179 C   0  0  2  0  0  0  0  0  0  0  0  0
  -27.0094  -31.2743   28.4360 C   0  0  2  0  0  0  0  0  0  1  0  0
  -26.0719  -28.1237   19.1772 C   0  0  0  0  0  0  0  0  0  0  0  0
  -26.7239  -26.0903   27.0906 N   0  0  0  0  0  0  0  0  0  0  0  0
  -25.2877  -18.4913   21.4721 N   0  0  0  0  0  0  0  0  0  0  0  0
  -24.6457  -19.6028   21.8701 N   0  0  0  0  0  0  0  0  0  0  0  0
  -24.6676  -30.3552   21.6090 N   0  0  0  0  0  0  0  0  0  0  0  0
  -26.7493  -22.7018   22.6151 N   0  0  0  0  0  0  0  0  0  0  0  0
  -22.6534  -20.3678   22.8979 N   0  0  0  0  0  0  0  0  0  0  0  0
  -22.1236  -15.8837   22.8073 N   0  0  0  0  0  0  0  0  0  0  0  0
  -25.6663  -23.7343   24.4381 N   0  0  0  0  0  0  0  0  0  0  0  0
  -25.8053  -26.5186   29.2170 N   0  0  0  0  0  0  0  0  0  0  0  0
  -21.3777  -29.3041   22.5045 N   0  0  0  0  0  0  0  0  0  0  0  0
  -26.7432  -30.5523   18.9423 N   0  0  0  0  0  0  0  0  0  0  0  0
  -28.8709  -33.4726   18.8306 N   0  3  0  0  0  0  0  0  0  0  0  0
  -21.1405  -17.8628   23.4199 O   0  0  0  0  0  0  0  0  0  0  0  0
  -23.4859  -28.5626   23.1589 O   0  0  0  0  0  0  0  0  0  0  0  0
  -25.4383  -28.9649   28.1742 O   0  0  0  0  0  0  0  0  0  0  0  0
  -23.9340  -30.2239   19.3998 O   0  0  0  0  0  0  0  0  0  0  0  0
  -28.4944  -31.1328   20.3472 O   0  0  0  0  0  0  0  0  0  0  0  0
  -27.1183  -24.9350   23.0847 O   0  0  0  0  0  0  0  0  0  0  0  0
  -25.7478  -12.1799   20.7621 O   0  0  0  0  0  0  0  0  0  0  0  0
  -27.4105  -31.2084   27.0681 O   0  0  0  0  0  0  0  0  0  1  0  0
  -21.8435   -8.9686   18.5604 F   0  0  0  0  0  0  0  0  0  0  0  0
  -23.8472  -24.6664   28.7944 F   0  0  0  0  0  0  0  0  0  0  0  0
  -23.3583  -11.7444   22.0826 F   0  0  0  0  0  0  0  0  0  0  0  0
  1  2  1  0  0  0  0
  1  5  2  0  0  0  0
  2  6  2  0  0  0  0
  3  8  2  0  0  0  0
  3 17  1  0  0  0  0
  4  9  1  0  0  0  0
  4 17  2  0  0  0  0
  5 19  1  0  0  0  0
  6 21  1  0  0  0  0
  7 10  2  0  0  0  0
  7 20  1  0  0  0  0
  8 24  1  0  0  0  0
  9 24  2  0  0  0  0
 10 25  1  0  0  0  0
 11 12  2  0  0  0  0
 11 26  1  0  0  0  0
 12 27  1  0  0  0  0
 13 22  1  0  0  0  0
 13 25  2  0  0  0  0
 14 23  2  0  0  0  0
 14 28  1  0  0  0  0
 15 27  2  0  0  0  0
 15 29  1  0  0  0  0
 16 23  1  0  0  0  0
 16 63  2  0  0  0  0
 17 30  1  0  0  0  0
 18 30  1  0  0  0  0
 18 32  2  0  0  0  0
 18 33  1  0  0  0  0
 19 21  2  0  0  0  0
 19 39  1  0  0  0  0
 20 22  2  0  0  0  0
 20 40  1  0  0  0  0
 21 48  1  0  0  0  0
 22 41  1  0  0  0  0
 23 70  1  0  0  0  0
 24 81  1  0  0  0  0
 25 82  1  0  0  0  0
 26 29  2  0  0  0  0
 26 81  1  0  0  0  0
 27 83  1  0  0  0  0
 28 31  2  0  0  0  0
 28 84  1  0  0  0  0
 29 85  1  0  0  0  0
 30 64  2  0  0  0  0
 31 63  1  0  0  0  0
 31 71  1  0  0  0  0
 32 65  1  0  0  0  0
 32 68  1  0  0  0  0
 33 69  1  0  0  0  0
 33 75  2  0  0  0  0
 34 49  1  0  0  0  0
 34 72  1  0  0  0  0
 34 76  2  0  0  0  0
 35 57  1  0  0  0  0
 35 58  1  0  0  0  0
 35 77  2  0  0  0  0
 36 59  1  0  0  0  0
 36 66  1  0  0  0  0
 36 78  2  0  0  0  0
 37 60  1  0  0  0  0
 37 73  1  0  0  0  0
 37 79  2  0  0  0  0
 38 67  1  0  0  0  0
 38 70  1  0  0  0  0
 38 80  2  0  0  0  0
 39 42  1  0  0  0  0
 40 49  1  0  0  0  0
 41 66  1  0  0  0  0
 42 44  1  0  0  0  0
 43 45  1  0  0  0  0
 43 46  1  0  0  0  0
 44 48  1  0  0  0  0
 45 50  1  0  0  0  0
 46 67  1  0  0  0  0
 47 50  1  0  0  0  0
 47 67  1  0  0  0  0
 48 72  1  0  0  0  0
 49 66  1  0  0  0  0
 50 65  1  0  0  0  0
 51 60  1  0  0  0  0
 52 61  1  0  0  0  0
 53 62  1  0  0  0  0
 54 62  1  0  0  0  0
 55 62  1  0  0  0  0
 56 74  1  0  0  0  0
 57 61  1  0  0  0  0
 58 71  1  0  0  0  0
 59 62  1  0  0  0  0
 59 73  1  0  0  0  0
 60 74  1  0  0  0  0
 61 82  1  0  0  0  0
 64 65  1  0  0  0  0
M  CHG  1  74   1
M  ISO  4  38 100  61 101  70 100  82 101
M  END
> <Batch ID>
0164

> <Smiles>
CNC(C)C(=O)NC(C(=O)N1Cc2cc([101O:1][101CH:1](C)CC(=O)CNc3ncc([100NH:0][100C:0](=O)N4CCCC(n5nc(-c6ccc(Oc7ccc(F)cc7F)cc6)c(C(N)=O)c5N)C4)cc3F)ccc2CC1C(=O)NC1CCCc2ccccc21)C(C)(C)C

> <Shape>
0.219

> <Color>
0.080

> <Negative vol penalty>
0.000

$$$$

  -OEChem-04052304023D

 91 99  0     1  0  0  0  0  0999 V2000
  -16.7524  -30.1714   23.4159 C   0  0  0  0  0  0  0  0  0  0  0  0
  -17.9049  -30.8031   23.8721 C   0  0  0  0  0  0  0  0  0  0  0  0
  -24.4247  -13.8840   19.8691 C   0  0  0  0  0  0  0  0  0  0  0  0
  -25.4956  -13.1338   21.9007 C   0  0  0  0  0  0  0  0  0  0  0  0
  -16.8298  -28.8894   22.8733 C   0  0  0  0  0  0  0  0  0  0  0  0
  -19.1354  -30.1526   23.7869 C   0  0  0  0  0  0  0  0  0  0  0  0
  -24.5903  -32.7204   22.7117 C   0  0  0  0  0  0  0  0  0  0  0  0
  -28.5034  -24.4912   25.5364 C   0  0  0  0  0  0  0  0  0  0  0  0
  -28.8657  -25.8322   25.4092 C   0  0  0  0  0  0  0  0  0  0  0  0
  -24.8447  -12.7235   19.2192 C   0  0  0  0  0  0  0  0  0  0  0  0
  -25.9156  -11.9733   21.2508 C   0  0  0  0  0  0  0  0  0  0  0  0
  -25.6299  -33.1034   23.5581 C   0  0  0  0  0  0  0  0  0  0  0  0
  -24.5747   -9.0100   20.3334 C   0  0  0  0  0  0  0  0  0  0  0  0
  -24.4180   -7.7989   21.0072 C   0  0  0  0  0  0  0  0  0  0  0  0
  -26.7389  -31.0031   23.1365 C   0  0  0  0  0  0  0  0  0  0  0  0
  -31.1023  -25.1683   24.7816 C   0  0  0  0  0  0  0  0  0  0  0  0
  -26.8038   -7.4324   20.9033 C   0  0  0  0  0  0  0  0  0  0  0  0
  -24.7502  -14.0892   21.2099 C   0  0  0  0  0  0  0  0  0  0  0  0
  -23.1139  -15.4799   22.5870 C   0  0  0  0  0  0  0  0  0  0  0  0
  -18.0632  -28.2267   22.7726 C   0  0  0  0  0  0  0  0  0  0  0  0
  -24.6120  -31.4693   22.0789 C   0  0  0  0  0  0  0  0  0  0  0  0
  -19.2292  -28.8600   23.2437 C   0  0  0  0  0  0  0  0  0  0  0  0
  -25.6996  -30.6076   22.2806 C   0  0  0  0  0  0  0  0  0  0  0  0
  -29.4405  -23.4888   25.2863 C   0  0  0  0  0  0  0  0  0  0  0  0
  -30.7400  -23.8273   24.9089 C   0  0  0  0  0  0  0  0  0  0  0  0
  -30.1651  -26.1707   25.0317 C   0  0  0  0  0  0  0  0  0  0  0  0
  -25.5901  -11.7682   19.9100 C   0  0  0  0  0  0  0  0  0  0  0  0
  -26.7030  -32.2435   23.7728 C   0  0  0  0  0  0  0  0  0  0  0  0
  -25.8459   -9.4324   19.9444 C   0  0  0  0  0  0  0  0  0  0  0  0
  -25.5325   -7.0101   21.2922 C   0  0  0  0  0  0  0  0  0  0  0  0
  -26.9605   -8.6436   20.2294 C   0  0  0  0  0  0  0  0  0  0  0  0
  -24.3171  -15.2881   21.8817 C   0  0  0  0  0  0  0  0  0  0  0  0
  -23.1801  -16.7776   23.0322 C   0  0  0  0  0  0  0  0  0  0  0  0
  -22.0332  -14.5668   22.8189 C   0  0  0  0  0  0  0  0  0  0  0  0
  -30.3468  -29.9026   24.9026 C   0  0  0  0  0  0  0  0  0  0  0  0
  -29.5265  -31.0719   24.4141 C   0  0  0  0  0  0  0  0  0  0  0  0
  -22.7577  -28.8884   22.1475 C   0  0  0  0  0  0  0  0  0  0  0  0
  -24.7284  -27.8876   19.7733 C   0  0  0  0  0  0  0  0  0  0  0  0
  -27.7778  -28.1012   18.2560 C   0  0  0  0  0  0  0  0  0  0  0  0
  -27.7673  -20.2988   24.2214 C   0  0  0  0  0  0  0  0  0  0  0  0
  -18.0902  -26.8228   22.2221 C   0  0  0  0  0  0  0  0  0  0  0  0
  -23.4958  -31.0820   21.1479 C   0  0  0  0  0  0  0  0  0  0  0  0
  -25.7804  -29.2619   21.6090 C   0  0  0  0  0  0  0  0  0  0  0  0
  -19.4865  -26.3515   21.8239 C   0  0  0  0  0  0  0  0  0  0  0  0
  -25.0756  -21.0280   21.9149 C   0  0  0  0  0  0  0  0  0  0  0  0
  -20.4945  -26.6830   22.9196 C   0  0  0  0  0  0  0  0  0  0  0  0
  -24.4616  -19.6411   21.7156 C   0  0  0  0  0  0  0  0  0  0  0  0
  -26.5949  -20.9485   22.0314 C   0  0  0  0  0  0  0  0  0  0  0  0
  -26.4713  -18.6471   22.9044 C   0  0  0  0  0  0  0  0  0  0  0  0
  -20.5859  -28.1969   23.1456 C   0  0  1  0  0  0  0  0  0  0  0  0
  -23.3714  -29.5733   20.9593 C   0  0  1  0  0  0  0  0  0  0  0  0
  -24.9352  -18.6574   22.8020 C   0  0  2  0  0  0  0  0  0  0  0  0
  -28.9235  -32.1158   26.6162 C   0  0  0  0  0  0  0  0  0  0  0  0
  -29.1074  -27.1323   16.3611 C   0  0  0  0  0  0  0  0  0  0  0  0
  -33.6476  -23.7864   25.9609 C   0  0  0  0  0  0  0  0  0  0  0  0
  -32.1188  -22.1828   27.1074 C   0  0  0  0  0  0  0  0  0  0  0  0
  -33.7597  -21.3580   25.4004 C   0  0  0  0  0  0  0  0  0  0  0  0
  -25.1992  -25.3516   21.4034 C   0  0  0  0  0  0  0  0  0  0  0  0
  -27.1998  -24.8864   19.9719 C   0  0  0  0  0  0  0  0  0  0  0  0
  -24.9279  -24.9766   18.9457 C   0  0  0  0  0  0  0  0  0  0  0  0
  -28.0335  -30.7370   16.9347 C   0  0  0  0  0  0  0  0  0  0  0  0
  -31.7607  -22.7713   24.6374 C   0  0  0  0  0  0  0  0  0  0  0  0
  -29.0295  -22.0603   25.4302 C   0  0  0  0  0  0  0  0  0  0  0  0
  -29.6235  -28.6038   25.1416 C   0  0  0  0  0  0  0  0  0  0  0  0
  -28.4024  -31.5738   25.2958 C   0  0  1  0  0  0  0  0  0  1  0  0
  -26.0269  -27.1199   19.7141 C   0  0  1  0  0  0  0  0  0  0  0  0
  -28.1687  -28.2468   16.7964 C   0  0  2  0  0  0  0  0  0  0  0  0
  -32.8055  -22.5071   25.7694 C   0  0  0  0  0  0  0  0  0  0  0  0
  -25.8363  -25.6081   20.0231 C   0  0  0  0  0  0  0  0  0  0  0  0
  -25.0909  -16.3767   21.8764 N   0  0  0  0  0  0  0  0  0  0  0  0
  -24.3723  -17.2652   22.5837 N   0  0  0  0  0  0  0  0  0  0  0  0
  -24.6617  -28.9262   20.7128 N   0  0  0  0  0  0  0  0  0  0  0  0
  -26.9790  -20.0098   23.0952 N   0  0  0  0  0  0  0  0  0  0  0  0
  -22.3343  -17.5377   23.7596 N   0  0  0  0  0  0  0  0  0  0  0  0
  -22.1272  -13.2721   22.2904 N   0  0  0  0  0  0  0  0  0  0  0  0
  -30.5247  -27.5043   24.9044 N   0  0  0  0  0  0  0  0  0  0  0  0
  -21.3784  -28.8163   22.1050 N   0  0  0  0  0  0  0  0  0  0  0  0
  -26.6034  -27.3936   18.4022 N   0  0  0  0  0  0  0  0  0  0  0  0
  -28.2140  -21.6105   24.3240 N   0  0  0  0  0  0  0  0  0  0  0  0
  -28.8520  -29.5518   16.5708 N   0  3  0  0  0  0  0  0  0  0  0  0
  -21.0069  -14.8946   23.4615 O   0  0  0  0  0  0  0  0  0  0  0  0
  -31.5464  -30.0886   25.0530 O   0  0  0  0  0  0  0  0  0  0  0  0
  -29.8270  -31.5452   23.3261 O   0  0  0  0  0  0  0  0  0  0  0  0
  -23.4820  -28.4561   23.0364 O   0  0  0  0  0  0  0  0  0  0  0  0
  -23.8097  -27.5817   19.0091 O   0  0  0  0  0  0  0  0  0  0  0  0
  -28.4493  -28.5653   19.1749 O   0  0  0  0  0  0  0  0  0  0  0  0
  -28.0481  -19.4514   25.0759 O   0  0  0  0  0  0  0  0  0  0  0  0
  -25.9999  -10.6355   19.2762 O   0  0  0  0  0  0  0  0  0  0  0  0
  -27.7187  -32.6146   24.5990 O   0  0  0  0  0  0  0  0  0  1  0  0
  -25.3821   -5.8477   21.9407 F   0  0  0  0  0  0  0  0  0  0  0  0
  -28.1844   -9.0447   19.8593 F   0  0  0  0  0  0  0  0  0  0  0  0
  1  2  1  0  0  0  0
  1  5  2  0  0  0  0
  2  6  2  0  0  0  0
  3 10  2  0  0  0  0
  3 18  1  0  0  0  0
  4 11  1  0  0  0  0
  4 18  2  0  0  0  0
  5 20  1  0  0  0  0
  6 22  1  0  0  0  0
  7 12  2  0  0  0  0
  7 21  1  0  0  0  0
  8  9  2  0  0  0  0
  8 24  1  0  0  0  0
  9 26  1  0  0  0  0
 10 27  1  0  0  0  0
 11 27  2  0  0  0  0
 12 28  1  0  0  0  0
 13 14  2  0  0  0  0
 13 29  1  0  0  0  0
 14 30  1  0  0  0  0
 15 23  1  0  0  0  0
 15 28  2  0  0  0  0
 16 25  1  0  0  0  0
 16 26  2  0  0  0  0
 17 30  2  0  0  0  0
 17 31  1  0  0  0  0
 18 32  1  0  0  0  0
 19 32  1  0  0  0  0
 19 33  2  0  0  0  0
 19 34  1  0  0  0  0
 20 22  2  0  0  0  0
 20 41  1  0  0  0  0
 21 23  2  0  0  0  0
 21 42  1  0  0  0  0
 22 50  1  0  0  0  0
 23 43  1  0  0  0  0
 24 25  2  0  0  0  0
 24 63  1  0  0  0  0
 25 62  1  0  0  0  0
 26 76  1  0  0  0  0
 27 88  1  0  0  0  0
 28 89  1  0  0  0  0
 29 31  2  0  0  0  0
 29 88  1  0  0  0  0
 30 90  1  0  0  0  0
 31 91  1  0  0  0  0
 32 70  2  0  0  0  0
 33 71  1  0  0  0  0
 33 74  1  0  0  0  0
 34 75  1  0  0  0  0
 34 81  2  0  0  0  0
 35 36  1  0  0  0  0
 35 64  1  0  0  0  0
 35 82  2  0  0  0  0
 36 65  1  0  0  0  0
 36 83  2  0  0  0  0
 37 51  1  0  0  0  0
 37 77  1  0  0  0  0
 37 84  2  0  0  0  0
 38 66  1  0  0  0  0
 38 72  1  0  0  0  0
 38 85  2  0  0  0  0
 39 67  1  0  0  0  0
 39 78  1  0  0  0  0
 39 86  2  0  0  0  0
 40 73  1  0  0  0  0
 40 79  1  0  0  0  0
 40 87  2  0  0  0  0
 41 44  1  0  0  0  0
 42 51  1  0  0  0  0
 43 72  1  0  0  0  0
 44 46  1  0  0  0  0
 45 47  1  0  0  0  0
 45 48  1  0  0  0  0
 46 50  1  0  0  0  0
 47 52  1  0  0  0  0
 48 73  1  0  0  0  0
 49 52  1  0  0  0  0
 49 73  1  0  0  0  0
 50 77  1  0  0  0  0
 51 72  1  0  0  0  0
 52 71  1  0  0  0  0
 53 65  1  0  0  0  0
 54 67  1  0  0  0  0
 55 68  1  0  0  0  0
 56 68  1  0  0  0  0
 57 68  1  0  0  0  0
 58 69  1  0  0  0  0
 59 69  1  0  0  0  0
 60 69  1  0  0  0  0
 61 80  1  0  0  0  0
 62 68  1  0  0  0  0
 63 79  1  0  0  0  0
 64 76  1  0  0  0  0
 65 89  1  0  0  0  0
 66 69  1  0  0  0  0
 66 78  1  0  0  0  0
 67 80  1  0  0  0  0
 70 71  1  0  0  0  0
M  CHG  1  80   1
M  ISO  4  40 100  65 101  79 100  89 101
M  END
> <Batch ID>
0164

> <Smiles>
CNC(C)C(=O)NC(C(=O)N1Cc2cc([101O:1][101CH:1](C)C(=O)C(=O)CNc3ccc(C[100NH:0][100C:0](=O)N4CCCC(n5nc(-c6ccc(Oc7ccc(F)cc7F)cc6)c(C(N)=O)c5N)C4)c(CC(C)(C)C)c3)ccc2CC1C(=O)NC1CCCc2ccccc21)C(C)(C)C

> <Shape>
0.214

> <Color>
0.115

> <Negative vol penalty>
0.000

$$$$

  -OEChem-04052304023D

 91 99  0     1  0  0  0  0  0999 V2000
  -26.8306  -32.6545   16.1765 C   0  0  0  0  0  0  0  0  0  0  0  0
  -27.6491  -31.5779   15.8502 C   0  0  0  0  0  0  0  0  0  0  0  0
  -22.9841  -10.0253   19.8608 C   0  0  0  0  0  0  0  0  0  0  0  0
  -23.9062   -9.6828   22.0675 C   0  0  0  0  0  0  0  0  0  0  0  0
  -26.2867  -32.7523   17.4566 C   0  0  0  0  0  0  0  0  0  0  0  0
  -27.9250  -30.5990   16.8041 C   0  0  0  0  0  0  0  0  0  0  0  0
  -28.7113  -24.6074   15.8096 C   0  0  0  0  0  0  0  0  0  0  0  0
  -22.2338   -8.8569   19.9930 C   0  0  0  0  0  0  0  0  0  0  0  0
  -23.1558   -8.5145   22.1998 C   0  0  0  0  0  0  0  0  0  0  0  0
  -29.8547  -23.8209   15.6759 C   0  0  0  0  0  0  0  0  0  0  0  0
  -19.3795   -7.8898   21.5261 C   0  0  0  0  0  0  0  0  0  0  0  0
  -18.0405   -7.9319   21.1377 C   0  0  0  0  0  0  0  0  0  0  0  0
  -29.7679  -17.5163   22.9573 C   0  0  0  0  0  0  0  0  0  0  0  0
  -30.8145  -19.5939   22.3053 C   0  0  0  0  0  0  0  0  0  0  0  0
  -29.7136  -23.2297   18.0104 C   0  0  0  0  0  0  0  0  0  0  0  0
  -31.2626  -17.5726   21.0600 C   0  0  0  0  0  0  0  0  0  0  0  0
  -18.4593   -6.1997   19.5063 C   0  0  0  0  0  0  0  0  0  0  0  0
  -23.8204  -10.4382   20.8981 C   0  0  0  0  0  0  0  0  0  0  0  0
  -29.9675  -18.8825   23.1551 C   0  0  0  0  0  0  0  0  0  0  0  0
  -24.2107  -12.9489   21.1256 C   0  0  0  0  0  0  0  0  0  0  0  0
  -26.5483  -31.7690   18.4238 C   0  0  0  0  0  0  0  0  0  0  0  0
  -28.0657  -24.7199   17.0493 C   0  0  0  0  0  0  0  0  0  0  0  0
  -27.3852  -30.6844   18.0987 C   0  0  0  0  0  0  0  0  0  0  0  0
  -28.5607  -24.0163   18.1565 C   0  0  0  0  0  0  0  0  0  0  0  0
  -30.4155  -16.8613   21.9098 C   0  0  0  0  0  0  0  0  0  0  0  0
  -31.4621  -18.9389   21.2577 C   0  0  0  0  0  0  0  0  0  0  0  0
  -22.3196   -8.1015   21.1625 C   0  0  0  0  0  0  0  0  0  0  0  0
  -30.3577  -23.1342   16.7771 C   0  0  0  0  0  0  0  0  0  0  0  0
  -20.2584   -7.0027   20.9046 C   0  0  0  0  0  0  0  0  0  0  0  0
  -17.5804   -7.0869   20.1278 C   0  0  0  0  0  0  0  0  0  0  0  0
  -19.7983   -6.1577   19.8947 C   0  0  0  0  0  0  0  0  0  0  0  0
  -24.5963  -11.6447   20.7619 C   0  0  0  0  0  0  0  0  0  0  0  0
  -25.2910  -13.7306   20.7964 C   0  0  0  0  0  0  0  0  0  0  0  0
  -29.2920  -19.5658   24.2470 C   0  0  0  0  0  0  0  0  0  0  0  0
  -22.9857  -13.4123   21.7089 C   0  0  0  0  0  0  0  0  0  0  0  0
  -33.8105  -20.1267   18.6226 C   0  0  0  0  0  0  0  0  0  0  0  0
  -33.1807  -20.9079   17.4979 C   0  0  0  0  0  0  0  0  0  0  0  0
  -27.4461  -27.1136   19.0467 C   0  0  0  0  0  0  0  0  0  0  0  0
  -25.7655  -24.8382   20.6344 C   0  0  0  0  0  0  0  0  0  0  0  0
  -25.2849  -21.5251   21.2968 C   0  0  0  0  0  0  0  0  0  0  0  0
  -30.7783  -14.6723   20.7168 C   0  0  0  0  0  0  0  0  0  0  0  0
  -25.9762  -31.9424   19.8084 C   0  0  0  0  0  0  0  0  0  0  0  0
  -26.8180  -25.5510   17.1706 C   0  0  0  0  0  0  0  0  0  0  0  0
  -27.8928  -24.0875   19.5046 C   0  0  0  0  0  0  0  0  0  0  0  0
  -26.0141  -30.6675   20.6471 C   0  0  0  0  0  0  0  0  0  0  0  0
  -29.4420  -12.6502   18.1087 C   0  0  0  0  0  0  0  0  0  0  0  0
  -27.3823  -30.0010   20.5438 C   0  0  0  0  0  0  0  0  0  0  0  0
  -28.0305  -12.3156   18.5964 C   0  0  0  0  0  0  0  0  0  0  0  0
  -30.4458  -12.6871   19.2597 C   0  0  0  0  0  0  0  0  0  0  0  0
  -28.6598  -13.2218   20.8701 C   0  0  0  0  0  0  0  0  0  0  0  0
  -27.6877  -29.5894   19.0986 C   0  0  1  0  0  0  0  0  0  0  0  0
  -26.5378  -26.0030   18.6006 C   0  0  1  0  0  0  0  0  0  0  0  0
  -27.6014  -13.2369   19.7551 C   0  0  2  0  0  0  0  0  0  0  0  0
  -23.8607  -19.9759   22.6639 C   0  0  0  0  0  0  0  0  0  0  0  0
  -31.2791  -21.7594   26.8843 C   0  0  0  0  0  0  0  0  0  0  0  0
  -31.9579  -19.6313   25.7720 C   0  0  0  0  0  0  0  0  0  0  0  0
  -29.9457  -19.6699   27.2488 C   0  0  0  0  0  0  0  0  0  0  0  0
  -27.3550  -25.5833   23.1301 C   0  0  0  0  0  0  0  0  0  0  0  0
  -26.6007  -23.4332   24.1675 C   0  0  0  0  0  0  0  0  0  0  0  0
  -24.9220  -25.1644   23.5293 C   0  0  0  0  0  0  0  0  0  0  0  0
  -24.2192  -20.1865   18.8819 C   0  0  0  0  0  0  0  0  0  0  0  0
  -29.9008  -20.7987   24.9599 C   0  0  0  0  0  0  0  0  0  0  0  0
  -33.0134  -19.0547   19.3069 C   0  0  0  0  0  0  0  0  0  0  0  0
  -31.9343  -21.6903   17.8189 C   0  0  0  0  0  0  0  0  0  1  0  0
  -26.0825  -23.8361   21.7180 C   0  0  1  0  0  0  0  0  0  0  0  0
  -24.0273  -20.6753   21.3238 C   0  0  2  0  0  0  0  0  0  0  0  0
  -30.7494  -20.4797   26.2176 C   0  0  0  0  0  0  0  0  0  0  0  0
  -26.2540  -24.5042   23.1114 C   0  0  0  0  0  0  0  0  0  0  0  0
  -25.8254  -11.5966   20.2413 N   0  0  0  0  0  0  0  0  0  0  0  0
  -28.1139  -19.1623   24.6736 N   0  0  0  0  0  0  0  0  0  0  0  0
  -35.0229  -20.4288   18.9494 N   0  0  0  0  0  0  0  0  0  0  0  0
  -26.2215  -12.8804   20.2755 N   0  0  0  0  0  0  0  0  0  0  0  0
  -26.6794  -24.9184   19.5741 N   0  0  0  0  0  0  0  0  0  0  0  0
  -29.9749  -13.5831   20.3181 N   0  0  0  0  0  0  0  0  0  0  0  0
  -25.5262  -15.0556   20.9045 N   0  0  0  0  0  0  0  0  0  0  0  0
  -21.9799  -12.4755   21.9830 N   0  0  0  0  0  0  0  0  0  0  0  0
  -30.2126  -15.4735   21.7081 N   0  0  0  0  0  0  0  0  0  0  0  0
  -32.3048  -19.6465   20.4118 N   0  0  0  0  0  0  0  0  0  0  0  0
  -26.9727  -28.3788   18.7559 N   0  0  0  0  0  0  0  0  0  0  0  0
  -25.0282  -22.8291   21.6638 N   0  0  0  0  0  0  0  0  0  0  0  0
  -24.0801  -19.6377   20.2554 N   0  3  0  0  0  0  0  0  0  0  0  0
  -22.7825  -14.6235   21.9639 O   0  0  0  0  0  0  0  0  0  0  0  0
  -33.7047  -20.8403   16.3952 O   0  0  0  0  0  0  0  0  0  0  0  0
  -28.4979  -26.8428   19.6143 O   0  0  0  0  0  0  0  0  0  0  0  0
  -24.7410  -25.5196   20.7218 O   0  0  0  0  0  0  0  0  0  0  0  0
  -26.3857  -21.0759   20.9850 O   0  0  0  0  0  0  0  0  0  0  0  0
  -31.8746  -14.8948   20.1966 O   0  0  0  0  0  0  0  0  0  0  0  0
  -21.5873   -6.9615   21.2919 O   0  0  0  0  0  0  0  0  0  0  0  0
  -31.4739  -22.3664   16.6496 O   0  0  0  0  0  0  0  0  0  1  0  0
  -16.2942   -7.1263   19.7559 F   0  0  0  0  0  0  0  0  0  0  0  0
  -20.6377   -5.3025   19.2948 F   0  0  0  0  0  0  0  0  0  0  0  0
  1  2  1  0  0  0  0
  1  5  2  0  0  0  0
  2  6  2  0  0  0  0
  3  8  2  0  0  0  0
  3 18  1  0  0  0  0
  4  9  1  0  0  0  0
  4 18  2  0  0  0  0
  5 21  1  0  0  0  0
  6 23  1  0  0  0  0
  7 10  2  0  0  0  0
  7 22  1  0  0  0  0
  8 27  1  0  0  0  0
  9 27  2  0  0  0  0
 10 28  1  0  0  0  0
 11 12  2  0  0  0  0
 11 29  1  0  0  0  0
 12 30  1  0  0  0  0
 13 19  2  0  0  0  0
 13 25  1  0  0  0  0
 14 19  1  0  0  0  0
 14 26  2  0  0  0  0
 15 24  1  0  0  0  0
 15 28  2  0  0  0  0
 16 25  2  0  0  0  0
 16 26  1  0  0  0  0
 17 30  2  0  0  0  0
 17 31  1  0  0  0  0
 18 32  1  0  0  0  0
 19 34  1  0  0  0  0
 20 32  1  0  0  0  0
 20 33  2  0  0  0  0
 20 35  1  0  0  0  0
 21 23  2  0  0  0  0
 21 42  1  0  0  0  0
 22 24  2  0  0  0  0
 22 43  1  0  0  0  0
 23 51  1  0  0  0  0
 24 44  1  0  0  0  0
 25 77  1  0  0  0  0
 26 78  1  0  0  0  0
 27 88  1  0  0  0  0
 28 89  1  0  0  0  0
 29 31  2  0  0  0  0
 29 88  1  0  0  0  0
 30 90  1  0  0  0  0
 31 91  1  0  0  0  0
 32 69  2  0  0  0  0
 33 72  1  0  0  0  0
 33 75  1  0  0  0  0
 34 62  1  0  0  0  0
 34 70  2  0  0  0  0
 35 76  1  0  0  0  0
 35 82  2  0  0  0  0
 36 37  1  0  0  0  0
 36 63  1  0  0  0  0
 36 71  2  0  0  0  0
 37 64  1  0  0  0  0
 37 83  2  0  0  0  0
 38 52  1  0  0  0  0
 38 79  1  0  0  0  0
 38 84  2  0  0  0  0
 39 65  1  0  0  0  0
 39 73  1  0  0  0  0
 39 85  2  0  0  0  0
 40 66  1  0  0  0  0
 40 80  1  0  0  0  0
 40 86  2  0  0  0  0
 41 74  1  0  0  0  0
 41 77  1  0  0  0  0
 41 87  2  0  0  0  0
 42 45  1  0  0  0  0
 43 52  1  0  0  0  0
 44 73  1  0  0  0  0
 45 47  1  0  0  0  0
 46 48  1  0  0  0  0
 46 49  1  0  0  0  0
 47 51  1  0  0  0  0
 48 53  1  0  0  0  0
 49 74  1  0  0  0  0
 50 53  1  0  0  0  0
 50 74  1  0  0  0  0
 51 79  1  0  0  0  0
 52 73  1  0  0  0  0
 53 72  1  0  0  0  0
 54 66  1  0  0  0  0
 55 67  1  0  0  0  0
 56 67  1  0  0  0  0
 57 67  1  0  0  0  0
 58 68  1  0  0  0  0
 59 68  1  0  0  0  0
 60 68  1  0  0  0  0
 61 81  1  0  0  0  0
 62 67  1  0  0  0  0
 63 78  1  0  0  0  0
 64 89  1  0  0  0  0
 65 68  1  0  0  0  0
 65 80  1  0  0  0  0
 66 81  1  0  0  0  0
 69 72  1  0  0  0  0
M  CHG  1  81   1
M  ISO  4  41 100  64 101  77 100  89 101
M  END
> <Batch ID>
0164

> <Smiles>
CNC(C)C(=O)NC(C(=O)N1Cc2cc([101O:1][101CH2:1]C(=O)C(=N)CNc3cc([100NH:0][100C:0](=O)N4CCCC(n5nc(-c6ccc(Oc7ccc(F)cc7F)cc6)c(C(N)=O)c5N)C4)cc(C(=N)CC(C)(C)C)c3)ccc2CC1C(=O)NC1CCCc2ccccc21)C(C)(C)C

> <Shape>
0.209

> <Color>
0.175

> <Negative vol penalty>
0.000

$$$$

  -OEChem-04052304023D

 85 93  0     1  0  0  0  0  0999 V2000
  -19.5314  -32.4861   22.7327 C   0  0  0  0  0  0  0  0  0  0  0  0
  -20.8268  -31.9791   22.7242 C   0  0  0  0  0  0  0  0  0  0  0  0
  -33.3094  -23.5711   17.5982 C   0  0  0  0  0  0  0  0  0  0  0  0
  -23.0781  -15.1876   22.8431 C   0  0  0  0  0  0  0  0  0  0  0  0
  -22.5268  -15.5047   20.5123 C   0  0  0  0  0  0  0  0  0  0  0  0
  -18.4461  -31.6207   22.8640 C   0  0  0  0  0  0  0  0  0  0  0  0
  -21.0379  -30.6063   22.8481 C   0  0  0  0  0  0  0  0  0  0  0  0
  -24.4681  -28.8631   19.5557 C   0  0  0  0  0  0  0  0  0  0  0  0
  -32.6792  -22.3514   17.3517 C   0  0  0  0  0  0  0  0  0  0  0  0
  -32.6185  -24.5947   18.2467 C   0  0  0  0  0  0  0  0  0  0  0  0
  -21.7348  -15.3479   23.1826 C   0  0  0  0  0  0  0  0  0  0  0  0
  -21.1834  -15.6649   20.8518 C   0  0  0  0  0  0  0  0  0  0  0  0
  -25.8108  -29.0893   19.8555 C   0  0  0  0  0  0  0  0  0  0  0  0
  -19.5545  -17.8996   23.5825 C   0  0  0  0  0  0  0  0  0  0  0  0
  -19.2552  -18.7204   24.6698 C   0  0  0  0  0  0  0  0  0  0  0  0
  -26.0004  -26.8309   20.6820 C   0  0  0  0  0  0  0  0  0  0  0  0
  -18.2026  -16.8552   25.7880 C   0  0  0  0  0  0  0  0  0  0  0  0
  -23.4742  -15.2661   21.5079 C   0  0  0  0  0  0  0  0  0  0  0  0
  -25.5207  -13.8988   20.8369 C   0  0  0  0  0  0  0  0  0  0  0  0
  -18.6435  -30.2357   22.9799 C   0  0  0  0  0  0  0  0  0  0  0  0
  -23.8777  -27.6205   19.8274 C   0  0  0  0  0  0  0  0  0  0  0  0
  -19.9543  -29.7217   22.9824 C   0  0  0  0  0  0  0  0  0  0  0  0
  -24.6507  -26.5907   20.3824 C   0  0  0  0  0  0  0  0  0  0  0  0
  -31.3579  -22.1553   17.7536 C   0  0  0  0  0  0  0  0  0  0  0  0
  -31.2972  -24.3986   18.6486 C   0  0  0  0  0  0  0  0  0  0  0  0
  -30.6669  -23.1789   18.4021 C   0  0  0  0  0  0  0  0  0  0  0  0
  -20.7874  -15.5866   22.1870 C   0  0  0  0  0  0  0  0  0  0  0  0
  -26.5764  -28.0741   20.4214 C   0  0  0  0  0  0  0  0  0  0  0  0
  -19.1779  -16.5566   23.5979 C   0  0  0  0  0  0  0  0  0  0  0  0
  -18.5792  -18.1982   25.7726 C   0  0  0  0  0  0  0  0  0  0  0  0
  -18.5019  -16.0344   24.7007 C   0  0  0  0  0  0  0  0  0  0  0  0
  -24.8618  -15.1011   21.1565 C   0  0  0  0  0  0  0  0  0  0  0  0
  -26.8165  -14.2751   20.5807 C   0  0  0  0  0  0  0  0  0  0  0  0
  -28.8228  -27.5027   20.1086 C   0  0  0  0  0  0  0  0  0  1  0  0
  -25.0072  -12.5615   20.7769 C   0  0  0  0  0  0  0  0  0  0  0  0
  -30.1398  -27.6146   20.3114 C   0  0  0  0  0  0  0  0  0  0  0  0
  -31.1115  -26.7178   19.6069 C   0  0  0  0  0  0  0  0  0  0  0  0
  -21.5010  -26.6253   21.6888 C   0  0  0  0  0  0  0  0  0  0  0  0
  -22.0519  -23.7896   20.2131 C   0  0  0  0  0  0  0  0  0  0  0  0
  -24.2326  -21.7748   18.5303 C   0  0  0  0  0  0  0  0  0  0  0  0
  -29.1363  -19.3733   18.7147 C   0  0  0  0  0  0  0  0  0  0  0  0
  -17.4415  -29.3442   23.1671 C   0  0  0  0  0  0  0  0  0  0  0  0
  -22.4350  -27.3840   19.4734 C   0  0  0  0  0  0  0  0  0  0  0  0
  -24.0696  -25.2323   20.6747 C   0  0  0  0  0  0  0  0  0  0  0  0
  -17.7338  -27.8670   22.9168 C   0  0  0  0  0  0  0  0  0  0  0  0
  -30.0467  -17.6107   21.7415 C   0  0  0  0  0  0  0  0  0  0  0  0
  -19.0195  -27.4500   23.6238 C   0  0  0  0  0  0  0  0  0  0  0  0
  -28.8688  -16.6473   21.8984 C   0  0  0  0  0  0  0  0  0  0  0  0
  -29.5864  -18.9646   21.2093 C   0  0  0  0  0  0  0  0  0  0  0  0
  -27.6515  -17.9353   20.0821 C   0  0  0  0  0  0  0  0  0  0  0  0
  -20.2228  -28.2362   23.0896 C   0  0  1  0  0  0  0  0  0  0  0  0
  -21.8041  -26.2443   20.2674 C   0  0  1  0  0  0  0  0  0  0  0  0
  -28.0544  -16.5410   20.5954 C   0  0  2  0  0  0  0  0  0  0  0  0
  -24.4076  -19.4996   17.4862 C   0  0  0  0  0  0  0  0  0  0  0  0
  -22.3122  -22.5404   22.9847 C   0  0  0  0  0  0  0  0  0  0  0  0
  -23.3998  -20.5568   21.9121 C   0  0  0  0  0  0  0  0  0  0  0  0
  -21.0488  -21.1544   21.3302 C   0  0  0  0  0  0  0  0  0  0  0  0
  -24.7554  -22.9172   15.8507 C   0  0  0  0  0  0  0  0  0  0  0  0
  -30.7097  -20.8379   17.4752 C   0  0  0  0  0  0  0  0  0  0  0  0
  -22.9416  -22.5999   20.4814 C   0  0  1  0  0  0  0  0  0  0  0  0
  -24.0777  -20.9661   17.2551 C   0  0  2  0  0  0  0  0  0  0  0  0
  -22.4363  -21.7390   21.6735 C   0  0  0  0  0  0  0  0  0  0  0  0
  -25.6722  -16.1618   21.1086 N   0  0  0  0  0  0  0  0  0  0  0  0
  -26.8537  -15.6271   20.7559 N   0  0  0  0  0  0  0  0  0  0  0  0
  -22.6530  -25.0521   20.3166 N   0  0  0  0  0  0  0  0  0  0  0  0
  -28.8336  -18.7947   19.9585 N   0  0  0  0  0  0  0  0  0  0  0  0
  -29.3267  -22.9758   18.8082 N   0  0  0  0  0  0  0  0  0  0  0  0
  -27.9165  -13.5779   20.2250 N   0  0  0  0  0  0  0  0  0  0  0  0
  -23.6527  -12.3521   21.0696 N   0  0  0  0  0  0  0  0  0  0  0  0
  -30.6167  -25.4554   19.3064 N   0  0  0  0  0  0  0  0  0  0  0  0
  -20.6470  -27.7047   21.8121 N   0  0  0  0  0  0  0  0  0  0  0  0
  -23.0429  -21.8734   19.2204 N   0  0  0  0  0  0  0  0  0  0  0  0
  -30.2679  -20.1791   18.6842 N   0  0  0  0  0  0  0  0  0  0  0  0
  -30.6303  -28.6018   21.1961 N   0  3  0  0  0  0  0  0  0  0  0  0
  -24.9850  -21.4906   16.1956 N   0  3  0  0  0  0  0  0  0  0  0  0
  -25.7320  -11.5791   20.4888 O   0  0  0  0  0  0  0  0  0  0  0  0
  -32.2362  -27.1389   19.3451 O   0  0  0  0  0  0  0  0  0  0  0  0
  -22.0035  -25.9865   22.6059 O   0  0  0  0  0  0  0  0  0  0  0  0
  -20.8691  -23.6054   19.9155 O   0  0  0  0  0  0  0  0  0  0  0  0
  -25.3029  -22.2666   18.8813 O   0  0  0  0  0  0  0  0  0  0  0  0
  -28.4515  -19.1817   17.7040 O   0  0  0  0  0  0  0  0  0  0  0  0
  -19.4765  -15.7428   22.5180 O   0  0  0  0  0  0  0  0  0  0  0  0
  -27.8870  -28.2924   20.7156 O   0  0  0  0  0  0  0  0  0  1  0  0
  -18.2932  -18.9862   26.8173 F   0  0  0  0  0  0  0  0  0  0  0  0
  -18.1386  -14.7447   24.7217 F   0  0  0  0  0  0  0  0  0  0  0  0
  1  2  1  0  0  0  0
  1  6  2  0  0  0  0
  2  7  2  0  0  0  0
  3  9  1  0  0  0  0
  3 10  2  0  0  0  0
  4 11  2  0  0  0  0
  4 18  1  0  0  0  0
  5 12  1  0  0  0  0
  5 18  2  0  0  0  0
  6 20  1  0  0  0  0
  7 22  1  0  0  0  0
  8 13  2  0  0  0  0
  8 21  1  0  0  0  0
  9 24  2  0  0  0  0
 10 25  1  0  0  0  0
 11 27  1  0  0  0  0
 12 27  2  0  0  0  0
 13 28  1  0  0  0  0
 14 15  2  0  0  0  0
 14 29  1  0  0  0  0
 15 30  1  0  0  0  0
 16 23  1  0  0  0  0
 16 28  2  0  0  0  0
 17 30  2  0  0  0  0
 17 31  1  0  0  0  0
 18 32  1  0  0  0  0
 19 32  1  0  0  0  0
 19 33  2  0  0  0  0
 19 35  1  0  0  0  0
 20 22  2  0  0  0  0
 20 42  1  0  0  0  0
 21 23  2  0  0  0  0
 21 43  1  0  0  0  0
 22 51  1  0  0  0  0
 23 44  1  0  0  0  0
 24 26  1  0  0  0  0
 24 59  1  0  0  0  0
 25 26  2  0  0  0  0
 25 70  1  0  0  0  0
 26 67  1  0  0  0  0
 27 82  1  0  0  0  0
 28 83  1  0  0  0  0
 29 31  2  0  0  0  0
 29 82  1  0  0  0  0
 30 84  1  0  0  0  0
 31 85  1  0  0  0  0
 32 63  2  0  0  0  0
 33 64  1  0  0  0  0
 33 68  1  0  0  0  0
 34 36  2  0  0  0  0
 34 83  1  0  0  0  0
 35 69  1  0  0  0  0
 35 76  2  0  0  0  0
 36 37  1  0  0  0  0
 36 74  1  0  0  0  0
 37 70  1  0  0  0  0
 37 77  2  0  0  0  0
 38 52  1  0  0  0  0
 38 71  1  0  0  0  0
 38 78  2  0  0  0  0
 39 60  1  0  0  0  0
 39 65  1  0  0  0  0
 39 79  2  0  0  0  0
 40 61  1  0  0  0  0
 40 72  1  0  0  0  0
 40 80  2  0  0  0  0
 41 66  1  0  0  0  0
 41 73  1  0  0  0  0
 41 81  2  0  0  0  0
 42 45  1  0  0  0  0
 43 52  1  0  0  0  0
 44 65  1  0  0  0  0
 45 47  1  0  0  0  0
 46 48  1  0  0  0  0
 46 49  1  0  0  0  0
 47 51  1  0  0  0  0
 48 53  1  0  0  0  0
 49 66  1  0  0  0  0
 50 53  1  0  0  0  0
 50 66  1  0  0  0  0
 51 71  1  0  0  0  0
 52 65  1  0  0  0  0
 53 64  1  0  0  0  0
 54 61  1  0  0  0  0
 55 62  1  0  0  0  0
 56 62  1  0  0  0  0
 57 62  1  0  0  0  0
 58 75  1  0  0  0  0
 59 73  1  0  0  0  0
 60 62  1  0  0  0  0
 60 72  1  0  0  0  0
 61 75  1  0  0  0  0
 63 64  1  0  0  0  0
M  CHG  2  74   1  75   1
M  ISO  4  34 101  41 100  73 100  83 101
M  END
> <Batch ID>
0164

> <Smiles>
CNC(C)C(=O)NC(C(=O)N1Cc2cc([101O:1][101CH2:1]C(=N)C(=O)Nc3cccc(C[100NH:0][100C:0](=O)N4CCCC(n5nc(-c6ccc(Oc7ccc(F)cc7F)cc6)c(C(N)=O)c5N)C4)c3N)ccc2CC1C(=O)NC1CCCc2ccccc21)C(C)(C)C

> <Shape>
0.229

> <Color>
0.052

> <Negative vol penalty>
0.000

$$$$

  -OEChem-04052304023D

 93102  0     1  0  0  0  0  0999 V2000
  -30.0824  -23.2557   18.1555 C   0  0  0  0  0  0  0  0  0  0  0  0
  -28.8212  -23.6848   18.5564 C   0  0  0  0  0  0  0  0  0  0  0  0
  -29.8971  -18.0045   23.1476 C   0  0  0  0  0  0  0  0  0  0  0  0
  -29.0234  -18.3719   20.9253 C   0  0  0  0  0  0  0  0  0  0  0  0
  -31.2231  -23.8209   18.7241 C   0  0  0  0  0  0  0  0  0  0  0  0
  -28.7000  -24.6786   19.5270 C   0  0  0  0  0  0  0  0  0  0  0  0
  -24.3920  -29.0207   19.8319 C   0  0  0  0  0  0  0  0  0  0  0  0
  -30.4415  -16.7892   22.7328 C   0  0  0  0  0  0  0  0  0  0  0  0
  -29.5679  -17.1565   20.5104 C   0  0  0  0  0  0  0  0  0  0  0  0
  -23.2125  -29.1217   20.5683 C   0  0  0  0  0  0  0  0  0  0  0  0
  -28.8040  -13.8720   20.7538 C   0  0  0  0  0  0  0  0  0  0  0  0
  -28.0010  -13.0319   19.9825 C   0  0  0  0  0  0  0  0  0  0  0  0
  -19.8259  -25.1203   24.1108 C   0  0  0  0  0  0  0  0  0  0  0  0
  -24.3748  -30.4128   22.2419 C   0  0  0  0  0  0  0  0  0  0  0  0
  -17.9981  -25.7578   25.5456 C   0  0  0  0  0  0  0  0  0  0  0  0
  -29.6135  -13.1396   18.1866 C   0  0  0  0  0  0  0  0  0  0  0  0
  -29.1880  -18.7959   22.2439 C   0  0  0  0  0  0  0  0  0  0  0  0
  -29.2427  -21.3157   22.6380 C   0  0  0  0  0  0  0  0  0  0  0  0
  -31.1159  -24.8290   19.6951 C   0  0  0  0  0  0  0  0  0  0  0  0
  -25.5764  -29.6068   20.3012 C   0  0  0  0  0  0  0  0  0  0  0  0
  -29.8404  -25.2569   20.1100 C   0  0  0  0  0  0  0  0  0  0  0  0
  -19.3397  -23.8040   24.0574 C   0  0  0  0  0  0  0  0  0  0  0  0
  -25.5675  -30.3201   21.5084 C   0  0  0  0  0  0  0  0  0  0  0  0
  -17.5107  -24.4506   25.5029 C   0  0  0  0  0  0  0  0  0  0  0  0
  -18.1776  -23.4537   24.7744 C   0  0  0  0  0  0  0  0  0  0  0  0
  -19.1570  -26.0917   24.8524 C   0  0  0  0  0  0  0  0  0  0  0  0
  -30.2769  -16.3652   21.4141 C   0  0  0  0  0  0  0  0  0  0  0  0
  -23.2044  -29.8153   21.7749 C   0  0  0  0  0  0  0  0  0  0  0  0
  -30.0117  -14.3460   20.2415 C   0  0  0  0  0  0  0  0  0  0  0  0
  -28.4058  -12.6656   18.6989 C   0  0  0  0  0  0  0  0  0  0  0  0
  -30.4165  -13.9798   18.9579 C   0  0  0  0  0  0  0  0  0  0  0  0
  -28.6249  -20.0512   22.6720 C   0  0  0  0  0  0  0  0  0  0  0  0
  -28.2992  -22.1727   23.1496 C   0  0  0  0  0  0  0  0  0  0  0  0
  -30.5524  -21.6828   22.1843 C   0  0  0  0  0  0  0  0  0  0  0  0
  -17.3878  -20.0552   23.6721 C   0  0  0  0  0  0  0  0  0  0  0  0
  -28.4368  -28.5122   21.1520 C   0  0  0  0  0  0  0  0  0  0  0  0
  -29.1442  -31.6694   21.3850 C   0  0  0  0  0  0  0  0  0  0  0  0
  -20.7872  -27.9194   24.2640 C   0  0  0  0  0  0  0  0  0  0  0  0
  -28.0277  -34.8633   21.8311 C   0  0  0  0  0  0  0  0  0  0  0  0
  -22.4044  -21.8901   23.3114 C   0  0  0  0  0  0  0  0  0  0  0  0
  -32.3770  -25.3766   20.3153 C   0  0  0  0  0  0  0  0  0  0  0  0
  -26.8342  -29.5116   19.4819 C   0  0  0  0  0  0  0  0  0  0  0  0
  -26.8076  -30.9846   22.0460 C   0  0  0  0  0  0  0  0  0  0  0  0
  -32.1663  -26.6888   21.0663 C   0  0  0  0  0  0  0  0  0  0  0  0
  -24.5882  -22.2854   26.1700 C   0  0  0  0  0  0  0  0  0  0  0  0
  -30.9377  -26.5977   21.9657 C   0  0  0  0  0  0  0  0  0  0  0  0
  -25.9382  -21.8725   25.5809 C   0  0  0  0  0  0  0  0  0  0  0  0
  -19.1594  -21.5967   22.8795 C   0  0  0  0  0  0  0  0  0  0  0  0
  -23.4555  -21.4311   25.6086 C   0  0  0  0  0  0  0  0  0  0  0  0
  -24.7131  -21.0159   23.5302 C   0  0  0  0  0  0  0  0  0  0  0  0
  -29.6681  -26.3502   21.1421 C   0  0  1  0  0  0  0  0  0  0  0  0
  -20.0826  -22.7634   23.2498 C   0  0  2  0  0  0  0  0  0  0  0  0
  -18.3829  -21.0887   24.0933 C   0  0  1  0  0  0  0  0  0  0  0  0
  -28.1016  -29.7092   20.3078 C   0  0  1  0  0  0  0  0  0  0  0  0
  -25.8966  -21.8574   24.0413 C   0  0  2  0  0  0  0  0  0  0  0  0
  -16.2552  -24.1533   26.2623 C   0  0  0  0  0  0  0  0  0  0  0  0
  -28.8456  -37.2288   22.0123 C   0  0  0  0  0  0  0  0  0  0  0  0
  -30.1092  -31.1154   24.2261 C   0  0  0  0  0  0  0  0  0  0  0  0
  -30.0093  -33.5781   24.6657 C   0  0  0  0  0  0  0  0  0  0  0  0
  -31.5534  -32.6859   22.9214 C   0  0  0  0  0  0  0  0  0  0  0  0
  -26.4810  -35.7031   19.4516 C   0  0  0  0  0  0  0  0  0  0  0  0
  -20.9590  -29.4015   24.5766 C   0  0  0  0  0  0  0  0  0  0  0  0
  -22.1835  -30.0140   23.9136 C   0  0  0  0  0  0  0  0  0  1  0  0
  -29.0639  -32.7049   22.4805 C   0  0  1  0  0  0  0  0  0  0  0  0
  -28.3234  -36.1481   21.0785 C   0  0  2  0  0  0  0  0  0  0  0  0
  -17.8482  -18.6273   23.6889 C   0  0  0  0  0  0  0  0  0  0  0  0
  -30.1609  -32.5070   23.5645 C   0  0  0  0  0  0  0  0  0  0  0  0
  -27.3850  -20.0963   23.1664 N   0  0  0  0  0  0  0  0  0  0  0  0
  -27.2160  -21.3995   23.4478 N   0  0  0  0  0  0  0  0  0  0  0  0
  -17.6500  -22.1682   24.7272 N   0  0  0  0  0  0  0  0  0  0  0  0
  -28.0139  -30.8580   21.2116 N   0  0  0  0  0  0  0  0  0  0  0  0
  -23.4603  -21.4745   24.1395 N   0  0  0  0  0  0  0  0  0  0  0  0
  -28.2989  -23.5047   23.3692 N   0  0  0  0  0  0  0  0  0  0  0  0
  -31.3937  -20.6777   21.6882 N   0  0  0  0  0  0  0  0  0  0  0  0
  -19.6534  -27.4163   24.8964 N   0  0  0  0  0  0  0  0  0  0  0  0
  -29.2271  -27.5763   20.5124 N   0  0  0  0  0  0  0  0  0  0  0  0
  -29.1060  -34.0041   21.8181 N   0  0  0  0  0  0  0  0  0  0  0  0
  -21.2507  -22.3026   23.9669 N   0  0  0  0  0  0  0  0  0  0  0  0
  -27.0890  -36.6560   20.4157 N   0  3  0  0  0  0  0  0  0  0  0  0
  -30.9702  -22.8645   22.2331 O   0  0  0  0  0  0  0  0  0  0  0  0
  -16.2473  -20.3610   23.3282 O   0  0  0  0  0  0  0  0  0  0  0  0
  -28.0113  -28.4436   22.2991 O   0  0  0  0  0  0  0  0  0  0  0  0
  -30.1691  -31.5883   20.7033 O   0  0  0  0  0  0  0  0  0  0  0  0
  -21.5728  -27.3079   23.5476 O   0  0  0  0  0  0  0  0  0  0  0  0
  -26.9493  -34.6455   22.3790 O   0  0  0  0  0  0  0  0  0  0  0  0
  -22.4855  -21.8981   22.0783 O   0  0  0  0  0  0  0  0  0  0  0  0
  -30.8082  -15.1794   21.0089 O   0  0  0  0  0  0  0  0  0  0  0  0
  -22.0546  -29.9148   22.4959 O   0  0  0  0  0  0  0  0  0  1  0  0
  -27.6353  -11.8576   17.9588 F   0  0  0  0  0  0  0  0  0  0  0  0
  -31.5763  -14.4310   18.4608 F   0  0  0  0  0  0  0  0  0  0  0  0
  -19.1366  -18.5181   24.0990 F   0  0  0  0  0  0  0  0  0  0  0  0
  -17.1000  -17.8666   24.5268 F   0  0  0  0  0  0  0  0  0  0  0  0
  -17.7750  -18.0510   22.4627 F   0  0  0  0  0  0  0  0  0  0  0  0
  1  2  1  0  0  0  0
  1  5  2  0  0  0  0
  2  6  2  0  0  0  0
  3  8  2  0  0  0  0
  3 17  1  0  0  0  0
  4  9  1  0  0  0  0
  4 17  2  0  0  0  0
  5 19  1  0  0  0  0
  6 21  1  0  0  0  0
  7 10  2  0  0  0  0
  7 20  1  0  0  0  0
  8 27  1  0  0  0  0
  9 27  2  0  0  0  0
 10 28  1  0  0  0  0
 11 12  2  0  0  0  0
 11 29  1  0  0  0  0
 12 30  1  0  0  0  0
 13 22  1  0  0  0  0
 13 26  2  0  0  0  0
 14 23  1  0  0  0  0
 14 28  2  0  0  0  0
 15 24  2  0  0  0  0
 15 26  1  0  0  0  0
 16 30  2  0  0  0  0
 16 31  1  0  0  0  0
 17 32  1  0  0  0  0
 18 32  1  0  0  0  0
 18 33  2  0  0  0  0
 18 34  1  0  0  0  0
 19 21  2  0  0  0  0
 19 41  1  0  0  0  0
 20 23  2  0  0  0  0
 20 42  1  0  0  0  0
 21 51  1  0  0  0  0
 22 25  2  0  0  0  0
 22 52  1  0  0  0  0
 23 43  1  0  0  0  0
 24 25  1  0  0  0  0
 24 56  1  0  0  0  0
 25 70  1  0  0  0  0
 26 75  1  0  0  0  0
 27 87  1  0  0  0  0
 28 88  1  0  0  0  0
 29 31  2  0  0  0  0
 29 87  1  0  0  0  0
 30 89  1  0  0  0  0
 31 90  1  0  0  0  0
 32 68  2  0  0  0  0
 33 69  1  0  0  0  0
 33 73  1  0  0  0  0
 34 74  1  0  0  0  0
 34 80  2  0  0  0  0
 35 53  1  0  0  0  0
 35 66  1  0  0  0  0
 35 81  2  0  0  0  0
 36 54  1  0  0  0  0
 36 76  1  0  0  0  0
 36 82  2  0  0  0  0
 37 64  1  0  0  0  0
 37 71  1  0  0  0  0
 37 83  2  0  0  0  0
 38 62  1  0  0  0  0
 38 75  1  0  0  0  0
 38 84  2  0  0  0  0
 39 65  1  0  0  0  0
 39 77  1  0  0  0  0
 39 85  2  0  0  0  0
 40 72  1  0  0  0  0
 40 78  1  0  0  0  0
 40 86  2  0  0  0  0
 41 44  1  0  0  0  0
 42 54  1  0  0  0  0
 43 71  1  0  0  0  0
 44 46  1  0  0  0  0
 45 47  1  0  0  0  0
 45 49  1  0  0  0  0
 46 51  1  0  0  0  0
 47 55  1  0  0  0  0
 48 52  1  0  0  0  0
 48 53  1  0  0  0  0
 49 72  1  0  0  0  0
 50 55  1  0  0  0  0
 50 72  1  0  0  0  0
 51 76  1  0  0  0  0
 52 78  1  0  0  0  0
 53 70  1  0  0  0  0
 54 71  1  0  0  0  0
 55 69  1  0  0  0  0
 57 65  1  0  0  0  0
 58 67  1  0  0  0  0
 59 67  1  0  0  0  0
 60 67  1  0  0  0  0
 61 79  1  0  0  0  0
 62 63  1  0  0  0  0
 63 88  1  0  0  0  0
 64 67  1  0  0  0  0
 64 77  1  0  0  0  0
 65 79  1  0  0  0  0
 66 91  1  0  0  0  0
 66 92  1  0  0  0  0
 66 93  1  0  0  0  0
 68 69  1  0  0  0  0
M  CHG  1  79   1
M  ISO  4  40 100  63 101  78 100  88 101
M  END
> <Batch ID>
0164

> <Smiles>
CNC(C)C(=O)NC(C(=O)N1Cc2cc([101O:1][101CH2:1]CC(=O)Nc3cc(C)c4c(c3)C([100NH:0][100C:0](=O)N3CCCC(n5nc(-c6ccc(Oc7ccc(F)cc7F)cc6)c(C(N)=O)c5N)C3)CC(C(=O)C(F)(F)F)N4)ccc2CC1C(=O)NC1CCCc2ccccc21)C(C)(C)C

> <Shape>
0.210

> <Color>
0.040

> <Negative vol penalty>
0.000

$$$$

  -OEChem-04052304023D

 86 94  0     1  0  0  0  0  0999 V2000
  -28.4935  -23.5502   17.9159 C   0  0  0  0  0  0  0  0  0  0  0  0
  -27.4324  -24.4477   17.9548 C   0  0  0  0  0  0  0  0  0  0  0  0
  -26.9786  -13.4839   21.8532 C   0  0  0  0  0  0  0  0  0  0  0  0
  -25.5140  -14.3287   20.1274 C   0  0  0  0  0  0  0  0  0  0  0  0
  -22.6987  -22.9742   19.0692 C   0  0  0  0  0  0  0  0  0  0  0  0
  -29.3937  -23.4946   18.9779 C   0  0  0  0  0  0  0  0  0  0  0  0
  -27.2780  -25.2982   19.0501 C   0  0  0  0  0  0  0  0  0  0  0  0
  -23.7746  -28.7375   18.7327 C   0  0  0  0  0  0  0  0  0  0  0  0
  -23.8249  -22.2581   19.4748 C   0  0  0  0  0  0  0  0  0  0  0  0
  -26.1762  -12.3499   21.9791 C   0  0  0  0  0  0  0  0  0  0  0  0
  -24.7116  -13.1947   20.2533 C   0  0  0  0  0  0  0  0  0  0  0  0
  -22.4149  -28.4369   18.8004 C   0  0  0  0  0  0  0  0  0  0  0  0
  -22.3185  -12.0567   22.3530 C   0  0  0  0  0  0  0  0  0  0  0  0
  -20.9367  -12.2421   22.3955 C   0  0  0  0  0  0  0  0  0  0  0  0
  -22.3541  -29.2508   21.0704 C   0  0  0  0  0  0  0  0  0  0  0  0
  -23.9287  -23.5692   21.5015 C   0  0  0  0  0  0  0  0  0  0  0  0
  -20.6930  -10.8790   20.4157 C   0  0  0  0  0  0  0  0  0  0  0  0
  -26.6475  -14.4734   20.9274 C   0  0  0  0  0  0  0  0  0  0  0  0
  -22.1875  -23.9878   19.8798 C   0  0  0  0  0  0  0  0  0  0  0  0
  -28.5808  -15.8144   19.9419 C   0  0  0  0  0  0  0  0  0  0  0  0
  -29.2423  -24.3365   20.0920 C   0  0  0  0  0  0  0  0  0  0  0  0
  -24.4378  -29.2879   19.8389 C   0  0  0  0  0  0  0  0  0  0  0  0
  -28.1898  -25.2740   20.1209 C   0  0  0  0  0  0  0  0  0  0  0  0
  -23.7216  -29.5599   21.0134 C   0  0  0  0  0  0  0  0  0  0  0  0
  -24.4399  -22.5556   20.6909 C   0  0  0  0  0  0  0  0  0  0  0  0
  -25.0427  -12.2053   21.1791 C   0  0  0  0  0  0  0  0  0  0  0  0
  -21.7050  -28.6908   19.9703 C   0  0  0  0  0  0  0  0  0  0  0  0
  -22.8876  -11.2826   21.3418 C   0  0  0  0  0  0  0  0  0  0  0  0
  -20.1239  -11.6532   21.4269 C   0  0  0  0  0  0  0  0  0  0  0  0
  -22.8025  -24.2853   21.0959 C   0  0  0  0  0  0  0  0  0  0  0  0
  -22.0749  -10.6937   20.3732 C   0  0  0  0  0  0  0  0  0  0  0  0
  -27.4756  -15.6452   20.7973 C   0  0  0  0  0  0  0  0  0  0  0  0
  -29.0183  -17.0916   20.1947 C   0  0  0  0  0  0  0  0  0  0  0  0
  -20.9954  -24.7445   19.4473 C   0  0  0  0  0  0  0  0  0  0  0  0
  -29.1602  -14.8990   19.0027 C   0  0  0  0  0  0  0  0  0  0  0  0
  -26.8378  -28.3602   21.7052 C   0  0  0  0  0  0  0  0  0  0  0  0
  -26.4962  -31.3318   22.9603 C   0  0  0  0  0  0  0  0  0  0  0  0
  -24.4800  -34.0293   23.5129 C   0  0  0  0  0  0  0  0  0  0  0  0
  -26.3139  -21.9955   22.2786 C   0  0  0  0  0  0  0  0  0  0  0  0
  -30.2502  -24.2399   21.2101 C   0  0  0  0  0  0  0  0  0  0  0  0
  -25.8989  -29.6313   19.7409 C   0  0  0  0  0  0  0  0  0  0  0  0
  -24.3825  -30.1688   22.2221 C   0  0  0  0  0  0  0  0  0  0  0  0
  -29.7544  -24.8596   22.5126 C   0  0  0  0  0  0  0  0  0  0  0  0
  -29.1643  -20.3803   23.6728 C   0  0  0  0  0  0  0  0  0  0  0  0
  -29.2006  -26.2517   22.2482 C   0  0  0  0  0  0  0  0  0  0  0  0
  -29.1588  -19.0003   23.0112 C   0  0  0  0  0  0  0  0  0  0  0  0
  -27.7489  -20.8731   23.9686 C   0  0  0  0  0  0  0  0  0  0  0  0
  -26.8281  -19.4782   22.1588 C   0  0  0  0  0  0  0  0  0  0  0  0
  -27.9842  -26.1875   21.3158 C   0  0  1  0  0  0  0  0  0  0  0  0
  -26.5862  -29.7125   21.1004 C   0  0  1  0  0  0  0  0  0  0  0  0
  -28.2288  -18.9682   21.7825 C   0  0  2  0  0  0  0  0  0  0  0  0
  -24.4698  -36.2913   24.5995 C   0  0  0  0  0  0  0  0  0  0  0  0
  -26.2643  -30.0114   25.7012 C   0  0  0  0  0  0  0  0  0  0  0  0
  -25.3255  -32.1598   26.5795 C   0  0  0  0  0  0  0  0  0  0  0  0
  -27.6440  -32.0969   25.6613 C   0  0  0  0  0  0  0  0  0  0  0  0
  -17.4010  -27.7992   20.8091 C   0  0  0  0  0  0  0  0  0  0  0  0
  -18.4724  -26.3444   22.5388 C   0  0  0  0  0  0  0  0  0  0  0  0
  -23.9356  -35.3901   20.9418 C   0  0  0  0  0  0  0  0  0  0  0  0
  -18.9651  -25.9977   20.0828 C   0  0  0  0  0  0  0  0  0  0  0  0
  -19.8566  -28.0442   21.3197 C   0  0  0  0  0  0  0  0  0  1  0  0
  -25.6793  -31.9326   24.0786 C   0  0  1  0  0  0  0  0  0  0  0  0
  -24.7099  -35.5164   23.3131 C   0  0  2  0  0  0  0  0  0  0  0  0
  -26.2160  -31.5369   25.4832 C   0  0  0  0  0  0  0  0  0  0  0  0
  -18.6900  -27.0418   21.1843 C   0  0  0  0  0  0  0  0  0  0  0  0
  -27.2265  -16.7283   21.5382 N   0  0  0  0  0  0  0  0  0  0  0  0
  -28.1814  -17.5902   21.1492 N   0  0  0  0  0  0  0  0  0  0  0  0
  -25.8142  -30.4809   22.0790 N   0  0  0  0  0  0  0  0  0  0  0  0
  -26.9266  -20.8184   22.7579 N   0  0  0  0  0  0  0  0  0  0  0  0
  -30.0335  -17.8255   19.6914 N   0  0  0  0  0  0  0  0  0  0  0  0
  -20.7927  -24.9035   18.1394 N   0  0  0  0  0  0  0  0  0  0  0  0
  -28.5863  -13.6274   18.8682 N   0  0  0  0  0  0  0  0  0  0  0  0
  -25.5838  -21.8276   21.1025 N   0  0  0  0  0  0  0  0  0  0  0  0
  -27.6189  -27.5307   20.9233 N   0  0  0  0  0  0  0  0  0  0  0  0
  -25.6479  -33.3705   23.8343 N   0  0  0  0  0  0  0  0  0  0  0  0
  -20.1790  -25.2350   20.3871 N   0  3  0  0  0  0  0  0  0  0  0  0
  -23.7909  -36.0467   22.2666 N   0  3  0  0  0  0  0  0  0  0  0  0
  -30.1672  -15.1939   18.3153 O   0  0  0  0  0  0  0  0  0  0  0  0
  -26.3599  -28.0900   22.8008 O   0  0  0  0  0  0  0  0  0  0  0  0
  -27.6937  -31.6129   22.8677 O   0  0  0  0  0  0  0  0  0  0  0  0
  -23.3742  -33.5050   23.3992 O   0  0  0  0  0  0  0  0  0  0  0  0
  -26.4508  -23.0786   22.8532 O   0  0  0  0  0  0  0  0  0  0  0  0
  -24.2596  -11.0988   21.3015 O   0  0  0  0  0  0  0  0  0  0  0  0
  -20.3779  -28.3977   20.0393 O   0  0  0  0  0  0  0  0  0  1  0  0
  -18.7969  -11.8300   21.4687 F   0  0  0  0  0  0  0  0  0  0  0  0
  -22.3197  -25.2588   21.8807 F   0  0  0  0  0  0  0  0  0  0  0  0
  -22.6157   -9.9479   19.4000 F   0  0  0  0  0  0  0  0  0  0  0  0
  1  2  1  0  0  0  0
  1  6  2  0  0  0  0
  2  7  2  0  0  0  0
  3 10  2  0  0  0  0
  3 18  1  0  0  0  0
  4 11  1  0  0  0  0
  4 18  2  0  0  0  0
  5  9  2  0  0  0  0
  5 19  1  0  0  0  0
  6 21  1  0  0  0  0
  7 23  1  0  0  0  0
  8 12  2  0  0  0  0
  8 22  1  0  0  0  0
  9 25  1  0  0  0  0
 10 26  1  0  0  0  0
 11 26  2  0  0  0  0
 12 27  1  0  0  0  0
 13 14  2  0  0  0  0
 13 28  1  0  0  0  0
 14 29  1  0  0  0  0
 15 24  1  0  0  0  0
 15 27  2  0  0  0  0
 16 25  2  0  0  0  0
 16 30  1  0  0  0  0
 17 29  2  0  0  0  0
 17 31  1  0  0  0  0
 18 32  1  0  0  0  0
 19 30  2  0  0  0  0
 19 34  1  0  0  0  0
 20 32  1  0  0  0  0
 20 33  2  0  0  0  0
 20 35  1  0  0  0  0
 21 23  2  0  0  0  0
 21 40  1  0  0  0  0
 22 24  2  0  0  0  0
 22 41  1  0  0  0  0
 23 49  1  0  0  0  0
 24 42  1  0  0  0  0
 25 72  1  0  0  0  0
 26 82  1  0  0  0  0
 27 83  1  0  0  0  0
 28 31  2  0  0  0  0
 28 82  1  0  0  0  0
 29 84  1  0  0  0  0
 30 85  1  0  0  0  0
 31 86  1  0  0  0  0
 32 65  2  0  0  0  0
 33 66  1  0  0  0  0
 33 69  1  0  0  0  0
 34 70  1  0  0  0  0
 34 75  2  0  0  0  0
 35 71  1  0  0  0  0
 35 77  2  0  0  0  0
 36 50  1  0  0  0  0
 36 73  1  0  0  0  0
 36 78  2  0  0  0  0
 37 61  1  0  0  0  0
 37 67  1  0  0  0  0
 37 79  2  0  0  0  0
 38 62  1  0  0  0  0
 38 74  1  0  0  0  0
 38 80  2  0  0  0  0
 39 68  1  0  0  0  0
 39 72  1  0  0  0  0
 39 81  2  0  0  0  0
 40 43  1  0  0  0  0
 41 50  1  0  0  0  0
 42 67  1  0  0  0  0
 43 45  1  0  0  0  0
 44 46  1  0  0  0  0
 44 47  1  0  0  0  0
 45 49  1  0  0  0  0
 46 51  1  0  0  0  0
 47 68  1  0  0  0  0
 48 51  1  0  0  0  0
 48 68  1  0  0  0  0
 49 73  1  0  0  0  0
 50 67  1  0  0  0  0
 51 66  1  0  0  0  0
 52 62  1  0  0  0  0
 53 63  1  0  0  0  0
 54 63  1  0  0  0  0
 55 63  1  0  0  0  0
 56 64  1  0  0  0  0
 57 64  1  0  0  0  0
 58 76  1  0  0  0  0
 59 64  1  0  0  0  0
 59 75  1  0  0  0  0
 60 64  1  0  0  0  0
 60 83  1  0  0  0  0
 61 63  1  0  0  0  0
 61 74  1  0  0  0  0
 62 76  1  0  0  0  0
 65 66  1  0  0  0  0
M  CHG  2  75   1  76   1
M  ISO  4  39 100  60 101  72 100  83 101
M  END
> <Batch ID>
0164

> <Smiles>
CNC(C)C(=O)NC(C(=O)N1Cc2cc([101O:1][101CH2:1]C(C)(C)CNC(=N)c3ccc([100NH:0][100C:0](=O)N4CCCC(n5nc(-c6ccc(Oc7ccc(F)cc7F)cc6)c(C(N)=O)c5N)C4)cc3F)ccc2CC1C(=O)NC1CCCc2ccccc21)C(C)(C)C

> <Shape>
0.286

> <Color>
0.065

> <Negative vol penalty>
0.000

$$$$

  -OEChem-04052304023D

 86 94  0     1  0  0  0  0  0999 V2000
  -16.9664  -30.3035   24.2312 C   0  0  0  0  0  0  0  0  0  0  0  0
  -17.9606  -29.6443   24.9470 C   0  0  0  0  0  0  0  0  0  0  0  0
  -32.6419  -18.2681   21.7505 C   0  0  0  0  0  0  0  0  0  0  0  0
  -23.0652   -9.8792   21.4743 C   0  0  0  0  0  0  0  0  0  0  0  0
  -23.8684  -10.7263   23.5896 C   0  0  0  0  0  0  0  0  0  0  0  0
  -16.9057  -30.1748   22.8442 C   0  0  0  0  0  0  0  0  0  0  0  0
  -18.8941  -28.8549   24.2762 C   0  0  0  0  0  0  0  0  0  0  0  0
  -24.7908  -28.0824   25.7386 C   0  0  0  0  0  0  0  0  0  0  0  0
  -31.8530  -19.3487   22.1447 C   0  0  0  0  0  0  0  0  0  0  0  0
  -32.0423  -17.1143   21.2456 C   0  0  0  0  0  0  0  0  0  0  0  0
  -22.3362   -8.8969   22.1445 C   0  0  0  0  0  0  0  0  0  0  0  0
  -23.1392   -9.7440   24.2598 C   0  0  0  0  0  0  0  0  0  0  0  0
  -25.4614  -27.0744   26.4299 C   0  0  0  0  0  0  0  0  0  0  0  0
  -22.9423   -5.9160   23.6181 C   0  0  0  0  0  0  0  0  0  0  0  0
  -23.0002   -4.6143   23.1204 C   0  0  0  0  0  0  0  0  0  0  0  0
  -26.0318  -26.0248   24.3342 C   0  0  0  0  0  0  0  0  0  0  0  0
  -20.6081   -4.6373   22.7820 C   0  0  0  0  0  0  0  0  0  0  0  0
  -23.8314  -10.7939   22.1969 C   0  0  0  0  0  0  0  0  0  0  0  0
  -24.1493  -13.1000   21.1537 C   0  0  0  0  0  0  0  0  0  0  0  0
  -17.8448  -29.3913   22.1552 C   0  0  0  0  0  0  0  0  0  0  0  0
  -24.7262  -28.0632   24.3379 C   0  0  0  0  0  0  0  0  0  0  0  0
  -18.8452  -28.7145   22.8788 C   0  0  0  0  0  0  0  0  0  0  0  0
  -25.3619  -27.0350   23.6273 C   0  0  0  0  0  0  0  0  0  0  0  0
  -30.4644  -19.2755   22.0342 C   0  0  0  0  0  0  0  0  0  0  0  0
  -30.6538  -17.0410   21.1351 C   0  0  0  0  0  0  0  0  0  0  0  0
  -22.3731   -8.8293   23.5372 C   0  0  0  0  0  0  0  0  0  0  0  0
  -26.0796  -26.0438   25.7279 C   0  0  0  0  0  0  0  0  0  0  0  0
  -21.7173   -6.5784   23.6978 C   0  0  0  0  0  0  0  0  0  0  0  0
  -21.8331   -3.9750   22.7023 C   0  0  0  0  0  0  0  0  0  0  0  0
  -20.5502   -5.9391   23.2797 C   0  0  0  0  0  0  0  0  0  0  0  0
  -29.8648  -18.1216   21.5294 C   0  0  0  0  0  0  0  0  0  0  0  0
  -24.5852  -11.8084   21.5052 C   0  0  0  0  0  0  0  0  0  0  0  0
  -25.2279  -13.6655   20.5187 C   0  0  0  0  0  0  0  0  0  0  0  0
  -22.8826  -13.7321   21.3810 C   0  0  0  0  0  0  0  0  0  0  0  0
  -28.7185  -21.8486   25.8893 C   0  0  0  0  0  0  0  0  0  0  0  0
  -28.0029  -23.0240   26.5241 C   0  0  0  0  0  0  0  0  0  0  0  0
  -22.3789  -27.8726   22.2030 C   0  0  0  0  0  0  0  0  0  0  0  0
  -24.7882  -28.3663   20.0880 C   0  0  0  0  0  0  0  0  0  0  0  0
  -28.1234  -28.1580   19.3952 C   0  0  0  0  0  0  0  0  0  0  0  0
  -30.6872  -14.7081   20.1850 C   0  0  0  0  0  0  0  0  0  0  0  0
  -17.7103  -29.2442   20.6602 C   0  0  0  0  0  0  0  0  0  0  0  0
  -24.0216  -29.1723   23.6059 C   0  0  0  0  0  0  0  0  0  0  0  0
  -25.3390  -26.9795   22.1224 C   0  0  0  0  0  0  0  0  0  0  0  0
  -18.9636  -28.6901   19.9874 C   0  0  0  0  0  0  0  0  0  0  0  0
  -29.5489  -11.5936   18.8884 C   0  0  0  0  0  0  0  0  0  0  0  0
  -19.4921  -27.4826   20.7552 C   0  0  0  0  0  0  0  0  0  0  0  0
  -28.1202  -11.4781   19.4247 C   0  0  0  0  0  0  0  0  0  0  0  0
  -30.4846  -12.2475   19.9036 C   0  0  0  0  0  0  0  0  0  0  0  0
  -28.5980  -13.4255   20.9631 C   0  0  0  0  0  0  0  0  0  0  0  0
  -19.8908  -27.8691   22.1846 C   0  0  1  0  0  0  0  0  0  0  0  0
  -23.5803  -28.7749   22.2007 C   0  0  1  0  0  0  0  0  0  0  0  0
  -27.6046  -12.8319   19.9509 C   0  0  2  0  0  0  0  0  0  0  0  0
  -29.7878  -28.6016   17.5702 C   0  0  0  0  0  0  0  0  0  0  0  0
  -23.8548  -25.8541   18.6294 C   0  0  0  0  0  0  0  0  0  0  0  0
  -26.0549  -25.8143   17.4352 C   0  0  0  0  0  0  0  0  0  0  0  0
  -24.5081  -27.7477   17.1321 C   0  0  0  0  0  0  0  0  0  0  0  0
  -29.5942  -30.1186   21.0541 C   0  0  0  0  0  0  0  0  0  0  0  0
  -29.6189  -20.4398   22.4590 C   0  0  0  0  0  0  0  0  0  0  0  0
  -28.7299  -21.7523   24.3892 C   0  0  0  0  0  0  0  0  0  0  0  0
  -27.3452  -24.0333   25.6176 C   0  0  0  0  0  0  0  0  0  1  0  0
  -25.7390  -27.4769   19.3238 C   0  0  1  0  0  0  0  0  0  0  0  0
  -29.0936  -29.1632   18.8012 C   0  0  2  0  0  0  0  0  0  0  0  0
  -25.0382  -26.7229   18.1585 C   0  0  0  0  0  0  0  0  0  0  0  0
  -25.8427  -11.5674   21.1248 N   0  0  0  0  0  0  0  0  0  0  0  0
  -26.2061  -12.7152   20.5277 N   0  0  0  0  0  0  0  0  0  0  0  0
  -24.6321  -28.0835   21.4523 N   0  0  0  0  0  0  0  0  0  0  0  0
  -29.9335  -13.5274   20.3541 N   0  0  0  0  0  0  0  0  0  0  0  0
  -25.4255  -14.8780   19.9590 N   0  0  0  0  0  0  0  0  0  0  0  0
  -21.8850  -13.0085   22.0486 N   0  0  0  0  0  0  0  0  0  0  0  0
  -30.0476  -15.8679   20.6212 N   0  0  0  0  0  0  0  0  0  0  0  0
  -21.1712  -28.5438   22.1872 N   0  0  0  0  0  0  0  0  0  0  0  0
  -26.8465  -28.3287   18.9038 N   0  0  0  0  0  0  0  0  0  0  0  0
  -30.1353  -29.5312   19.8014 N   0  3  0  0  0  0  0  0  0  0  0  0
  -29.5115  -20.5738   23.9370 N   0  3  0  0  0  0  0  0  0  0  0  0
  -22.6369  -14.8980   20.9887 O   0  0  0  0  0  0  0  0  0  0  0  0
  -29.2473  -21.0406   26.6418 O   0  0  0  0  0  0  0  0  0  0  0  0
  -27.9996  -23.0898   27.7465 O   0  0  0  0  0  0  0  0  0  0  0  0
  -22.5360  -26.6573   22.2167 O   0  0  0  0  0  0  0  0  0  0  0  0
  -24.2110  -29.2828   19.4977 O   0  0  0  0  0  0  0  0  0  0  0  0
  -28.4651  -27.3041   20.2105 O   0  0  0  0  0  0  0  0  0  0  0  0
  -31.8058  -14.6951   19.6647 O   0  0  0  0  0  0  0  0  0  0  0  0
  -21.6616   -7.8711   24.1915 O   0  0  0  0  0  0  0  0  0  0  0  0
  -26.7343  -25.0584   26.4002 O   0  0  0  0  0  0  0  0  0  1  0  0
  -21.8891   -2.7255   22.2229 F   0  0  0  0  0  0  0  0  0  0  0  0
  -19.3706   -6.5708   23.3528 F   0  0  0  0  0  0  0  0  0  0  0  0
  -28.5293  -18.0526   21.4222 F   0  0  0  0  0  0  0  0  0  0  0  0
  1  2  1  0  0  0  0
  1  6  2  0  0  0  0
  2  7  2  0  0  0  0
  3  9  2  0  0  0  0
  3 10  1  0  0  0  0
  4 11  2  0  0  0  0
  4 18  1  0  0  0  0
  5 12  1  0  0  0  0
  5 18  2  0  0  0  0
  6 20  1  0  0  0  0
  7 22  1  0  0  0  0
  8 13  2  0  0  0  0
  8 21  1  0  0  0  0
  9 24  1  0  0  0  0
 10 25  2  0  0  0  0
 11 26  1  0  0  0  0
 12 26  2  0  0  0  0
 13 27  1  0  0  0  0
 14 15  2  0  0  0  0
 14 28  1  0  0  0  0
 15 29  1  0  0  0  0
 16 23  1  0  0  0  0
 16 27  2  0  0  0  0
 17 29  2  0  0  0  0
 17 30  1  0  0  0  0
 18 32  1  0  0  0  0
 19 32  1  0  0  0  0
 19 33  2  0  0  0  0
 19 34  1  0  0  0  0
 20 22  2  0  0  0  0
 20 41  1  0  0  0  0
 21 23  2  0  0  0  0
 21 42  1  0  0  0  0
 22 50  1  0  0  0  0
 23 43  1  0  0  0  0
 24 31  2  0  0  0  0
 24 58  1  0  0  0  0
 25 31  1  0  0  0  0
 25 70  1  0  0  0  0
 26 82  1  0  0  0  0
 27 83  1  0  0  0  0
 28 30  2  0  0  0  0
 28 82  1  0  0  0  0
 29 84  1  0  0  0  0
 30 85  1  0  0  0  0
 31 86  1  0  0  0  0
 32 64  2  0  0  0  0
 33 65  1  0  0  0  0
 33 68  1  0  0  0  0
 34 69  1  0  0  0  0
 34 75  2  0  0  0  0
 35 36  1  0  0  0  0
 35 59  1  0  0  0  0
 35 76  2  0  0  0  0
 36 60  1  0  0  0  0
 36 77  2  0  0  0  0
 37 51  1  0  0  0  0
 37 71  1  0  0  0  0
 37 78  2  0  0  0  0
 38 61  1  0  0  0  0
 38 66  1  0  0  0  0
 38 79  2  0  0  0  0
 39 62  1  0  0  0  0
 39 72  1  0  0  0  0
 39 80  2  0  0  0  0
 40 67  1  0  0  0  0
 40 70  1  0  0  0  0
 40 81  2  0  0  0  0
 41 44  1  0  0  0  0
 42 51  1  0  0  0  0
 43 66  1  0  0  0  0
 44 46  1  0  0  0  0
 45 47  1  0  0  0  0
 45 48  1  0  0  0  0
 46 50  1  0  0  0  0
 47 52  1  0  0  0  0
 48 67  1  0  0  0  0
 49 52  1  0  0  0  0
 49 67  1  0  0  0  0
 50 71  1  0  0  0  0
 51 66  1  0  0  0  0
 52 65  1  0  0  0  0
 53 62  1  0  0  0  0
 54 63  1  0  0  0  0
 55 63  1  0  0  0  0
 56 63  1  0  0  0  0
 57 73  1  0  0  0  0
 58 74  1  0  0  0  0
 59 74  1  0  0  0  0
 60 83  1  0  0  0  0
 61 63  1  0  0  0  0
 61 72  1  0  0  0  0
 62 73  1  0  0  0  0
 64 65  1  0  0  0  0
M  CHG  2  73   1  74   1
M  ISO  4  40 100  60 101  70 100  83 101
M  END
> <Batch ID>
0164

> <Smiles>
CNC(C)C(=O)NC(C(=O)N1Cc2cc([101O:1][101CH2:1]C(=O)C(=O)CNCc3cccc([100NH:0][100C:0](=O)N4CCCC(n5nc(-c6ccc(Oc7ccc(F)cc7F)cc6)c(C(N)=O)c5N)C4)c3F)ccc2CC1C(=O)NC1CCCc2ccccc21)C(C)(C)C

> <Shape>
0.280

> <Color>
0.198

> <Negative vol penalty>
0.000

$$$$

  -OEChem-04052304023D

 89 98  0     1  0  0  0  0  0999 V2000
  -29.2389  -24.6816   16.9762 C   0  0  0  0  0  0  0  0  0  0  0  0
  -27.9401  -25.0053   17.3553 C   0  0  0  0  0  0  0  0  0  0  0  0
  -27.6027  -15.6086   21.0297 C   0  0  0  0  0  0  0  0  0  0  0  0
  -25.4092  -16.4670   20.4921 C   0  0  0  0  0  0  0  0  0  0  0  0
  -30.3045  -24.9676   17.8287 C   0  0  0  0  0  0  0  0  0  0  0  0
  -27.7060  -25.6143   18.5877 C   0  0  0  0  0  0  0  0  0  0  0  0
  -20.6848  -24.0713   20.4187 C   0  0  0  0  0  0  0  0  0  0  0  0
  -24.4494  -29.4784   18.2577 C   0  0  0  0  0  0  0  0  0  0  0  0
  -21.9518  -23.5997   20.7621 C   0  0  0  0  0  0  0  0  0  0  0  0
  -27.1344  -14.3057   20.8602 C   0  0  0  0  0  0  0  0  0  0  0  0
  -24.9409  -15.1641   20.3226 C   0  0  0  0  0  0  0  0  0  0  0  0
  -23.0946  -29.1630   18.1643 C   0  0  0  0  0  0  0  0  0  0  0  0
  -23.9477  -12.5983   22.2875 C   0  0  0  0  0  0  0  0  0  0  0  0
  -22.7188  -12.2717   22.8607 C   0  0  0  0  0  0  0  0  0  0  0  0
  -22.8311  -29.6248   20.5173 C   0  0  0  0  0  0  0  0  0  0  0  0
  -21.6495  -24.4262   23.0121 C   0  0  0  0  0  0  0  0  0  0  0  0
  -21.8449  -11.7249   20.6757 C   0  0  0  0  0  0  0  0  0  0  0  0
  -26.7401  -16.6893   20.8457 C   0  0  0  0  0  0  0  0  0  0  0  0
  -28.2618  -18.6654   20.3098 C   0  0  0  0  0  0  0  0  0  0  0  0
  -30.0843  -25.5892   19.0679 C   0  0  0  0  0  0  0  0  0  0  0  0
  -25.0085  -29.8594   19.4860 C   0  0  0  0  0  0  0  0  0  0  0  0
  -28.7695  -25.9077   19.4581 C   0  0  0  0  0  0  0  0  0  0  0  0
  -19.9001  -24.7204   21.3719 C   0  0  0  0  0  0  0  0  0  0  0  0
  -24.1928  -29.9469   20.6231 C   0  0  0  0  0  0  0  0  0  0  0  0
  -22.4341  -23.7772   22.0589 C   0  0  0  0  0  0  0  0  0  0  0  0
  -25.8035  -14.0835   20.5066 C   0  0  0  0  0  0  0  0  0  0  0  0
  -22.2858  -29.2334   19.2948 C   0  0  0  0  0  0  0  0  0  0  0  0
  -24.1253  -12.4883   20.9083 C   0  0  0  0  0  0  0  0  0  0  0  0
  -21.6674  -11.8349   22.0548 C   0  0  0  0  0  0  0  0  0  0  0  0
  -20.3825  -24.8979   22.6686 C   0  0  0  0  0  0  0  0  0  0  0  0
  -23.0739  -12.0516   20.1024 C   0  0  0  0  0  0  0  0  0  0  0  0
  -27.2232  -18.0354   21.0212 C   0  0  0  0  0  0  0  0  0  0  0  0
  -28.3310  -19.9269   20.8486 C   0  0  0  0  0  0  0  0  0  0  0  0
  -16.3958  -25.1974   22.3701 C   0  0  0  0  0  0  0  0  0  0  0  0
  -17.3904  -24.5132   21.7593 C   0  0  0  0  0  0  0  0  0  0  0  0
  -29.0899  -18.1558   19.2561 C   0  0  0  0  0  0  0  0  0  0  0  0
  -19.2269  -27.4328   19.9882 C   0  0  0  0  0  0  0  0  0  0  0  0
  -27.2627  -28.6748   21.3884 C   0  0  0  0  0  0  0  0  0  0  0  0
  -26.7635  -31.4209   23.0412 C   0  0  0  0  0  0  0  0  0  0  0  0
  -24.6589  -33.9923   23.8193 C   0  0  0  0  0  0  0  0  0  0  0  0
  -24.3505  -23.3941   23.6485 C   0  0  0  0  0  0  0  0  0  0  0  0
  -31.2630  -25.8357   19.9760 C   0  0  0  0  0  0  0  0  0  0  0  0
  -26.4661  -30.2222   19.5644 C   0  0  0  0  0  0  0  0  0  0  0  0
  -24.7400  -30.3702   21.9609 C   0  0  0  0  0  0  0  0  0  0  0  0
  -16.2898  -26.6927   22.2413 C   0  0  0  0  0  0  0  0  0  0  0  0
  -30.9680  -26.8224   21.1028 C   0  0  0  0  0  0  0  0  0  0  0  0
  -27.4969  -22.3125   24.9164 C   0  0  0  0  0  0  0  0  0  0  0  0
  -29.6390  -26.4866   21.7721 C   0  0  0  0  0  0  0  0  0  0  0  0
  -27.8812  -21.1542   23.9929 C   0  0  0  0  0  0  0  0  0  0  0  0
  -25.9942  -22.3457   25.1894 C   0  0  0  0  0  0  0  0  0  0  0  0
  -25.5296  -21.1832   23.0676 C   0  0  0  0  0  0  0  0  0  0  0  0
  -18.5110  -25.2340   20.9917 C   0  0  1  0  0  0  0  0  0  0  0  0
  -28.4777  -26.5915   20.7762 C   0  0  1  0  0  0  0  0  0  0  0  0
  -18.4973  -26.7758   21.1197 C   0  0  2  0  0  0  0  0  0  0  0  0
  -27.0370  -30.1013   20.9740 C   0  0  1  0  0  0  0  0  0  0  0  0
  -27.0247  -21.1472   22.7115 C   0  0  2  0  0  0  0  0  0  0  0  0
  -15.3074  -24.5812   23.2053 C   0  0  0  0  0  0  0  0  0  0  0  0
  -17.4508  -23.0044   21.7236 C   0  0  0  0  0  0  0  0  0  0  0  0
  -24.5169  -36.0643   25.2278 C   0  0  0  0  0  0  0  0  0  0  0  0
  -26.3302  -29.7007   25.5237 C   0  0  0  0  0  0  0  0  0  0  0  0
  -25.2823  -31.6864   26.6315 C   0  0  0  0  0  0  0  0  0  0  0  0
  -27.6696  -31.7764   25.9136 C   0  0  0  0  0  0  0  0  0  0  0  0
  -24.3040  -35.7223   21.4445 C   0  0  0  0  0  0  0  0  0  0  0  0
  -20.3443  -28.3797   20.3709 C   0  0  0  0  0  0  0  0  0  1  0  0
  -25.8459  -31.8413   24.1638 C   0  0  1  0  0  0  0  0  0  0  0  0
  -24.8770  -35.4939   23.8648 C   0  0  2  0  0  0  0  0  0  0  0  0
  -26.2718  -31.2413   25.5335 C   0  0  0  0  0  0  0  0  0  0  0  0
  -26.6723  -18.8310   21.9419 N   0  0  0  0  0  0  0  0  0  0  0  0
  -27.3674  -19.9739   21.8127 N   0  0  0  0  0  0  0  0  0  0  0  0
  -26.1726  -30.7088   21.9879 N   0  0  0  0  0  0  0  0  0  0  0  0
  -25.2472  -22.3416   23.9297 N   0  0  0  0  0  0  0  0  0  0  0  0
  -29.1216  -20.9894   20.5870 N   0  0  0  0  0  0  0  0  0  0  0  0
  -28.6618  -18.3192   17.9316 N   0  0  0  0  0  0  0  0  0  0  0  0
  -23.7220  -23.2999   22.4073 N   0  0  0  0  0  0  0  0  0  0  0  0
  -28.1210  -27.9773   20.5599 N   0  0  0  0  0  0  0  0  0  0  0  0
  -25.8082  -33.2994   24.1359 N   0  0  0  0  0  0  0  0  0  0  0  0
  -17.0827  -27.2520   21.1058 N   0  3  0  0  0  0  0  0  0  0  0  0
  -24.0381  -36.1706   22.8356 N   0  3  0  0  0  0  0  0  0  0  0  0
  -30.1693  -17.5585   19.4832 O   0  0  0  0  0  0  0  0  0  0  0  0
  -18.9256  -27.2076   18.8170 O   0  0  0  0  0  0  0  0  0  0  0  0
  -26.7010  -28.2395   22.3867 O   0  0  0  0  0  0  0  0  0  0  0  0
  -27.9592  -31.7198   23.0934 O   0  0  0  0  0  0  0  0  0  0  0  0
  -23.5762  -33.4847   23.5352 O   0  0  0  0  0  0  0  0  0  0  0  0
  -24.1752  -24.3256   24.4380 O   0  0  0  0  0  0  0  0  0  0  0  0
  -25.3462  -12.8122   20.3408 O   0  0  0  0  0  0  0  0  0  0  0  0
  -20.9632  -28.9254   19.2066 O   0  0  0  0  0  0  0  0  0  1  0  0
  -20.4878  -11.5198   22.6056 F   0  0  0  0  0  0  0  0  0  0  0  0
  -19.6359  -25.5202   23.5915 F   0  0  0  0  0  0  0  0  0  0  0  0
  -23.2388  -11.9428   18.7770 F   0  0  0  0  0  0  0  0  0  0  0  0
  1  2  1  0  0  0  0
  1  5  2  0  0  0  0
  2  6  2  0  0  0  0
  3 10  2  0  0  0  0
  3 18  1  0  0  0  0
  4 11  1  0  0  0  0
  4 18  2  0  0  0  0
  5 20  1  0  0  0  0
  6 22  1  0  0  0  0
  7  9  2  0  0  0  0
  7 23  1  0  0  0  0
  8 12  2  0  0  0  0
  8 21  1  0  0  0  0
  9 25  1  0  0  0  0
 10 26  1  0  0  0  0
 11 26  2  0  0  0  0
 12 27  1  0  0  0  0
 13 14  2  0  0  0  0
 13 28  1  0  0  0  0
 14 29  1  0  0  0  0
 15 24  1  0  0  0  0
 15 27  2  0  0  0  0
 16 25  2  0  0  0  0
 16 30  1  0  0  0  0
 17 29  2  0  0  0  0
 17 31  1  0  0  0  0
 18 32  1  0  0  0  0
 19 32  1  0  0  0  0
 19 33  2  0  0  0  0
 19 36  1  0  0  0  0
 20 22  2  0  0  0  0
 20 42  1  0  0  0  0
 21 24  2  0  0  0  0
 21 43  1  0  0  0  0
 22 53  1  0  0  0  0
 23 30  2  0  0  0  0
 23 52  1  0  0  0  0
 24 44  1  0  0  0  0
 25 74  1  0  0  0  0
 26 85  1  0  0  0  0
 27 86  1  0  0  0  0
 28 31  2  0  0  0  0
 28 85  1  0  0  0  0
 29 87  1  0  0  0  0
 30 88  1  0  0  0  0
 31 89  1  0  0  0  0
 32 68  2  0  0  0  0
 33 69  1  0  0  0  0
 33 72  1  0  0  0  0
 34 35  2  0  0  0  0
 34 45  1  0  0  0  0
 34 57  1  0  0  0  0
 35 52  1  0  0  0  0
 35 58  1  0  0  0  0
 36 73  1  0  0  0  0
 36 79  2  0  0  0  0
 37 54  1  0  0  0  0
 37 64  1  0  0  0  0
 37 80  2  0  0  0  0
 38 55  1  0  0  0  0
 38 75  1  0  0  0  0
 38 81  2  0  0  0  0
 39 65  1  0  0  0  0
 39 70  1  0  0  0  0
 39 82  2  0  0  0  0
 40 66  1  0  0  0  0
 40 76  1  0  0  0  0
 40 83  2  0  0  0  0
 41 71  1  0  0  0  0
 41 74  1  0  0  0  0
 41 84  2  0  0  0  0
 42 46  1  0  0  0  0
 43 55  1  0  0  0  0
 44 70  1  0  0  0  0
 45 77  1  0  0  0  0
 46 48  1  0  0  0  0
 47 49  1  0  0  0  0
 47 50  1  0  0  0  0
 48 53  1  0  0  0  0
 49 56  1  0  0  0  0
 50 71  1  0  0  0  0
 51 56  1  0  0  0  0
 51 71  1  0  0  0  0
 52 54  1  0  0  0  0
 53 75  1  0  0  0  0
 54 77  1  0  0  0  0
 55 70  1  0  0  0  0
 56 69  1  0  0  0  0
 59 66  1  0  0  0  0
 60 67  1  0  0  0  0
 61 67  1  0  0  0  0
 62 67  1  0  0  0  0
 63 78  1  0  0  0  0
 64 86  1  0  0  0  0
 65 67  1  0  0  0  0
 65 76  1  0  0  0  0
 66 78  1  0  0  0  0
 68 69  1  0  0  0  0
M  CHG  2  77   1  78   1
M  ISO  4  41 100  64 101  74 100  86 101
M  END
> <Batch ID>
0164

> <Smiles>
CNC(C)C(=O)NC(C(=O)N1Cc2cc([101O:1][101CH2:1]C(=O)C3NCC(C)=C(C)C3c3ccc([100NH:0][100C:0](=O)N4CCCC(n5nc(-c6ccc(Oc7ccc(F)cc7F)cc6)c(C(N)=O)c5N)C4)cc3F)ccc2CC1C(=O)NC1CCCc2ccccc21)C(C)(C)C

> <Shape>
0.312

> <Color>
0.061

> <Negative vol penalty>
0.000

$$$$

  -OEChem-04052304023D

 88 96  0     1  0  0  0  0  0999 V2000
  -19.4599  -15.5497   18.8854 C   0  0  0  0  0  0  0  0  0  0  0  0
  -20.3834  -16.5854   18.9860 C   0  0  0  0  0  0  0  0  0  0  0  0
  -19.6408  -20.4403   23.7382 C   0  0  0  0  0  0  0  0  0  0  0  0
  -21.9159  -20.2478   22.9481 C   0  0  0  0  0  0  0  0  0  0  0  0
  -19.7396  -14.3099   19.4584 C   0  0  0  0  0  0  0  0  0  0  0  0
  -21.5866  -16.3820   19.6607 C   0  0  0  0  0  0  0  0  0  0  0  0
  -27.0342  -18.8211   18.2895 C   0  0  0  0  0  0  0  0  0  0  0  0
  -19.4066  -19.1107   23.3876 C   0  0  0  0  0  0  0  0  0  0  0  0
  -21.6816  -18.9181   22.5976 C   0  0  0  0  0  0  0  0  0  0  0  0
  -27.7276  -19.9163   18.8029 C   0  0  0  0  0  0  0  0  0  0  0  0
  -20.0641  -16.0468   24.6576 C   0  0  0  0  0  0  0  0  0  0  0  0
  -19.3895  -15.2433   25.5768 C   0  0  0  0  0  0  0  0  0  0  0  0
  -24.9380  -29.0301   19.9883 C   0  0  0  0  0  0  0  0  0  0  0  0
  -28.9583  -18.4441   20.2648 C   0  0  0  0  0  0  0  0  0  0  0  0
  -25.9200  -26.8230   19.9545 C   0  0  0  0  0  0  0  0  0  0  0  0
  -17.6414  -14.8555   23.9547 C   0  0  0  0  0  0  0  0  0  0  0  0
  -20.8955  -21.0089   23.5184 C   0  0  0  0  0  0  0  0  0  0  0  0
  -26.2099  -29.5973   19.9113 C   0  0  0  0  0  0  0  0  0  0  0  0
  -21.6082  -22.8661   25.1154 C   0  0  0  0  0  0  0  0  0  0  0  0
  -20.9510  -14.0883   20.1322 C   0  0  0  0  0  0  0  0  0  0  0  0
  -27.2904  -17.5283   18.7685 C   0  0  0  0  0  0  0  0  0  0  0  0
  -21.8822  -15.1384   20.2445 C   0  0  0  0  0  0  0  0  0  0  0  0
  -28.2687  -17.3339   19.7540 C   0  0  0  0  0  0  0  0  0  0  0  0
  -27.3370  -28.7773   19.8559 C   0  0  0  0  0  0  0  0  0  0  0  0
  -24.7930  -27.6429   20.0099 C   0  0  0  0  0  0  0  0  0  0  0  0
  -27.1920  -27.3901   19.8775 C   0  0  0  0  0  0  0  0  0  0  0  0
  -20.4269  -18.3496   22.8173 C   0  0  0  0  0  0  0  0  0  0  0  0
  -28.6878  -19.7283   19.7927 C   0  0  0  0  0  0  0  0  0  0  0  0
  -19.5274  -16.2547   23.3870 C   0  0  0  0  0  0  0  0  0  0  0  0
  -18.1781  -14.6476   25.2253 C   0  0  0  0  0  0  0  0  0  0  0  0
  -18.3160  -15.6591   23.0356 C   0  0  0  0  0  0  0  0  0  0  0  0
  -21.1380  -22.3824   23.8797 C   0  0  0  0  0  0  0  0  0  0  0  0
  -21.6673  -24.2284   24.9508 C   0  0  0  0  0  0  0  0  0  0  0  0
  -26.3360  -31.0399   19.8900 C   0  0  0  0  0  0  0  0  0  0  0  0
  -21.9603  -22.1481   26.3054 C   0  0  0  0  0  0  0  0  0  0  0  0
  -29.6607  -24.5855   20.0517 C   0  0  0  0  0  0  0  0  0  0  0  0
  -29.8746  -23.1368   20.4446 C   0  0  0  0  0  0  0  0  0  0  0  0
  -25.5733  -15.3071   20.2589 C   0  0  0  0  0  0  0  0  0  0  0  0
  -28.2384  -13.5100   19.8231 C   0  0  0  0  0  0  0  0  0  0  0  0
  -31.6124  -13.4058   19.3215 C   0  0  0  0  0  0  0  0  0  0  0  0
  -22.2797  -27.7381   20.1538 C   0  0  0  0  0  0  0  0  0  0  0  0
  -21.1884  -12.7453   20.7763 C   0  0  0  0  0  0  0  0  0  0  0  0
  -26.5529  -16.3542   18.1853 C   0  0  0  0  0  0  0  0  0  0  0  0
  -28.5955  -15.9639   20.2877 C   0  0  0  0  0  0  0  0  0  0  0  0
  -22.6476  -12.4988   21.1507 C   0  0  0  0  0  0  0  0  0  0  0  0
  -19.6105  -27.7982   22.5094 C   0  0  0  0  0  0  0  0  0  0  0  0
  -23.2299  -13.7173   21.8599 C   0  0  0  0  0  0  0  0  0  0  0  0
  -19.7458  -26.4628   23.2447 C   0  0  0  0  0  0  0  0  0  0  0  0
  -19.9542  -27.6665   21.0267 C   0  0  0  0  0  0  0  0  0  0  0  0
  -21.3942  -25.7195   21.4792 C   0  0  0  0  0  0  0  0  0  0  0  0
  -23.2091  -14.9492   20.9470 C   0  0  1  0  0  0  0  0  0  0  0  0
  -26.5301  -15.1427   19.1121 C   0  0  1  0  0  0  0  0  0  0  0  0
  -21.1210  -25.8155   22.9891 C   0  0  2  0  0  0  0  0  0  0  0  0
  -28.7004  -29.3895   19.7739 C   0  0  0  0  0  0  0  0  0  0  0  0
  -33.5136  -11.7917   19.0427 C   0  0  0  0  0  0  0  0  0  0  0  0
  -28.1987  -12.9490   22.8221 C   0  0  0  0  0  0  0  0  0  0  0  0
  -30.5693  -12.1654   22.6362 C   0  0  0  0  0  0  0  0  0  0  0  0
  -28.7623  -10.9717   21.3983 C   0  0  0  0  0  0  0  0  0  0  0  0
  -32.2335  -14.4254   16.6135 C   0  0  0  0  0  0  0  0  0  0  0  0
  -28.2904  -25.1807   20.2486 C   0  0  0  0  0  0  0  0  0  0  0  0
  -29.0424  -22.0797   19.7641 C   0  0  0  0  0  0  0  0  0  1  0  0
  -29.4998  -13.2592   20.6137 C   0  0  1  0  0  0  0  0  0  0  0  0
  -32.4601  -12.6270   18.3319 C   0  0  2  0  0  0  0  0  0  0  0  0
  -29.2502  -12.3625   21.8591 C   0  0  0  0  0  0  0  0  0  0  0  0
  -20.9140  -23.3582   22.9956 N   0  0  0  0  0  0  0  0  0  0  0  0
  -21.2449  -24.4686   23.6764 N   0  0  0  0  0  0  0  0  0  0  0  0
  -27.8429  -14.8485   19.6902 N   0  0  0  0  0  0  0  0  0  0  0  0
  -21.2721  -27.0495   20.8619 N   0  0  0  0  0  0  0  0  0  0  0  0
  -22.0387  -25.2323   25.7735 N   0  0  0  0  0  0  0  0  0  0  0  0
  -26.3299  -31.7047   18.7236 N   0  0  0  0  0  0  0  0  0  0  0  0
  -21.8405  -20.7516   26.3033 N   0  0  0  0  0  0  0  0  0  0  0  0
  -23.5006  -27.0674   20.0899 N   0  0  0  0  0  0  0  0  0  0  0  0
  -28.3005  -26.5588   19.8236 N   0  0  0  0  0  0  0  0  0  0  0  0
  -24.2873  -14.8828   19.9839 N   0  0  0  0  0  0  0  0  0  0  0  0
  -30.4711  -12.7153   19.6707 N   0  0  0  0  0  0  0  0  0  0  0  0
  -26.4584  -31.7277   21.0364 N   0  3  0  0  0  0  0  0  0  0  0  0
  -33.1514  -13.5585   17.3964 N   0  3  0  0  0  0  0  0  0  0  0  0
  -22.3533  -22.7290   27.3454 O   0  0  0  0  0  0  0  0  0  0  0  0
  -30.6245  -25.1861   19.5933 O   0  0  0  0  0  0  0  0  0  0  0  0
  -30.7169  -22.9034   21.3019 O   0  0  0  0  0  0  0  0  0  0  0  0
  -25.9725  -15.7823   21.3155 O   0  0  0  0  0  0  0  0  0  0  0  0
  -27.6303  -12.5540   19.3353 O   0  0  0  0  0  0  0  0  0  0  0  0
  -31.9327  -14.5140   19.7455 O   0  0  0  0  0  0  0  0  0  0  0  0
  -22.0826  -28.8537   19.6652 O   0  0  0  0  0  0  0  0  0  0  0  0
  -20.1987  -17.0521   22.4754 O   0  0  0  0  0  0  0  0  0  0  0  0
  -29.3655  -20.7956   20.2960 O   0  0  0  0  0  0  0  0  0  1  0  0
  -17.5312  -13.8748   26.1075 F   0  0  0  0  0  0  0  0  0  0  0  0
  -17.7961  -15.8542   21.8160 F   0  0  0  0  0  0  0  0  0  0  0  0
  1  2  1  0  0  0  0
  1  5  2  0  0  0  0
  2  6  2  0  0  0  0
  3  8  2  0  0  0  0
  3 17  1  0  0  0  0
  4  9  1  0  0  0  0
  4 17  2  0  0  0  0
  5 20  1  0  0  0  0
  6 22  1  0  0  0  0
  7 10  2  0  0  0  0
  7 21  1  0  0  0  0
  8 27  1  0  0  0  0
  9 27  2  0  0  0  0
 10 28  1  0  0  0  0
 11 12  2  0  0  0  0
 11 29  1  0  0  0  0
 12 30  1  0  0  0  0
 13 18  2  0  0  0  0
 13 25  1  0  0  0  0
 14 23  1  0  0  0  0
 14 28  2  0  0  0  0
 15 25  2  0  0  0  0
 15 26  1  0  0  0  0
 16 30  2  0  0  0  0
 16 31  1  0  0  0  0
 17 32  1  0  0  0  0
 18 24  1  0  0  0  0
 18 34  1  0  0  0  0
 19 32  1  0  0  0  0
 19 33  2  0  0  0  0
 19 35  1  0  0  0  0
 20 22  2  0  0  0  0
 20 42  1  0  0  0  0
 21 23  2  0  0  0  0
 21 43  1  0  0  0  0
 22 51  1  0  0  0  0
 23 44  1  0  0  0  0
 24 26  2  0  0  0  0
 24 54  1  0  0  0  0
 25 72  1  0  0  0  0
 26 73  1  0  0  0  0
 27 85  1  0  0  0  0
 28 86  1  0  0  0  0
 29 31  2  0  0  0  0
 29 85  1  0  0  0  0
 30 87  1  0  0  0  0
 31 88  1  0  0  0  0
 32 65  2  0  0  0  0
 33 66  1  0  0  0  0
 33 69  1  0  0  0  0
 34 70  1  0  0  0  0
 34 76  2  0  0  0  0
 35 71  1  0  0  0  0
 35 78  2  0  0  0  0
 36 37  1  0  0  0  0
 36 60  1  0  0  0  0
 36 79  2  0  0  0  0
 37 61  1  0  0  0  0
 37 80  2  0  0  0  0
 38 52  1  0  0  0  0
 38 74  1  0  0  0  0
 38 81  2  0  0  0  0
 39 62  1  0  0  0  0
 39 67  1  0  0  0  0
 39 82  2  0  0  0  0
 40 63  1  0  0  0  0
 40 75  1  0  0  0  0
 40 83  2  0  0  0  0
 41 68  1  0  0  0  0
 41 72  1  0  0  0  0
 41 84  2  0  0  0  0
 42 45  1  0  0  0  0
 43 52  1  0  0  0  0
 44 67  1  0  0  0  0
 45 47  1  0  0  0  0
 46 48  1  0  0  0  0
 46 49  1  0  0  0  0
 47 51  1  0  0  0  0
 48 53  1  0  0  0  0
 49 68  1  0  0  0  0
 50 53  1  0  0  0  0
 50 68  1  0  0  0  0
 51 74  1  0  0  0  0
 52 67  1  0  0  0  0
 53 66  1  0  0  0  0
 55 63  1  0  0  0  0
 56 64  1  0  0  0  0
 57 64  1  0  0  0  0
 58 64  1  0  0  0  0
 59 77  1  0  0  0  0
 60 73  1  0  0  0  0
 61 86  1  0  0  0  0
 62 64  1  0  0  0  0
 62 75  1  0  0  0  0
 63 77  1  0  0  0  0
 65 66  1  0  0  0  0
M  CHG  2  76   1  77   1
M  ISO  4  41 100  61 101  72 100  86 101
M  END
> <Batch ID>
0164

> <Smiles>
CNC(C)C(=O)NC(C(=O)N1Cc2cc([101O:1][101CH2:1]C(=O)C(=O)CNc3cc([100NH:0][100C:0](=O)N4CCCC(n5nc(-c6ccc(Oc7ccc(F)cc7F)cc6)c(C(N)=O)c5N)C4)cc(C(=N)N)c3C)ccc2CC1C(=O)NC1CCCc2ccccc21)C(C)(C)C

> <Shape>
0.224

> <Color>
0.073

> <Negative vol penalty>
0.000

$$$$

  -OEChem-04052304023D

 90 99  0     1  0  0  0  0  0999 V2000
  -30.2221  -33.0192   25.5910 C   0  0  0  0  0  0  0  0  0  0  0  0
  -29.5930  -31.8351   25.2199 C   0  0  0  0  0  0  0  0  0  0  0  0
  -24.5920   -9.0052   21.9364 C   0  0  0  0  0  0  0  0  0  0  0  0
  -23.0518   -9.8850   20.2961 C   0  0  0  0  0  0  0  0  0  0  0  0
  -22.6379  -18.5005   17.2252 C   0  0  0  0  0  0  0  0  0  0  0  0
  -29.4826  -34.1963   25.6974 C   0  0  0  0  0  0  0  0  0  0  0  0
  -28.2238  -31.8273   24.9561 C   0  0  0  0  0  0  0  0  0  0  0  0
  -27.0676  -29.2323   20.7640 C   0  0  0  0  0  0  0  0  0  0  0  0
  -23.5760  -17.5547   17.6387 C   0  0  0  0  0  0  0  0  0  0  0  0
  -23.5570   -8.2695   22.5137 C   0  0  0  0  0  0  0  0  0  0  0  0
  -22.0168   -9.1493   20.8733 C   0  0  0  0  0  0  0  0  0  0  0  0
  -27.0495  -27.8416   20.8607 C   0  0  0  0  0  0  0  0  0  0  0  0
  -21.8880   -5.3979   21.8806 C   0  0  0  0  0  0  0  0  0  0  0  0
  -22.1441   -4.0670   22.2103 C   0  0  0  0  0  0  0  0  0  0  0  0
  -24.6450  -27.8918   21.0477 C   0  0  0  0  0  0  0  0  0  0  0  0
  -24.5422  -19.1735   19.1497 C   0  0  0  0  0  0  0  0  0  0  0  0
  -21.6523   -4.5461   24.5267 C   0  0  0  0  0  0  0  0  0  0  0  0
  -24.3394   -9.8130   20.8276 C   0  0  0  0  0  0  0  0  0  0  0  0
  -22.6520  -19.7829   17.7739 C   0  0  0  0  0  0  0  0  0  0  0  0
  -26.2716  -10.1611   19.1989 C   0  0  0  0  0  0  0  0  0  0  0  0
  -28.1054  -34.2050   25.4255 C   0  0  0  0  0  0  0  0  0  0  0  0
  -25.8734  -29.9652   20.8195 C   0  0  0  0  0  0  0  0  0  0  0  0
  -27.4649  -33.0055   25.0604 C   0  0  0  0  0  0  0  0  0  0  0  0
  -24.6504  -29.2916   20.9489 C   0  0  0  0  0  0  0  0  0  0  0  0
  -23.6041  -20.1194   18.7361 C   0  0  0  0  0  0  0  0  0  0  0  0
  -24.5281  -17.8912   18.6009 C   0  0  0  0  0  0  0  0  0  0  0  0
  -22.2694   -8.3416   21.9821 C   0  0  0  0  0  0  0  0  0  0  0  0
  -25.8384  -27.1713   21.0055 C   0  0  0  0  0  0  0  0  0  0  0  0
  -21.5140   -6.3029   22.8740 C   0  0  0  0  0  0  0  0  0  0  0  0
  -22.0263   -3.6411   23.5333 C   0  0  0  0  0  0  0  0  0  0  0  0
  -21.3961   -5.8770   24.1970 C   0  0  0  0  0  0  0  0  0  0  0  0
  -25.4080  -10.5735   20.2312 C   0  0  0  0  0  0  0  0  0  0  0  0
  -27.1015  -11.2364   18.9952 C   0  0  0  0  0  0  0  0  0  0  0  0
  -20.4489  -20.8778   17.9310 C   0  0  0  0  0  0  0  0  0  0  0  0
  -21.6408  -20.7658   17.3136 C   0  0  0  0  0  0  0  0  0  0  0  0
  -26.3194   -8.9172   18.4875 C   0  0  0  0  0  0  0  0  0  0  0  0
  -24.6844  -32.1717   22.7743 C   0  0  0  0  0  0  0  0  0  0  0  0
  -24.6830  -23.6844   21.3168 C   0  0  0  0  0  0  0  0  0  0  0  0
  -22.3155  -32.2960   20.5618 C   0  0  0  0  0  0  0  0  0  0  0  0
  -20.6024  -30.7293   18.0603 C   0  0  0  0  0  0  0  0  0  0  0  0
  -26.4949  -17.1017   19.9628 C   0  0  0  0  0  0  0  0  0  0  0  0
  -27.3391  -35.4922   25.5999 C   0  0  0  0  0  0  0  0  0  0  0  0
  -25.9077  -31.4631   20.6868 C   0  0  0  0  0  0  0  0  0  0  0  0
  -23.3388  -30.0306   20.9933 C   0  0  0  0  0  0  0  0  0  0  0  0
  -19.3759  -21.8406   17.5100 C   0  0  0  0  0  0  0  0  0  0  0  0
  -21.9929  -21.6284   16.1224 C   0  0  0  0  0  0  0  0  0  0  0  0
  -25.9630  -35.4761   24.9394 C   0  0  0  0  0  0  0  0  0  0  0  0
  -19.6277  -22.4815   16.1461 C   0  0  0  0  0  0  0  0  0  0  0  0
  -21.0942  -22.8603   15.9816 C   0  0  0  0  0  0  0  0  0  0  0  0
  -29.0204  -14.9739   21.2939 C   0  0  0  0  0  0  0  0  0  0  0  0
  -25.2258  -34.1830   25.2730 C   0  0  0  0  0  0  0  0  0  0  0  0
  -28.4619  -13.5662   21.0730 C   0  0  0  0  0  0  0  0  0  0  0  0
  -27.9202  -15.9703   21.6550 C   0  0  0  0  0  0  0  0  0  0  0  0
  -26.2281  -14.6008   20.5014 C   0  0  0  0  0  0  0  0  0  0  0  0
  -25.9861  -32.9618   24.7420 C   0  0  1  0  0  0  0  0  0  0  0  0
  -24.6738  -32.1431   21.2720 C   0  0  1  0  0  0  0  0  0  0  0  0
  -27.2901  -13.5755   20.0718 C   0  0  2  0  0  0  0  0  0  0  0  0
  -18.6938  -31.0694   16.4668 C   0  0  0  0  0  0  0  0  0  0  0  0
  -20.3363  -31.8344   22.8377 C   0  0  0  0  0  0  0  0  0  0  0  0
  -18.6105  -31.2414   21.1236 C   0  0  0  0  0  0  0  0  0  0  0  0
  -19.6069  -33.5281   21.1484 C   0  0  0  0  0  0  0  0  0  0  0  0
  -22.3656  -30.4295   15.7023 C   0  0  0  0  0  0  0  0  0  0  0  0
  -23.6491  -21.4973   19.3523 C   0  0  0  0  0  0  0  0  0  0  0  0
  -23.3831  -22.9065   21.4600 C   0  0  0  0  0  0  0  0  0  0  0  0
  -24.5419  -25.1923   21.2475 C   0  0  0  0  0  0  0  0  0  1  0  0
  -21.0047  -31.5755   20.3573 C   0  0  1  0  0  0  0  0  0  0  0  0
  -20.1952  -31.1942   16.6737 C   0  0  2  0  0  0  0  0  0  0  0  0
  -23.4584  -21.4922   20.8782 C   0  0  1  0  0  0  0  0  0  0  0  0
  -19.9143  -32.0308   21.3679 C   0  0  0  0  0  0  0  0  0  0  0  0
  -25.6655  -11.8141   20.6541 N   0  0  0  0  0  0  0  0  0  0  0  0
  -26.7003  -12.1903   19.8837 N   0  0  0  0  0  0  0  0  0  0  0  0
  -23.4251  -31.4948   20.8661 N   0  0  0  0  0  0  0  0  0  0  0  0
  -26.8463  -15.9265   20.6602 N   0  0  0  0  0  0  0  0  0  0  0  0
  -28.1280  -11.4496   18.1448 N   0  0  0  0  0  0  0  0  0  0  0  0
  -25.3936   -7.9197   18.8228 N   0  0  0  0  0  0  0  0  0  0  0  0
  -25.4828  -16.9311   19.0188 N   0  0  0  0  0  0  0  0  0  0  0  0
  -25.7788  -32.8176   23.3170 N   0  0  0  0  0  0  0  0  0  0  0  0
  -20.6432  -31.7750   18.9581 N   0  0  0  0  0  0  0  0  0  0  0  0
  -22.1666  -20.8078   21.1960 N   0  3  0  0  0  0  0  0  0  0  0  0
  -20.8825  -30.3799   15.6318 N   0  3  0  0  0  0  0  0  0  0  0  0
  -27.1687   -8.6906   17.5926 O   0  0  0  0  0  0  0  0  0  0  0  0
  -23.7668  -31.6479   23.3950 O   0  0  0  0  0  0  0  0  0  0  0  0
  -25.7833  -23.1354   21.2872 O   0  0  0  0  0  0  0  0  0  0  0  0
  -22.3548  -33.5237   20.4484 O   0  0  0  0  0  0  0  0  0  0  0  0
  -20.8550  -29.5553   18.3217 O   0  0  0  0  0  0  0  0  0  0  0  0
  -27.0697  -18.1740   20.1672 O   0  0  0  0  0  0  0  0  0  0  0  0
  -21.2593   -7.6237   22.5450 O   0  0  0  0  0  0  0  0  0  0  0  0
  -25.8180  -25.8140   21.1008 O   0  0  0  0  0  0  0  0  0  1  0  0
  -22.2708   -2.3626   23.8494 F   0  0  0  0  0  0  0  0  0  0  0  0
  -21.0361   -6.7416   25.1555 F   0  0  0  0  0  0  0  0  0  0  0  0
  1  2  1  0  0  0  0
  1  6  2  0  0  0  0
  2  7  2  0  0  0  0
  3 10  2  0  0  0  0
  3 18  1  0  0  0  0
  4 11  1  0  0  0  0
  4 18  2  0  0  0  0
  5  9  2  0  0  0  0
  5 19  1  0  0  0  0
  6 21  1  0  0  0  0
  7 23  1  0  0  0  0
  8 12  2  0  0  0  0
  8 22  1  0  0  0  0
  9 26  1  0  0  0  0
 10 27  1  0  0  0  0
 11 27  2  0  0  0  0
 12 28  1  0  0  0  0
 13 14  2  0  0  0  0
 13 29  1  0  0  0  0
 14 30  1  0  0  0  0
 15 24  1  0  0  0  0
 15 28  2  0  0  0  0
 16 25  1  0  0  0  0
 16 26  2  0  0  0  0
 17 30  2  0  0  0  0
 17 31  1  0  0  0  0
 18 32  1  0  0  0  0
 19 25  2  0  0  0  0
 19 35  1  0  0  0  0
 20 32  1  0  0  0  0
 20 33  2  0  0  0  0
 20 36  1  0  0  0  0
 21 23  2  0  0  0  0
 21 42  1  0  0  0  0
 22 24  2  0  0  0  0
 22 43  1  0  0  0  0
 23 55  1  0  0  0  0
 24 44  1  0  0  0  0
 25 63  1  0  0  0  0
 26 76  1  0  0  0  0
 27 87  1  0  0  0  0
 28 88  1  0  0  0  0
 29 31  2  0  0  0  0
 29 87  1  0  0  0  0
 30 89  1  0  0  0  0
 31 90  1  0  0  0  0
 32 70  2  0  0  0  0
 33 71  1  0  0  0  0
 33 74  1  0  0  0  0
 34 35  2  0  0  0  0
 34 45  1  0  0  0  0
 35 46  1  0  0  0  0
 36 75  1  0  0  0  0
 36 81  2  0  0  0  0
 37 56  1  0  0  0  0
 37 77  1  0  0  0  0
 37 82  2  0  0  0  0
 38 64  1  0  0  0  0
 38 65  1  0  0  0  0
 38 83  2  0  0  0  0
 39 66  1  0  0  0  0
 39 72  1  0  0  0  0
 39 84  2  0  0  0  0
 40 67  1  0  0  0  0
 40 78  1  0  0  0  0
 40 85  2  0  0  0  0
 41 73  1  0  0  0  0
 41 76  1  0  0  0  0
 41 86  2  0  0  0  0
 42 47  1  0  0  0  0
 43 56  1  0  0  0  0
 44 72  1  0  0  0  0
 45 48  1  0  0  0  0
 46 49  1  0  0  0  0
 47 51  1  0  0  0  0
 48 49  1  0  0  0  0
 50 52  1  0  0  0  0
 50 53  1  0  0  0  0
 51 55  1  0  0  0  0
 52 57  1  0  0  0  0
 53 73  1  0  0  0  0
 54 57  1  0  0  0  0
 54 73  1  0  0  0  0
 55 77  1  0  0  0  0
 56 72  1  0  0  0  0
 57 71  1  0  0  0  0
 58 67  1  0  0  0  0
 59 69  1  0  0  0  0
 60 69  1  0  0  0  0
 61 69  1  0  0  0  0
 62 80  1  0  0  0  0
 63 68  1  0  0  0  0
 64 68  1  0  0  0  0
 65 88  1  0  0  0  0
 66 69  1  0  0  0  0
 66 78  1  0  0  0  0
 67 80  1  0  0  0  0
 68 79  1  0  0  0  0
 70 71  1  0  0  0  0
M  CHG  2  79   1  80   1
M  ISO  4  41 100  65 101  76 100  88 101
M  END
> <Batch ID>
0164

> <Smiles>
CNC(C)C(=O)NC(C(=O)N1Cc2cc([101O:1][101CH2:1]C(=O)CC(N)Cc3cc([100NH:0][100C:0](=O)N4CCCC(n5nc(-c6ccc(Oc7ccc(F)cc7F)cc6)c(C(N)=O)c5N)C4)ccc3C3=CCCCC3)ccc2CC1C(=O)NC1CCCc2ccccc21)C(C)(C)C

> <Shape>
0.234

> <Color>
0.089

> <Negative vol penalty>
0.000

$$$$

  -OEChem-04052304023D

 86 94  0     1  0  0  0  0  0999 V2000
  -16.8732  -29.9329   24.6752 C   0  0  0  0  0  0  0  0  0  0  0  0
  -17.9188  -29.0176   24.7406 C   0  0  0  0  0  0  0  0  0  0  0  0
  -23.2706   -9.5929   19.9746 C   0  0  0  0  0  0  0  0  0  0  0  0
  -23.8242   -9.8717   22.3097 C   0  0  0  0  0  0  0  0  0  0  0  0
  -16.8572  -30.9008   23.6718 C   0  0  0  0  0  0  0  0  0  0  0  0
  -18.9486  -29.0690   23.8018 C   0  0  0  0  0  0  0  0  0  0  0  0
  -24.8616  -27.7867   24.7496 C   0  0  0  0  0  0  0  0  0  0  0  0
  -22.5682   -8.4273   20.2802 C   0  0  0  0  0  0  0  0  0  0  0  0
  -23.1217   -8.7060   22.6154 C   0  0  0  0  0  0  0  0  0  0  0  0
  -25.6251  -26.6463   24.5042 C   0  0  0  0  0  0  0  0  0  0  0  0
  -19.8986   -7.7781   23.0289 C   0  0  0  0  0  0  0  0  0  0  0  0
  -19.0445   -7.8082   24.1313 C   0  0  0  0  0  0  0  0  0  0  0  0
  -29.3644  -17.8576   22.9209 C   0  0  0  0  0  0  0  0  0  0  0  0
  -26.3538  -27.5924   22.4083 C   0  0  0  0  0  0  0  0  0  0  0  0
  -31.6327  -17.0882   22.6043 C   0  0  0  0  0  0  0  0  0  0  0  0
  -20.3146   -6.0311   25.1638 C   0  0  0  0  0  0  0  0  0  0  0  0
  -23.8987  -10.3151   20.9894 C   0  0  0  0  0  0  0  0  0  0  0  0
  -29.8236  -18.8603   23.7748 C   0  0  0  0  0  0  0  0  0  0  0  0
  -24.1188  -12.8322   20.6377 C   0  0  0  0  0  0  0  0  0  0  0  0
  -17.8923  -30.9702   22.7260 C   0  0  0  0  0  0  0  0  0  0  0  0
  -24.8298  -28.8357   23.8195 C   0  0  0  0  0  0  0  0  0  0  0  0
  -18.9458  -30.0379   22.7840 C   0  0  0  0  0  0  0  0  0  0  0  0
  -25.5912  -28.7462   22.6454 C   0  0  0  0  0  0  0  0  0  0  0  0
  -30.2689  -16.9715   22.3356 C   0  0  0  0  0  0  0  0  0  0  0  0
  -31.1874  -18.9770   24.0435 C   0  0  0  0  0  0  0  0  0  0  0  0
  -22.4937   -7.9838   21.6005 C   0  0  0  0  0  0  0  0  0  0  0  0
  -26.3691  -26.5477   23.3321 C   0  0  0  0  0  0  0  0  0  0  0  0
  -20.9606   -6.8745   22.9939 C   0  0  0  0  0  0  0  0  0  0  0  0
  -19.2525   -6.9347   25.1987 C   0  0  0  0  0  0  0  0  0  0  0  0
  -32.0919  -18.0910   23.4582 C   0  0  0  0  0  0  0  0  0  0  0  0
  -21.1687   -6.0011   24.0614 C   0  0  0  0  0  0  0  0  0  0  0  0
  -24.6249  -11.5190   20.6742 C   0  0  0  0  0  0  0  0  0  0  0  0
  -25.1985  -13.6067   20.2902 C   0  0  0  0  0  0  0  0  0  0  0  0
  -28.8461  -19.7858   24.3819 C   0  0  0  0  0  0  0  0  0  0  0  0
  -22.7914  -13.3092   20.8949 C   0  0  0  0  0  0  0  0  0  0  0  0
  -22.5650  -30.2044   22.0585 C   0  0  0  0  0  0  0  0  0  0  0  0
  -27.9822  -23.2511   23.6782 C   0  0  0  0  0  0  0  0  0  0  0  0
  -24.9497  -32.2668   21.2954 C   0  0  0  0  0  0  0  0  0  0  0  0
  -28.3016  -32.8451   21.0172 C   0  0  0  0  0  0  0  0  0  0  0  0
  -30.5667  -14.9922   20.8059 C   0  0  0  0  0  0  0  0  0  0  0  0
  -17.8073  -32.0042   21.6314 C   0  0  0  0  0  0  0  0  0  0  0  0
  -24.0223  -30.0706   24.1114 C   0  0  0  0  0  0  0  0  0  0  0  0
  -25.6072  -29.8533   21.6243 C   0  0  0  0  0  0  0  0  0  0  0  0
  -19.1287  -32.2272   20.9003 C   0  0  0  0  0  0  0  0  0  0  0  0
  -29.7915  -12.2940   18.6159 C   0  0  0  0  0  0  0  0  0  0  0  0
  -19.7715  -30.8915   20.5400 C   0  0  0  0  0  0  0  0  0  0  0  0
  -28.3366  -11.9599   18.9532 C   0  0  0  0  0  0  0  0  0  0  0  0
  -30.5841  -12.6949   19.8588 C   0  0  0  0  0  0  0  0  0  0  0  0
  -28.5280  -13.4356   20.9959 C   0  0  0  0  0  0  0  0  0  0  0  0
  -20.0938  -30.0771   21.7987 C   0  0  1  0  0  0  0  0  0  0  0  0
  -23.6584  -30.8573   22.8560 C   0  0  1  0  0  0  0  0  0  0  0  0
  -27.6730  -13.0888   19.7661 C   0  0  2  0  0  0  0  0  0  0  0  0
  -29.9453  -34.6128   20.3311 C   0  0  0  0  0  0  0  0  0  0  0  0
  -24.3332  -31.6979   18.3617 C   0  0  0  0  0  0  0  0  0  0  0  0
  -26.5494  -32.7031   17.7733 C   0  0  0  0  0  0  0  0  0  0  0  0
  -24.8041  -34.0983   18.8823 C   0  0  0  0  0  0  0  0  0  0  0  0
  -29.5089  -32.9347   23.7178 C   0  0  0  0  0  0  0  0  0  0  0  0
  -28.0478  -22.1064   24.6549 C   0  0  0  0  0  0  0  0  0  0  0  0
  -27.0885  -24.4077   24.0796 C   0  0  0  0  0  0  0  0  0  1  0  0
  -26.0098  -32.3254   20.2222 C   0  0  1  0  0  0  0  0  0  0  0  0
  -29.1665  -34.0014   21.4855 C   0  0  2  0  0  0  0  0  0  0  0  0
  -25.4225  -32.6843   18.8280 C   0  0  0  0  0  0  0  0  0  0  0  0
  -25.9250  -11.4589   20.3738 N   0  0  0  0  0  0  0  0  0  0  0  0
  -26.2449  -12.7440   20.1450 N   0  0  0  0  0  0  0  0  0  0  0  0
  -24.7965  -31.0376   21.9523 N   0  0  0  0  0  0  0  0  0  0  0  0
  -29.8975  -13.7715   20.5759 N   0  0  0  0  0  0  0  0  0  0  0  0
  -31.6686  -19.9869   24.9059 N   0  0  0  0  0  0  0  0  0  0  0  0
  -25.3455  -14.9348   20.0976 N   0  0  0  0  0  0  0  0  0  0  0  0
  -21.8021  -12.3783   21.2398 N   0  0  0  0  0  0  0  0  0  0  0  0
  -29.8028  -15.9527   21.4682 N   0  0  0  0  0  0  0  0  0  0  0  0
  -28.9579  -21.1022   24.1305 N   0  0  0  0  0  0  0  0  0  0  0  0
  -21.2908  -30.5833   22.4355 N   0  0  0  0  0  0  0  0  0  0  0  0
  -27.0244  -33.2578   20.7012 N   0  0  0  0  0  0  0  0  0  0  0  0
  -27.8925  -19.2715   25.1586 N   0  3  0  0  0  0  0  0  0  0  0  0
  -30.1389  -33.5372   22.5149 N   0  3  0  0  0  0  0  0  0  0  0  0
  -22.4878  -14.5229   20.8051 O   0  0  0  0  0  0  0  0  0  0  0  0
  -22.8560  -29.4164   21.1663 O   0  0  0  0  0  0  0  0  0  0  0  0
  -28.6103  -23.2546   22.6204 O   0  0  0  0  0  0  0  0  0  0  0  0
  -24.2870  -33.2764   21.5465 O   0  0  0  0  0  0  0  0  0  0  0  0
  -28.7183  -31.6917   20.9362 O   0  0  0  0  0  0  0  0  0  0  0  0
  -31.7224  -15.1819   20.4180 O   0  0  0  0  0  0  0  0  0  0  0  0
  -21.8082   -6.8465   21.8991 O   0  0  0  0  0  0  0  0  0  0  0  0
  -27.1147  -25.4354   23.0899 O   0  0  0  0  0  0  0  0  0  1  0  0
  -18.4331   -6.9647   26.2580 F   0  0  0  0  0  0  0  0  0  0  0  0
  -33.4050  -18.1935   23.7090 F   0  0  0  0  0  0  0  0  0  0  0  0
  -22.1880   -5.1316   24.0340 F   0  0  0  0  0  0  0  0  0  0  0  0
  1  2  1  0  0  0  0
  1  5  2  0  0  0  0
  2  6  2  0  0  0  0
  3  8  2  0  0  0  0
  3 17  1  0  0  0  0
  4  9  1  0  0  0  0
  4 17  2  0  0  0  0
  5 20  1  0  0  0  0
  6 22  1  0  0  0  0
  7 10  2  0  0  0  0
  7 21  1  0  0  0  0
  8 26  1  0  0  0  0
  9 26  2  0  0  0  0
 10 27  1  0  0  0  0
 11 12  2  0  0  0  0
 11 28  1  0  0  0  0
 12 29  1  0  0  0  0
 13 18  1  0  0  0  0
 13 24  2  0  0  0  0
 14 23  1  0  0  0  0
 14 27  2  0  0  0  0
 15 24  1  0  0  0  0
 15 30  2  0  0  0  0
 16 29  2  0  0  0  0
 16 31  1  0  0  0  0
 17 32  1  0  0  0  0
 18 25  2  0  0  0  0
 18 34  1  0  0  0  0
 19 32  1  0  0  0  0
 19 33  2  0  0  0  0
 19 35  1  0  0  0  0
 20 22  2  0  0  0  0
 20 41  1  0  0  0  0
 21 23  2  0  0  0  0
 21 42  1  0  0  0  0
 22 50  1  0  0  0  0
 23 43  1  0  0  0  0
 24 70  1  0  0  0  0
 25 30  1  0  0  0  0
 25 67  1  0  0  0  0
 26 82  1  0  0  0  0
 27 83  1  0  0  0  0
 28 31  2  0  0  0  0
 28 82  1  0  0  0  0
 29 84  1  0  0  0  0
 30 85  1  0  0  0  0
 31 86  1  0  0  0  0
 32 63  2  0  0  0  0
 33 64  1  0  0  0  0
 33 68  1  0  0  0  0
 34 71  1  0  0  0  0
 34 74  2  0  0  0  0
 35 69  1  0  0  0  0
 35 76  2  0  0  0  0
 36 51  1  0  0  0  0
 36 72  1  0  0  0  0
 36 77  2  0  0  0  0
 37 58  1  0  0  0  0
 37 59  1  0  0  0  0
 37 78  2  0  0  0  0
 38 60  1  0  0  0  0
 38 65  1  0  0  0  0
 38 79  2  0  0  0  0
 39 61  1  0  0  0  0
 39 73  1  0  0  0  0
 39 80  2  0  0  0  0
 40 66  1  0  0  0  0
 40 70  1  0  0  0  0
 40 81  2  0  0  0  0
 41 44  1  0  0  0  0
 42 51  1  0  0  0  0
 43 65  1  0  0  0  0
 44 46  1  0  0  0  0
 45 47  1  0  0  0  0
 45 48  1  0  0  0  0
 46 50  1  0  0  0  0
 47 52  1  0  0  0  0
 48 66  1  0  0  0  0
 49 52  1  0  0  0  0
 49 66  1  0  0  0  0
 50 72  1  0  0  0  0
 51 65  1  0  0  0  0
 52 64  1  0  0  0  0
 53 61  1  0  0  0  0
 54 62  1  0  0  0  0
 55 62  1  0  0  0  0
 56 62  1  0  0  0  0
 57 75  1  0  0  0  0
 58 71  1  0  0  0  0
 59 83  1  0  0  0  0
 60 62  1  0  0  0  0
 60 73  1  0  0  0  0
 61 75  1  0  0  0  0
 63 64  1  0  0  0  0
M  CHG  2  74   1  75   1
M  ISO  4  40 100  59 101  70 100  83 101
M  END
> <Batch ID>
0164

> <Smiles>
CNC(C)C(=O)NC(C(=O)N1Cc2cc([101O:1][101CH2:1]C(=O)CNC(=N)c3cc([100NH:0][100C:0](=O)N4CCCC(n5nc(-c6ccc(Oc7ccc(F)cc7F)cc6)c(C(N)=O)c5N)C4)cc(F)c3N)ccc2CC1C(=O)NC1CCCc2ccccc21)C(C)(C)C

> <Shape>
0.260

> <Color>
0.182

> <Negative vol penalty>
0.000

$$$$

  -OEChem-04052304023D

 85 93  0     1  0  0  0  0  0999 V2000
  -17.8233  -17.0215   16.5217 C   0  0  0  0  0  0  0  0  0  0  0  0
  -18.5223  -17.8893   17.3545 C   0  0  0  0  0  0  0  0  0  0  0  0
  -23.1350   -9.8187   19.9930 C   0  0  0  0  0  0  0  0  0  0  0  0
  -23.5713  -10.0629   22.3567 C   0  0  0  0  0  0  0  0  0  0  0  0
  -18.4842  -15.9518   15.9191 C   0  0  0  0  0  0  0  0  0  0  0  0
  -19.8824  -17.6874   17.5862 C   0  0  0  0  0  0  0  0  0  0  0  0
  -25.9320  -21.3152   18.8344 C   0  0  0  0  0  0  0  0  0  0  0  0
  -22.3492   -8.6962   20.2540 C   0  0  0  0  0  0  0  0  0  0  0  0
  -22.7854   -8.9404   22.6178 C   0  0  0  0  0  0  0  0  0  0  0  0
  -26.9938  -21.3609   19.7367 C   0  0  0  0  0  0  0  0  0  0  0  0
  -23.1083   -5.5792   22.4485 C   0  0  0  0  0  0  0  0  0  0  0  0
  -23.6058   -4.6343   23.3457 C   0  0  0  0  0  0  0  0  0  0  0  0
  -30.6460  -16.4017   25.9932 C   0  0  0  0  0  0  0  0  0  0  0  0
  -28.0485  -19.5260   18.5791 C   0  0  0  0  0  0  0  0  0  0  0  0
  -31.2150  -15.4146   23.8707 C   0  0  0  0  0  0  0  0  0  0  0  0
  -21.6876   -4.9799   24.7734 C   0  0  0  0  0  0  0  0  0  0  0  0
  -30.7406  -15.1429   26.5693 C   0  0  0  0  0  0  0  0  0  0  0  0
  -23.7461  -10.5020   21.0444 C   0  0  0  0  0  0  0  0  0  0  0  0
  -24.1332  -13.0019   20.7155 C   0  0  0  0  0  0  0  0  0  0  0  0
  -19.8552  -15.7423   16.1359 C   0  0  0  0  0  0  0  0  0  0  0  0
  -25.9151  -20.3659   17.8024 C   0  0  0  0  0  0  0  0  0  0  0  0
  -20.5619  -16.6132   16.9871 C   0  0  0  0  0  0  0  0  0  0  0  0
  -26.9865  -19.4720   17.6635 C   0  0  0  0  0  0  0  0  0  0  0  0
  -30.8867  -16.5343   24.6290 C   0  0  0  0  0  0  0  0  0  0  0  0
  -22.1744   -8.2571   21.5664 C   0  0  0  0  0  0  0  0  0  0  0  0
  -28.0509  -20.4643   19.6109 C   0  0  0  0  0  0  0  0  0  0  0  0
  -21.9004   -6.2246   22.7137 C   0  0  0  0  0  0  0  0  0  0  0  0
  -22.8954   -4.3346   24.5082 C   0  0  0  0  0  0  0  0  0  0  0  0
  -21.1901   -5.9249   23.8761 C   0  0  0  0  0  0  0  0  0  0  0  0
  -24.5584  -11.6613   20.7754 C   0  0  0  0  0  0  0  0  0  0  0  0
  -31.2954  -14.1807   24.5005 C   0  0  0  0  0  0  0  0  0  0  0  0
  -25.2744  -13.7118   20.4324 C   0  0  0  0  0  0  0  0  0  0  0  0
  -22.8237  -13.5561   20.8995 C   0  0  0  0  0  0  0  0  0  0  0  0
  -24.0052  -17.9535   17.0047 C   0  0  0  0  0  0  0  0  0  0  0  0
  -30.3084  -19.2687   22.1771 C   0  0  0  0  0  0  0  0  0  0  0  0
  -25.9132  -17.8208   14.3848 C   0  0  0  0  0  0  0  0  0  0  0  0
  -28.9409  -18.5080   12.9679 C   0  0  0  0  0  0  0  0  0  0  0  0
  -31.0886  -12.6248   21.3627 C   0  0  0  0  0  0  0  0  0  0  0  0
  -20.5160  -14.5448   15.5003 C   0  0  0  0  0  0  0  0  0  0  0  0
  -24.7753  -20.3471   16.8212 C   0  0  0  0  0  0  0  0  0  0  0  0
  -27.0261  -18.4469   16.5607 C   0  0  0  0  0  0  0  0  0  0  0  0
  -22.0407  -14.6193   15.4995 C   0  0  0  0  0  0  0  0  0  0  0  0
  -29.5058  -13.2802   18.2415 C   0  0  0  0  0  0  0  0  0  0  0  0
  -22.5550  -15.0447   16.8712 C   0  0  0  0  0  0  0  0  0  0  0  0
  -28.0200  -13.0605   18.5316 C   0  0  0  0  0  0  0  0  0  0  0  0
  -30.3827  -12.2950   19.0112 C   0  0  0  0  0  0  0  0  0  0  0  0
  -28.6614  -12.0431   20.7569 C   0  0  0  0  0  0  0  0  0  0  0  0
  -22.0435  -16.4417   17.2432 C   0  0  1  0  0  0  0  0  0  0  0  0
  -24.6141  -19.0028   16.1182 C   0  0  1  0  0  0  0  0  0  0  0  0
  -27.7401  -13.0494   20.0464 C   0  0  2  0  0  0  0  0  0  0  0  0
  -33.2808  -19.1731   23.0359 C   0  0  0  0  0  0  0  0  0  0  0  0
  -30.2168  -18.2466   10.8228 C   0  0  0  0  0  0  0  0  0  0  0  0
  -26.3545  -14.8671   15.0100 C   0  0  0  0  0  0  0  0  0  0  0  0
  -28.3201  -14.9043   13.4598 C   0  0  0  0  0  0  0  0  0  0  0  0
  -26.0340  -15.3834   12.5841 C   0  0  0  0  0  0  0  0  0  0  0  0
  -29.2332  -21.4358   12.6497 C   0  0  0  0  0  0  0  0  0  0  0  0
  -31.6391  -12.9385   23.7622 C   0  0  0  0  0  0  0  0  0  0  0  0
  -29.7601  -19.2769   20.7618 C   0  0  0  0  0  0  0  0  0  1  0  0
  -32.5368  -18.0456   22.3288 C   0  0  0  0  0  0  0  0  0  0  0  0
  -31.0341  -18.0018   22.6165 C   0  0  1  0  0  0  0  0  0  0  0  0
  -27.1932  -17.1035   14.0296 C   0  0  1  0  0  0  0  0  0  0  0  0
  -29.3105  -19.1510   11.6434 C   0  0  2  0  0  0  0  0  0  0  0  0
  -26.9741  -15.5825   13.7929 C   0  0  0  0  0  0  0  0  0  0  0  0
  -25.8676  -11.5249   20.5484 N   0  0  0  0  0  0  0  0  0  0  0  0
  -26.2748  -12.7891   20.3430 N   0  0  0  0  0  0  0  0  0  0  0  0
  -31.0587  -14.0815   25.8157 N   0  3  0  0  0  0  0  0  0  0  0  0
  -25.8853  -18.4642   15.6302 N   0  0  0  0  0  0  0  0  0  0  0  0
  -30.0686  -12.3349   20.4415 N   0  0  0  0  0  0  0  0  0  0  0  0
  -25.5098  -15.0290   20.2536 N   0  0  0  0  0  0  0  0  0  0  0  0
  -21.7635  -12.6849   21.1844 N   0  0  0  0  0  0  0  0  0  0  0  0
  -30.7979  -17.7768   24.0271 N   0  0  0  0  0  0  0  0  0  0  0  0
  -22.7995  -17.4592   16.5450 N   0  0  0  0  0  0  0  0  0  0  0  0
  -27.7537  -17.8118   12.8839 N   0  0  0  0  0  0  0  0  0  0  0  0
  -30.7042  -12.6490   22.6978 N   0  0  0  0  0  0  0  0  0  0  0  0
  -30.0189  -20.4418   11.8740 N   0  3  0  0  0  0  0  0  0  0  0  0
  -22.5974  -14.7857   20.7975 O   0  0  0  0  0  0  0  0  0  0  0  0
  -24.5870  -17.6162   18.0291 O   0  0  0  0  0  0  0  0  0  0  0  0
  -30.1654  -20.2363   22.9254 O   0  0  0  0  0  0  0  0  0  0  0  0
  -24.9753  -17.8167   13.5835 O   0  0  0  0  0  0  0  0  0  0  0  0
  -29.6378  -18.6097   13.9751 O   0  0  0  0  0  0  0  0  0  0  0  0
  -32.2542  -12.8509   21.0204 O   0  0  0  0  0  0  0  0  0  0  0  0
  -21.4074   -7.1619   21.8215 O   0  0  0  0  0  0  0  0  0  0  0  0
  -29.0883  -20.5063   20.4906 O   0  0  0  0  0  0  0  0  0  1  0  0
  -23.3726   -3.4260   25.3690 F   0  0  0  0  0  0  0  0  0  0  0  0
  -20.0286   -6.5408   24.1357 F   0  0  0  0  0  0  0  0  0  0  0  0
  1  2  1  0  0  0  0
  1  5  2  0  0  0  0
  2  6  2  0  0  0  0
  3  8  2  0  0  0  0
  3 18  1  0  0  0  0
  4  9  1  0  0  0  0
  4 18  2  0  0  0  0
  5 20  1  0  0  0  0
  6 22  1  0  0  0  0
  7 10  2  0  0  0  0
  7 21  1  0  0  0  0
  8 25  1  0  0  0  0
  9 25  2  0  0  0  0
 10 26  1  0  0  0  0
 11 12  2  0  0  0  0
 11 27  1  0  0  0  0
 12 28  1  0  0  0  0
 13 17  2  0  0  0  0
 13 24  1  0  0  0  0
 14 23  1  0  0  0  0
 14 26  2  0  0  0  0
 15 24  2  0  0  0  0
 15 31  1  0  0  0  0
 16 28  2  0  0  0  0
 16 29  1  0  0  0  0
 17 66  1  0  0  0  0
 18 30  1  0  0  0  0
 19 30  1  0  0  0  0
 19 32  2  0  0  0  0
 19 33  1  0  0  0  0
 20 22  2  0  0  0  0
 20 39  1  0  0  0  0
 21 23  2  0  0  0  0
 21 40  1  0  0  0  0
 22 48  1  0  0  0  0
 23 41  1  0  0  0  0
 24 71  1  0  0  0  0
 25 82  1  0  0  0  0
 26 83  1  0  0  0  0
 27 29  2  0  0  0  0
 27 82  1  0  0  0  0
 28 84  1  0  0  0  0
 29 85  1  0  0  0  0
 30 64  2  0  0  0  0
 31 57  1  0  0  0  0
 31 66  2  0  0  0  0
 32 65  1  0  0  0  0
 32 69  1  0  0  0  0
 33 70  1  0  0  0  0
 33 76  2  0  0  0  0
 34 49  1  0  0  0  0
 34 72  1  0  0  0  0
 34 77  2  0  0  0  0
 35 58  1  0  0  0  0
 35 60  1  0  0  0  0
 35 78  2  0  0  0  0
 36 61  1  0  0  0  0
 36 67  1  0  0  0  0
 36 79  2  0  0  0  0
 37 62  1  0  0  0  0
 37 73  1  0  0  0  0
 37 80  2  0  0  0  0
 38 68  1  0  0  0  0
 38 74  1  0  0  0  0
 38 81  2  0  0  0  0
 39 42  1  0  0  0  0
 40 49  1  0  0  0  0
 41 67  1  0  0  0  0
 42 44  1  0  0  0  0
 43 45  1  0  0  0  0
 43 46  1  0  0  0  0
 44 48  1  0  0  0  0
 45 50  1  0  0  0  0
 46 68  1  0  0  0  0
 47 50  1  0  0  0  0
 47 68  1  0  0  0  0
 48 72  1  0  0  0  0
 49 67  1  0  0  0  0
 50 65  1  0  0  0  0
 51 59  1  0  0  0  0
 52 62  1  0  0  0  0
 53 63  1  0  0  0  0
 54 63  1  0  0  0  0
 55 63  1  0  0  0  0
 56 75  1  0  0  0  0
 57 74  1  0  0  0  0
 58 83  1  0  0  0  0
 59 60  1  0  0  0  0
 60 71  1  0  0  0  0
 61 63  1  0  0  0  0
 61 73  1  0  0  0  0
 62 75  1  0  0  0  0
 64 65  1  0  0  0  0
M  CHG  2  66   1  75   1
M  ISO  4  38 100  58 101  74 100  83 101
M  END
> <Batch ID>
0164

> <Smiles>
CCC(Nc1ccnc(C[100NH:0][100C:0](=O)N2CCCC(n3nc(-c4ccc(Oc5ccc(F)cc5F)cc4)c(C(N)=O)c3N)C2)c1)C(=O)[101CH2:1][101O:1]c1ccc2c(c1)CN(C(=O)C(NC(=O)C(C)NC)C(C)(C)C)C(C(=O)NC1CCCc3ccccc31)C2

> <Shape>
0.181

> <Color>
0.186

> <Negative vol penalty>
0.000

$$$$

  -OEChem-04052304023D

 92101  0     1  0  0  0  0  0999 V2000
  -25.0553  -35.7608   28.9426 C   0  0  0  0  0  0  0  0  0  0  0  0
  -25.2006  -34.4012   28.6863 C   0  0  0  0  0  0  0  0  0  0  0  0
  -23.2815   -9.6680   20.0007 C   0  0  0  0  0  0  0  0  0  0  0  0
  -23.8462   -9.9359   22.3344 C   0  0  0  0  0  0  0  0  0  0  0  0
  -24.7182  -36.6320   27.9076 C   0  0  0  0  0  0  0  0  0  0  0  0
  -25.0077  -33.9118   27.3949 C   0  0  0  0  0  0  0  0  0  0  0  0
  -28.0675  -29.2546   24.6850 C   0  0  0  0  0  0  0  0  0  0  0  0
  -22.5987   -8.4894   20.3011 C   0  0  0  0  0  0  0  0  0  0  0  0
  -23.1633   -8.7573   22.6349 C   0  0  0  0  0  0  0  0  0  0  0  0
  -27.7749  -27.9064   24.4832 C   0  0  0  0  0  0  0  0  0  0  0  0
  -19.9573   -7.7777   23.0617 C   0  0  0  0  0  0  0  0  0  0  0  0
  -19.1101   -7.7859   24.1698 C   0  0  0  0  0  0  0  0  0  0  0  0
  -31.5477  -17.2656   22.6374 C   0  0  0  0  0  0  0  0  0  0  0  0
  -26.8962  -28.4304   22.2988 C   0  0  0  0  0  0  0  0  0  0  0  0
  -29.2697  -18.0017   22.9683 C   0  0  0  0  0  0  0  0  0  0  0  0
  -20.4136   -6.0198   25.1793 C   0  0  0  0  0  0  0  0  0  0  0  0
  -23.9053  -10.3912   21.0173 C   0  0  0  0  0  0  0  0  0  0  0  0
  -31.9998  -18.2821   23.4870 C   0  0  0  0  0  0  0  0  0  0  0  0
  -24.0854  -12.9141   20.6850 C   0  0  0  0  0  0  0  0  0  0  0  0
  -24.5305  -36.1544   26.6009 C   0  0  0  0  0  0  0  0  0  0  0  0
  -27.7668  -30.2043   23.6980 C   0  0  0  0  0  0  0  0  0  0  0  0
  -24.6663  -34.7772   26.3417 C   0  0  0  0  0  0  0  0  0  0  0  0
  -27.1904  -29.7892   22.4887 C   0  0  0  0  0  0  0  0  0  0  0  0
  -31.0845  -19.1670   24.0762 C   0  0  0  0  0  0  0  0  0  0  0  0
  -30.1837  -17.1315   22.3773 C   0  0  0  0  0  0  0  0  0  0  0  0
  -29.7169  -19.0123   23.8193 C   0  0  0  0  0  0  0  0  0  0  0  0
  -22.5396   -8.0341   21.6183 C   0  0  0  0  0  0  0  0  0  0  0  0
  -27.1871  -27.4946   23.2909 C   0  0  0  0  0  0  0  0  0  0  0  0
  -21.0326   -6.8905   23.0123 C   0  0  0  0  0  0  0  0  0  0  0  0
  -19.3383   -6.9069   25.2286 C   0  0  0  0  0  0  0  0  0  0  0  0
  -21.2607   -6.0116   24.0711 C   0  0  0  0  0  0  0  0  0  0  0  0
  -24.6113  -11.6085   20.7075 C   0  0  0  0  0  0  0  0  0  0  0  0
  -25.1510  -13.7076   20.3370 C   0  0  0  0  0  0  0  0  0  0  0  0
  -33.4536  -18.4020   23.7819 C   0  0  0  0  0  0  0  0  0  0  0  0
  -22.7527  -13.3689   20.9548 C   0  0  0  0  0  0  0  0  0  0  0  0
  -26.8249  -21.4573   24.3404 C   0  0  0  0  0  0  0  0  0  0  0  0
  -27.8833  -20.6849   23.6206 C   0  0  0  0  0  0  0  0  0  0  0  0
  -25.9293  -32.8158   23.4762 C   0  0  0  0  0  0  0  0  0  0  0  0
  -27.4314  -32.9861   20.5152 C   0  0  0  0  0  0  0  0  0  0  0  0
  -26.2727  -36.1761   20.1672 C   0  0  0  0  0  0  0  0  0  0  0  0
  -30.5011  -15.1696   20.8293 C   0  0  0  0  0  0  0  0  0  0  0  0
  -24.1205  -37.1277   25.5242 C   0  0  0  0  0  0  0  0  0  0  0  0
  -28.1184  -31.6499   23.9234 C   0  0  0  0  0  0  0  0  0  0  0  0
  -31.5664  -20.2282   25.0222 C   0  0  0  0  0  0  0  0  0  0  0  0
  -26.8520  -30.7684   21.3973 C   0  0  0  0  0  0  0  0  0  0  0  0
  -24.3009  -36.5826   24.1097 C   0  0  0  0  0  0  0  0  0  0  0  0
  -29.7520  -12.4780   18.6222 C   0  0  0  0  0  0  0  0  0  0  0  0
  -23.7441  -35.1661   24.0085 C   0  0  0  0  0  0  0  0  0  0  0  0
  -28.3046  -12.1192   18.9661 C   0  0  0  0  0  0  0  0  0  0  0  0
  -32.9479  -20.7002   24.6005 C   0  0  0  0  0  0  0  0  0  0  0  0
  -30.5467  -12.8806   19.8632 C   0  0  0  0  0  0  0  0  0  0  0  0
  -28.4873  -13.5809   21.0197 C   0  0  0  0  0  0  0  0  0  0  0  0
  -24.4896  -34.2117   24.9492 C   0  0  1  0  0  0  0  0  0  0  0  0
  -27.3473  -32.6130   23.0230 C   0  0  1  0  0  0  0  0  0  0  0  0
  -27.6295  -13.2313   19.7927 C   0  0  2  0  0  0  0  0  0  0  0  0
  -26.4905  -38.2022   18.7026 C   0  0  0  0  0  0  0  0  0  0  0  0
  -30.1341  -33.6094   21.7850 C   0  0  0  0  0  0  0  0  0  0  0  0
  -29.8487  -35.9876   21.0562 C   0  0  0  0  0  0  0  0  0  0  0  0
  -29.9699  -34.1690   19.3530 C   0  0  0  0  0  0  0  0  0  0  0  0
  -35.2679  -19.8105   24.7127 C   0  0  0  0  0  0  0  0  0  0  0  0
  -28.6081  -19.8665   25.8772 C   0  0  0  0  0  0  0  0  0  0  0  0
  -23.4037  -36.1051   19.4441 C   0  0  0  0  0  0  0  0  0  0  0  0
  -27.1628  -22.8462   24.8094 C   0  0  0  0  0  0  0  0  0  0  0  0
  -26.8521  -23.8645   23.7197 C   0  0  0  0  0  0  0  0  0  0  0  0
  -27.2298  -25.2755   24.1453 C   0  0  0  0  0  0  0  0  0  1  0  0
  -27.8925  -34.3984   20.7756 C   0  0  1  0  0  0  0  0  0  0  0  0
  -25.7159  -36.9205   18.9670 C   0  0  2  0  0  0  0  0  0  0  0  0
  -29.4417  -34.5285   20.7589 C   0  0  0  0  0  0  0  0  0  0  0  0
  -25.9101  -11.5704   20.3981 N   0  0  0  0  0  0  0  0  0  0  0  0
  -25.6631  -20.9116   24.4775 N   0  0  0  0  0  0  0  0  0  0  0  0
  -26.2092  -12.8620   20.1779 N   0  0  0  0  0  0  0  0  0  0  0  0
  -33.8626  -19.5779   24.4178 N   0  0  0  0  0  0  0  0  0  0  0  0
  -27.2909  -32.1505   21.6305 N   0  0  0  0  0  0  0  0  0  0  0  0
  -29.8488  -13.9409   20.5936 N   0  0  0  0  0  0  0  0  0  0  0  0
  -25.2767  -15.0393   20.1544 N   0  0  0  0  0  0  0  0  0  0  0  0
  -21.7797  -12.4204   21.2983 N   0  0  0  0  0  0  0  0  0  0  0  0
  -29.7273  -16.1129   21.5045 N   0  0  0  0  0  0  0  0  0  0  0  0
  -25.7708  -33.8445   24.3852 N   0  0  0  0  0  0  0  0  0  0  0  0
  -27.2117  -35.2374   19.7953 N   0  0  0  0  0  0  0  0  0  0  0  0
  -28.7304  -19.8935   24.4118 N   0  0  0  0  0  0  0  0  0  0  0  0
  -24.2861  -37.2738   19.1943 N   0  3  0  0  0  0  0  0  0  0  0  0
  -34.2024  -17.4800   23.4668 O   0  0  0  0  0  0  0  0  0  0  0  0
  -22.4303  -14.5787   20.8770 O   0  0  0  0  0  0  0  0  0  0  0  0
  -27.8530  -20.8196   22.4031 O   0  0  0  0  0  0  0  0  0  0  0  0
  -25.0442  -32.0935   23.0329 O   0  0  0  0  0  0  0  0  0  0  0  0
  -27.2086  -32.6290   19.3550 O   0  0  0  0  0  0  0  0  0  0  0  0
  -25.9135  -36.4072   21.3196 O   0  0  0  0  0  0  0  0  0  0  0  0
  -31.6512  -15.3797   20.4356 O   0  0  0  0  0  0  0  0  0  0  0  0
  -21.8732   -6.8842   21.9119 O   0  0  0  0  0  0  0  0  0  0  0  0
  -26.9009  -26.1792   23.0910 O   0  0  0  0  0  0  0  0  0  1  0  0
  -18.5256   -6.9159   26.2933 F   0  0  0  0  0  0  0  0  0  0  0  0
  -22.2928   -5.1578   24.0299 F   0  0  0  0  0  0  0  0  0  0  0  0
  1  2  1  0  0  0  0
  1  5  2  0  0  0  0
  2  6  2  0  0  0  0
  3  8  2  0  0  0  0
  3 17  1  0  0  0  0
  4  9  1  0  0  0  0
  4 17  2  0  0  0  0
  5 20  1  0  0  0  0
  6 22  1  0  0  0  0
  7 10  2  0  0  0  0
  7 21  1  0  0  0  0
  8 27  1  0  0  0  0
  9 27  2  0  0  0  0
 10 28  1  0  0  0  0
 11 12  2  0  0  0  0
 11 29  1  0  0  0  0
 12 30  1  0  0  0  0
 13 18  2  0  0  0  0
 13 25  1  0  0  0  0
 14 23  1  0  0  0  0
 14 28  2  0  0  0  0
 15 25  2  0  0  0  0
 15 26  1  0  0  0  0
 16 30  2  0  0  0  0
 16 31  1  0  0  0  0
 17 32  1  0  0  0  0
 18 24  1  0  0  0  0
 18 34  1  0  0  0  0
 19 32  1  0  0  0  0
 19 33  2  0  0  0  0
 19 35  1  0  0  0  0
 20 22  2  0  0  0  0
 20 42  1  0  0  0  0
 21 23  2  0  0  0  0
 21 43  1  0  0  0  0
 22 53  1  0  0  0  0
 23 45  1  0  0  0  0
 24 26  2  0  0  0  0
 24 44  1  0  0  0  0
 25 77  1  0  0  0  0
 26 80  1  0  0  0  0
 27 89  1  0  0  0  0
 28 90  1  0  0  0  0
 29 31  2  0  0  0  0
 29 89  1  0  0  0  0
 30 91  1  0  0  0  0
 31 92  1  0  0  0  0
 32 69  2  0  0  0  0
 33 71  1  0  0  0  0
 33 75  1  0  0  0  0
 34 72  1  0  0  0  0
 34 82  2  0  0  0  0
 35 76  1  0  0  0  0
 35 83  2  0  0  0  0
 36 37  1  0  0  0  0
 36 63  1  0  0  0  0
 36 70  2  0  0  0  0
 37 80  1  0  0  0  0
 37 84  2  0  0  0  0
 38 54  1  0  0  0  0
 38 78  1  0  0  0  0
 38 85  2  0  0  0  0
 39 66  1  0  0  0  0
 39 73  1  0  0  0  0
 39 86  2  0  0  0  0
 40 67  1  0  0  0  0
 40 79  1  0  0  0  0
 40 87  2  0  0  0  0
 41 74  1  0  0  0  0
 41 77  1  0  0  0  0
 41 88  2  0  0  0  0
 42 46  1  0  0  0  0
 43 54  1  0  0  0  0
 44 50  1  0  0  0  0
 45 73  1  0  0  0  0
 46 48  1  0  0  0  0
 47 49  1  0  0  0  0
 47 51  1  0  0  0  0
 48 53  1  0  0  0  0
 49 55  1  0  0  0  0
 50 72  1  0  0  0  0
 51 74  1  0  0  0  0
 52 55  1  0  0  0  0
 52 74  1  0  0  0  0
 53 78  1  0  0  0  0
 54 73  1  0  0  0  0
 55 71  1  0  0  0  0
 56 67  1  0  0  0  0
 57 68  1  0  0  0  0
 58 68  1  0  0  0  0
 59 68  1  0  0  0  0
 60 72  1  0  0  0  0
 61 80  1  0  0  0  0
 62 81  1  0  0  0  0
 63 64  1  0  0  0  0
 64 65  1  0  0  0  0
 65 90  1  0  0  0  0
 66 68  1  0  0  0  0
 66 79  1  0  0  0  0
 67 81  1  0  0  0  0
 69 71  1  0  0  0  0
M  CHG  1  81   1
M  ISO  4  41 100  65 101  77 100  90 101
M  END
> <Batch ID>
0164

> <Smiles>
CNC(C)C(=O)NC(C(=O)N1Cc2cc([101O:1][101CH2:1]CCC(=N)C(=O)N(C)c3cc([100NH:0][100C:0](=O)N4CCCC(n5nc(-c6ccc(Oc7ccc(F)cc7F)cc6)c(C(N)=O)c5N)C4)cc4c3CCN(C)C4=O)ccc2CC1C(=O)NC1CCCc2ccccc21)C(C)(C)C

> <Shape>
0.244

> <Color>
0.187

> <Negative vol penalty>
0.000

$$$$

  -OEChem-04052304023D

 84 93  0     1  0  0  0  0  0999 V2000
  -20.0755  -26.7146   17.0711 C   0  0  0  0  0  0  0  0  0  0  0  0
  -21.1514  -26.2437   17.8168 C   0  0  0  0  0  0  0  0  0  0  0  0
  -32.4768  -18.5120   21.7616 C   0  0  0  0  0  0  0  0  0  0  0  0
  -23.1531   -9.8471   21.3601 C   0  0  0  0  0  0  0  0  0  0  0  0
  -23.8514  -10.7731   23.4796 C   0  0  0  0  0  0  0  0  0  0  0  0
  -19.8575  -28.0867   16.9537 C   0  0  0  0  0  0  0  0  0  0  0  0
  -22.0106  -27.1447   18.4447 C   0  0  0  0  0  0  0  0  0  0  0  0
  -31.6420  -19.5785   22.0951 C   0  0  0  0  0  0  0  0  0  0  0  0
  -23.1004  -25.7964   23.2028 C   0  0  0  0  0  0  0  0  0  0  0  0
  -31.9311  -17.3275   21.2668 C   0  0  0  0  0  0  0  0  0  0  0  0
  -22.4260   -8.8629   22.0297 C   0  0  0  0  0  0  0  0  0  0  0  0
  -23.1243   -9.7889   24.1491 C   0  0  0  0  0  0  0  0  0  0  0  0
  -24.0444  -24.7854   23.3777 C   0  0  0  0  0  0  0  0  0  0  0  0
  -19.4567   -8.6133   23.6277 C   0  0  0  0  0  0  0  0  0  0  0  0
  -18.1644   -8.3432   23.1777 C   0  0  0  0  0  0  0  0  0  0  0  0
  -29.7158  -18.2759   21.4391 C   0  0  0  0  0  0  0  0  0  0  0  0
  -25.7266  -26.4471   23.8554 C   0  0  0  0  0  0  0  0  0  0  0  0
  -18.7978   -6.0546   22.7325 C   0  0  0  0  0  0  0  0  0  0  0  0
  -23.8658  -10.8022   22.0851 C   0  0  0  0  0  0  0  0  0  0  0  0
  -24.1602  -13.0876   20.9906 C   0  0  0  0  0  0  0  0  0  0  0  0
  -30.2615  -19.4605   21.9339 C   0  0  0  0  0  0  0  0  0  0  0  0
  -20.7089  -29.0048   17.5884 C   0  0  0  0  0  0  0  0  0  0  0  0
  -23.4656  -27.1431   23.3423 C   0  0  0  0  0  0  0  0  0  0  0  0
  -21.8046  -28.5304   18.3345 C   0  0  0  0  0  0  0  0  0  0  0  0
  -24.7848  -27.4732   23.6842 C   0  0  0  0  0  0  0  0  0  0  0  0
  -30.5507  -17.2094   21.1055 C   0  0  0  0  0  0  0  0  0  0  0  0
  -22.4116   -8.8338   23.4242 C   0  0  0  0  0  0  0  0  0  0  0  0
  -25.3583  -25.1108   23.7013 C   0  0  0  0  0  0  0  0  0  0  0  0
  -20.4196   -7.6041   23.6300 C   0  0  0  0  0  0  0  0  0  0  0  0
  -17.8349   -7.0639   22.7301 C   0  0  0  0  0  0  0  0  0  0  0  0
  -20.0902   -6.3248   23.1824 C   0  0  0  0  0  0  0  0  0  0  0  0
  -24.6175  -11.8188   21.3940 C   0  0  0  0  0  0  0  0  0  0  0  0
  -25.2465  -13.6662   20.3809 C   0  0  0  0  0  0  0  0  0  0  0  0
  -28.9322  -23.0937   21.9117 C   0  0  0  0  0  0  0  0  0  0  0  0
  -28.3637  -23.2020   23.1250 C   0  0  0  0  0  0  0  0  0  0  0  0
  -22.8690  -13.6894   21.1526 C   0  0  0  0  0  0  0  0  0  0  0  0
  -23.5010  -29.6692   21.4133 C   0  0  0  0  0  0  0  0  0  0  0  0
  -24.3188  -31.2432   24.1291 C   0  0  0  0  0  0  0  0  0  0  0  0
  -25.6843  -31.1125   27.2541 C   0  0  0  0  0  0  0  0  0  0  0  0
  -30.6841  -14.8537   20.2228 C   0  0  0  0  0  0  0  0  0  0  0  0
  -20.4606  -30.4796   17.3937 C   0  0  0  0  0  0  0  0  0  0  0  0
  -22.4293  -28.2207   23.1766 C   0  0  0  0  0  0  0  0  0  0  0  0
  -25.2231  -28.9027   23.8654 C   0  0  0  0  0  0  0  0  0  0  0  0
  -29.6387  -21.8605   21.4270 C   0  0  0  0  0  0  0  0  0  0  0  0
  -28.4167  -22.0835   24.1357 C   0  0  0  0  0  0  0  0  0  0  0  0
  -21.1991  -31.3596   18.3990 C   0  0  0  0  0  0  0  0  0  0  0  0
  -29.4291  -20.9869   23.7873 C   0  0  0  0  0  0  0  0  0  0  0  0
  -29.6815  -11.6745   18.9720 C   0  0  0  0  0  0  0  0  0  0  0  0
  -22.6524  -30.9155   18.5308 C   0  0  0  0  0  0  0  0  0  0  0  0
  -28.2371  -11.5330   19.4574 C   0  0  0  0  0  0  0  0  0  0  0  0
  -30.5596  -12.3817   20.0028 C   0  0  0  0  0  0  0  0  0  0  0  0
  -28.6025  -13.5337   20.9576 C   0  0  0  0  0  0  0  0  0  0  0  0
  -29.3538  -20.6210   22.2968 C   0  0  2  0  0  0  0  0  0  0  0  0
  -22.7444  -29.4759   19.0508 C   0  0  1  0  0  0  0  0  0  0  0  0
  -23.0309  -29.5811   22.8377 C   0  0  1  0  0  0  0  0  0  0  0  0
  -27.6650  -12.8853   19.9259 C   0  0  2  0  0  0  0  0  0  0  0  0
  -26.2504  -32.5674   29.2188 C   0  0  0  0  0  0  0  0  0  0  0  0
  -26.7292  -32.3439   22.6165 C   0  0  0  0  0  0  0  0  0  0  0  0
  -27.7335  -32.9804   24.8198 C   0  0  0  0  0  0  0  0  0  0  0  0
  -25.5774  -34.0023   24.0921 C   0  0  0  0  0  0  0  0  0  0  0  0
  -23.8877  -29.5901   29.0467 C   0  0  0  0  0  0  0  0  0  0  0  0
  -27.6358  -24.4426   23.5513 C   0  0  0  0  0  0  0  0  0  1  0  0
  -25.6185  -31.5812   24.8188 C   0  0  1  0  0  0  0  0  0  0  0  0
  -25.2058  -31.6612   28.5862 C   0  0  2  0  0  0  0  0  0  0  0  0
  -26.4072  -32.7000   24.0815 C   0  0  0  0  0  0  0  0  0  0  0  0
  -25.8948  -11.6033   21.0679 N   0  0  0  0  0  0  0  0  0  0  0  0
  -26.2492  -12.7445   20.4530 N   0  0  0  0  0  0  0  0  0  0  0  0
  -24.1746  -29.9207   23.6866 N   0  0  0  0  0  0  0  0  0  0  0  0
  -29.9570  -13.6571   20.3965 N   0  0  0  0  0  0  0  0  0  0  0  0
  -25.4321  -14.8683   19.7953 N   0  0  0  0  0  0  0  0  0  0  0  0
  -21.8668  -12.9560   21.8023 N   0  0  0  0  0  0  0  0  0  0  0  0
  -29.9968  -16.0063   20.6022 N   0  0  0  0  0  0  0  0  0  0  0  0
  -22.5099  -29.4382   20.4784 N   0  0  0  0  0  0  0  0  0  0  0  0
  -25.2761  -31.9024   26.2001 N   0  0  0  0  0  0  0  0  0  0  0  0
  -24.9162  -30.5462   29.5316 N   0  3  0  0  0  0  0  0  0  0  0  0
  -22.6067  -14.8369   20.7190 O   0  0  0  0  0  0  0  0  0  0  0  0
  -24.6755  -29.9291   21.1797 O   0  0  0  0  0  0  0  0  0  0  0  0
  -23.4602  -32.1186   23.9946 O   0  0  0  0  0  0  0  0  0  0  0  0
  -26.3563  -30.0880   27.1584 O   0  0  0  0  0  0  0  0  0  0  0  0
  -31.8216  -14.8584   19.7453 O   0  0  0  0  0  0  0  0  0  0  0  0
  -21.7020   -7.8737   24.0778 O   0  0  0  0  0  0  0  0  0  0  0  0
  -26.2819  -24.1260   23.8720 O   0  0  0  0  0  0  0  0  0  1  0  0
  -16.5934   -6.8042   22.2995 F   0  0  0  0  0  0  0  0  0  0  0  0
  -21.0106   -5.3508   23.1834 F   0  0  0  0  0  0  0  0  0  0  0  0
  1  2  1  0  0  0  0
  1  6  2  0  0  0  0
  2  7  2  0  0  0  0
  3  8  2  0  0  0  0
  3 10  1  0  0  0  0
  4 11  2  0  0  0  0
  4 19  1  0  0  0  0
  5 12  1  0  0  0  0
  5 19  2  0  0  0  0
  6 22  1  0  0  0  0
  7 24  1  0  0  0  0
  8 21  1  0  0  0  0
  9 13  2  0  0  0  0
  9 23  1  0  0  0  0
 10 26  2  0  0  0  0
 11 27  1  0  0  0  0
 12 27  2  0  0  0  0
 13 28  1  0  0  0  0
 14 15  2  0  0  0  0
 14 29  1  0  0  0  0
 15 30  1  0  0  0  0
 16 21  2  0  0  0  0
 16 26  1  0  0  0  0
 17 25  1  0  0  0  0
 17 28  2  0  0  0  0
 18 30  2  0  0  0  0
 18 31  1  0  0  0  0
 19 32  1  0  0  0  0
 20 32  1  0  0  0  0
 20 33  2  0  0  0  0
 20 36  1  0  0  0  0
 21 53  1  0  0  0  0
 22 24  2  0  0  0  0
 22 41  1  0  0  0  0
 23 25  2  0  0  0  0
 23 42  1  0  0  0  0
 24 54  1  0  0  0  0
 25 43  1  0  0  0  0
 26 72  1  0  0  0  0
 27 81  1  0  0  0  0
 28 82  1  0  0  0  0
 29 31  2  0  0  0  0
 29 81  1  0  0  0  0
 30 83  1  0  0  0  0
 31 84  1  0  0  0  0
 32 66  2  0  0  0  0
 33 67  1  0  0  0  0
 33 70  1  0  0  0  0
 34 35  2  0  0  0  0
 34 44  1  0  0  0  0
 35 45  1  0  0  0  0
 35 62  1  0  0  0  0
 36 71  1  0  0  0  0
 36 76  2  0  0  0  0
 37 55  1  0  0  0  0
 37 73  1  0  0  0  0
 37 77  2  0  0  0  0
 38 63  1  0  0  0  0
 38 68  1  0  0  0  0
 38 78  2  0  0  0  0
 39 64  1  0  0  0  0
 39 74  1  0  0  0  0
 39 79  2  0  0  0  0
 40 69  1  0  0  0  0
 40 72  1  0  0  0  0
 40 80  2  0  0  0  0
 41 46  1  0  0  0  0
 42 55  1  0  0  0  0
 43 68  1  0  0  0  0
 44 53  1  0  0  0  0
 45 47  1  0  0  0  0
 46 49  1  0  0  0  0
 47 53  1  0  0  0  0
 48 50  1  0  0  0  0
 48 51  1  0  0  0  0
 49 54  1  0  0  0  0
 50 56  1  0  0  0  0
 51 69  1  0  0  0  0
 52 56  1  0  0  0  0
 52 69  1  0  0  0  0
 54 73  1  0  0  0  0
 55 68  1  0  0  0  0
 56 67  1  0  0  0  0
 57 64  1  0  0  0  0
 58 65  1  0  0  0  0
 59 65  1  0  0  0  0
 60 65  1  0  0  0  0
 61 75  1  0  0  0  0
 62 82  1  0  0  0  0
 63 65  1  0  0  0  0
 63 74  1  0  0  0  0
 64 75  1  0  0  0  0
 66 67  1  0  0  0  0
M  CHG  1  75   1
M  ISO  4  40 100  62 101  72 100  82 101
M  END
> <Batch ID>
0164

> <Smiles>
CNC(C)C(=O)NC(C(=O)N1Cc2cc([101O:1][101CH2:1]C3=CCC(c4cccc([100NH:0][100C:0](=O)N5CCCC(n6nc(-c7ccc(Oc8ccc(F)cc8F)cc7)c(C(N)=O)c6N)C5)c4)CC3)ccc2CC1C(=O)NC1CCCc2ccccc21)C(C)(C)C

> <Shape>
0.260

> <Color>
0.159

> <Negative vol penalty>
0.000

$$$$

  -OEChem-04052304023D

 85 93  0     1  0  0  0  0  0999 V2000
  -16.7982  -29.2831   24.5461 C   0  0  0  0  0  0  0  0  0  0  0  0
  -17.8300  -28.3509   24.5882 C   0  0  0  0  0  0  0  0  0  0  0  0
  -32.5367  -17.5339   23.4462 C   0  0  0  0  0  0  0  0  0  0  0  0
  -23.0230   -9.8092   19.9847 C   0  0  0  0  0  0  0  0  0  0  0  0
  -23.6612   -9.9727   22.3091 C   0  0  0  0  0  0  0  0  0  0  0  0
  -31.7185  -18.4652   24.0855 C   0  0  0  0  0  0  0  0  0  0  0  0
  -16.8006  -30.2804   23.5717 C   0  0  0  0  0  0  0  0  0  0  0  0
  -18.8643  -28.4148   23.6552 C   0  0  0  0  0  0  0  0  0  0  0  0
  -24.7538  -27.0175   24.5867 C   0  0  0  0  0  0  0  0  0  0  0  0
  -31.9791  -16.5949   22.5783 C   0  0  0  0  0  0  0  0  0  0  0  0
  -22.2467   -8.6878   20.2767 C   0  0  0  0  0  0  0  0  0  0  0  0
  -22.8848   -8.8513   22.6012 C   0  0  0  0  0  0  0  0  0  0  0  0
  -25.5014  -25.8736   24.3105 C   0  0  0  0  0  0  0  0  0  0  0  0
  -23.1457   -5.4938   22.3009 C   0  0  0  0  0  0  0  0  0  0  0  0
  -23.7043   -4.5151   23.1228 C   0  0  0  0  0  0  0  0  0  0  0  0
  -26.2528  -26.8704   22.2463 C   0  0  0  0  0  0  0  0  0  0  0  0
  -21.9188   -4.8361   24.7185 C   0  0  0  0  0  0  0  0  0  0  0  0
  -23.7304  -10.4517   21.0009 C   0  0  0  0  0  0  0  0  0  0  0  0
  -30.3425  -18.4575   23.8570 C   0  0  0  0  0  0  0  0  0  0  0  0
  -24.1228  -12.9564   20.7179 C   0  0  0  0  0  0  0  0  0  0  0  0
  -17.8405  -30.3623   22.6323 C   0  0  0  0  0  0  0  0  0  0  0  0
  -24.7413  -28.0939   23.6880 C   0  0  0  0  0  0  0  0  0  0  0  0
  -18.8800  -29.4132   22.6666 C   0  0  0  0  0  0  0  0  0  0  0  0
  -25.5061  -28.0278   22.5146 C   0  0  0  0  0  0  0  0  0  0  0  0
  -30.6031  -16.5873   22.3499 C   0  0  0  0  0  0  0  0  0  0  0  0
  -22.1776   -8.2088   21.5849 C   0  0  0  0  0  0  0  0  0  0  0  0
  -26.2488  -25.7987   23.1388 C   0  0  0  0  0  0  0  0  0  0  0  0
  -21.9737   -6.1438   22.6878 C   0  0  0  0  0  0  0  0  0  0  0  0
  -23.0908   -4.1862   24.3316 C   0  0  0  0  0  0  0  0  0  0  0  0
  -21.3602   -5.8149   23.8966 C   0  0  0  0  0  0  0  0  0  0  0  0
  -29.7847  -17.5186   22.9892 C   0  0  0  0  0  0  0  0  0  0  0  0
  -24.5329  -11.6098   20.6998 C   0  0  0  0  0  0  0  0  0  0  0  0
  -25.2457  -13.6622   20.3608 C   0  0  0  0  0  0  0  0  0  0  0  0
  -29.4791  -19.4453   24.5349 C   0  0  0  0  0  0  0  0  0  0  0  0
  -22.8414  -13.5189   21.0297 C   0  0  0  0  0  0  0  0  0  0  0  0
  -22.5043  -29.5474   21.9599 C   0  0  0  0  0  0  0  0  0  0  0  0
  -27.8117  -22.4697   23.3930 C   0  0  0  0  0  0  0  0  0  0  0  0
  -24.9222  -31.5959   21.2671 C   0  0  0  0  0  0  0  0  0  0  0  0
  -28.2833  -32.1324   21.0187 C   0  0  0  0  0  0  0  0  0  0  0  0
  -30.7128  -14.6417   20.7533 C   0  0  0  0  0  0  0  0  0  0  0  0
  -17.7754  -31.4294   21.5685 C   0  0  0  0  0  0  0  0  0  0  0  0
  -23.9508  -29.3315   24.0134 C   0  0  0  0  0  0  0  0  0  0  0  0
  -25.5427  -29.1643   21.5268 C   0  0  0  0  0  0  0  0  0  0  0  0
  -19.1029  -31.6543   20.8492 C   0  0  0  0  0  0  0  0  0  0  0  0
  -29.6818  -12.0775   18.5085 C   0  0  0  0  0  0  0  0  0  0  0  0
  -19.7275  -30.3205   20.4520 C   0  0  0  0  0  0  0  0  0  0  0  0
  -28.2166  -11.8380   18.8800 C   0  0  0  0  0  0  0  0  0  0  0  0
  -30.5364  -12.3805   19.7380 C   0  0  0  0  0  0  0  0  0  0  0  0
  -28.5726  -13.2300   20.9591 C   0  0  0  0  0  0  0  0  0  0  0  0
  -20.0325  -29.4646   21.6872 C   0  0  1  0  0  0  0  0  0  0  0  0
  -23.6038  -30.1602   22.7804 C   0  0  1  0  0  0  0  0  0  0  0  0
  -27.6601  -12.9850   19.7462 C   0  0  2  0  0  0  0  0  0  0  0  0
  -29.9557  -33.8951   20.3915 C   0  0  0  0  0  0  0  0  0  0  0  0
  -24.3096  -31.1233   18.3156 C   0  0  0  0  0  0  0  0  0  0  0  0
  -26.5428  -32.1125   17.7654 C   0  0  0  0  0  0  0  0  0  0  0  0
  -24.8136  -33.4999   18.9088 C   0  0  0  0  0  0  0  0  0  0  0  0
  -29.4806  -32.1242   23.7253 C   0  0  0  0  0  0  0  0  0  0  0  0
  -27.8564  -21.2958   24.3357 C   0  0  0  0  0  0  0  0  0  0  0  0
  -26.9335  -23.6271   23.8252 C   0  0  0  0  0  0  0  0  0  1  0  0
  -25.9875  -31.6705   20.2001 C   0  0  1  0  0  0  0  0  0  0  0  0
  -29.1632  -33.2615   21.5242 C   0  0  2  0  0  0  0  0  0  0  0  0
  -25.4114  -32.0792   18.8149 C   0  0  0  0  0  0  0  0  0  0  0  0
  -25.8161  -11.4662   20.3581 N   0  0  0  0  0  0  0  0  0  0  0  0
  -26.2220  -12.7317   20.1581 N   0  0  0  0  0  0  0  0  0  0  0  0
  -24.7482  -30.3503   21.8868 N   0  0  0  0  0  0  0  0  0  0  0  0
  -29.9504  -13.4801   20.5076 N   0  0  0  0  0  0  0  0  0  0  0  0
  -25.4832  -14.9817   20.2036 N   0  0  0  0  0  0  0  0  0  0  0  0
  -21.7971  -12.6509   21.3767 N   0  0  0  0  0  0  0  0  0  0  0  0
  -30.0398  -15.6328   21.4670 N   0  0  0  0  0  0  0  0  0  0  0  0
  -28.7539  -20.2942   23.7851 N   0  0  0  0  0  0  0  0  0  0  0  0
  -21.2341  -29.9339   22.3431 N   0  0  0  0  0  0  0  0  0  0  0  0
  -27.0137  -32.5732   20.7103 N   0  0  0  0  0  0  0  0  0  0  0  0
  -29.4594  -19.4526   25.8678 N   0  3  0  0  0  0  0  0  0  0  0  0
  -30.1244  -32.7527   22.5431 N   0  3  0  0  0  0  0  0  0  0  0  0
  -22.6243  -14.7536   20.9855 O   0  0  0  0  0  0  0  0  0  0  0  0
  -22.7873  -28.7820   21.0458 O   0  0  0  0  0  0  0  0  0  0  0  0
  -28.4442  -22.4952   22.3382 O   0  0  0  0  0  0  0  0  0  0  0  0
  -24.2733  -32.6074   21.5456 O   0  0  0  0  0  0  0  0  0  0  0  0
  -28.6834  -30.9759   20.9051 O   0  0  0  0  0  0  0  0  0  0  0  0
  -31.8677  -14.7602   20.3361 O   0  0  0  0  0  0  0  0  0  0  0  0
  -21.4199   -7.1147   21.8702 O   0  0  0  0  0  0  0  0  0  0  0  0
  -26.9789  -24.6831   22.8664 O   0  0  0  0  0  0  0  0  0  1  0  0
  -23.6265   -3.2452   25.1201 F   0  0  0  0  0  0  0  0  0  0  0  0
  -20.2335   -6.4351   24.2730 F   0  0  0  0  0  0  0  0  0  0  0  0
  -28.4610  -17.5128   22.7703 F   0  0  0  0  0  0  0  0  0  0  0  0
  1  2  1  0  0  0  0
  1  7  2  0  0  0  0
  2  8  2  0  0  0  0
  3  6  2  0  0  0  0
  3 10  1  0  0  0  0
  4 11  2  0  0  0  0
  4 18  1  0  0  0  0
  5 12  1  0  0  0  0
  5 18  2  0  0  0  0
  6 19  1  0  0  0  0
  7 21  1  0  0  0  0
  8 23  1  0  0  0  0
  9 13  2  0  0  0  0
  9 22  1  0  0  0  0
 10 25  2  0  0  0  0
 11 26  1  0  0  0  0
 12 26  2  0  0  0  0
 13 27  1  0  0  0  0
 14 15  2  0  0  0  0
 14 28  1  0  0  0  0
 15 29  1  0  0  0  0
 16 24  1  0  0  0  0
 16 27  2  0  0  0  0
 17 29  2  0  0  0  0
 17 30  1  0  0  0  0
 18 32  1  0  0  0  0
 19 31  2  0  0  0  0
 19 34  1  0  0  0  0
 20 32  1  0  0  0  0
 20 33  2  0  0  0  0
 20 35  1  0  0  0  0
 21 23  2  0  0  0  0
 21 41  1  0  0  0  0
 22 24  2  0  0  0  0
 22 42  1  0  0  0  0
 23 50  1  0  0  0  0
 24 43  1  0  0  0  0
 25 31  1  0  0  0  0
 25 69  1  0  0  0  0
 26 81  1  0  0  0  0
 27 82  1  0  0  0  0
 28 30  2  0  0  0  0
 28 81  1  0  0  0  0
 29 83  1  0  0  0  0
 30 84  1  0  0  0  0
 31 85  1  0  0  0  0
 32 63  2  0  0  0  0
 33 64  1  0  0  0  0
 33 67  1  0  0  0  0
 34 70  1  0  0  0  0
 34 73  2  0  0  0  0
 35 68  1  0  0  0  0
 35 75  2  0  0  0  0
 36 51  1  0  0  0  0
 36 71  1  0  0  0  0
 36 76  2  0  0  0  0
 37 58  1  0  0  0  0
 37 59  1  0  0  0  0
 37 77  2  0  0  0  0
 38 60  1  0  0  0  0
 38 65  1  0  0  0  0
 38 78  2  0  0  0  0
 39 61  1  0  0  0  0
 39 72  1  0  0  0  0
 39 79  2  0  0  0  0
 40 66  1  0  0  0  0
 40 69  1  0  0  0  0
 40 80  2  0  0  0  0
 41 44  1  0  0  0  0
 42 51  1  0  0  0  0
 43 65  1  0  0  0  0
 44 46  1  0  0  0  0
 45 47  1  0  0  0  0
 45 48  1  0  0  0  0
 46 50  1  0  0  0  0
 47 52  1  0  0  0  0
 48 66  1  0  0  0  0
 49 52  1  0  0  0  0
 49 66  1  0  0  0  0
 50 71  1  0  0  0  0
 51 65  1  0  0  0  0
 52 64  1  0  0  0  0
 53 61  1  0  0  0  0
 54 62  1  0  0  0  0
 55 62  1  0  0  0  0
 56 62  1  0  0  0  0
 57 74  1  0  0  0  0
 58 70  1  0  0  0  0
 59 82  1  0  0  0  0
 60 62  1  0  0  0  0
 60 72  1  0  0  0  0
 61 74  1  0  0  0  0
 63 64  1  0  0  0  0
M  CHG  2  73   1  74   1
M  ISO  4  40 100  59 101  69 100  82 101
M  END
> <Batch ID>
0164

> <Smiles>
CNC(C)C(=O)NC(C(=O)N1Cc2cc([101O:1][101CH2:1]C(=O)CNC(=N)c3cccc([100NH:0][100C:0](=O)N4CCCC(n5nc(-c6ccc(Oc7ccc(F)cc7F)cc6)c(C(N)=O)c5N)C4)c3F)ccc2CC1C(=O)NC1CCCc2ccccc21)C(C)(C)C

> <Shape>
0.281

> <Color>
0.229

> <Negative vol penalty>
0.000

$$$$

  -OEChem-04052304023D

 89 97  0     1  0  0  0  0  0999 V2000
  -30.4933  -24.1085   14.8569 C   0  0  0  0  0  0  0  0  0  0  0  0
  -29.1464  -24.1895   15.1959 C   0  0  0  0  0  0  0  0  0  0  0  0
  -23.2037  -26.7745   25.5803 C   0  0  0  0  0  0  0  0  0  0  0  0
  -25.6649  -15.6043   19.6284 C   0  0  0  0  0  0  0  0  0  0  0  0
  -24.6962  -15.2858   21.8186 C   0  0  0  0  0  0  0  0  0  0  0  0
  -31.4688  -24.2476   15.8433 C   0  0  0  0  0  0  0  0  0  0  0  0
  -28.7743  -24.4085   16.5217 C   0  0  0  0  0  0  0  0  0  0  0  0
  -23.9604  -27.6299   18.5103 C   0  0  0  0  0  0  0  0  0  0  0  0
  -21.8175  -26.6269   25.5336 C   0  0  0  0  0  0  0  0  0  0  0  0
  -24.0305  -25.7373   25.1484 C   0  0  0  0  0  0  0  0  0  0  0  0
  -25.9212  -14.2360   19.5426 C   0  0  0  0  0  0  0  0  0  0  0  0
  -24.9525  -13.9173   21.7329 C   0  0  0  0  0  0  0  0  0  0  0  0
  -22.6895  -27.2494   18.9390 C   0  0  0  0  0  0  0  0  0  0  0  0
  -23.5765  -11.2159   20.2398 C   0  0  0  0  0  0  0  0  0  0  0  0
  -22.5603  -10.3423   20.6265 C   0  0  0  0  0  0  0  0  0  0  0  0
  -23.4484  -27.3150   21.2278 C   0  0  0  0  0  0  0  0  0  0  0  0
  -22.0847  -24.4050   24.6232 C   0  0  0  0  0  0  0  0  0  0  0  0
  -24.0050   -9.4141   22.3261 C   0  0  0  0  0  0  0  0  0  0  0  0
  -25.0524  -16.1293   20.7664 C   0  0  0  0  0  0  0  0  0  0  0  0
  -23.6247  -18.2180   20.4398 C   0  0  0  0  0  0  0  0  0  0  0  0
  -31.1086  -24.4781   17.1804 C   0  0  0  0  0  0  0  0  0  0  0  0
  -24.9895  -27.8457   19.4380 C   0  0  0  0  0  0  0  0  0  0  0  0
  -29.7459  -24.5495   17.5272 C   0  0  0  0  0  0  0  0  0  0  0  0
  -24.7308  -27.7008   20.8085 C   0  0  0  0  0  0  0  0  0  0  0  0
  -21.2580  -25.4422   25.0551 C   0  0  0  0  0  0  0  0  0  0  0  0
  -23.4710  -24.5526   24.6698 C   0  0  0  0  0  0  0  0  0  0  0  0
  -25.5650  -13.3924   20.5949 C   0  0  0  0  0  0  0  0  0  0  0  0
  -22.4341  -27.0890   20.2977 C   0  0  0  0  0  0  0  0  0  0  0  0
  -24.8071  -11.1885   20.8961 C   0  0  0  0  0  0  0  0  0  0  0  0
  -22.7745   -9.4414   21.6697 C   0  0  0  0  0  0  0  0  0  0  0  0
  -25.0213  -10.2877   21.9393 C   0  0  0  0  0  0  0  0  0  0  0  0
  -24.7879  -17.5428   20.8558 C   0  0  0  0  0  0  0  0  0  0  0  0
  -23.8671  -19.5362   20.7397 C   0  0  0  0  0  0  0  0  0  0  0  0
  -22.4318  -17.6998   19.8364 C   0  0  0  0  0  0  0  0  0  0  0  0
  -18.5417  -25.8171   21.4701 C   0  0  0  0  0  0  0  0  0  0  0  0
  -18.9991  -26.2264   22.8420 C   0  0  0  0  0  0  0  0  0  0  0  0
  -27.8235  -26.5177   19.9936 C   0  0  0  0  0  0  0  0  0  0  0  0
  -17.0272  -25.6884   19.7410 C   0  0  0  0  0  0  0  0  0  0  0  0
  -28.0971  -28.9306   22.1443 C   0  0  0  0  0  0  0  0  0  0  0  0
  -26.5443  -31.2096   24.1547 C   0  0  0  0  0  0  0  0  0  0  0  0
  -25.7053  -23.4839   24.2095 C   0  0  0  0  0  0  0  0  0  0  0  0
  -32.1977  -24.5747   18.2192 C   0  0  0  0  0  0  0  0  0  0  0  0
  -26.3477  -28.2818   18.9612 C   0  0  0  0  0  0  0  0  0  0  0  0
  -25.7959  -27.9401   21.8462 C   0  0  0  0  0  0  0  0  0  0  0  0
  -31.7276  -25.1783   19.5402 C   0  0  0  0  0  0  0  0  0  0  0  0
  -28.1307  -21.8586   22.1716 C   0  0  0  0  0  0  0  0  0  0  0  0
  -30.4104  -24.5454   19.9775 C   0  0  0  0  0  0  0  0  0  0  0  0
  -27.3816  -20.6464   21.6134 C   0  0  0  0  0  0  0  0  0  0  0  0
  -27.7235  -22.1628   23.6122 C   0  0  0  0  0  0  0  0  0  0  0  0
  -25.5295  -21.0946   23.2736 C   0  0  0  0  0  0  0  0  0  0  0  0
  -29.3030  -24.8108   18.9505 C   0  0  1  0  0  0  0  0  0  0  0  0
  -27.4588  -27.9749   19.9605 C   0  0  1  0  0  0  0  0  0  0  0  0
  -25.8586  -20.7887   21.8033 C   0  0  2  0  0  0  0  0  0  0  0  0
  -16.3927  -24.3239   19.7149 C   0  0  0  0  0  0  0  0  0  0  0  0
  -19.2607  -24.1183   25.8614 C   0  0  0  0  0  0  0  0  0  0  0  0
  -27.0316  -33.0193   25.8236 C   0  0  0  0  0  0  0  0  0  0  0  0
  -28.7340  -26.8150   24.2488 C   0  0  0  0  0  0  0  0  0  0  0  0
  -28.2722  -28.5308   26.0127 C   0  0  0  0  0  0  0  0  0  0  0  0
  -30.1344  -28.8822   24.3905 C   0  0  0  0  0  0  0  0  0  0  0  0
  -25.2383  -33.2685   22.4772 C   0  0  0  0  0  0  0  0  0  0  0  0
  -19.5103  -24.9995   20.6478 C   0  0  0  0  0  0  0  0  0  0  0  0
  -20.4264  -25.9009   19.8355 C   0  0  0  0  0  0  0  0  0  1  0  0
  -19.7538  -25.2826   25.0046 C   0  0  2  0  0  0  0  0  0  0  0  0
  -27.7433  -29.1096   23.6010 C   0  0  1  0  0  0  0  0  0  0  0  0
  -26.7768  -32.6957   24.3596 C   0  0  2  0  0  0  0  0  0  0  0  0
  -28.7012  -28.3279   24.5438 C   0  0  0  0  0  0  0  0  0  0  0  0
  -25.7014  -18.3644   21.3798 N   0  0  0  0  0  0  0  0  0  0  0  0
  -17.3645  -26.1016   21.0083 N   0  0  0  0  0  0  0  0  0  0  0  0
  -25.1124  -19.5693   21.2951 N   0  0  0  0  0  0  0  0  0  0  0  0
  -27.1094  -28.3589   21.3297 N   0  0  0  0  0  0  0  0  0  0  0  0
  -26.2680  -22.2883   23.7148 N   0  0  0  0  0  0  0  0  0  0  0  0
  -23.1345  -20.6588   20.5797 N   0  0  0  0  0  0  0  0  0  0  0  0
  -22.3481  -16.3212   19.5980 N   0  0  0  0  0  0  0  0  0  0  0  0
  -24.3111  -23.4995   24.2305 N   0  0  0  0  0  0  0  0  0  0  0  0
  -19.2865  -25.1467   23.6451 N   0  0  0  0  0  0  0  0  0  0  0  0
  -28.8020  -26.1618   19.0851 N   0  0  0  0  0  0  0  0  0  0  0  0
  -27.7126  -30.5485   23.8397 N   0  0  0  0  0  0  0  0  0  0  0  0
  -25.5890  -33.4732   23.9062 N   0  3  0  0  0  0  0  0  0  0  0  0
  -21.4753  -18.4397   19.5029 O   0  0  0  0  0  0  0  0  0  0  0  0
  -19.0738  -27.4183   23.0930 O   0  0  0  0  0  0  0  0  0  0  0  0
  -27.2599  -25.7717   20.7859 O   0  0  0  0  0  0  0  0  0  0  0  0
  -17.2530  -26.3096   18.7054 O   0  0  0  0  0  0  0  0  0  0  0  0
  -29.2061  -29.2915   21.7425 O   0  0  0  0  0  0  0  0  0  0  0  0
  -25.4376  -30.6869   24.2669 O   0  0  0  0  0  0  0  0  0  0  0  0
  -26.4081  -24.4349   24.5613 O   0  0  0  0  0  0  0  0  0  0  0  0
  -25.8148  -12.0570   20.5115 O   0  0  0  0  0  0  0  0  0  0  0  0
  -21.1947  -26.7170   20.7188 O   0  0  0  0  0  0  0  0  0  1  0  0
  -21.7979   -8.6036   22.0420 F   0  0  0  0  0  0  0  0  0  0  0  0
  -26.2009  -10.2576   22.5743 F   0  0  0  0  0  0  0  0  0  0  0  0
  1  2  1  0  0  0  0
  1  6  2  0  0  0  0
  2  7  2  0  0  0  0
  3  9  2  0  0  0  0
  3 10  1  0  0  0  0
  4 11  2  0  0  0  0
  4 19  1  0  0  0  0
  5 12  1  0  0  0  0
  5 19  2  0  0  0  0
  6 21  1  0  0  0  0
  7 23  1  0  0  0  0
  8 13  2  0  0  0  0
  8 22  1  0  0  0  0
  9 25  1  0  0  0  0
 10 26  2  0  0  0  0
 11 27  1  0  0  0  0
 12 27  2  0  0  0  0
 13 28  1  0  0  0  0
 14 15  2  0  0  0  0
 14 29  1  0  0  0  0
 15 30  1  0  0  0  0
 16 24  1  0  0  0  0
 16 28  2  0  0  0  0
 17 25  2  0  0  0  0
 17 26  1  0  0  0  0
 18 30  2  0  0  0  0
 18 31  1  0  0  0  0
 19 32  1  0  0  0  0
 20 32  1  0  0  0  0
 20 33  2  0  0  0  0
 20 34  1  0  0  0  0
 21 23  2  0  0  0  0
 21 42  1  0  0  0  0
 22 24  2  0  0  0  0
 22 43  1  0  0  0  0
 23 51  1  0  0  0  0
 24 44  1  0  0  0  0
 25 63  1  0  0  0  0
 26 74  1  0  0  0  0
 27 86  1  0  0  0  0
 28 87  1  0  0  0  0
 29 31  2  0  0  0  0
 29 86  1  0  0  0  0
 30 88  1  0  0  0  0
 31 89  1  0  0  0  0
 32 67  2  0  0  0  0
 33 69  1  0  0  0  0
 33 72  1  0  0  0  0
 34 73  1  0  0  0  0
 34 79  2  0  0  0  0
 35 36  1  0  0  0  0
 35 61  1  0  0  0  0
 35 68  2  0  0  0  0
 36 75  1  0  0  0  0
 36 80  2  0  0  0  0
 37 52  1  0  0  0  0
 37 76  1  0  0  0  0
 37 81  2  0  0  0  0
 38 54  1  0  0  0  0
 38 68  1  0  0  0  0
 38 82  2  0  0  0  0
 39 64  1  0  0  0  0
 39 70  1  0  0  0  0
 39 83  2  0  0  0  0
 40 65  1  0  0  0  0
 40 77  1  0  0  0  0
 40 84  2  0  0  0  0
 41 71  1  0  0  0  0
 41 74  1  0  0  0  0
 41 85  2  0  0  0  0
 42 45  1  0  0  0  0
 43 52  1  0  0  0  0
 44 70  1  0  0  0  0
 45 47  1  0  0  0  0
 46 48  1  0  0  0  0
 46 49  1  0  0  0  0
 47 51  1  0  0  0  0
 48 53  1  0  0  0  0
 49 71  1  0  0  0  0
 50 53  1  0  0  0  0
 50 71  1  0  0  0  0
 51 76  1  0  0  0  0
 52 70  1  0  0  0  0
 53 69  1  0  0  0  0
 55 63  1  0  0  0  0
 56 65  1  0  0  0  0
 57 66  1  0  0  0  0
 58 66  1  0  0  0  0
 59 66  1  0  0  0  0
 60 78  1  0  0  0  0
 61 62  1  0  0  0  0
 62 87  1  0  0  0  0
 63 75  1  0  0  0  0
 64 66  1  0  0  0  0
 64 77  1  0  0  0  0
 65 78  1  0  0  0  0
 67 69  1  0  0  0  0
M  CHG  1  78   1
M  ISO  4  41 100  62 101  74 100  87 101
M  END
> <Batch ID>
0164

> <Smiles>
CNC(C)C(=O)NC(C(=O)N1Cc2cc([101O:1][101CH2:1]CC(=NC(C)=O)C(=O)NC(C)c3cccc([100NH:0][100C:0](=O)N4CCCC(n5nc(-c6ccc(Oc7ccc(F)cc7F)cc6)c(C(N)=O)c5N)C4)c3)ccc2CC1C(=O)NC1CCCc2ccccc21)C(C)(C)C

> <Shape>
0.222

> <Color>
0.049

> <Negative vol penalty>
0.000

$$$$

  -OEChem-04052304023D

 90 98  0     1  0  0  0  0  0999 V2000
  -17.3095  -18.5149   25.3385 C   0  0  0  0  0  0  0  0  0  0  0  0
  -17.6426  -17.1751   25.1667 C   0  0  0  0  0  0  0  0  0  0  0  0
  -26.2493  -28.6030   20.9482 C   0  0  0  0  0  0  0  0  0  0  0  0
  -26.6469  -27.0388   22.7461 C   0  0  0  0  0  0  0  0  0  0  0  0
  -17.4521  -19.4089   24.2781 C   0  0  0  0  0  0  0  0  0  0  0  0
  -18.1174  -16.7283   23.9341 C   0  0  0  0  0  0  0  0  0  0  0  0
  -24.7508  -12.9912   22.1855 C   0  0  0  0  0  0  0  0  0  0  0  0
  -25.0005  -28.9078   21.4895 C   0  0  0  0  0  0  0  0  0  0  0  0
  -25.3980  -27.3437   23.2874 C   0  0  0  0  0  0  0  0  0  0  0  0
  -25.9615  -12.4686   21.7302 C   0  0  0  0  0  0  0  0  0  0  0  0
  -21.9166  -27.5265   21.5698 C   0  0  0  0  0  0  0  0  0  0  0  0
  -20.8315  -27.5946   20.6961 C   0  0  0  0  0  0  0  0  0  0  0  0
  -25.6178  -13.5183   19.5789 C   0  0  0  0  0  0  0  0  0  0  0  0
  -30.5757  -20.0022   21.4977 C   0  0  0  0  0  0  0  0  0  0  0  0
  -20.4698  -29.8991   21.3251 C   0  0  0  0  0  0  0  0  0  0  0  0
  -30.4382  -19.0646   19.3162 C   0  0  0  0  0  0  0  0  0  0  0  0
  -27.0725  -27.6685   21.5764 C   0  0  0  0  0  0  0  0  0  0  0  0
  -29.5883  -27.9858   21.2974 C   0  0  0  0  0  0  0  0  0  0  0  0
  -17.9380  -18.9748   23.0347 C   0  0  0  0  0  0  0  0  0  0  0  0
  -23.9755  -13.7930   21.3433 C   0  0  0  0  0  0  0  0  0  0  0  0
  -18.2652  -17.6171   22.8557 C   0  0  0  0  0  0  0  0  0  0  0  0
  -24.4102  -14.0548   20.0336 C   0  0  0  0  0  0  0  0  0  0  0  0
  -30.4723  -18.7188   22.0227 C   0  0  0  0  0  0  0  0  0  0  0  0
  -30.5591  -20.1870   20.1197 C   0  0  0  0  0  0  0  0  0  0  0  0
  -24.5748  -28.2782   22.6591 C   0  0  0  0  0  0  0  0  0  0  0  0
  -26.3938  -12.7313   20.4301 C   0  0  0  0  0  0  0  0  0  0  0  0
  -22.2783  -28.6446   22.3213 C   0  0  0  0  0  0  0  0  0  0  0  0
  -20.1081  -28.7810   20.5737 C   0  0  0  0  0  0  0  0  0  0  0  0
  -21.5549  -29.8309   22.1989 C   0  0  0  0  0  0  0  0  0  0  0  0
  -28.3625  -27.3527   21.0174 C   0  0  0  0  0  0  0  0  0  0  0  0
  -30.3550  -17.6622   21.1341 C   0  0  0  0  0  0  0  0  0  0  0  0
  -30.5036  -27.3215   20.5181 C   0  0  0  0  0  0  0  0  0  0  0  0
  -29.8740  -29.0768   22.1827 C   0  0  0  0  0  0  0  0  0  0  0  0
  -20.8567  -15.8343   20.9169 C   0  0  0  0  0  0  0  0  0  0  0  0
  -30.8110  -14.0333   21.8532 C   0  0  0  0  0  0  0  0  0  0  0  0
  -29.9741  -12.1690   20.3394 C   0  0  0  0  0  0  0  0  0  0  0  0
  -23.1243  -17.3735   19.5389 C   0  0  0  0  0  0  0  0  0  0  0  0
  -25.8189  -18.9363   19.0922 C   0  0  0  0  0  0  0  0  0  0  0  0
  -30.6604  -21.8160   18.2008 C   0  0  0  0  0  0  0  0  0  0  0  0
  -18.0302  -19.9688   21.9042 C   0  0  0  0  0  0  0  0  0  0  0  0
  -22.6352  -14.3263   21.7710 C   0  0  0  0  0  0  0  0  0  0  0  0
  -23.5267  -14.8939   19.1514 C   0  0  0  0  0  0  0  0  0  0  0  0
  -18.8944  -19.4895   20.7407 C   0  0  0  0  0  0  0  0  0  0  0  0
  -30.8578  -24.8867   16.4095 C   0  0  0  0  0  0  0  0  0  0  0  0
  -18.5412  -18.0527   20.3698 C   0  0  0  0  0  0  0  0  0  0  0  0
  -30.3576  -25.9260   17.4153 C   0  0  0  0  0  0  0  0  0  0  0  0
  -30.0967  -23.5678   16.5309 C   0  0  0  0  0  0  0  0  0  0  0  0
  -29.5571  -24.0352   18.8887 C   0  0  0  0  0  0  0  0  0  0  0  0
  -18.8070  -17.0992   21.5410 C   0  0  1  0  0  0  0  0  0  0  0  0
  -22.3271  -15.7189   21.1922 C   0  0  1  0  0  0  0  0  0  0  0  0
  -30.3375  -25.3592   18.8485 C   0  0  2  0  0  0  0  0  0  0  0  0
  -29.3029  -19.2140   24.2001 C   0  0  0  0  0  0  0  0  0  0  0  0
  -31.8128  -18.9870   24.1405 C   0  0  0  0  0  0  0  0  0  0  0  0
  -27.2630  -20.6746   18.0011 C   0  0  0  0  0  0  0  0  0  0  0  0
  -32.4484  -12.7755   20.4371 C   0  0  0  0  0  0  0  0  0  0  0  0
  -31.3232  -11.6196   22.3465 C   0  0  0  0  0  0  0  0  0  0  0  0
  -22.1601  -16.3337   16.8383 C   0  0  0  0  0  0  0  0  0  0  0  0
  -23.7543  -17.9201   15.7382 C   0  0  0  0  0  0  0  0  0  0  0  0
  -21.9027  -18.8006   17.1592 C   0  0  0  0  0  0  0  0  0  0  0  0
  -26.3834  -20.2582   21.6793 C   0  0  0  0  0  0  0  0  0  0  0  0
  -30.5363  -15.1848   20.8995 C   0  0  0  0  0  0  0  0  0  0  0  0
  -28.5997  -12.0251   20.9710 C   0  0  0  0  0  0  0  0  0  1  0  0
  -30.4899  -18.5244   23.5007 C   0  0  0  0  0  0  0  0  0  0  0  0
  -23.8685  -17.6507   18.2572 C   0  0  1  0  0  0  0  0  0  0  0  0
  -26.3629  -20.3506   19.1833 C   0  0  2  0  0  0  0  0  0  0  0  0
  -31.1368  -12.6563   21.2253 C   0  0  0  0  0  0  0  0  0  0  0  0
  -22.9307  -17.6571   17.0170 C   0  0  0  0  0  0  0  0  0  0  0  0
  -30.3354  -17.8025   19.7896 N   0  0  0  0  0  0  0  0  0  0  0  0
  -28.4845  -26.3624   20.1295 N   0  0  0  0  0  0  0  0  0  0  0  0
  -29.7979  -26.3683   19.8447 N   0  0  0  0  0  0  0  0  0  0  0  0
  -22.9897  -16.0314   19.9146 N   0  0  0  0  0  0  0  0  0  0  0  0
  -30.1238  -23.0892   17.9147 N   0  0  0  0  0  0  0  0  0  0  0  0
  -31.8353  -27.4656   20.3500 N   0  0  0  0  0  0  0  0  0  0  0  0
  -28.8169  -29.6430   22.9081 N   0  0  0  0  0  0  0  0  0  0  0  0
  -30.6629  -21.4823   19.5547 N   0  0  0  0  0  0  0  0  0  0  0  0
  -30.2513  -16.3803   21.6531 N   0  0  0  0  0  0  0  0  0  0  0  0
  -20.2221  -16.8173   21.6521 N   0  0  0  0  0  0  0  0  0  0  0  0
  -24.5906  -18.9009   18.4667 N   0  0  0  0  0  0  0  0  0  0  0  0
  -27.1521  -20.5224   20.4358 N   0  3  0  0  0  0  0  0  0  0  0  0
  -31.0297  -29.5466   22.3140 O   0  0  0  0  0  0  0  0  0  0  0  0
  -20.3351  -15.0879   20.0968 O   0  0  0  0  0  0  0  0  0  0  0  0
  -30.7685  -14.1907   23.0752 O   0  0  0  0  0  0  0  0  0  0  0  0
  -30.1419  -11.9472   19.1376 O   0  0  0  0  0  0  0  0  0  0  0  0
  -22.6688  -18.3189   20.1885 O   0  0  0  0  0  0  0  0  0  0  0  0
  -26.4248  -17.9602   19.5287 O   0  0  0  0  0  0  0  0  0  0  0  0
  -31.1113  -21.0875   17.3131 O   0  0  0  0  0  0  0  0  0  0  0  0
  -23.3563  -28.5755   23.1878 O   0  0  0  0  0  0  0  0  0  0  0  0
  -27.5789  -12.2217   19.9935 O   0  0  0  0  0  0  0  0  0  1  0  0
  -19.0671  -28.8468   19.7334 F   0  0  0  0  0  0  0  0  0  0  0  0
  -21.8984  -30.9087   22.9174 F   0  0  0  0  0  0  0  0  0  0  0  0
  1  2  1  0  0  0  0
  1  5  2  0  0  0  0
  2  6  2  0  0  0  0
  3  8  2  0  0  0  0
  3 17  1  0  0  0  0
  4  9  1  0  0  0  0
  4 17  2  0  0  0  0
  5 19  1  0  0  0  0
  6 21  1  0  0  0  0
  7 10  2  0  0  0  0
  7 20  1  0  0  0  0
  8 25  1  0  0  0  0
  9 25  2  0  0  0  0
 10 26  1  0  0  0  0
 11 12  2  0  0  0  0
 11 27  1  0  0  0  0
 12 28  1  0  0  0  0
 13 22  1  0  0  0  0
 13 26  2  0  0  0  0
 14 23  1  0  0  0  0
 14 24  2  0  0  0  0
 15 28  2  0  0  0  0
 15 29  1  0  0  0  0
 16 24  1  0  0  0  0
 16 68  2  0  0  0  0
 17 30  1  0  0  0  0
 18 30  1  0  0  0  0
 18 32  2  0  0  0  0
 18 33  1  0  0  0  0
 19 21  2  0  0  0  0
 19 40  1  0  0  0  0
 20 22  2  0  0  0  0
 20 41  1  0  0  0  0
 21 49  1  0  0  0  0
 22 42  1  0  0  0  0
 23 31  2  0  0  0  0
 23 63  1  0  0  0  0
 24 75  1  0  0  0  0
 25 87  1  0  0  0  0
 26 88  1  0  0  0  0
 27 29  2  0  0  0  0
 27 87  1  0  0  0  0
 28 89  1  0  0  0  0
 29 90  1  0  0  0  0
 30 69  2  0  0  0  0
 31 68  1  0  0  0  0
 31 76  1  0  0  0  0
 32 70  1  0  0  0  0
 32 73  1  0  0  0  0
 33 74  1  0  0  0  0
 33 80  2  0  0  0  0
 34 50  1  0  0  0  0
 34 77  1  0  0  0  0
 34 81  2  0  0  0  0
 35 61  1  0  0  0  0
 35 66  1  0  0  0  0
 35 82  2  0  0  0  0
 36 62  1  0  0  0  0
 36 66  1  0  0  0  0
 36 83  2  0  0  0  0
 37 64  1  0  0  0  0
 37 71  1  0  0  0  0
 37 84  2  0  0  0  0
 38 65  1  0  0  0  0
 38 78  1  0  0  0  0
 38 85  2  0  0  0  0
 39 72  1  0  0  0  0
 39 75  1  0  0  0  0
 39 86  2  0  0  0  0
 40 43  1  0  0  0  0
 41 50  1  0  0  0  0
 42 71  1  0  0  0  0
 43 45  1  0  0  0  0
 44 46  1  0  0  0  0
 44 47  1  0  0  0  0
 45 49  1  0  0  0  0
 46 51  1  0  0  0  0
 47 72  1  0  0  0  0
 48 51  1  0  0  0  0
 48 72  1  0  0  0  0
 49 77  1  0  0  0  0
 50 71  1  0  0  0  0
 51 70  1  0  0  0  0
 52 63  1  0  0  0  0
 53 63  1  0  0  0  0
 54 65  1  0  0  0  0
 55 66  1  0  0  0  0
 56 66  1  0  0  0  0
 57 67  1  0  0  0  0
 58 67  1  0  0  0  0
 59 67  1  0  0  0  0
 60 79  1  0  0  0  0
 61 76  1  0  0  0  0
 62 88  1  0  0  0  0
 64 67  1  0  0  0  0
 64 78  1  0  0  0  0
 65 79  1  0  0  0  0
 69 70  1  0  0  0  0
M  CHG  1  79   1
M  ISO  4  39 100  62 101  75 100  88 101
M  END
> <Batch ID>
0164

> <Smiles>
CNC(C)C(=O)NC(C(=O)N1Cc2cc([101O:1][101CH2:1]C(=O)C(C)(C)C(=O)CNc3ncc([100NH:0][100C:0](=O)N4CCCC(n5nc(-c6ccc(Oc7ccc(F)cc7F)cc6)c(C(N)=O)c5N)C4)cc3C(C)C)ccc2CC1C(=O)NC1CCCc2ccccc21)C(C)(C)C

> <Shape>
0.227

> <Color>
0.061

> <Negative vol penalty>
0.000

$$$$

  -OEChem-04052304023D

 87 96  0     1  0  0  0  0  0999 V2000
  -29.3571  -37.1236   20.8162 C   0  0  0  0  0  0  0  0  0  0  0  0
  -29.5649  -35.7820   20.5126 C   0  0  0  0  0  0  0  0  0  0  0  0
  -24.6242   -8.8572   20.8372 C   0  0  0  0  0  0  0  0  0  0  0  0
  -22.6367  -10.2305   20.8668 C   0  0  0  0  0  0  0  0  0  0  0  0
  -26.9248  -20.0022   17.8136 C   0  0  0  0  0  0  0  0  0  0  0  0
  -28.4675  -37.4781   21.8295 C   0  0  0  0  0  0  0  0  0  0  0  0
  -28.8841  -34.7939   21.2229 C   0  0  0  0  0  0  0  0  0  0  0  0
  -26.8499  -29.4403   19.0535 C   0  0  0  0  0  0  0  0  0  0  0  0
  -28.0862  -20.6912   18.1630 C   0  0  0  0  0  0  0  0  0  0  0  0
  -23.8537   -7.7354   21.1426 C   0  0  0  0  0  0  0  0  0  0  0  0
  -21.8661   -9.1087   21.1722 C   0  0  0  0  0  0  0  0  0  0  0  0
  -27.3713  -28.1483   19.1049 C   0  0  0  0  0  0  0  0  0  0  0  0
  -21.8078   -5.5980   19.5059 C   0  0  0  0  0  0  0  0  0  0  0  0
  -22.0494   -4.4294   18.7836 C   0  0  0  0  0  0  0  0  0  0  0  0
  -26.0025  -27.6791   21.0350 C   0  0  0  0  0  0  0  0  0  0  0  0
  -28.1316  -19.5382   20.2856 C   0  0  0  0  0  0  0  0  0  0  0  0
  -22.6018   -3.2765   20.8337 C   0  0  0  0  0  0  0  0  0  0  0  0
  -24.0158  -10.1048   20.6994 C   0  0  0  0  0  0  0  0  0  0  0  0
  -26.3668  -19.0812   18.7003 C   0  0  0  0  0  0  0  0  0  0  0  0
  -25.1304  -11.7539   19.1038 C   0  0  0  0  0  0  0  0  0  0  0  0
  -27.7681  -36.4943   22.5462 C   0  0  0  0  0  0  0  0  0  0  0  0
  -25.9073  -29.8656   20.0006 C   0  0  0  0  0  0  0  0  0  0  0  0
  -27.9853  -35.1355   22.2477 C   0  0  0  0  0  0  0  0  0  0  0  0
  -25.4687  -28.9761   20.9919 C   0  0  0  0  0  0  0  0  0  0  0  0
  -28.6896  -20.4592   19.3990 C   0  0  0  0  0  0  0  0  0  0  0  0
  -26.9702  -18.8492   19.9362 C   0  0  0  0  0  0  0  0  0  0  0  0
  -22.4746   -7.8611   21.3101 C   0  0  0  0  0  0  0  0  0  0  0  0
  -26.9499  -27.2684   20.0975 C   0  0  0  0  0  0  0  0  0  0  0  0
  -21.9633   -5.6058   20.8921 C   0  0  0  0  0  0  0  0  0  0  0  0
  -22.4464   -3.2687   19.4475 C   0  0  0  0  0  0  0  0  0  0  0  0
  -22.3603   -4.4451   21.5560 C   0  0  0  0  0  0  0  0  0  0  0  0
  -24.8113  -11.2642   20.3845 C   0  0  0  0  0  0  0  0  0  0  0  0
  -25.9009  -12.8653   19.3434 C   0  0  0  0  0  0  0  0  0  0  0  0
  -29.1687  -24.6022   21.0176 C   0  0  0  0  0  0  0  0  0  0  0  0
  -28.5844  -25.7978   20.8949 C   0  0  0  0  0  0  0  0  0  1  0  0
  -25.1526  -18.3784   18.3044 C   0  0  0  0  0  0  0  0  0  0  0  0
  -24.7631  -11.2492   17.8130 C   0  0  0  0  0  0  0  0  0  0  0  0
  -25.8294  -32.1348   22.2251 C   0  0  0  0  0  0  0  0  0  0  0  0
  -22.7489  -31.1705   22.5461 C   0  0  0  0  0  0  0  0  0  0  0  0
  -20.4315  -28.6963   22.1522 C   0  0  0  0  0  0  0  0  0  0  0  0
  -26.9098  -17.5875   22.1159 C   0  0  0  0  0  0  0  0  0  0  0  0
  -26.8523  -36.9242   23.6648 C   0  0  0  0  0  0  0  0  0  0  0  0
  -25.3345  -31.2538   19.9154 C   0  0  0  0  0  0  0  0  0  0  0  0
  -24.4438  -29.3772   22.0200 C   0  0  0  0  0  0  0  0  0  0  0  0
  -30.4031  -24.3147   21.8193 C   0  0  0  0  0  0  0  0  0  0  0  0
  -28.7258  -23.3521   20.3263 C   0  0  0  0  0  0  0  0  0  0  0  0
  -25.8886  -35.8303   24.1175 C   0  0  0  0  0  0  0  0  0  0  0  0
  -28.0040  -14.5547   23.6265 C   0  0  0  0  0  0  0  0  0  0  0  0
  -26.6287  -34.5090   24.3003 C   0  0  0  0  0  0  0  0  0  0  0  0
  -27.2972  -13.4685   22.8123 C   0  0  0  0  0  0  0  0  0  0  0  0
  -27.1210  -15.7869   23.8153 C   0  0  0  0  0  0  0  0  0  0  0  0
  -25.8626  -15.2649   21.7627 C   0  0  0  0  0  0  0  0  0  0  0  0
  -30.9418  -23.0351   21.1934 C   0  0  0  0  0  0  0  0  0  0  0  0
  -27.2468  -34.0356   22.9792 C   0  0  1  0  0  0  0  0  0  0  0  0
  -24.7624  -31.7465   21.2410 C   0  0  1  0  0  0  0  0  0  0  0  0
  -26.7367  -14.0298   21.4908 C   0  0  2  0  0  0  0  0  0  0  0  0
  -24.2109  -19.0934   17.3821 C   0  0  0  0  0  0  0  0  0  0  0  0
  -18.0043  -28.1907   22.5401 C   0  0  0  0  0  0  0  0  0  0  0  0
  -23.3012  -30.8170   25.5260 C   0  0  0  0  0  0  0  0  0  0  0  0
  -21.2122  -29.4458   25.6796 C   0  0  0  0  0  0  0  0  0  0  0  0
  -21.0828  -31.8397   24.9904 C   0  0  0  0  0  0  0  0  0  0  0  0
  -19.9412  -28.2621   19.2660 C   0  0  0  0  0  0  0  0  0  0  0  0
  -29.9391  -21.2004   19.7736 C   0  0  0  0  0  0  0  0  0  0  0  0
  -22.0338  -30.1366   23.3820 C   0  0  1  0  0  0  0  0  0  0  0  0
  -19.0375  -28.7082   21.5514 C   0  0  2  0  0  0  0  0  0  0  0  0
  -21.9283  -30.5525   24.8765 C   0  0  0  0  0  0  0  0  0  0  0  0
  -25.3364  -12.0038   21.3649 N   0  0  0  0  0  0  0  0  0  0  0  0
  -25.9932  -12.9695   20.7001 N   0  0  0  0  0  0  0  0  0  0  0  0
  -23.9182  -30.7470   21.8986 N   0  0  0  0  0  0  0  0  0  0  0  0
  -26.6300  -16.2653   22.5212 N   0  0  0  0  0  0  0  0  0  0  0  0
  -26.5018  -13.7539   18.5237 N   0  0  0  0  0  0  0  0  0  0  0  0
  -23.9672  -10.0975   17.7477 N   0  0  0  0  0  0  0  0  0  0  0  0
  -26.4202  -17.9193   20.8530 N   0  0  0  0  0  0  0  0  0  0  0  0
  -26.2327  -33.4528   22.1269 N   0  0  0  0  0  0  0  0  0  0  0  0
  -20.7474  -29.9060   22.7337 N   0  0  0  0  0  0  0  0  0  0  0  0
  -29.6993  -22.2840   20.7714 N   0  3  2  0  0  0  0  0  0  0  0  0
  -18.9914  -27.8522   20.3323 N   0  3  0  0  0  0  0  0  0  0  0  0
  -24.8430  -17.2462   18.6750 O   0  0  0  0  0  0  0  0  0  0  0  0
  -25.1434  -11.7939   16.7489 O   0  0  0  0  0  0  0  0  0  0  0  0
  -26.2541  -31.3007   23.0161 O   0  0  0  0  0  0  0  0  0  0  0  0
  -22.2830  -32.3098   22.4647 O   0  0  0  0  0  0  0  0  0  0  0  0
  -21.1653  -27.7111   22.1131 O   0  0  0  0  0  0  0  0  0  0  0  0
  -27.5610  -18.3594   22.8245 O   0  0  0  0  0  0  0  0  0  0  0  0
  -21.7223   -6.7666   21.6078 O   0  0  0  0  0  0  0  0  0  0  0  0
  -27.4577  -26.0070   20.1503 O   0  0  0  0  0  0  0  0  0  1  0  0
  -22.6768   -2.1462   18.7539 F   0  0  0  0  0  0  0  0  0  0  0  0
  -22.5102   -4.4462   22.8876 F   0  0  0  0  0  0  0  0  0  0  0  0
  1  2  1  0  0  0  0
  1  6  2  0  0  0  0
  2  7  2  0  0  0  0
  3 10  2  0  0  0  0
  3 18  1  0  0  0  0
  4 11  1  0  0  0  0
  4 18  2  0  0  0  0
  5  9  2  0  0  0  0
  5 19  1  0  0  0  0
  6 21  1  0  0  0  0
  7 23  1  0  0  0  0
  8 12  2  0  0  0  0
  8 22  1  0  0  0  0
  9 25  1  0  0  0  0
 10 27  1  0  0  0  0
 11 27  2  0  0  0  0
 12 28  1  0  0  0  0
 13 14  2  0  0  0  0
 13 29  1  0  0  0  0
 14 30  1  0  0  0  0
 15 24  1  0  0  0  0
 15 28  2  0  0  0  0
 16 25  2  0  0  0  0
 16 26  1  0  0  0  0
 17 30  2  0  0  0  0
 17 31  1  0  0  0  0
 18 32  1  0  0  0  0
 19 26  2  0  0  0  0
 19 36  1  0  0  0  0
 20 32  1  0  0  0  0
 20 33  2  0  0  0  0
 20 37  1  0  0  0  0
 21 23  2  0  0  0  0
 21 42  1  0  0  0  0
 22 24  2  0  0  0  0
 22 43  1  0  0  0  0
 23 54  1  0  0  0  0
 24 44  1  0  0  0  0
 25 63  1  0  0  0  0
 26 73  1  0  0  0  0
 27 84  1  0  0  0  0
 28 85  1  0  0  0  0
 29 31  2  0  0  0  0
 29 84  1  0  0  0  0
 30 86  1  0  0  0  0
 31 87  1  0  0  0  0
 32 67  2  0  0  0  0
 33 68  1  0  0  0  0
 33 71  1  0  0  0  0
 34 35  2  0  0  0  0
 34 45  1  0  0  0  0
 34 46  1  0  0  0  0
 35 85  1  0  0  0  0
 36 57  1  0  0  0  0
 36 78  2  0  0  0  0
 37 72  1  0  0  0  0
 37 79  2  0  0  0  0
 38 55  1  0  0  0  0
 38 74  1  0  0  0  0
 38 80  2  0  0  0  0
 39 64  1  0  0  0  0
 39 69  1  0  0  0  0
 39 81  2  0  0  0  0
 40 65  1  0  0  0  0
 40 75  1  0  0  0  0
 40 82  2  0  0  0  0
 41 70  1  0  0  0  0
 41 73  1  0  0  0  0
 41 83  2  0  0  0  0
 42 47  1  0  0  0  0
 43 55  1  0  0  0  0
 44 69  1  0  0  0  0
 45 53  1  0  0  0  0
 46 76  1  0  0  0  0
 47 49  1  0  0  0  0
 48 50  1  0  0  0  0
 48 51  1  0  0  0  0
 49 54  1  0  0  0  0
 50 56  1  0  0  0  0
 51 70  1  0  0  0  0
 52 56  1  0  0  0  0
 52 70  1  0  0  0  0
 53 76  1  0  0  0  0
 54 74  1  0  0  0  0
 55 69  1  0  0  0  0
 56 68  1  0  0  0  0
 58 65  1  0  0  0  0
 59 66  1  0  0  0  0
 60 66  1  0  0  0  0
 61 66  1  0  0  0  0
 62 77  1  0  0  0  0
 63 76  1  0  0  0  0
 64 66  1  0  0  0  0
 64 75  1  0  0  0  0
 65 77  1  0  0  0  0
 67 68  1  0  0  0  0
M  CHG  2  76   1  77   1
M  ISO  4  35 101  41 100  73 100  85 101
M  END
> <Batch ID>
0164

> <Smiles>
CNC(C)C(=O)NC(C(=O)N1Cc2cc([101O:1][101CH:1]=C3CCN(Cc4ccc(C(C)=O)c([100NH:0][100C:0](=O)N5CCCC(n6nc(-c7ccc(Oc8ccc(F)cc8F)cc7)c(C(N)=O)c6N)C5)c4)C3)ccc2CC1C(=O)NC1CCCc2ccccc21)C(C)(C)C

> <Shape>
0.267

> <Color>
0.098

> <Negative vol penalty>
0.000

$$$$

  -OEChem-04052304023D

 84 93  0     1  0  0  0  0  0999 V2000
  -27.3078  -20.3304   16.4554 C   0  0  0  0  0  0  0  0  0  0  0  0
  -28.0032  -20.3745   17.6595 C   0  0  0  0  0  0  0  0  0  0  0  0
  -23.6937   -9.6341   20.8734 C   0  0  0  0  0  0  0  0  0  0  0  0
  -24.3065  -10.3643   23.0934 C   0  0  0  0  0  0  0  0  0  0  0  0
  -27.3939  -21.3976   15.5624 C   0  0  0  0  0  0  0  0  0  0  0  0
  -28.7861  -21.4856   17.9708 C   0  0  0  0  0  0  0  0  0  0  0  0
  -31.2927  -16.3235   25.0860 C   0  0  0  0  0  0  0  0  0  0  0  0
  -32.5527  -17.2247   23.2320 C   0  0  0  0  0  0  0  0  0  0  0  0
  -28.1275  -23.0511   22.7416 C   0  0  0  0  0  0  0  0  0  0  0  0
  -30.8322  -15.2898   24.2706 C   0  0  0  0  0  0  0  0  0  0  0  0
  -32.0923  -16.1909   22.4166 C   0  0  0  0  0  0  0  0  0  0  0  0
  -23.1609   -8.4604   21.4065 C   0  0  0  0  0  0  0  0  0  0  0  0
  -23.7738   -9.1905   23.6265 C   0  0  0  0  0  0  0  0  0  0  0  0
  -28.7704  -22.3263   23.7441 C   0  0  0  0  0  0  0  0  0  0  0  0
  -20.7177   -7.9655   24.3881 C   0  0  0  0  0  0  0  0  0  0  0  0
  -19.9150   -8.0771   25.5234 C   0  0  0  0  0  0  0  0  0  0  0  0
  -30.5097  -23.9958   23.8275 C   0  0  0  0  0  0  0  0  0  0  0  0
  -21.4466   -6.6633   26.7452 C   0  0  0  0  0  0  0  0  0  0  0  0
  -24.2665  -10.5860   21.7169 C   0  0  0  0  0  0  0  0  0  0  0  0
  -24.1455  -13.0166   20.9518 C   0  0  0  0  0  0  0  0  0  0  0  0
  -32.1529  -17.2911   24.5667 C   0  0  0  0  0  0  0  0  0  0  0  0
  -28.1706  -22.5266   15.8672 C   0  0  0  0  0  0  0  0  0  0  0  0
  -28.6774  -24.2502   22.2661 C   0  0  0  0  0  0  0  0  0  0  0  0
  -28.8838  -22.5684   17.0805 C   0  0  0  0  0  0  0  0  0  0  0  0
  -29.8705  -24.7353   22.8207 C   0  0  0  0  0  0  0  0  0  0  0  0
  -31.2321  -15.2234   22.9359 C   0  0  0  0  0  0  0  0  0  0  0  0
  -23.2010   -8.2386   22.7831 C   0  0  0  0  0  0  0  0  0  0  0  0
  -29.9632  -22.7970   24.2852 C   0  0  0  0  0  0  0  0  0  0  0  0
  -21.8848   -7.2027   24.4314 C   0  0  0  0  0  0  0  0  0  0  0  0
  -20.2795   -7.4261   26.7020 C   0  0  0  0  0  0  0  0  0  0  0  0
  -22.2492   -6.5517   25.6099 C   0  0  0  0  0  0  0  0  0  0  0  0
  -24.8175  -11.7984   21.1667 C   0  0  0  0  0  0  0  0  0  0  0  0
  -25.1006  -13.8458   20.4163 C   0  0  0  0  0  0  0  0  0  0  0  0
  -22.7800  -13.3673   21.2129 C   0  0  0  0  0  0  0  0  0  0  0  0
  -29.7586  -25.2622   19.4535 C   0  0  0  0  0  0  0  0  0  0  0  0
  -30.0012  -28.0998   21.0065 C   0  0  0  0  0  0  0  0  0  0  0  0
  -30.3167  -29.7630   23.9697 C   0  0  0  0  0  0  0  0  0  0  0  0
  -31.0648  -13.9612   20.7622 C   0  0  0  0  0  0  0  0  0  0  0  0
  -28.2707  -23.6351   14.8495 C   0  0  0  0  0  0  0  0  0  0  0  0
  -27.9577  -25.0340   21.2030 C   0  0  0  0  0  0  0  0  0  0  0  0
  -30.4917  -26.0274   22.3592 C   0  0  0  0  0  0  0  0  0  0  0  0
  -28.8233  -24.9384   15.4208 C   0  0  0  0  0  0  0  0  0  0  0  0
  -34.6710  -19.5877   26.4356 C   0  0  0  0  0  0  0  0  0  0  0  0
  -29.1077  -13.7409   17.7960 C   0  0  0  0  0  0  0  0  0  0  0  0
  -30.0612  -24.6666   16.2698 C   0  0  0  0  0  0  0  0  0  0  0  0
  -34.1840  -18.4460   25.5458 C   0  0  0  0  0  0  0  0  0  0  0  0
  -27.7227  -13.3346   18.3048 C   0  0  0  0  0  0  0  0  0  0  0  0
  -34.1063  -20.9316   25.9832 C   0  0  0  0  0  0  0  0  0  0  0  0
  -30.2244  -13.0751   18.5980 C   0  0  0  0  0  0  0  0  0  0  0  0
  -28.7531  -12.8515   20.5613 C   0  0  0  0  0  0  0  0  0  0  0  0
  -29.7238  -23.7671   17.4650 C   0  0  1  0  0  0  0  0  0  0  0  0
  -32.6523  -18.4128   25.4515 C   0  0  1  0  0  0  0  0  0  0  0  0
  -28.8749  -25.9800   20.4341 C   0  0  1  0  0  0  0  0  0  0  0  0
  -27.5963  -13.5478   19.8260 C   0  0  2  0  0  0  0  0  0  0  0  0
  -32.5813  -20.9018   25.8953 C   0  0  1  0  0  0  0  0  0  0  0  0
  -30.5270  -32.0773   24.9171 C   0  0  0  0  0  0  0  0  0  0  0  0
  -32.9149  -28.2008   20.1065 C   0  0  0  0  0  0  0  0  0  0  0  0
  -33.3115  -29.9776   21.8252 C   0  0  0  0  0  0  0  0  0  0  0  0
  -31.7024  -30.3834   19.9627 C   0  0  0  0  0  0  0  0  0  0  0  0
  -27.8151  -29.4789   25.5253 C   0  0  0  0  0  0  0  0  0  0  0  0
  -32.0150  -22.1944   25.3257 C   0  0  0  0  0  0  0  0  0  1  0  0
  -31.0730  -28.7859   21.8185 C   0  0  1  0  0  0  0  0  0  0  0  0
  -29.5711  -30.9564   24.5394 C   0  0  2  0  0  0  0  0  0  0  0  0
  -32.2400  -29.3115   20.9358 C   0  0  0  0  0  0  0  0  0  0  0  0
  -26.1003  -11.8451   20.7978 N   0  0  0  0  0  0  0  0  0  0  0  0
  -26.2420  -13.1027   20.3455 N   0  0  0  0  0  0  0  0  0  0  0  0
  -29.7534  -26.7543   21.3132 N   0  0  0  0  0  0  0  0  0  0  0  0
  -30.0414  -13.3233   20.0297 N   0  0  0  0  0  0  0  0  0  0  0  0
  -25.0669  -15.1307   20.0037 N   0  0  0  0  0  0  0  0  0  0  0  0
  -21.9345  -12.3955   21.7652 N   0  0  0  0  0  0  0  0  0  0  0  0
  -30.7648  -14.1732   22.1074 N   0  0  0  0  0  0  0  0  0  0  0  0
  -29.0690  -24.5321   18.5044 N   0  0  0  0  0  0  0  0  0  0  0  0
  -30.3978  -29.8205   22.5944 N   0  0  0  0  0  0  0  0  0  0  0  0
  -32.1732  -19.7701   24.9961 N   0  3  0  0  0  0  0  0  0  0  0  0
  -28.8094  -30.5582   25.7568 N   0  3  0  0  0  0  0  0  0  0  0  0
  -22.3191  -14.5036   20.9487 O   0  0  0  0  0  0  0  0  0  0  0  0
  -30.9759  -25.3645   19.5498 O   0  0  0  0  0  0  0  0  0  0  0  0
  -29.4007  -28.7363   20.1370 O   0  0  0  0  0  0  0  0  0  0  0  0
  -30.7840  -28.8711   24.6745 O   0  0  0  0  0  0  0  0  0  0  0  0
  -32.1180  -14.3193   20.2288 O   0  0  0  0  0  0  0  0  0  0  0  0
  -22.6810   -7.0935   23.3036 O   0  0  0  0  0  0  0  0  0  0  0  0
  -30.5931  -22.0911   25.2633 O   0  0  0  0  0  0  0  0  0  1  0  0
  -19.5094   -7.5346   27.7925 F   0  0  0  0  0  0  0  0  0  0  0  0
  -23.3699   -5.8185   25.6579 F   0  0  0  0  0  0  0  0  0  0  0  0
  1  2  1  0  0  0  0
  1  5  2  0  0  0  0
  2  6  2  0  0  0  0
  3 12  2  0  0  0  0
  3 19  1  0  0  0  0
  4 13  1  0  0  0  0
  4 19  2  0  0  0  0
  5 22  1  0  0  0  0
  6 24  1  0  0  0  0
  7 10  2  0  0  0  0
  7 21  1  0  0  0  0
  8 11  1  0  0  0  0
  8 21  2  0  0  0  0
  9 14  2  0  0  0  0
  9 23  1  0  0  0  0
 10 26  1  0  0  0  0
 11 26  2  0  0  0  0
 12 27  1  0  0  0  0
 13 27  2  0  0  0  0
 14 28  1  0  0  0  0
 15 16  2  0  0  0  0
 15 29  1  0  0  0  0
 16 30  1  0  0  0  0
 17 25  1  0  0  0  0
 17 28  2  0  0  0  0
 18 30  2  0  0  0  0
 18 31  1  0  0  0  0
 19 32  1  0  0  0  0
 20 32  1  0  0  0  0
 20 33  2  0  0  0  0
 20 34  1  0  0  0  0
 21 52  1  0  0  0  0
 22 24  2  0  0  0  0
 22 39  1  0  0  0  0
 23 25  2  0  0  0  0
 23 40  1  0  0  0  0
 24 51  1  0  0  0  0
 25 41  1  0  0  0  0
 26 71  1  0  0  0  0
 27 81  1  0  0  0  0
 28 82  1  0  0  0  0
 29 31  2  0  0  0  0
 29 81  1  0  0  0  0
 30 83  1  0  0  0  0
 31 84  1  0  0  0  0
 32 65  2  0  0  0  0
 33 66  1  0  0  0  0
 33 69  1  0  0  0  0
 34 70  1  0  0  0  0
 34 76  2  0  0  0  0
 35 53  1  0  0  0  0
 35 72  1  0  0  0  0
 35 77  2  0  0  0  0
 36 62  1  0  0  0  0
 36 67  1  0  0  0  0
 36 78  2  0  0  0  0
 37 63  1  0  0  0  0
 37 73  1  0  0  0  0
 37 79  2  0  0  0  0
 38 68  1  0  0  0  0
 38 71  1  0  0  0  0
 38 80  2  0  0  0  0
 39 42  1  0  0  0  0
 40 53  1  0  0  0  0
 41 67  1  0  0  0  0
 42 45  1  0  0  0  0
 43 46  1  0  0  0  0
 43 48  1  0  0  0  0
 44 47  1  0  0  0  0
 44 49  1  0  0  0  0
 45 51  1  0  0  0  0
 46 52  1  0  0  0  0
 47 54  1  0  0  0  0
 48 55  1  0  0  0  0
 49 68  1  0  0  0  0
 50 54  1  0  0  0  0
 50 68  1  0  0  0  0
 51 72  1  0  0  0  0
 52 74  1  0  0  0  0
 53 67  1  0  0  0  0
 54 66  1  0  0  0  0
 55 61  1  0  0  0  0
 55 74  1  0  0  0  0
 56 63  1  0  0  0  0
 57 64  1  0  0  0  0
 58 64  1  0  0  0  0
 59 64  1  0  0  0  0
 60 75  1  0  0  0  0
 61 82  1  0  0  0  0
 62 64  1  0  0  0  0
 62 73  1  0  0  0  0
 63 75  1  0  0  0  0
 65 66  1  0  0  0  0
M  CHG  2  74   1  75   1
M  ISO  4  38 100  61 101  71 100  82 101
M  END
> <Batch ID>
0164

> <Smiles>
CNC(C)C(=O)NC(C(=O)N1Cc2cc([101O:1][101CH2:1]C3CCCC(c4ccc([100NH:0][100C:0](=O)N5CCCC(n6nc(-c7ccc(Oc8ccc(F)cc8F)cc7)c(C(N)=O)c6N)C5)cc4)N3)ccc2CC1C(=O)NC1CCCc2ccccc21)C(C)(C)C

> <Shape>
0.210

> <Color>
0.155

> <Negative vol penalty>
0.000

$$$$

  -OEChem-04052304023D

 86 94  0     1  0  0  0  0  0999 V2000
  -33.5494  -26.3247   16.8829 C   0  0  0  0  0  0  0  0  0  0  0  0
  -32.8358  -25.7191   17.9121 C   0  0  0  0  0  0  0  0  0  0  0  0
  -23.1765  -16.0350   21.2735 C   0  0  0  0  0  0  0  0  0  0  0  0
  -22.5553  -14.9300   19.2168 C   0  0  0  0  0  0  0  0  0  0  0  0
  -33.6305  -27.7150   16.8165 C   0  0  0  0  0  0  0  0  0  0  0  0
  -32.2037  -26.5035   18.8763 C   0  0  0  0  0  0  0  0  0  0  0  0
  -27.5003  -24.9228   19.8884 C   0  0  0  0  0  0  0  0  0  0  0  0
  -30.7210  -16.0927   26.3445 C   0  0  0  0  0  0  0  0  0  0  0  0
  -30.0014  -17.2806   26.2156 C   0  0  0  0  0  0  0  0  0  0  0  0
  -22.1818  -16.9894   21.0612 C   0  0  0  0  0  0  0  0  0  0  0  0
  -21.5605  -15.8844   19.0045 C   0  0  0  0  0  0  0  0  0  0  0  0
  -27.3672  -23.8097   20.7172 C   0  0  0  0  0  0  0  0  0  0  0  0
  -21.7525  -19.7622   19.1766 C   0  0  0  0  0  0  0  0  0  0  0  0
  -22.0855  -21.1010   19.3821 C   0  0  0  0  0  0  0  0  0  0  0  0
  -30.3401  -17.2261   23.8240 C   0  0  0  0  0  0  0  0  0  0  0  0
  -26.8832  -25.2628   22.5810 C   0  0  0  0  0  0  0  0  0  0  0  0
  -20.3772  -21.2649   21.0828 C   0  0  0  0  0  0  0  0  0  0  0  0
  -23.3633  -15.0052   20.3512 C   0  0  0  0  0  0  0  0  0  0  0  0
  -31.0597  -16.0382   23.9530 C   0  0  0  0  0  0  0  0  0  0  0  0
  -24.2661  -12.8001   21.2622 C   0  0  0  0  0  0  0  0  0  0  0  0
  -32.9910  -28.5171   17.7748 C   0  0  0  0  0  0  0  0  0  0  0  0
  -27.3363  -26.2170   20.4029 C   0  0  0  0  0  0  0  0  0  0  0  0
  -32.2774  -27.9058   18.8234 C   0  0  0  0  0  0  0  0  0  0  0  0
  -27.0122  -26.3906   21.7560 C   0  0  0  0  0  0  0  0  0  0  0  0
  -31.2502  -15.4715   25.2133 C   0  0  0  0  0  0  0  0  0  0  0  0
  -29.8109  -17.8473   24.9553 C   0  0  0  0  0  0  0  0  0  0  0  0
  -21.3737  -16.9142   19.9267 C   0  0  0  0  0  0  0  0  0  0  0  0
  -27.0615  -23.9796   22.0643 C   0  0  0  0  0  0  0  0  0  0  0  0
  -20.7318  -19.1747   19.9241 C   0  0  0  0  0  0  0  0  0  0  0  0
  -21.3979  -21.8524   20.3352 C   0  0  0  0  0  0  0  0  0  0  0  0
  -20.0442  -19.9260   20.8772 C   0  0  0  0  0  0  0  0  0  0  0  0
  -24.3911  -14.0193   20.5697 C   0  0  0  0  0  0  0  0  0  0  0  0
  -25.5151  -12.2336   21.1883 C   0  0  0  0  0  0  0  0  0  0  0  0
  -31.6129  -15.3975   22.7322 C   0  0  0  0  0  0  0  0  0  0  0  0
  -23.1231  -12.2305   21.9140 C   0  0  0  0  0  0  0  0  0  0  0  0
  -29.2061  -28.7719   20.6862 C   0  0  0  0  0  0  0  0  0  0  0  0
  -28.0367  -20.9438   23.7951 C   0  0  0  0  0  0  0  0  0  0  0  0
  -26.4704  -30.1765   21.7183 C   0  0  0  0  0  0  0  0  0  0  0  0
  -23.3762  -29.8166   23.1123 C   0  0  0  0  0  0  0  0  0  0  0  0
  -30.9891  -14.4550   20.5308 C   0  0  0  0  0  0  0  0  0  0  0  0
  -33.1464  -30.0148   17.6884 C   0  0  0  0  0  0  0  0  0  0  0  0
  -27.4568  -27.4062   19.4899 C   0  0  0  0  0  0  0  0  0  0  0  0
  -26.8061  -27.7579   22.3530 C   0  0  0  0  0  0  0  0  0  0  0  0
  -32.1351  -30.7820   18.5363 C   0  0  0  0  0  0  0  0  0  0  0  0
  -29.4144  -12.1121   18.4029 C   0  0  0  0  0  0  0  0  0  0  0  0
  -32.0418  -30.1769   19.9335 C   0  0  0  0  0  0  0  0  0  0  0  0
  -27.9360  -12.2104   18.7888 C   0  0  0  0  0  0  0  0  0  0  0  0
  -30.1007  -13.4771   18.4332 C   0  0  0  0  0  0  0  0  0  0  0  0
  -28.4662  -14.3247   20.0666 C   0  0  0  0  0  0  0  0  0  0  0  0
  -31.5574  -28.7232   19.8739 C   0  0  1  0  0  0  0  0  0  0  0  0
  -27.7754  -28.7000   20.2328 C   0  0  1  0  0  0  0  0  0  0  0  0
  -27.7478  -12.9667   20.1193 C   0  0  1  0  0  0  0  0  0  0  0  0
  -31.1984  -12.9754   24.9831 C   0  0  0  0  0  0  0  0  0  0  0  0
  -21.3892  -31.1497   23.8687 C   0  0  0  0  0  0  0  0  0  0  0  0
  -28.0030  -31.0423   24.2105 C   0  0  0  0  0  0  0  0  0  0  0  0
  -25.8051  -31.5079   25.3154 C   0  0  0  0  0  0  0  0  0  0  0  0
  -26.4671  -32.7798   23.2742 C   0  0  0  0  0  0  0  0  0  0  0  0
  -21.5854  -28.4569   21.1880 C   0  0  0  0  0  0  0  0  0  0  0  0
  -32.0165  -14.2000   25.3808 C   0  0  0  0  0  0  0  0  0  0  0  0
  -28.8488  -19.6861   23.5700 C   0  0  0  0  0  0  0  0  0  0  0  0
  -27.7079  -21.7429   22.5490 C   0  0  0  0  0  0  0  0  0  1  0  0
  -25.7981  -30.3513   23.0586 C   0  0  1  0  0  0  0  0  0  0  0  0
  -22.0227  -30.3808   22.7197 C   0  0  2  0  0  0  0  0  0  0  0  0
  -26.5241  -31.3945   23.9542 C   0  0  0  0  0  0  0  0  0  0  0  0
  -25.6224  -14.2166   20.0912 N   0  0  0  0  0  0  0  0  0  0  0  0
  -26.2825  -13.1138   20.4837 N   0  0  0  0  0  0  0  0  0  0  0  0
  -26.9409  -28.8896   21.4211 N   0  0  0  0  0  0  0  0  0  0  0  0
  -29.8833  -14.1233   19.7287 N   0  0  0  0  0  0  0  0  0  0  0  0
  -26.0208  -11.0734   21.6580 N   0  0  0  0  0  0  0  0  0  0  0  0
  -21.9178  -12.9455   21.8949 N   0  0  0  0  0  0  0  0  0  0  0  0
  -29.0953  -19.0293   24.8282 N   0  0  0  0  0  0  0  0  0  0  0  0
  -30.6747  -15.0293   21.7675 N   0  0  0  0  0  0  0  0  0  0  0  0
  -30.1268  -28.6755   19.6603 N   0  0  0  0  0  0  0  0  0  0  0  0
  -24.4034  -30.6732   22.7769 N   0  0  0  0  0  0  0  0  0  0  0  0
  -21.0982  -29.2810   22.3239 N   0  3  0  0  0  0  0  0  0  0  0  0
  -32.8291  -15.2671   22.6240 O   0  0  0  0  0  0  0  0  0  0  0  0
  -23.1735  -11.1280   22.5103 O   0  0  0  0  0  0  0  0  0  0  0  0
  -29.4561  -28.9063   21.8783 O   0  0  0  0  0  0  0  0  0  0  0  0
  -27.6630  -21.3038   24.9107 O   0  0  0  0  0  0  0  0  0  0  0  0
  -26.5679  -31.1445   20.9599 O   0  0  0  0  0  0  0  0  0  0  0  0
  -23.5088  -28.7269   23.6650 O   0  0  0  0  0  0  0  0  0  0  0  0
  -32.1543  -14.2250   20.1921 O   0  0  0  0  0  0  0  0  0  0  0  0
  -20.4028  -17.8452   19.7194 O   0  0  0  0  0  0  0  0  0  0  0  0
  -26.9316  -22.8949   22.8757 O   0  0  0  0  0  0  0  0  0  1  0  0
  -21.7189  -23.1376   20.5336 F   0  0  0  0  0  0  0  0  0  0  0  0
  -19.0634  -19.3668   21.5991 F   0  0  0  0  0  0  0  0  0  0  0  0
  1  2  1  0  0  0  0
  1  5  2  0  0  0  0
  2  6  2  0  0  0  0
  3 10  2  0  0  0  0
  3 18  1  0  0  0  0
  4 11  1  0  0  0  0
  4 18  2  0  0  0  0
  5 21  1  0  0  0  0
  6 23  1  0  0  0  0
  7 12  2  0  0  0  0
  7 22  1  0  0  0  0
  8  9  2  0  0  0  0
  8 25  1  0  0  0  0
  9 26  1  0  0  0  0
 10 27  1  0  0  0  0
 11 27  2  0  0  0  0
 12 28  1  0  0  0  0
 13 14  2  0  0  0  0
 13 29  1  0  0  0  0
 14 30  1  0  0  0  0
 15 19  1  0  0  0  0
 15 26  2  0  0  0  0
 16 24  1  0  0  0  0
 16 28  2  0  0  0  0
 17 30  2  0  0  0  0
 17 31  1  0  0  0  0
 18 32  1  0  0  0  0
 19 25  2  0  0  0  0
 19 34  1  0  0  0  0
 20 32  1  0  0  0  0
 20 33  2  0  0  0  0
 20 35  1  0  0  0  0
 21 23  2  0  0  0  0
 21 41  1  0  0  0  0
 22 24  2  0  0  0  0
 22 42  1  0  0  0  0
 23 50  1  0  0  0  0
 24 43  1  0  0  0  0
 25 59  1  0  0  0  0
 26 71  1  0  0  0  0
 27 83  1  0  0  0  0
 28 84  1  0  0  0  0
 29 31  2  0  0  0  0
 29 83  1  0  0  0  0
 30 85  1  0  0  0  0
 31 86  1  0  0  0  0
 32 65  2  0  0  0  0
 33 66  1  0  0  0  0
 33 69  1  0  0  0  0
 34 72  1  0  0  0  0
 34 76  2  0  0  0  0
 35 70  1  0  0  0  0
 35 77  2  0  0  0  0
 36 51  1  0  0  0  0
 36 73  1  0  0  0  0
 36 78  2  0  0  0  0
 37 60  1  0  0  0  0
 37 61  1  0  0  0  0
 37 79  2  0  0  0  0
 38 62  1  0  0  0  0
 38 67  1  0  0  0  0
 38 80  2  0  0  0  0
 39 63  1  0  0  0  0
 39 74  1  0  0  0  0
 39 81  2  0  0  0  0
 40 68  1  0  0  0  0
 40 72  1  0  0  0  0
 40 82  2  0  0  0  0
 41 44  1  0  0  0  0
 42 51  1  0  0  0  0
 43 67  1  0  0  0  0
 44 46  1  0  0  0  0
 45 47  1  0  0  0  0
 45 48  1  0  0  0  0
 46 50  1  0  0  0  0
 47 52  1  0  0  0  0
 48 68  1  0  0  0  0
 49 52  1  0  0  0  0
 49 68  1  0  0  0  0
 50 73  1  0  0  0  0
 51 67  1  0  0  0  0
 52 66  1  0  0  0  0
 53 59  1  0  0  0  0
 54 63  1  0  0  0  0
 55 64  1  0  0  0  0
 56 64  1  0  0  0  0
 57 64  1  0  0  0  0
 58 75  1  0  0  0  0
 60 71  1  0  0  0  0
 61 84  1  0  0  0  0
 62 64  1  0  0  0  0
 62 74  1  0  0  0  0
 63 75  1  0  0  0  0
 65 66  1  0  0  0  0
M  CHG  1  75   1
M  ISO  4  40 100  61 101  72 100  84 101
M  END
> <Batch ID>
0164

> <Smiles>
CCc1ccc(NCC(=O)[101CH2:1][101O:1]c2ccc3c(c2)CN(C(=O)C(NC(=O)C(C)NC)C(C)(C)C)C(C(=O)NC2CCCc4ccccc42)C3)cc1C(=O)[100NH:0][100C:0](=O)N1CCCC(n2nc(-c3ccc(Oc4ccc(F)cc4F)cc3)c(C(N)=O)c2N)C1

> <Shape>
0.220

> <Color>
0.108

> <Negative vol penalty>
0.000

$$$$

  -OEChem-04052304023D

 90 98  0     1  0  0  0  0  0999 V2000
  -30.7988  -24.2332   16.9196 C   0  0  0  0  0  0  0  0  0  0  0  0
  -29.9543  -23.8362   17.9514 C   0  0  0  0  0  0  0  0  0  0  0  0
  -23.2398  -10.4117   21.5855 C   0  0  0  0  0  0  0  0  0  0  0  0
  -24.8415   -8.6272   21.8809 C   0  0  0  0  0  0  0  0  0  0  0  0
  -31.3859  -25.4975   16.9482 C   0  0  0  0  0  0  0  0  0  0  0  0
  -29.6974  -24.7029   19.0131 C   0  0  0  0  0  0  0  0  0  0  0  0
  -24.7885  -24.8615   20.2471 C   0  0  0  0  0  0  0  0  0  0  0  0
  -22.2179   -9.4721   21.4503 C   0  0  0  0  0  0  0  0  0  0  0  0
  -23.8195   -7.6875   21.7458 C   0  0  0  0  0  0  0  0  0  0  0  0
  -24.2868  -23.8013   21.0006 C   0  0  0  0  0  0  0  0  0  0  0  0
  -21.3552   -6.3968   23.6645 C   0  0  0  0  0  0  0  0  0  0  0  0
  -21.3258   -5.3384   24.5726 C   0  0  0  0  0  0  0  0  0  0  0  0
  -27.6229  -18.2514   22.6527 C   0  0  0  0  0  0  0  0  0  0  0  0
  -24.4515  -25.1486   22.9948 C   0  0  0  0  0  0  0  0  0  0  0  0
  -27.6226  -20.2358   24.0309 C   0  0  0  0  0  0  0  0  0  0  0  0
  -21.5478   -3.7683   22.7497 C   0  0  0  0  0  0  0  0  0  0  0  0
  -24.5517   -9.9892   21.8007 C   0  0  0  0  0  0  0  0  0  0  0  0
  -28.4887  -18.8753   21.7546 C   0  0  0  0  0  0  0  0  0  0  0  0
  -28.9215  -20.1794   21.9946 C   0  0  0  0  0  0  0  0  0  0  0  0
  -26.0585  -11.5606   23.1304 C   0  0  0  0  0  0  0  0  0  0  0  0
  -31.1284  -26.3838   18.0059 C   0  0  0  0  0  0  0  0  0  0  0  0
  -25.1363  -26.0716   20.8644 C   0  0  0  0  0  0  0  0  0  0  0  0
  -30.2826  -25.9797   19.0566 C   0  0  0  0  0  0  0  0  0  0  0  0
  -24.9550  -26.2235   22.2465 C   0  0  0  0  0  0  0  0  0  0  0  0
  -27.1898  -18.9317   23.7909 C   0  0  0  0  0  0  0  0  0  0  0  0
  -28.4884  -20.8597   23.1327 C   0  0  0  0  0  0  0  0  0  0  0  0
  -22.5077   -8.1100   21.5305 C   0  0  0  0  0  0  0  0  0  0  0  0
  -24.1210  -23.9437   22.3752 C   0  0  0  0  0  0  0  0  0  0  0  0
  -21.4808   -6.1410   22.2990 C   0  0  0  0  0  0  0  0  0  0  0  0
  -21.4221   -4.0242   24.1152 C   0  0  0  0  0  0  0  0  0  0  0  0
  -21.5771   -4.8267   21.8417 C   0  0  0  0  0  0  0  0  0  0  0  0
  -25.6079  -10.9594   21.9399 C   0  0  0  0  0  0  0  0  0  0  0  0
  -27.0690  -12.4002   22.7298 C   0  0  0  0  0  0  0  0  0  0  0  0
  -28.9261  -18.1270   20.5627 C   0  0  0  0  0  0  0  0  0  0  0  0
  -29.8277  -20.8330   21.0535 C   0  0  0  0  0  0  0  0  0  0  0  0
  -25.6042  -11.3766   24.4778 C   0  0  0  0  0  0  0  0  0  0  0  0
  -27.8288  -27.7283   21.1952 C   0  0  0  0  0  0  0  0  0  0  0  0
  -25.0330  -18.4076   24.5446 C   0  0  0  0  0  0  0  0  0  0  0  0
  -24.0189  -20.6238   23.8105 C   0  0  0  0  0  0  0  0  0  0  0  0
  -25.8519  -29.9314   22.5221 C   0  0  0  0  0  0  0  0  0  0  0  0
  -22.9039  -30.5971   24.1075 C   0  0  0  0  0  0  0  0  0  0  0  0
  -28.9826  -16.2758   19.1985 C   0  0  0  0  0  0  0  0  0  0  0  0
  -31.8234  -27.7222   18.0170 C   0  0  0  0  0  0  0  0  0  0  0  0
  -25.6510  -27.2149   20.0335 C   0  0  0  0  0  0  0  0  0  0  0  0
  -25.2942  -27.5090   22.9542 C   0  0  0  0  0  0  0  0  0  0  0  0
  -31.2034  -28.7224   18.9895 C   0  0  0  0  0  0  0  0  0  0  0  0
  -29.4602  -12.8161   18.3000 C   0  0  0  0  0  0  0  0  0  0  0  0
  -30.9499  -28.0648   20.3423 C   0  0  0  0  0  0  0  0  0  0  0  0
  -28.5097  -12.0784   19.2428 C   0  0  0  0  0  0  0  0  0  0  0  0
  -28.8896  -14.1649   17.8723 C   0  0  0  0  0  0  0  0  0  0  0  0
  -27.5638  -14.3161   19.9623 C   0  0  0  0  0  0  0  0  0  0  0  0
  -29.9599  -26.9009   20.2130 C   0  0  1  0  0  0  0  0  0  0  0  0
  -26.4559  -28.2270   20.8429 C   0  0  1  0  0  0  0  0  0  0  0  0
  -28.1205  -12.9640   20.4399 C   0  0  1  0  0  0  0  0  0  0  0  0
  -24.1536  -17.7295   25.5684 C   0  0  0  0  0  0  0  0  0  0  0  0
  -32.1370  -21.8696   20.7605 C   0  0  0  0  0  0  0  0  0  0  0  0
  -21.5841  -32.4863   25.1006 C   0  0  0  0  0  0  0  0  0  0  0  0
  -27.6965  -29.9392   24.9526 C   0  0  0  0  0  0  0  0  0  0  0  0
  -25.8741  -31.0692   26.2450 C   0  0  0  0  0  0  0  0  0  0  0  0
  -26.8759  -32.1974   24.2585 C   0  0  0  0  0  0  0  0  0  0  0  0
  -20.6601  -30.1727   22.2249 C   0  0  0  0  0  0  0  0  0  0  0  0
  -31.3368  -20.6815   21.2711 C   0  0  0  0  0  0  0  0  0  0  0  0
  -24.3299  -19.1864   23.4475 C   0  0  0  0  0  0  0  0  0  0  0  0
  -23.9128  -21.5904   22.6485 C   0  0  0  0  0  0  0  0  0  1  0  0
  -25.3473  -30.2127   23.9169 C   0  0  1  0  0  0  0  0  0  0  0  0
  -21.8405  -31.6508   23.8560 C   0  0  2  0  0  0  0  0  0  0  0  0
  -26.4438  -30.8296   24.8305 C   0  0  0  0  0  0  0  0  0  0  0  0
  -26.2772  -11.3812   20.8637 N   0  0  0  0  0  0  0  0  0  0  0  0
  -26.3198  -18.3039   24.6952 N   0  0  0  0  0  0  0  0  0  0  0  0
  -28.5309  -16.9172   20.3360 N   0  0  0  0  0  0  0  0  0  0  0  0
  -27.1586  -12.2566   21.3765 N   0  0  0  0  0  0  0  0  0  0  0  0
  -25.8001  -28.5956   22.0992 N   0  0  0  0  0  0  0  0  0  0  0  0
  -28.5007  -14.9641   19.0350 N   0  0  0  0  0  0  0  0  0  0  0  0
  -28.9142  -22.1809   23.3970 N   0  0  0  0  0  0  0  0  0  0  0  0
  -27.8808  -13.2399   23.4068 N   0  0  0  0  0  0  0  0  0  0  0  0
  -24.5564  -10.4760   24.7125 N   0  0  0  0  0  0  0  0  0  0  0  0
  -28.6058  -27.3993   20.1009 N   0  0  0  0  0  0  0  0  0  0  0  0
  -24.1605  -31.0468   23.7612 N   0  0  0  0  0  0  0  0  0  0  0  0
  -20.5592  -31.0071   23.4499 N   0  3  0  0  0  0  0  0  0  0  0  0
  -29.4249  -21.5023   20.0915 O   0  0  0  0  0  0  0  0  0  0  0  0
  -26.1015  -12.0049   25.4429 O   0  0  0  0  0  0  0  0  0  0  0  0
  -28.1593  -27.6495   22.3726 O   0  0  0  0  0  0  0  0  0  0  0  0
  -23.8506  -20.9852   24.9743 O   0  0  0  0  0  0  0  0  0  0  0  0
  -26.2696  -30.8636   21.8307 O   0  0  0  0  0  0  0  0  0  0  0  0
  -22.6461  -29.4874   24.5688 O   0  0  0  0  0  0  0  0  0  0  0  0
  -29.7421  -16.7910   18.3745 O   0  0  0  0  0  0  0  0  0  0  0  0
  -21.5107   -7.1928   21.3989 O   0  0  0  0  0  0  0  0  0  0  0  0
  -23.6321  -22.9101   23.1132 O   0  0  0  0  0  0  0  0  0  1  0  0
  -21.3954   -3.0080   24.9874 F   0  0  0  0  0  0  0  0  0  0  0  0
  -21.6992   -4.5748   20.5312 F   0  0  0  0  0  0  0  0  0  0  0  0
  1  2  1  0  0  0  0
  1  5  2  0  0  0  0
  2  6  2  0  0  0  0
  3  8  2  0  0  0  0
  3 17  1  0  0  0  0
  4  9  1  0  0  0  0
  4 17  2  0  0  0  0
  5 21  1  0  0  0  0
  6 23  1  0  0  0  0
  7 10  2  0  0  0  0
  7 22  1  0  0  0  0
  8 27  1  0  0  0  0
  9 27  2  0  0  0  0
 10 28  1  0  0  0  0
 11 12  2  0  0  0  0
 11 29  1  0  0  0  0
 12 30  1  0  0  0  0
 13 18  1  0  0  0  0
 13 25  2  0  0  0  0
 14 24  1  0  0  0  0
 14 28  2  0  0  0  0
 15 25  1  0  0  0  0
 15 26  2  0  0  0  0
 16 30  2  0  0  0  0
 16 31  1  0  0  0  0
 17 32  1  0  0  0  0
 18 19  2  0  0  0  0
 18 34  1  0  0  0  0
 19 26  1  0  0  0  0
 19 35  1  0  0  0  0
 20 32  1  0  0  0  0
 20 33  2  0  0  0  0
 20 36  1  0  0  0  0
 21 23  2  0  0  0  0
 21 43  1  0  0  0  0
 22 24  2  0  0  0  0
 22 44  1  0  0  0  0
 23 52  1  0  0  0  0
 24 45  1  0  0  0  0
 25 69  1  0  0  0  0
 26 74  1  0  0  0  0
 27 87  1  0  0  0  0
 28 88  1  0  0  0  0
 29 31  2  0  0  0  0
 29 87  1  0  0  0  0
 30 89  1  0  0  0  0
 31 90  1  0  0  0  0
 32 68  2  0  0  0  0
 33 71  1  0  0  0  0
 33 75  1  0  0  0  0
 34 70  2  0  0  0  0
 35 62  1  0  0  0  0
 35 80  2  0  0  0  0
 36 76  1  0  0  0  0
 36 81  2  0  0  0  0
 37 53  1  0  0  0  0
 37 77  1  0  0  0  0
 37 82  2  0  0  0  0
 38 55  1  0  0  0  0
 38 63  1  0  0  0  0
 38 69  2  0  0  0  0
 39 63  1  0  0  0  0
 39 64  1  0  0  0  0
 39 83  2  0  0  0  0
 40 65  1  0  0  0  0
 40 72  1  0  0  0  0
 40 84  2  0  0  0  0
 41 66  1  0  0  0  0
 41 78  1  0  0  0  0
 41 85  2  0  0  0  0
 42 70  1  0  0  0  0
 42 73  1  0  0  0  0
 42 86  2  0  0  0  0
 43 46  1  0  0  0  0
 44 53  1  0  0  0  0
 45 72  1  0  0  0  0
 46 48  1  0  0  0  0
 47 49  1  0  0  0  0
 47 50  1  0  0  0  0
 48 52  1  0  0  0  0
 49 54  1  0  0  0  0
 50 73  1  0  0  0  0
 51 54  1  0  0  0  0
 51 73  1  0  0  0  0
 52 77  1  0  0  0  0
 53 72  1  0  0  0  0
 54 71  1  0  0  0  0
 56 62  1  0  0  0  0
 57 66  1  0  0  0  0
 58 67  1  0  0  0  0
 59 67  1  0  0  0  0
 60 67  1  0  0  0  0
 61 79  1  0  0  0  0
 64 88  1  0  0  0  0
 65 67  1  0  0  0  0
 65 78  1  0  0  0  0
 66 79  1  0  0  0  0
 68 71  1  0  0  0  0
M  CHG  1  79   1
M  ISO  4  42 100  64 101  70 100  88 101
M  END
> <Batch ID>
0164

> <Smiles>
CCC(=O)c1c(N)cc(NC(C)=CC(=O)[101CH2:1][101O:1]c2ccc3c(c2)CN(C(=O)C(NC(=O)C(C)NC)C(C)(C)C)C(C(=O)NC2CCCc4ccccc42)C3)cc1C=[100N:0][100C:0](=O)N1CCCC(n2nc(-c3ccc(Oc4ccc(F)cc4F)cc3)c(C(N)=O)c2N)C1

> <Shape>
0.292

> <Color>
0.084

> <Negative vol penalty>
0.000

$$$$

  -OEChem-04052304023D

 85 93  0     1  0  0  0  0  0999 V2000
  -16.9294  -30.0775   24.7356 C   0  0  0  0  0  0  0  0  0  0  0  0
  -17.9679  -29.1537   24.7957 C   0  0  0  0  0  0  0  0  0  0  0  0
  -23.2798   -9.5903   19.9806 C   0  0  0  0  0  0  0  0  0  0  0  0
  -23.8226   -9.8813   22.3168 C   0  0  0  0  0  0  0  0  0  0  0  0
  -16.9149  -31.0440   23.7308 C   0  0  0  0  0  0  0  0  0  0  0  0
  -18.9920  -29.1952   23.8502 C   0  0  0  0  0  0  0  0  0  0  0  0
  -24.9002  -27.8656   24.7618 C   0  0  0  0  0  0  0  0  0  0  0  0
  -31.6029  -17.1284   22.6119 C   0  0  0  0  0  0  0  0  0  0  0  0
  -22.5805   -8.4234   20.2885 C   0  0  0  0  0  0  0  0  0  0  0  0
  -23.1233   -8.7143   22.6247 C   0  0  0  0  0  0  0  0  0  0  0  0
  -25.6527  -26.7186   24.5133 C   0  0  0  0  0  0  0  0  0  0  0  0
  -19.9020   -7.7763   23.0291 C   0  0  0  0  0  0  0  0  0  0  0  0
  -32.0547  -18.1358   23.4642 C   0  0  0  0  0  0  0  0  0  0  0  0
  -19.0433   -7.8079   24.1278 C   0  0  0  0  0  0  0  0  0  0  0  0
  -29.3303  -17.8896   22.9166 C   0  0  0  0  0  0  0  0  0  0  0  0
  -26.3756  -27.6555   22.4112 C   0  0  0  0  0  0  0  0  0  0  0  0
  -20.3158   -6.0401   25.1733 C   0  0  0  0  0  0  0  0  0  0  0  0
  -23.9009  -10.3193   20.9948 C   0  0  0  0  0  0  0  0  0  0  0  0
  -29.7821  -18.8971   23.7690 C   0  0  0  0  0  0  0  0  0  0  0  0
  -24.1131  -12.8356   20.6330 C   0  0  0  0  0  0  0  0  0  0  0  0
  -17.9444  -31.1034   22.7783 C   0  0  0  0  0  0  0  0  0  0  0  0
  -24.8711  -28.9134   23.8303 C   0  0  0  0  0  0  0  0  0  0  0  0
  -18.9906  -30.1625   22.8309 C   0  0  0  0  0  0  0  0  0  0  0  0
  -25.6240  -28.8159   22.6514 C   0  0  0  0  0  0  0  0  0  0  0  0
  -30.2407  -17.0053   22.3380 C   0  0  0  0  0  0  0  0  0  0  0  0
  -22.5022   -7.9854   21.6105 C   0  0  0  0  0  0  0  0  0  0  0  0
  -26.3883  -26.6121   23.3366 C   0  0  0  0  0  0  0  0  0  0  0  0
  -20.9676   -6.8765   23.0024 C   0  0  0  0  0  0  0  0  0  0  0  0
  -19.2502   -6.9399   25.1999 C   0  0  0  0  0  0  0  0  0  0  0  0
  -31.1443  -19.0202   24.0428 C   0  0  0  0  0  0  0  0  0  0  0  0
  -21.1744   -6.0085   24.0745 C   0  0  0  0  0  0  0  0  0  0  0  0
  -24.6240  -11.5245   20.6774 C   0  0  0  0  0  0  0  0  0  0  0  0
  -25.1914  -13.6126   20.2866 C   0  0  0  0  0  0  0  0  0  0  0  0
  -28.8162  -19.8315   24.3809 C   0  0  0  0  0  0  0  0  0  0  0  0
  -22.7829  -13.3087   20.8827 C   0  0  0  0  0  0  0  0  0  0  0  0
  -22.6063  -30.2981   22.0818 C   0  0  0  0  0  0  0  0  0  0  0  0
  -27.9763  -23.3028   23.6774 C   0  0  0  0  0  0  0  0  0  0  0  0
  -25.0029  -32.3395   21.3000 C   0  0  0  0  0  0  0  0  0  0  0  0
  -28.3575  -32.8898   20.9994 C   0  0  0  0  0  0  0  0  0  0  0  0
  -30.5522  -15.0205   20.8181 C   0  0  0  0  0  0  0  0  0  0  0  0
  -17.8609  -32.1364   21.6826 C   0  0  0  0  0  0  0  0  0  0  0  0
  -24.0757  -30.1554   24.1255 C   0  0  0  0  0  0  0  0  0  0  0  0
  -25.6426  -29.9212   21.6285 C   0  0  0  0  0  0  0  0  0  0  0  0
  -19.1793  -32.3474   20.9426 C   0  0  0  0  0  0  0  0  0  0  0  0
  -29.7960  -12.3099   18.6368 C   0  0  0  0  0  0  0  0  0  0  0  0
  -19.8087  -31.0059   20.5803 C   0  0  0  0  0  0  0  0  0  0  0  0
  -28.3410  -11.9718   18.9696 C   0  0  0  0  0  0  0  0  0  0  0  0
  -30.5821  -12.7191   19.8812 C   0  0  0  0  0  0  0  0  0  0  0  0
  -28.5186  -13.4570   21.0066 C   0  0  0  0  0  0  0  0  0  0  0  0
  -20.1324  -30.1908   21.8382 C   0  0  1  0  0  0  0  0  0  0  0  0
  -23.7102  -30.9431   22.8711 C   0  0  1  0  0  0  0  0  0  0  0  0
  -27.6699  -13.1017   19.7749 C   0  0  2  0  0  0  0  0  0  0  0  0
  -30.0113  -34.6428   20.2999 C   0  0  0  0  0  0  0  0  0  0  0  0
  -24.3628  -31.7714   18.3713 C   0  0  0  0  0  0  0  0  0  0  0  0
  -26.5833  -32.7573   17.7670 C   0  0  0  0  0  0  0  0  0  0  0  0
  -24.8567  -34.1685   18.8851 C   0  0  0  0  0  0  0  0  0  0  0  0
  -29.5830  -32.9735   23.6920 C   0  0  0  0  0  0  0  0  0  0  0  0
  -28.0388  -22.1590   24.6555 C   0  0  0  0  0  0  0  0  0  0  0  0
  -27.0948  -24.4673   24.0827 C   0  0  0  0  0  0  0  0  0  1  0  0
  -26.0565  -32.3878   20.2199 C   0  0  1  0  0  0  0  0  0  0  0  0
  -29.2349  -34.0396   21.4602 C   0  0  2  0  0  0  0  0  0  0  0  0
  -25.4631  -32.7494   18.8290 C   0  0  0  0  0  0  0  0  0  0  0  0
  -25.9254  -11.4680   20.3825 N   0  0  0  0  0  0  0  0  0  0  0  0
  -26.2415  -12.7532   20.1495 N   0  0  0  0  0  0  0  0  0  0  0  0
  -24.8438  -31.1127   21.9599 N   0  0  0  0  0  0  0  0  0  0  0  0
  -29.8885  -13.7963   20.5908 N   0  0  0  0  0  0  0  0  0  0  0  0
  -25.3341  -14.9404   20.0888 N   0  0  0  0  0  0  0  0  0  0  0  0
  -21.7956  -12.3756   21.2276 N   0  0  0  0  0  0  0  0  0  0  0  0
  -29.7820  -15.9809   21.4731 N   0  0  0  0  0  0  0  0  0  0  0  0
  -28.9372  -21.1466   24.1267 N   0  0  0  0  0  0  0  0  0  0  0  0
  -21.3376  -30.6881   22.4664 N   0  0  0  0  0  0  0  0  0  0  0  0
  -27.0818  -33.3125   20.6909 N   0  0  0  0  0  0  0  0  0  0  0  0
  -27.8634  -19.3263   25.1646 N   0  3  0  0  0  0  0  0  0  0  0  0
  -30.2102  -33.5690   22.4841 N   0  3  0  0  0  0  0  0  0  0  0  0
  -22.4751  -14.5209   20.7864 O   0  0  0  0  0  0  0  0  0  0  0  0
  -22.8850  -29.5064   21.1889 O   0  0  0  0  0  0  0  0  0  0  0  0
  -28.5976  -23.2995   22.6156 O   0  0  0  0  0  0  0  0  0  0  0  0
  -24.3501  -33.3550   21.5539 O   0  0  0  0  0  0  0  0  0  0  0  0
  -28.7643  -31.7329   20.9174 O   0  0  0  0  0  0  0  0  0  0  0  0
  -31.7087  -15.2128   20.4341 O   0  0  0  0  0  0  0  0  0  0  0  0
  -21.8197   -6.8468   21.9112 O   0  0  0  0  0  0  0  0  0  0  0  0
  -27.1231  -25.4933   23.0912 O   0  0  0  0  0  0  0  0  0  1  0  0
  -18.4264   -6.9714   26.2556 F   0  0  0  0  0  0  0  0  0  0  0  0
  -31.5878  -19.9849   24.8608 F   0  0  0  0  0  0  0  0  0  0  0  0
  -22.1971   -5.1427   24.0551 F   0  0  0  0  0  0  0  0  0  0  0  0
  1  2  1  0  0  0  0
  1  5  2  0  0  0  0
  2  6  2  0  0  0  0
  3  9  2  0  0  0  0
  3 18  1  0  0  0  0
  4 10  1  0  0  0  0
  4 18  2  0  0  0  0
  5 21  1  0  0  0  0
  6 23  1  0  0  0  0
  7 11  2  0  0  0  0
  7 22  1  0  0  0  0
  8 13  2  0  0  0  0
  8 25  1  0  0  0  0
  9 26  1  0  0  0  0
 10 26  2  0  0  0  0
 11 27  1  0  0  0  0
 12 14  2  0  0  0  0
 12 28  1  0  0  0  0
 13 30  1  0  0  0  0
 14 29  1  0  0  0  0
 15 19  1  0  0  0  0
 15 25  2  0  0  0  0
 16 24  1  0  0  0  0
 16 27  2  0  0  0  0
 17 29  2  0  0  0  0
 17 31  1  0  0  0  0
 18 32  1  0  0  0  0
 19 30  2  0  0  0  0
 19 34  1  0  0  0  0
 20 32  1  0  0  0  0
 20 33  2  0  0  0  0
 20 35  1  0  0  0  0
 21 23  2  0  0  0  0
 21 41  1  0  0  0  0
 22 24  2  0  0  0  0
 22 42  1  0  0  0  0
 23 50  1  0  0  0  0
 24 43  1  0  0  0  0
 25 69  1  0  0  0  0
 26 81  1  0  0  0  0
 27 82  1  0  0  0  0
 28 31  2  0  0  0  0
 28 81  1  0  0  0  0
 29 83  1  0  0  0  0
 30 84  1  0  0  0  0
 31 85  1  0  0  0  0
 32 63  2  0  0  0  0
 33 64  1  0  0  0  0
 33 67  1  0  0  0  0
 34 70  1  0  0  0  0
 34 73  2  0  0  0  0
 35 68  1  0  0  0  0
 35 75  2  0  0  0  0
 36 51  1  0  0  0  0
 36 71  1  0  0  0  0
 36 76  2  0  0  0  0
 37 58  1  0  0  0  0
 37 59  1  0  0  0  0
 37 77  2  0  0  0  0
 38 60  1  0  0  0  0
 38 65  1  0  0  0  0
 38 78  2  0  0  0  0
 39 61  1  0  0  0  0
 39 72  1  0  0  0  0
 39 79  2  0  0  0  0
 40 66  1  0  0  0  0
 40 69  1  0  0  0  0
 40 80  2  0  0  0  0
 41 44  1  0  0  0  0
 42 51  1  0  0  0  0
 43 65  1  0  0  0  0
 44 46  1  0  0  0  0
 45 47  1  0  0  0  0
 45 48  1  0  0  0  0
 46 50  1  0  0  0  0
 47 52  1  0  0  0  0
 48 66  1  0  0  0  0
 49 52  1  0  0  0  0
 49 66  1  0  0  0  0
 50 71  1  0  0  0  0
 51 65  1  0  0  0  0
 52 64  1  0  0  0  0
 53 61  1  0  0  0  0
 54 62  1  0  0  0  0
 55 62  1  0  0  0  0
 56 62  1  0  0  0  0
 57 74  1  0  0  0  0
 58 70  1  0  0  0  0
 59 82  1  0  0  0  0
 60 62  1  0  0  0  0
 60 72  1  0  0  0  0
 61 74  1  0  0  0  0
 63 64  1  0  0  0  0
M  CHG  2  73   1  74   1
M  ISO  4  40 100  59 101  69 100  82 101
M  END
> <Batch ID>
0164

> <Smiles>
CNC(C)C(=O)NC(C(=O)N1Cc2cc([101O:1][101CH2:1]C(=O)CNC(=N)c3cc([100NH:0][100C:0](=O)N4CCCC(n5nc(-c6ccc(Oc7ccc(F)cc7F)cc6)c(C(N)=O)c5N)C4)ccc3F)ccc2CC1C(=O)NC1CCCc2ccccc21)C(C)(C)C

> <Shape>
0.260

> <Color>
0.183

> <Negative vol penalty>
0.000

$$$$

  -OEChem-04052304023D

 88 97  0     1  0  0  0  0  0999 V2000
  -22.0946  -23.9608   19.2854 C   0  0  0  0  0  0  0  0  0  0  0  0
  -23.3444  -23.3501   19.3063 C   0  0  0  0  0  0  0  0  0  0  0  0
  -21.6729  -27.3893   22.3519 C   0  0  0  0  0  0  0  0  0  0  0  0
  -21.6169  -27.4801   19.9382 C   0  0  0  0  0  0  0  0  0  0  0  0
  -21.0396  -23.4121   20.0134 C   0  0  0  0  0  0  0  0  0  0  0  0
  -23.5402  -22.1908   20.0560 C   0  0  0  0  0  0  0  0  0  0  0  0
  -26.1410  -18.6576   17.5268 C   0  0  0  0  0  0  0  0  0  0  0  0
  -20.3898  -26.8422   22.3611 C   0  0  0  0  0  0  0  0  0  0  0  0
  -20.3338  -26.9330   19.9474 C   0  0  0  0  0  0  0  0  0  0  0  0
  -27.5223  -18.8250   17.4383 C   0  0  0  0  0  0  0  0  0  0  0  0
  -17.2111  -27.9422   22.0292 C   0  0  0  0  0  0  0  0  0  0  0  0
  -16.2935  -28.4591   22.9437 C   0  0  0  0  0  0  0  0  0  0  0  0
  -29.7508  -22.5127   24.1203 C   0  0  0  0  0  0  0  0  0  0  0  0
  -30.5669  -23.0591   21.5165 C   0  0  0  0  0  0  0  0  0  0  0  0
  -27.8234  -17.2368   19.2289 C   0  0  0  0  0  0  0  0  0  0  0  0
  -16.0671  -26.2749   23.9512 C   0  0  0  0  0  0  0  0  0  0  0  0
  -22.2864  -27.7083   21.1404 C   0  0  0  0  0  0  0  0  0  0  0  0
  -30.6189  -21.6269   23.4641 C   0  0  0  0  0  0  0  0  0  0  0  0
  -24.0257  -29.4798   21.7271 C   0  0  0  0  0  0  0  0  0  0  0  0
  -21.2201  -22.2401   20.7647 C   0  0  0  0  0  0  0  0  0  0  0  0
  -25.5891  -17.7852   18.4759 C   0  0  0  0  0  0  0  0  0  0  0  0
  -22.4870  -21.6267   20.7958 C   0  0  0  0  0  0  0  0  0  0  0  0
  -31.0451  -21.9024   22.1545 C   0  0  0  0  0  0  0  0  0  0  0  0
  -26.4349  -17.0582   19.3257 C   0  0  0  0  0  0  0  0  0  0  0  0
  -29.2919  -23.6593   23.4733 C   0  0  0  0  0  0  0  0  0  0  0  0
  -29.6975  -23.9314   22.1711 C   0  0  0  0  0  0  0  0  0  0  0  0
  -19.7203  -26.6141   21.1589 C   0  0  0  0  0  0  0  0  0  0  0  0
  -28.3636  -18.1168   18.2914 C   0  0  0  0  0  0  0  0  0  0  0  0
  -17.5566  -26.5916   22.0756 C   0  0  0  0  0  0  0  0  0  0  0  0
  -15.7215  -27.6255   23.9047 C   0  0  0  0  0  0  0  0  0  0  0  0
  -16.9847  -25.7579   23.0366 C   0  0  0  0  0  0  0  0  0  0  0  0
  -23.6115  -28.2740   21.1303 C   0  0  0  0  0  0  0  0  0  0  0  0
  -25.3647  -29.5659   21.4340 C   0  0  0  0  0  0  0  0  0  0  0  0
  -31.0662  -20.4249   24.2178 C   0  0  0  0  0  0  0  0  0  0  0  0
  -23.2677  -30.4366   22.4793 C   0  0  0  0  0  0  0  0  0  0  0  0
  -23.6387  -18.1197   20.9634 C   0  0  0  0  0  0  0  0  0  0  0  0
  -23.7859  -14.8797   21.0185 C   0  0  0  0  0  0  0  0  0  0  0  0
  -31.1365  -19.4315   19.6963 C   0  0  0  0  0  0  0  0  0  0  0  0
  -24.5793  -11.5730   20.7306 C   0  0  0  0  0  0  0  0  0  0  0  0
  -29.5419  -25.4785   20.1890 C   0  0  0  0  0  0  0  0  0  0  0  0
  -20.0623  -21.7107   21.5733 C   0  0  0  0  0  0  0  0  0  0  0  0
  -24.0984  -17.5956   18.5406 C   0  0  0  0  0  0  0  0  0  0  0  0
  -31.9850  -20.9946   21.4094 C   0  0  0  0  0  0  0  0  0  0  0  0
  -25.8935  -16.0940   20.3482 C   0  0  0  0  0  0  0  0  0  0  0  0
  -31.4387  -19.1370   23.5033 C   0  0  0  0  0  0  0  0  0  0  0  0
  -20.2548  -20.2708   22.0423 C   0  0  0  0  0  0  0  0  0  0  0  0
  -28.5708  -28.2233   18.1395 C   0  0  0  0  0  0  0  0  0  0  0  0
  -21.6502  -20.0826   22.6292 C   0  0  0  0  0  0  0  0  0  0  0  0
  -27.2294  -28.6614   18.7320 C   0  0  0  0  0  0  0  0  0  0  0  0
  -30.7992  -18.9040   22.1394 C   0  0  0  0  0  0  0  0  0  0  0  0
  -28.7410  -26.7057   18.1821 C   0  0  0  0  0  0  0  0  0  0  0  0
  -27.1979  -26.5333   20.0948 C   0  0  0  0  0  0  0  0  0  0  0  0
  -22.7324  -20.3541   21.5772 C   0  0  1  0  0  0  0  0  0  0  0  0
  -23.6212  -17.0682   19.8903 C   0  0  1  0  0  0  0  0  0  0  0  0
  -27.0084  -28.0585   20.1332 C   0  0  2  0  0  0  0  0  0  0  0  0
  -28.3663  -24.5774   24.2044 C   0  0  0  0  0  0  0  0  0  0  0  0
  -31.5079  -17.0299   19.1912 C   0  0  0  0  0  0  0  0  0  0  0  0
  -24.1379   -9.3417   21.7908 C   0  0  0  0  0  0  0  0  0  0  0  0
  -25.6548  -15.6056   23.3186 C   0  0  0  0  0  0  0  0  0  0  0  0
  -25.9276  -13.1594   23.7768 C   0  0  0  0  0  0  0  0  0  0  0  0
  -23.6790  -14.2209   23.9770 C   0  0  0  0  0  0  0  0  0  0  0  0
  -23.3977  -10.4938   18.2410 C   0  0  0  0  0  0  0  0  0  0  0  0
  -24.6802  -13.8613   21.6834 C   0  0  1  0  0  0  0  0  0  0  0  0
  -30.4704  -18.1105   19.3946 C   0  0  2  0  0  0  0  0  0  1  0  0
  -23.7125  -10.3269   20.7132 C   0  0  2  0  0  0  0  0  0  0  0  0
  -24.9915  -14.2225   23.1633 C   0  0  0  0  0  0  0  0  0  0  0  0
  -24.6069  -27.6396   20.5051 N   0  0  0  0  0  0  0  0  0  0  0  0
  -25.6597  -28.4500   20.7074 N   0  0  0  0  0  0  0  0  0  0  0  0
  -31.3383  -19.7312   21.0499 N   0  0  0  0  0  0  0  0  0  0  0  0
  -24.4288  -15.9479   20.3769 N   0  0  0  0  0  0  0  0  0  0  0  0
  -28.5213  -26.2061   19.5412 N   0  0  0  0  0  0  0  0  0  0  0  0
  -26.3069  -30.4865   21.7293 N   0  0  0  0  0  0  0  0  0  0  0  0
  -21.9032  -30.1933   22.6874 N   0  0  0  0  0  0  0  0  0  0  0  0
  -29.2314  -25.0831   21.4897 N   0  0  0  0  0  0  0  0  0  0  0  0
  -22.8598  -19.2255   20.6804 N   0  0  0  0  0  0  0  0  0  0  0  0
  -24.0271  -12.5686   21.5085 N   0  0  0  0  0  0  0  0  0  0  0  0
  -23.8089   -9.6473   19.3905 N   0  3  0  0  0  0  0  0  0  0  0  0
  -31.1568  -20.4986   25.4437 O   0  0  0  0  0  0  0  0  0  0  0  0
  -23.7815  -31.4846   22.9389 O   0  0  0  0  0  0  0  0  0  0  0  0
  -24.3080  -17.9404   21.9741 O   0  0  0  0  0  0  0  0  0  0  0  0
  -22.5623  -14.7291   21.0604 O   0  0  0  0  0  0  0  0  0  0  0  0
  -31.4692  -20.1665   18.7632 O   0  0  0  0  0  0  0  0  0  0  0  0
  -25.6421  -11.6537   20.1186 O   0  0  0  0  0  0  0  0  0  0  0  0
  -30.6229  -25.2484   19.6409 O   0  0  0  0  0  0  0  0  0  0  0  0
  -18.4684  -26.0800   21.1675 O   0  0  0  0  0  0  0  0  0  0  0  0
  -29.7260  -18.2806   18.2068 O   0  0  0  0  0  0  0  0  0  1  0  0
  -14.8415  -28.1224   24.7839 F   0  0  0  0  0  0  0  0  0  0  0  0
  -17.3136  -24.4598   23.0869 F   0  0  0  0  0  0  0  0  0  0  0  0
  1  2  1  0  0  0  0
  1  5  2  0  0  0  0
  2  6  2  0  0  0  0
  3  8  2  0  0  0  0
  3 17  1  0  0  0  0
  4  9  1  0  0  0  0
  4 17  2  0  0  0  0
  5 20  1  0  0  0  0
  6 22  1  0  0  0  0
  7 10  2  0  0  0  0
  7 21  1  0  0  0  0
  8 27  1  0  0  0  0
  9 27  2  0  0  0  0
 10 28  1  0  0  0  0
 11 12  2  0  0  0  0
 11 29  1  0  0  0  0
 12 30  1  0  0  0  0
 13 18  1  0  0  0  0
 13 25  2  0  0  0  0
 14 23  1  0  0  0  0
 14 26  2  0  0  0  0
 15 24  1  0  0  0  0
 15 28  2  0  0  0  0
 16 30  2  0  0  0  0
 16 31  1  0  0  0  0
 17 32  1  0  0  0  0
 18 23  2  0  0  0  0
 18 34  1  0  0  0  0
 19 32  1  0  0  0  0
 19 33  2  0  0  0  0
 19 35  1  0  0  0  0
 20 22  2  0  0  0  0
 20 41  1  0  0  0  0
 21 24  2  0  0  0  0
 21 42  1  0  0  0  0
 22 53  1  0  0  0  0
 23 43  1  0  0  0  0
 24 44  1  0  0  0  0
 25 26  1  0  0  0  0
 25 56  1  0  0  0  0
 26 74  1  0  0  0  0
 27 85  1  0  0  0  0
 28 86  1  0  0  0  0
 29 31  2  0  0  0  0
 29 85  1  0  0  0  0
 30 87  1  0  0  0  0
 31 88  1  0  0  0  0
 32 67  2  0  0  0  0
 33 68  1  0  0  0  0
 33 72  1  0  0  0  0
 34 45  1  0  0  0  0
 34 78  2  0  0  0  0
 35 73  1  0  0  0  0
 35 79  2  0  0  0  0
 36 54  1  0  0  0  0
 36 75  1  0  0  0  0
 36 80  2  0  0  0  0
 37 63  1  0  0  0  0
 37 70  1  0  0  0  0
 37 81  2  0  0  0  0
 38 64  1  0  0  0  0
 38 69  1  0  0  0  0
 38 82  2  0  0  0  0
 39 65  1  0  0  0  0
 39 76  1  0  0  0  0
 39 83  2  0  0  0  0
 40 71  1  0  0  0  0
 40 74  1  0  0  0  0
 40 84  2  0  0  0  0
 41 46  1  0  0  0  0
 42 54  1  0  0  0  0
 43 69  1  0  0  0  0
 44 70  1  0  0  0  0
 45 50  1  0  0  0  0
 46 48  1  0  0  0  0
 47 49  1  0  0  0  0
 47 51  1  0  0  0  0
 48 53  1  0  0  0  0
 49 55  1  0  0  0  0
 50 69  1  0  0  0  0
 51 71  1  0  0  0  0
 52 55  1  0  0  0  0
 52 71  1  0  0  0  0
 53 75  1  0  0  0  0
 54 70  1  0  0  0  0
 55 68  1  0  0  0  0
 57 64  1  0  0  0  0
 58 65  1  0  0  0  0
 59 66  1  0  0  0  0
 60 66  1  0  0  0  0
 61 66  1  0  0  0  0
 62 77  1  0  0  0  0
 63 66  1  0  0  0  0
 63 76  1  0  0  0  0
 64 86  1  0  0  0  0
 65 77  1  0  0  0  0
 67 68  1  0  0  0  0
M  CHG  1  77   1
M  ISO  4  40 100  64 101  74 100  86 101
M  END
> <Batch ID>
0164

> <Smiles>
CNC(C)C(=O)NC(C(=O)N1Cc2cc([101O:1][101CH:1](C)C(=O)N3CCC(=O)c4cc(C)c([100NH:0][100C:0](=O)N5CCCC(n6nc(-c7ccc(Oc8ccc(F)cc8F)cc7)c(C(N)=O)c6N)C5)cc4C3)ccc2CC1C(=O)NC1CCCc2ccccc21)C(C)(C)C

> <Shape>
0.208

> <Color>
0.063

> <Negative vol penalty>
0.000

$$$$

  -OEChem-04052304023D

 88 97  0     1  0  0  0  0  0999 V2000
  -27.0824  -33.0161   18.7628 C   0  0  0  0  0  0  0  0  0  0  0  0
  -27.8485  -32.9854   19.9237 C   0  0  0  0  0  0  0  0  0  0  0  0
  -23.1227   -9.7965   19.8849 C   0  0  0  0  0  0  0  0  0  0  0  0
  -23.9220   -9.7284   22.1638 C   0  0  0  0  0  0  0  0  0  0  0  0
  -30.3037  -18.3262   24.2375 C   0  0  0  0  0  0  0  0  0  0  0  0
  -25.9357  -32.2292   18.6647 C   0  0  0  0  0  0  0  0  0  0  0  0
  -27.4676  -32.1684   20.9876 C   0  0  0  0  0  0  0  0  0  0  0  0
  -31.4714  -26.5629   24.6719 C   0  0  0  0  0  0  0  0  0  0  0  0
  -29.7298  -17.4612   23.3058 C   0  0  0  0  0  0  0  0  0  0  0  0
  -22.4212   -8.6094   20.0954 C   0  0  0  0  0  0  0  0  0  0  0  0
  -23.2205   -8.5413   22.3744 C   0  0  0  0  0  0  0  0  0  0  0  0
  -32.0219  -25.4437   25.2968 C   0  0  0  0  0  0  0  0  0  0  0  0
  -20.0310   -7.6108   22.9927 C   0  0  0  0  0  0  0  0  0  0  0  0
  -19.2964   -7.4945   24.1727 C   0  0  0  0  0  0  0  0  0  0  0  0
  -29.8042  -24.5903   25.7459 C   0  0  0  0  0  0  0  0  0  0  0  0
  -31.9301  -16.7150   22.6432 C   0  0  0  0  0  0  0  0  0  0  0  0
  -20.6129   -5.5691   24.8025 C   0  0  0  0  0  0  0  0  0  0  0  0
  -23.8731  -10.3560   20.9191 C   0  0  0  0  0  0  0  0  0  0  0  0
  -31.6909  -18.3856   24.3720 C   0  0  0  0  0  0  0  0  0  0  0  0
  -24.1304  -12.8939   20.9056 C   0  0  0  0  0  0  0  0  0  0  0  0
  -25.5459  -31.3949   19.7242 C   0  0  0  0  0  0  0  0  0  0  0  0
  -30.0837  -26.6926   24.5679 C   0  0  0  0  0  0  0  0  0  0  0  0
  -26.3139  -31.3706   20.9041 C   0  0  0  0  0  0  0  0  0  0  0  0
  -29.2473  -25.7031   25.1100 C   0  0  0  0  0  0  0  0  0  0  0  0
  -32.5040  -17.5800   23.5749 C   0  0  0  0  0  0  0  0  0  0  0  0
  -30.5429  -16.6556   22.5087 C   0  0  0  0  0  0  0  0  0  0  0  0
  -22.4701   -7.9818   21.3401 C   0  0  0  0  0  0  0  0  0  0  0  0
  -31.1904  -24.4600   25.8327 C   0  0  0  0  0  0  0  0  0  0  0  0
  -21.0566   -6.7062   22.7176 C   0  0  0  0  0  0  0  0  0  0  0  0
  -19.5873   -6.4737   25.0776 C   0  0  0  0  0  0  0  0  0  0  0  0
  -21.3475   -5.6854   23.6225 C   0  0  0  0  0  0  0  0  0  0  0  0
  -24.5984  -11.5819   20.7020 C   0  0  0  0  0  0  0  0  0  0  0  0
  -25.1911  -13.6945   20.5584 C   0  0  0  0  0  0  0  0  0  0  0  0
  -32.5866  -20.5797   25.0574 C   0  0  0  0  0  0  0  0  0  0  0  0
  -32.2694  -19.3135   25.3704 C   0  0  0  0  0  0  0  0  0  0  0  0
  -33.0764  -21.4370   26.1693 C   0  0  0  0  0  0  0  0  0  0  0  0
  -22.8514  -13.3483   21.3673 C   0  0  0  0  0  0  0  0  0  0  0  0
  -27.1859  -28.7390   23.3468 C   0  0  0  0  0  0  0  0  0  0  0  0
  -26.4930  -25.8003   22.8043 C   0  0  0  0  0  0  0  0  0  0  0  0
  -26.2951  -22.4914   21.9982 C   0  0  0  0  0  0  0  0  0  0  0  0
  -30.6226  -14.9128   20.6914 C   0  0  0  0  0  0  0  0  0  0  0  0
  -24.2725  -30.5980   19.5900 C   0  0  0  0  0  0  0  0  0  0  0  0
  -29.4460  -27.9112   23.9577 C   0  0  0  0  0  0  0  0  0  0  0  0
  -27.7598  -25.9017   25.0055 C   0  0  0  0  0  0  0  0  0  0  0  0
  -32.4818  -18.8240   26.7791 C   0  0  0  0  0  0  0  0  0  0  0  0
  -24.1442  -29.4770   20.6182 C   0  0  0  0  0  0  0  0  0  0  0  0
  -29.5460  -12.5692   18.2367 C   0  0  0  0  0  0  0  0  0  0  0  0
  -24.4952  -29.9881   22.0119 C   0  0  0  0  0  0  0  0  0  0  0  0
  -28.1243  -12.2113   18.6760 C   0  0  0  0  0  0  0  0  0  0  0  0
  -33.6507  -19.5544   27.4363 C   0  0  0  0  0  0  0  0  0  0  0  0
  -30.4741  -12.7755   19.4325 C   0  0  0  0  0  0  0  0  0  0  0  0
  -28.5690  -13.3750   20.8749 C   0  0  0  0  0  0  0  0  0  0  0  0
  -25.9470  -30.4785   22.0702 C   0  0  1  0  0  0  0  0  0  0  0  0
  -28.1454  -27.5951   23.1977 C   0  0  1  0  0  0  0  0  0  0  0  0
  -27.5819  -13.2211   19.7064 C   0  0  2  0  0  0  0  0  0  0  0  0
  -24.7786  -20.8178   20.9043 C   0  0  0  0  0  0  0  0  0  0  0  0
  -24.7276  -25.7796   25.2916 C   0  0  0  0  0  0  0  0  0  0  0  0
  -23.8770  -23.5341   24.5827 C   0  0  0  0  0  0  0  0  0  0  0  0
  -23.4914  -25.5268   23.1324 C   0  0  0  0  0  0  0  0  0  0  0  0
  -28.2980  -21.8679   19.9105 C   0  0  0  0  0  0  0  0  0  0  0  0
  -33.0064  -22.9293   25.9616 C   0  0  0  0  0  0  0  0  0  1  0  0
  -25.8162  -24.5477   23.3008 C   0  0  1  0  0  0  0  0  0  0  0  0
  -25.9303  -21.7902   20.7022 C   0  0  2  0  0  0  0  0  0  0  0  0
  -33.9939  -17.6169   23.6921 C   0  0  0  0  0  0  0  0  0  0  0  0
  -24.5059  -24.8514   24.0807 C   0  0  0  0  0  0  0  0  0  0  0  0
  -25.8582  -11.5466   20.2597 N   0  0  0  0  0  0  0  0  0  0  0  0
  -33.5532  -21.0099   27.2896 N   0  0  0  0  0  0  0  0  0  0  0  0
  -26.1908  -12.8464   20.1823 N   0  0  0  0  0  0  0  0  0  0  0  0
  -27.4132  -26.4068   23.6678 N   0  0  0  0  0  0  0  0  0  0  0  0
  -29.8973  -13.7478   20.3635 N   0  0  0  0  0  0  0  0  0  0  0  0
  -25.3567  -15.0342   20.5411 N   0  0  0  0  0  0  0  0  0  0  0  0
  -21.8756  -12.3921   21.6802 N   0  0  0  0  0  0  0  0  0  0  0  0
  -29.9599  -15.7791   21.5603 N   0  0  0  0  0  0  0  0  0  0  0  0
  -26.8566  -29.3561   22.1551 N   0  0  0  0  0  0  0  0  0  0  0  0
  -25.6321  -23.6929   22.1331 N   0  0  0  0  0  0  0  0  0  0  0  0
  -27.1001  -21.0307   20.1772 N   0  3  0  0  0  0  0  0  0  0  0  0
  -22.5762  -14.5667   21.4829 O   0  0  0  0  0  0  0  0  0  0  0  0
  -26.7726  -29.0396   24.4606 O   0  0  0  0  0  0  0  0  0  0  0  0
  -26.2110  -26.2345   21.6839 O   0  0  0  0  0  0  0  0  0  0  0  0
  -27.0861  -22.0188   22.8116 O   0  0  0  0  0  0  0  0  0  0  0  0
  -31.7372  -15.1393   20.2137 O   0  0  0  0  0  0  0  0  0  0  0  0
  -21.7855   -6.8235   21.5460 O   0  0  0  0  0  0  0  0  0  0  0  0
  -31.7345  -23.3678   26.4374 O   0  0  0  0  0  0  0  0  0  1  0  0
  -18.8828   -6.3631   26.2115 F   0  0  0  0  0  0  0  0  0  0  0  0
  -22.3324   -4.8141   23.3642 F   0  0  0  0  0  0  0  0  0  0  0  0
  -34.6281  -16.7637   22.8365 F   0  0  0  0  0  0  0  0  0  0  0  0
  -34.5287  -18.8457   23.4358 F   0  0  0  0  0  0  0  0  0  0  0  0
  -34.4275  -17.2784   24.9397 F   0  0  0  0  0  0  0  0  0  0  0  0
  1  2  1  0  0  0  0
  1  6  2  0  0  0  0
  2  7  2  0  0  0  0
  3 10  2  0  0  0  0
  3 18  1  0  0  0  0
  4 11  1  0  0  0  0
  4 18  2  0  0  0  0
  5  9  2  0  0  0  0
  5 19  1  0  0  0  0
  6 21  1  0  0  0  0
  7 23  1  0  0  0  0
  8 12  2  0  0  0  0
  8 22  1  0  0  0  0
  9 26  1  0  0  0  0
 10 27  1  0  0  0  0
 11 27  2  0  0  0  0
 12 28  1  0  0  0  0
 13 14  2  0  0  0  0
 13 29  1  0  0  0  0
 14 30  1  0  0  0  0
 15 24  1  0  0  0  0
 15 28  2  0  0  0  0
 16 25  1  0  0  0  0
 16 26  2  0  0  0  0
 17 30  2  0  0  0  0
 17 31  1  0  0  0  0
 18 32  1  0  0  0  0
 19 25  2  0  0  0  0
 19 35  1  0  0  0  0
 20 32  1  0  0  0  0
 20 33  2  0  0  0  0
 20 37  1  0  0  0  0
 21 23  2  0  0  0  0
 21 42  1  0  0  0  0
 22 24  2  0  0  0  0
 22 43  1  0  0  0  0
 23 53  1  0  0  0  0
 24 44  1  0  0  0  0
 25 64  1  0  0  0  0
 26 73  1  0  0  0  0
 27 82  1  0  0  0  0
 28 83  1  0  0  0  0
 29 31  2  0  0  0  0
 29 82  1  0  0  0  0
 30 84  1  0  0  0  0
 31 85  1  0  0  0  0
 32 66  2  0  0  0  0
 33 68  1  0  0  0  0
 33 71  1  0  0  0  0
 34 35  2  0  0  0  0
 34 36  1  0  0  0  0
 35 45  1  0  0  0  0
 36 61  1  0  0  0  0
 36 67  2  0  0  0  0
 37 72  1  0  0  0  0
 37 77  2  0  0  0  0
 38 54  1  0  0  0  0
 38 74  1  0  0  0  0
 38 78  2  0  0  0  0
 39 62  1  0  0  0  0
 39 69  1  0  0  0  0
 39 79  2  0  0  0  0
 40 63  1  0  0  0  0
 40 75  1  0  0  0  0
 40 80  2  0  0  0  0
 41 70  1  0  0  0  0
 41 73  1  0  0  0  0
 41 81  2  0  0  0  0
 42 46  1  0  0  0  0
 43 54  1  0  0  0  0
 44 69  1  0  0  0  0
 45 50  1  0  0  0  0
 46 48  1  0  0  0  0
 47 49  1  0  0  0  0
 47 51  1  0  0  0  0
 48 53  1  0  0  0  0
 49 55  1  0  0  0  0
 50 67  1  0  0  0  0
 51 70  1  0  0  0  0
 52 55  1  0  0  0  0
 52 70  1  0  0  0  0
 53 74  1  0  0  0  0
 54 69  1  0  0  0  0
 55 68  1  0  0  0  0
 56 63  1  0  0  0  0
 57 65  1  0  0  0  0
 58 65  1  0  0  0  0
 59 65  1  0  0  0  0
 60 76  1  0  0  0  0
 61 83  1  0  0  0  0
 62 65  1  0  0  0  0
 62 75  1  0  0  0  0
 63 76  1  0  0  0  0
 64 86  1  0  0  0  0
 64 87  1  0  0  0  0
 64 88  1  0  0  0  0
 66 68  1  0  0  0  0
M  CHG  1  76   1
M  ISO  4  41 100  61 101  73 100  83 101
M  END
> <Batch ID>
0164

> <Smiles>
CNC(C)C(=O)NC(C(=O)N1Cc2cc([101O:1][101CH2:1]C3=NCCC(c4ccc([100NH:0][100C:0](=O)N5CCCC(n6nc(-c7ccc(Oc8ccc(F)cc8F)cc7)c(C(N)=O)c6N)C5)cc4C(F)(F)F)=C3)ccc2CC1C(=O)NC1CCCc2ccccc21)C(C)(C)C

> <Shape>
0.230

> <Color>
0.202

> <Negative vol penalty>
0.000

$$$$

  -OEChem-04052304023D

 92101  0     1  0  0  0  0  0999 V2000
  -20.0038  -12.1373   19.2341 C   0  0  0  0  0  0  0  0  0  0  0  0
  -20.4240  -13.4051   18.8448 C   0  0  0  0  0  0  0  0  0  0  0  0
  -18.3268  -21.0092   20.5748 C   0  0  0  0  0  0  0  0  0  0  0  0
  -20.5778  -20.8041   19.7215 C   0  0  0  0  0  0  0  0  0  0  0  0
  -20.7171  -11.4353   20.2047 C   0  0  0  0  0  0  0  0  0  0  0  0
  -21.5572  -13.9721   19.4269 C   0  0  0  0  0  0  0  0  0  0  0  0
  -26.3071  -29.4273   20.2146 C   0  0  0  0  0  0  0  0  0  0  0  0
  -27.0370  -18.3239   17.8937 C   0  0  0  0  0  0  0  0  0  0  0  0
  -25.2435  -28.9540   20.9829 C   0  0  0  0  0  0  0  0  0  0  0  0
  -17.8384  -20.3555   19.4436 C   0  0  0  0  0  0  0  0  0  0  0  0
  -20.0894  -20.1503   18.5902 C   0  0  0  0  0  0  0  0  0  0  0  0
  -27.6677  -19.4713   18.3725 C   0  0  0  0  0  0  0  0  0  0  0  0
  -16.0341  -18.4203   16.9507 C   0  0  0  0  0  0  0  0  0  0  0  0
  -15.0767  -17.4238   17.1403 C   0  0  0  0  0  0  0  0  0  0  0  0
  -28.8667  -18.1331   19.9821 C   0  0  0  0  0  0  0  0  0  0  0  0
  -26.0847  -26.7003   20.7591 C   0  0  0  0  0  0  0  0  0  0  0  0
  -16.6396  -16.1812   18.5008 C   0  0  0  0  0  0  0  0  0  0  0  0
  -19.6965  -21.2336   20.7137 C   0  0  0  0  0  0  0  0  0  0  0  0
  -20.6081  -21.3216   23.0947 C   0  0  0  0  0  0  0  0  0  0  0  0
  -21.8652  -11.9899   20.7920 C   0  0  0  0  0  0  0  0  0  0  0  0
  -27.3087  -17.0718   18.4637 C   0  0  0  0  0  0  0  0  0  0  0  0
  -22.2858  -13.2773   20.4072 C   0  0  0  0  0  0  0  0  0  0  0  0
  -27.2595  -28.5370   19.7184 C   0  0  0  0  0  0  0  0  0  0  0  0
  -28.2400  -16.9710   19.5070 C   0  0  0  0  0  0  0  0  0  0  0  0
  -25.1323  -27.5905   21.2552 C   0  0  0  0  0  0  0  0  0  0  0  0
  -27.1483  -27.1735   19.9907 C   0  0  0  0  0  0  0  0  0  0  0  0
  -18.7196  -19.9260   18.4513 C   0  0  0  0  0  0  0  0  0  0  0  0
  -28.5806  -19.3764   19.4188 C   0  0  0  0  0  0  0  0  0  0  0  0
  -17.2943  -18.2973   17.5360 C   0  0  0  0  0  0  0  0  0  0  0  0
  -15.3794  -16.3042   17.9153 C   0  0  0  0  0  0  0  0  0  0  0  0
  -17.5970  -17.1778   18.3111 C   0  0  0  0  0  0  0  0  0  0  0  0
  -20.2017  -21.9093   21.8818 C   0  0  0  0  0  0  0  0  0  0  0  0
  -21.0014  -22.3813   23.8749 C   0  0  0  0  0  0  0  0  0  0  0  0
  -20.6284  -19.9411   23.4815 C   0  0  0  0  0  0  0  0  0  0  0  0
  -25.5874  -14.8857   20.0006 C   0  0  0  0  0  0  0  0  0  0  0  0
  -29.6511  -22.8702   19.8779 C   0  0  0  0  0  0  0  0  0  0  0  0
  -28.3270  -13.1593   19.8102 C   0  0  0  0  0  0  0  0  0  0  0  0
  -31.7242  -13.1424   19.4851 C   0  0  0  0  0  0  0  0  0  0  0  0
  -23.0208  -27.8593   22.6027 C   0  0  0  0  0  0  0  0  0  0  0  0
  -22.5764  -11.2125   21.8711 C   0  0  0  0  0  0  0  0  0  0  0  0
  -26.6399  -15.8400   17.9179 C   0  0  0  0  0  0  0  0  0  0  0  0
  -28.5818  -15.6476   20.1398 C   0  0  0  0  0  0  0  0  0  0  0  0
  -23.9817  -11.7293   22.1686 C   0  0  0  0  0  0  0  0  0  0  0  0
  -28.8903  -30.3494   16.7566 C   0  0  0  0  0  0  0  0  0  0  0  0
  -29.7074  -31.3635   17.5465 C   0  0  0  0  0  0  0  0  0  0  0  0
  -20.1578  -27.0458   24.5567 C   0  0  0  0  0  0  0  0  0  0  0  0
  -27.8069  -29.7148   17.6226 C   0  0  0  0  0  0  0  0  0  0  0  0
  -23.9744  -13.2487   22.3029 C   0  0  0  0  0  0  0  0  0  0  0  0
  -30.3124  -30.7370   18.7983 C   0  0  0  0  0  0  0  0  0  0  0  0
  -19.8847  -25.5810   24.2075 C   0  0  0  0  0  0  0  0  0  0  0  0
  -20.6495  -27.8356   23.3450 C   0  0  0  0  0  0  0  0  0  0  0  0
  -21.5295  -25.7858   22.2996 C   0  0  0  0  0  0  0  0  0  0  0  0
  -28.3885  -29.0713   18.8986 C   0  0  1  0  0  0  0  0  0  0  0  0
  -23.5244  -13.9158   20.9975 C   0  0  1  0  0  0  0  0  0  0  0  0
  -26.6073  -14.6862   18.9154 C   0  0  1  0  0  0  0  0  0  0  0  0
  -29.2440  -30.0924   19.6995 C   0  0  1  0  0  0  0  0  0  0  0  0
  -21.0940  -24.9347   23.5037 C   0  0  2  0  0  0  0  0  0  0  0  0
  -29.9263  -29.4434   20.9094 C   0  0  0  0  0  0  0  0  0  0  0  0
  -33.6874  -11.5816   19.4017 C   0  0  0  0  0  0  0  0  0  0  0  0
  -28.1493  -12.7782   22.8323 C   0  0  0  0  0  0  0  0  0  0  0  0
  -30.5500  -12.0676   22.8137 C   0  0  0  0  0  0  0  0  0  0  0  0
  -28.8484  -10.7398   21.5631 C   0  0  0  0  0  0  0  0  0  0  0  0
  -32.4527  -14.0188   16.7538 C   0  0  0  0  0  0  0  0  0  0  0  0
  -28.8617  -21.7328   19.2630 C   0  0  0  0  0  0  0  0  0  1  0  0
  -28.2915  -24.9567   20.0559 C   0  0  0  0  0  0  0  0  0  0  0  0
  -29.5529  -13.0004   20.6767 C   0  0  1  0  0  0  0  0  0  0  0  0
  -32.6464  -12.3356   18.5890 C   0  0  2  0  0  0  0  0  0  0  0  0
  -29.4159  -24.2542   19.3110 C   0  0  0  0  0  0  0  0  0  0  0  0
  -29.2675  -12.1718   21.9610 C   0  0  0  0  0  0  0  0  0  0  0  0
  -20.3251  -23.2393   21.8864 N   0  0  0  0  0  0  0  0  0  0  0  0
  -20.8136  -23.4960   23.1118 N   0  0  0  0  0  0  0  0  0  0  0  0
  -27.8969  -14.4730   19.5754 N   0  0  0  0  0  0  0  0  0  0  0  0
  -21.7988  -27.1660   22.7324 N   0  0  0  0  0  0  0  0  0  0  0  0
  -21.4860  -22.4591   25.1325 N   0  0  0  0  0  0  0  0  0  0  0  0
  -20.1902  -18.9820   22.5582 N   0  0  0  0  0  0  0  0  0  0  0  0
  -24.0513  -27.1104   22.0353 N   0  0  0  0  0  0  0  0  0  0  0  0
  -28.0849  -26.2756   19.5049 N   0  0  0  0  0  0  0  0  0  0  0  0
  -24.6028  -13.9167   20.0324 N   0  0  0  0  0  0  0  0  0  0  0  0
  -30.5887  -12.4350   19.8188 N   0  0  0  0  0  0  0  0  0  0  0  0
  -33.3556  -13.2328   17.6335 N   0  3  0  0  0  0  0  0  0  0  0  0
  -21.0081  -19.5705   24.6182 O   0  0  0  0  0  0  0  0  0  0  0  0
  -25.6873  -15.8469   20.7542 O   0  0  0  0  0  0  0  0  0  0  0  0
  -30.4322  -22.6939   20.8128 O   0  0  0  0  0  0  0  0  0  0  0  0
  -27.7757  -12.1552   19.3524 O   0  0  0  0  0  0  0  0  0  0  0  0
  -31.9868  -14.2846   19.8554 O   0  0  0  0  0  0  0  0  0  0  0  0
  -23.1517  -29.0223   22.9930 O   0  0  0  0  0  0  0  0  0  0  0  0
  -18.2434  -19.2878   17.3475 O   0  0  0  0  0  0  0  0  0  0  0  0
  -29.1972  -20.4949   19.8886 O   0  0  0  0  0  0  0  0  0  1  0  0
  -14.4595  -15.3481   18.0986 F   0  0  0  0  0  0  0  0  0  0  0  0
  -18.8054  -17.0546   18.8769 F   0  0  0  0  0  0  0  0  0  0  0  0
  -30.5493  -25.0020   19.4068 F   0  0  0  0  0  0  0  0  0  0  0  0
  -29.1117  -24.1913   17.9870 F   0  0  0  0  0  0  0  0  0  0  0  0
  1  2  1  0  0  0  0
  1  5  2  0  0  0  0
  2  6  2  0  0  0  0
  3 10  2  0  0  0  0
  3 18  1  0  0  0  0
  4 11  1  0  0  0  0
  4 18  2  0  0  0  0
  5 20  1  0  0  0  0
  6 22  1  0  0  0  0
  7  9  2  0  0  0  0
  7 23  1  0  0  0  0
  8 12  2  0  0  0  0
  8 21  1  0  0  0  0
  9 25  1  0  0  0  0
 10 27  1  0  0  0  0
 11 27  2  0  0  0  0
 12 28  1  0  0  0  0
 13 14  2  0  0  0  0
 13 29  1  0  0  0  0
 14 30  1  0  0  0  0
 15 24  1  0  0  0  0
 15 28  2  0  0  0  0
 16 25  2  0  0  0  0
 16 26  1  0  0  0  0
 17 30  2  0  0  0  0
 17 31  1  0  0  0  0
 18 32  1  0  0  0  0
 19 32  1  0  0  0  0
 19 33  2  0  0  0  0
 19 34  1  0  0  0  0
 20 22  2  0  0  0  0
 20 40  1  0  0  0  0
 21 24  2  0  0  0  0
 21 41  1  0  0  0  0
 22 54  1  0  0  0  0
 23 26  2  0  0  0  0
 23 53  1  0  0  0  0
 24 42  1  0  0  0  0
 25 76  1  0  0  0  0
 26 77  1  0  0  0  0
 27 87  1  0  0  0  0
 28 88  1  0  0  0  0
 29 31  2  0  0  0  0
 29 87  1  0  0  0  0
 30 89  1  0  0  0  0
 31 90  1  0  0  0  0
 32 70  2  0  0  0  0
 33 71  1  0  0  0  0
 33 74  1  0  0  0  0
 34 75  1  0  0  0  0
 34 81  2  0  0  0  0
 35 55  1  0  0  0  0
 35 78  1  0  0  0  0
 35 82  2  0  0  0  0
 36 64  1  0  0  0  0
 36 68  1  0  0  0  0
 36 83  2  0  0  0  0
 37 66  1  0  0  0  0
 37 72  1  0  0  0  0
 37 84  2  0  0  0  0
 38 67  1  0  0  0  0
 38 79  1  0  0  0  0
 38 85  2  0  0  0  0
 39 73  1  0  0  0  0
 39 76  1  0  0  0  0
 39 86  2  0  0  0  0
 40 43  1  0  0  0  0
 41 55  1  0  0  0  0
 42 72  1  0  0  0  0
 43 48  1  0  0  0  0
 44 45  1  0  0  0  0
 44 47  1  0  0  0  0
 45 49  1  0  0  0  0
 46 50  1  0  0  0  0
 46 51  1  0  0  0  0
 47 53  1  0  0  0  0
 48 54  1  0  0  0  0
 49 56  1  0  0  0  0
 50 57  1  0  0  0  0
 51 73  1  0  0  0  0
 52 57  1  0  0  0  0
 52 73  1  0  0  0  0
 53 56  1  0  0  0  0
 54 78  1  0  0  0  0
 55 72  1  0  0  0  0
 56 58  1  0  0  0  0
 57 71  1  0  0  0  0
 59 67  1  0  0  0  0
 60 69  1  0  0  0  0
 61 69  1  0  0  0  0
 62 69  1  0  0  0  0
 63 80  1  0  0  0  0
 64 88  1  0  0  0  0
 65 68  1  0  0  0  0
 65 77  1  0  0  0  0
 66 69  1  0  0  0  0
 66 79  1  0  0  0  0
 67 80  1  0  0  0  0
 68 91  1  0  0  0  0
 68 92  1  0  0  0  0
 70 71  1  0  0  0  0
M  CHG  1  80   1
M  ISO  4  39 100  64 101  76 100  88 101
M  END
> <Batch ID>
0164

> <Smiles>
CNC(C)C(=O)NC(C(=O)N1Cc2cc([101O:1][101CH2:1]C(=O)C(F)(F)CNc3cc([100NH:0][100C:0](=O)N4CCCC(n5nc(-c6ccc(Oc7ccc(F)cc7F)cc6)c(C(N)=O)c5N)C4)ccc3C3CCCCC3C)ccc2CC1C(=O)NC1CCCc2ccccc21)C(C)(C)C

> <Shape>
0.213

> <Color>
0.076

> <Negative vol penalty>
0.000

$$$$

  -OEChem-04052304023D

 91 99  0     1  0  0  0  0  0999 V2000
  -30.3448  -25.1008   17.7611 C   0  0  0  0  0  0  0  0  0  0  0  0
  -28.9554  -25.1648   17.7881 C   0  0  0  0  0  0  0  0  0  0  0  0
  -22.6547  -27.3203   27.5286 C   0  0  0  0  0  0  0  0  0  0  0  0
  -26.6476  -16.3371   22.4051 C   0  0  0  0  0  0  0  0  0  0  0  0
  -24.3928  -15.6824   21.8358 C   0  0  0  0  0  0  0  0  0  0  0  0
  -31.0844  -25.5718   18.8451 C   0  0  0  0  0  0  0  0  0  0  0  0
  -28.3046  -25.6990   18.8996 C   0  0  0  0  0  0  0  0  0  0  0  0
  -23.1157  -28.9518   18.9168 C   0  0  0  0  0  0  0  0  0  0  0  0
  -23.6745  -26.4530   27.9202 C   0  0  0  0  0  0  0  0  0  0  0  0
  -22.3041  -27.4221   26.1823 C   0  0  0  0  0  0  0  0  0  0  0  0
  -27.1140  -15.0886   21.9939 C   0  0  0  0  0  0  0  0  0  0  0  0
  -24.8591  -14.4338   21.4246 C   0  0  0  0  0  0  0  0  0  0  0  0
  -21.7902  -28.6020   19.1707 C   0  0  0  0  0  0  0  0  0  0  0  0
  -27.8225  -13.5309   19.0777 C   0  0  0  0  0  0  0  0  0  0  0  0
  -28.9675  -13.4965   18.2819 C   0  0  0  0  0  0  0  0  0  0  0  0
  -22.0416  -29.3320   21.4561 C   0  0  0  0  0  0  0  0  0  0  0  0
  -23.9934  -25.7892   25.6191 C   0  0  0  0  0  0  0  0  0  0  0  0
  -30.0923  -12.1684   19.9577 C   0  0  0  0  0  0  0  0  0  0  0  0
  -25.2870  -16.6341   22.3261 C   0  0  0  0  0  0  0  0  0  0  0  0
  -24.6669  -19.0818   21.9631 C   0  0  0  0  0  0  0  0  0  0  0  0
  -30.4427  -26.1209   19.9665 C   0  0  0  0  0  0  0  0  0  0  0  0
  -23.9187  -29.4851   19.9353 C   0  0  0  0  0  0  0  0  0  0  0  0
  -29.0362  -26.1766   20.0002 C   0  0  0  0  0  0  0  0  0  0  0  0
  -23.3762  -29.6902   21.2119 C   0  0  0  0  0  0  0  0  0  0  0  0
  -24.3439  -25.6874   26.9654 C   0  0  0  0  0  0  0  0  0  0  0  0
  -22.9735  -26.6565   25.2276 C   0  0  0  0  0  0  0  0  0  0  0  0
  -26.2198  -14.1369   21.5037 C   0  0  0  0  0  0  0  0  0  0  0  0
  -21.2538  -28.7894   20.4413 C   0  0  0  0  0  0  0  0  0  0  0  0
  -27.8124  -12.8841   20.3136 C   0  0  0  0  0  0  0  0  0  0  0  0
  -30.1024  -12.8152   18.7219 C   0  0  0  0  0  0  0  0  0  0  0  0
  -28.9473  -12.2028   20.7535 C   0  0  0  0  0  0  0  0  0  0  0  0
  -24.8045  -17.9235   22.7512 C   0  0  0  0  0  0  0  0  0  0  0  0
  -24.1730  -20.0284   22.8272 C   0  0  0  0  0  0  0  0  0  0  0  0
  -21.7036  -25.9483   23.4731 C   0  0  0  0  0  0  0  0  0  0  0  0
  -24.9594  -19.2841   20.5741 C   0  0  0  0  0  0  0  0  0  0  0  0
  -21.2814  -26.0007   22.0406 C   0  0  0  0  0  0  0  0  0  0  0  0
  -26.5938  -28.5752   21.3910 C   0  0  0  0  0  0  0  0  0  0  0  0
  -26.3552  -31.4867   22.8014 C   0  0  0  0  0  0  0  0  0  0  0  0
  -24.3653  -34.0913   23.7516 C   0  0  0  0  0  0  0  0  0  0  0  0
  -24.4220  -22.5178   27.9001 C   0  0  0  0  0  0  0  0  0  0  0  0
  -31.2828  -26.5739   21.1342 C   0  0  0  0  0  0  0  0  0  0  0  0
  -25.3387  -29.8822   19.6382 C   0  0  0  0  0  0  0  0  0  0  0  0
  -24.1904  -30.2781   22.3344 C   0  0  0  0  0  0  0  0  0  0  0  0
  -30.5300  -27.4688   22.1154 C   0  0  0  0  0  0  0  0  0  0  0  0
  -22.3215  -19.6015   27.4948 C   0  0  0  0  0  0  0  0  0  0  0  0
  -29.1622  -26.8753   22.4378 C   0  0  0  0  0  0  0  0  0  0  0  0
  -22.8054  -18.9712   26.1923 C   0  0  0  0  0  0  0  0  0  0  0  0
  -23.4707  -20.2603   28.2478 C   0  0  0  0  0  0  0  0  0  0  0  0
  -24.6806  -20.6855   26.1236 C   0  0  0  0  0  0  0  0  0  0  0  0
  -28.2948  -26.7719   21.1775 C   0  0  1  0  0  0  0  0  0  0  0  0
  -26.2165  -29.9387   20.8846 C   0  0  1  0  0  0  0  0  0  0  0  0
  -23.5461  -20.0066   25.3324 C   0  0  1  0  0  0  0  0  0  0  0  0
  -24.4499  -36.3114   24.9183 C   0  0  0  0  0  0  0  0  0  0  0  0
  -18.1455  -27.0090   20.0574 C   0  0  0  0  0  0  0  0  0  0  0  0
  -30.4870  -24.0766   27.4698 C   0  0  0  0  0  0  0  0  0  0  0  0
  -29.2272  -24.2113   25.3160 C   0  0  0  0  0  0  0  0  0  0  0  0
  -29.5394  -26.2675   26.7010 C   0  0  0  0  0  0  0  0  0  0  0  0
  -26.5690  -30.0623   25.4913 C   0  0  0  0  0  0  0  0  0  0  0  0
  -25.7082  -32.1442   26.5834 C   0  0  0  0  0  0  0  0  0  0  0  0
  -27.8666  -32.1944   25.3338 C   0  0  0  0  0  0  0  0  0  0  0  0
  -23.4079  -35.5231   21.3449 C   0  0  0  0  0  0  0  0  0  0  0  0
  -19.8241  -26.3216   21.8025 C   0  0  0  0  0  0  0  0  0  0  0  0
  -27.9640  -24.4155   27.4548 C   0  0  0  0  0  0  0  0  0  0  0  0
  -25.4496  -24.7468   27.3896 C   0  0  1  0  0  0  0  0  0  0  0  0
  -25.6953  -32.0186   24.0506 C   0  0  1  0  0  0  0  0  0  0  0  0
  -24.5199  -35.5917   23.5804 C   0  0  2  0  0  0  0  0  0  0  0  0
  -19.6031  -27.0781   20.4931 C   0  0  2  0  0  0  0  0  0  1  0  0
  -29.3002  -24.7488   26.7582 C   0  0  0  0  0  0  0  0  0  0  0  0
  -26.4447  -31.5919   25.3444 C   0  0  0  0  0  0  0  0  0  0  0  0
  -24.4285  -18.1145   24.0186 N   0  0  0  0  0  0  0  0  0  0  0  0
  -22.6223  -26.7589   23.8777 N   0  0  0  0  0  0  0  0  0  0  0  0
  -24.0499  -19.4039   24.0334 N   0  0  0  0  0  0  0  0  0  0  0  0
  -25.5755  -30.6446   21.9959 N   0  0  0  0  0  0  0  0  0  0  0  0
  -24.1949  -21.2188   27.4082 N   0  0  0  0  0  0  0  0  0  0  0  0
  -23.8365  -21.3256   22.6652 N   0  0  0  0  0  0  0  0  0  0  0  0
  -25.4606  -18.2053   19.8329 N   0  0  0  0  0  0  0  0  0  0  0  0
  -27.7504  -28.0672   20.8309 N   0  0  0  0  0  0  0  0  0  0  0  0
  -25.5865  -33.4624   23.8716 N   0  0  0  0  0  0  0  0  0  0  0  0
  -25.1195  -23.3658   27.0456 N   0  0  0  0  0  0  0  0  0  0  0  0
  -23.4415  -36.1267   22.7020 N   0  3  0  0  0  0  0  0  0  0  0  0
  -26.7991  -25.0688   26.7967 N   0  3  0  0  0  0  0  0  0  0  0  0
  -24.7970  -20.3932   20.0110 O   0  0  0  0  0  0  0  0  0  0  0  0
  -22.1316  -25.8028   21.1872 O   0  0  0  0  0  0  0  0  0  0  0  0
  -25.8887  -28.0255   22.2291 O   0  0  0  0  0  0  0  0  0  0  0  0
  -27.5173  -31.8122   22.5459 O   0  0  0  0  0  0  0  0  0  0  0  0
  -23.2705  -33.5334   23.7800 O   0  0  0  0  0  0  0  0  0  0  0  0
  -24.0365  -22.8886   29.0137 O   0  0  0  0  0  0  0  0  0  0  0  0
  -26.6746  -12.9185   21.1021 O   0  0  0  0  0  0  0  0  0  0  0  0
  -19.9534  -28.4463   20.6933 O   0  0  0  0  0  0  0  0  0  1  0  0
  -31.2014  -12.7810   17.9569 F   0  0  0  0  0  0  0  0  0  0  0  0
  -28.9431  -11.5786   21.9393 F   0  0  0  0  0  0  0  0  0  0  0  0
  1  2  1  0  0  0  0
  1  6  2  0  0  0  0
  2  7  2  0  0  0  0
  3  9  1  0  0  0  0
  3 10  2  0  0  0  0
  4 11  2  0  0  0  0
  4 19  1  0  0  0  0
  5 12  1  0  0  0  0
  5 19  2  0  0  0  0
  6 21  1  0  0  0  0
  7 23  1  0  0  0  0
  8 13  2  0  0  0  0
  8 22  1  0  0  0  0
  9 25  2  0  0  0  0
 10 26  1  0  0  0  0
 11 27  1  0  0  0  0
 12 27  2  0  0  0  0
 13 28  1  0  0  0  0
 14 15  2  0  0  0  0
 14 29  1  0  0  0  0
 15 30  1  0  0  0  0
 16 24  1  0  0  0  0
 16 28  2  0  0  0  0
 17 25  1  0  0  0  0
 17 26  2  0  0  0  0
 18 30  2  0  0  0  0
 18 31  1  0  0  0  0
 19 32  1  0  0  0  0
 20 32  1  0  0  0  0
 20 33  2  0  0  0  0
 20 35  1  0  0  0  0
 21 23  2  0  0  0  0
 21 41  1  0  0  0  0
 22 24  2  0  0  0  0
 22 42  1  0  0  0  0
 23 50  1  0  0  0  0
 24 43  1  0  0  0  0
 25 64  1  0  0  0  0
 26 71  1  0  0  0  0
 27 88  1  0  0  0  0
 28 89  1  0  0  0  0
 29 31  2  0  0  0  0
 29 88  1  0  0  0  0
 30 90  1  0  0  0  0
 31 91  1  0  0  0  0
 32 70  2  0  0  0  0
 33 72  1  0  0  0  0
 33 75  1  0  0  0  0
 34 36  1  0  0  0  0
 34 71  2  0  0  0  0
 35 76  1  0  0  0  0
 35 82  2  0  0  0  0
 36 62  1  0  0  0  0
 36 83  2  0  0  0  0
 37 51  1  0  0  0  0
 37 77  1  0  0  0  0
 37 84  2  0  0  0  0
 38 65  1  0  0  0  0
 38 73  1  0  0  0  0
 38 85  2  0  0  0  0
 39 66  1  0  0  0  0
 39 78  1  0  0  0  0
 39 86  2  0  0  0  0
 40 74  1  0  0  0  0
 40 79  1  0  0  0  0
 40 87  2  0  0  0  0
 41 44  1  0  0  0  0
 42 51  1  0  0  0  0
 43 73  1  0  0  0  0
 44 46  1  0  0  0  0
 45 47  1  0  0  0  0
 45 48  1  0  0  0  0
 46 50  1  0  0  0  0
 47 52  1  0  0  0  0
 48 74  1  0  0  0  0
 49 52  1  0  0  0  0
 49 74  1  0  0  0  0
 50 77  1  0  0  0  0
 51 73  1  0  0  0  0
 52 72  1  0  0  0  0
 53 66  1  0  0  0  0
 54 67  1  0  0  0  0
 55 68  1  0  0  0  0
 56 68  1  0  0  0  0
 57 68  1  0  0  0  0
 58 69  1  0  0  0  0
 59 69  1  0  0  0  0
 60 69  1  0  0  0  0
 61 80  1  0  0  0  0
 62 67  1  0  0  0  0
 63 68  1  0  0  0  0
 63 81  1  0  0  0  0
 64 79  1  0  0  0  0
 64 81  1  0  0  0  0
 65 69  1  0  0  0  0
 65 78  1  0  0  0  0
 66 80  1  0  0  0  0
 67 89  1  0  0  0  0
 70 72  1  0  0  0  0
M  CHG  2  80   1  81   1
M  ISO  4  40 100  67 101  79 100  89 101
M  END
> <Batch ID>
0164

> <Smiles>
CNC(C)C(=O)NC(C(=O)N1Cc2cc([101O:1][101CH:1](C)CC(=O)CNc3cccc(C(=NCC(C)(C)C)[100NH:0][100C:0](=O)N4CCCC(n5nc(-c6ccc(Oc7ccc(F)cc7F)cc6)c(C(N)=O)c5N)C4)c3)ccc2CC1C(=O)NC1CCCc2ccccc21)C(C)(C)C

> <Shape>
0.266

> <Color>
0.070

> <Negative vol penalty>
0.000

$$$$

  -OEChem-04052304023D

 87 95  0     1  0  0  0  0  0999 V2000
  -18.1465  -25.5637   22.5842 C   0  0  0  0  0  0  0  0  0  0  0  0
  -19.5045  -25.4164   22.3202 C   0  0  0  0  0  0  0  0  0  0  0  0
  -24.3787   -9.2413   21.4226 C   0  0  0  0  0  0  0  0  0  0  0  0
  -24.8296  -10.3062   23.5438 C   0  0  0  0  0  0  0  0  0  0  0  0
  -17.5521  -26.8215   22.4921 C   0  0  0  0  0  0  0  0  0  0  0  0
  -20.2686  -26.5268   21.9628 C   0  0  0  0  0  0  0  0  0  0  0  0
  -24.7047  -26.6980   24.3993 C   0  0  0  0  0  0  0  0  0  0  0  0
  -24.0487   -8.0595   22.0859 C   0  0  0  0  0  0  0  0  0  0  0  0
  -24.4995   -9.1244   24.2073 C   0  0  0  0  0  0  0  0  0  0  0  0
  -25.7183  -25.8604   23.9360 C   0  0  0  0  0  0  0  0  0  0  0  0
  -21.4050   -6.8114   23.7847 C   0  0  0  0  0  0  0  0  0  0  0  0
  -20.2547   -6.1373   23.3746 C   0  0  0  0  0  0  0  0  0  0  0  0
  -29.5921  -19.1675   23.2063 C   0  0  0  0  0  0  0  0  0  0  0  0
  -26.7111  -27.7203   22.7636 C   0  0  0  0  0  0  0  0  0  0  0  0
  -31.5332  -19.4925   21.8051 C   0  0  0  0  0  0  0  0  0  0  0  0
  -21.5863   -4.1961   22.8307 C   0  0  0  0  0  0  0  0  0  0  0  0
  -24.7692  -10.3646   22.1515 C   0  0  0  0  0  0  0  0  0  0  0  0
  -29.9308  -17.8236   23.3638 C   0  0  0  0  0  0  0  0  0  0  0  0
  -24.2425  -12.6388   21.1228 C   0  0  0  0  0  0  0  0  0  0  0  0
  -18.3112  -27.9495   22.1429 C   0  0  0  0  0  0  0  0  0  0  0  0
  -24.6805  -28.0529   24.0388 C   0  0  0  0  0  0  0  0  0  0  0  0
  -19.6834  -27.8006   21.8647 C   0  0  0  0  0  0  0  0  0  0  0  0
  -25.6974  -28.5735   23.2258 C   0  0  0  0  0  0  0  0  0  0  0  0
  -31.0707  -17.3141   22.7420 C   0  0  0  0  0  0  0  0  0  0  0  0
  -30.3933  -20.0020   22.4269 C   0  0  0  0  0  0  0  0  0  0  0  0
  -24.1091   -8.0010   23.4783 C   0  0  0  0  0  0  0  0  0  0  0  0
  -26.7201  -26.3708   23.1157 C   0  0  0  0  0  0  0  0  0  0  0  0
  -22.6459   -6.1778   23.7177 C   0  0  0  0  0  0  0  0  0  0  0  0
  -20.3454   -4.8297   22.8977 C   0  0  0  0  0  0  0  0  0  0  0  0
  -31.8719  -18.1486   21.9626 C   0  0  0  0  0  0  0  0  0  0  0  0
  -22.7365   -4.8702   23.2407 C   0  0  0  0  0  0  0  0  0  0  0  0
  -25.1108  -11.5855   21.4668 C   0  0  0  0  0  0  0  0  0  0  0  0
  -25.0477  -13.5557   20.4924 C   0  0  0  0  0  0  0  0  0  0  0  0
  -29.0764  -16.9741   24.1832 C   0  0  0  0  0  0  0  0  0  0  0  0
  -22.8340  -12.7762   21.3527 C   0  0  0  0  0  0  0  0  0  0  0  0
  -22.6626  -29.9112   22.4331 C   0  0  0  0  0  0  0  0  0  0  0  0
  -28.8386  -23.4166   22.4999 C   0  0  0  0  0  0  0  0  0  0  0  0
  -24.6930  -32.2612   23.3695 C   0  0  0  0  0  0  0  0  0  0  0  0
  -27.8293  -33.1468   24.3827 C   0  0  0  0  0  0  0  0  0  0  0  0
  -30.9174  -14.7036   20.7757 C   0  0  0  0  0  0  0  0  0  0  0  0
  -17.6147  -29.2806   22.0100 C   0  0  0  0  0  0  0  0  0  0  0  0
  -23.5950  -28.9492   24.5687 C   0  0  0  0  0  0  0  0  0  0  0  0
  -25.7283  -30.0254   22.8264 C   0  0  0  0  0  0  0  0  0  0  0  0
  -18.5718  -30.4696   21.9904 C   0  0  0  0  0  0  0  0  0  0  0  0
  -29.0392  -13.8574   17.8717 C   0  0  0  0  0  0  0  0  0  0  0  0
  -19.7363  -30.2020   21.0422 C   0  0  0  0  0  0  0  0  0  0  0  0
  -27.7411  -13.2742   18.4328 C   0  0  0  0  0  0  0  0  0  0  0  0
  -30.2447  -13.4797   18.7297 C   0  0  0  0  0  0  0  0  0  0  0  0
  -28.8162  -13.2276   20.7221 C   0  0  0  0  0  0  0  0  0  0  0  0
  -20.5508  -28.9854   21.4982 C   0  0  1  0  0  0  0  0  0  0  0  0
  -23.3841  -30.1987   23.7193 C   0  0  1  0  0  0  0  0  0  0  0  0
  -27.5650  -13.6280   19.9218 C   0  0  2  0  0  0  0  0  0  0  0  0
  -28.8983  -17.3567   25.6225 C   0  0  0  0  0  0  0  0  0  0  0  0
  -29.1965  -35.1465   25.0379 C   0  0  0  0  0  0  0  0  0  0  0  0
  -24.9081  -33.0723   20.4359 C   0  0  0  0  0  0  0  0  0  0  0  0
  -26.9508  -34.3953   21.0237 C   0  0  0  0  0  0  0  0  0  0  0  0
  -24.7498  -34.9858   22.0384 C   0  0  0  0  0  0  0  0  0  0  0  0
  -28.3274  -32.0637   27.0915 C   0  0  0  0  0  0  0  0  0  0  0  0
  -31.4529  -15.8780   22.8954 C   0  0  0  0  0  0  0  0  0  0  0  0
  -28.9007  -21.9508   22.8737 C   0  0  0  0  0  0  0  0  0  0  0  0
  -27.6612  -24.1873   23.0646 C   0  0  0  0  0  0  0  0  0  1  0  0
  -25.9406  -32.8878   22.7952 C   0  0  1  0  0  0  0  0  0  0  0  0
  -28.3090  -34.0147   25.5321 C   0  0  2  0  0  0  0  0  0  0  0  0
  -25.6360  -33.8075   21.5791 C   0  0  0  0  0  0  0  0  0  0  0  0
  -26.3711  -11.8111   21.0863 N   0  0  0  0  0  0  0  0  0  0  0  0
  -26.3006  -13.0166   20.4966 N   0  0  0  0  0  0  0  0  0  0  0  0
  -24.6416  -30.8601   23.3648 N   0  0  0  0  0  0  0  0  0  0  0  0
  -30.0142  -13.8432   20.1299 N   0  0  0  0  0  0  0  0  0  0  0  0
  -24.7992  -14.7623   19.9403 N   0  0  0  0  0  0  0  0  0  0  0  0
  -22.1609  -11.7405   22.0149 N   0  0  0  0  0  0  0  0  0  0  0  0
  -30.0567  -21.3389   22.2701 N   0  0  0  0  0  0  0  0  0  0  0  0
  -21.4153  -29.3412   22.6030 N   0  0  0  0  0  0  0  0  0  0  0  0
  -26.6054  -33.5640   23.9039 N   0  0  0  0  0  0  0  0  0  0  0  0
  -30.6215  -15.0022   22.1001 N   0  0  0  0  0  0  0  0  0  0  0  0
  -29.0866  -33.1993   26.5075 N   0  3  0  0  0  0  0  0  0  0  0  0
  -28.4954  -15.9651   23.7827 O   0  0  0  0  0  0  0  0  0  0  0  0
  -22.1882  -13.7802   20.9674 O   0  0  0  0  0  0  0  0  0  0  0  0
  -23.1972  -30.1875   21.3656 O   0  0  0  0  0  0  0  0  0  0  0  0
  -29.6820  -23.9574   21.7857 O   0  0  0  0  0  0  0  0  0  0  0  0
  -23.8003  -32.9880   23.8127 O   0  0  0  0  0  0  0  0  0  0  0  0
  -28.4773  -32.1962   23.9503 O   0  0  0  0  0  0  0  0  0  0  0  0
  -31.9108  -15.1752   20.2121 O   0  0  0  0  0  0  0  0  0  0  0  0
  -23.7868   -6.8481   24.1259 O   0  0  0  0  0  0  0  0  0  0  0  0
  -27.7103  -25.5553   22.6615 O   0  0  0  0  0  0  0  0  0  1  0  0
  -19.2405   -4.1819   22.5054 F   0  0  0  0  0  0  0  0  0  0  0  0
  -32.9696  -17.6692   21.3607 F   0  0  0  0  0  0  0  0  0  0  0  0
  -23.9257   -4.2559   23.1752 F   0  0  0  0  0  0  0  0  0  0  0  0
  1  2  1  0  0  0  0
  1  5  2  0  0  0  0
  2  6  2  0  0  0  0
  3  8  2  0  0  0  0
  3 17  1  0  0  0  0
  4  9  1  0  0  0  0
  4 17  2  0  0  0  0
  5 20  1  0  0  0  0
  6 22  1  0  0  0  0
  7 10  2  0  0  0  0
  7 21  1  0  0  0  0
  8 26  1  0  0  0  0
  9 26  2  0  0  0  0
 10 27  1  0  0  0  0
 11 12  2  0  0  0  0
 11 28  1  0  0  0  0
 12 29  1  0  0  0  0
 13 18  1  0  0  0  0
 13 25  2  0  0  0  0
 14 23  1  0  0  0  0
 14 27  2  0  0  0  0
 15 25  1  0  0  0  0
 15 30  2  0  0  0  0
 16 29  2  0  0  0  0
 16 31  1  0  0  0  0
 17 32  1  0  0  0  0
 18 24  2  0  0  0  0
 18 34  1  0  0  0  0
 19 32  1  0  0  0  0
 19 33  2  0  0  0  0
 19 35  1  0  0  0  0
 20 22  2  0  0  0  0
 20 41  1  0  0  0  0
 21 23  2  0  0  0  0
 21 42  1  0  0  0  0
 22 50  1  0  0  0  0
 23 43  1  0  0  0  0
 24 30  1  0  0  0  0
 24 59  1  0  0  0  0
 25 71  1  0  0  0  0
 26 83  1  0  0  0  0
 27 84  1  0  0  0  0
 28 31  2  0  0  0  0
 28 83  1  0  0  0  0
 29 85  1  0  0  0  0
 30 86  1  0  0  0  0
 31 87  1  0  0  0  0
 32 65  2  0  0  0  0
 33 66  1  0  0  0  0
 33 69  1  0  0  0  0
 34 53  1  0  0  0  0
 34 76  2  0  0  0  0
 35 70  1  0  0  0  0
 35 77  2  0  0  0  0
 36 51  1  0  0  0  0
 36 72  1  0  0  0  0
 36 78  2  0  0  0  0
 37 60  1  0  0  0  0
 37 61  1  0  0  0  0
 37 79  2  0  0  0  0
 38 62  1  0  0  0  0
 38 67  1  0  0  0  0
 38 80  2  0  0  0  0
 39 63  1  0  0  0  0
 39 73  1  0  0  0  0
 39 81  2  0  0  0  0
 40 68  1  0  0  0  0
 40 74  1  0  0  0  0
 40 82  2  0  0  0  0
 41 44  1  0  0  0  0
 42 51  1  0  0  0  0
 43 67  1  0  0  0  0
 44 46  1  0  0  0  0
 45 47  1  0  0  0  0
 45 48  1  0  0  0  0
 46 50  1  0  0  0  0
 47 52  1  0  0  0  0
 48 68  1  0  0  0  0
 49 52  1  0  0  0  0
 49 68  1  0  0  0  0
 50 72  1  0  0  0  0
 51 67  1  0  0  0  0
 52 66  1  0  0  0  0
 54 63  1  0  0  0  0
 55 64  1  0  0  0  0
 56 64  1  0  0  0  0
 57 64  1  0  0  0  0
 58 75  1  0  0  0  0
 59 74  1  0  0  0  0
 60 71  1  0  0  0  0
 61 84  1  0  0  0  0
 62 64  1  0  0  0  0
 62 73  1  0  0  0  0
 63 75  1  0  0  0  0
 65 66  1  0  0  0  0
M  CHG  1  75   1
M  ISO  4  40 100  61 101  74 100  84 101
M  END
> <Batch ID>
0164

> <Smiles>
CNC(C)C(=O)NC(C(=O)N1Cc2cc([101O:1][101CH2:1]C(=O)CNc3cc(F)c(C[100NH:0][100C:0](=O)N4CCCC(n5nc(-c6ccc(Oc7ccc(F)cc7F)cc6)c(C(N)=O)c5N)C4)c(C(C)=O)c3)ccc2CC1C(=O)NC1CCCc2ccccc21)C(C)(C)C

> <Shape>
0.304

> <Color>
0.148

> <Negative vol penalty>
0.000

$$$$

  -OEChem-04052304023D

 89 98  0     1  0  0  0  0  0999 V2000
  -28.6855  -31.7287   27.4701 C   0  0  0  0  0  0  0  0  0  0  0  0
  -28.6311  -30.7752   26.4585 C   0  0  0  0  0  0  0  0  0  0  0  0
  -23.9886   -8.8090   22.0982 C   0  0  0  0  0  0  0  0  0  0  0  0
  -25.2297  -10.0866   23.7305 C   0  0  0  0  0  0  0  0  0  0  0  0
  -27.5108  -32.3199   27.9332 C   0  0  0  0  0  0  0  0  0  0  0  0
  -27.4016  -30.4115   25.9102 C   0  0  0  0  0  0  0  0  0  0  0  0
  -29.3019  -20.0986   19.3416 C   0  0  0  0  0  0  0  0  0  0  0  0
  -27.5300  -30.1512   20.8544 C   0  0  0  0  0  0  0  0  0  0  0  0
  -29.3488  -18.7074   19.2517 C   0  0  0  0  0  0  0  0  0  0  0  0
  -23.6945   -7.8528   23.0702 C   0  0  0  0  0  0  0  0  0  0  0  0
  -24.9356   -9.1305   24.7025 C   0  0  0  0  0  0  0  0  0  0  0  0
  -28.1095  -29.0157   20.2899 C   0  0  0  0  0  0  0  0  0  0  0  0
  -21.5347   -7.5044   25.6483 C   0  0  0  0  0  0  0  0  0  0  0  0
  -20.2226   -7.0368   25.7215 C   0  0  0  0  0  0  0  0  0  0  0  0
  -26.9342  -18.6256   19.2582 C   0  0  0  0  0  0  0  0  0  0  0  0
  -25.9140  -28.0901   19.9128 C   0  0  0  0  0  0  0  0  0  0  0  0
  -20.9985   -4.7910   25.2840 C   0  0  0  0  0  0  0  0  0  0  0  0
  -24.7563   -9.9259   22.4283 C   0  0  0  0  0  0  0  0  0  0  0  0
  -26.8873  -20.0168   19.3482 C   0  0  0  0  0  0  0  0  0  0  0  0
  -24.1444  -11.6863   20.6864 C   0  0  0  0  0  0  0  0  0  0  0  0
  -28.0712  -20.7533   19.3900 C   0  0  0  0  0  0  0  0  0  0  0  0
  -26.2673  -31.9703   27.3836 C   0  0  0  0  0  0  0  0  0  0  0  0
  -26.1361  -30.2600   20.9625 C   0  0  0  0  0  0  0  0  0  0  0  0
  -26.2090  -30.9976   26.3673 C   0  0  0  0  0  0  0  0  0  0  0  0
  -25.3192  -29.2291   20.4768 C   0  0  0  0  0  0  0  0  0  0  0  0
  -28.1650  -17.9709   19.2099 C   0  0  0  0  0  0  0  0  0  0  0  0
  -24.1679   -8.0136   24.3724 C   0  0  0  0  0  0  0  0  0  0  0  0
  -27.3016  -27.9837   19.8215 C   0  0  0  0  0  0  0  0  0  0  0  0
  -22.5787   -6.6153   25.3928 C   0  0  0  0  0  0  0  0  0  0  0  0
  -19.9545   -5.6801   25.5394 C   0  0  0  0  0  0  0  0  0  0  0  0
  -22.3106   -5.2586   25.2107 C   0  0  0  0  0  0  0  0  0  0  0  0
  -25.0610  -10.9137   21.4245 C   0  0  0  0  0  0  0  0  0  0  0  0
  -24.9296  -12.4657   19.8724 C   0  0  0  0  0  0  0  0  0  0  0  0
  -25.5889  -20.6754   19.3964 C   0  0  0  0  0  0  0  0  0  0  0  0
  -22.7115  -11.6986   20.7326 C   0  0  0  0  0  0  0  0  0  0  0  0
  -24.0879  -30.5306   23.3781 C   0  0  0  0  0  0  0  0  0  0  0  0
  -21.9260  -30.9174   20.9908 C   0  0  0  0  0  0  0  0  0  0  0  0
  -21.2663  -29.4322   17.7696 C   0  0  0  0  0  0  0  0  0  0  0  0
  -29.3507  -15.7529   19.0653 C   0  0  0  0  0  0  0  0  0  0  0  0
  -25.0201  -32.6020   27.9495 C   0  0  0  0  0  0  0  0  0  0  0  0
  -25.5257  -31.5030   21.5497 C   0  0  0  0  0  0  0  0  0  0  0  0
  -23.8169  -29.3060   20.5509 C   0  0  0  0  0  0  0  0  0  0  0  0
  -23.7935  -32.4348   27.0564 C   0  0  0  0  0  0  0  0  0  0  0  0
  -29.8878  -12.2381   18.8791 C   0  0  0  0  0  0  0  0  0  0  0  0
  -28.6918  -22.9293   18.2573 C   0  0  0  0  0  0  0  0  0  0  0  0
  -28.7044  -22.7665   20.7865 C   0  0  0  0  0  0  0  0  0  0  0  0
  -23.6785  -30.9929   26.5720 C   0  0  0  0  0  0  0  0  0  0  0  0
  -28.6045  -11.6438   19.4640 C   0  0  0  0  0  0  0  0  0  0  0  0
  -28.6532  -24.4568   18.3578 C   0  0  0  0  0  0  0  0  0  0  0  0
  -28.6624  -24.2937   20.8833 C   0  0  0  0  0  0  0  0  0  0  0  0
  -30.2997  -13.5197   19.6012 C   0  0  0  0  0  0  0  0  0  0  0  0
  -27.9698  -13.9516   20.2752 C   0  0  0  0  0  0  0  0  0  0  0  0
  -28.0493  -22.2679   19.4877 C   0  0  0  0  0  0  0  0  0  0  0  0
  -24.8968  -30.5948   25.7302 C   0  0  1  0  0  0  0  0  0  0  0  0
  -24.1114  -31.2823   22.0773 C   0  0  1  0  0  0  0  0  0  0  0  0
  -27.4795  -12.6947   19.5381 C   0  0  2  0  0  0  0  0  0  0  0  0
  -29.2912  -24.9727   19.6563 C   0  0  0  0  0  0  0  0  0  0  0  0
  -20.1540  -30.3838   15.7313 C   0  0  0  0  0  0  0  0  0  0  0  0
  -19.3998  -29.6382   22.1275 C   0  0  0  0  0  0  0  0  0  0  0  0
  -18.7401  -29.0298   19.7902 C   0  0  0  0  0  0  0  0  0  0  0  0
  -18.9896  -31.4280   20.4296 C   0  0  0  0  0  0  0  0  0  0  0  0
  -23.5990  -28.8027   16.0605 C   0  0  0  0  0  0  0  0  0  0  0  0
  -31.3461  -25.1114   20.7881 C   0  0  0  0  0  0  0  0  0  0  0  0
  -29.1536  -26.4934   19.7503 C   0  0  0  0  0  0  0  0  0  1  0  0
  -21.0545  -29.9912   20.1773 C   0  0  1  0  0  0  0  0  0  0  0  0
  -21.4790  -30.0759   16.4114 C   0  0  2  0  0  0  0  0  0  0  0  0
  -19.5709  -30.0132   20.6419 C   0  0  0  0  0  0  0  0  0  0  0  0
  -26.3312  -11.1780   21.1073 N   0  0  0  0  0  0  0  0  0  0  0  0
  -26.2185  -12.1254   20.1609 N   0  0  0  0  0  0  0  0  0  0  0  0
  -23.2678  -30.5388   21.1393 N   0  0  0  0  0  0  0  0  0  0  0  0
  -29.1856  -14.4699   19.6286 N   0  0  0  0  0  0  0  0  0  0  0  0
  -24.6364  -13.4019   18.9451 N   0  0  0  0  0  0  0  0  0  0  0  0
  -25.0192  -20.8878   20.6472 N   0  0  0  0  0  0  0  0  0  0  0  0
  -22.0792  -12.5767   21.6234 N   0  0  0  0  0  0  0  0  0  0  0  0
  -28.2131  -16.5576   19.1206 N   0  0  0  0  0  0  0  0  0  0  0  0
  -24.7912  -31.1458   24.3961 N   0  0  0  0  0  0  0  0  0  0  0  0
  -21.2493  -30.3686   18.7816 N   0  0  0  0  0  0  0  0  0  0  0  0
  -22.2625  -29.1692   15.5254 N   0  3  0  0  0  0  0  0  0  0  0  0
  -25.0011  -21.0211   18.3580 O   0  0  0  0  0  0  0  0  0  0  0  0
  -22.0127  -10.9413   20.0172 O   0  0  0  0  0  0  0  0  0  0  0  0
  -23.4756  -29.4718   23.4531 O   0  0  0  0  0  0  0  0  0  0  0  0
  -21.4360  -31.9426   21.4707 O   0  0  0  0  0  0  0  0  0  0  0  0
  -21.1252  -28.2203   17.9176 O   0  0  0  0  0  0  0  0  0  0  0  0
  -30.4139  -16.1017   18.5459 O   0  0  0  0  0  0  0  0  0  0  0  0
  -23.8809   -7.0809   25.3212 O   0  0  0  0  0  0  0  0  0  0  0  0
  -27.8646  -26.8741   19.2706 O   0  0  0  0  0  0  0  0  0  1  0  0
  -30.6873  -24.6627   19.6156 O   0  0  0  0  0  0  0  0  0  0  0  0
  -18.6946   -5.2310   25.6113 F   0  0  0  0  0  0  0  0  0  0  0  0
  -23.3096   -4.3995   24.9662 F   0  0  0  0  0  0  0  0  0  0  0  0
  1  2  1  0  0  0  0
  1  5  2  0  0  0  0
  2  6  2  0  0  0  0
  3 10  2  0  0  0  0
  3 18  1  0  0  0  0
  4 11  1  0  0  0  0
  4 18  2  0  0  0  0
  5 22  1  0  0  0  0
  6 24  1  0  0  0  0
  7  9  2  0  0  0  0
  7 21  1  0  0  0  0
  8 12  2  0  0  0  0
  8 23  1  0  0  0  0
  9 26  1  0  0  0  0
 10 27  1  0  0  0  0
 11 27  2  0  0  0  0
 12 28  1  0  0  0  0
 13 14  2  0  0  0  0
 13 29  1  0  0  0  0
 14 30  1  0  0  0  0
 15 19  1  0  0  0  0
 15 26  2  0  0  0  0
 16 25  1  0  0  0  0
 16 28  2  0  0  0  0
 17 30  2  0  0  0  0
 17 31  1  0  0  0  0
 18 32  1  0  0  0  0
 19 21  2  0  0  0  0
 19 34  1  0  0  0  0
 20 32  1  0  0  0  0
 20 33  2  0  0  0  0
 20 35  1  0  0  0  0
 21 53  1  0  0  0  0
 22 24  2  0  0  0  0
 22 40  1  0  0  0  0
 23 25  2  0  0  0  0
 23 41  1  0  0  0  0
 24 54  1  0  0  0  0
 25 42  1  0  0  0  0
 26 75  1  0  0  0  0
 27 85  1  0  0  0  0
 28 86  1  0  0  0  0
 29 31  2  0  0  0  0
 29 85  1  0  0  0  0
 30 88  1  0  0  0  0
 31 89  1  0  0  0  0
 32 68  2  0  0  0  0
 33 69  1  0  0  0  0
 33 72  1  0  0  0  0
 34 73  1  0  0  0  0
 34 79  2  0  0  0  0
 35 74  1  0  0  0  0
 35 80  2  0  0  0  0
 36 55  1  0  0  0  0
 36 76  1  0  0  0  0
 36 81  2  0  0  0  0
 37 65  1  0  0  0  0
 37 70  1  0  0  0  0
 37 82  2  0  0  0  0
 38 66  1  0  0  0  0
 38 77  1  0  0  0  0
 38 83  2  0  0  0  0
 39 71  1  0  0  0  0
 39 75  1  0  0  0  0
 39 84  2  0  0  0  0
 40 43  1  0  0  0  0
 41 55  1  0  0  0  0
 42 70  1  0  0  0  0
 43 47  1  0  0  0  0
 44 48  1  0  0  0  0
 44 51  1  0  0  0  0
 45 49  1  0  0  0  0
 45 53  1  0  0  0  0
 46 50  1  0  0  0  0
 46 53  1  0  0  0  0
 47 54  1  0  0  0  0
 48 56  1  0  0  0  0
 49 57  1  0  0  0  0
 50 57  1  0  0  0  0
 51 71  1  0  0  0  0
 52 56  1  0  0  0  0
 52 71  1  0  0  0  0
 54 76  1  0  0  0  0
 55 70  1  0  0  0  0
 56 69  1  0  0  0  0
 57 64  1  0  0  0  0
 57 87  1  0  0  0  0
 58 66  1  0  0  0  0
 59 67  1  0  0  0  0
 60 67  1  0  0  0  0
 61 67  1  0  0  0  0
 62 78  1  0  0  0  0
 63 87  1  0  0  0  0
 64 86  1  0  0  0  0
 65 67  1  0  0  0  0
 65 77  1  0  0  0  0
 66 78  1  0  0  0  0
 68 69  1  0  0  0  0
M  CHG  1  78   1
M  ISO  4  39 100  64 101  75 100  86 101
M  END
> <Batch ID>
0164

> <Smiles>
CNC(C)C(=O)NC(C(=O)N1Cc2cc([101O:1][101CH2:1]C3(OC)CCC(c4ccc([100NH:0][100C:0](=O)N5CCCC(n6nc(-c7ccc(Oc8ccc(F)cc8F)cc7)c(C(N)=O)c6N)C5)cc4C(N)=O)CC3)ccc2CC1C(=O)NC1CCCc2ccccc21)C(C)(C)C

> <Shape>
0.318

> <Color>
0.106

> <Negative vol penalty>
0.000

$$$$

  -OEChem-04052304023D

 85 93  0     1  0  0  0  0  0999 V2000
  -30.3386  -12.4473   19.2604 C   0  0  0  0  0  0  0  0  0  0  0  0
  -30.0026  -13.7871   19.4262 C   0  0  0  0  0  0  0  0  0  0  0  0
  -28.8843  -25.6514   20.2295 C   0  0  0  0  0  0  0  0  0  0  0  0
  -26.8342  -24.3892   20.4320 C   0  0  0  0  0  0  0  0  0  0  0  0
  -29.3525  -11.4660   19.3530 C   0  0  0  0  0  0  0  0  0  0  0  0
  -28.6800  -14.1464   19.6836 C   0  0  0  0  0  0  0  0  0  0  0  0
  -24.8078  -19.0182   23.2315 C   0  0  0  0  0  0  0  0  0  0  0  0
  -29.6077  -24.5497   20.6862 C   0  0  0  0  0  0  0  0  0  0  0  0
  -27.5575  -23.2875   20.8887 C   0  0  0  0  0  0  0  0  0  0  0  0
  -23.7719  -19.9284   23.0258 C   0  0  0  0  0  0  0  0  0  0  0  0
  -28.9022  -20.0253   21.7651 C   0  0  0  0  0  0  0  0  0  0  0  0
  -28.5889  -18.7758   21.2302 C   0  0  0  0  0  0  0  0  0  0  0  0
  -22.1665  -18.1410   23.2429 C   0  0  0  0  0  0  0  0  0  0  0  0
  -29.1482  -19.5810   19.0220 C   0  0  0  0  0  0  0  0  0  0  0  0
  -27.4975  -25.5712   20.1024 C   0  0  0  0  0  0  0  0  0  0  0  0
  -26.4260  -27.0203   18.2970 C   0  0  0  0  0  0  0  0  0  0  0  0
  -28.0189  -11.8126   19.6212 C   0  0  0  0  0  0  0  0  0  0  0  0
  -24.5309  -17.6585   23.4339 C   0  0  0  0  0  0  0  0  0  0  0  0
  -27.6750  -13.1689   19.7785 C   0  0  0  0  0  0  0  0  0  0  0  0
  -23.2005  -17.2160   23.4535 C   0  0  0  0  0  0  0  0  0  0  0  0
  -28.9443  -23.3677   21.0158 C   0  0  0  0  0  0  0  0  0  0  0  0
  -22.4512  -19.4893   23.0286 C   0  0  0  0  0  0  0  0  0  0  0  0
  -29.3385  -21.0527   20.9285 C   0  0  0  0  0  0  0  0  0  0  0  0
  -28.7119  -18.5537   19.8586 C   0  0  0  0  0  0  0  0  0  0  0  0
  -29.4615  -20.8305   19.5570 C   0  0  0  0  0  0  0  0  0  0  0  0
  -26.7497  -26.7091   19.6312 C   0  0  0  0  0  0  0  0  0  0  0  0
  -18.3093  -27.9668   22.2767 C   0  0  0  0  0  0  0  0  0  0  0  0
  -19.6199  -28.2064   22.6076 C   0  0  0  0  0  0  0  0  0  0  0  0
  -25.7126  -28.1910   18.3808 C   0  0  0  0  0  0  0  0  0  0  0  0
  -19.4298  -26.1450   22.2366 C   0  0  0  0  0  0  0  0  0  0  0  0
  -26.7420  -26.3143   17.0897 C   0  0  0  0  0  0  0  0  0  0  0  0
  -17.1668  -28.8024   22.1545 C   0  0  0  0  0  0  0  0  0  0  0  0
  -25.2359  -14.9716   21.8890 C   0  0  0  0  0  0  0  0  0  0  0  0
  -20.5673  -22.6027   22.4347 C   0  0  0  0  0  0  0  0  0  0  0  0
  -23.8364  -13.5826   24.4647 C   0  0  0  0  0  0  0  0  0  0  0  0
  -21.6589  -13.8570   27.0782 C   0  0  0  0  0  0  0  0  0  0  0  0
  -22.4384  -30.6672   22.7396 C   0  0  0  0  0  0  0  0  0  0  0  0
  -26.9798  -10.7204   19.6653 C   0  0  0  0  0  0  0  0  0  0  0  0
  -25.6582  -16.6939   23.6809 C   0  0  0  0  0  0  0  0  0  0  0  0
  -22.8491  -15.7702   23.6866 C   0  0  0  0  0  0  0  0  0  0  0  0
  -25.6671  -11.1544   20.3124 C   0  0  0  0  0  0  0  0  0  0  0  0
  -25.2470  -32.1062   21.0910 C   0  0  0  0  0  0  0  0  0  0  0  0
  -25.2238  -12.5075   19.7651 C   0  0  0  0  0  0  0  0  0  0  0  0
  -25.9214  -30.9143   20.4096 C   0  0  0  0  0  0  0  0  0  0  0  0
  -24.6603  -31.7229   22.4478 C   0  0  0  0  0  0  0  0  0  0  0  0
  -24.4201  -29.3741   21.7411 C   0  0  0  0  0  0  0  0  0  0  0  0
  -26.2557  -13.5963   20.0836 C   0  0  1  0  0  0  0  0  0  0  0  0
  -25.2876  -15.2481   23.3649 C   0  0  1  0  0  0  0  0  0  0  0  0
  -24.9781  -29.6980   20.3446 C   0  0  2  0  0  0  0  0  0  0  0  0
  -15.8445  -28.1728   21.7590 C   0  0  0  0  0  0  0  0  0  0  0  0
  -20.6970  -12.5425   28.9871 C   0  0  0  0  0  0  0  0  0  0  0  0
  -22.0339  -12.0773   22.5166 C   0  0  0  0  0  0  0  0  0  0  0  0
  -20.5191  -11.5456   24.4378 C   0  0  0  0  0  0  0  0  0  0  0  0
  -22.8689  -10.7084   24.4358 C   0  0  0  0  0  0  0  0  0  0  0  0
  -22.7615  -15.7370   29.0804 C   0  0  0  0  0  0  0  0  0  0  0  0
  -20.2711  -29.4776   22.9556 C   0  0  0  0  0  0  0  0  0  0  0  0
  -20.8279  -24.0785   22.2195 C   0  0  0  0  0  0  0  0  0  0  0  0
  -21.8005  -21.7400   22.6198 C   0  0  0  0  0  0  0  0  0  1  0  0
  -22.4298  -13.1679   24.8231 C   0  0  1  0  0  0  0  0  0  0  0  0
  -21.7966  -13.4959   28.5462 C   0  0  2  0  0  0  0  0  0  0  0  0
  -21.9693  -11.9018   24.0470 C   0  0  0  0  0  0  0  0  0  0  0  0
  -26.2805  -27.6094   20.4991 N   0  0  0  0  0  0  0  0  0  0  0  0
  -20.3329  -27.0352   22.5805 N   0  0  0  0  0  0  0  0  0  0  0  0
  -25.6549  -28.4980   19.7084 N   0  0  0  0  0  0  0  0  0  0  0  0
  -23.9867  -14.8645   23.9170 N   0  0  0  0  0  0  0  0  0  0  0  0
  -23.7738  -30.5641   22.3165 N   0  0  0  0  0  0  0  0  0  0  0  0
  -25.1355  -28.9775   17.4477 N   0  0  0  0  0  0  0  0  0  0  0  0
  -27.4824  -25.1280   17.1838 N   0  0  0  0  0  0  0  0  0  0  0  0
  -19.5798  -24.7780   22.0521 N   0  0  0  0  0  0  0  0  0  0  0  0
  -26.1385  -14.0155   21.4638 N   0  0  0  0  0  0  0  0  0  0  0  0
  -22.4048  -13.0210   26.2744 N   0  0  0  0  0  0  0  0  0  0  0  0
  -21.6649  -29.5249   22.5738 N   0  0  0  0  0  0  0  0  0  0  0  0
  -21.7221  -14.7218   29.3903 N   0  3  0  0  0  0  0  0  0  0  0  0
  -26.3925  -26.7319   15.9597 O   0  0  0  0  0  0  0  0  0  0  0  0
  -17.1323  -30.0406   22.3390 O   0  0  0  0  0  0  0  0  0  0  0  0
  -24.4353  -15.5794   21.1880 O   0  0  0  0  0  0  0  0  0  0  0  0
  -19.4343  -22.1239   22.4593 O   0  0  0  0  0  0  0  0  0  0  0  0
  -24.7682  -12.8009   24.6699 O   0  0  0  0  0  0  0  0  0  0  0  0
  -20.9567  -14.7853   26.6836 O   0  0  0  0  0  0  0  0  0  0  0  0
  -21.9687  -31.7025   23.2239 O   0  0  0  0  0  0  0  0  0  0  0  0
  -18.1753  -26.6331   22.0342 O   0  0  0  0  0  0  0  0  0  0  0  0
  -29.6499  -22.2924   21.4613 O   0  0  0  0  0  0  0  0  0  0  0  0
  -21.4382  -20.3755   22.8274 O   0  0  0  0  0  0  0  0  0  1  0  0
  -28.4125  -17.3533   19.3452 F   0  0  0  0  0  0  0  0  0  0  0  0
  -29.8812  -21.8133   18.7484 F   0  0  0  0  0  0  0  0  0  0  0  0
  1  2  1  0  0  0  0
  1  5  2  0  0  0  0
  2  6  2  0  0  0  0
  3  8  2  0  0  0  0
  3 15  1  0  0  0  0
  4  9  1  0  0  0  0
  4 15  2  0  0  0  0
  5 17  1  0  0  0  0
  6 19  1  0  0  0  0
  7 10  2  0  0  0  0
  7 18  1  0  0  0  0
  8 21  1  0  0  0  0
  9 21  2  0  0  0  0
 10 22  1  0  0  0  0
 11 12  2  0  0  0  0
 11 23  1  0  0  0  0
 12 24  1  0  0  0  0
 13 20  1  0  0  0  0
 13 22  2  0  0  0  0
 14 24  2  0  0  0  0
 14 25  1  0  0  0  0
 15 26  1  0  0  0  0
 16 26  1  0  0  0  0
 16 29  2  0  0  0  0
 16 31  1  0  0  0  0
 17 19  2  0  0  0  0
 17 38  1  0  0  0  0
 18 20  2  0  0  0  0
 18 39  1  0  0  0  0
 19 47  1  0  0  0  0
 20 40  1  0  0  0  0
 21 82  1  0  0  0  0
 22 83  1  0  0  0  0
 23 25  2  0  0  0  0
 23 82  1  0  0  0  0
 24 84  1  0  0  0  0
 25 85  1  0  0  0  0
 26 62  2  0  0  0  0
 27 28  2  0  0  0  0
 27 32  1  0  0  0  0
 27 81  1  0  0  0  0
 28 56  1  0  0  0  0
 28 63  1  0  0  0  0
 29 64  1  0  0  0  0
 29 67  1  0  0  0  0
 30 63  2  0  0  0  0
 30 69  1  0  0  0  0
 30 81  1  0  0  0  0
 31 68  1  0  0  0  0
 31 74  2  0  0  0  0
 32 50  1  0  0  0  0
 32 75  2  0  0  0  0
 33 48  1  0  0  0  0
 33 70  1  0  0  0  0
 33 76  2  0  0  0  0
 34 57  1  0  0  0  0
 34 58  1  0  0  0  0
 34 77  2  0  0  0  0
 35 59  1  0  0  0  0
 35 65  1  0  0  0  0
 35 78  2  0  0  0  0
 36 60  1  0  0  0  0
 36 71  1  0  0  0  0
 36 79  2  0  0  0  0
 37 66  1  0  0  0  0
 37 72  1  0  0  0  0
 37 80  2  0  0  0  0
 38 41  1  0  0  0  0
 39 48  1  0  0  0  0
 40 65  1  0  0  0  0
 41 43  1  0  0  0  0
 42 44  1  0  0  0  0
 42 45  1  0  0  0  0
 43 47  1  0  0  0  0
 44 49  1  0  0  0  0
 45 66  1  0  0  0  0
 46 49  1  0  0  0  0
 46 66  1  0  0  0  0
 47 70  1  0  0  0  0
 48 65  1  0  0  0  0
 49 64  1  0  0  0  0
 51 60  1  0  0  0  0
 52 61  1  0  0  0  0
 53 61  1  0  0  0  0
 54 61  1  0  0  0  0
 55 73  1  0  0  0  0
 56 72  1  0  0  0  0
 57 69  1  0  0  0  0
 58 83  1  0  0  0  0
 59 61  1  0  0  0  0
 59 71  1  0  0  0  0
 60 73  1  0  0  0  0
 62 64  1  0  0  0  0
M  CHG  1  73   1
M  ISO  4  37 100  58 101  72 100  83 101
M  END
> <Batch ID>
0164

> <Smiles>
CNC(C)C(=O)NC(C(=O)N1Cc2cc([101O:1][101CH2:1]C(=O)CNc3nc(C[100NH:0][100C:0](=O)N4CCCC(n5nc(-c6ccc(Oc7ccc(F)cc7F)cc6)c(C(N)=O)c5N)C4)c(C(C)=O)o3)ccc2CC1C(=O)NC1CCCc2ccccc21)C(C)(C)C

> <Shape>
0.254

> <Color>
0.072

> <Negative vol penalty>
0.000

$$$$

  -OEChem-04052304023D

 89 97  0     1  0  0  0  0  0999 V2000
  -22.1154  -22.8151   13.7722 C   0  0  0  0  0  0  0  0  0  0  0  0
  -22.2542  -24.0324   14.4314 C   0  0  0  0  0  0  0  0  0  0  0  0
  -19.5565  -29.4579   18.6641 C   0  0  0  0  0  0  0  0  0  0  0  0
  -20.9031  -17.3858   21.5984 C   0  0  0  0  0  0  0  0  0  0  0  0
  -22.6959  -16.9328   23.1534 C   0  0  0  0  0  0  0  0  0  0  0  0
  -22.5694  -21.6421   14.3738 C   0  0  0  0  0  0  0  0  0  0  0  0
  -22.8462  -24.0771   15.6931 C   0  0  0  0  0  0  0  0  0  0  0  0
  -26.3715  -28.5480   17.9492 C   0  0  0  0  0  0  0  0  0  0  0  0
  -20.1331  -29.7115   19.9036 C   0  0  0  0  0  0  0  0  0  0  0  0
  -21.1500  -16.1706   20.9597 C   0  0  0  0  0  0  0  0  0  0  0  0
  -22.9428  -15.7176   22.5147 C   0  0  0  0  0  0  0  0  0  0  0  0
  -26.0986  -29.6195   18.7984 C   0  0  0  0  0  0  0  0  0  0  0  0
  -24.5013  -14.6479   19.7115 C   0  0  0  0  0  0  0  0  0  0  0  0
  -25.8286  -14.3166   19.4397 C   0  0  0  0  0  0  0  0  0  0  0  0
  -26.8631  -28.3160   20.6788 C   0  0  0  0  0  0  0  0  0  0  0  0
  -25.6111  -12.3306   20.7982 C   0  0  0  0  0  0  0  0  0  0  0  0
  -20.3473  -28.8729   17.6883 C   0  0  0  0  0  0  0  0  0  0  0  0
  -21.6761  -17.7669   22.6952 C   0  0  0  0  0  0  0  0  0  0  0  0
  -20.5462  -19.2544   24.4326 C   0  0  0  0  0  0  0  0  0  0  0  0
  -23.1760  -21.6738   15.6394 C   0  0  0  0  0  0  0  0  0  0  0  0
  -26.8828  -27.3466   18.4607 C   0  0  0  0  0  0  0  0  0  0  0  0
  -23.3075  -22.9033   16.3128 C   0  0  0  0  0  0  0  0  0  0  0  0
  -27.1440  -27.2316   19.8336 C   0  0  0  0  0  0  0  0  0  0  0  0
  -21.4642  -29.3770   20.1264 C   0  0  0  0  0  0  0  0  0  0  0  0
  -22.1698  -15.3365   21.4179 C   0  0  0  0  0  0  0  0  0  0  0  0
  -26.3417  -29.5026   20.1638 C   0  0  0  0  0  0  0  0  0  0  0  0
  -23.7288  -13.8206   20.5267 C   0  0  0  0  0  0  0  0  0  0  0  0
  -26.3836  -13.1580   19.9830 C   0  0  0  0  0  0  0  0  0  0  0  0
  -24.2837  -12.6620   21.0701 C   0  0  0  0  0  0  0  0  0  0  0  0
  -21.4219  -19.0224   23.3551 C   0  0  0  0  0  0  0  0  0  0  0  0
  -22.1696  -28.7953   19.0853 C   0  0  0  0  0  0  0  0  0  0  0  0
  -20.6651  -20.5986   24.6884 C   0  0  0  0  0  0  0  0  0  0  0  0
  -23.9980  -31.2955   21.8601 C   0  0  0  0  0  0  0  0  0  0  0  0
  -19.7009  -18.3368   25.1392 C   0  0  0  0  0  0  0  0  0  0  0  0
  -22.6992  -31.0386   21.5983 C   0  0  0  0  0  0  0  0  0  0  0  0
  -25.8626  -24.3379   18.5636 C   0  0  0  0  0  0  0  0  0  0  0  0
  -28.8122  -23.7901   19.7974 C   0  0  0  0  0  0  0  0  0  0  0  0
  -20.8984  -28.2405   23.1574 C   0  0  0  0  0  0  0  0  0  0  0  0
  -31.5393  -25.0189   21.4405 C   0  0  0  0  0  0  0  0  0  0  0  0
  -20.8550  -25.7632   22.9575 C   0  0  0  0  0  0  0  0  0  0  0  0
  -23.6083  -20.3737   16.2699 C   0  0  0  0  0  0  0  0  0  0  0  0
  -27.1970  -26.2094   17.5277 C   0  0  0  0  0  0  0  0  0  0  0  0
  -27.7115  -25.9704   20.4299 C   0  0  0  0  0  0  0  0  0  0  0  0
  -24.5631  -20.5556   17.4471 C   0  0  0  0  0  0  0  0  0  0  0  0
  -23.9919  -23.9984   22.9616 C   0  0  0  0  0  0  0  0  0  0  0  0
  -24.0506  -21.6421   18.3871 C   0  0  0  0  0  0  0  0  0  0  0  0
  -23.5239  -22.5553   23.1620 C   0  0  0  0  0  0  0  0  0  0  0  0
  -23.0356  -24.7674   22.0547 C   0  0  0  0  0  0  0  0  0  0  0  0
  -21.1492  -23.3281   22.7103 C   0  0  0  0  0  0  0  0  0  0  0  0
  -23.9667  -22.9959   17.6719 C   0  0  1  0  0  0  0  0  0  0  0  0
  -27.2331  -24.8545   18.2280 C   0  0  1  0  0  0  0  0  0  0  0  0
  -22.0590  -22.5002   23.6362 C   0  0  1  0  0  0  0  0  0  0  0  0
  -21.7455  -32.1994   21.4347 C   0  0  0  0  0  0  0  0  0  0  0  0
  -25.8049  -30.5036   23.3864 C   0  0  0  0  0  0  0  0  0  0  0  0
  -18.5079  -28.6217   23.7778 C   0  0  0  0  0  0  0  0  0  0  0  0
  -20.3460  -29.0520   25.4565 C   0  0  0  0  0  0  0  0  0  0  0  0
  -33.7763  -24.3227   22.3398 C   0  0  0  0  0  0  0  0  0  0  0  0
  -27.4365  -22.4147   22.1480 C   0  0  0  0  0  0  0  0  0  0  0  0
  -29.5844  -22.5964   23.4214 C   0  0  0  0  0  0  0  0  0  0  0  0
  -29.4923  -21.2565   21.3193 C   0  0  0  0  0  0  0  0  0  0  0  0
  -32.9684  -26.9229   19.6822 C   0  0  0  0  0  0  0  0  0  0  0  0
  -22.1170  -29.6421   21.4686 C   0  0  1  0  0  0  0  0  0  0  0  0
  -25.1234  -30.3156   22.0375 C   0  0  2  0  0  0  0  0  0  1  0  0
  -29.4054  -23.7797   21.1855 C   0  0  1  0  0  0  0  0  0  0  0  0
  -19.8911  -28.1969   24.2729 C   0  0  0  0  0  0  0  0  0  0  0  0
  -33.0253  -24.9042   21.1521 C   0  0  2  0  0  0  0  0  0  0  0  0
  -28.9671  -22.5350   22.0079 C   0  0  0  0  0  0  0  0  0  0  0  0
  -21.6436  -28.5338   17.8677 N   0  0  0  0  0  0  0  0  0  0  0  0
  -22.0506  -20.1304   22.9538 N   0  0  0  0  0  0  0  0  0  0  0  0
  -21.5693  -21.0716   23.7835 N   0  0  0  0  0  0  0  0  0  0  0  0
  -27.9960  -24.8843   19.4776 N   0  0  0  0  0  0  0  0  0  0  0  0
  -21.6668  -24.6929   22.5790 N   0  0  0  0  0  0  0  0  0  0  0  0
  -20.0833  -21.4102   25.5968 N   0  0  0  0  0  0  0  0  0  0  0  0
  -19.7002  -16.9913   24.7469 N   0  0  0  0  0  0  0  0  0  0  0  0
  -25.2816  -23.5896   17.5577 N   0  0  0  0  0  0  0  0  0  0  0  0
  -21.4667  -27.0680   22.8340 N   0  0  0  0  0  0  0  0  0  0  0  0
  -30.8487  -23.9043   21.0137 N   0  0  0  0  0  0  0  0  0  0  0  0
  -21.1720  -29.4073   22.5640 N   0  3  0  0  0  0  0  0  0  0  0  0
  -33.5983  -26.2451   20.8445 N   0  3  0  0  0  0  0  0  0  0  0  0
  -18.9556  -18.7025   26.0797 O   0  0  0  0  0  0  0  0  0  0  0  0
  -25.3695  -24.5977   19.6550 O   0  0  0  0  0  0  0  0  0  0  0  0
  -29.0696  -22.8652   19.0228 O   0  0  0  0  0  0  0  0  0  0  0  0
  -31.0416  -25.9975   21.9928 O   0  0  0  0  0  0  0  0  0  0  0  0
  -19.7125  -25.6699   23.3934 O   0  0  0  0  0  0  0  0  0  0  0  0
  -22.4109  -14.1505   20.7950 O   0  0  0  0  0  0  0  0  0  0  0  0
  -26.0742  -30.5521   20.9993 O   0  0  0  0  0  0  0  0  0  1  0  0
  -27.6578  -12.8391   19.7206 F   0  0  0  0  0  0  0  0  0  0  0  0
  -23.5462  -11.8626   21.8530 F   0  0  0  0  0  0  0  0  0  0  0  0
  -23.4565  -28.4635   19.2786 F   0  0  0  0  0  0  0  0  0  0  0  0
  1  2  1  0  0  0  0
  1  6  2  0  0  0  0
  2  7  2  0  0  0  0
  3  9  2  0  0  0  0
  3 17  1  0  0  0  0
  4 10  2  0  0  0  0
  4 18  1  0  0  0  0
  5 11  1  0  0  0  0
  5 18  2  0  0  0  0
  6 20  1  0  0  0  0
  7 22  1  0  0  0  0
  8 12  2  0  0  0  0
  8 21  1  0  0  0  0
  9 24  1  0  0  0  0
 10 25  1  0  0  0  0
 11 25  2  0  0  0  0
 12 26  1  0  0  0  0
 13 14  2  0  0  0  0
 13 27  1  0  0  0  0
 14 28  1  0  0  0  0
 15 23  1  0  0  0  0
 15 26  2  0  0  0  0
 16 28  2  0  0  0  0
 16 29  1  0  0  0  0
 17 68  2  0  0  0  0
 18 30  1  0  0  0  0
 19 30  1  0  0  0  0
 19 32  2  0  0  0  0
 19 34  1  0  0  0  0
 20 22  2  0  0  0  0
 20 41  1  0  0  0  0
 21 23  2  0  0  0  0
 21 42  1  0  0  0  0
 22 50  1  0  0  0  0
 23 43  1  0  0  0  0
 24 31  2  0  0  0  0
 24 62  1  0  0  0  0
 25 85  1  0  0  0  0
 26 86  1  0  0  0  0
 27 29  2  0  0  0  0
 27 85  1  0  0  0  0
 28 87  1  0  0  0  0
 29 88  1  0  0  0  0
 30 69  2  0  0  0  0
 31 68  1  0  0  0  0
 31 89  1  0  0  0  0
 32 70  1  0  0  0  0
 32 73  1  0  0  0  0
 33 35  2  0  0  0  0
 33 63  1  0  0  0  0
 34 74  1  0  0  0  0
 34 80  2  0  0  0  0
 35 53  1  0  0  0  0
 35 62  1  0  0  0  0
 36 51  1  0  0  0  0
 36 75  1  0  0  0  0
 36 81  2  0  0  0  0
 37 64  1  0  0  0  0
 37 71  1  0  0  0  0
 37 82  2  0  0  0  0
 38 65  1  0  0  0  0
 38 76  1  0  0  0  0
 38 78  2  0  0  0  0
 39 66  1  0  0  0  0
 39 77  1  0  0  0  0
 39 83  2  0  0  0  0
 40 72  1  0  0  0  0
 40 76  1  0  0  0  0
 40 84  2  0  0  0  0
 41 44  1  0  0  0  0
 42 51  1  0  0  0  0
 43 71  1  0  0  0  0
 44 46  1  0  0  0  0
 45 47  1  0  0  0  0
 45 48  1  0  0  0  0
 46 50  1  0  0  0  0
 47 52  1  0  0  0  0
 48 72  1  0  0  0  0
 49 52  1  0  0  0  0
 49 72  1  0  0  0  0
 50 75  1  0  0  0  0
 51 71  1  0  0  0  0
 52 70  1  0  0  0  0
 54 63  1  0  0  0  0
 55 65  1  0  0  0  0
 56 65  1  0  0  0  0
 57 66  1  0  0  0  0
 58 67  1  0  0  0  0
 59 67  1  0  0  0  0
 60 67  1  0  0  0  0
 61 79  1  0  0  0  0
 62 78  1  0  0  0  0
 63 86  1  0  0  0  0
 64 67  1  0  0  0  0
 64 77  1  0  0  0  0
 66 79  1  0  0  0  0
 69 70  1  0  0  0  0
M  CHG  2  78   1  79   1
M  ISO  4  40 100  63 101  76 100  86 101
M  END
> <Batch ID>
0164

> <Smiles>
CNC(C)C(=O)NC(C(=O)N1Cc2cc([101O:1][101CH:1](C)C=C(C)C(N=C([100NH:0][100C:0](=O)N3CCCC(n4nc(-c5ccc(Oc6ccc(F)cc6F)cc5)c(C(N)=O)c4N)C3)C(C)C)c3cccnc3F)ccc2CC1C(=O)NC1CCCc2ccccc21)C(C)(C)C

> <Shape>
0.187

> <Color>
0.063

> <Negative vol penalty>
0.000

$$$$

  -OEChem-04052304023D

 91 99  0     1  0  0  0  0  0999 V2000
  -27.9943  -24.8076   13.7163 C   0  0  0  0  0  0  0  0  0  0  0  0
  -26.9810  -24.8502   14.6686 C   0  0  0  0  0  0  0  0  0  0  0  0
  -27.8706  -12.7917   22.5790 C   0  0  0  0  0  0  0  0  0  0  0  0
  -26.8895  -12.9139   20.3746 C   0  0  0  0  0  0  0  0  0  0  0  0
  -29.3167  -25.0325   14.0966 C   0  0  0  0  0  0  0  0  0  0  0  0
  -27.2897  -25.1165   16.0021 C   0  0  0  0  0  0  0  0  0  0  0  0
  -24.1168  -28.4593   18.1005 C   0  0  0  0  0  0  0  0  0  0  0  0
  -27.3023  -11.5311   22.7620 C   0  0  0  0  0  0  0  0  0  0  0  0
  -26.3213  -11.6533   20.5575 C   0  0  0  0  0  0  0  0  0  0  0  0
  -22.8641  -27.9890   18.4920 C   0  0  0  0  0  0  0  0  0  0  0  0
  -23.6543  -10.3317   22.1612 C   0  0  0  0  0  0  0  0  0  0  0  0
  -22.3207  -10.1618   21.7895 C   0  0  0  0  0  0  0  0  0  0  0  0
  -23.6364  -27.8484   20.7730 C   0  0  0  0  0  0  0  0  0  0  0  0
  -23.2244  -21.5365   18.9906 C   0  0  0  0  0  0  0  0  0  0  0  0
  -22.9779   -8.4531   20.2128 C   0  0  0  0  0  0  0  0  0  0  0  0
  -27.6641  -13.4832   21.3853 C   0  0  0  0  0  0  0  0  0  0  0  0
  -22.0081  -21.2308   16.9256 C   0  0  0  0  0  0  0  0  0  0  0  0
  -29.5144  -15.0776   20.6493 C   0  0  0  0  0  0  0  0  0  0  0  0
  -29.6406  -25.3113   15.4337 C   0  0  0  0  0  0  0  0  0  0  0  0
  -25.1438  -28.6175   19.0421 C   0  0  0  0  0  0  0  0  0  0  0  0
  -28.6179  -25.3440   16.4008 C   0  0  0  0  0  0  0  0  0  0  0  0
  -24.9005  -28.3232   20.3913 C   0  0  0  0  0  0  0  0  0  0  0  0
  -22.9205  -20.2514   16.5332 C   0  0  0  0  0  0  0  0  0  0  0  0
  -23.9848  -19.9146   17.3695 C   0  0  0  0  0  0  0  0  0  0  0  0
  -22.1601  -21.8734   18.1543 C   0  0  0  0  0  0  0  0  0  0  0  0
  -24.1368  -20.5571   18.5981 C   0  0  0  0  0  0  0  0  0  0  0  0
  -26.5277  -10.9618   21.7513 C   0  0  0  0  0  0  0  0  0  0  0  0
  -22.6246  -27.6807   19.8279 C   0  0  0  0  0  0  0  0  0  0  0  0
  -24.6498   -9.5623   21.5587 C   0  0  0  0  0  0  0  0  0  0  0  0
  -21.9825   -9.2225   20.8153 C   0  0  0  0  0  0  0  0  0  0  0  0
  -24.3115   -8.6231   20.5846 C   0  0  0  0  0  0  0  0  0  0  0  0
  -28.2504  -14.7857   21.1959 C   0  0  0  0  0  0  0  0  0  0  0  0
  -29.5969  -16.4481   20.6877 C   0  0  0  0  0  0  0  0  0  0  0  0
  -20.8945  -21.5821   16.0484 C   0  0  0  0  0  0  0  0  0  0  0  0
  -30.5238  -14.1894   20.1513 C   0  0  0  0  0  0  0  0  0  0  0  0
  -28.0292  -27.3476   19.4491 C   0  0  0  0  0  0  0  0  0  0  0  0
  -20.2227  -24.5446   19.9506 C   0  0  0  0  0  0  0  0  0  0  0  0
  -28.2280  -29.5360   21.8353 C   0  0  0  0  0  0  0  0  0  0  0  0
  -26.6059  -31.5366   24.0742 C   0  0  0  0  0  0  0  0  0  0  0  0
  -25.4873  -20.7858   20.7124 C   0  0  0  0  0  0  0  0  0  0  0  0
  -31.0900  -25.5009   15.8051 C   0  0  0  0  0  0  0  0  0  0  0  0
  -26.4814  -29.1512   18.6081 C   0  0  0  0  0  0  0  0  0  0  0  0
  -25.9633  -28.4950   21.4446 C   0  0  0  0  0  0  0  0  0  0  0  0
  -31.2886  -26.1469   17.1739 C   0  0  0  0  0  0  0  0  0  0  0  0
  -28.0087  -20.2273   23.1635 C   0  0  0  0  0  0  0  0  0  0  0  0
  -30.3907  -25.4828   18.2129 C   0  0  0  0  0  0  0  0  0  0  0  0
  -28.4761  -18.7972   22.8834 C   0  0  0  0  0  0  0  0  0  0  0  0
  -26.5053  -20.3859   22.9437 C   0  0  0  0  0  0  0  0  0  0  0  0
  -26.4856  -18.5039   21.3541 C   0  0  0  0  0  0  0  0  0  0  0  0
  -28.9100  -25.6543   17.8529 C   0  0  1  0  0  0  0  0  0  0  0  0
  -27.6103  -28.7858   19.5670 C   0  0  1  0  0  0  0  0  0  0  0  0
  -28.0039  -18.3109   21.4992 C   0  0  2  0  0  0  0  0  0  0  0  0
  -24.9624  -18.8625   16.9473 C   0  0  0  0  0  0  0  0  0  0  0  0
  -21.1222  -22.6804   15.0550 C   0  0  0  0  0  0  0  0  0  0  0  0
  -23.7343  -20.0822   14.1677 C   0  0  0  0  0  0  0  0  0  0  0  0
  -27.0373  -33.1828   25.9184 C   0  0  0  0  0  0  0  0  0  0  0  0
  -20.0371  -24.5181   22.4767 C   0  0  0  0  0  0  0  0  0  0  0  0
  -28.9584  -27.2415   23.7093 C   0  0  0  0  0  0  0  0  0  0  0  0
  -28.4455  -28.7487   25.6415 C   0  0  0  0  0  0  0  0  0  0  0  0
  -30.2817  -29.3347   24.0579 C   0  0  0  0  0  0  0  0  0  0  0  0
  -25.2122  -33.7058   22.6212 C   0  0  0  0  0  0  0  0  0  0  0  0
  -22.7601  -19.5578   15.2165 C   0  0  0  0  0  0  0  0  0  0  0  0
  -21.3650  -23.5519   19.8205 C   0  0  0  0  0  0  0  0  0  0  0  0
  -21.3646  -26.3382   21.3332 C   0  0  0  0  0  0  0  0  0  1  0  0
  -27.8783  -29.5512   23.3037 C   0  0  1  0  0  0  0  0  0  0  0  0
  -26.7844  -33.0016   24.4298 C   0  0  2  0  0  0  0  0  0  0  0  0
  -20.1611  -25.3951   21.2302 C   0  0  1  0  0  0  0  0  0  0  0  0
  -28.8713  -28.7138   24.1582 C   0  0  0  0  0  0  0  0  0  0  0  0
  -27.5782  -15.8825   21.5553 N   0  0  0  0  0  0  0  0  0  0  0  0
  -28.4231  -16.8770   21.2340 N   0  0  0  0  0  0  0  0  0  0  0  0
  -27.2566  -29.0138   20.9695 N   0  0  0  0  0  0  0  0  0  0  0  0
  -26.1319  -19.9089   21.6103 N   0  0  0  0  0  0  0  0  0  0  0  0
  -30.5583  -17.3161   20.3072 N   0  0  0  0  0  0  0  0  0  0  0  0
  -30.2763  -12.8103   20.1858 N   0  0  0  0  0  0  0  0  0  0  0  0
  -25.2105  -20.2310   19.4634 N   0  0  0  0  0  0  0  0  0  0  0  0
  -21.2653  -22.8498   18.5642 N   0  0  0  0  0  0  0  0  0  0  0  0
  -28.4601  -26.9889   18.1861 N   0  0  0  0  0  0  0  0  0  0  0  0
  -27.7957  -30.9559   23.6891 N   0  0  0  0  0  0  0  0  0  0  0  0
  -18.9235  -26.2507   21.1863 N   0  3  0  0  0  0  0  0  0  0  0  0
  -25.5652  -33.7760   24.0625 N   0  3  0  0  0  0  0  0  0  0  0  0
  -19.7886  -21.0459   16.0716 O   0  0  0  0  0  0  0  0  0  0  0  0
  -31.6196  -14.6055   19.7046 O   0  0  0  0  0  0  0  0  0  0  0  0
  -27.9675  -26.6178   20.4316 O   0  0  0  0  0  0  0  0  0  0  0  0
  -19.3787  -24.6722   19.0604 O   0  0  0  0  0  0  0  0  0  0  0  0
  -29.3200  -29.9778   21.4690 O   0  0  0  0  0  0  0  0  0  0  0  0
  -25.5203  -30.9637   24.1357 O   0  0  0  0  0  0  0  0  0  0  0  0
  -25.2263  -21.9520   21.0189 O   0  0  0  0  0  0  0  0  0  0  0  0
  -25.9732   -9.7316   21.9295 O   0  0  0  0  0  0  0  0  0  0  0  0
  -21.4029  -27.2209   20.2126 O   0  0  0  0  0  0  0  0  0  1  0  0
  -20.7016   -9.0584   20.4595 F   0  0  0  0  0  0  0  0  0  0  0  0
  -25.2633   -7.8802   20.0031 F   0  0  0  0  0  0  0  0  0  0  0  0
  1  2  1  0  0  0  0
  1  5  2  0  0  0  0
  2  6  2  0  0  0  0
  3  8  2  0  0  0  0
  3 16  1  0  0  0  0
  4  9  1  0  0  0  0
  4 16  2  0  0  0  0
  5 19  1  0  0  0  0
  6 21  1  0  0  0  0
  7 10  2  0  0  0  0
  7 20  1  0  0  0  0
  8 27  1  0  0  0  0
  9 27  2  0  0  0  0
 10 28  1  0  0  0  0
 11 12  2  0  0  0  0
 11 29  1  0  0  0  0
 12 30  1  0  0  0  0
 13 22  1  0  0  0  0
 13 28  2  0  0  0  0
 14 25  2  0  0  0  0
 14 26  1  0  0  0  0
 15 30  2  0  0  0  0
 15 31  1  0  0  0  0
 16 32  1  0  0  0  0
 17 23  2  0  0  0  0
 17 25  1  0  0  0  0
 17 34  1  0  0  0  0
 18 32  1  0  0  0  0
 18 33  2  0  0  0  0
 18 35  1  0  0  0  0
 19 21  2  0  0  0  0
 19 41  1  0  0  0  0
 20 22  2  0  0  0  0
 20 42  1  0  0  0  0
 21 50  1  0  0  0  0
 22 43  1  0  0  0  0
 23 24  1  0  0  0  0
 23 62  1  0  0  0  0
 24 26  2  0  0  0  0
 24 53  1  0  0  0  0
 25 76  1  0  0  0  0
 26 75  1  0  0  0  0
 27 88  1  0  0  0  0
 28 89  1  0  0  0  0
 29 31  2  0  0  0  0
 29 88  1  0  0  0  0
 30 90  1  0  0  0  0
 31 91  1  0  0  0  0
 32 69  2  0  0  0  0
 33 70  1  0  0  0  0
 33 73  1  0  0  0  0
 34 54  1  0  0  0  0
 34 81  2  0  0  0  0
 35 74  1  0  0  0  0
 35 82  2  0  0  0  0
 36 51  1  0  0  0  0
 36 77  1  0  0  0  0
 36 83  2  0  0  0  0
 37 63  1  0  0  0  0
 37 67  1  0  0  0  0
 37 84  2  0  0  0  0
 38 65  1  0  0  0  0
 38 71  1  0  0  0  0
 38 85  2  0  0  0  0
 39 66  1  0  0  0  0
 39 78  1  0  0  0  0
 39 86  2  0  0  0  0
 40 72  1  0  0  0  0
 40 75  1  0  0  0  0
 40 87  2  0  0  0  0
 41 44  1  0  0  0  0
 42 51  1  0  0  0  0
 43 71  1  0  0  0  0
 44 46  1  0  0  0  0
 45 47  1  0  0  0  0
 45 48  1  0  0  0  0
 46 50  1  0  0  0  0
 47 52  1  0  0  0  0
 48 72  1  0  0  0  0
 49 52  1  0  0  0  0
 49 72  1  0  0  0  0
 50 77  1  0  0  0  0
 51 71  1  0  0  0  0
 52 70  1  0  0  0  0
 55 62  1  0  0  0  0
 56 66  1  0  0  0  0
 57 67  1  0  0  0  0
 58 68  1  0  0  0  0
 59 68  1  0  0  0  0
 60 68  1  0  0  0  0
 61 80  1  0  0  0  0
 63 76  1  0  0  0  0
 64 67  1  0  0  0  0
 64 89  1  0  0  0  0
 65 68  1  0  0  0  0
 65 78  1  0  0  0  0
 66 80  1  0  0  0  0
 67 79  1  0  0  0  0
 69 70  1  0  0  0  0
M  CHG  2  79   1  80   1
M  ISO  4  40 100  64 101  75 100  89 101
M  END
> <Batch ID>
0164

> <Smiles>
CCc1c(C)c([100NH:0][100C:0](=O)N2CCCC(n3nc(-c4ccc(Oc5ccc(F)cc5F)cc4)c(C(N)=O)c3N)C2)cc(NCC(=O)C(C)(N)[101CH2:1][101O:1]c2ccc3c(c2)CN(C(=O)C(NC(=O)C(C)NC)C(C)(C)C)C(C(=O)NC2CCCc4ccccc42)C3)c1C(C)=O

> <Shape>
0.220

> <Color>
0.091

> <Negative vol penalty>
0.000

$$$$

  -OEChem-04052304023D

 90 98  0     1  0  0  0  0  0999 V2000
  -17.5699  -26.0809   22.6535 C   0  0  0  0  0  0  0  0  0  0  0  0
  -18.8712  -25.6068   22.5229 C   0  0  0  0  0  0  0  0  0  0  0  0
  -23.4959  -10.6144   22.9255 C   0  0  0  0  0  0  0  0  0  0  0  0
  -25.3387  -11.3960   24.2784 C   0  0  0  0  0  0  0  0  0  0  0  0
  -17.2786  -27.4088   22.3442 C   0  0  0  0  0  0  0  0  0  0  0  0
  -19.8820  -26.4601   22.0819 C   0  0  0  0  0  0  0  0  0  0  0  0
  -25.7491  -26.4338   23.8376 C   0  0  0  0  0  0  0  0  0  0  0  0
  -23.0880   -9.7779   23.9644 C   0  0  0  0  0  0  0  0  0  0  0  0
  -24.9307  -10.5595   25.3173 C   0  0  0  0  0  0  0  0  0  0  0  0
  -26.8986  -25.8963   23.2601 C   0  0  0  0  0  0  0  0  0  0  0  0
  -23.9929   -6.7885   25.2562 C   0  0  0  0  0  0  0  0  0  0  0  0
  -23.6420   -5.4779   24.9323 C   0  0  0  0  0  0  0  0  0  0  0  0
  -27.3943  -28.0385   22.2677 C   0  0  0  0  0  0  0  0  0  0  0  0
  -31.2030  -16.9474   16.7023 C   0  0  0  0  0  0  0  0  0  0  0  0
  -21.4209   -5.8571   25.8041 C   0  0  0  0  0  0  0  0  0  0  0  0
  -24.6214  -11.4235   23.0824 C   0  0  0  0  0  0  0  0  0  0  0  0
  -24.6455  -13.6186   21.7830 C   0  0  0  0  0  0  0  0  0  0  0  0
  -18.2882  -28.2815   21.9084 C   0  0  0  0  0  0  0  0  0  0  0  0
  -25.4072  -27.7771   23.6253 C   0  0  0  0  0  0  0  0  0  0  0  0
  -19.6038  -27.8007   21.7652 C   0  0  0  0  0  0  0  0  0  0  0  0
  -26.2413  -28.5912   22.8458 C   0  0  0  0  0  0  0  0  0  0  0  0
  -31.5214  -18.3349   16.6425 C   0  0  0  0  0  0  0  0  0  0  0  0
  -23.8053   -9.7505   25.1603 C   0  0  0  0  0  0  0  0  0  0  0  0
  -27.7199  -26.6979   22.4726 C   0  0  0  0  0  0  0  0  0  0  0  0
  -23.0578   -7.6334   25.8541 C   0  0  0  0  0  0  0  0  0  0  0  0
  -22.3561   -5.0122   25.2062 C   0  0  0  0  0  0  0  0  0  0  0  0
  -21.7718   -7.1677   26.1280 C   0  0  0  0  0  0  0  0  0  0  0  0
  -25.0436  -12.2874   22.0094 C   0  0  0  0  0  0  0  0  0  0  0  0
  -25.3224  -13.9909   20.6473 C   0  0  0  0  0  0  0  0  0  0  0  0
  -30.3404  -16.6585   17.7367 C   0  0  0  0  0  0  0  0  0  0  0  0
  -30.8897  -19.0538   17.6336 C   0  0  0  0  0  0  0  0  0  0  0  0
  -23.7445  -14.4447   22.5322 C   0  0  0  0  0  0  0  0  0  0  0  0
  -22.9495  -29.2809   22.2829 C   0  0  0  0  0  0  0  0  0  0  0  0
  -24.4530  -31.9245   23.4111 C   0  0  0  0  0  0  0  0  0  0  0  0
  -29.7297  -24.5005   20.4038 C   0  0  0  0  0  0  0  0  0  0  0  0
  -27.3618  -33.3908   24.4289 C   0  0  0  0  0  0  0  0  0  0  0  0
  -30.2456  -21.0905   18.9734 C   0  0  0  0  0  0  0  0  0  0  0  0
  -29.9694  -14.1714   17.5853 C   0  0  0  0  0  0  0  0  0  0  0  0
  -17.9162  -29.6960   21.5407 C   0  0  0  0  0  0  0  0  0  0  0  0
  -24.1780  -28.3486   24.2772 C   0  0  0  0  0  0  0  0  0  0  0  0
  -25.9294  -30.0447   22.6038 C   0  0  0  0  0  0  0  0  0  0  0  0
  -19.1159  -30.6344   21.4382 C   0  0  0  0  0  0  0  0  0  0  0  0
  -27.9801  -11.2285   17.3417 C   0  0  0  0  0  0  0  0  0  0  0  0
  -20.2356  -29.9833   20.6326 C   0  0  0  0  0  0  0  0  0  0  0  0
  -27.0061  -11.3511   18.5157 C   0  0  0  0  0  0  0  0  0  0  0  0
  -29.3664  -11.7633   17.6967 C   0  0  0  0  0  0  0  0  0  0  0  0
  -28.4113  -13.2505   19.4128 C   0  0  0  0  0  0  0  0  0  0  0  0
  -20.7322  -28.7022   21.3135 C   0  0  1  0  0  0  0  0  0  0  0  0
  -23.6530  -29.5957   23.5727 C   0  0  1  0  0  0  0  0  0  0  0  0
  -26.9840  -12.7843   19.0823 C   0  0  2  0  0  0  0  0  0  0  0  0
  -30.6105  -19.4229   13.8913 C   0  0  0  0  0  0  0  0  0  0  0  0
  -33.8673  -18.3740   15.7561 C   0  0  0  0  0  0  0  0  0  0  0  0
  -28.2830  -35.5729   25.2579 C   0  0  0  0  0  0  0  0  0  0  0  0
  -30.0837  -23.2632   17.6815 C   0  0  0  0  0  0  0  0  0  0  0  0
  -32.0029  -22.8954   19.2768 C   0  0  0  0  0  0  0  0  0  0  0  0
  -24.3354  -33.0482   20.5768 C   0  0  0  0  0  0  0  0  0  0  0  0
  -26.0609  -34.7335   21.2480 C   0  0  0  0  0  0  0  0  0  0  0  0
  -23.8376  -34.7092   22.3790 C   0  0  0  0  0  0  0  0  0  0  0  0
  -28.2230  -32.1867   26.9916 C   0  0  0  0  0  0  0  0  0  0  0  0
  -28.8175  -24.7876   21.5773 C   0  0  0  0  0  0  0  0  0  1  0  0
  -31.9494  -18.7456   14.1572 C   0  0  0  0  0  0  0  0  0  0  0  0
  -32.4276  -18.9247   15.6281 C   0  0  1  0  0  0  0  0  0  0  0  0
  -25.5002  -32.8700   22.8740 C   0  0  1  0  0  0  0  0  0  0  0  0
  -27.6943  -34.2271   25.6514 C   0  0  2  0  0  0  0  0  0  0  0  0
  -30.5250  -22.6111   18.9955 C   0  0  0  0  0  0  0  0  0  0  0  0
  -24.9386  -33.8124   21.7722 C   0  0  0  0  0  0  0  0  0  0  0  0
  -25.9064  -11.8439   21.0912 N   0  0  0  0  0  0  0  0  0  0  0  0
  -26.0560  -12.9024   20.2768 N   0  0  0  0  0  0  0  0  0  0  0  0
  -24.7132  -30.5554   23.2576 N   0  0  0  0  0  0  0  0  0  0  0  0
  -29.2675  -13.1265   18.2227 N   0  0  0  0  0  0  0  0  0  0  0  0
  -25.3557  -15.1400   19.9395 N   0  0  0  0  0  0  0  0  0  0  0  0
  -23.1350  -13.9048   23.6730 N   0  0  0  0  0  0  0  0  0  0  0  0
  -30.9173  -20.4351   17.9446 N   0  0  0  0  0  0  0  0  0  0  0  0
  -29.7732  -15.4291   18.1546 N   0  0  0  0  0  0  0  0  0  0  0  0
  -21.5992  -29.0249   22.4265 N   0  0  0  0  0  0  0  0  0  0  0  0
  -26.0534  -33.5661   24.0307 N   0  0  0  0  0  0  0  0  0  0  0  0
  -29.7360  -23.1534   20.0774 N   0  0  0  0  0  0  0  0  0  0  0  0
  -28.6813  -33.5161   26.5125 N   0  3  0  0  0  0  0  0  0  0  0  0
  -23.4749  -15.6212   22.1907 O   0  0  0  0  0  0  0  0  0  0  0  0
  -23.5844  -29.2724   21.2348 O   0  0  0  0  0  0  0  0  0  0  0  0
  -23.4448  -32.3838   23.9535 O   0  0  0  0  0  0  0  0  0  0  0  0
  -30.3735  -25.3766   19.8330 O   0  0  0  0  0  0  0  0  0  0  0  0
  -28.1819  -32.6583   23.8798 O   0  0  0  0  0  0  0  0  0  0  0  0
  -29.5000  -20.5652   19.7983 O   0  0  0  0  0  0  0  0  0  0  0  0
  -30.6699  -13.9699   16.5899 O   0  0  0  0  0  0  0  0  0  0  0  0
  -23.4074   -8.9345   26.1744 O   0  0  0  0  0  0  0  0  0  0  0  0
  -28.8421  -26.1757   21.9072 O   0  0  0  0  0  0  0  0  0  1  0  0
  -22.0188   -3.7542   24.8937 F   0  0  0  0  0  0  0  0  0  0  0  0
  -20.8687   -7.9750   26.7012 F   0  0  0  0  0  0  0  0  0  0  0  0
  -29.9178  -18.0568   18.6304 S   0  0  0  0  0  0  0  0  0  0  0  0
  1  2  1  0  0  0  0
  1  5  2  0  0  0  0
  2  6  2  0  0  0  0
  3  8  2  0  0  0  0
  3 16  1  0  0  0  0
  4  9  1  0  0  0  0
  4 16  2  0  0  0  0
  5 18  1  0  0  0  0
  6 20  1  0  0  0  0
  7 10  2  0  0  0  0
  7 19  1  0  0  0  0
  8 23  1  0  0  0  0
  9 23  2  0  0  0  0
 10 24  1  0  0  0  0
 11 12  2  0  0  0  0
 11 25  1  0  0  0  0
 12 26  1  0  0  0  0
 13 21  1  0  0  0  0
 13 24  2  0  0  0  0
 14 22  1  0  0  0  0
 14 30  2  0  0  0  0
 15 26  2  0  0  0  0
 15 27  1  0  0  0  0
 16 28  1  0  0  0  0
 17 28  1  0  0  0  0
 17 29  2  0  0  0  0
 17 32  1  0  0  0  0
 18 20  2  0  0  0  0
 18 39  1  0  0  0  0
 19 21  2  0  0  0  0
 19 40  1  0  0  0  0
 20 48  1  0  0  0  0
 21 41  1  0  0  0  0
 22 31  2  0  0  0  0
 22 62  1  0  0  0  0
 23 86  1  0  0  0  0
 24 87  1  0  0  0  0
 25 27  2  0  0  0  0
 25 86  1  0  0  0  0
 26 88  1  0  0  0  0
 27 89  1  0  0  0  0
 28 67  2  0  0  0  0
 29 68  1  0  0  0  0
 29 71  1  0  0  0  0
 30 74  1  0  0  0  0
 30 90  1  0  0  0  0
 31 73  1  0  0  0  0
 31 90  1  0  0  0  0
 32 72  1  0  0  0  0
 32 79  2  0  0  0  0
 33 49  1  0  0  0  0
 33 75  1  0  0  0  0
 33 80  2  0  0  0  0
 34 63  1  0  0  0  0
 34 69  1  0  0  0  0
 34 81  2  0  0  0  0
 35 60  1  0  0  0  0
 35 77  1  0  0  0  0
 35 82  2  0  0  0  0
 36 64  1  0  0  0  0
 36 76  1  0  0  0  0
 36 83  2  0  0  0  0
 37 65  1  0  0  0  0
 37 73  1  0  0  0  0
 37 84  2  0  0  0  0
 38 70  1  0  0  0  0
 38 74  1  0  0  0  0
 38 85  2  0  0  0  0
 39 42  1  0  0  0  0
 40 49  1  0  0  0  0
 41 69  1  0  0  0  0
 42 44  1  0  0  0  0
 43 45  1  0  0  0  0
 43 46  1  0  0  0  0
 44 48  1  0  0  0  0
 45 50  1  0  0  0  0
 46 70  1  0  0  0  0
 47 50  1  0  0  0  0
 47 70  1  0  0  0  0
 48 75  1  0  0  0  0
 49 69  1  0  0  0  0
 50 68  1  0  0  0  0
 51 61  1  0  0  0  0
 52 62  1  0  0  0  0
 53 64  1  0  0  0  0
 54 65  1  0  0  0  0
 55 65  1  0  0  0  0
 56 66  1  0  0  0  0
 57 66  1  0  0  0  0
 58 66  1  0  0  0  0
 59 78  1  0  0  0  0
 60 87  1  0  0  0  0
 61 62  1  0  0  0  0
 63 66  1  0  0  0  0
 63 76  1  0  0  0  0
 64 78  1  0  0  0  0
 65 77  1  0  0  0  0
 67 68  1  0  0  0  0
M  CHG  1  78   1
M  ISO  4  38 100  60 101  74 100  87 101
M  END
> <Batch ID>
0164

> <Smiles>
CCC(C)c1cc([100NH:0][100C:0](=O)N2CCCC(n3nc(-c4ccc(Oc5ccc(F)cc5F)cc4)c(C(N)=O)c3N)C2)sc1NC(=O)C(C)(C)NC(=O)[101CH2:1][101O:1]c1ccc2c(c1)CN(C(=O)C(NC(=O)C(C)NC)C(C)(C)C)C(C(=O)NC1CCCc3ccccc31)C2

> <Shape>
0.266

> <Color>
0.143

> <Negative vol penalty>
0.000

$$$$

  -OEChem-04052304023D

 89 98  0     1  0  0  0  0  0999 V2000
  -25.1225  -20.3529   14.4524 C   0  0  0  0  0  0  0  0  0  0  0  0
  -25.9303  -19.6262   15.3211 C   0  0  0  0  0  0  0  0  0  0  0  0
  -24.4865  -31.5308   20.8328 C   0  0  0  0  0  0  0  0  0  0  0  0
  -25.0766  -30.5634   22.9666 C   0  0  0  0  0  0  0  0  0  0  0  0
  -23.7896  -20.5966   14.7812 C   0  0  0  0  0  0  0  0  0  0  0  0
  -25.4061  -19.1436   16.5197 C   0  0  0  0  0  0  0  0  0  0  0  0
  -26.7385  -14.3435   17.4302 C   0  0  0  0  0  0  0  0  0  0  0  0
  -23.8860  -32.6067   21.4866 C   0  0  0  0  0  0  0  0  0  0  0  0
  -24.4760  -31.6393   23.6204 C   0  0  0  0  0  0  0  0  0  0  0  0
  -28.0274  -14.1211   17.9127 C   0  0  0  0  0  0  0  0  0  0  0  0
  -24.8711  -35.4579   23.0140 C   0  0  0  0  0  0  0  0  0  0  0  0
  -25.1392  -36.7397   22.5340 C   0  0  0  0  0  0  0  0  0  0  0  0
  -27.7996  -20.4844   20.9353 C   0  0  0  0  0  0  0  0  0  0  0  0
  -27.1476  -13.9124   20.1492 C   0  0  0  0  0  0  0  0  0  0  0  0
  -29.5573  -22.1294   21.0495 C   0  0  0  0  0  0  0  0  0  0  0  0
  -22.7844  -37.0727   22.1079 C   0  0  0  0  0  0  0  0  0  0  0  0
  -25.0818  -30.5092   21.5728 C   0  0  0  0  0  0  0  0  0  0  0  0
  -27.0428  -29.2962   20.4816 C   0  0  0  0  0  0  0  0  0  0  0  0
  -23.2462  -20.1085   15.9800 C   0  0  0  0  0  0  0  0  0  0  0  0
  -25.6439  -14.3629   18.3065 C   0  0  0  0  0  0  0  0  0  0  0  0
  -24.0651  -19.3822   16.8656 C   0  0  0  0  0  0  0  0  0  0  0  0
  -28.6681  -19.5086   21.4454 C   0  0  0  0  0  0  0  0  0  0  0  0
  -25.8455  -14.1327   19.6749 C   0  0  0  0  0  0  0  0  0  0  0  0
  -30.0065  -19.8367   21.7365 C   0  0  0  0  0  0  0  0  0  0  0  0
  -28.2435  -21.7907   20.7411 C   0  0  0  0  0  0  0  0  0  0  0  0
  -23.8807  -32.6610   22.8804 C   0  0  0  0  0  0  0  0  0  0  0  0
  -28.2325  -13.9084   19.2728 C   0  0  0  0  0  0  0  0  0  0  0  0
  -23.5596  -34.9833   23.0410 C   0  0  0  0  0  0  0  0  0  0  0  0
  -24.0959  -37.5471   22.0809 C   0  0  0  0  0  0  0  0  0  0  0  0
  -30.4309  -21.1599   21.5448 C   0  0  0  0  0  0  0  0  0  0  0  0
  -22.5163  -35.7907   22.5879 C   0  0  0  0  0  0  0  0  0  0  0  0
  -25.7018  -29.3973   20.8980 C   0  0  0  0  0  0  0  0  0  0  0  0
  -27.1282  -28.0563   19.8968 C   0  0  0  0  0  0  0  0  0  0  0  0
  -28.1154  -30.2387   20.6118 C   0  0  0  0  0  0  0  0  0  0  0  0
  -30.9368  -16.7877   21.0968 C   0  0  0  0  0  0  0  0  0  0  0  0
  -23.4854  -16.5379   19.1517 C   0  0  0  0  0  0  0  0  0  0  0  0
  -22.1824  -14.0477   20.7715 C   0  0  0  0  0  0  0  0  0  0  0  0
  -22.6273  -11.0094   22.2605 C   0  0  0  0  0  0  0  0  0  0  0  0
  -26.0238  -22.5990   19.8659 C   0  0  0  0  0  0  0  0  0  0  0  0
  -21.8128  -20.4378   16.3144 C   0  0  0  0  0  0  0  0  0  0  0  0
  -24.2565  -14.5777   17.7665 C   0  0  0  0  0  0  0  0  0  0  0  0
  -28.1748  -18.0962   21.6325 C   0  0  0  0  0  0  0  0  0  0  0  0
  -24.7015  -14.1234   20.6545 C   0  0  0  0  0  0  0  0  0  0  0  0
  -21.2330  -19.5713   17.4293 C   0  0  0  0  0  0  0  0  0  0  0  0
  -29.0347  -17.3335   22.6424 C   0  0  0  0  0  0  0  0  0  0  0  0
  -23.5036  -24.7707   18.5972 C   0  0  0  0  0  0  0  0  0  0  0  0
  -22.2105  -19.4787   18.5967 C   0  0  0  0  0  0  0  0  0  0  0  0
  -23.9611  -26.1596   19.0484 C   0  0  0  0  0  0  0  0  0  0  0  0
  -23.8088  -23.7041   19.6474 C   0  0  0  0  0  0  0  0  0  0  0  0
  -25.6620  -25.0509   20.5534 C   0  0  0  0  0  0  0  0  0  0  0  0
  -23.5263  -18.8210   18.1636 C   0  0  1  0  0  0  0  0  0  0  0  0
  -30.5253  -17.4941   22.3529 C   0  0  2  0  0  0  0  0  0  0  0  0
  -23.2776  -15.0873   18.8198 C   0  0  1  0  0  0  0  0  0  0  0  0
  -25.4345  -26.1482   19.5008 C   0  0  2  0  0  0  0  0  0  0  0  0
  -21.3855   -9.2386   23.5332 C   0  0  0  0  0  0  0  0  0  0  0  0
  -22.2467  -15.8005   23.2682 C   0  0  0  0  0  0  0  0  0  0  0  0
  -21.9111  -13.7347   24.6423 C   0  0  0  0  0  0  0  0  0  0  0  0
  -20.1665  -14.4376   23.0037 C   0  0  0  0  0  0  0  0  0  0  0  0
  -32.9091  -15.2411   19.2187 C   0  0  0  0  0  0  0  0  0  0  0  0
  -23.1741   -8.9709   20.1857 C   0  0  0  0  0  0  0  0  0  0  0  0
  -31.3814  -15.3403   21.2659 C   0  0  0  0  0  0  0  0  0  0  0  0
  -30.5655  -14.3061   19.0384 C   0  0  0  0  0  0  0  0  0  1  0  0
  -22.3444  -13.4718   22.1575 C   0  0  1  0  0  0  0  0  0  0  0  0
  -21.8406   -9.7147   22.1625 C   0  0  2  0  0  0  0  0  0  0  0  0
  -21.6892  -14.3632   23.2500 C   0  0  0  0  0  0  0  0  0  0  0  0
  -31.7515  -14.5818   19.9763 C   0  0  1  0  0  0  0  0  0  0  0  0
  -24.9867  -28.3085   20.6027 N   0  0  0  0  0  0  0  0  0  0  0  0
  -25.8816  -27.5115   19.9944 N   0  0  0  0  0  0  0  0  0  0  0  0
  -30.8926  -18.8931   22.2397 N   0  0  0  0  0  0  0  0  0  0  0  0
  -23.3646  -14.3444   20.0787 N   0  0  0  0  0  0  0  0  0  0  0  0
  -25.2232  -23.7500   20.0244 N   0  0  0  0  0  0  0  0  0  0  0  0
  -28.1471  -27.3899   19.3137 N   0  0  0  0  0  0  0  0  0  0  0  0
  -27.8549  -31.4648   21.2388 N   0  0  0  0  0  0  0  0  0  0  0  0
  -27.3596  -22.7716   20.2268 N   0  0  0  0  0  0  0  0  0  0  0  0
  -23.3662  -17.3859   18.0673 N   0  0  0  0  0  0  0  0  0  0  0  0
  -21.8166  -12.1130   22.0993 N   0  0  0  0  0  0  0  0  0  0  0  0
  -32.2630  -13.2315   20.4265 N   0  3  0  0  0  0  0  0  0  0  0  0
  -22.6772   -8.6456   21.5475 N   0  3  0  0  0  0  0  0  0  0  0  0
  -29.2664  -30.0073   20.1701 O   0  0  0  0  0  0  0  0  0  0  0  0
  -30.9086  -17.3692   20.0145 O   0  0  0  0  0  0  0  0  0  0  0  0
  -23.7339  -16.8638   20.3066 O   0  0  0  0  0  0  0  0  0  0  0  0
  -21.0486  -14.2211   20.3175 O   0  0  0  0  0  0  0  0  0  0  0  0
  -23.8390  -11.0387   22.4638 O   0  0  0  0  0  0  0  0  0  0  0  0
  -25.5646  -21.5462   19.4156 O   0  0  0  0  0  0  0  0  0  0  0  0
  -23.2950  -33.7107   23.5187 O   0  0  0  0  0  0  0  0  0  0  0  0
  -29.4897  -13.6917   19.7465 O   0  0  0  0  0  0  0  0  0  1  0  0
  -24.3533  -38.7787   21.6213 F   0  0  0  0  0  0  0  0  0  0  0  0
  -31.6905  -21.5096   21.8464 F   0  0  0  0  0  0  0  0  0  0  0  0
  -21.2543  -35.3408   22.6125 F   0  0  0  0  0  0  0  0  0  0  0  0
  1  2  1  0  0  0  0
  1  5  2  0  0  0  0
  2  6  2  0  0  0  0
  3  8  2  0  0  0  0
  3 17  1  0  0  0  0
  4  9  1  0  0  0  0
  4 17  2  0  0  0  0
  5 19  1  0  0  0  0
  6 21  1  0  0  0  0
  7 10  2  0  0  0  0
  7 20  1  0  0  0  0
  8 26  1  0  0  0  0
  9 26  2  0  0  0  0
 10 27  1  0  0  0  0
 11 12  2  0  0  0  0
 11 28  1  0  0  0  0
 12 29  1  0  0  0  0
 13 22  1  0  0  0  0
 13 25  2  0  0  0  0
 14 23  1  0  0  0  0
 14 27  2  0  0  0  0
 15 25  1  0  0  0  0
 15 30  2  0  0  0  0
 16 29  2  0  0  0  0
 16 31  1  0  0  0  0
 17 32  1  0  0  0  0
 18 32  1  0  0  0  0
 18 33  2  0  0  0  0
 18 34  1  0  0  0  0
 19 21  2  0  0  0  0
 19 40  1  0  0  0  0
 20 23  2  0  0  0  0
 20 41  1  0  0  0  0
 21 51  1  0  0  0  0
 22 24  2  0  0  0  0
 22 42  1  0  0  0  0
 23 43  1  0  0  0  0
 24 30  1  0  0  0  0
 24 69  1  0  0  0  0
 25 74  1  0  0  0  0
 26 85  1  0  0  0  0
 27 86  1  0  0  0  0
 28 31  2  0  0  0  0
 28 85  1  0  0  0  0
 29 87  1  0  0  0  0
 30 88  1  0  0  0  0
 31 89  1  0  0  0  0
 32 67  2  0  0  0  0
 33 68  1  0  0  0  0
 33 72  1  0  0  0  0
 34 73  1  0  0  0  0
 34 79  2  0  0  0  0
 35 52  1  0  0  0  0
 35 61  1  0  0  0  0
 35 80  2  0  0  0  0
 36 53  1  0  0  0  0
 36 75  1  0  0  0  0
 36 81  2  0  0  0  0
 37 63  1  0  0  0  0
 37 70  1  0  0  0  0
 37 82  2  0  0  0  0
 38 64  1  0  0  0  0
 38 76  1  0  0  0  0
 38 83  2  0  0  0  0
 39 71  1  0  0  0  0
 39 74  1  0  0  0  0
 39 84  2  0  0  0  0
 40 44  1  0  0  0  0
 41 53  1  0  0  0  0
 42 45  1  0  0  0  0
 43 70  1  0  0  0  0
 44 47  1  0  0  0  0
 45 52  1  0  0  0  0
 46 48  1  0  0  0  0
 46 49  1  0  0  0  0
 47 51  1  0  0  0  0
 48 54  1  0  0  0  0
 49 71  1  0  0  0  0
 50 54  1  0  0  0  0
 50 71  1  0  0  0  0
 51 75  1  0  0  0  0
 52 69  1  0  0  0  0
 53 70  1  0  0  0  0
 54 68  1  0  0  0  0
 55 64  1  0  0  0  0
 56 65  1  0  0  0  0
 57 65  1  0  0  0  0
 58 65  1  0  0  0  0
 59 66  1  0  0  0  0
 60 78  1  0  0  0  0
 61 66  1  0  0  0  0
 62 66  1  0  0  0  0
 62 86  1  0  0  0  0
 63 65  1  0  0  0  0
 63 76  1  0  0  0  0
 64 78  1  0  0  0  0
 66 77  1  0  0  0  0
 67 68  1  0  0  0  0
M  CHG  2  77   1  78   1
M  ISO  4  39 100  62 101  74 100  86 101
M  END
> <Batch ID>
0164

> <Smiles>
CNC(C)C(=O)NC(C(=O)N1Cc2cc([101O:1][101CH2:1]C(C)(N)CC(=O)C3CCc4cc([100NH:0][100C:0](=O)N5CCCC(n6nc(-c7ccc(Oc8ccc(F)cc8F)cc7)c(C(N)=O)c6N)C5)cc(F)c4N3)ccc2CC1C(=O)NC1CCCc2ccccc21)C(C)(C)C

> <Shape>
0.240

> <Color>
0.049

> <Negative vol penalty>
0.000

$$$$

  -OEChem-04052304023D

 86 94  0     1  0  0  0  0  0999 V2000
  -18.7375  -23.7190   22.7799 C   0  0  0  0  0  0  0  0  0  0  0  0
  -19.9954  -23.7263   22.1859 C   0  0  0  0  0  0  0  0  0  0  0  0
  -24.6394  -14.0860   21.3567 C   0  0  0  0  0  0  0  0  0  0  0  0
  -25.3698  -14.0954   19.0537 C   0  0  0  0  0  0  0  0  0  0  0  0
  -18.0980  -24.9234   23.0704 C   0  0  0  0  0  0  0  0  0  0  0  0
  -20.6141  -24.9382   21.8808 C   0  0  0  0  0  0  0  0  0  0  0  0
  -26.6092  -26.1695   22.1028 C   0  0  0  0  0  0  0  0  0  0  0  0
  -23.8555  -12.9604   21.1035 C   0  0  0  0  0  0  0  0  0  0  0  0
  -24.5859  -12.9697   18.8006 C   0  0  0  0  0  0  0  0  0  0  0  0
  -27.5958  -26.2085   21.1185 C   0  0  0  0  0  0  0  0  0  0  0  0
  -21.9429   -9.8694   21.1519 C   0  0  0  0  0  0  0  0  0  0  0  0
  -21.9856   -8.8276   22.0784 C   0  0  0  0  0  0  0  0  0  0  0  0
  -27.5143  -23.2565   16.5035 C   0  0  0  0  0  0  0  0  0  0  0  0
  -28.7859  -22.9842   14.4674 C   0  0  0  0  0  0  0  0  0  0  0  0
  -27.2980  -28.5944   20.9231 C   0  0  0  0  0  0  0  0  0  0  0  0
  -27.4449  -21.1585   15.3073 C   0  0  0  0  0  0  0  0  0  0  0  0
  -24.3588   -8.5847   21.6959 C   0  0  0  0  0  0  0  0  0  0  0  0
  -25.3965  -14.6536   20.3318 C   0  0  0  0  0  0  0  0  0  0  0  0
  -28.3852  -23.7742   15.5449 C   0  0  0  0  0  0  0  0  0  0  0  0
  -27.5477  -15.8406   21.0179 C   0  0  0  0  0  0  0  0  0  0  0  0
  -18.7133  -26.1507   22.7776 C   0  0  0  0  0  0  0  0  0  0  0  0
  -25.9508  -27.3430   22.4976 C   0  0  0  0  0  0  0  0  0  0  0  0
  -19.9817  -26.1601   22.1664 C   0  0  0  0  0  0  0  0  0  0  0  0
  -26.3052  -28.5680   21.9145 C   0  0  0  0  0  0  0  0  0  0  0  0
  -27.0442  -21.9486   16.3848 C   0  0  0  0  0  0  0  0  0  0  0  0
  -23.8288  -12.4022   19.8255 C   0  0  0  0  0  0  0  0  0  0  0  0
  -27.9383  -27.4207   20.5264 C   0  0  0  0  0  0  0  0  0  0  0  0
  -23.1081  -10.2688   20.4972 C   0  0  0  0  0  0  0  0  0  0  0  0
  -23.1935   -8.1853   22.3505 C   0  0  0  0  0  0  0  0  0  0  0  0
  -28.3158  -21.6763   14.3486 C   0  0  0  0  0  0  0  0  0  0  0  0
  -24.3160   -9.6265   20.7693 C   0  0  0  0  0  0  0  0  0  0  0  0
  -26.2060  -15.8167   20.5925 C   0  0  0  0  0  0  0  0  0  0  0  0
  -27.8521  -17.1761   21.1190 C   0  0  0  0  0  0  0  0  0  0  0  0
  -28.8843  -25.1583   15.6708 C   0  0  0  0  0  0  0  0  0  0  0  0
  -28.4392  -14.7529   21.2967 C   0  0  0  0  0  0  0  0  0  0  0  0
  -22.9399  -28.3592   22.4235 C   0  0  0  0  0  0  0  0  0  0  0  0
  -24.1540  -30.8637   24.0894 C   0  0  0  0  0  0  0  0  0  0  0  0
  -26.8720  -32.7659   24.8900 C   0  0  0  0  0  0  0  0  0  0  0  0
  -25.6614  -22.0729   18.4869 C   0  0  0  0  0  0  0  0  0  0  0  0
  -17.9626  -27.4264   23.0668 C   0  0  0  0  0  0  0  0  0  0  0  0
  -24.9076  -27.2880   23.5797 C   0  0  0  0  0  0  0  0  0  0  0  0
  -25.6427  -29.8592   22.3173 C   0  0  0  0  0  0  0  0  0  0  0  0
  -18.8476  -28.6701   23.0543 C   0  0  0  0  0  0  0  0  0  0  0  0
  -25.8195  -21.4251   21.9844 C   0  0  0  0  0  0  0  0  0  0  0  0
  -19.7564  -28.6664   21.8292 C   0  0  0  0  0  0  0  0  0  0  0  0
  -26.0648  -19.9165   22.0630 C   0  0  0  0  0  0  0  0  0  0  0  0
  -24.8864  -21.7887   20.8308 C   0  0  0  0  0  0  0  0  0  0  0  0
  -25.5332  -19.7565   19.5975 C   0  0  0  0  0  0  0  0  0  0  0  0
  -20.6959  -27.4545   21.8430 C   0  0  1  0  0  0  0  0  0  0  0  0
  -23.9412  -28.4678   23.5385 C   0  0  1  0  0  0  0  0  0  0  0  0
  -26.5189  -19.3479   20.7043 C   0  0  2  0  0  0  0  0  0  0  0  0
  -27.5455  -34.7668   26.2465 C   0  0  0  0  0  0  0  0  0  0  0  0
  -22.9042  -32.6997   21.9973 C   0  0  0  0  0  0  0  0  0  0  0  0
  -24.3720  -34.5444   22.8405 C   0  0  0  0  0  0  0  0  0  0  0  0
  -22.6851  -33.5038   24.3552 C   0  0  0  0  0  0  0  0  0  0  0  0
  -30.8162  -26.6231   20.8293 C   0  0  0  0  0  0  0  0  0  0  0  0
  -28.7383  -31.1656   26.5377 C   0  0  0  0  0  0  0  0  0  0  0  0
  -30.8761  -26.8460   18.3337 C   0  0  0  0  0  0  0  0  0  0  0  0
  -30.1309  -26.8230   17.0017 C   0  0  0  0  0  0  0  0  0  0  0  0
  -24.7567  -32.1989   23.7245 C   0  0  1  0  0  0  0  0  0  0  0  0
  -27.4023  -33.2530   26.2264 C   0  0  2  0  0  0  0  0  0  0  0  0
  -23.6908  -33.2123   23.2202 C   0  0  0  0  0  0  0  0  0  0  0  0
  -29.9892  -26.5277   19.5505 C   0  0  2  0  0  0  0  0  0  1  0  0
  -25.6933  -17.0399   20.4344 N   0  0  0  0  0  0  0  0  0  0  0  0
  -26.7183  -17.8449   20.7622 N   0  0  0  0  0  0  0  0  0  0  0  0
  -24.6244  -29.7526   23.3752 N   0  0  0  0  0  0  0  0  0  0  0  0
  -25.3822  -21.2199   19.5756 N   0  0  0  0  0  0  0  0  0  0  0  0
  -28.9763  -17.8319   21.4774 N   0  0  0  0  0  0  0  0  0  0  0  0
  -28.6110  -26.0164   14.6880 N   0  0  0  0  0  0  0  0  0  0  0  0
  -27.9645  -13.4433   21.1416 N   0  0  0  0  0  0  0  0  0  0  0  0
  -26.1583  -21.4228   17.3577 N   0  0  0  0  0  0  0  0  0  0  0  0
  -21.7898  -27.6735   22.7649 N   0  0  0  0  0  0  0  0  0  0  0  0
  -25.4984  -32.6464   24.8984 N   0  0  0  0  0  0  0  0  0  0  0  0
  -29.5885  -25.4858   16.7623 N   0  3  0  0  0  0  0  0  0  0  0  0
  -28.7368  -32.6509   26.5047 N   0  3  0  0  0  0  0  0  0  0  0  0
  -29.6168  -14.9367   21.6880 O   0  0  0  0  0  0  0  0  0  0  0  0
  -23.1915  -28.8616   21.3345 O   0  0  0  0  0  0  0  0  0  0  0  0
  -23.3027  -30.8077   24.9803 O   0  0  0  0  0  0  0  0  0  0  0  0
  -27.6029  -32.5199   23.9330 O   0  0  0  0  0  0  0  0  0  0  0  0
  -25.4993  -23.2936   18.5608 O   0  0  0  0  0  0  0  0  0  0  0  0
  -23.0642  -11.3037   19.5782 O   0  0  0  0  0  0  0  0  0  0  0  0
  -28.9005  -27.4615   19.5650 O   0  0  0  0  0  0  0  0  0  1  0  0
  -23.2347   -7.1860   23.2414 F   0  0  0  0  0  0  0  0  0  0  0  0
  -28.7006  -20.9177   13.3140 F   0  0  0  0  0  0  0  0  0  0  0  0
  -25.4389  -10.0065   20.1444 F   0  0  0  0  0  0  0  0  0  0  0  0
  -29.5188  -25.2611   19.4006 F   0  0  0  0  0  0  0  0  0  0  0  0
  1  2  1  0  0  0  0
  1  5  2  0  0  0  0
  2  6  2  0  0  0  0
  3  8  2  0  0  0  0
  3 18  1  0  0  0  0
  4  9  1  0  0  0  0
  4 18  2  0  0  0  0
  5 21  1  0  0  0  0
  6 23  1  0  0  0  0
  7 10  2  0  0  0  0
  7 22  1  0  0  0  0
  8 26  1  0  0  0  0
  9 26  2  0  0  0  0
 10 27  1  0  0  0  0
 11 12  2  0  0  0  0
 11 28  1  0  0  0  0
 12 29  1  0  0  0  0
 13 19  2  0  0  0  0
 13 25  1  0  0  0  0
 14 19  1  0  0  0  0
 14 30  2  0  0  0  0
 15 24  1  0  0  0  0
 15 27  2  0  0  0  0
 16 25  2  0  0  0  0
 16 30  1  0  0  0  0
 17 29  2  0  0  0  0
 17 31  1  0  0  0  0
 18 32  1  0  0  0  0
 19 34  1  0  0  0  0
 20 32  1  0  0  0  0
 20 33  2  0  0  0  0
 20 35  1  0  0  0  0
 21 23  2  0  0  0  0
 21 40  1  0  0  0  0
 22 24  2  0  0  0  0
 22 41  1  0  0  0  0
 23 49  1  0  0  0  0
 24 42  1  0  0  0  0
 25 71  1  0  0  0  0
 26 81  1  0  0  0  0
 27 82  1  0  0  0  0
 28 31  2  0  0  0  0
 28 81  1  0  0  0  0
 29 83  1  0  0  0  0
 30 84  1  0  0  0  0
 31 85  1  0  0  0  0
 32 64  2  0  0  0  0
 33 65  1  0  0  0  0
 33 68  1  0  0  0  0
 34 69  1  0  0  0  0
 34 74  2  0  0  0  0
 35 70  1  0  0  0  0
 35 76  2  0  0  0  0
 36 50  1  0  0  0  0
 36 72  1  0  0  0  0
 36 77  2  0  0  0  0
 37 60  1  0  0  0  0
 37 66  1  0  0  0  0
 37 78  2  0  0  0  0
 38 61  1  0  0  0  0
 38 73  1  0  0  0  0
 38 79  2  0  0  0  0
 39 67  1  0  0  0  0
 39 71  1  0  0  0  0
 39 80  2  0  0  0  0
 40 43  1  0  0  0  0
 41 50  1  0  0  0  0
 42 66  1  0  0  0  0
 43 45  1  0  0  0  0
 44 46  1  0  0  0  0
 44 47  1  0  0  0  0
 45 49  1  0  0  0  0
 46 51  1  0  0  0  0
 47 67  1  0  0  0  0
 48 51  1  0  0  0  0
 48 67  1  0  0  0  0
 49 72  1  0  0  0  0
 50 66  1  0  0  0  0
 51 65  1  0  0  0  0
 52 61  1  0  0  0  0
 53 62  1  0  0  0  0
 54 62  1  0  0  0  0
 55 62  1  0  0  0  0
 56 63  1  0  0  0  0
 57 75  1  0  0  0  0
 58 59  1  0  0  0  0
 58 63  1  0  0  0  0
 59 74  1  0  0  0  0
 60 62  1  0  0  0  0
 60 73  1  0  0  0  0
 61 75  1  0  0  0  0
 63 82  1  0  0  0  0
 63 86  1  0  0  0  0
 64 65  1  0  0  0  0
M  CHG  2  74   1  75   1
M  ISO  4  39 100  63 101  71 100  82 101
M  END
> <Batch ID>
0164

> <Smiles>
CNC(C)C(=O)NC(C(=O)N1Cc2cc([101O:1][101C:1](C)(F)CCNC(=N)c3cc(F)cc([100NH:0][100C:0](=O)N4CCCC(n5nc(-c6ccc(Oc7ccc(F)cc7F)cc6)c(C(N)=O)c5N)C4)c3)ccc2CC1C(=O)NC1CCCc2ccccc21)C(C)(C)C

> <Shape>
0.269

> <Color>
0.052

> <Negative vol penalty>
0.000

$$$$

  -OEChem-04052304023D

 86 95  0     1  0  0  0  0  0999 V2000
  -14.8094  -27.2732   23.2395 C   0  0  0  0  0  0  0  0  0  0  0  0
  -15.4087  -27.0655   22.0013 C   0  0  0  0  0  0  0  0  0  0  0  0
  -32.2505  -18.2708   19.1641 C   0  0  0  0  0  0  0  0  0  0  0  0
  -22.8018  -10.9754   22.1231 C   0  0  0  0  0  0  0  0  0  0  0  0
  -23.5752  -13.2052   22.6396 C   0  0  0  0  0  0  0  0  0  0  0  0
  -15.3903  -28.1489   24.1558 C   0  0  0  0  0  0  0  0  0  0  0  0
  -16.5889  -27.7343   21.6783 C   0  0  0  0  0  0  0  0  0  0  0  0
  -31.3516  -19.3355   19.1021 C   0  0  0  0  0  0  0  0  0  0  0  0
  -22.5665  -24.0943   19.9725 C   0  0  0  0  0  0  0  0  0  0  0  0
  -31.7884  -16.9827   19.4344 C   0  0  0  0  0  0  0  0  0  0  0  0
  -21.9219  -11.0301   23.2040 C   0  0  0  0  0  0  0  0  0  0  0  0
  -22.6953  -13.2599   23.7206 C   0  0  0  0  0  0  0  0  0  0  0  0
  -23.6921  -23.4731   19.4310 C   0  0  0  0  0  0  0  0  0  0  0  0
  -22.5651  -12.0866   26.8888 C   0  0  0  0  0  0  0  0  0  0  0  0
  -23.0537  -12.5821   28.0976 C   0  0  0  0  0  0  0  0  0  0  0  0
  -29.5284  -17.8241   19.5807 C   0  0  0  0  0  0  0  0  0  0  0  0
  -24.8099  -25.6118   19.2739 C   0  0  0  0  0  0  0  0  0  0  0  0
  -21.4011  -14.3437   28.0436 C   0  0  0  0  0  0  0  0  0  0  0  0
  -23.6284  -12.0629   21.8409 C   0  0  0  0  0  0  0  0  0  0  0  0
  -24.2084  -11.8277   19.3679 C   0  0  0  0  0  0  0  0  0  0  0  0
  -29.9906  -19.1122   19.3104 C   0  0  0  0  0  0  0  0  0  0  0  0
  -16.5833  -28.8214   23.8476 C   0  0  0  0  0  0  0  0  0  0  0  0
  -22.5641  -25.4762   20.1813 C   0  0  0  0  0  0  0  0  0  0  0  0
  -17.1856  -28.6209   22.5908 C   0  0  0  0  0  0  0  0  0  0  0  0
  -23.6900  -26.2378   19.8276 C   0  0  0  0  0  0  0  0  0  0  0  0
  -30.4274  -16.7594   19.6427 C   0  0  0  0  0  0  0  0  0  0  0  0
  -21.8687  -12.1723   24.0028 C   0  0  0  0  0  0  0  0  0  0  0  0
  -24.8109  -24.2300   19.0824 C   0  0  0  0  0  0  0  0  0  0  0  0
  -21.4945  -12.7197   26.2573 C   0  0  0  0  0  0  0  0  0  0  0  0
  -22.4717  -13.7106   28.6751 C   0  0  0  0  0  0  0  0  0  0  0  0
  -20.9125  -13.8482   26.8347 C   0  0  0  0  0  0  0  0  0  0  0  0
  -24.5379  -12.0068   20.7248 C   0  0  0  0  0  0  0  0  0  0  0  0
  -25.4170  -11.8473   18.7156 C   0  0  0  0  0  0  0  0  0  0  0  0
  -22.9247  -11.6589   18.7521 C   0  0  0  0  0  0  0  0  0  0  0  0
  -20.6851  -28.4809   21.4131 C   0  0  0  0  0  0  0  0  0  0  0  0
  -23.5917  -28.8067   22.3382 C   0  0  0  0  0  0  0  0  0  0  0  0
  -26.4647  -29.5885   24.0030 C   0  0  0  0  0  0  0  0  0  0  0  0
  -30.7165  -14.2843   20.0122 C   0  0  0  0  0  0  0  0  0  0  0  0
  -17.1485  -29.7944   24.8519 C   0  0  0  0  0  0  0  0  0  0  0  0
  -21.3508  -26.1958   20.7048 C   0  0  0  0  0  0  0  0  0  0  0  0
  -23.6295  -27.7261   20.0379 C   0  0  0  0  0  0  0  0  0  0  0  0
  -18.6004  -30.1781   24.5778 C   0  0  0  0  0  0  0  0  0  0  0  0
  -30.0511  -10.8429   19.3864 C   0  0  0  0  0  0  0  0  0  0  0  0
  -28.9842  -20.9142   17.8464 C   0  0  0  0  0  0  0  0  0  0  0  0
  -29.2968  -21.3230   20.3280 C   0  0  0  0  0  0  0  0  0  0  0  0
  -18.7936  -30.5175   23.1033 C   0  0  0  0  0  0  0  0  0  0  0  0
  -28.5312  -10.7358   19.5291 C   0  0  0  0  0  0  0  0  0  0  0  0
  -27.9855  -22.0732   17.7832 C   0  0  0  0  0  0  0  0  0  0  0  0
  -28.2955  -22.4791   20.2620 C   0  0  0  0  0  0  0  0  0  0  0  0
  -30.6468  -11.8291   20.3895 C   0  0  0  0  0  0  0  0  0  0  0  0
  -28.5157  -13.0572   20.5280 C   0  0  0  0  0  0  0  0  0  0  0  0
  -29.0127  -20.2713   19.2428 C   0  0  0  0  0  0  0  0  0  0  0  0
  -18.4794  -29.3090   22.2132 C   0  0  1  0  0  0  0  0  0  0  0  0
  -21.7014  -27.3939   21.6052 C   0  0  1  0  0  0  0  0  0  0  0  0
  -27.8627  -12.1241   19.4952 C   0  0  2  0  0  0  0  0  0  0  0  0
  -28.2454  -23.1276   18.8695 C   0  0  0  0  0  0  0  0  0  0  0  0
  -27.7351  -31.5450   24.9282 C   0  0  0  0  0  0  0  0  0  0  0  0
  -24.4668  -29.5679   19.5171 C   0  0  0  0  0  0  0  0  0  0  0  0
  -26.3841  -30.8222   20.5266 C   0  0  0  0  0  0  0  0  0  0  0  0
  -24.0405  -31.5079   21.0366 C   0  0  0  0  0  0  0  0  0  0  0  0
  -26.3216  -28.5254   26.7613 C   0  0  0  0  0  0  0  0  0  0  0  0
  -29.8171  -24.7318   19.5620 C   0  0  0  0  0  0  0  0  0  0  0  0
  -27.1750  -24.2193   18.8199 C   0  0  0  0  0  0  0  0  0  1  0  0
  -24.9559  -29.3779   22.0450 C   0  0  1  0  0  0  0  0  0  0  0  0
  -26.7179  -30.4539   25.2243 C   0  0  2  0  0  0  0  0  0  0  0  0
  -24.9582  -30.2913   20.7868 C   0  0  0  0  0  0  0  0  0  0  0  0
  -25.8528  -12.1308   20.9240 N   0  0  0  0  0  0  0  0  0  0  0  0
  -26.3602  -12.0295   19.6837 N   0  0  0  0  0  0  0  0  0  0  0  0
  -23.0045  -28.0251   21.3358 N   0  0  0  0  0  0  0  0  0  0  0  0
  -29.9673  -13.1231   20.2971 N   0  0  0  0  0  0  0  0  0  0  0  0
  -25.7542  -11.7263   17.4140 N   0  0  0  0  0  0  0  0  0  0  0  0
  -21.7859  -11.6634   19.5692 N   0  0  0  0  0  0  0  0  0  0  0  0
  -29.9583  -15.4507   19.9165 N   0  0  0  0  0  0  0  0  0  0  0  0
  -19.5784  -28.3675   22.2328 N   0  0  0  0  0  0  0  0  0  0  0  0
  -25.3909  -30.0442   23.2679 N   0  0  0  0  0  0  0  0  0  0  0  0
  -27.2332  -29.6238   26.3496 N   0  3  0  0  0  0  0  0  0  0  0  0
  -22.7926  -11.4920   17.5159 O   0  0  0  0  0  0  0  0  0  0  0  0
  -20.8894  -29.3594   20.5836 O   0  0  0  0  0  0  0  0  0  0  0  0
  -23.0564  -29.0501   23.4233 O   0  0  0  0  0  0  0  0  0  0  0  0
  -27.1532  -28.6087   23.7266 O   0  0  0  0  0  0  0  0  0  0  0  0
  -31.9370  -14.2423   19.8370 O   0  0  0  0  0  0  0  0  0  0  0  0
  -21.0101  -12.2262   25.0575 O   0  0  0  0  0  0  0  0  0  0  0  0
  -25.9082  -23.6166   18.5584 O   0  0  0  0  0  0  0  0  0  1  0  0
  -29.5081  -23.7419   18.5952 O   0  0  0  0  0  0  0  0  0  0  0  0
  -22.9400  -14.1853   29.8368 F   0  0  0  0  0  0  0  0  0  0  0  0
  -19.8830  -14.4600   26.2333 F   0  0  0  0  0  0  0  0  0  0  0  0
  1  2  1  0  0  0  0
  1  6  2  0  0  0  0
  2  7  2  0  0  0  0
  3  8  2  0  0  0  0
  3 10  1  0  0  0  0
  4 11  2  0  0  0  0
  4 19  1  0  0  0  0
  5 12  1  0  0  0  0
  5 19  2  0  0  0  0
  6 22  1  0  0  0  0
  7 24  1  0  0  0  0
  8 21  1  0  0  0  0
  9 13  2  0  0  0  0
  9 23  1  0  0  0  0
 10 26  2  0  0  0  0
 11 27  1  0  0  0  0
 12 27  2  0  0  0  0
 13 28  1  0  0  0  0
 14 15  2  0  0  0  0
 14 29  1  0  0  0  0
 15 30  1  0  0  0  0
 16 21  2  0  0  0  0
 16 26  1  0  0  0  0
 17 25  1  0  0  0  0
 17 28  2  0  0  0  0
 18 30  2  0  0  0  0
 18 31  1  0  0  0  0
 19 32  1  0  0  0  0
 20 32  1  0  0  0  0
 20 33  2  0  0  0  0
 20 34  1  0  0  0  0
 21 52  1  0  0  0  0
 22 24  2  0  0  0  0
 22 39  1  0  0  0  0
 23 25  2  0  0  0  0
 23 40  1  0  0  0  0
 24 53  1  0  0  0  0
 25 41  1  0  0  0  0
 26 73  1  0  0  0  0
 27 82  1  0  0  0  0
 28 83  1  0  0  0  0
 29 31  2  0  0  0  0
 29 82  1  0  0  0  0
 30 85  1  0  0  0  0
 31 86  1  0  0  0  0
 32 67  2  0  0  0  0
 33 68  1  0  0  0  0
 33 71  1  0  0  0  0
 34 72  1  0  0  0  0
 34 77  2  0  0  0  0
 35 54  1  0  0  0  0
 35 74  1  0  0  0  0
 35 78  2  0  0  0  0
 36 64  1  0  0  0  0
 36 69  1  0  0  0  0
 36 79  2  0  0  0  0
 37 65  1  0  0  0  0
 37 75  1  0  0  0  0
 37 80  2  0  0  0  0
 38 70  1  0  0  0  0
 38 73  1  0  0  0  0
 38 81  2  0  0  0  0
 39 42  1  0  0  0  0
 40 54  1  0  0  0  0
 41 69  1  0  0  0  0
 42 46  1  0  0  0  0
 43 47  1  0  0  0  0
 43 50  1  0  0  0  0
 44 48  1  0  0  0  0
 44 52  1  0  0  0  0
 45 49  1  0  0  0  0
 45 52  1  0  0  0  0
 46 53  1  0  0  0  0
 47 55  1  0  0  0  0
 48 56  1  0  0  0  0
 49 56  1  0  0  0  0
 50 70  1  0  0  0  0
 51 55  1  0  0  0  0
 51 70  1  0  0  0  0
 53 74  1  0  0  0  0
 54 69  1  0  0  0  0
 55 68  1  0  0  0  0
 56 63  1  0  0  0  0
 56 84  1  0  0  0  0
 57 65  1  0  0  0  0
 58 66  1  0  0  0  0
 59 66  1  0  0  0  0
 60 66  1  0  0  0  0
 61 76  1  0  0  0  0
 62 84  1  0  0  0  0
 63 83  1  0  0  0  0
 64 66  1  0  0  0  0
 64 75  1  0  0  0  0
 65 76  1  0  0  0  0
 67 68  1  0  0  0  0
M  CHG  1  76   1
M  ISO  4  38 100  63 101  73 100  83 101
M  END
> <Batch ID>
0164

> <Smiles>
CNC(C)C(=O)NC(C(=O)N1Cc2cc([101O:1][101CH2:1]C3(OC)CCC(c4cccc([100NH:0][100C:0](=O)N5CCCC(n6nc(-c7ccc(Oc8ccc(F)cc8F)cc7)c(C(N)=O)c6N)C5)c4)CC3)ccc2CC1C(=O)NC1CCCc2ccccc21)C(C)(C)C

> <Shape>
0.273

> <Color>
0.087

> <Negative vol penalty>
0.000

$$$$

  -OEChem-04052304023D

 90 98  0     1  0  0  0  0  0999 V2000
  -21.5804  -11.6762   20.3997 C   0  0  0  0  0  0  0  0  0  0  0  0
  -21.4987  -12.9400   20.9755 C   0  0  0  0  0  0  0  0  0  0  0  0
  -30.5620  -28.1652   24.2861 C   0  0  0  0  0  0  0  0  0  0  0  0
  -29.2907  -26.1482   24.6772 C   0  0  0  0  0  0  0  0  0  0  0  0
  -22.8270  -11.1195   20.1169 C   0  0  0  0  0  0  0  0  0  0  0  0
  -22.6637  -13.6474   21.2699 C   0  0  0  0  0  0  0  0  0  0  0  0
  -22.3926  -18.5062   19.8684 C   0  0  0  0  0  0  0  0  0  0  0  0
  -31.2357  -27.9745   25.4925 C   0  0  0  0  0  0  0  0  0  0  0  0
  -29.9644  -25.9575   25.8836 C   0  0  0  0  0  0  0  0  0  0  0  0
  -21.6699  -19.3673   20.6930 C   0  0  0  0  0  0  0  0  0  0  0  0
  -32.9702  -24.7937   26.8991 C   0  0  0  0  0  0  0  0  0  0  0  0
  -33.4351  -23.5099   27.1841 C   0  0  0  0  0  0  0  0  0  0  0  0
  -23.7310  -20.1490   21.6729 C   0  0  0  0  0  0  0  0  0  0  0  0
  -19.1742  -25.5949   23.3484 C   0  0  0  0  0  0  0  0  0  0  0  0
  -20.1855  -27.6210   22.5064 C   0  0  0  0  0  0  0  0  0  0  0  0
  -21.4587  -25.5684   22.5624 C   0  0  0  0  0  0  0  0  0  0  0  0
  -32.0704  -23.4581   29.1770 C   0  0  0  0  0  0  0  0  0  0  0  0
  -29.5895  -27.2521   23.8785 C   0  0  0  0  0  0  0  0  0  0  0  0
  -29.2671  -26.9667   21.3641 C   0  0  0  0  0  0  0  0  0  0  0  0
  -24.0076  -11.8246   20.3990 C   0  0  0  0  0  0  0  0  0  0  0  0
  -23.7916  -18.4520   19.9477 C   0  0  0  0  0  0  0  0  0  0  0  0
  -23.9273  -13.0991   20.9918 C   0  0  0  0  0  0  0  0  0  0  0  0
  -24.4693  -19.2881   20.8464 C   0  0  0  0  0  0  0  0  0  0  0  0
  -19.0870  -26.9544   23.0491 C   0  0  0  0  0  0  0  0  0  0  0  0
  -20.3601  -24.9018   23.1051 C   0  0  0  0  0  0  0  0  0  0  0  0
  -21.3714  -26.9280   22.2630 C   0  0  0  0  0  0  0  0  0  0  0  0
  -30.9369  -26.8707   26.2913 C   0  0  0  0  0  0  0  0  0  0  0  0
  -22.3389  -20.1868   21.5974 C   0  0  0  0  0  0  0  0  0  0  0  0
  -32.0555  -25.4098   27.7531 C   0  0  0  0  0  0  0  0  0  0  0  0
  -32.9852  -22.8421   28.3230 C   0  0  0  0  0  0  0  0  0  0  0  0
  -31.6055  -24.7420   28.8921 C   0  0  0  0  0  0  0  0  0  0  0  0
  -28.8928  -27.4488   22.6327 C   0  0  0  0  0  0  0  0  0  0  0  0
  -28.2838  -27.4219   20.5200 C   0  0  0  0  0  0  0  0  0  0  0  0
  -30.4021  -26.1780   20.9828 C   0  0  0  0  0  0  0  0  0  0  0  0
  -25.9108  -16.2018   20.6889 C   0  0  0  0  0  0  0  0  0  0  0  0
  -28.0495  -18.4657   19.7816 C   0  0  0  0  0  0  0  0  0  0  0  0
  -29.2677  -21.8580   19.6202 C   0  0  0  0  0  0  0  0  0  0  0  0
  -19.4599  -22.7033   23.9489 C   0  0  0  0  0  0  0  0  0  0  0  0
  -22.5690  -28.9519   21.3599 C   0  0  0  0  0  0  0  0  0  0  0  0
  -25.3333  -11.1621   20.1190 C   0  0  0  0  0  0  0  0  0  0  0  0
  -24.5582  -17.5370   19.0325 C   0  0  0  0  0  0  0  0  0  0  0  0
  -25.9714  -19.2826   20.9561 C   0  0  0  0  0  0  0  0  0  0  0  0
  -26.5111  -12.1331   20.1169 C   0  0  0  0  0  0  0  0  0  0  0  0
  -25.1472  -31.0049   20.0125 C   0  0  0  0  0  0  0  0  0  0  0  0
  -26.4434  -13.0571   21.3287 C   0  0  0  0  0  0  0  0  0  0  0  0
  -26.4342  -30.2789   20.4108 C   0  0  0  0  0  0  0  0  0  0  0  0
  -24.0806  -30.9073   21.1018 C   0  0  0  0  0  0  0  0  0  0  0  0
  -25.0677  -28.8176   21.9550 C   0  0  0  0  0  0  0  0  0  0  0  0
  -25.1679  -13.9080   21.3030 C   0  0  1  0  0  0  0  0  0  0  0  0
  -25.9477  -17.1920   19.5593 C   0  0  1  0  0  0  0  0  0  0  0  0
  -26.1489  -28.8330   20.8621 C   0  0  2  0  0  0  0  0  0  0  0  0
  -20.8555  -21.7096   26.5213 C   0  0  0  0  0  0  0  0  0  0  0  0
  -31.2812  -22.8154   18.4684 C   0  0  0  0  0  0  0  0  0  0  0  0
  -18.7520  -20.4117   24.7374 C   0  0  0  0  0  0  0  0  0  0  0  0
  -17.4036  -28.4935   20.9567 C   0  0  0  0  0  0  0  0  0  0  0  0
  -16.4209  -26.3126   21.6645 C   0  0  0  0  0  0  0  0  0  0  0  0
  -15.4907  -28.4627   22.5578 C   0  0  0  0  0  0  0  0  0  0  0  0
  -29.4194  -18.0743   22.4798 C   0  0  0  0  0  0  0  0  0  0  0  0
  -30.6190  -20.2399   22.1065 C   0  0  0  0  0  0  0  0  0  0  0  0
  -30.9819  -18.3295   20.5439 C   0  0  0  0  0  0  0  0  0  0  0  0
  -27.6272  -23.8211   18.1322 C   0  0  0  0  0  0  0  0  0  0  0  0
  -17.8191  -27.6953   23.3106 C   0  0  0  0  0  0  0  0  0  0  0  0
  -21.1263  -21.1623   25.1237 C   0  0  0  0  0  0  0  0  0  0  0  0
  -20.3219  -20.6186   22.7812 C   0  0  0  0  0  0  0  0  0  1  0  0
  -28.7865  -19.5819   20.4817 C   0  0  1  0  0  0  0  0  0  0  0  0
  -29.7806  -22.5817   18.3883 C   0  0  2  0  0  0  0  0  0  0  0  0
  -19.9201  -21.2315   24.1469 C   0  0  2  0  0  0  0  0  0  0  0  0
  -16.7787  -27.7301   22.1436 C   0  0  0  0  0  0  0  0  0  0  0  0
  -29.9233  -19.0553   21.4025 C   0  0  0  0  0  0  0  0  0  0  0  0
  -27.7602  -28.1561   22.6019 N   0  0  0  0  0  0  0  0  0  0  0  0
  -27.4144  -28.1219   21.3037 N   0  0  0  0  0  0  0  0  0  0  0  0
  -26.6759  -18.3662   20.0444 N   0  0  0  0  0  0  0  0  0  0  0  0
  -23.8603  -29.5085   21.4757 N   0  0  0  0  0  0  0  0  0  0  0  0
  -28.0867  -27.2876   19.1913 N   0  0  0  0  0  0  0  0  0  0  0  0
  -31.3145  -25.7963   21.9758 N   0  0  0  0  0  0  0  0  0  0  0  0
  -20.4482  -23.5214   23.4094 N   0  0  0  0  0  0  0  0  0  0  0  0
  -22.4878  -27.6053   21.7130 N   0  0  0  0  0  0  0  0  0  0  0  0
  -25.3084  -15.0012   20.3651 N   0  0  0  0  0  0  0  0  0  0  0  0
  -29.2387  -20.4919   19.4349 N   0  0  0  0  0  0  0  0  0  0  0  0
  -29.1062  -23.9030   18.2454 N   0  3  0  0  0  0  0  0  0  0  0  0
  -30.6099  -25.8360   19.7939 O   0  0  0  0  0  0  0  0  0  0  0  0
  -26.3946  -16.5042   21.7734 O   0  0  0  0  0  0  0  0  0  0  0  0
  -28.6684  -17.7144   19.0239 O   0  0  0  0  0  0  0  0  0  0  0  0
  -28.9302  -22.4455   20.6456 O   0  0  0  0  0  0  0  0  0  0  0  0
  -18.3203  -23.0553   24.2487 O   0  0  0  0  0  0  0  0  0  0  0  0
  -21.6117  -29.6132   20.9499 O   0  0  0  0  0  0  0  0  0  0  0  0
  -31.5943  -26.6841   27.4684 O   0  0  0  0  0  0  0  0  0  0  0  0
  -21.6359  -21.0278   22.4039 O   0  0  0  0  0  0  0  0  0  1  0  0
  -33.4305  -21.6086   28.5957 F   0  0  0  0  0  0  0  0  0  0  0  0
  -30.7258  -25.3282   29.7156 F   0  0  0  0  0  0  0  0  0  0  0  0
  1  2  1  0  0  0  0
  1  5  2  0  0  0  0
  2  6  2  0  0  0  0
  3  8  2  0  0  0  0
  3 18  1  0  0  0  0
  4  9  1  0  0  0  0
  4 18  2  0  0  0  0
  5 20  1  0  0  0  0
  6 22  1  0  0  0  0
  7 10  2  0  0  0  0
  7 21  1  0  0  0  0
  8 27  1  0  0  0  0
  9 27  2  0  0  0  0
 10 28  1  0  0  0  0
 11 12  2  0  0  0  0
 11 29  1  0  0  0  0
 12 30  1  0  0  0  0
 13 23  1  0  0  0  0
 13 28  2  0  0  0  0
 14 24  2  0  0  0  0
 14 25  1  0  0  0  0
 15 24  1  0  0  0  0
 15 26  2  0  0  0  0
 16 25  2  0  0  0  0
 16 26  1  0  0  0  0
 17 30  2  0  0  0  0
 17 31  1  0  0  0  0
 18 32  1  0  0  0  0
 19 32  1  0  0  0  0
 19 33  2  0  0  0  0
 19 34  1  0  0  0  0
 20 22  2  0  0  0  0
 20 40  1  0  0  0  0
 21 23  2  0  0  0  0
 21 41  1  0  0  0  0
 22 49  1  0  0  0  0
 23 42  1  0  0  0  0
 24 62  1  0  0  0  0
 25 76  1  0  0  0  0
 26 77  1  0  0  0  0
 27 87  1  0  0  0  0
 28 88  1  0  0  0  0
 29 31  2  0  0  0  0
 29 87  1  0  0  0  0
 30 89  1  0  0  0  0
 31 90  1  0  0  0  0
 32 70  2  0  0  0  0
 33 71  1  0  0  0  0
 33 74  1  0  0  0  0
 34 75  1  0  0  0  0
 34 81  2  0  0  0  0
 35 50  1  0  0  0  0
 35 78  1  0  0  0  0
 35 82  2  0  0  0  0
 36 65  1  0  0  0  0
 36 72  1  0  0  0  0
 36 83  2  0  0  0  0
 37 66  1  0  0  0  0
 37 79  1  0  0  0  0
 37 84  2  0  0  0  0
 38 67  1  0  0  0  0
 38 76  1  0  0  0  0
 38 85  2  0  0  0  0
 39 73  1  0  0  0  0
 39 77  1  0  0  0  0
 39 86  2  0  0  0  0
 40 43  1  0  0  0  0
 41 50  1  0  0  0  0
 42 72  1  0  0  0  0
 43 45  1  0  0  0  0
 44 46  1  0  0  0  0
 44 47  1  0  0  0  0
 45 49  1  0  0  0  0
 46 51  1  0  0  0  0
 47 73  1  0  0  0  0
 48 51  1  0  0  0  0
 48 73  1  0  0  0  0
 49 78  1  0  0  0  0
 50 72  1  0  0  0  0
 51 71  1  0  0  0  0
 52 63  1  0  0  0  0
 53 66  1  0  0  0  0
 54 67  1  0  0  0  0
 55 68  1  0  0  0  0
 56 68  1  0  0  0  0
 57 68  1  0  0  0  0
 58 69  1  0  0  0  0
 59 69  1  0  0  0  0
 60 69  1  0  0  0  0
 61 80  1  0  0  0  0
 62 68  1  0  0  0  0
 63 67  1  0  0  0  0
 64 67  1  0  0  0  0
 64 88  1  0  0  0  0
 65 69  1  0  0  0  0
 65 79  1  0  0  0  0
 66 80  1  0  0  0  0
 70 71  1  0  0  0  0
M  CHG  1  80   1
M  ISO  4  39 100  64 101  77 100  88 101
M  END
> <Batch ID>
0164

> <Smiles>
CCC(C)(C(=O)Nc1cc(CC(C)(C)C)cc([100NH:0][100C:0](=O)N2CCCC(n3nc(-c4ccc(Oc5ccc(F)cc5F)cc4)c(C(N)=O)c3N)C2)c1)[101CH2:1][101O:1]c1ccc2c(c1)CN(C(=O)C(NC(=O)C(C)NC)C(C)(C)C)C(C(=O)NC1CCCc3ccccc31)C2

> <Shape>
0.246

> <Color>
0.071

> <Negative vol penalty>
0.000

$$$$

  -OEChem-04052304023D

 87 95  0     1  0  0  0  0  0999 V2000
  -25.5444  -34.5706   27.1142 C   0  0  0  0  0  0  0  0  0  0  0  0
  -26.1852  -33.4490   26.5975 C   0  0  0  0  0  0  0  0  0  0  0  0
  -24.5579   -9.0628   21.5525 C   0  0  0  0  0  0  0  0  0  0  0  0
  -24.0659  -10.6273   23.3266 C   0  0  0  0  0  0  0  0  0  0  0  0
  -24.1615  -34.7001   26.9919 C   0  0  0  0  0  0  0  0  0  0  0  0
  -25.4433  -32.4557   25.9592 C   0  0  0  0  0  0  0  0  0  0  0  0
  -27.5921  -30.8943   21.6476 C   0  0  0  0  0  0  0  0  0  0  0  0
  -24.1986   -8.0041   22.3865 C   0  0  0  0  0  0  0  0  0  0  0  0
  -23.7065   -9.5686   24.1606 C   0  0  0  0  0  0  0  0  0  0  0  0
  -28.6668  -30.0127   21.7547 C   0  0  0  0  0  0  0  0  0  0  0  0
  -21.3478   -6.5546   23.4843 C   0  0  0  0  0  0  0  0  0  0  0  0
  -20.5320   -5.5570   22.9506 C   0  0  0  0  0  0  0  0  0  0  0  0
  -26.1350  -19.4928   19.8690 C   0  0  0  0  0  0  0  0  0  0  0  0
  -26.9415  -21.7188   20.3502 C   0  0  0  0  0  0  0  0  0  0  0  0
  -27.1950  -28.1675   21.2567 C   0  0  0  0  0  0  0  0  0  0  0  0
  -28.4708  -19.8486   20.3732 C   0  0  0  0  0  0  0  0  0  0  0  0
  -22.2476   -3.9154   23.3969 C   0  0  0  0  0  0  0  0  0  0  0  0
  -24.4916  -10.3745   22.0226 C   0  0  0  0  0  0  0  0  0  0  0  0
  -25.8940  -20.8582   20.0218 C   0  0  0  0  0  0  0  0  0  0  0  0
  -24.0227  -12.1898   20.2928 C   0  0  0  0  0  0  0  0  0  0  0  0
  -23.4035  -33.7125   26.3432 C   0  0  0  0  0  0  0  0  0  0  0  0
  -26.3065  -30.4171   21.3546 C   0  0  0  0  0  0  0  0  0  0  0  0
  -24.0489  -32.5715   25.8293 C   0  0  0  0  0  0  0  0  0  0  0  0
  -26.1061  -29.0453   21.1439 C   0  0  0  0  0  0  0  0  0  0  0  0
  -27.4234  -18.9880   20.0448 C   0  0  0  0  0  0  0  0  0  0  0  0
  -28.2299  -21.2140   20.5259 C   0  0  0  0  0  0  0  0  0  0  0  0
  -23.7729   -8.2570   23.6906 C   0  0  0  0  0  0  0  0  0  0  0  0
  -28.4679  -28.6488   21.5621 C   0  0  0  0  0  0  0  0  0  0  0  0
  -22.6135   -6.2327   23.9743 C   0  0  0  0  0  0  0  0  0  0  0  0
  -20.9819   -4.2374   22.9069 C   0  0  0  0  0  0  0  0  0  0  0  0
  -23.0634   -4.9131   23.9306 C   0  0  0  0  0  0  0  0  0  0  0  0
  -24.8632  -11.4685   21.1617 C   0  0  0  0  0  0  0  0  0  0  0  0
  -24.8495  -13.1165   19.7060 C   0  0  0  0  0  0  0  0  0  0  0  0
  -24.5583  -21.3813   19.8405 C   0  0  0  0  0  0  0  0  0  0  0  0
  -22.6200  -12.0361   20.0388 C   0  0  0  0  0  0  0  0  0  0  0  0
  -30.4474  -24.1042   21.3741 C   0  0  0  0  0  0  0  0  0  0  0  0
  -30.5105  -25.6027   21.5965 C   0  0  0  0  0  0  0  0  0  0  0  0
  -23.5096  -30.4327   22.8649 C   0  0  0  0  0  0  0  0  0  0  0  0
  -22.4365  -29.1758   20.0737 C   0  0  0  0  0  0  0  0  0  0  0  0
  -23.1383  -27.4519   17.2132 C   0  0  0  0  0  0  0  0  0  0  0  0
  -28.8867  -16.9375   20.0273 C   0  0  0  0  0  0  0  0  0  0  0  0
  -21.9055  -33.8739   26.2770 C   0  0  0  0  0  0  0  0  0  0  0  0
  -25.1627  -31.3840   21.2162 C   0  0  0  0  0  0  0  0  0  0  0  0
  -24.7494  -28.4846   20.8072 C   0  0  0  0  0  0  0  0  0  0  0  0
  -21.2384  -32.9556   25.2562 C   0  0  0  0  0  0  0  0  0  0  0  0
  -29.8938  -13.5328   19.7607 C   0  0  0  0  0  0  0  0  0  0  0  0
  -21.7746  -31.5335   25.3868 C   0  0  0  0  0  0  0  0  0  0  0  0
  -28.6057  -12.7516   20.0300 C   0  0  0  0  0  0  0  0  0  0  0  0
  -29.9856  -14.7900   20.6238 C   0  0  0  0  0  0  0  0  0  0  0  0
  -27.5321  -14.8993   20.8186 C   0  0  0  0  0  0  0  0  0  0  0  0
  -23.2817  -31.4844   25.1083 C   0  0  1  0  0  0  0  0  0  0  0  0
  -23.7995  -30.7303   21.4210 C   0  0  1  0  0  0  0  0  0  0  0  0
  -27.3641  -13.6589   19.9259 C   0  0  2  0  0  0  0  0  0  0  0  0
  -22.0490  -26.5447   15.1425 C   0  0  0  0  0  0  0  0  0  0  0  0
  -21.2378  -26.8942   21.7068 C   0  0  0  0  0  0  0  0  0  0  0  0
  -21.0167  -25.5842   19.5847 C   0  0  0  0  0  0  0  0  0  0  0  0
  -19.7780  -27.7323   19.8571 C   0  0  0  0  0  0  0  0  0  0  0  0
  -24.8303  -29.1226   15.4511 C   0  0  0  0  0  0  0  0  0  0  0  0
  -29.1143  -23.4922   21.0291 C   0  0  0  0  0  0  0  0  0  0  0  0
  -29.2395  -26.4017   21.4569 C   0  0  0  0  0  0  0  0  0  1  0  0
  -22.2831  -27.7803   19.5186 C   0  0  1  0  0  0  0  0  0  0  0  0
  -22.7853  -27.7225   15.7618 C   0  0  2  0  0  0  0  0  0  0  0  0
  -21.1042  -27.0078   20.1751 C   0  0  0  0  0  0  0  0  0  0  0  0
  -26.1270  -11.8997   21.1326 N   0  0  0  0  0  0  0  0  0  0  0  0
  -26.0868  -12.9020   20.2382 N   0  0  0  0  0  0  0  0  0  0  0  0
  -23.6616  -29.4696   20.6891 N   0  0  0  0  0  0  0  0  0  0  0  0
  -28.7768  -15.6026   20.4708 N   0  0  0  0  0  0  0  0  0  0  0  0
  -24.6315  -14.0856   18.7919 N   0  0  0  0  0  0  0  0  0  0  0  0
  -23.5423  -20.5605   19.5248 N   0  0  0  0  0  0  0  0  0  0  0  0
  -21.9222  -11.0345   20.7274 N   0  0  0  0  0  0  0  0  0  0  0  0
  -27.6682  -17.6011   19.8884 N   0  0  0  0  0  0  0  0  0  0  0  0
  -29.2712  -22.0696   20.8521 N   0  0  0  0  0  0  0  0  0  0  0  0
  -23.5349  -31.5448   23.6847 N   0  0  0  0  0  0  0  0  0  0  0  0
  -22.1694  -27.9268   18.0716 N   0  0  0  0  0  0  0  0  0  0  0  0
  -24.3153  -22.6947   19.9872 N   0  3  0  0  0  0  0  0  0  0  0  0
  -24.0203  -27.9753   14.9668 N   0  3  0  0  0  0  0  0  0  0  0  0
  -22.0071  -12.7544   19.2130 O   0  0  0  0  0  0  0  0  0  0  0  0
  -31.4942  -23.4795   21.4913 O   0  0  0  0  0  0  0  0  0  0  0  0
  -31.5998  -26.0859   21.8773 O   0  0  0  0  0  0  0  0  0  0  0  0
  -23.2786  -29.2796   23.2096 O   0  0  0  0  0  0  0  0  0  0  0  0
  -21.5065  -29.9780   19.9589 O   0  0  0  0  0  0  0  0  0  0  0  0
  -24.1686  -26.8735   17.5515 O   0  0  0  0  0  0  0  0  0  0  0  0
  -29.9794  -17.4453   19.7622 O   0  0  0  0  0  0  0  0  0  0  0  0
  -23.4219   -7.2241   24.5046 O   0  0  0  0  0  0  0  0  0  0  0  0
  -29.5151  -27.7860   21.6666 O   0  0  0  0  0  0  0  0  0  1  0  0
  -20.1978   -3.2793   22.3957 F   0  0  0  0  0  0  0  0  0  0  0  0
  -24.2779   -4.5975   24.4008 F   0  0  0  0  0  0  0  0  0  0  0  0
  1  2  1  0  0  0  0
  1  5  2  0  0  0  0
  2  6  2  0  0  0  0
  3  8  2  0  0  0  0
  3 18  1  0  0  0  0
  4  9  1  0  0  0  0
  4 18  2  0  0  0  0
  5 21  1  0  0  0  0
  6 23  1  0  0  0  0
  7 10  2  0  0  0  0
  7 22  1  0  0  0  0
  8 27  1  0  0  0  0
  9 27  2  0  0  0  0
 10 28  1  0  0  0  0
 11 12  2  0  0  0  0
 11 29  1  0  0  0  0
 12 30  1  0  0  0  0
 13 19  2  0  0  0  0
 13 25  1  0  0  0  0
 14 19  1  0  0  0  0
 14 26  2  0  0  0  0
 15 24  1  0  0  0  0
 15 28  2  0  0  0  0
 16 25  2  0  0  0  0
 16 26  1  0  0  0  0
 17 30  2  0  0  0  0
 17 31  1  0  0  0  0
 18 32  1  0  0  0  0
 19 34  1  0  0  0  0
 20 32  1  0  0  0  0
 20 33  2  0  0  0  0
 20 35  1  0  0  0  0
 21 23  2  0  0  0  0
 21 42  1  0  0  0  0
 22 24  2  0  0  0  0
 22 43  1  0  0  0  0
 23 51  1  0  0  0  0
 24 44  1  0  0  0  0
 25 71  1  0  0  0  0
 26 72  1  0  0  0  0
 27 84  1  0  0  0  0
 28 85  1  0  0  0  0
 29 31  2  0  0  0  0
 29 84  1  0  0  0  0
 30 86  1  0  0  0  0
 31 87  1  0  0  0  0
 32 64  2  0  0  0  0
 33 65  1  0  0  0  0
 33 68  1  0  0  0  0
 34 69  1  0  0  0  0
 34 75  2  0  0  0  0
 35 70  1  0  0  0  0
 35 77  2  0  0  0  0
 36 37  1  0  0  0  0
 36 59  1  0  0  0  0
 36 78  2  0  0  0  0
 37 60  1  0  0  0  0
 37 79  2  0  0  0  0
 38 52  1  0  0  0  0
 38 73  1  0  0  0  0
 38 80  2  0  0  0  0
 39 61  1  0  0  0  0
 39 66  1  0  0  0  0
 39 81  2  0  0  0  0
 40 62  1  0  0  0  0
 40 74  1  0  0  0  0
 40 82  2  0  0  0  0
 41 67  1  0  0  0  0
 41 71  1  0  0  0  0
 41 83  2  0  0  0  0
 42 45  1  0  0  0  0
 43 52  1  0  0  0  0
 44 66  1  0  0  0  0
 45 47  1  0  0  0  0
 46 48  1  0  0  0  0
 46 49  1  0  0  0  0
 47 51  1  0  0  0  0
 48 53  1  0  0  0  0
 49 67  1  0  0  0  0
 50 53  1  0  0  0  0
 50 67  1  0  0  0  0
 51 73  1  0  0  0  0
 52 66  1  0  0  0  0
 53 65  1  0  0  0  0
 54 62  1  0  0  0  0
 55 63  1  0  0  0  0
 56 63  1  0  0  0  0
 57 63  1  0  0  0  0
 58 76  1  0  0  0  0
 59 72  1  0  0  0  0
 60 85  1  0  0  0  0
 61 63  1  0  0  0  0
 61 74  1  0  0  0  0
 62 76  1  0  0  0  0
 64 65  1  0  0  0  0
M  CHG  2  75   1  76   1
M  ISO  4  41 100  60 101  71 100  85 101
M  END
> <Batch ID>
0164

> <Smiles>
CNC(C)C(=O)NC(C(=O)N1Cc2cc([101O:1][101CH2:1]C(=O)C(=O)CNc3cc([100NH:0][100C:0](=O)N4CCCC(n5nc(-c6ccc(Oc7ccc(F)cc7F)cc6)c(C(N)=O)c5N)C4)cc(C(=N)N)c3)ccc2CC1C(=O)NC1CCCc2ccccc21)C(C)(C)C

> <Shape>
0.286

> <Color>
0.093

> <Negative vol penalty>
0.000

$$$$

  -OEChem-04052304023D

 84 92  0     1  0  0  0  0  0999 V2000
  -16.9425  -30.0985   24.7413 C   0  0  0  0  0  0  0  0  0  0  0  0
  -17.9797  -29.1734   24.8013 C   0  0  0  0  0  0  0  0  0  0  0  0
  -32.0519  -18.1390   23.4677 C   0  0  0  0  0  0  0  0  0  0  0  0
  -23.2803   -9.5916   19.9796 C   0  0  0  0  0  0  0  0  0  0  0  0
  -23.8237   -9.8805   22.3159 C   0  0  0  0  0  0  0  0  0  0  0  0
  -31.1417  -19.0233   24.0466 C   0  0  0  0  0  0  0  0  0  0  0  0
  -16.9287  -31.0644   23.7359 C   0  0  0  0  0  0  0  0  0  0  0  0
  -19.0033  -29.2129   23.8552 C   0  0  0  0  0  0  0  0  0  0  0  0
  -24.9103  -27.8759   24.7639 C   0  0  0  0  0  0  0  0  0  0  0  0
  -31.5998  -17.1315   22.6154 C   0  0  0  0  0  0  0  0  0  0  0  0
  -22.5817   -8.4239   20.2865 C   0  0  0  0  0  0  0  0  0  0  0  0
  -23.1251   -8.7129   22.6228 C   0  0  0  0  0  0  0  0  0  0  0  0
  -25.6610  -26.7276   24.5156 C   0  0  0  0  0  0  0  0  0  0  0  0
  -19.9044   -7.7725   23.0273 C   0  0  0  0  0  0  0  0  0  0  0  0
  -19.0460   -7.8025   24.1263 C   0  0  0  0  0  0  0  0  0  0  0  0
  -29.3273  -17.8926   22.9212 C   0  0  0  0  0  0  0  0  0  0  0  0
  -26.3840  -27.6624   22.4126 C   0  0  0  0  0  0  0  0  0  0  0  0
  -20.3199   -6.0345   25.1696 C   0  0  0  0  0  0  0  0  0  0  0  0
  -23.9013  -10.3199   20.9943 C   0  0  0  0  0  0  0  0  0  0  0  0
  -29.7794  -18.9002   23.7733 C   0  0  0  0  0  0  0  0  0  0  0  0
  -24.1119  -12.8366   20.6349 C   0  0  0  0  0  0  0  0  0  0  0  0
  -17.9576  -31.1219   22.7828 C   0  0  0  0  0  0  0  0  0  0  0  0
  -24.8820  -28.9232   23.8318 C   0  0  0  0  0  0  0  0  0  0  0  0
  -19.0026  -30.1796   22.8353 C   0  0  0  0  0  0  0  0  0  0  0  0
  -25.6341  -28.8239   22.6526 C   0  0  0  0  0  0  0  0  0  0  0  0
  -30.2375  -17.0083   22.3422 C   0  0  0  0  0  0  0  0  0  0  0  0
  -22.5041   -7.9845   21.6081 C   0  0  0  0  0  0  0  0  0  0  0  0
  -26.3957  -26.6195   23.3385 C   0  0  0  0  0  0  0  0  0  0  0  0
  -20.9705   -6.8734   22.9994 C   0  0  0  0  0  0  0  0  0  0  0  0
  -19.2538   -6.9336   25.1975 C   0  0  0  0  0  0  0  0  0  0  0  0
  -21.1783   -6.0044   24.0706 C   0  0  0  0  0  0  0  0  0  0  0  0
  -24.6235  -11.5258   20.6779 C   0  0  0  0  0  0  0  0  0  0  0  0
  -25.1896  -13.6147   20.2889 C   0  0  0  0  0  0  0  0  0  0  0  0
  -28.8151  -19.8363   24.3853 C   0  0  0  0  0  0  0  0  0  0  0  0
  -22.7815  -13.3087   20.8855 C   0  0  0  0  0  0  0  0  0  0  0  0
  -22.6180  -30.3099   22.0839 C   0  0  0  0  0  0  0  0  0  0  0  0
  -27.9795  -23.3083   23.6803 C   0  0  0  0  0  0  0  0  0  0  0  0
  -25.0168  -32.3476   21.2995 C   0  0  0  0  0  0  0  0  0  0  0  0
  -28.3720  -32.8931   20.9965 C   0  0  0  0  0  0  0  0  0  0  0  0
  -30.5497  -15.0252   20.8203 C   0  0  0  0  0  0  0  0  0  0  0  0
  -17.8748  -32.1544   21.6865 C   0  0  0  0  0  0  0  0  0  0  0  0
  -24.0884  -30.1664   24.1268 C   0  0  0  0  0  0  0  0  0  0  0  0
  -25.6535  -29.9286   21.6290 C   0  0  0  0  0  0  0  0  0  0  0  0
  -19.1931  -32.3631   20.9456 C   0  0  0  0  0  0  0  0  0  0  0  0
  -29.7945  -12.3163   18.6366 C   0  0  0  0  0  0  0  0  0  0  0  0
  -19.8204  -31.0206   20.5837 C   0  0  0  0  0  0  0  0  0  0  0  0
  -28.3398  -11.9770   18.9694 C   0  0  0  0  0  0  0  0  0  0  0  0
  -30.5807  -12.7248   19.8811 C   0  0  0  0  0  0  0  0  0  0  0  0
  -28.5171  -13.4604   21.0079 C   0  0  0  0  0  0  0  0  0  0  0  0
  -20.1438  -30.2058   21.8419 C   0  0  1  0  0  0  0  0  0  0  0  0
  -23.7232  -30.9539   22.8722 C   0  0  1  0  0  0  0  0  0  0  0  0
  -27.6682  -13.1057   19.7760 C   0  0  2  0  0  0  0  0  0  0  0  0
  -30.0278  -34.6435   20.2950 C   0  0  0  0  0  0  0  0  0  0  0  0
  -24.3742  -31.7786   18.3715 C   0  0  0  0  0  0  0  0  0  0  0  0
  -26.5957  -32.7612   17.7652 C   0  0  0  0  0  0  0  0  0  0  0  0
  -24.8717  -34.1754   18.8836 C   0  0  0  0  0  0  0  0  0  0  0  0
  -29.5993  -32.9768   23.6883 C   0  0  0  0  0  0  0  0  0  0  0  0
  -28.0410  -22.1650   24.6590 C   0  0  0  0  0  0  0  0  0  0  0  0
  -27.0999  -24.4742   24.0855 C   0  0  0  0  0  0  0  0  0  1  0  0
  -26.0698  -32.3938   20.2187 C   0  0  1  0  0  0  0  0  0  0  0  0
  -29.2513  -34.0421   21.4561 C   0  0  2  0  0  0  0  0  0  0  0  0
  -25.4762  -32.7555   18.8280 C   0  0  0  0  0  0  0  0  0  0  0  0
  -25.9249  -11.4704   20.3826 N   0  0  0  0  0  0  0  0  0  0  0  0
  -26.2402  -12.7560   20.1507 N   0  0  0  0  0  0  0  0  0  0  0  0
  -24.8565  -31.1214   21.9602 N   0  0  0  0  0  0  0  0  0  0  0  0
  -29.8867  -13.8009   20.5919 N   0  0  0  0  0  0  0  0  0  0  0  0
  -25.3315  -14.9427   20.0924 N   0  0  0  0  0  0  0  0  0  0  0  0
  -21.7948  -12.3747   21.2297 N   0  0  0  0  0  0  0  0  0  0  0  0
  -29.7791  -15.9846   21.4764 N   0  0  0  0  0  0  0  0  0  0  0  0
  -28.9378  -21.1511   24.1303 N   0  0  0  0  0  0  0  0  0  0  0  0
  -21.3501  -30.7018   22.4690 N   0  0  0  0  0  0  0  0  0  0  0  0
  -27.0967  -33.3175   20.6885 N   0  0  0  0  0  0  0  0  0  0  0  0
  -27.8622  -19.3328   25.1699 N   0  3  0  0  0  0  0  0  0  0  0  0
  -30.2265  -33.5708   22.4796 N   0  3  0  0  0  0  0  0  0  0  0  0
  -22.4729  -14.5209   20.7905 O   0  0  0  0  0  0  0  0  0  0  0  0
  -22.8950  -29.5173   21.1913 O   0  0  0  0  0  0  0  0  0  0  0  0
  -28.6001  -23.3035   22.6181 O   0  0  0  0  0  0  0  0  0  0  0  0
  -24.3656  -33.3641   21.5532 O   0  0  0  0  0  0  0  0  0  0  0  0
  -28.7772  -31.7357   20.9149 O   0  0  0  0  0  0  0  0  0  0  0  0
  -31.7060  -15.2186   20.4362 O   0  0  0  0  0  0  0  0  0  0  0  0
  -21.8224   -6.8453   21.9079 O   0  0  0  0  0  0  0  0  0  0  0  0
  -27.1289  -25.4996   23.0934 O   0  0  0  0  0  0  0  0  0  1  0  0
  -18.4303   -6.9636   26.2535 F   0  0  0  0  0  0  0  0  0  0  0  0
  -22.2015   -5.1393   24.0500 F   0  0  0  0  0  0  0  0  0  0  0  0
  1  2  1  0  0  0  0
  1  7  2  0  0  0  0
  2  8  2  0  0  0  0
  3  6  2  0  0  0  0
  3 10  1  0  0  0  0
  4 11  2  0  0  0  0
  4 19  1  0  0  0  0
  5 12  1  0  0  0  0
  5 19  2  0  0  0  0
  6 20  1  0  0  0  0
  7 22  1  0  0  0  0
  8 24  1  0  0  0  0
  9 13  2  0  0  0  0
  9 23  1  0  0  0  0
 10 26  2  0  0  0  0
 11 27  1  0  0  0  0
 12 27  2  0  0  0  0
 13 28  1  0  0  0  0
 14 15  2  0  0  0  0
 14 29  1  0  0  0  0
 15 30  1  0  0  0  0
 16 20  2  0  0  0  0
 16 26  1  0  0  0  0
 17 25  1  0  0  0  0
 17 28  2  0  0  0  0
 18 30  2  0  0  0  0
 18 31  1  0  0  0  0
 19 32  1  0  0  0  0
 20 34  1  0  0  0  0
 21 32  1  0  0  0  0
 21 33  2  0  0  0  0
 21 35  1  0  0  0  0
 22 24  2  0  0  0  0
 22 41  1  0  0  0  0
 23 25  2  0  0  0  0
 23 42  1  0  0  0  0
 24 50  1  0  0  0  0
 25 43  1  0  0  0  0
 26 69  1  0  0  0  0
 27 81  1  0  0  0  0
 28 82  1  0  0  0  0
 29 31  2  0  0  0  0
 29 81  1  0  0  0  0
 30 83  1  0  0  0  0
 31 84  1  0  0  0  0
 32 63  2  0  0  0  0
 33 64  1  0  0  0  0
 33 67  1  0  0  0  0
 34 70  1  0  0  0  0
 34 73  2  0  0  0  0
 35 68  1  0  0  0  0
 35 75  2  0  0  0  0
 36 51  1  0  0  0  0
 36 71  1  0  0  0  0
 36 76  2  0  0  0  0
 37 58  1  0  0  0  0
 37 59  1  0  0  0  0
 37 77  2  0  0  0  0
 38 60  1  0  0  0  0
 38 65  1  0  0  0  0
 38 78  2  0  0  0  0
 39 61  1  0  0  0  0
 39 72  1  0  0  0  0
 39 79  2  0  0  0  0
 40 66  1  0  0  0  0
 40 69  1  0  0  0  0
 40 80  2  0  0  0  0
 41 44  1  0  0  0  0
 42 51  1  0  0  0  0
 43 65  1  0  0  0  0
 44 46  1  0  0  0  0
 45 47  1  0  0  0  0
 45 48  1  0  0  0  0
 46 50  1  0  0  0  0
 47 52  1  0  0  0  0
 48 66  1  0  0  0  0
 49 52  1  0  0  0  0
 49 66  1  0  0  0  0
 50 71  1  0  0  0  0
 51 65  1  0  0  0  0
 52 64  1  0  0  0  0
 53 61  1  0  0  0  0
 54 62  1  0  0  0  0
 55 62  1  0  0  0  0
 56 62  1  0  0  0  0
 57 74  1  0  0  0  0
 58 70  1  0  0  0  0
 59 82  1  0  0  0  0
 60 62  1  0  0  0  0
 60 72  1  0  0  0  0
 61 74  1  0  0  0  0
 63 64  1  0  0  0  0
M  CHG  2  73   1  74   1
M  ISO  4  40 100  59 101  69 100  82 101
M  END
> <Batch ID>
0164

> <Smiles>
CNC(C)C(=O)NC(C(=O)N1Cc2cc([101O:1][101CH2:1]C(=O)CNC(=N)c3cccc([100NH:0][100C:0](=O)N4CCCC(n5nc(-c6ccc(Oc7ccc(F)cc7F)cc6)c(C(N)=O)c5N)C4)c3)ccc2CC1C(=O)NC1CCCc2ccccc21)C(C)(C)C

> <Shape>
0.261

> <Color>
0.183

> <Negative vol penalty>
0.000

$$$$

  -OEChem-04052304022D

  0  0  0     0  0  0  0  0  0999 V2000
M  END
$$$$

  -OEChem-04052304023D

 85 93  0     1  0  0  0  0  0999 V2000
  -20.2616  -31.0491   22.7423 C   0  0  0  0  0  0  0  0  0  0  0  0
  -21.5382  -30.5080   22.6290 C   0  0  0  0  0  0  0  0  0  0  0  0
  -25.6713  -13.4976   21.8712 C   0  0  0  0  0  0  0  0  0  0  0  0
  -25.3625  -14.3162   19.6192 C   0  0  0  0  0  0  0  0  0  0  0  0
  -19.1496  -30.2086   22.7719 C   0  0  0  0  0  0  0  0  0  0  0  0
  -21.7036  -29.1259   22.5462 C   0  0  0  0  0  0  0  0  0  0  0  0
  -25.0077  -27.7762   18.9537 C   0  0  0  0  0  0  0  0  0  0  0  0
  -24.6168  -12.6027   21.6905 C   0  0  0  0  0  0  0  0  0  0  0  0
  -24.3080  -13.4213   19.4384 C   0  0  0  0  0  0  0  0  0  0  0  0
  -26.3629  -27.9133   19.2511 C   0  0  0  0  0  0  0  0  0  0  0  0
  -24.1156   -9.6134   20.1920 C   0  0  0  0  0  0  0  0  0  0  0  0
  -24.2985   -8.3001   20.6248 C   0  0  0  0  0  0  0  0  0  0  0  0
  -30.8123  -23.4344   19.0680 C   0  0  0  0  0  0  0  0  0  0  0  0
  -32.4156  -23.5246   17.2630 C   0  0  0  0  0  0  0  0  0  0  0  0
  -26.4894  -25.5534   19.7346 C   0  0  0  0  0  0  0  0  0  0  0  0
  -31.9018  -21.4127   18.3179 C   0  0  0  0  0  0  0  0  0  0  0  0
  -22.4242   -8.5354   22.1310 C   0  0  0  0  0  0  0  0  0  0  0  0
  -26.0442  -14.3544   20.8355 C   0  0  0  0  0  0  0  0  0  0  0  0
  -31.5181  -24.1685   18.1148 C   0  0  0  0  0  0  0  0  0  0  0  0
  -28.4962  -15.0533   20.7524 C   0  0  0  0  0  0  0  0  0  0  0  0
  -19.3008  -28.8160   22.6797 C   0  0  0  0  0  0  0  0  0  0  0  0
  -24.3796  -26.5266   19.0552 C   0  0  0  0  0  0  0  0  0  0  0  0
  -20.5926  -28.2659   22.5759 C   0  0  0  0  0  0  0  0  0  0  0  0
  -25.1267  -25.4026   19.4355 C   0  0  0  0  0  0  0  0  0  0  0  0
  -31.0042  -22.0565   19.1696 C   0  0  0  0  0  0  0  0  0  0  0  0
  -23.9351  -12.5645   20.4742 C   0  0  0  0  0  0  0  0  0  0  0  0
  -27.1033  -26.8024   19.6444 C   0  0  0  0  0  0  0  0  0  0  0  0
  -23.0870  -10.3878   20.7287 C   0  0  0  0  0  0  0  0  0  0  0  0
  -23.4528   -7.7611   21.5943 C   0  0  0  0  0  0  0  0  0  0  0  0
  -32.6075  -22.1467   17.3645 C   0  0  0  0  0  0  0  0  0  0  0  0
  -22.2413   -9.8488   21.6982 C   0  0  0  0  0  0  0  0  0  0  0  0
  -27.1331  -15.2795   21.0217 C   0  0  0  0  0  0  0  0  0  0  0  0
  -29.1140  -16.2312   21.0950 C   0  0  0  0  0  0  0  0  0  0  0  0
  -31.3163  -25.6274   18.0076 C   0  0  0  0  0  0  0  0  0  0  0  0
  -29.1459  -13.8831   20.2384 C   0  0  0  0  0  0  0  0  0  0  0  0
  -22.0056  -25.3452   20.8079 C   0  0  0  0  0  0  0  0  0  0  0  0
  -30.4551  -28.1515   20.1689 C   0  0  0  0  0  0  0  0  0  0  0  0
  -22.4291  -22.7404   18.9216 C   0  0  0  0  0  0  0  0  0  0  0  0
  -24.5058  -20.9259   16.9112 C   0  0  0  0  0  0  0  0  0  0  0  0
  -29.3576  -21.7938   21.0580 C   0  0  0  0  0  0  0  0  0  0  0  0
  -18.0721  -27.9453   22.7636 C   0  0  0  0  0  0  0  0  0  0  0  0
  -22.9232  -26.3904   18.7051 C   0  0  0  0  0  0  0  0  0  0  0  0
  -24.5043  -24.0351   19.5403 C   0  0  0  0  0  0  0  0  0  0  0  0
  -18.3079  -26.5123   22.2935 C   0  0  0  0  0  0  0  0  0  0  0  0
  -27.3505  -20.2752   23.5764 C   0  0  0  0  0  0  0  0  0  0  0  0
  -19.5915  -25.9555   22.9012 C   0  0  0  0  0  0  0  0  0  0  0  0
  -27.2271  -18.8216   23.1142 C   0  0  0  0  0  0  0  0  0  0  0  0
  -27.3377  -21.2480   22.3986 C   0  0  0  0  0  0  0  0  0  0  0  0
  -28.1954  -19.5060   20.8823 C   0  0  0  0  0  0  0  0  0  0  0  0
  -20.8112  -26.7730   22.4588 C   0  0  1  0  0  0  0  0  0  0  0  0
  -22.2681  -25.1672   19.3392 C   0  0  1  0  0  0  0  0  0  0  0  0
  -28.2689  -18.4848   22.0293 C   0  0  2  0  0  0  0  0  0  0  0  0
  -24.5815  -18.8239   15.5425 C   0  0  0  0  0  0  0  0  0  0  0  0
  -22.6983  -21.0908   21.4743 C   0  0  0  0  0  0  0  0  0  0  0  0
  -23.6955  -19.2523   20.0981 C   0  0  0  0  0  0  0  0  0  0  0  0
  -21.3562  -20.0031   19.6660 C   0  0  0  0  0  0  0  0  0  0  0  0
  -25.0171  -22.4316   14.4152 C   0  0  0  0  0  0  0  0  0  0  0  0
  -31.4462  -27.8452   19.0853 C   0  0  0  0  0  0  0  0  0  0  0  0
  -28.9909  -28.2386   19.8175 C   0  0  0  0  0  0  0  0  0  1  0  0
  -23.2817  -21.4966   18.9921 C   0  0  1  0  0  0  0  0  0  0  0  0
  -24.2985  -20.3181   15.5357 C   0  0  2  0  0  0  0  0  0  0  0  0
  -22.7695  -20.4867   20.0576 C   0  0  0  0  0  0  0  0  0  0  0  0
  -26.8981  -16.5047   21.4988 N   0  0  0  0  0  0  0  0  0  0  0  0
  -30.8673  -28.3296   21.3819 N   0  0  0  0  0  0  0  0  0  0  0  0
  -28.1220  -17.0590   21.5320 N   0  0  0  0  0  0  0  0  0  0  0  0
  -23.0757  -23.9544   19.1937 N   0  0  0  0  0  0  0  0  0  0  0  0
  -28.3530  -20.8690   21.4135 N   0  0  0  0  0  0  0  0  0  0  0  0
  -30.4035  -16.6293   21.0621 N   0  0  0  0  0  0  0  0  0  0  0  0
  -28.3617  -12.7607   19.9388 N   0  0  0  0  0  0  0  0  0  0  0  0
  -30.2864  -21.3104   20.1370 N   0  0  0  0  0  0  0  0  0  0  0  0
  -31.5879  -26.3990   19.0751 N   0  0  0  0  0  0  0  0  0  0  0  0
  -21.1922  -26.4213   21.1077 N   0  0  0  0  0  0  0  0  0  0  0  0
  -23.3336  -20.9599   17.6365 N   0  0  0  0  0  0  0  0  0  0  0  0
  -30.8688  -26.1164   16.8509 N   0  3  0  0  0  0  0  0  0  0  0  0
  -25.2033  -20.9632   14.5427 N   0  3  0  0  0  0  0  0  0  0  0  0
  -30.3872  -13.8285   20.0659 O   0  0  0  0  0  0  0  0  0  0  0  0
  -22.5029  -24.5631   21.6097 O   0  0  0  0  0  0  0  0  0  0  0  0
  -21.2351  -22.6394   18.6286 O   0  0  0  0  0  0  0  0  0  0  0  0
  -25.5991  -21.3267   17.3045 O   0  0  0  0  0  0  0  0  0  0  0  0
  -29.4071  -22.9215   21.5558 O   0  0  0  0  0  0  0  0  0  0  0  0
  -22.9062  -11.6912   20.2974 O   0  0  0  0  0  0  0  0  0  0  0  0
  -28.4261  -26.9335   19.9358 O   0  0  0  0  0  0  0  0  0  1  0  0
  -23.6276   -6.4994   22.0087 F   0  0  0  0  0  0  0  0  0  0  0  0
  -33.4695  -21.5285   16.5467 F   0  0  0  0  0  0  0  0  0  0  0  0
  -21.2507  -10.5875   22.2167 F   0  0  0  0  0  0  0  0  0  0  0  0
  1  2  1  0  0  0  0
  1  5  2  0  0  0  0
  2  6  2  0  0  0  0
  3  8  2  0  0  0  0
  3 18  1  0  0  0  0
  4  9  1  0  0  0  0
  4 18  2  0  0  0  0
  5 21  1  0  0  0  0
  6 23  1  0  0  0  0
  7 10  2  0  0  0  0
  7 22  1  0  0  0  0
  8 26  1  0  0  0  0
  9 26  2  0  0  0  0
 10 27  1  0  0  0  0
 11 12  2  0  0  0  0
 11 28  1  0  0  0  0
 12 29  1  0  0  0  0
 13 19  2  0  0  0  0
 13 25  1  0  0  0  0
 14 19  1  0  0  0  0
 14 30  2  0  0  0  0
 15 24  1  0  0  0  0
 15 27  2  0  0  0  0
 16 25  2  0  0  0  0
 16 30  1  0  0  0  0
 17 29  2  0  0  0  0
 17 31  1  0  0  0  0
 18 32  1  0  0  0  0
 19 34  1  0  0  0  0
 20 32  1  0  0  0  0
 20 33  2  0  0  0  0
 20 35  1  0  0  0  0
 21 23  2  0  0  0  0
 21 41  1  0  0  0  0
 22 24  2  0  0  0  0
 22 42  1  0  0  0  0
 23 50  1  0  0  0  0
 24 43  1  0  0  0  0
 25 70  1  0  0  0  0
 26 81  1  0  0  0  0
 27 82  1  0  0  0  0
 28 31  2  0  0  0  0
 28 81  1  0  0  0  0
 29 83  1  0  0  0  0
 30 84  1  0  0  0  0
 31 85  1  0  0  0  0
 32 63  2  0  0  0  0
 33 65  1  0  0  0  0
 33 68  1  0  0  0  0
 34 71  1  0  0  0  0
 34 74  2  0  0  0  0
 35 69  1  0  0  0  0
 35 76  2  0  0  0  0
 36 51  1  0  0  0  0
 36 72  1  0  0  0  0
 36 77  2  0  0  0  0
 37 58  1  0  0  0  0
 37 59  1  0  0  0  0
 37 64  2  0  0  0  0
 38 60  1  0  0  0  0
 38 66  1  0  0  0  0
 38 78  2  0  0  0  0
 39 61  1  0  0  0  0
 39 73  1  0  0  0  0
 39 79  2  0  0  0  0
 40 67  1  0  0  0  0
 40 70  1  0  0  0  0
 40 80  2  0  0  0  0
 41 44  1  0  0  0  0
 42 51  1  0  0  0  0
 43 66  1  0  0  0  0
 44 46  1  0  0  0  0
 45 47  1  0  0  0  0
 45 48  1  0  0  0  0
 46 50  1  0  0  0  0
 47 52  1  0  0  0  0
 48 67  1  0  0  0  0
 49 52  1  0  0  0  0
 49 67  1  0  0  0  0
 50 72  1  0  0  0  0
 51 66  1  0  0  0  0
 52 65  1  0  0  0  0
 53 61  1  0  0  0  0
 54 62  1  0  0  0  0
 55 62  1  0  0  0  0
 56 62  1  0  0  0  0
 57 75  1  0  0  0  0
 58 71  1  0  0  0  0
 59 82  1  0  0  0  0
 60 62  1  0  0  0  0
 60 73  1  0  0  0  0
 61 75  1  0  0  0  0
 63 65  1  0  0  0  0
M  CHG  2  74   1  75   1
M  ISO  4  40 100  59 101  70 100  82 101
M  END
> <Batch ID>
0164

> <Smiles>
CNC(C)C(=O)NC(C(=O)N1Cc2cc([101O:1][101CH2:1]C(=N)CNC(=N)c3cc(F)cc([100NH:0][100C:0](=O)N4CCCC(n5nc(-c6ccc(Oc7ccc(F)cc7F)cc6)c(C(N)=O)c5N)C4)c3)ccc2CC1C(=O)NC1CCCc2ccccc21)C(C)(C)C

> <Shape>
0.261

> <Color>
0.064

> <Negative vol penalty>
0.000

$$$$

  -OEChem-04052304023D

 86 94  0     1  0  0  0  0  0999 V2000
  -23.8321  -36.7623   23.8272 C   0  0  0  0  0  0  0  0  0  0  0  0
  -24.2908  -35.9205   22.8190 C   0  0  0  0  0  0  0  0  0  0  0  0
  -26.4469  -12.7150   21.6543 C   0  0  0  0  0  0  0  0  0  0  0  0
  -25.8513  -13.8282   19.5945 C   0  0  0  0  0  0  0  0  0  0  0  0
  -24.3300  -36.6319   25.1229 C   0  0  0  0  0  0  0  0  0  0  0  0
  -25.2484  -34.9484   23.1059 C   0  0  0  0  0  0  0  0  0  0  0  0
  -24.1412  -30.4605   21.0374 C   0  0  0  0  0  0  0  0  0  0  0  0
  -25.2217  -12.0485   21.6485 C   0  0  0  0  0  0  0  0  0  0  0  0
  -24.6260  -13.1617   19.5886 C   0  0  0  0  0  0  0  0  0  0  0  0
  -24.4015  -30.3051   19.6766 C   0  0  0  0  0  0  0  0  0  0  0  0
  -23.8408   -9.3877   20.0843 C   0  0  0  0  0  0  0  0  0  0  0  0
  -23.8444   -8.0220   20.3677 C   0  0  0  0  0  0  0  0  0  0  0  0
  -26.4463  -29.1404   20.2069 C   0  0  0  0  0  0  0  0  0  0  0  0
  -27.0761  -23.1064   17.9795 C   0  0  0  0  0  0  0  0  0  0  0  0
  -22.4038   -8.4124   22.2675 C   0  0  0  0  0  0  0  0  0  0  0  0
  -26.7618  -13.6049   20.6273 C   0  0  0  0  0  0  0  0  0  0  0  0
  -29.2334  -13.8616   20.0504 C   0  0  0  0  0  0  0  0  0  0  0  0
  -25.2872  -35.6513   25.4279 C   0  0  0  0  0  0  0  0  0  0  0  0
  -25.0385  -29.9658   21.9948 C   0  0  0  0  0  0  0  0  0  0  0  0
  -25.7606  -34.8056   24.4066 C   0  0  0  0  0  0  0  0  0  0  0  0
  -26.1939  -29.2886   21.5793 C   0  0  0  0  0  0  0  0  0  0  0  0
  -27.9662  -24.1723   18.0486 C   0  0  0  0  0  0  0  0  0  0  0  0
  -24.3112  -12.2718   20.6156 C   0  0  0  0  0  0  0  0  0  0  0  0
  -25.5556  -29.6475   19.2611 C   0  0  0  0  0  0  0  0  0  0  0  0
  -23.1188  -10.2659   20.8925 C   0  0  0  0  0  0  0  0  0  0  0  0
  -23.1259   -7.5343   21.4593 C   0  0  0  0  0  0  0  0  0  0  0  0
  -27.2530  -22.0051   18.8097 C   0  0  0  0  0  0  0  0  0  0  0  0
  -22.4003   -9.7782   21.9841 C   0  0  0  0  0  0  0  0  0  0  0  0
  -28.0271  -14.2941   20.6331 C   0  0  0  0  0  0  0  0  0  0  0  0
  -29.0085  -24.0889   18.9577 C   0  0  0  0  0  0  0  0  0  0  0  0
  -28.3274  -22.0187   19.6846 C   0  0  0  0  0  0  0  0  0  0  0  0
  -30.1294  -14.8638   20.3319 C   0  0  0  0  0  0  0  0  0  0  0  0
  -29.5184  -12.6614   19.3198 C   0  0  0  0  0  0  0  0  0  0  0  0
  -26.8520  -26.7193   15.5705 C   0  0  0  0  0  0  0  0  0  0  0  0
  -26.1628  -27.9282   16.1494 C   0  0  0  0  0  0  0  0  0  0  0  0
  -26.8162  -31.2666   24.2864 C   0  0  0  0  0  0  0  0  0  0  0  0
  -27.4499  -28.1697   25.0142 C   0  0  0  0  0  0  0  0  0  0  0  0
  -27.6192  -24.9246   23.9713 C   0  0  0  0  0  0  0  0  0  0  0  0
  -29.5050  -20.6953   21.4758 C   0  0  0  0  0  0  0  0  0  0  0  0
  -25.8306  -35.5795   26.8330 C   0  0  0  0  0  0  0  0  0  0  0  0
  -24.7299  -30.1182   23.4590 C   0  0  0  0  0  0  0  0  0  0  0  0
  -27.1790  -28.7212   22.5672 C   0  0  0  0  0  0  0  0  0  0  0  0
  -26.5681  -34.2775   27.1350 C   0  0  0  0  0  0  0  0  0  0  0  0
  -31.0448  -18.2665   23.5750 C   0  0  0  0  0  0  0  0  0  0  0  0
  -27.5321  -33.9352   26.0035 C   0  0  0  0  0  0  0  0  0  0  0  0
  -30.5603  -16.9327   23.0020 C   0  0  0  0  0  0  0  0  0  0  0  0
  -29.9599  -19.3400   23.5083 C   0  0  0  0  0  0  0  0  0  0  0  0
  -28.8789  -18.2042   21.6081 C   0  0  0  0  0  0  0  0  0  0  0  0
  -26.7806  -33.7226   24.6838 C   0  0  1  0  0  0  0  0  0  0  0  0
  -25.9695  -30.0267   24.3435 C   0  0  1  0  0  0  0  0  0  0  0  0
  -29.9583  -17.1095   21.5943 C   0  0  2  0  0  0  0  0  0  0  0  0
  -28.2051  -22.6231   24.7818 C   0  0  0  0  0  0  0  0  0  0  0  0
  -30.4154  -28.8666   24.8420 C   0  0  0  0  0  0  0  0  0  0  0  0
  -30.9121  -26.4162   24.7099 C   0  0  0  0  0  0  0  0  0  0  0  0
  -29.8074  -27.3554   26.7397 C   0  0  0  0  0  0  0  0  0  0  0  0
  -24.8856  -23.9185   23.4481 C   0  0  0  0  0  0  0  0  0  0  0  0
  -26.7198  -25.3963   16.2671 C   0  0  0  0  0  0  0  0  0  0  0  0
  -26.5552  -28.3404   17.5441 C   0  0  0  0  0  0  0  0  0  1  0  0
  -28.4917  -27.1632   24.5893 C   0  0  1  0  0  0  0  0  0  0  0  0
  -27.0919  -23.6404   24.5854 C   0  0  2  0  0  0  0  0  0  0  0  0
  -29.8893  -27.4626   25.2013 C   0  0  0  0  0  0  0  0  0  0  0  0
  -28.1429  -15.4787   21.2393 N   0  0  0  0  0  0  0  0  0  0  0  0
  -29.2128  -23.0358   19.7804 N   0  0  0  0  0  0  0  0  0  0  0  0
  -27.5376  -26.8876   14.4891 N   0  0  0  0  0  0  0  0  0  0  0  0
  -29.4326  -15.7991   21.0389 N   0  0  0  0  0  0  0  0  0  0  0  0
  -26.8360  -28.9012   23.9876 N   0  0  0  0  0  0  0  0  0  0  0  0
  -29.4395  -19.4545   22.1441 N   0  0  0  0  0  0  0  0  0  0  0  0
  -29.9206  -25.1715   19.0352 N   0  0  0  0  0  0  0  0  0  0  0  0
  -31.4375  -15.0274   20.0412 N   0  0  0  0  0  0  0  0  0  0  0  0
  -28.4828  -11.7382   19.1212 N   0  0  0  0  0  0  0  0  0  0  0  0
  -27.7905  -25.2731   17.2219 N   0  0  0  0  0  0  0  0  0  0  0  0
  -28.5017  -20.8933   20.5278 N   0  0  0  0  0  0  0  0  0  0  0  0
  -26.1530  -32.4186   24.6640 N   0  0  0  0  0  0  0  0  0  0  0  0
  -27.9565  -25.8509   24.9354 N   0  0  0  0  0  0  0  0  0  0  0  0
  -26.0516  -23.0350   23.7066 N   0  3  0  0  0  0  0  0  0  0  0  0
  -30.6619  -12.4072   18.8709 O   0  0  0  0  0  0  0  0  0  0  0  0
  -25.3161  -28.4831   15.4637 O   0  0  0  0  0  0  0  0  0  0  0  0
  -27.9851  -31.1841   23.9277 O   0  0  0  0  0  0  0  0  0  0  0  0
  -27.1851  -28.2970   26.2123 O   0  0  0  0  0  0  0  0  0  0  0  0
  -27.7251  -25.0883   22.7578 O   0  0  0  0  0  0  0  0  0  0  0  0
  -30.4021  -21.5102   21.7065 O   0  0  0  0  0  0  0  0  0  0  0  0
  -23.1156  -11.6214   20.6094 O   0  0  0  0  0  0  0  0  0  0  0  0
  -25.8124  -29.4949   17.9335 O   0  0  0  0  0  0  0  0  0  1  0  0
  -23.1282   -6.2226   21.7304 F   0  0  0  0  0  0  0  0  0  0  0  0
  -26.4037  -20.9712   18.7537 F   0  0  0  0  0  0  0  0  0  0  0  0
  -21.7038  -10.6168   22.7635 F   0  0  0  0  0  0  0  0  0  0  0  0
  1  2  1  0  0  0  0
  1  5  2  0  0  0  0
  2  6  2  0  0  0  0
  3  8  2  0  0  0  0
  3 16  1  0  0  0  0
  4  9  1  0  0  0  0
  4 16  2  0  0  0  0
  5 18  1  0  0  0  0
  6 20  1  0  0  0  0
  7 10  2  0  0  0  0
  7 19  1  0  0  0  0
  8 23  1  0  0  0  0
  9 23  2  0  0  0  0
 10 24  1  0  0  0  0
 11 12  2  0  0  0  0
 11 25  1  0  0  0  0
 12 26  1  0  0  0  0
 13 21  1  0  0  0  0
 13 24  2  0  0  0  0
 14 22  1  0  0  0  0
 14 27  2  0  0  0  0
 15 26  2  0  0  0  0
 15 28  1  0  0  0  0
 16 29  1  0  0  0  0
 17 29  1  0  0  0  0
 17 32  2  0  0  0  0
 17 33  1  0  0  0  0
 18 20  2  0  0  0  0
 18 40  1  0  0  0  0
 19 21  2  0  0  0  0
 19 41  1  0  0  0  0
 20 49  1  0  0  0  0
 21 42  1  0  0  0  0
 22 30  2  0  0  0  0
 22 71  1  0  0  0  0
 23 82  1  0  0  0  0
 24 83  1  0  0  0  0
 25 28  2  0  0  0  0
 25 82  1  0  0  0  0
 26 84  1  0  0  0  0
 27 31  1  0  0  0  0
 27 85  1  0  0  0  0
 28 86  1  0  0  0  0
 29 62  2  0  0  0  0
 30 63  1  0  0  0  0
 30 68  1  0  0  0  0
 31 63  2  0  0  0  0
 31 72  1  0  0  0  0
 32 65  1  0  0  0  0
 32 69  1  0  0  0  0
 33 70  1  0  0  0  0
 33 76  2  0  0  0  0
 34 35  1  0  0  0  0
 34 57  1  0  0  0  0
 34 64  2  0  0  0  0
 35 58  1  0  0  0  0
 35 77  2  0  0  0  0
 36 50  1  0  0  0  0
 36 73  1  0  0  0  0
 36 78  2  0  0  0  0
 37 59  1  0  0  0  0
 37 66  1  0  0  0  0
 37 79  2  0  0  0  0
 38 60  1  0  0  0  0
 38 74  1  0  0  0  0
 38 80  2  0  0  0  0
 39 67  1  0  0  0  0
 39 72  1  0  0  0  0
 39 81  2  0  0  0  0
 40 43  1  0  0  0  0
 41 50  1  0  0  0  0
 42 66  1  0  0  0  0
 43 45  1  0  0  0  0
 44 46  1  0  0  0  0
 44 47  1  0  0  0  0
 45 49  1  0  0  0  0
 46 51  1  0  0  0  0
 47 67  1  0  0  0  0
 48 51  1  0  0  0  0
 48 67  1  0  0  0  0
 49 73  1  0  0  0  0
 50 66  1  0  0  0  0
 51 65  1  0  0  0  0
 52 60  1  0  0  0  0
 53 61  1  0  0  0  0
 54 61  1  0  0  0  0
 55 61  1  0  0  0  0
 56 75  1  0  0  0  0
 57 71  1  0  0  0  0
 58 83  1  0  0  0  0
 59 61  1  0  0  0  0
 59 74  1  0  0  0  0
 60 75  1  0  0  0  0
 62 65  1  0  0  0  0
M  CHG  1  75   1
M  ISO  4  39 100  58 101  72 100  83 101
M  END
> <Batch ID>
0164

> <Smiles>
CNC(C)C(=O)NC(C(=O)N1Cc2cc([101O:1][101CH2:1]C(=O)C(=N)CNc3cc(F)c([100NH:0][100C:0](=O)N4CCCC(n5nc(-c6ccc(Oc7ccc(F)cc7F)cc6)c(C(N)=O)c5N)C4)nc3N)ccc2CC1C(=O)NC1CCCc2ccccc21)C(C)(C)C

> <Shape>
0.291

> <Color>
0.071

> <Negative vol penalty>
0.000

$$$$

  -OEChem-04052304023D

 94103  0     1  0  0  0  0  0999 V2000
  -14.6400  -26.6338   23.8609 C   0  0  0  0  0  0  0  0  0  0  0  0
  -15.3759  -26.1434   22.7869 C   0  0  0  0  0  0  0  0  0  0  0  0
  -29.6762  -25.6228   17.6861 C   0  0  0  0  0  0  0  0  0  0  0  0
  -29.6541  -23.9568   15.9366 C   0  0  0  0  0  0  0  0  0  0  0  0
  -15.0269  -27.8180   24.4868 C   0  0  0  0  0  0  0  0  0  0  0  0
  -16.4986  -26.8376   22.3375 C   0  0  0  0  0  0  0  0  0  0  0  0
  -20.4407  -23.7867   21.4450 C   0  0  0  0  0  0  0  0  0  0  0  0
  -30.3769  -26.4918   16.8498 C   0  0  0  0  0  0  0  0  0  0  0  0
  -30.3548  -24.8258   15.1002 C   0  0  0  0  0  0  0  0  0  0  0  0
  -20.4251  -23.0573   20.2570 C   0  0  0  0  0  0  0  0  0  0  0  0
  -32.4861  -29.0148   15.2978 C   0  0  0  0  0  0  0  0  0  0  0  0
  -33.5744  -29.7001   15.8376 C   0  0  0  0  0  0  0  0  0  0  0  0
  -21.9175  -24.6668   19.2562 C   0  0  0  0  0  0  0  0  0  0  0  0
  -24.5484  -16.5961   19.0872 C   0  0  0  0  0  0  0  0  0  0  0  0
  -23.9921  -15.0034   17.3577 C   0  0  0  0  0  0  0  0  0  0  0  0
  -34.6519  -27.5960   16.3366 C   0  0  0  0  0  0  0  0  0  0  0  0
  -29.3148  -24.3552   17.2295 C   0  0  0  0  0  0  0  0  0  0  0  0
  -25.6267  -14.4345   19.0434 C   0  0  0  0  0  0  0  0  0  0  0  0
  -27.1943  -23.3410   18.2208 C   0  0  0  0  0  0  0  0  0  0  0  0
  -16.1605  -28.5220   24.0510 C   0  0  0  0  0  0  0  0  0  0  0  0
  -21.1874  -24.9696   21.5442 C   0  0  0  0  0  0  0  0  0  0  0  0
  -16.9003  -28.0331   22.9573 C   0  0  0  0  0  0  0  0  0  0  0  0
  -21.9429  -25.4081   20.4474 C   0  0  0  0  0  0  0  0  0  0  0  0
  -25.4527  -15.6859   19.6345 C   0  0  0  0  0  0  0  0  0  0  0  0
  -23.8181  -16.2548   17.9488 C   0  0  0  0  0  0  0  0  0  0  0  0
  -24.8964  -14.0933   17.9050 C   0  0  0  0  0  0  0  0  0  0  0  0
  -30.7162  -26.0933   15.5569 C   0  0  0  0  0  0  0  0  0  0  0  0
  -21.1613  -23.4988   19.1614 C   0  0  0  0  0  0  0  0  0  0  0  0
  -32.4806  -27.6201   15.2774 C   0  0  0  0  0  0  0  0  0  0  0  0
  -34.6574  -28.9908   16.3570 C   0  0  0  0  0  0  0  0  0  0  0  0
  -33.5635  -26.9107   15.7968 C   0  0  0  0  0  0  0  0  0  0  0  0
  -28.5915  -23.4568   18.0932 C   0  0  0  0  0  0  0  0  0  0  0  0
  -27.0159  -22.3553   19.1605 C   0  0  0  0  0  0  0  0  0  0  0  0
  -26.5744  -13.4854   19.6203 C   0  0  0  0  0  0  0  0  0  0  0  0
  -26.1510  -24.0601   17.5498 C   0  0  0  0  0  0  0  0  0  0  0  0
  -20.4905  -28.0235   22.0839 C   0  0  0  0  0  0  0  0  0  0  0  0
  -21.6796  -20.6579   16.9803 C   0  0  0  0  0  0  0  0  0  0  0  0
  -23.7178  -28.3472   22.1324 C   0  0  0  0  0  0  0  0  0  0  0  0
  -22.6122  -18.4591   17.8464 C   0  0  0  0  0  0  0  0  0  0  0  0
  -26.7648  -27.1457   21.1738 C   0  0  0  0  0  0  0  0  0  0  0  0
  -28.3087  -17.3544   21.2735 C   0  0  0  0  0  0  0  0  0  0  0  0
  -16.5124  -29.8226   24.7288 C   0  0  0  0  0  0  0  0  0  0  0  0
  -21.2150  -25.7306   22.8413 C   0  0  0  0  0  0  0  0  0  0  0  0
  -22.7771  -26.6606   20.5090 C   0  0  0  0  0  0  0  0  0  0  0  0
  -17.9313  -30.3003   24.4309 C   0  0  0  0  0  0  0  0  0  0  0  0
  -29.1091  -11.4612   19.6615 C   0  0  0  0  0  0  0  0  0  0  0  0
  -29.9019  -12.5820   20.3095 C   0  0  0  0  0  0  0  0  0  0  0  0
  -30.3338  -20.1145   22.2519 C   0  0  0  0  0  0  0  0  0  0  0  0
  -18.2266  -30.1979   22.9378 C   0  0  0  0  0  0  0  0  0  0  0  0
  -28.3655  -12.1714   18.5389 C   0  0  0  0  0  0  0  0  0  0  0  0
  -28.9458  -13.7706   20.2985 C   0  0  0  0  0  0  0  0  0  0  0  0
  -29.9504  -21.2178   21.2642 C   0  0  0  0  0  0  0  0  0  0  0  0
  -30.3383  -18.7393   21.5880 C   0  0  0  0  0  0  0  0  0  0  0  0
  -28.7057  -19.4885   19.9007 C   0  0  0  0  0  0  0  0  0  0  0  0
  -18.1385  -28.7446   22.4565 C   0  0  1  0  0  0  0  0  0  0  0  0
  -28.0053  -13.5365   19.1167 C   0  0  0  0  0  0  0  0  0  0  0  0
  -21.6013  -27.1960   22.6661 C   0  0  1  0  0  0  0  0  0  0  0  0
  -28.6329  -20.8868   20.5375 C   0  0  2  0  0  0  0  0  0  0  0  0
  -25.3127  -16.3975   22.0502 C   0  0  0  0  0  0  0  0  0  0  0  0
  -29.2187  -27.6464   21.3331 C   0  0  0  0  0  0  0  0  0  0  0  0
  -23.4041  -30.5403   20.0343 C   0  0  0  0  0  0  0  0  0  0  0  0
  -25.8515  -30.3306   19.5501 C   0  0  0  0  0  0  0  0  0  0  0  0
  -25.0863  -31.0354   21.8174 C   0  0  0  0  0  0  0  0  0  0  0  0
  -27.3089  -24.6066   22.5936 C   0  0  0  0  0  0  0  0  0  0  0  0
  -21.5693  -19.1473   16.9870 C   0  0  0  0  0  0  0  0  0  0  0  0
  -20.9617  -21.3780   18.1040 C   0  0  0  0  0  0  0  0  0  1  0  0
  -26.2205  -16.0805   20.8544 C   0  0  2  0  0  0  0  0  0  0  0  0
  -24.7794  -28.6313   21.0974 C   0  0  1  0  0  0  0  0  0  0  0  0
  -28.0444  -26.9066   21.9548 C   0  0  2  0  0  0  0  0  0  0  0  0
  -24.7632  -30.1118   20.6227 C   0  0  0  0  0  0  0  0  0  0  0  0
  -29.2537  -22.6123   18.8883 N   0  0  0  0  0  0  0  0  0  0  0  0
  -28.2683  -21.9564   19.5247 N   0  0  0  0  0  0  0  0  0  0  0  0
  -22.7665  -27.3734   21.7971 N   0  0  0  0  0  0  0  0  0  0  0  0
  -29.0602  -18.4867   20.9183 N   0  0  0  0  0  0  0  0  0  0  0  0
  -25.0560  -12.8314   17.2895 N   0  0  0  0  0  0  0  0  0  0  0  0
  -25.9115  -21.7996   19.7026 N   0  0  0  0  0  0  0  0  0  0  0  0
  -26.5099  -25.0395   16.6137 N   0  0  0  0  0  0  0  0  0  0  0  0
  -22.9002  -17.1783   17.3935 N   0  0  0  0  0  0  0  0  0  0  0  0
  -19.3297  -28.0142   22.8334 N   0  0  0  0  0  0  0  0  0  0  0  0
  -26.0456  -28.2058   21.6840 N   0  0  0  0  0  0  0  0  0  0  0  0
  -27.1068  -17.1931   20.5950 N   0  0  0  0  0  0  0  0  0  0  0  0
  -28.3683  -25.4522   21.9856 N   0  3  0  0  0  0  0  0  0  0  0  0
  -26.2948  -12.6491   20.4772 O   0  0  0  0  0  0  0  0  0  0  0  0
  -24.9367  -23.8520   17.7858 O   0  0  0  0  0  0  0  0  0  0  0  0
  -20.6736  -28.6271   21.0332 O   0  0  0  0  0  0  0  0  0  0  0  0
  -22.3063  -21.2657   16.1136 O   0  0  0  0  0  0  0  0  0  0  0  0
  -23.7362  -28.9615   23.2020 O   0  0  0  0  0  0  0  0  0  0  0  0
  -23.1159  -19.0489   18.7987 O   0  0  0  0  0  0  0  0  0  0  0  0
  -26.4379  -26.4630   20.2055 O   0  0  0  0  0  0  0  0  0  0  0  0
  -28.6786  -16.5499   22.1354 O   0  0  0  0  0  0  0  0  0  0  0  0
  -31.3997  -26.9411   14.7404 O   0  0  0  0  0  0  0  0  0  0  0  0
  -21.1473  -22.7891   18.0004 O   0  0  0  0  0  0  0  0  0  1  0  0
  -35.7031  -29.6490   16.8739 F   0  0  0  0  0  0  0  0  0  0  0  0
  -33.5644  -25.5707   15.7790 F   0  0  0  0  0  0  0  0  0  0  0  0
  1  2  1  0  0  0  0
  1  5  2  0  0  0  0
  2  6  2  0  0  0  0
  3  8  2  0  0  0  0
  3 17  1  0  0  0  0
  4  9  1  0  0  0  0
  4 17  2  0  0  0  0
  5 20  1  0  0  0  0
  6 22  1  0  0  0  0
  7 10  2  0  0  0  0
  7 21  1  0  0  0  0
  8 27  1  0  0  0  0
  9 27  2  0  0  0  0
 10 28  1  0  0  0  0
 11 12  2  0  0  0  0
 11 29  1  0  0  0  0
 12 30  1  0  0  0  0
 13 23  1  0  0  0  0
 13 28  2  0  0  0  0
 14 24  1  0  0  0  0
 14 25  2  0  0  0  0
 15 25  1  0  0  0  0
 15 26  2  0  0  0  0
 16 30  2  0  0  0  0
 16 31  1  0  0  0  0
 17 32  1  0  0  0  0
 18 24  2  0  0  0  0
 18 26  1  0  0  0  0
 18 34  1  0  0  0  0
 19 32  1  0  0  0  0
 19 33  2  0  0  0  0
 19 35  1  0  0  0  0
 20 22  2  0  0  0  0
 20 42  1  0  0  0  0
 21 23  2  0  0  0  0
 21 43  1  0  0  0  0
 22 55  1  0  0  0  0
 23 44  1  0  0  0  0
 24 67  1  0  0  0  0
 25 78  1  0  0  0  0
 26 75  1  0  0  0  0
 27 91  1  0  0  0  0
 28 92  1  0  0  0  0
 29 31  2  0  0  0  0
 29 91  1  0  0  0  0
 30 93  1  0  0  0  0
 31 94  1  0  0  0  0
 32 71  2  0  0  0  0
 33 72  1  0  0  0  0
 33 76  1  0  0  0  0
 34 56  1  0  0  0  0
 34 83  2  0  0  0  0
 35 77  1  0  0  0  0
 35 84  2  0  0  0  0
 36 57  1  0  0  0  0
 36 79  1  0  0  0  0
 36 85  2  0  0  0  0
 37 65  1  0  0  0  0
 37 66  1  0  0  0  0
 37 86  2  0  0  0  0
 38 68  1  0  0  0  0
 38 73  1  0  0  0  0
 38 87  2  0  0  0  0
 39 65  1  0  0  0  0
 39 78  1  0  0  0  0
 39 88  2  0  0  0  0
 40 69  1  0  0  0  0
 40 80  1  0  0  0  0
 40 89  2  0  0  0  0
 41 74  1  0  0  0  0
 41 81  1  0  0  0  0
 41 90  2  0  0  0  0
 42 45  1  0  0  0  0
 43 57  1  0  0  0  0
 44 73  1  0  0  0  0
 45 49  1  0  0  0  0
 46 47  1  0  0  0  0
 46 50  1  0  0  0  0
 47 51  1  0  0  0  0
 48 52  1  0  0  0  0
 48 53  1  0  0  0  0
 49 55  1  0  0  0  0
 50 56  1  0  0  0  0
 51 56  1  0  0  0  0
 52 58  1  0  0  0  0
 53 74  1  0  0  0  0
 54 58  1  0  0  0  0
 54 74  1  0  0  0  0
 55 79  1  0  0  0  0
 57 73  1  0  0  0  0
 58 72  1  0  0  0  0
 59 67  1  0  0  0  0
 60 69  1  0  0  0  0
 61 70  1  0  0  0  0
 62 70  1  0  0  0  0
 63 70  1  0  0  0  0
 64 82  1  0  0  0  0
 66 92  1  0  0  0  0
 67 81  1  0  0  0  0
 68 70  1  0  0  0  0
 68 80  1  0  0  0  0
 69 82  1  0  0  0  0
 71 72  1  0  0  0  0
M  CHG  1  82   1
M  ISO  4  41 100  66 101  81 100  92 101
M  END
> <Batch ID>
0164

> <Smiles>
CNC(C)C(=O)NC(C(=O)N1Cc2cc([101O:1][101CH2:1]C(=O)CC(=O)Nc3cc(N)c(C(=O)C4CCCC4)c(C(C)[100NH:0][100C:0](=O)N4CCCC(n5nc(-c6ccc(Oc7ccc(F)cc7F)cc6)c(C(N)=O)c5N)C4)c3)ccc2CC1C(=O)NC1CCCc2ccccc21)C(C)(C)C

> <Shape>
0.236

> <Color>
0.064

> <Negative vol penalty>
0.000

$$$$

  -OEChem-04052304023D

 87 95  0     1  0  0  0  0  0999 V2000
  -24.6488  -18.8972   33.0206 C   0  0  0  0  0  0  0  0  0  0  0  0
  -25.7782  -18.3463   32.4237 C   0  0  0  0  0  0  0  0  0  0  0  0
  -23.1910   -9.8190   19.9323 C   0  0  0  0  0  0  0  0  0  0  0  0
  -23.5703  -10.0001   22.3114 C   0  0  0  0  0  0  0  0  0  0  0  0
  -23.7277  -19.6033   32.2480 C   0  0  0  0  0  0  0  0  0  0  0  0
  -25.9868  -18.5004   31.0536 C   0  0  0  0  0  0  0  0  0  0  0  0
  -30.7623  -19.7701   29.9459 C   0  0  0  0  0  0  0  0  0  0  0  0
  -22.4253   -8.6720   20.1416 C   0  0  0  0  0  0  0  0  0  0  0  0
  -22.8045   -8.8531   22.5208 C   0  0  0  0  0  0  0  0  0  0  0  0
  -31.7137  -18.7512   29.9688 C   0  0  0  0  0  0  0  0  0  0  0  0
  -23.2070   -5.5065   22.2573 C   0  0  0  0  0  0  0  0  0  0  0  0
  -23.7062   -4.5456   23.1365 C   0  0  0  0  0  0  0  0  0  0  0  0
  -31.5898  -18.5897   27.5651 C   0  0  0  0  0  0  0  0  0  0  0  0
  -21.7502   -4.8051   24.5306 C   0  0  0  0  0  0  0  0  0  0  0  0
  -23.7635  -10.4830   21.0172 C   0  0  0  0  0  0  0  0  0  0  0  0
  -24.1010  -12.9997   20.7727 C   0  0  0  0  0  0  0  0  0  0  0  0
  -23.9299  -19.7744   30.8694 C   0  0  0  0  0  0  0  0  0  0  0  0
  -30.2086  -20.1997   28.7313 C   0  0  0  0  0  0  0  0  0  0  0  0
  -25.0668  -19.2084   30.2616 C   0  0  0  0  0  0  0  0  0  0  0  0
  -30.6334  -19.6160   27.5293 C   0  0  0  0  0  0  0  0  0  0  0  0
  -22.2320   -8.1891   21.4358 C   0  0  0  0  0  0  0  0  0  0  0  0
  -32.1255  -18.1589   28.7785 C   0  0  0  0  0  0  0  0  0  0  0  0
  -21.9794   -6.1168   22.5148 C   0  0  0  0  0  0  0  0  0  0  0  0
  -22.9778   -4.1949   24.2731 C   0  0  0  0  0  0  0  0  0  0  0  0
  -21.2510   -5.7660   23.6514 C   0  0  0  0  0  0  0  0  0  0  0  0
  -24.5550  -11.6675   20.8015 C   0  0  0  0  0  0  0  0  0  0  0  0
  -32.6256  -12.0895   24.2656 C   0  0  0  0  0  0  0  0  0  0  0  0
  -25.2317  -13.7428   20.5367 C   0  0  0  0  0  0  0  0  0  0  0  0
  -31.3154  -12.4693   24.0624 C   0  0  0  0  0  0  0  0  0  0  0  0
  -31.9500  -12.0721   26.3520 C   0  0  0  0  0  0  0  0  0  0  0  0
  -22.7756  -13.5191   20.9440 C   0  0  0  0  0  0  0  0  0  0  0  0
  -27.2820  -20.2442   27.4916 C   0  0  0  0  0  0  0  0  0  0  0  0
  -28.7394  -21.8893   25.1058 C   0  0  0  0  0  0  0  0  0  0  0  0
  -32.5264  -14.0840   28.9012 C   0  0  0  0  0  0  0  0  0  0  0  0
  -31.6196  -22.6094   23.4226 C   0  0  0  0  0  0  0  0  0  0  0  0
  -34.0147  -16.9733   30.9827 C   0  0  0  0  0  0  0  0  0  0  0  0
  -31.0371  -12.7849   21.5786 C   0  0  0  0  0  0  0  0  0  0  0  0
  -22.8825  -20.5052   30.0672 C   0  0  0  0  0  0  0  0  0  0  0  0
  -29.2030  -21.3182   28.7213 C   0  0  0  0  0  0  0  0  0  0  0  0
  -30.0847  -20.0550   26.1971 C   0  0  0  0  0  0  0  0  0  0  0  0
  -23.3678  -20.9437   28.6879 C   0  0  0  0  0  0  0  0  0  0  0  0
  -29.5229  -13.4653   18.4288 C   0  0  0  0  0  0  0  0  0  0  0  0
  -24.0983  -19.8004   27.9907 C   0  0  0  0  0  0  0  0  0  0  0  0
  -28.0350  -13.2086   18.6788 C   0  0  0  0  0  0  0  0  0  0  0  0
  -30.4048  -12.4808   19.1948 C   0  0  0  0  0  0  0  0  0  0  0  0
  -28.6459  -12.1389   20.8855 C   0  0  0  0  0  0  0  0  0  0  0  0
  -25.3407  -19.3752   28.7826 C   0  0  1  0  0  0  0  0  0  0  0  0
  -28.3274  -21.3234   27.4721 C   0  0  1  0  0  0  0  0  0  0  0  0
  -27.7193  -13.1469   20.1862 C   0  0  2  0  0  0  0  0  0  0  0  0
  -32.4893  -23.9600   21.4947 C   0  0  0  0  0  0  0  0  0  0  0  0
  -27.5584  -19.8615   23.1556 C   0  0  0  0  0  0  0  0  0  0  0  0
  -29.1898  -20.6689   21.4366 C   0  0  0  0  0  0  0  0  0  0  0  0
  -27.4839  -22.2334   22.3666 C   0  0  0  0  0  0  0  0  0  0  0  0
  -34.2766  -12.2637   28.6101 C   0  0  0  0  0  0  0  0  0  0  0  0
  -33.4170  -24.1731   25.1784 C   0  0  0  0  0  0  0  0  0  0  0  0
  -31.9589  -11.9258   27.8462 C   0  0  0  0  0  0  0  0  0  0  0  0
  -33.6024  -14.9476   29.5534 C   0  0  0  0  0  0  0  0  0  0  0  0
  -29.4277  -21.5158   23.8151 C   0  0  1  0  0  0  0  0  0  0  0  0
  -32.2319  -23.9305   22.9932 C   0  0  2  0  0  0  0  0  0  0  0  0
  -33.0908  -16.3332   29.9579 C   0  0  2  0  0  0  0  0  0  1  0  0
  -28.4240  -21.0601   22.7186 C   0  0  0  0  0  0  0  0  0  0  0  0
  -25.8715  -11.5670   20.5998 N   0  0  0  0  0  0  0  0  0  0  0  0
  -32.9914  -11.8618   25.5779 N   0  0  0  0  0  0  0  0  0  0  0  0
  -26.2544  -12.8454   20.4419 N   0  0  0  0  0  0  0  0  0  0  0  0
  -29.0992  -21.1479   26.2401 N   0  0  0  0  0  0  0  0  0  0  0  0
  -30.0517  -12.4794   20.6161 N   0  0  0  0  0  0  0  0  0  0  0  0
  -33.5290  -11.9393   23.2674 N   0  0  0  0  0  0  0  0  0  0  0  0
  -25.4410  -15.0697   20.4031 N   0  0  0  0  0  0  0  0  0  0  0  0
  -21.7295  -12.6164   21.1787 N   0  0  0  0  0  0  0  0  0  0  0  0
  -33.6201  -16.7492   32.2836 N   0  0  0  0  0  0  0  0  0  0  0  0
  -30.5769  -12.7847   22.8950 N   0  0  0  0  0  0  0  0  0  0  0  0
  -26.4212  -20.3142   28.5703 N   0  0  0  0  0  0  0  0  0  0  0  0
  -30.2420  -22.6663   23.4389 N   0  0  0  0  0  0  0  0  0  0  0  0
  -32.9294  -12.8132   28.4755 N   0  0  0  0  0  0  0  0  0  0  0  0
  -33.5262  -24.1545   23.6970 N   0  3  0  0  0  0  0  0  0  0  0  0
  -22.5238  -14.7460   20.8742 O   0  0  0  0  0  0  0  0  0  0  0  0
  -27.2572  -19.4107   26.5936 O   0  0  0  0  0  0  0  0  0  0  0  0
  -27.9183  -22.8098   25.1088 O   0  0  0  0  0  0  0  0  0  0  0  0
  -31.3759  -14.5092   28.7676 O   0  0  0  0  0  0  0  0  0  0  0  0
  -32.2956  -21.6243   23.7109 O   0  0  0  0  0  0  0  0  0  0  0  0
  -35.0018  -17.6373   30.6760 O   0  0  0  0  0  0  0  0  0  0  0  0
  -32.1969  -13.0554   21.2567 O   0  0  0  0  0  0  0  0  0  0  0  0
  -21.4848   -7.0701   21.6405 O   0  0  0  0  0  0  0  0  0  0  0  0
  -33.0534  -17.1637   28.7981 O   0  0  0  0  0  0  0  0  0  1  0  0
  -23.4566   -3.2709   25.1165 F   0  0  0  0  0  0  0  0  0  0  0  0
  -20.0705   -6.3480   23.9035 F   0  0  0  0  0  0  0  0  0  0  0  0
  -30.4985  -12.5457   25.5684 S   0  0  0  0  0  0  0  0  0  0  0  0
  1  2  1  0  0  0  0
  1  5  2  0  0  0  0
  2  6  2  0  0  0  0
  3  8  2  0  0  0  0
  3 15  1  0  0  0  0
  4  9  1  0  0  0  0
  4 15  2  0  0  0  0
  5 17  1  0  0  0  0
  6 19  1  0  0  0  0
  7 10  2  0  0  0  0
  7 18  1  0  0  0  0
  8 21  1  0  0  0  0
  9 21  2  0  0  0  0
 10 22  1  0  0  0  0
 11 12  2  0  0  0  0
 11 23  1  0  0  0  0
 12 24  1  0  0  0  0
 13 20  1  0  0  0  0
 13 22  2  0  0  0  0
 14 24  2  0  0  0  0
 14 25  1  0  0  0  0
 15 26  1  0  0  0  0
 16 26  1  0  0  0  0
 16 28  2  0  0  0  0
 16 31  1  0  0  0  0
 17 19  2  0  0  0  0
 17 38  1  0  0  0  0
 18 20  2  0  0  0  0
 18 39  1  0  0  0  0
 19 47  1  0  0  0  0
 20 40  1  0  0  0  0
 21 83  1  0  0  0  0
 22 84  1  0  0  0  0
 23 25  2  0  0  0  0
 23 83  1  0  0  0  0
 24 85  1  0  0  0  0
 25 86  1  0  0  0  0
 26 62  2  0  0  0  0
 27 29  2  0  0  0  0
 27 63  1  0  0  0  0
 27 67  1  0  0  0  0
 28 64  1  0  0  0  0
 28 68  1  0  0  0  0
 29 71  1  0  0  0  0
 29 87  1  0  0  0  0
 30 56  1  0  0  0  0
 30 63  2  0  0  0  0
 30 87  1  0  0  0  0
 31 69  1  0  0  0  0
 31 76  2  0  0  0  0
 32 48  1  0  0  0  0
 32 72  1  0  0  0  0
 32 77  2  0  0  0  0
 33 58  1  0  0  0  0
 33 65  1  0  0  0  0
 33 78  2  0  0  0  0
 34 57  1  0  0  0  0
 34 74  1  0  0  0  0
 34 79  2  0  0  0  0
 35 59  1  0  0  0  0
 35 73  1  0  0  0  0
 35 80  2  0  0  0  0
 36 60  1  0  0  0  0
 36 70  1  0  0  0  0
 36 81  2  0  0  0  0
 37 66  1  0  0  0  0
 37 71  1  0  0  0  0
 37 82  2  0  0  0  0
 38 41  1  0  0  0  0
 39 48  1  0  0  0  0
 40 65  1  0  0  0  0
 41 43  1  0  0  0  0
 42 44  1  0  0  0  0
 42 45  1  0  0  0  0
 43 47  1  0  0  0  0
 44 49  1  0  0  0  0
 45 66  1  0  0  0  0
 46 49  1  0  0  0  0
 46 66  1  0  0  0  0
 47 72  1  0  0  0  0
 48 65  1  0  0  0  0
 49 64  1  0  0  0  0
 50 59  1  0  0  0  0
 51 61  1  0  0  0  0
 52 61  1  0  0  0  0
 53 61  1  0  0  0  0
 54 74  1  0  0  0  0
 55 75  1  0  0  0  0
 56 74  1  0  0  0  0
 57 60  1  0  0  0  0
 58 61  1  0  0  0  0
 58 73  1  0  0  0  0
 59 75  1  0  0  0  0
 60 84  1  0  0  0  0
 62 64  1  0  0  0  0
M  CHG  1  75   1
M  ISO  4  37 100  60 101  71 100  84 101
M  END
> <Batch ID>
0164

> <Smiles>
CNC(C)C(=O)NC(C(=O)N1Cc2cc([101O:1][101CH:1](CC(=O)N(C)Cc3nc(N)c([100NH:0][100C:0](=O)N4CCCC(n5nc(-c6ccc(Oc7ccc(F)cc7F)cc6)c(C(N)=O)c5N)C4)s3)C(N)=O)ccc2CC1C(=O)NC1CCCc2ccccc21)C(C)(C)C

> <Shape>
0.148

> <Color>
0.168

> <Negative vol penalty>
0.000

$$$$

  -OEChem-04052304023D

 86 95  0     1  0  0  0  0  0999 V2000
  -26.9370  -25.3797   15.9254 C   0  0  0  0  0  0  0  0  0  0  0  0
  -25.8030  -25.6463   16.6859 C   0  0  0  0  0  0  0  0  0  0  0  0
  -26.9390  -17.0804   20.2903 C   0  0  0  0  0  0  0  0  0  0  0  0
  -25.0473  -16.6669   18.8455 C   0  0  0  0  0  0  0  0  0  0  0  0
  -28.2013  -25.6732   16.4346 C   0  0  0  0  0  0  0  0  0  0  0  0
  -25.9328  -26.2057   17.9566 C   0  0  0  0  0  0  0  0  0  0  0  0
  -22.6394  -29.9657   18.7696 C   0  0  0  0  0  0  0  0  0  0  0  0
  -27.1465  -15.7065   20.4119 C   0  0  0  0  0  0  0  0  0  0  0  0
  -25.2548  -15.2929   18.9671 C   0  0  0  0  0  0  0  0  0  0  0  0
  -21.3257  -29.6078   19.0692 C   0  0  0  0  0  0  0  0  0  0  0  0
  -28.5205  -13.2226   18.5747 C   0  0  0  0  0  0  0  0  0  0  0  0
  -29.8279  -12.7514   18.4556 C   0  0  0  0  0  0  0  0  0  0  0  0
  -21.7644  -29.9818   21.4116 C   0  0  0  0  0  0  0  0  0  0  0  0
  -29.7043  -11.8434   20.6911 C   0  0  0  0  0  0  0  0  0  0  0  0
  -18.3791  -21.7745   18.8578 C   0  0  0  0  0  0  0  0  0  0  0  0
  -25.8893  -17.5607   19.5072 C   0  0  0  0  0  0  0  0  0  0  0  0
  -26.2250  -19.8409   18.4137 C   0  0  0  0  0  0  0  0  0  0  0  0
  -28.3461  -26.2454   17.7083 C   0  0  0  0  0  0  0  0  0  0  0  0
  -23.5301  -30.3245   19.7915 C   0  0  0  0  0  0  0  0  0  0  0  0
  -27.2003  -26.5060   18.4839 C   0  0  0  0  0  0  0  0  0  0  0  0
  -23.0881  -30.3464   21.1221 C   0  0  0  0  0  0  0  0  0  0  0  0
  -26.3044  -14.8127   19.7503 C   0  0  0  0  0  0  0  0  0  0  0  0
  -20.8888  -29.6130   20.3907 C   0  0  0  0  0  0  0  0  0  0  0  0
  -27.8050  -13.0043   19.7521 C   0  0  0  0  0  0  0  0  0  0  0  0
  -30.4198  -12.0618   19.5137 C   0  0  0  0  0  0  0  0  0  0  0  0
  -28.3969  -12.3146   20.8102 C   0  0  0  0  0  0  0  0  0  0  0  0
  -25.6741  -18.9798   19.3817 C   0  0  0  0  0  0  0  0  0  0  0  0
  -18.8920  -22.4592   19.9396 C   0  0  0  0  0  0  0  0  0  0  0  0
  -25.7158  -21.0779   18.7249 C   0  0  0  0  0  0  0  0  0  0  0  0
  -16.9404  -23.4521   19.8162 C   0  0  0  0  0  0  0  0  0  0  0  0
  -27.1171  -19.5486   17.3300 C   0  0  0  0  0  0  0  0  0  0  0  0
  -26.2745  -29.1545   20.8883 C   0  0  0  0  0  0  0  0  0  0  0  0
  -17.9459  -27.5079   20.5776 C   0  0  0  0  0  0  0  0  0  0  0  0
  -26.2283  -31.8256   22.7282 C   0  0  0  0  0  0  0  0  0  0  0  0
  -24.3934  -34.2967   24.2025 C   0  0  0  0  0  0  0  0  0  0  0  0
  -20.7717  -22.8599   21.5683 C   0  0  0  0  0  0  0  0  0  0  0  0
  -29.7359  -26.5015   18.2353 C   0  0  0  0  0  0  0  0  0  0  0  0
  -24.9364  -30.7338   19.4491 C   0  0  0  0  0  0  0  0  0  0  0  0
  -23.9992  -30.7433   22.2538 C   0  0  0  0  0  0  0  0  0  0  0  0
  -29.7675  -27.4396   19.4391 C   0  0  0  0  0  0  0  0  0  0  0  0
  -13.6163  -24.6056   21.4385 C   0  0  0  0  0  0  0  0  0  0  0  0
  -24.1320  -23.6484   22.4422 C   0  0  0  0  0  0  0  0  0  0  0  0
  -14.0731  -25.9615   21.9552 C   0  0  0  0  0  0  0  0  0  0  0  0
  -28.7060  -27.0368   20.4579 C   0  0  0  0  0  0  0  0  0  0  0  0
  -14.8118  -23.7186   21.1139 C   0  0  0  0  0  0  0  0  0  0  0  0
  -24.9592  -22.6229   21.6637 C   0  0  0  0  0  0  0  0  0  0  0  0
  -22.8241  -23.0494   22.9564 C   0  0  0  0  0  0  0  0  0  0  0  0
  -22.8255  -21.3672   21.1565 C   0  0  0  0  0  0  0  0  0  0  0  0
  -15.0039  -26.6440   20.9679 C   0  0  0  0  0  0  0  0  0  0  0  0
  -27.2988  -27.1353   19.8566 C   0  0  1  0  0  0  0  0  0  0  0  0
  -15.7819  -24.3849   20.1213 C   0  0  1  0  0  0  0  0  0  0  0  0
  -25.9036  -30.5855   20.6196 C   0  0  1  0  0  0  0  0  0  0  0  0
  -24.1221  -21.9421   20.5632 C   0  0  2  0  0  0  0  0  0  0  0  0
  -24.6305  -36.3147   25.6752 C   0  0  0  0  0  0  0  0  0  0  0  0
  -26.5927  -30.0101   25.1533 C   0  0  0  0  0  0  0  0  0  0  0  0
  -25.8776  -31.9211   26.6041 C   0  0  0  0  0  0  0  0  0  0  0  0
  -27.9403  -32.1159   25.2148 C   0  0  0  0  0  0  0  0  0  0  0  0
  -23.3086  -36.0917   22.1144 C   0  0  0  0  0  0  0  0  0  0  0  0
  -17.1757  -26.4825   19.7881 C   0  0  0  0  0  0  0  0  0  0  0  0
  -18.9747  -28.3221   19.8198 C   0  0  0  0  0  0  0  0  0  1  0  0
  -25.6773  -32.1770   24.0890 C   0  0  1  0  0  0  0  0  0  0  0  0
  -24.5812  -35.8025   24.2441 C   0  0  2  0  0  0  0  0  0  0  0  0
  -26.5051  -31.5466   25.2444 C   0  0  0  0  0  0  0  0  0  0  0  0
  -24.8762  -19.6161   20.2434 N   0  0  0  0  0  0  0  0  0  0  0  0
  -18.0687  -23.4218   20.4902 N   0  0  0  0  0  0  0  0  0  0  0  0
  -24.9221  -20.8901   19.8180 N   0  0  0  0  0  0  0  0  0  0  0  0
  -25.3668  -31.1292   21.8688 N   0  0  0  0  0  0  0  0  0  0  0  0
  -22.0826  -22.4259   21.8581 N   0  0  0  0  0  0  0  0  0  0  0  0
  -25.8741  -22.2972   18.1675 N   0  0  0  0  0  0  0  0  0  0  0  0
  -27.5425  -18.2249   17.1532 N   0  0  0  0  0  0  0  0  0  0  0  0
  -20.1784  -22.2171   20.4823 N   0  0  0  0  0  0  0  0  0  0  0  0
  -26.8627  -28.5146   19.8140 N   0  0  0  0  0  0  0  0  0  0  0  0
  -25.6002  -33.6332   24.1346 N   0  0  0  0  0  0  0  0  0  0  0  0
  -16.1965  -25.7545   20.6793 N   0  3  1  0  0  0  0  0  0  0  0  0
  -23.4589  -36.4842   23.5394 N   0  3  0  0  0  0  0  0  0  0  0  0
  -27.5380  -20.4378   16.5517 O   0  0  0  0  0  0  0  0  0  0  0  0
  -26.0455  -28.6674   21.9892 O   0  0  0  0  0  0  0  0  0  0  0  0
  -17.7551  -27.6531   21.7849 O   0  0  0  0  0  0  0  0  0  0  0  0
  -27.3782  -32.1630   22.4358 O   0  0  0  0  0  0  0  0  0  0  0  0
  -23.2869  -33.7624   24.2314 O   0  0  0  0  0  0  0  0  0  0  0  0
  -20.2264  -23.7562   22.2174 O   0  0  0  0  0  0  0  0  0  0  0  0
  -26.5068  -13.4720   19.8685 O   0  0  0  0  0  0  0  0  0  0  0  0
  -19.6072  -29.2635   20.6859 O   0  0  0  0  0  0  0  0  0  1  0  0
  -31.6748  -11.6080   19.3986 F   0  0  0  0  0  0  0  0  0  0  0  0
  -27.7141  -12.1007   21.9433 F   0  0  0  0  0  0  0  0  0  0  0  0
  -16.8017  -22.3498   18.5083 S   0  0  0  0  0  0  0  0  0  0  0  0
  1  2  1  0  0  0  0
  1  5  2  0  0  0  0
  2  6  2  0  0  0  0
  3  8  2  0  0  0  0
  3 16  1  0  0  0  0
  4  9  1  0  0  0  0
  4 16  2  0  0  0  0
  5 18  1  0  0  0  0
  6 20  1  0  0  0  0
  7 10  2  0  0  0  0
  7 19  1  0  0  0  0
  8 22  1  0  0  0  0
  9 22  2  0  0  0  0
 10 23  1  0  0  0  0
 11 12  2  0  0  0  0
 11 24  1  0  0  0  0
 12 25  1  0  0  0  0
 13 21  1  0  0  0  0
 13 23  2  0  0  0  0
 14 25  2  0  0  0  0
 14 26  1  0  0  0  0
 15 28  2  0  0  0  0
 15 86  1  0  0  0  0
 16 27  1  0  0  0  0
 17 27  1  0  0  0  0
 17 29  2  0  0  0  0
 17 31  1  0  0  0  0
 18 20  2  0  0  0  0
 18 37  1  0  0  0  0
 19 21  2  0  0  0  0
 19 38  1  0  0  0  0
 20 50  1  0  0  0  0
 21 39  1  0  0  0  0
 22 82  1  0  0  0  0
 23 83  1  0  0  0  0
 24 26  2  0  0  0  0
 24 82  1  0  0  0  0
 25 84  1  0  0  0  0
 26 85  1  0  0  0  0
 27 64  2  0  0  0  0
 28 65  1  0  0  0  0
 28 71  1  0  0  0  0
 29 66  1  0  0  0  0
 29 69  1  0  0  0  0
 30 51  1  0  0  0  0
 30 65  2  0  0  0  0
 30 86  1  0  0  0  0
 31 70  1  0  0  0  0
 31 76  2  0  0  0  0
 32 52  1  0  0  0  0
 32 72  1  0  0  0  0
 32 77  2  0  0  0  0
 33 59  1  0  0  0  0
 33 60  1  0  0  0  0
 33 78  2  0  0  0  0
 34 61  1  0  0  0  0
 34 67  1  0  0  0  0
 34 79  2  0  0  0  0
 35 62  1  0  0  0  0
 35 73  1  0  0  0  0
 35 80  2  0  0  0  0
 36 68  1  0  0  0  0
 36 71  1  0  0  0  0
 36 81  2  0  0  0  0
 37 40  1  0  0  0  0
 38 52  1  0  0  0  0
 39 67  1  0  0  0  0
 40 44  1  0  0  0  0
 41 43  1  0  0  0  0
 41 45  1  0  0  0  0
 42 46  1  0  0  0  0
 42 47  1  0  0  0  0
 43 49  1  0  0  0  0
 44 50  1  0  0  0  0
 45 51  1  0  0  0  0
 46 53  1  0  0  0  0
 47 68  1  0  0  0  0
 48 53  1  0  0  0  0
 48 68  1  0  0  0  0
 49 74  1  0  0  0  0
 50 72  1  0  0  0  0
 51 74  1  0  0  0  0
 52 67  1  0  0  0  0
 53 66  1  0  0  0  0
 54 62  1  0  0  0  0
 55 63  1  0  0  0  0
 56 63  1  0  0  0  0
 57 63  1  0  0  0  0
 58 75  1  0  0  0  0
 59 74  1  0  0  0  0
 60 83  1  0  0  0  0
 61 63  1  0  0  0  0
 61 73  1  0  0  0  0
 62 75  1  0  0  0  0
 64 66  1  0  0  0  0
M  CHG  2  74   1  75   1
M  ISO  4  36 100  60 101  71 100  83 101
M  END
> <Batch ID>
0164

> <Smiles>
CNC(C)C(=O)NC(C(=O)N1Cc2cc([101O:1][101CH2:1]C(=O)CN3CCCCC3c3nc([100NH:0][100C:0](=O)N4CCCC(n5nc(-c6ccc(Oc7ccc(F)cc7F)cc6)c(C(N)=O)c5N)C4)cs3)ccc2CC1C(=O)NC1CCCc2ccccc21)C(C)(C)C

> <Shape>
0.244

> <Color>
0.065

> <Negative vol penalty>
0.000

$$$$

  -OEChem-04052304023D

 87 95  0     1  0  0  0  0  0999 V2000
  -28.4798  -24.2219   17.8171 C   0  0  0  0  0  0  0  0  0  0  0  0
  -27.3095  -24.9168   18.1007 C   0  0  0  0  0  0  0  0  0  0  0  0
  -26.1962  -24.8663   22.8794 C   0  0  0  0  0  0  0  0  0  0  0  0
  -26.5944  -12.7057   19.1213 C   0  0  0  0  0  0  0  0  0  0  0  0
  -25.1339  -13.3637   20.9299 C   0  0  0  0  0  0  0  0  0  0  0  0
  -24.9194  -25.1136   22.3754 C   0  0  0  0  0  0  0  0  0  0  0  0
  -29.6143  -24.4261   18.5998 C   0  0  0  0  0  0  0  0  0  0  0  0
  -27.2767  -25.8249   19.1595 C   0  0  0  0  0  0  0  0  0  0  0  0
  -23.2056  -28.5439   19.6463 C   0  0  0  0  0  0  0  0  0  0  0  0
  -26.9036  -23.7381   22.4641 C   0  0  0  0  0  0  0  0  0  0  0  0
  -26.3834  -11.3640   19.4390 C   0  0  0  0  0  0  0  0  0  0  0  0
  -24.9228  -12.0220   21.2475 C   0  0  0  0  0  0  0  0  0  0  0  0
  -21.9943  -28.0147   20.0895 C   0  0  0  0  0  0  0  0  0  0  0  0
  -23.0622   -9.4517   20.0848 C   0  0  0  0  0  0  0  0  0  0  0  0
  -21.7524   -9.0463   20.3412 C   0  0  0  0  0  0  0  0  0  0  0  0
  -22.3572  -29.0133   22.2552 C   0  0  0  0  0  0  0  0  0  0  0  0
  -22.4010   -8.3564   22.5639 C   0  0  0  0  0  0  0  0  0  0  0  0
  -25.9698  -13.7055   19.8668 C   0  0  0  0  0  0  0  0  0  0  0  0
  -24.3498  -24.2327   21.4560 C   0  0  0  0  0  0  0  0  0  0  0  0
  -25.4391  -15.8825   18.6474 C   0  0  0  0  0  0  0  0  0  0  0  0
  -29.5908  -25.3282   19.6762 C   0  0  0  0  0  0  0  0  0  0  0  0
  -24.0084  -29.3040   20.5091 C   0  0  0  0  0  0  0  0  0  0  0  0
  -28.4182  -26.0627   19.9462 C   0  0  0  0  0  0  0  0  0  0  0  0
  -23.5771  -29.5532   21.8198 C   0  0  0  0  0  0  0  0  0  0  0  0
  -26.3340  -22.8571   21.5448 C   0  0  0  0  0  0  0  0  0  0  0  0
  -25.5475  -11.0221   20.5021 C   0  0  0  0  0  0  0  0  0  0  0  0
  -21.5713  -28.2469   21.3950 C   0  0  0  0  0  0  0  0  0  0  0  0
  -24.0414   -9.3094   21.0680 C   0  0  0  0  0  0  0  0  0  0  0  0
  -21.4218   -8.4987   21.5807 C   0  0  0  0  0  0  0  0  0  0  0  0
  -23.7108   -8.7618   22.3075 C   0  0  0  0  0  0  0  0  0  0  0  0
  -25.0571  -23.1044   21.0407 C   0  0  0  0  0  0  0  0  0  0  0  0
  -26.1879  -15.0917   19.5395 C   0  0  0  0  0  0  0  0  0  0  0  0
  -26.0448  -17.1145   18.6894 C   0  0  0  0  0  0  0  0  0  0  0  0
  -22.9982  -24.4978   20.9238 C   0  0  0  0  0  0  0  0  0  0  0  0
  -24.2981  -15.5346   17.8520 C   0  0  0  0  0  0  0  0  0  0  0  0
  -26.9389  -28.9947   21.7007 C   0  0  0  0  0  0  0  0  0  0  0  0
  -19.6599  -27.4520   24.0931 C   0  0  0  0  0  0  0  0  0  0  0  0
  -26.3548  -31.9627   22.8721 C   0  0  0  0  0  0  0  0  0  0  0  0
  -24.0592  -34.2997   23.8288 C   0  0  0  0  0  0  0  0  0  0  0  0
  -28.3325  -21.3234   21.5275 C   0  0  0  0  0  0  0  0  0  0  0  0
  -30.8495  -25.5165   20.4858 C   0  0  0  0  0  0  0  0  0  0  0  0
  -25.2996  -29.8902   20.0076 C   0  0  0  0  0  0  0  0  0  0  0  0
  -24.3924  -30.3796   22.7793 C   0  0  0  0  0  0  0  0  0  0  0  0
  -30.5915  -26.1573   21.8456 C   0  0  0  0  0  0  0  0  0  0  0  0
  -30.4362  -18.5575   20.7521 C   0  0  0  0  0  0  0  0  0  0  0  0
  -29.7273  -27.3983   21.6798 C   0  0  0  0  0  0  0  0  0  0  0  0
  -29.4569  -17.4743   20.2941 C   0  0  0  0  0  0  0  0  0  0  0  0
  -29.8606  -19.3978   21.8907 C   0  0  0  0  0  0  0  0  0  0  0  0
  -27.5594  -18.8967   21.1678 C   0  0  0  0  0  0  0  0  0  0  0  0
  -28.3501  -27.0328   21.1118 C   0  0  1  0  0  0  0  0  0  0  0  0
  -26.2817  -30.2185   21.1279 C   0  0  1  0  0  0  0  0  0  0  0  0
  -28.0692  -18.0662   19.9787 C   0  0  2  0  0  0  0  0  0  0  0  0
  -20.1470  -27.1585   25.4892 C   0  0  0  0  0  0  0  0  0  0  0  0
  -23.8845  -36.6154   24.7797 C   0  0  0  0  0  0  0  0  0  0  0  0
  -27.0935  -30.8838   25.6289 C   0  0  0  0  0  0  0  0  0  0  0  0
  -26.0086  -32.9042   26.6335 C   0  0  0  0  0  0  0  0  0  0  0  0
  -27.9817  -33.1678   25.1301 C   0  0  0  0  0  0  0  0  0  0  0  0
  -22.6209  -35.2964   21.4421 C   0  0  0  0  0  0  0  0  0  0  0  0
  -19.8427  -25.4883   22.5267 C   0  0  0  0  0  0  0  0  0  0  0  0
  -20.5931  -24.8206   21.3799 C   0  0  0  0  0  0  0  0  0  0  0  0
  -20.4417  -26.8347   22.9395 C   0  0  1  0  0  0  0  0  0  1  0  0
  -25.7493  -32.5109   24.1417 C   0  0  1  0  0  0  0  0  0  0  0  0
  -23.9349  -35.7788   23.5107 C   0  0  2  0  0  0  0  0  0  0  0  0
  -26.6936  -32.3494   25.3663 C   0  0  0  0  0  0  0  0  0  0  0  0
  -27.1926  -15.7647   20.1066 N   0  0  0  0  0  0  0  0  0  0  0  0
  -27.0794  -16.9915   19.5695 N   0  0  0  0  0  0  0  0  0  0  0  0
  -25.6503  -30.9259   22.2438 N   0  0  0  0  0  0  0  0  0  0  0  0
  -28.5475  -19.9289   21.5187 N   0  0  0  0  0  0  0  0  0  0  0  0
  -25.7881  -18.2803   18.0588 N   0  0  0  0  0  0  0  0  0  0  0  0
  -22.8616  -24.6575   19.6075 N   0  0  0  0  0  0  0  0  0  0  0  0
  -23.8044  -14.2251   17.9287 N   0  0  0  0  0  0  0  0  0  0  0  0
  -27.0555  -21.7124   21.1242 N   0  0  0  0  0  0  0  0  0  0  0  0
  -27.6411  -28.2474   20.7743 N   0  0  0  0  0  0  0  0  0  0  0  0
  -25.3759  -33.8913   23.8529 N   0  0  0  0  0  0  0  0  0  0  0  0
  -21.9758  -24.5677   21.7862 N   0  3  0  0  0  0  0  0  0  0  0  0
  -22.6938  -36.0377   22.7275 N   0  3  0  0  0  0  0  0  0  0  0  0
  -23.7432  -16.3559   17.0832 O   0  0  0  0  0  0  0  0  0  0  0  0
  -26.8192  -28.7475   22.8950 O   0  0  0  0  0  0  0  0  0  0  0  0
  -18.6714  -28.1625   23.9082 O   0  0  0  0  0  0  0  0  0  0  0  0
  -27.4100  -32.4417   22.4493 O   0  0  0  0  0  0  0  0  0  0  0  0
  -23.0857  -33.5794   24.0389 O   0  0  0  0  0  0  0  0  0  0  0  0
  -29.2245  -22.1156   21.8417 O   0  0  0  0  0  0  0  0  0  0  0  0
  -25.3411   -9.7130   20.8122 O   0  0  0  0  0  0  0  0  0  0  0  0
  -20.3897  -27.7309   21.8303 O   0  0  0  0  0  0  0  0  0  1  0  0
  -20.1636   -8.1109   21.8273 F   0  0  0  0  0  0  0  0  0  0  0  0
  -24.6470   -8.6236   23.2564 F   0  0  0  0  0  0  0  0  0  0  0  0
  -24.5079  -22.2582   20.1561 F   0  0  0  0  0  0  0  0  0  0  0  0
  1  2  1  0  0  0  0
  1  7  2  0  0  0  0
  2  8  2  0  0  0  0
  3  6  2  0  0  0  0
  3 10  1  0  0  0  0
  4 11  2  0  0  0  0
  4 18  1  0  0  0  0
  5 12  1  0  0  0  0
  5 18  2  0  0  0  0
  6 19  1  0  0  0  0
  7 21  1  0  0  0  0
  8 23  1  0  0  0  0
  9 13  2  0  0  0  0
  9 22  1  0  0  0  0
 10 25  2  0  0  0  0
 11 26  1  0  0  0  0
 12 26  2  0  0  0  0
 13 27  1  0  0  0  0
 14 15  2  0  0  0  0
 14 28  1  0  0  0  0
 15 29  1  0  0  0  0
 16 24  1  0  0  0  0
 16 27  2  0  0  0  0
 17 29  2  0  0  0  0
 17 30  1  0  0  0  0
 18 32  1  0  0  0  0
 19 31  2  0  0  0  0
 19 34  1  0  0  0  0
 20 32  1  0  0  0  0
 20 33  2  0  0  0  0
 20 35  1  0  0  0  0
 21 23  2  0  0  0  0
 21 41  1  0  0  0  0
 22 24  2  0  0  0  0
 22 42  1  0  0  0  0
 23 50  1  0  0  0  0
 24 43  1  0  0  0  0
 25 31  1  0  0  0  0
 25 72  1  0  0  0  0
 26 83  1  0  0  0  0
 27 84  1  0  0  0  0
 28 30  2  0  0  0  0
 28 83  1  0  0  0  0
 29 85  1  0  0  0  0
 30 86  1  0  0  0  0
 31 87  1  0  0  0  0
 32 65  2  0  0  0  0
 33 66  1  0  0  0  0
 33 69  1  0  0  0  0
 34 70  1  0  0  0  0
 34 75  2  0  0  0  0
 35 71  1  0  0  0  0
 35 77  2  0  0  0  0
 36 51  1  0  0  0  0
 36 73  1  0  0  0  0
 36 78  2  0  0  0  0
 37 53  1  0  0  0  0
 37 61  1  0  0  0  0
 37 79  2  0  0  0  0
 38 62  1  0  0  0  0
 38 67  1  0  0  0  0
 38 80  2  0  0  0  0
 39 63  1  0  0  0  0
 39 74  1  0  0  0  0
 39 81  2  0  0  0  0
 40 68  1  0  0  0  0
 40 72  1  0  0  0  0
 40 82  2  0  0  0  0
 41 44  1  0  0  0  0
 42 51  1  0  0  0  0
 43 67  1  0  0  0  0
 44 46  1  0  0  0  0
 45 47  1  0  0  0  0
 45 48  1  0  0  0  0
 46 50  1  0  0  0  0
 47 52  1  0  0  0  0
 48 68  1  0  0  0  0
 49 52  1  0  0  0  0
 49 68  1  0  0  0  0
 50 73  1  0  0  0  0
 51 67  1  0  0  0  0
 52 66  1  0  0  0  0
 54 63  1  0  0  0  0
 55 64  1  0  0  0  0
 56 64  1  0  0  0  0
 57 64  1  0  0  0  0
 58 76  1  0  0  0  0
 59 60  1  0  0  0  0
 59 61  1  0  0  0  0
 60 75  1  0  0  0  0
 61 84  1  0  0  0  0
 62 64  1  0  0  0  0
 62 74  1  0  0  0  0
 63 76  1  0  0  0  0
 65 66  1  0  0  0  0
M  CHG  2  75   1  76   1
M  ISO  4  40 100  61 101  72 100  84 101
M  END
> <Batch ID>
0164

> <Smiles>
CNC(C)C(=O)NC(C(=O)N1Cc2cc([101O:1][101CH:1](CCNC(=N)c3cccc([100NH:0][100C:0](=O)N4CCCC(n5nc(-c6ccc(Oc7ccc(F)cc7F)cc6)c(C(N)=O)c5N)C4)c3F)C(C)=O)ccc2CC1C(=O)NC1CCCc2ccccc21)C(C)(C)C

> <Shape>
0.330

> <Color>
0.064

> <Negative vol penalty>
0.000

$$$$

  -OEChem-04052304023D

 85 93  0     1  0  0  0  0  0999 V2000
  -25.5066  -36.8692   19.6742 C   0  0  0  0  0  0  0  0  0  0  0  0
  -26.1241  -35.6811   19.2965 C   0  0  0  0  0  0  0  0  0  0  0  0
  -22.7989  -10.1932   20.3639 C   0  0  0  0  0  0  0  0  0  0  0  0
  -24.3379   -9.4301   22.0628 C   0  0  0  0  0  0  0  0  0  0  0  0
  -24.9753  -37.0003   20.9565 C   0  0  0  0  0  0  0  0  0  0  0  0
  -26.2116  -34.6238   20.2013 C   0  0  0  0  0  0  0  0  0  0  0  0
  -25.9309  -28.6431   18.9134 C   0  0  0  0  0  0  0  0  0  0  0  0
  -22.2151   -8.9271   20.3241 C   0  0  0  0  0  0  0  0  0  0  0  0
  -23.7540   -8.1639   22.0230 C   0  0  0  0  0  0  0  0  0  0  0  0
  -26.9177  -27.6730   18.7431 C   0  0  0  0  0  0  0  0  0  0  0  0
  -20.9769   -6.6644   23.2313 C   0  0  0  0  0  0  0  0  0  0  0  0
  -20.6964   -6.0432   24.4482 C   0  0  0  0  0  0  0  0  0  0  0  0
  -26.6491  -27.0044   21.0453 C   0  0  0  0  0  0  0  0  0  0  0  0
  -30.6014  -19.3780   21.3479 C   0  0  0  0  0  0  0  0  0  0  0  0
  -22.1516   -4.2104   23.8481 C   0  0  0  0  0  0  0  0  0  0  0  0
  -23.8604  -10.4447   21.2333 C   0  0  0  0  0  0  0  0  0  0  0  0
  -24.0944  -12.8340   22.0958 C   0  0  0  0  0  0  0  0  0  0  0  0
  -25.0478  -35.9406   21.8744 C   0  0  0  0  0  0  0  0  0  0  0  0
  -25.3025  -28.8087   20.1560 C   0  0  0  0  0  0  0  0  0  0  0  0
  -25.6820  -34.7413   21.4976 C   0  0  0  0  0  0  0  0  0  0  0  0
  -25.6529  -27.9756   21.2280 C   0  0  0  0  0  0  0  0  0  0  0  0
  -30.0589  -18.4188   22.2361 C   0  0  0  0  0  0  0  0  0  0  0  0
  -22.6925   -7.9125   21.1536 C   0  0  0  0  0  0  0  0  0  0  0  0
  -27.2789  -26.8554   19.8099 C   0  0  0  0  0  0  0  0  0  0  0  0
  -21.8447   -6.0586   22.3227 C   0  0  0  0  0  0  0  0  0  0  0  0
  -21.2837   -4.8163   24.7567 C   0  0  0  0  0  0  0  0  0  0  0  0
  -22.4321   -4.8316   22.6311 C   0  0  0  0  0  0  0  0  0  0  0  0
  -24.4644  -11.7522   21.2745 C   0  0  0  0  0  0  0  0  0  0  0  0
  -28.9263  -18.9891   22.7690 C   0  0  0  0  0  0  0  0  0  0  0  0
  -29.7614  -20.4659   21.4011 C   0  0  0  0  0  0  0  0  0  0  0  0
  -24.9684  -13.8377   21.7561 C   0  0  0  0  0  0  0  0  0  0  0  0
  -28.7259  -22.2616   20.4548 C   0  0  0  0  0  0  0  0  0  0  0  0
  -23.0538  -12.9237   23.0781 C   0  0  0  0  0  0  0  0  0  0  0  0
  -27.9749  -18.5053   23.7113 C   0  0  0  0  0  0  0  0  0  0  0  0
  -28.7432  -23.5620   19.7193 C   0  0  0  0  0  0  0  0  0  0  0  0
  -25.0973  -31.1752   22.2682 C   0  0  0  0  0  0  0  0  0  0  0  0
  -23.0224  -29.1614   23.7385 C   0  0  0  0  0  0  0  0  0  0  0  0
  -21.9536  -25.9586   24.2355 C   0  0  0  0  0  0  0  0  0  0  0  0
  -30.1304  -15.6067   20.5859 C   0  0  0  0  0  0  0  0  0  0  0  0
  -24.5011  -36.1460   23.2649 C   0  0  0  0  0  0  0  0  0  0  0  0
  -24.2212  -29.8419   20.3161 C   0  0  0  0  0  0  0  0  0  0  0  0
  -24.9942  -28.0994   22.5768 C   0  0  0  0  0  0  0  0  0  0  0  0
  -24.3029  -34.8457   24.0397 C   0  0  0  0  0  0  0  0  0  0  0  0
  -28.2443  -14.1915   17.9182 C   0  0  0  0  0  0  0  0  0  0  0  0
  -25.5319  -33.9520   23.9060 C   0  0  0  0  0  0  0  0  0  0  0  0
  -27.0664  -13.5151   18.6217 C   0  0  0  0  0  0  0  0  0  0  0  0
  -29.5305  -14.0756   18.7333 C   0  0  0  0  0  0  0  0  0  0  0  0
  -28.2487  -13.8755   20.8287 C   0  0  0  0  0  0  0  0  0  0  0  0
  -25.7745  -33.5630   22.4427 C   0  0  1  0  0  0  0  0  0  0  0  0
  -24.0107  -30.2669   21.7661 C   0  0  1  0  0  0  0  0  0  0  0  0
  -26.9171  -14.0146   20.0713 C   0  0  2  0  0  0  0  0  0  0  0  0
  -26.8157  -19.4027   24.0955 C   0  0  0  0  0  0  0  0  0  0  0  0
  -20.2625  -24.6236   25.5220 C   0  0  0  0  0  0  0  0  0  0  0  0
  -24.6926  -29.4901   26.2708 C   0  0  0  0  0  0  0  0  0  0  0  0
  -23.5574  -27.4611   27.1994 C   0  0  0  0  0  0  0  0  0  0  0  0
  -22.2198  -29.4923   26.6445 C   0  0  0  0  0  0  0  0  0  0  0  0
  -20.6925  -24.9494   21.7557 C   0  0  0  0  0  0  0  0  0  0  0  0
  -30.6049  -17.0800   22.5259 C   0  0  0  0  0  0  0  0  0  0  0  0
  -28.1381  -24.7312   20.4467 C   0  0  0  0  0  0  0  0  0  1  0  0
  -23.1448  -28.0676   24.7719 C   0  0  1  0  0  0  0  0  0  0  0  0
  -20.5648  -25.3461   24.2184 C   0  0  2  0  0  0  0  0  0  0  0  0
  -23.4176  -28.6265   26.1969 C   0  0  0  0  0  0  0  0  0  0  0  0
  -25.4931  -12.0414   20.4732 N   0  0  0  0  0  0  0  0  0  0  0  0
  -29.8492  -21.6861   20.7101 N   0  0  0  0  0  0  0  0  0  0  0  0
  -25.7770  -13.3164   20.7894 N   0  0  0  0  0  0  0  0  0  0  0  0
  -23.9471  -29.1287   22.6851 N   0  0  0  0  0  0  0  0  0  0  0  0
  -29.3217  -14.5673   20.0973 N   0  0  0  0  0  0  0  0  0  0  0  0
  -25.1163  -15.1064   22.1930 N   0  0  0  0  0  0  0  0  0  0  0  0
  -22.2478  -11.7992   23.3020 N   0  0  0  0  0  0  0  0  0  0  0  0
  -24.8593  -32.5170   22.0394 N   0  0  0  0  0  0  0  0  0  0  0  0
  -21.9290  -27.2683   24.6662 N   0  0  0  0  0  0  0  0  0  0  0  0
  -29.8620  -16.0172   21.8860 N   0  0  0  0  0  0  0  0  0  0  0  0
  -20.4436  -24.3685   23.1001 N   0  3  0  0  0  0  0  0  0  0  0  0
  -22.8344  -13.9752   23.7259 O   0  0  0  0  0  0  0  0  0  0  0  0
  -27.9976  -17.3891   24.2747 O   0  0  0  0  0  0  0  0  0  0  0  0
  -29.2482  -23.5907   18.6082 O   0  0  0  0  0  0  0  0  0  0  0  0
  -26.0781  -30.6944   22.8236 O   0  0  0  0  0  0  0  0  0  0  0  0
  -22.1344  -30.0093   23.8577 O   0  0  0  0  0  0  0  0  0  0  0  0
  -22.9603  -25.3363   23.9039 O   0  0  0  0  0  0  0  0  0  0  0  0
  -31.0218  -16.1335   19.9116 O   0  0  0  0  0  0  0  0  0  0  0  0
  -28.7378  -20.2369   22.2650 O   0  0  0  0  0  0  0  0  0  0  0  0
  -22.1228   -6.6769   21.1152 O   0  0  0  0  0  0  0  0  0  0  0  0
  -28.2422  -25.9081   19.6465 O   0  0  0  0  0  0  0  0  0  1  0  0
  -21.0155   -4.2206   25.9260 F   0  0  0  0  0  0  0  0  0  0  0  0
  -23.2676   -4.2453   21.7628 F   0  0  0  0  0  0  0  0  0  0  0  0
  1  2  1  0  0  0  0
  1  5  2  0  0  0  0
  2  6  2  0  0  0  0
  3  8  2  0  0  0  0
  3 16  1  0  0  0  0
  4  9  1  0  0  0  0
  4 16  2  0  0  0  0
  5 18  1  0  0  0  0
  6 20  1  0  0  0  0
  7 10  2  0  0  0  0
  7 19  1  0  0  0  0
  8 23  1  0  0  0  0
  9 23  2  0  0  0  0
 10 24  1  0  0  0  0
 11 12  2  0  0  0  0
 11 25  1  0  0  0  0
 12 26  1  0  0  0  0
 13 21  1  0  0  0  0
 13 24  2  0  0  0  0
 14 22  1  0  0  0  0
 14 30  2  0  0  0  0
 15 26  2  0  0  0  0
 15 27  1  0  0  0  0
 16 28  1  0  0  0  0
 17 28  1  0  0  0  0
 17 31  2  0  0  0  0
 17 33  1  0  0  0  0
 18 20  2  0  0  0  0
 18 40  1  0  0  0  0
 19 21  2  0  0  0  0
 19 41  1  0  0  0  0
 20 49  1  0  0  0  0
 21 42  1  0  0  0  0
 22 29  2  0  0  0  0
 22 58  1  0  0  0  0
 23 82  1  0  0  0  0
 24 83  1  0  0  0  0
 25 27  2  0  0  0  0
 25 82  1  0  0  0  0
 26 84  1  0  0  0  0
 27 85  1  0  0  0  0
 28 63  2  0  0  0  0
 29 34  1  0  0  0  0
 29 81  1  0  0  0  0
 30 64  1  0  0  0  0
 30 81  1  0  0  0  0
 31 65  1  0  0  0  0
 31 68  1  0  0  0  0
 32 35  1  0  0  0  0
 32 64  2  0  0  0  0
 33 69  1  0  0  0  0
 33 74  2  0  0  0  0
 34 52  1  0  0  0  0
 34 75  2  0  0  0  0
 35 59  1  0  0  0  0
 35 76  2  0  0  0  0
 36 50  1  0  0  0  0
 36 70  1  0  0  0  0
 36 77  2  0  0  0  0
 37 60  1  0  0  0  0
 37 66  1  0  0  0  0
 37 78  2  0  0  0  0
 38 61  1  0  0  0  0
 38 71  1  0  0  0  0
 38 79  2  0  0  0  0
 39 67  1  0  0  0  0
 39 72  1  0  0  0  0
 39 80  2  0  0  0  0
 40 43  1  0  0  0  0
 41 50  1  0  0  0  0
 42 66  1  0  0  0  0
 43 45  1  0  0  0  0
 44 46  1  0  0  0  0
 44 47  1  0  0  0  0
 45 49  1  0  0  0  0
 46 51  1  0  0  0  0
 47 67  1  0  0  0  0
 48 51  1  0  0  0  0
 48 67  1  0  0  0  0
 49 70  1  0  0  0  0
 50 66  1  0  0  0  0
 51 65  1  0  0  0  0
 53 61  1  0  0  0  0
 54 62  1  0  0  0  0
 55 62  1  0  0  0  0
 56 62  1  0  0  0  0
 57 73  1  0  0  0  0
 58 72  1  0  0  0  0
 59 83  1  0  0  0  0
 60 62  1  0  0  0  0
 60 71  1  0  0  0  0
 61 73  1  0  0  0  0
 63 65  1  0  0  0  0
M  CHG  1  73   1
M  ISO  4  39 100  59 101  72 100  83 101
M  END
> <Batch ID>
0164

> <Smiles>
CNC(C)C(=O)NC(C(=O)N1Cc2cc([101O:1][101CH2:1]C(=O)CNc3cc(C=[100N:0][100C:0](=O)N4CCCC(n5nc(-c6ccc(Oc7ccc(F)cc7F)cc6)c(C(N)=O)c5N)C4)c(C(C)=O)o3)ccc2CC1C(=O)NC1CCCc2ccccc21)C(C)(C)C

> <Shape>
0.319

> <Color>
0.127

> <Negative vol penalty>
0.000

$$$$

  -OEChem-04052304023D

 91100  0     1  0  0  0  0  0999 V2000
  -40.6145  -24.1720   22.0357 C   0  0  0  0  0  0  0  0  0  0  0  0
  -39.4049  -23.6593   22.4935 C   0  0  0  0  0  0  0  0  0  0  0  0
  -22.6678  -10.1859   20.1587 C   0  0  0  0  0  0  0  0  0  0  0  0
  -24.3323   -9.3813   21.7141 C   0  0  0  0  0  0  0  0  0  0  0  0
  -40.7085  -25.5150   21.6733 C   0  0  0  0  0  0  0  0  0  0  0  0
  -38.2889  -24.4897   22.5902 C   0  0  0  0  0  0  0  0  0  0  0  0
  -32.4465  -22.9332   21.6160 C   0  0  0  0  0  0  0  0  0  0  0  0
  -21.9358   -9.0117   20.3346 C   0  0  0  0  0  0  0  0  0  0  0  0
  -23.6003   -8.2071   21.8900 C   0  0  0  0  0  0  0  0  0  0  0  0
  -31.4095  -22.5921   22.4833 C   0  0  0  0  0  0  0  0  0  0  0  0
  -20.8661   -7.2123   23.6091 C   0  0  0  0  0  0  0  0  0  0  0  0
  -20.6911   -6.7487   24.9130 C   0  0  0  0  0  0  0  0  0  0  0  0
  -32.1350  -16.4202   22.6731 C   0  0  0  0  0  0  0  0  0  0  0  0
  -30.6216  -24.8714   22.4279 C   0  0  0  0  0  0  0  0  0  0  0  0
  -29.9757  -17.2004   23.4031 C   0  0  0  0  0  0  0  0  0  0  0  0
  -21.8126   -4.6893   24.3312 C   0  0  0  0  0  0  0  0  0  0  0  0
  -23.8661  -10.3707   20.8484 C   0  0  0  0  0  0  0  0  0  0  0  0
  -24.1975  -12.8987   20.9314 C   0  0  0  0  0  0  0  0  0  0  0  0
  -39.5905  -26.3600   21.7564 C   0  0  0  0  0  0  0  0  0  0  0  0
  -32.5855  -24.2505   21.1560 C   0  0  0  0  0  0  0  0  0  0  0  0
  -38.3684  -25.8456   22.2299 C   0  0  0  0  0  0  0  0  0  0  0  0
  -32.7749  -17.2288   23.6283 C   0  0  0  0  0  0  0  0  0  0  0  0
  -31.6597  -25.2261   21.5528 C   0  0  0  0  0  0  0  0  0  0  0  0
  -31.9963  -18.0310   24.4805 C   0  0  0  0  0  0  0  0  0  0  0  0
  -30.7455  -16.4075   22.5603 C   0  0  0  0  0  0  0  0  0  0  0  0
  -30.5964  -18.0054   24.3573 C   0  0  0  0  0  0  0  0  0  0  0  0
  -22.4020   -8.0223   21.2003 C   0  0  0  0  0  0  0  0  0  0  0  0
  -30.4986  -23.5619   22.8917 C   0  0  0  0  0  0  0  0  0  0  0  0
  -21.5142   -6.4144   22.6662 C   0  0  0  0  0  0  0  0  0  0  0  0
  -21.1644   -5.4872   25.2740 C   0  0  0  0  0  0  0  0  0  0  0  0
  -21.9875   -5.1530   23.0273 C   0  0  0  0  0  0  0  0  0  0  0  0
  -24.6231  -11.5832   20.6667 C   0  0  0  0  0  0  0  0  0  0  0  0
  -25.2748  -13.6820   20.5962 C   0  0  0  0  0  0  0  0  0  0  0  0
  -22.9409  -13.3704   21.4354 C   0  0  0  0  0  0  0  0  0  0  0  0
  -27.9914  -20.3149   25.6401 C   0  0  0  0  0  0  0  0  0  0  0  0
  -28.2226  -21.6974   25.0859 C   0  0  0  0  0  0  0  0  0  0  0  0
  -34.8225  -26.4935   21.4174 C   0  0  0  0  0  0  0  0  0  0  0  0
  -32.9015  -28.0996   19.3553 C   0  0  0  0  0  0  0  0  0  0  0  0
  -29.7750  -28.5549   18.0651 C   0  0  0  0  0  0  0  0  0  0  0  0
  -30.7412  -14.7381   20.6737 C   0  0  0  0  0  0  0  0  0  0  0  0
  -39.7529  -27.8160   21.3982 C   0  0  0  0  0  0  0  0  0  0  0  0
  -33.6937  -24.5964   20.1997 C   0  0  0  0  0  0  0  0  0  0  0  0
  -34.2796  -17.2072   23.7205 C   0  0  0  0  0  0  0  0  0  0  0  0
  -32.6262  -18.9112   25.5303 C   0  0  0  0  0  0  0  0  0  0  0  0
  -31.7530  -26.6502   21.0715 C   0  0  0  0  0  0  0  0  0  0  0  0
  -38.4275  -28.5398   21.1750 C   0  0  0  0  0  0  0  0  0  0  0  0
  -34.9213  -18.5524   23.3706 C   0  0  0  0  0  0  0  0  0  0  0  0
  -33.4903  -20.0276   24.9378 C   0  0  0  0  0  0  0  0  0  0  0  0
  -29.5523  -12.5276   18.1483 C   0  0  0  0  0  0  0  0  0  0  0  0
  -37.4439  -28.2093   22.2931 C   0  0  0  0  0  0  0  0  0  0  0  0
  -28.1289  -12.1931   18.6002 C   0  0  0  0  0  0  0  0  0  0  0  0
  -30.5074  -12.6587   19.3334 C   0  0  0  0  0  0  0  0  0  0  0  0
  -28.6471  -13.2535   20.8349 C   0  0  0  0  0  0  0  0  0  0  0  0
  -37.1291  -26.7089   22.3253 C   0  0  1  0  0  0  0  0  0  0  0  0
  -34.0424  -26.0816   20.2011 C   0  0  1  0  0  0  0  0  0  0  0  0
  -27.6350  -13.1754   19.6803 C   0  0  2  0  0  0  0  0  0  0  0  0
  -34.9178  -19.6350   24.4795 C   0  0  0  0  0  0  0  0  0  0  0  0
  -35.5804  -20.9037   23.8901 C   0  0  0  0  0  0  0  0  0  0  0  0
  -35.7767  -19.1914   25.6813 C   0  0  0  0  0  0  0  0  0  0  0  0
  -28.5083  -29.9673   16.4226 C   0  0  0  0  0  0  0  0  0  0  0  0
  -32.9278  -30.4212   21.3350 C   0  0  0  0  0  0  0  0  0  0  0  0
  -30.9468  -31.3742   20.1368 C   0  0  0  0  0  0  0  0  0  0  0  0
  -33.1143  -31.0955   18.9339 C   0  0  0  0  0  0  0  0  0  0  0  0
  -29.0342  -26.1991   16.4340 C   0  0  0  0  0  0  0  0  0  0  0  0
  -28.4166  -19.1218   24.8348 C   0  0  0  0  0  0  0  0  0  0  0  0
  -29.4070  -21.8827   24.1740 C   0  0  0  0  0  0  0  0  0  1  0  0
  -31.7382  -29.0511   19.4983 C   0  0  1  0  0  0  0  0  0  0  0  0
  -29.2838  -28.6763   16.6339 C   0  0  2  0  0  0  0  0  0  0  0  0
  -32.1809  -30.4592   19.9868 C   0  0  0  0  0  0  0  0  0  0  0  0
  -25.8731  -11.5298   20.1991 N   0  0  0  0  0  0  0  0  0  0  0  0
  -27.4242  -20.2259   26.7969 N   0  0  0  0  0  0  0  0  0  0  0  0
  -26.2423  -12.8216   20.1674 N   0  0  0  0  0  0  0  0  0  0  0  0
  -32.8577  -26.9403   20.1427 N   0  0  0  0  0  0  0  0  0  0  0  0
  -29.9763  -13.6086   20.3134 N   0  0  0  0  0  0  0  0  0  0  0  0
  -25.4793  -15.0160   20.6293 N   0  0  0  0  0  0  0  0  0  0  0  0
  -22.7820  -13.4965   22.8222 N   0  0  0  0  0  0  0  0  0  0  0  0
  -30.1200  -15.5871   21.5890 N   0  0  0  0  0  0  0  0  0  0  0  0
  -29.7607  -18.7941   25.1850 N   0  0  0  0  0  0  0  0  0  0  0  0
  -36.1914  -26.3665   21.2775 N   0  0  0  0  0  0  0  0  0  0  0  0
  -31.0522  -29.0536   18.2107 N   0  0  0  0  0  0  0  0  0  0  0  0
  -28.3925  -27.5315   16.2932 N   0  3  0  0  0  0  0  0  0  0  0  0
  -21.9816  -13.6557   20.6791 O   0  0  0  0  0  0  0  0  0  0  0  0
  -27.4518  -22.5832   25.4272 O   0  0  0  0  0  0  0  0  0  0  0  0
  -34.2268  -26.8981   22.4089 O   0  0  0  0  0  0  0  0  0  0  0  0
  -33.8118  -28.3714   18.5685 O   0  0  0  0  0  0  0  0  0  0  0  0
  -29.0924  -28.0699   18.9647 O   0  0  0  0  0  0  0  0  0  0  0  0
  -31.8532  -14.9518   20.1840 O   0  0  0  0  0  0  0  0  0  0  0  0
  -21.6878   -6.8765   21.3724 O   0  0  0  0  0  0  0  0  0  0  0  0
  -29.4761  -23.2287   23.7469 O   0  0  0  0  0  0  0  0  0  1  0  0
  -20.9978   -5.0428   26.5266 F   0  0  0  0  0  0  0  0  0  0  0  0
  -22.6120   -4.3824   22.1262 F   0  0  0  0  0  0  0  0  0  0  0  0
  1  2  1  0  0  0  0
  1  5  2  0  0  0  0
  2  6  2  0  0  0  0
  3  8  2  0  0  0  0
  3 17  1  0  0  0  0
  4  9  1  0  0  0  0
  4 17  2  0  0  0  0
  5 19  1  0  0  0  0
  6 21  1  0  0  0  0
  7 10  2  0  0  0  0
  7 20  1  0  0  0  0
  8 27  1  0  0  0  0
  9 27  2  0  0  0  0
 10 28  1  0  0  0  0
 11 12  2  0  0  0  0
 11 29  1  0  0  0  0
 12 30  1  0  0  0  0
 13 22  2  0  0  0  0
 13 25  1  0  0  0  0
 14 23  1  0  0  0  0
 14 28  2  0  0  0  0
 15 25  2  0  0  0  0
 15 26  1  0  0  0  0
 16 30  2  0  0  0  0
 16 31  1  0  0  0  0
 17 32  1  0  0  0  0
 18 32  1  0  0  0  0
 18 33  2  0  0  0  0
 18 34  1  0  0  0  0
 19 21  2  0  0  0  0
 19 41  1  0  0  0  0
 20 23  2  0  0  0  0
 20 42  1  0  0  0  0
 21 54  1  0  0  0  0
 22 24  1  0  0  0  0
 22 43  1  0  0  0  0
 23 45  1  0  0  0  0
 24 26  2  0  0  0  0
 24 44  1  0  0  0  0
 25 77  1  0  0  0  0
 26 78  1  0  0  0  0
 27 88  1  0  0  0  0
 28 89  1  0  0  0  0
 29 31  2  0  0  0  0
 29 88  1  0  0  0  0
 30 90  1  0  0  0  0
 31 91  1  0  0  0  0
 32 70  2  0  0  0  0
 33 72  1  0  0  0  0
 33 75  1  0  0  0  0
 34 76  1  0  0  0  0
 34 82  2  0  0  0  0
 35 36  1  0  0  0  0
 35 65  1  0  0  0  0
 35 71  2  0  0  0  0
 36 66  1  0  0  0  0
 36 83  2  0  0  0  0
 37 55  1  0  0  0  0
 37 79  1  0  0  0  0
 37 84  2  0  0  0  0
 38 67  1  0  0  0  0
 38 73  1  0  0  0  0
 38 85  2  0  0  0  0
 39 68  1  0  0  0  0
 39 80  1  0  0  0  0
 39 86  2  0  0  0  0
 40 74  1  0  0  0  0
 40 77  1  0  0  0  0
 40 87  2  0  0  0  0
 41 46  1  0  0  0  0
 42 55  1  0  0  0  0
 43 47  1  0  0  0  0
 44 48  1  0  0  0  0
 45 73  1  0  0  0  0
 46 50  1  0  0  0  0
 47 57  1  0  0  0  0
 48 57  1  0  0  0  0
 49 51  1  0  0  0  0
 49 52  1  0  0  0  0
 50 54  1  0  0  0  0
 51 56  1  0  0  0  0
 52 74  1  0  0  0  0
 53 56  1  0  0  0  0
 53 74  1  0  0  0  0
 54 79  1  0  0  0  0
 55 73  1  0  0  0  0
 56 72  1  0  0  0  0
 57 58  1  0  0  0  0
 57 59  1  0  0  0  0
 60 68  1  0  0  0  0
 61 69  1  0  0  0  0
 62 69  1  0  0  0  0
 63 69  1  0  0  0  0
 64 81  1  0  0  0  0
 65 78  1  0  0  0  0
 66 89  1  0  0  0  0
 67 69  1  0  0  0  0
 67 80  1  0  0  0  0
 68 81  1  0  0  0  0
 70 72  1  0  0  0  0
M  CHG  1  81   1
M  ISO  4  40 100  66 101  77 100  89 101
M  END
> <Batch ID>
0164

> <Smiles>
CNC(C)C(=O)NC(C(=O)N1Cc2cc([101O:1][101CH2:1]C(=O)C(=N)CNc3cc([100NH:0][100C:0](=O)N4CCCC(n5nc(-c6ccc(Oc7ccc(F)cc7F)cc6)c(C(N)=O)c5N)C4)cc4c3CCC(C)(C)CC4)ccc2CC1C(=O)NC1CCCc2ccccc21)C(C)(C)C

> <Shape>
0.194

> <Color>
0.166

> <Negative vol penalty>
0.000

$$$$

  -OEChem-04052304023D

 91 99  0     1  0  0  0  0  0999 V2000
  -32.0106  -33.2047   21.9141 C   0  0  0  0  0  0  0  0  0  0  0  0
  -31.6007  -32.0030   21.3454 C   0  0  0  0  0  0  0  0  0  0  0  0
  -23.0042   -9.9001   19.9740 C   0  0  0  0  0  0  0  0  0  0  0  0
  -23.7339   -9.9432   22.2767 C   0  0  0  0  0  0  0  0  0  0  0  0
  -32.2691  -33.2746   23.2824 C   0  0  0  0  0  0  0  0  0  0  0  0
  -31.4500  -30.8703   22.1445 C   0  0  0  0  0  0  0  0  0  0  0  0
  -27.1761  -28.3436   21.1470 C   0  0  0  0  0  0  0  0  0  0  0  0
  -22.2398   -8.7635   20.2375 C   0  0  0  0  0  0  0  0  0  0  0  0
  -22.9695   -8.8066   22.5403 C   0  0  0  0  0  0  0  0  0  0  0  0
  -27.1648  -27.5350   20.0113 C   0  0  0  0  0  0  0  0  0  0  0  0
  -23.2176   -5.4699   22.0550 C   0  0  0  0  0  0  0  0  0  0  0  0
  -23.8081   -4.4506   22.8020 C   0  0  0  0  0  0  0  0  0  0  0  0
  -27.5511  -25.5970   21.3947 C   0  0  0  0  0  0  0  0  0  0  0  0
  -29.8969  -19.0942   21.2999 C   0  0  0  0  0  0  0  0  0  0  0  0
  -28.9240  -17.8888   23.1539 C   0  0  0  0  0  0  0  0  0  0  0  0
  -28.0643  -20.0620   22.5416 C   0  0  0  0  0  0  0  0  0  0  0  0
  -22.0873   -4.6846   24.4816 C   0  0  0  0  0  0  0  0  0  0  0  0
  -23.7513  -10.4899   20.9936 C   0  0  0  0  0  0  0  0  0  0  0  0
  -24.1327  -13.0067   20.8265 C   0  0  0  0  0  0  0  0  0  0  0  0
  -32.1122  -32.1446   24.1003 C   0  0  0  0  0  0  0  0  0  0  0  0
  -27.3863  -27.7854   22.4161 C   0  0  0  0  0  0  0  0  0  0  0  0
  -31.7078  -30.9249   23.5248 C   0  0  0  0  0  0  0  0  0  0  0  0
  -27.5621  -26.4003   22.5452 C   0  0  0  0  0  0  0  0  0  0  0  0
  -29.8592  -17.9680   22.1220 C   0  0  0  0  0  0  0  0  0  0  0  0
  -28.9995  -20.1412   21.5097 C   0  0  0  0  0  0  0  0  0  0  0  0
  -28.0265  -18.9358   23.3637 C   0  0  0  0  0  0  0  0  0  0  0  0
  -22.2224   -8.2167   21.5206 C   0  0  0  0  0  0  0  0  0  0  0  0
  -27.3552  -26.1619   20.1347 C   0  0  0  0  0  0  0  0  0  0  0  0
  -22.0620   -6.0966   22.5213 C   0  0  0  0  0  0  0  0  0  0  0  0
  -23.2430   -4.0580   24.0153 C   0  0  0  0  0  0  0  0  0  0  0  0
  -21.4968   -5.7039   23.7346 C   0  0  0  0  0  0  0  0  0  0  0  0
  -24.5416  -11.6637   20.7219 C   0  0  0  0  0  0  0  0  0  0  0  0
  -25.2407  -13.7323   20.4626 C   0  0  0  0  0  0  0  0  0  0  0  0
  -28.0797  -23.1763   19.5330 C   0  0  0  0  0  0  0  0  0  0  0  0
  -28.0196  -22.0977   20.3244 C   0  0  0  0  0  0  0  0  0  0  0  0
  -26.8913  -17.8585   25.2986 C   0  0  0  0  0  0  0  0  0  0  0  0
  -22.8648  -13.5498   21.2176 C   0  0  0  0  0  0  0  0  0  0  0  0
  -25.9663  -17.8465   26.2731 C   0  0  0  0  0  0  0  0  0  0  0  0
  -29.5986  -28.1173   24.6743 C   0  0  0  0  0  0  0  0  0  0  0  0
  -31.7595  -16.6239   23.0898 C   0  0  0  0  0  0  0  0  0  0  0  0
  -27.6038  -26.1971   26.3643 C   0  0  0  0  0  0  0  0  0  0  0  0
  -25.1357  -23.8403   26.3343 C   0  0  0  0  0  0  0  0  0  0  0  0
  -30.7362  -14.6737   20.7037 C   0  0  0  0  0  0  0  0  0  0  0  0
  -32.4490  -32.2570   25.5661 C   0  0  0  0  0  0  0  0  0  0  0  0
  -27.3690  -28.6678   23.6341 C   0  0  0  0  0  0  0  0  0  0  0  0
  -27.7714  -25.7491   23.8871 C   0  0  0  0  0  0  0  0  0  0  0  0
  -31.9040  -31.1050   26.4065 C   0  0  0  0  0  0  0  0  0  0  0  0
  -29.5942  -12.2575   18.3512 C   0  0  0  0  0  0  0  0  0  0  0  0
  -32.1944  -29.7681   25.7318 C   0  0  0  0  0  0  0  0  0  0  0  0
  -28.1470  -11.9941   18.7707 C   0  0  0  0  0  0  0  0  0  0  0  0
  -30.4988  -12.4895   19.5595 C   0  0  0  0  0  0  0  0  0  0  0  0
  -28.5902  -13.2771   20.9052 C   0  0  0  0  0  0  0  0  0  0  0  0
  -31.5091  -29.6806   24.3628 C   0  0  1  0  0  0  0  0  0  0  0  0
  -28.1046  -28.0587   24.8237 C   0  0  1  0  0  0  0  0  0  0  0  0
  -27.6291  -13.0927   19.7184 C   0  0  2  0  0  0  0  0  0  0  0  0
  -25.8602  -16.6672   27.2025 C   0  0  0  0  0  0  0  0  0  0  0  0
  -24.9759  -18.9448   26.5448 C   0  0  0  0  0  0  0  0  0  0  0  0
  -31.7448  -15.3020   23.8156 C   0  0  0  0  0  0  0  0  0  0  0  0
  -26.2291  -23.5608   17.9044 C   0  0  0  0  0  0  0  0  0  0  0  0
  -23.3799  -22.2956   27.2446 C   0  0  0  0  0  0  0  0  0  0  0  0
  -29.9907  -24.3615   26.8569 C   0  0  0  0  0  0  0  0  0  0  0  0
  -28.3823  -22.5691   27.5414 C   0  0  0  0  0  0  0  0  0  0  0  0
  -28.5046  -24.6952   28.8404 C   0  0  0  0  0  0  0  0  0  0  0  0
  -23.0536  -25.9391   26.1981 C   0  0  0  0  0  0  0  0  0  0  0  0
  -30.8183  -16.8482   21.8971 C   0  0  1  0  0  0  0  0  0  0  0  0
  -26.8921  -24.0274   19.1936 C   0  0  2  0  0  0  0  0  0  1  0  0
  -27.4514  -24.7058   26.5420 C   0  0  1  0  0  0  0  0  0  0  0  0
  -23.8278  -23.7416   27.0984 C   0  0  2  0  0  0  0  0  0  0  0  0
  -28.5803  -24.0951   27.4195 C   0  0  0  0  0  0  0  0  0  0  0  0
  -25.8102  -11.5405   20.3226 N   0  0  0  0  0  0  0  0  0  0  0  0
  -26.2081  -12.8155   20.1731 N   0  0  0  0  0  0  0  0  0  0  0  0
  -27.7526  -26.6550   25.0475 N   0  0  0  0  0  0  0  0  0  0  0  0
  -29.9522  -13.5441   20.4168 N   0  0  0  0  0  0  0  0  0  0  0  0
  -25.4721  -15.0587   20.3652 N   0  0  0  0  0  0  0  0  0  0  0  0
  -21.8349  -12.6629   21.5598 N   0  0  0  0  0  0  0  0  0  0  0  0
  -29.0384  -21.2757   20.6828 N   0  0  0  0  0  0  0  0  0  0  0  0
  -27.0813  -18.8558   24.4074 N   0  0  0  0  0  0  0  0  0  0  0  0
  -30.0989  -29.3962   24.5209 N   0  0  0  0  0  0  0  0  0  0  0  0
  -26.1063  -24.4923   27.0651 N   0  0  0  0  0  0  0  0  0  0  0  0
  -30.1402  -15.6285   21.5184 N   0  0  0  0  0  0  0  0  0  0  0  0
  -22.7557  -24.4963   26.3899 N   0  3  0  0  0  0  0  0  0  0  0  0
  -22.6463  -14.7847   21.2466 O   0  0  0  0  0  0  0  0  0  0  0  0
  -30.2493  -27.0792   24.6980 O   0  0  0  0  0  0  0  0  0  0  0  0
  -32.5477  -17.5087   23.4352 O   0  0  0  0  0  0  0  0  0  0  0  0
  -27.5840  -26.9295   27.3567 O   0  0  0  0  0  0  0  0  0  0  0  0
  -25.2829  -23.3813   25.2037 O   0  0  0  0  0  0  0  0  0  0  0  0
  -31.8806  -14.8230   20.2619 O   0  0  0  0  0  0  0  0  0  0  0  0
  -21.4765   -7.1078   21.7782 O   0  0  0  0  0  0  0  0  0  0  0  0
  -27.3452  -25.3704   19.0278 O   0  0  0  0  0  0  0  0  0  1  0  0
  -23.8092   -3.0781   24.7318 F   0  0  0  0  0  0  0  0  0  0  0  0
  -20.3860   -6.3015   24.1872 F   0  0  0  0  0  0  0  0  0  0  0  0
  1  2  1  0  0  0  0
  1  5  2  0  0  0  0
  2  6  2  0  0  0  0
  3  8  2  0  0  0  0
  3 18  1  0  0  0  0
  4  9  1  0  0  0  0
  4 18  2  0  0  0  0
  5 20  1  0  0  0  0
  6 22  1  0  0  0  0
  7 10  2  0  0  0  0
  7 21  1  0  0  0  0
  8 27  1  0  0  0  0
  9 27  2  0  0  0  0
 10 28  1  0  0  0  0
 11 12  2  0  0  0  0
 11 29  1  0  0  0  0
 12 30  1  0  0  0  0
 13 23  1  0  0  0  0
 13 28  2  0  0  0  0
 14 24  1  0  0  0  0
 14 25  2  0  0  0  0
 15 24  2  0  0  0  0
 15 26  1  0  0  0  0
 16 25  1  0  0  0  0
 16 26  2  0  0  0  0
 17 30  2  0  0  0  0
 17 31  1  0  0  0  0
 18 32  1  0  0  0  0
 19 32  1  0  0  0  0
 19 33  2  0  0  0  0
 19 37  1  0  0  0  0
 20 22  2  0  0  0  0
 20 44  1  0  0  0  0
 21 23  2  0  0  0  0
 21 45  1  0  0  0  0
 22 53  1  0  0  0  0
 23 46  1  0  0  0  0
 24 65  1  0  0  0  0
 25 76  1  0  0  0  0
 26 77  1  0  0  0  0
 27 88  1  0  0  0  0
 28 89  1  0  0  0  0
 29 31  2  0  0  0  0
 29 88  1  0  0  0  0
 30 90  1  0  0  0  0
 31 91  1  0  0  0  0
 32 70  2  0  0  0  0
 33 71  1  0  0  0  0
 33 74  1  0  0  0  0
 34 35  2  0  0  0  0
 34 66  1  0  0  0  0
 35 76  1  0  0  0  0
 36 38  2  0  0  0  0
 36 77  1  0  0  0  0
 37 75  1  0  0  0  0
 37 82  2  0  0  0  0
 38 56  1  0  0  0  0
 38 57  1  0  0  0  0
 39 54  1  0  0  0  0
 39 78  1  0  0  0  0
 39 83  2  0  0  0  0
 40 58  1  0  0  0  0
 40 65  1  0  0  0  0
 40 84  2  0  0  0  0
 41 67  1  0  0  0  0
 41 72  1  0  0  0  0
 41 85  2  0  0  0  0
 42 68  1  0  0  0  0
 42 79  1  0  0  0  0
 42 86  2  0  0  0  0
 43 73  1  0  0  0  0
 43 80  1  0  0  0  0
 43 87  2  0  0  0  0
 44 47  1  0  0  0  0
 45 54  1  0  0  0  0
 46 72  1  0  0  0  0
 47 49  1  0  0  0  0
 48 50  1  0  0  0  0
 48 51  1  0  0  0  0
 49 53  1  0  0  0  0
 50 55  1  0  0  0  0
 51 73  1  0  0  0  0
 52 55  1  0  0  0  0
 52 73  1  0  0  0  0
 53 78  1  0  0  0  0
 54 72  1  0  0  0  0
 55 71  1  0  0  0  0
 59 66  1  0  0  0  0
 60 68  1  0  0  0  0
 61 69  1  0  0  0  0
 62 69  1  0  0  0  0
 63 69  1  0  0  0  0
 64 81  1  0  0  0  0
 65 80  1  0  0  0  0
 66 89  1  0  0  0  0
 67 69  1  0  0  0  0
 67 79  1  0  0  0  0
 68 81  1  0  0  0  0
 70 71  1  0  0  0  0
M  CHG  1  81   1
M  ISO  4  43 100  66 101  80 100  89 101
M  END
> <Batch ID>
0164

> <Smiles>
CNC(C)C(=O)NC(C(=O)N1Cc2cc([101O:1][101CH:1](C)C=CNc3cc(NC=C(C)C)cc(C([100NH:0][100C:0](=O)N4CCCC(n5nc(-c6ccc(Oc7ccc(F)cc7F)cc6)c(C(N)=O)c5N)C4)C(C)=O)c3)ccc2CC1C(=O)NC1CCCc2ccccc21)C(C)(C)C

> <Shape>
0.229

> <Color>
0.190

> <Negative vol penalty>
0.000

$$$$

  -OEChem-04052304023D

 86 94  0     1  0  0  0  0  0999 V2000
  -34.0724  -24.9138   32.4507 C   0  0  0  0  0  0  0  0  0  0  0  0
  -33.1114  -23.9313   32.2347 C   0  0  0  0  0  0  0  0  0  0  0  0
  -33.6045  -11.9630   24.7636 C   0  0  0  0  0  0  0  0  0  0  0  0
  -23.2857   -9.7993   19.9156 C   0  0  0  0  0  0  0  0  0  0  0  0
  -23.7372   -9.9430   22.2847 C   0  0  0  0  0  0  0  0  0  0  0  0
  -34.3489  -25.8481   31.4535 C   0  0  0  0  0  0  0  0  0  0  0  0
  -32.4255  -23.8833   31.0215 C   0  0  0  0  0  0  0  0  0  0  0  0
  -32.0748  -19.1818   29.1729 C   0  0  0  0  0  0  0  0  0  0  0  0
  -33.0512  -11.9627   26.0440 C   0  0  0  0  0  0  0  0  0  0  0  0
  -32.8108  -12.2794   23.6609 C   0  0  0  0  0  0  0  0  0  0  0  0
  -22.5593   -8.6271   20.1251 C   0  0  0  0  0  0  0  0  0  0  0  0
  -23.0108   -8.7708   22.4942 C   0  0  0  0  0  0  0  0  0  0  0  0
  -31.1152  -18.3444   29.7403 C   0  0  0  0  0  0  0  0  0  0  0  0
  -23.2128   -5.3534   20.6544 C   0  0  0  0  0  0  0  0  0  0  0  0
  -23.4410   -4.2865   19.7854 C   0  0  0  0  0  0  0  0  0  0  0  0
  -29.6397  -18.7876   27.8840 C   0  0  0  0  0  0  0  0  0  0  0  0
  -21.1187   -4.3316   19.1204 C   0  0  0  0  0  0  0  0  0  0  0  0
  -23.8747  -10.4573   20.9954 C   0  0  0  0  0  0  0  0  0  0  0  0
  -24.1342  -12.9870   20.7935 C   0  0  0  0  0  0  0  0  0  0  0  0
  -33.6730  -25.8056   30.2239 C   0  0  0  0  0  0  0  0  0  0  0  0
  -31.8193  -19.8379   27.9602 C   0  0  0  0  0  0  0  0  0  0  0  0
  -32.6923  -24.8188   30.0074 C   0  0  0  0  0  0  0  0  0  0  0  0
  -30.5986  -19.6306   27.3021 C   0  0  0  0  0  0  0  0  0  0  0  0
  -31.7043  -12.2787   26.2218 C   0  0  0  0  0  0  0  0  0  0  0  0
  -31.4639  -12.5953   23.8387 C   0  0  0  0  0  0  0  0  0  0  0  0
  -30.9106  -12.5949   25.1192 C   0  0  0  0  0  0  0  0  0  0  0  0
  -22.4218   -8.1128   21.4143 C   0  0  0  0  0  0  0  0  0  0  0  0
  -29.8963  -18.1495   29.0973 C   0  0  0  0  0  0  0  0  0  0  0  0
  -21.9376   -5.9094   20.7565 C   0  0  0  0  0  0  0  0  0  0  0  0
  -22.3939   -3.7756   19.0184 C   0  0  0  0  0  0  0  0  0  0  0  0
  -20.8906   -5.3985   19.9895 C   0  0  0  0  0  0  0  0  0  0  0  0
  -24.6257  -11.6679   20.7796 C   0  0  0  0  0  0  0  0  0  0  0  0
  -25.2356  -13.7665   20.5372 C   0  0  0  0  0  0  0  0  0  0  0  0
  -22.8012  -13.4650   21.0181 C   0  0  0  0  0  0  0  0  0  0  0  0
  -31.6101  -22.8779   27.0553 C   0  0  0  0  0  0  0  0  0  0  0  0
  -31.3570  -21.5736   24.0961 C   0  0  0  0  0  0  0  0  0  0  0  0
  -30.4712  -13.8605   29.4012 C   0  0  0  0  0  0  0  0  0  0  0  0
  -30.5324  -18.8713   22.1818 C   0  0  0  0  0  0  0  0  0  0  0  0
  -31.0961  -12.9529   21.3723 C   0  0  0  0  0  0  0  0  0  0  0  0
  -33.9724  -26.8658   29.1939 C   0  0  0  0  0  0  0  0  0  0  0  0
  -32.8752  -20.7169   27.3479 C   0  0  0  0  0  0  0  0  0  0  0  0
  -30.2832  -20.2958   25.9881 C   0  0  0  0  0  0  0  0  0  0  0  0
  -33.4677  -26.5168   27.7961 C   0  0  0  0  0  0  0  0  0  0  0  0
  -29.4618  -13.6534   18.2876 C   0  0  0  0  0  0  0  0  0  0  0  0
  -32.0335  -26.0013   27.8595 C   0  0  0  0  0  0  0  0  0  0  0  0
  -27.9906  -13.3496   18.5796 C   0  0  0  0  0  0  0  0  0  0  0  0
  -30.3952  -12.6791   19.0040 C   0  0  0  0  0  0  0  0  0  0  0  0
  -28.7025  -12.2534   20.7426 C   0  0  0  0  0  0  0  0  0  0  0  0
  -31.9448  -24.7188   28.6954 C   0  0  1  0  0  0  0  0  0  0  0  0
  -32.3074  -21.7385   26.3674 C   0  0  1  0  0  0  0  0  0  0  0  0
  -27.7260  -13.2485   20.0947 C   0  0  2  0  0  0  0  0  0  0  0  0
  -30.3932  -18.1190   19.7918 C   0  0  0  0  0  0  0  0  0  0  0  0
  -28.7961  -23.1933   23.7379 C   0  0  0  0  0  0  0  0  0  0  0  0
  -28.2173  -21.7187   21.7991 C   0  0  0  0  0  0  0  0  0  0  0  0
  -30.2770  -23.1240   21.7237 C   0  0  0  0  0  0  0  0  0  0  0  0
  -27.8596  -15.2453   30.0221 C   0  0  0  0  0  0  0  0  0  0  0  0
  -28.7680  -15.8671   27.7741 C   0  0  0  0  0  0  0  0  0  0  0  0
  -32.5113  -16.7155   22.6238 C   0  0  0  0  0  0  0  0  0  0  0  0
  -31.1377  -12.2695   27.6121 C   0  0  0  0  0  0  0  0  0  0  0  0
  -30.3484  -15.3443   29.7053 C   0  0  0  0  0  0  0  0  0  0  0  0
  -30.2147  -21.0961   23.2323 C   0  0  1  0  0  0  0  0  0  0  0  0
  -31.2604  -18.1863   21.0394 C   0  0  2  0  0  0  0  0  0  0  0  0
  -29.3812  -22.2719   22.6490 C   0  0  0  0  0  0  0  0  0  0  0  0
  -28.9999  -15.9546   29.2835 C   0  0  0  0  0  0  0  0  0  1  0  0
  -25.9372  -11.6088   20.5338 N   0  0  0  0  0  0  0  0  0  0  0  0
  -26.2792  -12.9006   20.3907 N   0  0  0  0  0  0  0  0  0  0  0  0
  -31.3454  -21.1509   25.4329 N   0  0  0  0  0  0  0  0  0  0  0  0
  -30.0888  -12.6390   20.4356 N   0  0  0  0  0  0  0  0  0  0  0  0
  -29.5446  -12.9149   25.3040 N   0  0  0  0  0  0  0  0  0  0  0  0
  -25.4036  -15.1012   20.4250 N   0  0  0  0  0  0  0  0  0  0  0  0
  -21.7887  -12.5284   21.2670 N   0  0  0  0  0  0  0  0  0  0  0  0
  -30.6793  -12.9131   22.7024 N   0  0  0  0  0  0  0  0  0  0  0  0
  -32.4139  -23.5834   27.9303 N   0  0  0  0  0  0  0  0  0  0  0  0
  -30.9440  -13.6056   28.1257 N   0  0  0  0  0  0  0  0  0  0  0  0
  -30.8035  -20.2226   22.2231 N   0  0  0  0  0  0  0  0  0  0  0  0
  -31.6382  -16.7972   21.4247 N   0  3  0  0  0  0  0  0  0  0  0  0
  -22.5134  -14.6854   20.9823 O   0  0  0  0  0  0  0  0  0  0  0  0
  -30.4306  -23.1013   26.8093 O   0  0  0  0  0  0  0  0  0  0  0  0
  -32.2314  -22.2892   23.6011 O   0  0  0  0  0  0  0  0  0  0  0  0
  -30.1660  -13.0071   30.2319 O   0  0  0  0  0  0  0  0  0  0  0  0
  -29.7939  -18.2686   22.9577 O   0  0  0  0  0  0  0  0  0  0  0  0
  -32.2369  -13.2627   21.0192 O   0  0  0  0  0  0  0  0  0  0  0  0
  -21.7129   -6.9692   21.6191 O   0  0  0  0  0  0  0  0  0  0  0  0
  -28.9577  -17.3333   29.6493 O   0  0  0  0  0  0  0  0  0  1  0  0
  -22.6135   -2.7520   18.1828 F   0  0  0  0  0  0  0  0  0  0  0  0
  -19.6636   -5.9293   20.0824 F   0  0  0  0  0  0  0  0  0  0  0  0
  1  2  1  0  0  0  0
  1  6  2  0  0  0  0
  2  7  2  0  0  0  0
  3  9  2  0  0  0  0
  3 10  1  0  0  0  0
  4 11  2  0  0  0  0
  4 18  1  0  0  0  0
  5 12  1  0  0  0  0
  5 18  2  0  0  0  0
  6 20  1  0  0  0  0
  7 22  1  0  0  0  0
  8 13  2  0  0  0  0
  8 21  1  0  0  0  0
  9 24  1  0  0  0  0
 10 25  2  0  0  0  0
 11 27  1  0  0  0  0
 12 27  2  0  0  0  0
 13 28  1  0  0  0  0
 14 15  2  0  0  0  0
 14 29  1  0  0  0  0
 15 30  1  0  0  0  0
 16 23  1  0  0  0  0
 16 28  2  0  0  0  0
 17 30  2  0  0  0  0
 17 31  1  0  0  0  0
 18 32  1  0  0  0  0
 19 32  1  0  0  0  0
 19 33  2  0  0  0  0
 19 34  1  0  0  0  0
 20 22  2  0  0  0  0
 20 40  1  0  0  0  0
 21 23  2  0  0  0  0
 21 41  1  0  0  0  0
 22 49  1  0  0  0  0
 23 42  1  0  0  0  0
 24 26  2  0  0  0  0
 24 59  1  0  0  0  0
 25 26  1  0  0  0  0
 25 72  1  0  0  0  0
 26 69  1  0  0  0  0
 27 83  1  0  0  0  0
 28 84  1  0  0  0  0
 29 31  2  0  0  0  0
 29 83  1  0  0  0  0
 30 85  1  0  0  0  0
 31 86  1  0  0  0  0
 32 65  2  0  0  0  0
 33 66  1  0  0  0  0
 33 70  1  0  0  0  0
 34 71  1  0  0  0  0
 34 77  2  0  0  0  0
 35 50  1  0  0  0  0
 35 73  1  0  0  0  0
 35 78  2  0  0  0  0
 36 61  1  0  0  0  0
 36 67  1  0  0  0  0
 36 79  2  0  0  0  0
 37 60  1  0  0  0  0
 37 74  1  0  0  0  0
 37 80  2  0  0  0  0
 38 62  1  0  0  0  0
 38 75  1  0  0  0  0
 38 81  2  0  0  0  0
 39 68  1  0  0  0  0
 39 72  1  0  0  0  0
 39 82  2  0  0  0  0
 40 43  1  0  0  0  0
 41 50  1  0  0  0  0
 42 67  1  0  0  0  0
 43 45  1  0  0  0  0
 44 46  1  0  0  0  0
 44 47  1  0  0  0  0
 45 49  1  0  0  0  0
 46 51  1  0  0  0  0
 47 68  1  0  0  0  0
 48 51  1  0  0  0  0
 48 68  1  0  0  0  0
 49 73  1  0  0  0  0
 50 67  1  0  0  0  0
 51 66  1  0  0  0  0
 52 62  1  0  0  0  0
 53 63  1  0  0  0  0
 54 63  1  0  0  0  0
 55 63  1  0  0  0  0
 56 64  1  0  0  0  0
 57 64  1  0  0  0  0
 58 76  1  0  0  0  0
 59 74  1  0  0  0  0
 60 64  1  0  0  0  0
 61 63  1  0  0  0  0
 61 75  1  0  0  0  0
 62 76  1  0  0  0  0
 64 84  1  0  0  0  0
 65 66  1  0  0  0  0
M  CHG  1  76   1
M  ISO  4  39 100  64 101  72 100  84 101
M  END
> <Batch ID>
0164

> <Smiles>
CNC(C)C(=O)NC(C(=O)N1Cc2cc([101O:1][101C:1](C)(C)CC(=O)NCc3cccc([100NH:0][100C:0](=O)N4CCCC(n5nc(-c6ccc(Oc7ccc(F)cc7F)cc6)c(C(N)=O)c5N)C4)c3N)ccc2CC1C(=O)NC1CCCc2ccccc21)C(C)(C)C

> <Shape>
0.151

> <Color>
0.164

> <Negative vol penalty>
0.000

$$$$

  -OEChem-04052304023D

 88 96  0     1  0  0  0  0  0999 V2000
  -22.6630  -23.6175   19.9691 C   0  0  0  0  0  0  0  0  0  0  0  0
  -23.8307  -22.9009   20.2107 C   0  0  0  0  0  0  0  0  0  0  0  0
  -25.1572  -31.9620   26.2288 C   0  0  0  0  0  0  0  0  0  0  0  0
  -27.4203  -31.3060   25.6949 C   0  0  0  0  0  0  0  0  0  0  0  0
  -21.4316  -23.0944   20.3615 C   0  0  0  0  0  0  0  0  0  0  0  0
  -23.7677  -21.6611   20.8459 C   0  0  0  0  0  0  0  0  0  0  0  0
  -26.6813  -18.1789   18.6030 C   0  0  0  0  0  0  0  0  0  0  0  0
  -28.2989  -23.8438   18.5525 C   0  0  0  0  0  0  0  0  0  0  0  0
  -27.3341  -24.8239   18.7850 C   0  0  0  0  0  0  0  0  0  0  0  0
  -25.4606  -31.9019   27.5889 C   0  0  0  0  0  0  0  0  0  0  0  0
  -27.7238  -31.2459   27.0551 C   0  0  0  0  0  0  0  0  0  0  0  0
  -28.0505  -18.2330   18.8601 C   0  0  0  0  0  0  0  0  0  0  0  0
  -28.4628  -33.4152   29.5387 C   0  0  0  0  0  0  0  0  0  0  0  0
  -29.6613  -33.9911   29.9598 C   0  0  0  0  0  0  0  0  0  0  0  0
  -27.8113  -16.4570   20.4750 C   0  0  0  0  0  0  0  0  0  0  0  0
  -30.3956  -31.8483   30.8004 C   0  0  0  0  0  0  0  0  0  0  0  0
  -26.1370  -31.6640   25.2818 C   0  0  0  0  0  0  0  0  0  0  0  0
  -25.9469  -32.8405   23.0263 C   0  0  0  0  0  0  0  0  0  0  0  0
  -21.3526  -21.8433   20.9931 C   0  0  0  0  0  0  0  0  0  0  0  0
  -25.8636  -17.2694   19.2891 C   0  0  0  0  0  0  0  0  0  0  0  0
  -22.5342  -21.1214   21.2483 C   0  0  0  0  0  0  0  0  0  0  0  0
  -26.4324  -16.3916   20.2229 C   0  0  0  0  0  0  0  0  0  0  0  0
  -29.6483  -24.1304   18.7599 C   0  0  0  0  0  0  0  0  0  0  0  0
  -27.7185  -26.0906   19.2248 C   0  0  0  0  0  0  0  0  0  0  0  0
  -30.0327  -25.3971   19.1996 C   0  0  0  0  0  0  0  0  0  0  0  0
  -26.7439  -31.5439   28.0021 C   0  0  0  0  0  0  0  0  0  0  0  0
  -28.6152  -17.3740   19.7983 C   0  0  0  0  0  0  0  0  0  0  0  0
  -28.2305  -32.0558   29.7485 C   0  0  0  0  0  0  0  0  0  0  0  0
  -30.6278  -33.2076   30.5906 C   0  0  0  0  0  0  0  0  0  0  0  0
  -29.1970  -31.2724   30.3793 C   0  0  0  0  0  0  0  0  0  0  0  0
  -29.0678  -26.3772   19.4321 C   0  0  0  0  0  0  0  0  0  0  0  0
  -25.8240  -31.7254   23.8767 C   0  0  0  0  0  0  0  0  0  0  0  0
  -25.5266  -32.3854   21.8004 C   0  0  0  0  0  0  0  0  0  0  0  0
  -26.4004  -34.1689   23.3184 C   0  0  0  0  0  0  0  0  0  0  0  0
  -23.3936  -17.5279   21.2730 C   0  0  0  0  0  0  0  0  0  0  0  0
  -23.3239  -14.2976   20.9850 C   0  0  0  0  0  0  0  0  0  0  0  0
  -30.2125  -21.2120   20.1104 C   0  0  0  0  0  0  0  0  0  0  0  0
  -25.0080  -11.4151   20.2766 C   0  0  0  0  0  0  0  0  0  0  0  0
  -25.3558  -26.9617   19.2987 C   0  0  0  0  0  0  0  0  0  0  0  0
  -20.0033  -21.3403   21.4415 C   0  0  0  0  0  0  0  0  0  0  0  0
  -24.3928  -17.2052   18.9809 C   0  0  0  0  0  0  0  0  0  0  0  0
  -25.6015  -15.3829   20.9716 C   0  0  0  0  0  0  0  0  0  0  0  0
  -19.9879  -19.8502   21.7724 C   0  0  0  0  0  0  0  0  0  0  0  0
  -22.6020  -29.1611   19.8043 C   0  0  0  0  0  0  0  0  0  0  0  0
  -21.1854  -19.4844   22.6435 C   0  0  0  0  0  0  0  0  0  0  0  0
  -23.1289  -30.1734   20.8240 C   0  0  0  0  0  0  0  0  0  0  0  0
  -23.1325  -27.7544   20.0754 C   0  0  0  0  0  0  0  0  0  0  0  0
  -25.1198  -28.6655   21.2110 C   0  0  0  0  0  0  0  0  0  0  0  0
  -22.5046  -19.7620   21.9126 C   0  0  1  0  0  0  0  0  0  0  0  0
  -23.5717  -16.5920   20.1110 C   0  0  1  0  0  0  0  0  0  0  0  0
  -24.6644  -30.1088   20.9404 C   0  0  2  0  0  0  0  0  0  0  0  0
  -31.1939  -23.0684   17.0642 C   0  0  0  0  0  0  0  0  0  0  0  0
  -24.6948   -8.9278   20.1627 C   0  0  0  0  0  0  0  0  0  0  0  0
  -23.4136  -14.1493   24.0313 C   0  0  0  0  0  0  0  0  0  0  0  0
  -24.0515  -11.7370   23.8256 C   0  0  0  0  0  0  0  0  0  0  0  0
  -21.8502  -12.5220   22.9532 C   0  0  0  0  0  0  0  0  0  0  0  0
  -31.7685  -18.7384   20.8747 C   0  0  0  0  0  0  0  0  0  0  0  0
  -31.1233  -18.7606   18.4564 C   0  0  0  0  0  0  0  0  0  0  0  0
  -25.6669  -11.3475   17.3921 C   0  0  0  0  0  0  0  0  0  0  0  0
  -29.6045  -19.8227   20.2072 C   0  0  0  0  0  0  0  0  0  0  0  0
  -30.6735  -23.0478   18.5000 C   0  0  2  0  0  0  0  0  0  0  0  0
  -23.9665  -13.1448   21.7180 C   0  0  1  0  0  0  0  0  0  0  0  0
  -24.6567  -10.2357   19.3877 C   0  0  2  0  0  0  0  0  0  0  0  0
  -23.3361  -12.9085   23.1195 C   0  0  0  0  0  0  0  0  0  0  0  0
  -30.5951  -18.6883   19.8900 C   0  0  0  0  0  0  0  0  0  1  0  0
  -25.3618  -30.6434   23.2446 N   0  0  0  0  0  0  0  0  0  0  0  0
  -25.1904  -31.0765   21.9840 N   0  0  0  0  0  0  0  0  0  0  0  0
  -24.1673  -15.3632   20.6399 N   0  0  0  0  0  0  0  0  0  0  0  0
  -24.5940  -27.7701   20.1687 N   0  0  0  0  0  0  0  0  0  0  0  0
  -31.3951  -25.7020   19.4134 N   0  0  0  0  0  0  0  0  0  0  0  0
  -25.4156  -32.9813   20.5942 N   0  0  0  0  0  0  0  0  0  0  0  0
  -26.7954  -34.4669   24.6297 N   0  0  0  0  0  0  0  0  0  0  0  0
  -26.7357  -27.0843   19.4581 N   0  0  0  0  0  0  0  0  0  0  0  0
  -22.7758  -18.7198   20.9458 N   0  0  0  0  0  0  0  0  0  0  0  0
  -30.1533  -21.7422   18.8334 N   0  0  0  0  0  0  0  0  0  0  0  0
  -23.8831  -11.9952   20.8237 N   0  0  0  0  0  0  0  0  0  0  0  0
  -25.6180  -10.1378   18.2531 N   0  3  0  0  0  0  0  0  0  0  0  0
  -26.4383  -35.0696   22.4461 O   0  0  0  0  0  0  0  0  0  0  0  0
  -23.7862  -17.1927   22.3844 O   0  0  0  0  0  0  0  0  0  0  0  0
  -22.1197  -14.2510   20.7219 O   0  0  0  0  0  0  0  0  0  0  0  0
  -30.7007  -21.7693   21.0915 O   0  0  0  0  0  0  0  0  0  0  0  0
  -26.1648  -11.7825   20.4696 O   0  0  0  0  0  0  0  0  0  0  0  0
  -24.8239  -26.2359   18.4547 O   0  0  0  0  0  0  0  0  0  0  0  0
  -27.0404  -31.4854   29.3292 O   0  0  0  0  0  0  0  0  0  0  0  0
  -29.9513  -17.4251   20.0516 O   0  0  0  0  0  0  0  0  0  1  0  0
  -31.7794  -33.7605   30.9936 F   0  0  0  0  0  0  0  0  0  0  0  0
  -28.9801  -29.9657   30.5825 F   0  0  0  0  0  0  0  0  0  0  0  0
  -29.4364  -27.5964   19.8548 F   0  0  0  0  0  0  0  0  0  0  0  0
  1  2  1  0  0  0  0
  1  5  2  0  0  0  0
  2  6  2  0  0  0  0
  3 10  2  0  0  0  0
  3 17  1  0  0  0  0
  4 11  1  0  0  0  0
  4 17  2  0  0  0  0
  5 19  1  0  0  0  0
  6 21  1  0  0  0  0
  7 12  2  0  0  0  0
  7 20  1  0  0  0  0
  8  9  2  0  0  0  0
  8 23  1  0  0  0  0
  9 24  1  0  0  0  0
 10 26  1  0  0  0  0
 11 26  2  0  0  0  0
 12 27  1  0  0  0  0
 13 14  2  0  0  0  0
 13 28  1  0  0  0  0
 14 29  1  0  0  0  0
 15 22  1  0  0  0  0
 15 27  2  0  0  0  0
 16 29  2  0  0  0  0
 16 30  1  0  0  0  0
 17 32  1  0  0  0  0
 18 32  1  0  0  0  0
 18 33  2  0  0  0  0
 18 34  1  0  0  0  0
 19 21  2  0  0  0  0
 19 40  1  0  0  0  0
 20 22  2  0  0  0  0
 20 41  1  0  0  0  0
 21 49  1  0  0  0  0
 22 42  1  0  0  0  0
 23 25  2  0  0  0  0
 23 61  1  0  0  0  0
 24 31  2  0  0  0  0
 24 73  1  0  0  0  0
 25 31  1  0  0  0  0
 25 70  1  0  0  0  0
 26 84  1  0  0  0  0
 27 85  1  0  0  0  0
 28 30  2  0  0  0  0
 28 84  1  0  0  0  0
 29 86  1  0  0  0  0
 30 87  1  0  0  0  0
 31 88  1  0  0  0  0
 32 66  2  0  0  0  0
 33 67  1  0  0  0  0
 33 71  1  0  0  0  0
 34 72  1  0  0  0  0
 34 78  2  0  0  0  0
 35 50  1  0  0  0  0
 35 74  1  0  0  0  0
 35 79  2  0  0  0  0
 36 62  1  0  0  0  0
 36 68  1  0  0  0  0
 36 80  2  0  0  0  0
 37 60  1  0  0  0  0
 37 75  1  0  0  0  0
 37 81  2  0  0  0  0
 38 63  1  0  0  0  0
 38 76  1  0  0  0  0
 38 82  2  0  0  0  0
 39 69  1  0  0  0  0
 39 73  1  0  0  0  0
 39 83  2  0  0  0  0
 40 43  1  0  0  0  0
 41 50  1  0  0  0  0
 42 68  1  0  0  0  0
 43 45  1  0  0  0  0
 44 46  1  0  0  0  0
 44 47  1  0  0  0  0
 45 49  1  0  0  0  0
 46 51  1  0  0  0  0
 47 69  1  0  0  0  0
 48 51  1  0  0  0  0
 48 69  1  0  0  0  0
 49 74  1  0  0  0  0
 50 68  1  0  0  0  0
 51 67  1  0  0  0  0
 52 61  1  0  0  0  0
 53 63  1  0  0  0  0
 54 64  1  0  0  0  0
 55 64  1  0  0  0  0
 56 64  1  0  0  0  0
 57 65  1  0  0  0  0
 58 65  1  0  0  0  0
 59 77  1  0  0  0  0
 60 65  1  0  0  0  0
 61 75  1  0  0  0  0
 62 64  1  0  0  0  0
 62 76  1  0  0  0  0
 63 77  1  0  0  0  0
 65 85  1  0  0  0  0
 66 67  1  0  0  0  0
M  CHG  1  77   1
M  ISO  4  39 100  65 101  73 100  85 101
M  END
> <Batch ID>
0164

> <Smiles>
CNC(C)C(=O)NC(C(=O)N1Cc2cc([101O:1][101C:1](C)(C)CC(=O)NC(C)c3ccc([100NH:0][100C:0](=O)N4CCCC(n5nc(-c6ccc(Oc7ccc(F)cc7F)cc6)c(C(N)=O)c5N)C4)c(F)c3N)ccc2CC1C(=O)NC1CCCc2ccccc21)C(C)(C)C

> <Shape>
0.258

> <Color>
0.079

> <Negative vol penalty>
0.000

$$$$

  -OEChem-04052304023D

 90 98  0     1  0  0  0  0  0999 V2000
  -32.6349  -31.5405   18.8775 C   0  0  0  0  0  0  0  0  0  0  0  0
  -33.2735  -30.7172   19.7993 C   0  0  0  0  0  0  0  0  0  0  0  0
  -23.2038   -9.7867   19.9627 C   0  0  0  0  0  0  0  0  0  0  0  0
  -23.9351   -9.8732   22.2637 C   0  0  0  0  0  0  0  0  0  0  0  0
  -31.3110  -31.2891   18.5198 C   0  0  0  0  0  0  0  0  0  0  0  0
  -32.5881  -29.6425   20.3648 C   0  0  0  0  0  0  0  0  0  0  0  0
  -34.9233  -24.2037   21.9372 C   0  0  0  0  0  0  0  0  0  0  0  0
  -22.5404   -8.5867   20.2186 C   0  0  0  0  0  0  0  0  0  0  0  0
  -23.2716   -8.6732   22.5197 C   0  0  0  0  0  0  0  0  0  0  0  0
  -35.3491  -23.6834   23.1586 C   0  0  0  0  0  0  0  0  0  0  0  0
  -19.6393   -7.6001   21.6481 C   0  0  0  0  0  0  0  0  0  0  0  0
  -18.3446   -7.4561   21.1496 C   0  0  0  0  0  0  0  0  0  0  0  0
  -33.1944  -22.6412   23.4589 C   0  0  0  0  0  0  0  0  0  0  0  0
  -30.4495  -15.9288   24.2185 C   0  0  0  0  0  0  0  0  0  0  0  0
  -32.3456  -15.9915   22.7225 C   0  0  0  0  0  0  0  0  0  0  0  0
  -19.0551   -5.5427   19.8569 C   0  0  0  0  0  0  0  0  0  0  0  0
  -23.9012  -10.4299   20.9852 C   0  0  0  0  0  0  0  0  0  0  0  0
  -24.0653  -12.9714   20.8384 C   0  0  0  0  0  0  0  0  0  0  0  0
  -30.6121  -30.2050   19.0739 C   0  0  0  0  0  0  0  0  0  0  0  0
  -33.6240  -23.9552   21.4718 C   0  0  0  0  0  0  0  0  0  0  0  0
  -31.2532  -29.3771   20.0152 C   0  0  0  0  0  0  0  0  0  0  0  0
  -32.7554  -23.1573   22.2301 C   0  0  0  0  0  0  0  0  0  0  0  0
  -31.1174  -16.7781   25.1007 C   0  0  0  0  0  0  0  0  0  0  0  0
  -31.0636  -15.5354   23.0295 C   0  0  0  0  0  0  0  0  0  0  0  0
  -32.3993  -17.2342   24.7937 C   0  0  0  0  0  0  0  0  0  0  0  0
  -22.5742   -8.0300   21.4971 C   0  0  0  0  0  0  0  0  0  0  0  0
  -34.4837  -22.9044   23.9210 C   0  0  0  0  0  0  0  0  0  0  0  0
  -20.6420   -6.7154   21.2509 C   0  0  0  0  0  0  0  0  0  0  0  0
  -18.0525   -6.4274   20.2541 C   0  0  0  0  0  0  0  0  0  0  0  0
  -33.0134  -16.8409   23.6047 C   0  0  0  0  0  0  0  0  0  0  0  0
  -20.3499   -5.6867   20.3554 C   0  0  0  0  0  0  0  0  0  0  0  0
  -24.5872  -11.6692   20.7213 C   0  0  0  0  0  0  0  0  0  0  0  0
  -25.1059  -13.7921   20.4777 C   0  0  0  0  0  0  0  0  0  0  0  0
  -22.7569  -13.4008   21.2376 C   0  0  0  0  0  0  0  0  0  0  0  0
  -34.8554  -19.0610   26.9152 C   0  0  0  0  0  0  0  0  0  0  0  0
  -35.2986  -20.4007   26.3855 C   0  0  0  0  0  0  0  0  0  0  0  0
  -31.1041  -25.7656   20.7814 C   0  0  0  0  0  0  0  0  0  0  0  0
  -29.8625  -22.9570   19.7362 C   0  0  0  0  0  0  0  0  0  0  0  0
  -29.8751  -19.5477   19.8907 C   0  0  0  0  0  0  0  0  0  0  0  0
  -30.8518  -14.1874   20.9119 C   0  0  0  0  0  0  0  0  0  0  0  0
  -29.1674  -30.0012   18.6920 C   0  0  0  0  0  0  0  0  0  0  0  0
  -33.1889  -24.5015   20.1396 C   0  0  0  0  0  0  0  0  0  0  0  0
  -31.3573  -22.8443   21.7655 C   0  0  0  0  0  0  0  0  0  0  0  0
  -28.6305  -28.6191   19.0551 C   0  0  0  0  0  0  0  0  0  0  0  0
  -29.2737  -13.1971   17.8777 C   0  0  0  0  0  0  0  0  0  0  0  0
  -29.0263  -28.2505   20.4814 C   0  0  0  0  0  0  0  0  0  0  0  0
  -27.8529  -12.8292   18.3114 C   0  0  0  0  0  0  0  0  0  0  0  0
  -30.3089  -12.7948   18.9267 C   0  0  0  0  0  0  0  0  0  0  0  0
  -28.6215  -12.9211   20.7172 C   0  0  0  0  0  0  0  0  0  0  0  0
  -30.5511  -28.1868   20.6318 C   0  0  1  0  0  0  0  0  0  0  0  0
  -31.6733  -24.6117   20.0052 C   0  0  1  0  0  0  0  0  0  0  0  0
  -27.5374  -13.3653   19.7216 C   0  0  2  0  0  0  0  0  0  0  0  0
  -28.7207  -17.5288   18.9479 C   0  0  0  0  0  0  0  0  0  0  0  0
  -29.6223  -14.8997   27.0483 C   0  0  0  0  0  0  0  0  0  0  0  0
  -31.8532  -15.6596   27.8660 C   0  0  0  0  0  0  0  0  0  0  0  0
  -29.7580  -16.6817   28.7889 C   0  0  0  0  0  0  0  0  0  0  0  0
  -27.4589  -23.4931   21.5375 C   0  0  0  0  0  0  0  0  0  0  0  0
  -26.8280  -21.0824   21.2956 C   0  0  0  0  0  0  0  0  0  0  0  0
  -26.8892  -22.5613   19.2877 C   0  0  0  0  0  0  0  0  0  0  0  0
  -32.3858  -18.5213   18.7068 C   0  0  0  0  0  0  0  0  0  0  0  0
  -30.4361  -17.1831   26.3674 C   0  0  0  0  0  0  0  0  0  0  0  0
  -34.4840  -17.9761   25.9466 C   0  0  0  0  0  0  0  0  0  0  0  0
  -34.3198  -21.1576   25.5265 C   0  0  0  0  0  0  0  0  0  1  0  0
  -29.0609  -21.8427   20.3645 C   0  0  1  0  0  0  0  0  0  0  0  0
  -29.8901  -18.4901   18.8018 C   0  0  2  0  0  0  0  0  0  0  0  0
  -30.4291  -16.1279   27.5201 C   0  0  0  0  0  0  0  0  0  0  0  0
  -27.5849  -22.2522   20.6313 C   0  0  0  0  0  0  0  0  0  0  0  0
  -25.8604  -11.6583   20.3176 N   0  0  0  0  0  0  0  0  0  0  0  0
  -34.8115  -18.9143   28.1975 N   0  0  0  0  0  0  0  0  0  0  0  0
  -26.1472  -12.9638   20.1778 N   0  0  0  0  0  0  0  0  0  0  0  0
  -30.9765  -23.4065   20.4593 N   0  0  0  0  0  0  0  0  0  0  0  0
  -29.9468  -13.3418   20.2361 N   0  0  0  0  0  0  0  0  0  0  0  0
  -25.2227  -15.1342   20.3908 N   0  0  0  0  0  0  0  0  0  0  0  0
  -21.8079  -12.4262   21.5751 N   0  0  0  0  0  0  0  0  0  0  0  0
  -30.3853  -14.6728   22.1331 N   0  0  0  0  0  0  0  0  0  0  0  0
  -33.0765  -18.0796   25.6614 N   0  0  0  0  0  0  0  0  0  0  0  0
  -31.0627  -26.9527   20.0754 N   0  0  0  0  0  0  0  0  0  0  0  0
  -29.2111  -20.6868   19.4872 N   0  0  0  0  0  0  0  0  0  0  0  0
  -31.1548  -17.7040   18.8606 N   0  3  0  0  0  0  0  0  0  0  0  0
  -22.4338  -14.6122   21.2776 O   0  0  0  0  0  0  0  0  0  0  0  0
  -36.4274  -20.7779   26.6657 O   0  0  0  0  0  0  0  0  0  0  0  0
  -30.7289  -25.5913   21.9349 O   0  0  0  0  0  0  0  0  0  0  0  0
  -29.5174  -23.4068   18.6406 O   0  0  0  0  0  0  0  0  0  0  0  0
  -30.3967  -19.3788   20.9906 O   0  0  0  0  0  0  0  0  0  0  0  0
  -31.9482  -14.4826   20.4292 O   0  0  0  0  0  0  0  0  0  0  0  0
  -21.9268   -6.8592   21.7473 O   0  0  0  0  0  0  0  0  0  0  0  0
  -34.8965  -22.3959   25.1138 O   0  0  0  0  0  0  0  0  0  1  0  0
  -16.8087   -6.2883   19.7767 F   0  0  0  0  0  0  0  0  0  0  0  0
  -34.2451  -17.2732   23.2986 F   0  0  0  0  0  0  0  0  0  0  0  0
  -21.3087   -4.8330   19.9710 F   0  0  0  0  0  0  0  0  0  0  0  0
  1  2  1  0  0  0  0
  1  5  2  0  0  0  0
  2  6  2  0  0  0  0
  3  8  2  0  0  0  0
  3 17  1  0  0  0  0
  4  9  1  0  0  0  0
  4 17  2  0  0  0  0
  5 19  1  0  0  0  0
  6 21  1  0  0  0  0
  7 10  2  0  0  0  0
  7 20  1  0  0  0  0
  8 26  1  0  0  0  0
  9 26  2  0  0  0  0
 10 27  1  0  0  0  0
 11 12  2  0  0  0  0
 11 28  1  0  0  0  0
 12 29  1  0  0  0  0
 13 22  1  0  0  0  0
 13 27  2  0  0  0  0
 14 23  1  0  0  0  0
 14 24  2  0  0  0  0
 15 24  1  0  0  0  0
 15 30  2  0  0  0  0
 16 29  2  0  0  0  0
 16 31  1  0  0  0  0
 17 32  1  0  0  0  0
 18 32  1  0  0  0  0
 18 33  2  0  0  0  0
 18 34  1  0  0  0  0
 19 21  2  0  0  0  0
 19 41  1  0  0  0  0
 20 22  2  0  0  0  0
 20 42  1  0  0  0  0
 21 50  1  0  0  0  0
 22 43  1  0  0  0  0
 23 25  2  0  0  0  0
 23 61  1  0  0  0  0
 24 75  1  0  0  0  0
 25 30  1  0  0  0  0
 25 76  1  0  0  0  0
 26 86  1  0  0  0  0
 27 87  1  0  0  0  0
 28 31  2  0  0  0  0
 28 86  1  0  0  0  0
 29 88  1  0  0  0  0
 30 89  1  0  0  0  0
 31 90  1  0  0  0  0
 32 68  2  0  0  0  0
 33 70  1  0  0  0  0
 33 73  1  0  0  0  0
 34 74  1  0  0  0  0
 34 80  2  0  0  0  0
 35 36  1  0  0  0  0
 35 62  1  0  0  0  0
 35 69  2  0  0  0  0
 36 63  1  0  0  0  0
 36 81  2  0  0  0  0
 37 51  1  0  0  0  0
 37 77  1  0  0  0  0
 37 82  2  0  0  0  0
 38 64  1  0  0  0  0
 38 71  1  0  0  0  0
 38 83  2  0  0  0  0
 39 65  1  0  0  0  0
 39 78  1  0  0  0  0
 39 84  2  0  0  0  0
 40 72  1  0  0  0  0
 40 75  1  0  0  0  0
 40 85  2  0  0  0  0
 41 44  1  0  0  0  0
 42 51  1  0  0  0  0
 43 71  1  0  0  0  0
 44 46  1  0  0  0  0
 45 47  1  0  0  0  0
 45 48  1  0  0  0  0
 46 50  1  0  0  0  0
 47 52  1  0  0  0  0
 48 72  1  0  0  0  0
 49 52  1  0  0  0  0
 49 72  1  0  0  0  0
 50 77  1  0  0  0  0
 51 71  1  0  0  0  0
 52 70  1  0  0  0  0
 53 65  1  0  0  0  0
 54 66  1  0  0  0  0
 55 66  1  0  0  0  0
 56 66  1  0  0  0  0
 57 67  1  0  0  0  0
 58 67  1  0  0  0  0
 59 67  1  0  0  0  0
 60 79  1  0  0  0  0
 61 66  1  0  0  0  0
 62 76  1  0  0  0  0
 63 87  1  0  0  0  0
 64 67  1  0  0  0  0
 64 78  1  0  0  0  0
 65 79  1  0  0  0  0
 68 70  1  0  0  0  0
M  CHG  1  79   1
M  ISO  4  40 100  63 101  75 100  87 101
M  END
> <Batch ID>
0164

> <Smiles>
CNC(C)C(=O)NC(C(=O)N1Cc2cc([101O:1][101CH2:1]C(=O)C(=N)CNc3c(F)cc([100NH:0][100C:0](=O)N4CCCC(n5nc(-c6ccc(Oc7ccc(F)cc7F)cc6)c(C(N)=O)c5N)C4)cc3CC(C)(C)C)ccc2CC1C(=O)NC1CCCc2ccccc21)C(C)(C)C

> <Shape>
0.231

> <Color>
0.188

> <Negative vol penalty>
0.000

$$$$

  -OEChem-04052304023D

 88 96  0     1  0  0  0  0  0999 V2000
  -16.6511  -29.0461   23.9193 C   0  0  0  0  0  0  0  0  0  0  0  0
  -17.8509  -28.6776   23.3191 C   0  0  0  0  0  0  0  0  0  0  0  0
  -23.1702   -9.7684   21.4577 C   0  0  0  0  0  0  0  0  0  0  0  0
  -23.8595  -10.7306   23.5640 C   0  0  0  0  0  0  0  0  0  0  0  0
  -16.3861  -30.3903   24.1773 C   0  0  0  0  0  0  0  0  0  0  0  0
  -18.7859  -29.6534   22.9756 C   0  0  0  0  0  0  0  0  0  0  0  0
  -23.5066  -28.3655   24.2799 C   0  0  0  0  0  0  0  0  0  0  0  0
  -22.4581   -8.7827   22.1411 C   0  0  0  0  0  0  0  0  0  0  0  0
  -23.1473   -9.7449   24.2473 C   0  0  0  0  0  0  0  0  0  0  0  0
  -24.1677  -27.4532   23.4586 C   0  0  0  0  0  0  0  0  0  0  0  0
  -23.1320   -5.8900   23.7542 C   0  0  0  0  0  0  0  0  0  0  0  0
  -23.2618   -4.5736   23.3118 C   0  0  0  0  0  0  0  0  0  0  0  0
  -31.5714  -17.8801   20.0982 C   0  0  0  0  0  0  0  0  0  0  0  0
  -25.3507  -29.2708   22.4022 C   0  0  0  0  0  0  0  0  0  0  0  0
  -20.8848   -4.4814   22.8891 C   0  0  0  0  0  0  0  0  0  0  0  0
  -23.8710  -10.7423   22.1692 C   0  0  0  0  0  0  0  0  0  0  0  0
  -31.5972  -19.3015   20.1950 C   0  0  0  0  0  0  0  0  0  0  0  0
  -24.1316  -13.0176   21.0455 C   0  0  0  0  0  0  0  0  0  0  0  0
  -17.3224  -31.3822   23.8456 C   0  0  0  0  0  0  0  0  0  0  0  0
  -23.7550  -29.7404   24.1609 C   0  0  0  0  0  0  0  0  0  0  0  0
  -18.5325  -31.0124   23.2282 C   0  0  0  0  0  0  0  0  0  0  0  0
  -24.6934  -30.1982   23.2249 C   0  0  0  0  0  0  0  0  0  0  0  0
  -22.4466   -8.7710   23.5358 C   0  0  0  0  0  0  0  0  0  0  0  0
  -25.0877  -27.9060   22.5176 C   0  0  0  0  0  0  0  0  0  0  0  0
  -21.8787   -6.5022   23.7642 C   0  0  0  0  0  0  0  0  0  0  0  0
  -22.1382   -3.8693   22.8793 C   0  0  0  0  0  0  0  0  0  0  0  0
  -20.7551   -5.7979   23.3316 C   0  0  0  0  0  0  0  0  0  0  0  0
  -24.6072  -11.7604   21.4639 C   0  0  0  0  0  0  0  0  0  0  0  0
  -25.2086  -13.6035   20.4263 C   0  0  0  0  0  0  0  0  0  0  0  0
  -30.3751  -17.3535   20.5330 C   0  0  0  0  0  0  0  0  0  0  0  0
  -30.4194  -19.8071   20.6999 C   0  0  0  0  0  0  0  0  0  0  0  0
  -32.7136  -20.1285   19.8115 C   0  0  0  0  0  0  0  0  0  0  0  0
  -22.8325  -13.6035   21.2025 C   0  0  0  0  0  0  0  0  0  0  0  0
  -21.9987  -32.2801   23.4063 C   0  0  0  0  0  0  0  0  0  0  0  0
  -28.8440  -23.1023   21.5684 C   0  0  0  0  0  0  0  0  0  0  0  0
  -27.2256  -25.1089   21.6491 C   0  0  0  0  0  0  0  0  0  0  0  0
  -24.6965  -33.8961   24.2016 C   0  0  0  0  0  0  0  0  0  0  0  0
  -28.0893  -33.8670   24.5689 C   0  0  0  0  0  0  0  0  0  0  0  0
  -30.6290  -14.8640   20.2425 C   0  0  0  0  0  0  0  0  0  0  0  0
  -16.9711  -32.8266   24.1008 C   0  0  0  0  0  0  0  0  0  0  0  0
  -23.0534  -30.7094   25.0726 C   0  0  0  0  0  0  0  0  0  0  0  0
  -25.0108  -31.6625   23.0714 C   0  0  0  0  0  0  0  0  0  0  0  0
  -18.1742  -33.7646   24.0475 C   0  0  0  0  0  0  0  0  0  0  0  0
  -29.6682  -11.6558   19.0335 C   0  0  0  0  0  0  0  0  0  0  0  0
  -19.0281  -33.4685   22.8187 C   0  0  0  0  0  0  0  0  0  0  0  0
  -28.2268  -11.5005   19.5236 C   0  0  0  0  0  0  0  0  0  0  0  0
  -30.5383  -12.3879   20.0537 C   0  0  0  0  0  0  0  0  0  0  0  0
  -28.5672  -13.5247   20.9980 C   0  0  0  0  0  0  0  0  0  0  0  0
  -19.5824  -32.0394   22.8635 C   0  0  1  0  0  0  0  0  0  0  0  0
  -23.0037  -32.1277   24.5128 C   0  0  1  0  0  0  0  0  0  0  0  0
  -27.6369  -12.8505   19.9764 C   0  0  2  0  0  0  0  0  0  0  0  0
  -30.0156  -35.3480   25.1959 C   0  0  0  0  0  0  0  0  0  0  0  0
  -24.5379  -35.2533   21.4734 C   0  0  0  0  0  0  0  0  0  0  0  0
  -26.9215  -35.9616   21.7649 C   0  0  0  0  0  0  0  0  0  0  0  0
  -25.1787  -36.7687   23.3568 C   0  0  0  0  0  0  0  0  0  0  0  0
  -28.8123  -32.1491   26.8678 C   0  0  0  0  0  0  0  0  0  0  0  0
  -34.0114  -19.5288   19.2482 C   0  0  0  0  0  0  0  0  0  0  0  0
  -27.5709  -23.7117   22.1242 C   0  0  0  0  0  0  0  0  0  0  0  0
  -28.8477  -21.5909   21.4571 C   0  0  0  0  0  0  0  0  0  0  0  0
  -25.9690  -25.7141   22.2446 C   0  0  0  0  0  0  0  0  0  1  0  0
  -25.9264  -34.3556   23.4565 C   0  0  1  0  0  0  0  0  0  0  0  0
  -28.9846  -34.3483   25.6964 C   0  0  2  0  0  0  0  0  0  0  0  0
  -25.6339  -35.5573   22.5142 C   0  0  0  0  0  0  0  0  0  0  0  0
  -25.8867  -11.5586   21.1379 N   0  0  0  0  0  0  0  0  0  0  0  0
  -32.6798  -21.4446   19.9187 N   0  0  0  0  0  0  0  0  0  0  0  0
  -26.2242  -12.6968   20.5081 N   0  0  0  0  0  0  0  0  0  0  0  0
  -24.2942  -32.5712   23.9815 N   0  0  0  0  0  0  0  0  0  0  0  0
  -29.9188  -13.6597   20.4326 N   0  0  0  0  0  0  0  0  0  0  0  0
  -25.3765  -14.8006   19.8253 N   0  0  0  0  0  0  0  0  0  0  0  0
  -21.8418  -12.8645   21.8634 N   0  0  0  0  0  0  0  0  0  0  0  0
  -29.9265  -16.0116   20.6088 N   0  0  0  0  0  0  0  0  0  0  0  0
  -30.1078  -21.1404   20.9237 N   0  0  0  0  0  0  0  0  0  0  0  0
  -20.7052  -31.9611   23.7733 N   0  0  0  0  0  0  0  0  0  0  0  0
  -26.9411  -34.6240   24.4698 N   0  0  0  0  0  0  0  0  0  0  0  0
  -33.9454  -19.4536   17.7685 N   0  3  0  0  0  0  0  0  0  0  0  0
  -29.7052  -33.1985   26.3125 N   0  3  0  0  0  0  0  0  0  0  0  0
  -22.5535  -14.7417   20.7551 O   0  0  0  0  0  0  0  0  0  0  0  0
  -22.3691  -32.6603   22.3018 O   0  0  0  0  0  0  0  0  0  0  0  0
  -29.8214  -23.7857   21.2669 O   0  0  0  0  0  0  0  0  0  0  0  0
  -27.8932  -25.7076   20.8074 O   0  0  0  0  0  0  0  0  0  0  0  0
  -24.1183  -34.6816   24.9568 O   0  0  0  0  0  0  0  0  0  0  0  0
  -28.3812  -32.9169   23.8459 O   0  0  0  0  0  0  0  0  0  0  0  0
  -31.7655  -14.8784   19.7627 O   0  0  0  0  0  0  0  0  0  0  0  0
  -21.7517   -7.8095   24.2029 O   0  0  0  0  0  0  0  0  0  0  0  0
  -25.7339  -27.0178   21.7143 O   0  0  0  0  0  0  0  0  0  1  0  0
  -22.2631   -2.6056   22.4530 F   0  0  0  0  0  0  0  0  0  0  0  0
  -19.5485   -6.3810   23.3377 F   0  0  0  0  0  0  0  0  0  0  0  0
  -29.2894  -18.5704   21.0551 S   0  0  0  0  0  0  0  0  0  0  0  0
  1  2  1  0  0  0  0
  1  5  2  0  0  0  0
  2  6  2  0  0  0  0
  3  8  2  0  0  0  0
  3 16  1  0  0  0  0
  4  9  1  0  0  0  0
  4 16  2  0  0  0  0
  5 19  1  0  0  0  0
  6 21  1  0  0  0  0
  7 10  2  0  0  0  0
  7 20  1  0  0  0  0
  8 23  1  0  0  0  0
  9 23  2  0  0  0  0
 10 24  1  0  0  0  0
 11 12  2  0  0  0  0
 11 25  1  0  0  0  0
 12 26  1  0  0  0  0
 13 17  1  0  0  0  0
 13 30  2  0  0  0  0
 14 22  1  0  0  0  0
 14 24  2  0  0  0  0
 15 26  2  0  0  0  0
 15 27  1  0  0  0  0
 16 28  1  0  0  0  0
 17 31  2  0  0  0  0
 17 32  1  0  0  0  0
 18 28  1  0  0  0  0
 18 29  2  0  0  0  0
 18 33  1  0  0  0  0
 19 21  2  0  0  0  0
 19 40  1  0  0  0  0
 20 22  2  0  0  0  0
 20 41  1  0  0  0  0
 21 49  1  0  0  0  0
 22 42  1  0  0  0  0
 23 84  1  0  0  0  0
 24 85  1  0  0  0  0
 25 27  2  0  0  0  0
 25 84  1  0  0  0  0
 26 86  1  0  0  0  0
 27 87  1  0  0  0  0
 28 64  2  0  0  0  0
 29 66  1  0  0  0  0
 29 69  1  0  0  0  0
 30 71  1  0  0  0  0
 30 88  1  0  0  0  0
 31 72  1  0  0  0  0
 31 88  1  0  0  0  0
 32 57  1  0  0  0  0
 32 65  2  0  0  0  0
 33 70  1  0  0  0  0
 33 77  2  0  0  0  0
 34 50  1  0  0  0  0
 34 73  1  0  0  0  0
 34 78  2  0  0  0  0
 35 58  1  0  0  0  0
 35 59  1  0  0  0  0
 35 79  2  0  0  0  0
 36 58  1  0  0  0  0
 36 60  1  0  0  0  0
 36 80  2  0  0  0  0
 37 61  1  0  0  0  0
 37 67  1  0  0  0  0
 37 81  2  0  0  0  0
 38 62  1  0  0  0  0
 38 74  1  0  0  0  0
 38 82  2  0  0  0  0
 39 68  1  0  0  0  0
 39 71  1  0  0  0  0
 39 83  2  0  0  0  0
 40 43  1  0  0  0  0
 41 50  1  0  0  0  0
 42 67  1  0  0  0  0
 43 45  1  0  0  0  0
 44 46  1  0  0  0  0
 44 47  1  0  0  0  0
 45 49  1  0  0  0  0
 46 51  1  0  0  0  0
 47 68  1  0  0  0  0
 48 51  1  0  0  0  0
 48 68  1  0  0  0  0
 49 73  1  0  0  0  0
 50 67  1  0  0  0  0
 51 66  1  0  0  0  0
 52 62  1  0  0  0  0
 53 63  1  0  0  0  0
 54 63  1  0  0  0  0
 55 63  1  0  0  0  0
 56 76  1  0  0  0  0
 57 75  1  0  0  0  0
 59 72  1  0  0  0  0
 60 85  1  0  0  0  0
 61 63  1  0  0  0  0
 61 74  1  0  0  0  0
 62 76  1  0  0  0  0
 64 66  1  0  0  0  0
M  CHG  2  75   1  76   1
M  ISO  4  39 100  60 101  71 100  85 101
M  END
> <Batch ID>
0164

> <Smiles>
CNC(C)C(=O)NC(C(=O)N1Cc2cc([101O:1][101CH2:1]C(=O)CC(=O)CNc3sc([100NH:0][100C:0](=O)N4CCCC(n5nc(-c6ccc(Oc7ccc(F)cc7F)cc6)c(C(N)=O)c5N)C4)cc3C(=N)CN)ccc2CC1C(=O)NC1CCCc2ccccc21)C(C)(C)C

> <Shape>
0.306

> <Color>
0.151

> <Negative vol penalty>
0.000

$$$$

  -OEChem-04052304023D

 88 96  0     1  0  0  0  0  0999 V2000
  -27.6509  -33.8855   26.1161 C   0  0  0  0  0  0  0  0  0  0  0  0
  -27.8783  -32.6737   25.4716 C   0  0  0  0  0  0  0  0  0  0  0  0
  -33.3586  -22.7620   19.3843 C   0  0  0  0  0  0  0  0  0  0  0  0
  -25.3874  -16.4634   20.9945 C   0  0  0  0  0  0  0  0  0  0  0  0
  -27.3385  -15.0949   20.5973 C   0  0  0  0  0  0  0  0  0  0  0  0
  -26.3498  -34.2683   26.4394 C   0  0  0  0  0  0  0  0  0  0  0  0
  -26.8048  -31.8435   25.1511 C   0  0  0  0  0  0  0  0  0  0  0  0
  -27.1232  -29.9827   20.4521 C   0  0  0  0  0  0  0  0  0  0  0  0
  -33.5591  -22.5722   18.0171 C   0  0  0  0  0  0  0  0  0  0  0  0
  -32.1799  -23.3518   19.8411 C   0  0  0  0  0  0  0  0  0  0  0  0
  -24.7155  -15.3555   21.5109 C   0  0  0  0  0  0  0  0  0  0  0  0
  -26.6665  -13.9870   21.1137 C   0  0  0  0  0  0  0  0  0  0  0  0
  -27.9989  -28.9174   20.2471 C   0  0  0  0  0  0  0  0  0  0  0  0
  -24.3425  -11.7689   20.0602 C   0  0  0  0  0  0  0  0  0  0  0  0
  -24.4369  -10.5679   19.3571 C   0  0  0  0  0  0  0  0  0  0  0  0
  -26.1407  -27.3815   20.3323 C   0  0  0  0  0  0  0  0  0  0  0  0
  -31.4023  -23.5619   17.5633 C   0  0  0  0  0  0  0  0  0  0  0  0
  -25.4360   -9.5156   21.2889 C   0  0  0  0  0  0  0  0  0  0  0  0
  -26.6989  -16.3330   20.5377 C   0  0  0  0  0  0  0  0  0  0  0  0
  -28.1851  -18.3989   20.7143 C   0  0  0  0  0  0  0  0  0  0  0  0
  -25.2590  -33.4469   26.1141 C   0  0  0  0  0  0  0  0  0  0  0  0
  -25.7487  -29.7541   20.6099 C   0  0  0  0  0  0  0  0  0  0  0  0
  -25.4880  -32.2151   25.4716 C   0  0  0  0  0  0  0  0  0  0  0  0
  -25.2494  -28.4459   20.5366 C   0  0  0  0  0  0  0  0  0  0  0  0
  -32.5810  -22.9722   17.1066 C   0  0  0  0  0  0  0  0  0  0  0  0
  -31.2018  -23.7517   18.9306 C   0  0  0  0  0  0  0  0  0  0  0  0
  -25.3550  -14.1173   21.5705 C   0  0  0  0  0  0  0  0  0  0  0  0
  -27.5081  -27.6163   20.1901 C   0  0  0  0  0  0  0  0  0  0  0  0
  -24.7948  -11.8433   21.3776 C   0  0  0  0  0  0  0  0  0  0  0  0
  -24.9837   -9.4413   19.9714 C   0  0  0  0  0  0  0  0  0  0  0  0
  -25.3416  -10.7166   21.9919 C   0  0  0  0  0  0  0  0  0  0  0  0
  -27.3934  -17.4770   20.0036 C   0  0  0  0  0  0  0  0  0  0  0  0
  -28.6159  -19.2885   19.7606 C   0  0  0  0  0  0  0  0  0  0  0  0
  -33.9499  -23.8440   13.6610 C   0  0  0  0  0  0  0  0  0  0  0  0
  -28.5027  -18.4469   22.1116 C   0  0  0  0  0  0  0  0  0  0  0  0
  -23.6435  -30.2586   22.9373 C   0  0  0  0  0  0  0  0  0  0  0  0
  -27.1909  -24.4854   20.3105 C   0  0  0  0  0  0  0  0  0  0  0  0
  -21.5167  -29.2641   20.6990 C   0  0  0  0  0  0  0  0  0  0  0  0
  -20.9328  -27.4861   17.8451 C   0  0  0  0  0  0  0  0  0  0  0  0
  -30.7002  -20.3641   14.6966 C   0  0  0  0  0  0  0  0  0  0  0  0
  -23.8747  -33.8813   26.5262 C   0  0  0  0  0  0  0  0  0  0  0  0
  -24.8140  -30.9165   20.8035 C   0  0  0  0  0  0  0  0  0  0  0  0
  -23.7798  -28.1489   20.6797 C   0  0  0  0  0  0  0  0  0  0  0  0
  -22.7600  -33.1172   25.8165 C   0  0  0  0  0  0  0  0  0  0  0  0
  -27.1778  -19.9121   14.9513 C   0  0  0  0  0  0  0  0  0  0  0  0
  -23.0465  -31.6190   25.8313 C   0  0  0  0  0  0  0  0  0  0  0  0
  -26.9861  -19.3088   16.3439 C   0  0  0  0  0  0  0  0  0  0  0  0
  -28.4545  -19.4024   14.2863 C   0  0  0  0  0  0  0  0  0  0  0  0
  -29.4890  -18.9689   16.4807 C   0  0  0  0  0  0  0  0  0  0  0  0
  -24.3474  -31.2987   25.0852 C   0  0  1  0  0  0  0  0  0  0  0  0
  -23.4975  -30.5208   21.4651 C   0  0  1  0  0  0  0  0  0  0  0  0
  -28.2437  -19.4959   17.2139 C   0  0  2  0  0  0  0  0  0  0  0  0
  -26.5186  -23.2554   19.7563 C   0  0  0  0  0  0  0  0  0  0  0  0
  -19.0872  -26.8269   16.2778 C   0  0  0  0  0  0  0  0  0  0  0  0
  -20.5256  -27.2156   22.7315 C   0  0  0  0  0  0  0  0  0  0  0  0
  -19.3979  -26.0021   20.8543 C   0  0  0  0  0  0  0  0  0  0  0  0
  -18.7192  -28.3363   21.4141 C   0  0  0  0  0  0  0  0  0  0  0  0
  -22.2312  -28.8457   15.5594 C   0  0  0  0  0  0  0  0  0  0  0  0
  -34.0240  -23.5699   15.1372 C   0  0  0  0  0  0  0  0  0  0  0  0
  -32.9396  -21.2726   15.2612 C   0  0  0  0  0  0  0  0  0  0  0  0
  -28.9674  -24.7800   18.5115 C   0  0  0  0  0  0  0  0  0  0  0  0
  -32.7961  -22.7697   15.6449 C   0  0  1  0  0  0  0  0  0  0  0  0
  -27.8431  -25.4329   19.3088 C   0  0  2  0  0  0  0  0  0  1  0  0
  -20.9449  -27.9294   20.2860 C   0  0  1  0  0  0  0  0  0  0  0  0
  -20.1824  -27.8397   16.5738 C   0  0  2  0  0  0  0  0  0  0  0  0
  -19.9249  -27.3759   21.3207 C   0  0  0  0  0  0  0  0  0  0  0  0
  -27.3236  -17.7552   18.6991 N   0  0  0  0  0  0  0  0  0  0  0  0
  -34.8954  -23.4826   12.8615 N   0  0  0  0  0  0  0  0  0  0  0  0
  -28.0768  -18.8621   18.5826 N   0  0  0  0  0  0  0  0  0  0  0  0
  -22.9068  -29.3184   20.8738 N   0  0  0  0  0  0  0  0  0  0  0  0
  -29.6098  -19.6110   15.1624 N   0  0  0  0  0  0  0  0  0  0  0  0
  -29.3993  -20.3861   19.8231 N   0  0  0  0  0  0  0  0  0  0  0  0
  -27.9769  -17.4551   22.9508 N   0  0  0  0  0  0  0  0  0  0  0  0
  -30.0317  -24.3367   19.3841 N   0  0  0  0  0  0  0  0  0  0  0  0
  -24.1315  -31.3341   23.6547 N   0  0  0  0  0  0  0  0  0  0  0  0
  -20.3960  -28.1171   18.9474 N   0  0  0  0  0  0  0  0  0  0  0  0
  -31.7509  -20.5189   15.5926 N   0  0  0  0  0  0  0  0  0  0  0  0
  -21.1168  -27.8742   15.4134 N   0  3  0  0  0  0  0  0  0  0  0  0
  -29.2177  -19.3522   22.6043 O   0  0  0  0  0  0  0  0  0  0  0  0
  -23.3348  -29.1622   23.3893 O   0  0  0  0  0  0  0  0  0  0  0  0
  -27.1985  -24.7093   21.5212 O   0  0  0  0  0  0  0  0  0  0  0  0
  -20.7588  -30.2249   20.8537 O   0  0  0  0  0  0  0  0  0  0  0  0
  -21.8964  -26.7233   17.8596 O   0  0  0  0  0  0  0  0  0  0  0  0
  -30.7324  -20.8662   13.5680 O   0  0  0  0  0  0  0  0  0  0  0  0
  -24.6996  -13.0361   22.0746 O   0  0  0  0  0  0  0  0  0  0  0  0
  -28.3607  -26.5746   19.9908 O   0  0  0  0  0  0  0  0  0  1  0  0
  -25.0729   -8.2877   19.2966 F   0  0  0  0  0  0  0  0  0  0  0  0
  -25.7768  -10.7816   23.2577 F   0  0  0  0  0  0  0  0  0  0  0  0
  1  2  1  0  0  0  0
  1  6  2  0  0  0  0
  2  7  2  0  0  0  0
  3  9  1  0  0  0  0
  3 10  2  0  0  0  0
  4 11  2  0  0  0  0
  4 19  1  0  0  0  0
  5 12  1  0  0  0  0
  5 19  2  0  0  0  0
  6 21  1  0  0  0  0
  7 23  1  0  0  0  0
  8 13  2  0  0  0  0
  8 22  1  0  0  0  0
  9 25  2  0  0  0  0
 10 26  1  0  0  0  0
 11 27  1  0  0  0  0
 12 27  2  0  0  0  0
 13 28  1  0  0  0  0
 14 15  2  0  0  0  0
 14 29  1  0  0  0  0
 15 30  1  0  0  0  0
 16 24  1  0  0  0  0
 16 28  2  0  0  0  0
 17 25  1  0  0  0  0
 17 26  2  0  0  0  0
 18 30  2  0  0  0  0
 18 31  1  0  0  0  0
 19 32  1  0  0  0  0
 20 32  1  0  0  0  0
 20 33  2  0  0  0  0
 20 35  1  0  0  0  0
 21 23  2  0  0  0  0
 21 41  1  0  0  0  0
 22 24  2  0  0  0  0
 22 42  1  0  0  0  0
 23 50  1  0  0  0  0
 24 43  1  0  0  0  0
 25 62  1  0  0  0  0
 26 74  1  0  0  0  0
 27 85  1  0  0  0  0
 28 86  1  0  0  0  0
 29 31  2  0  0  0  0
 29 85  1  0  0  0  0
 30 87  1  0  0  0  0
 31 88  1  0  0  0  0
 32 67  2  0  0  0  0
 33 69  1  0  0  0  0
 33 72  1  0  0  0  0
 34 59  1  0  0  0  0
 34 68  2  0  0  0  0
 35 73  1  0  0  0  0
 35 79  2  0  0  0  0
 36 51  1  0  0  0  0
 36 75  1  0  0  0  0
 36 80  2  0  0  0  0
 37 53  1  0  0  0  0
 37 63  1  0  0  0  0
 37 81  2  0  0  0  0
 38 64  1  0  0  0  0
 38 70  1  0  0  0  0
 38 82  2  0  0  0  0
 39 65  1  0  0  0  0
 39 76  1  0  0  0  0
 39 83  2  0  0  0  0
 40 71  1  0  0  0  0
 40 77  1  0  0  0  0
 40 84  2  0  0  0  0
 41 44  1  0  0  0  0
 42 51  1  0  0  0  0
 43 70  1  0  0  0  0
 44 46  1  0  0  0  0
 45 47  1  0  0  0  0
 45 48  1  0  0  0  0
 46 50  1  0  0  0  0
 47 52  1  0  0  0  0
 48 71  1  0  0  0  0
 49 52  1  0  0  0  0
 49 71  1  0  0  0  0
 50 75  1  0  0  0  0
 51 70  1  0  0  0  0
 52 69  1  0  0  0  0
 54 65  1  0  0  0  0
 55 66  1  0  0  0  0
 56 66  1  0  0  0  0
 57 66  1  0  0  0  0
 58 78  1  0  0  0  0
 59 62  1  0  0  0  0
 60 62  1  0  0  0  0
 60 77  1  0  0  0  0
 61 63  1  0  0  0  0
 61 74  1  0  0  0  0
 63 86  1  0  0  0  0
 64 66  1  0  0  0  0
 64 76  1  0  0  0  0
 65 78  1  0  0  0  0
 67 69  1  0  0  0  0
M  CHG  1  78   1
M  ISO  4  40 100  63 101  77 100  86 101
M  END
> <Batch ID>
0164

> <Smiles>
CNC(C)C(=O)NC(C(=O)N1Cc2cc([101O:1][101CH:1](CNc3cccc(C(C=CN)C[100NH:0][100C:0](=O)N4CCCC(n5nc(-c6ccc(Oc7ccc(F)cc7F)cc6)c(C(N)=O)c5N)C4)c3)C(C)=O)ccc2CC1C(=O)NC1CCCc2ccccc21)C(C)(C)C

> <Shape>
0.247

> <Color>
0.074

> <Negative vol penalty>
0.000

$$$$

  -OEChem-04052304023D

 88 96  0     1  0  0  0  0  0999 V2000
  -19.1692  -26.8709   26.0304 C   0  0  0  0  0  0  0  0  0  0  0  0
  -20.4901  -26.5439   25.7409 C   0  0  0  0  0  0  0  0  0  0  0  0
  -23.4105   -9.9704   19.9361 C   0  0  0  0  0  0  0  0  0  0  0  0
  -24.4424   -9.9856   22.1206 C   0  0  0  0  0  0  0  0  0  0  0  0
  -18.3404  -27.3718   25.0273 C   0  0  0  0  0  0  0  0  0  0  0  0
  -20.9826  -26.7164   24.4478 C   0  0  0  0  0  0  0  0  0  0  0  0
  -26.6615  -28.3719   22.8618 C   0  0  0  0  0  0  0  0  0  0  0  0
  -22.9233   -8.6855   20.1752 C   0  0  0  0  0  0  0  0  0  0  0  0
  -23.9552   -8.7007   22.3597 C   0  0  0  0  0  0  0  0  0  0  0  0
  -27.7709  -27.6373   22.4455 C   0  0  0  0  0  0  0  0  0  0  0  0
  -21.0256   -7.2770   23.2605 C   0  0  0  0  0  0  0  0  0  0  0  0
  -20.4434   -7.0272   24.5032 C   0  0  0  0  0  0  0  0  0  0  0  0
  -27.1944  -28.0815   20.1456 C   0  0  0  0  0  0  0  0  0  0  0  0
  -22.0954   -5.3176   24.9335 C   0  0  0  0  0  0  0  0  0  0  0  0
  -29.7071  -20.1375   22.7565 C   0  0  0  0  0  0  0  0  0  0  0  0
  -30.8094  -18.9392   21.2189 C   0  0  0  0  0  0  0  0  0  0  0  0
  -24.1701  -10.6205   20.9088 C   0  0  0  0  0  0  0  0  0  0  0  0
  -29.0250  -18.9522   22.5922 C   0  0  0  0  0  0  0  0  0  0  0  0
  -24.0357  -13.1675   20.9554 C   0  0  0  0  0  0  0  0  0  0  0  0
  -18.8258  -27.5596   23.7235 C   0  0  0  0  0  0  0  0  0  0  0  0
  -25.8026  -28.9587   21.9213 C   0  0  0  0  0  0  0  0  0  0  0  0
  -20.1591  -27.2190   23.4261 C   0  0  0  0  0  0  0  0  0  0  0  0
  -26.0762  -28.8252   20.5526 C   0  0  0  0  0  0  0  0  0  0  0  0
  -29.7222  -18.1941   21.6194 C   0  0  0  0  0  0  0  0  0  0  0  0
  -23.1956   -8.0506   21.3870 C   0  0  0  0  0  0  0  0  0  0  0  0
  -28.0359  -27.4896   21.0872 C   0  0  0  0  0  0  0  0  0  0  0  0
  -22.1427   -6.5471   22.8543 C   0  0  0  0  0  0  0  0  0  0  0  0
  -20.9782   -6.0475   25.3397 C   0  0  0  0  0  0  0  0  0  0  0  0
  -22.6776   -5.5674   23.6908 C   0  0  0  0  0  0  0  0  0  0  0  0
  -24.6741  -11.9476   20.6622 C   0  0  0  0  0  0  0  0  0  0  0  0
  -24.9206  -14.1287   20.5317 C   0  0  0  0  0  0  0  0  0  0  0  0
  -30.7044  -23.4399   21.4765 C   0  0  0  0  0  0  0  0  0  0  0  0
  -27.8296  -18.6037   23.3060 C   0  0  0  0  0  0  0  0  0  0  0  0
  -22.7572  -13.4102   21.5572 C   0  0  0  0  0  0  0  0  0  0  0  0
  -31.3198  -22.3728   20.9380 C   0  0  0  0  0  0  0  0  0  0  0  0
  -27.2022  -19.5352   24.3263 C   0  0  0  0  0  0  0  0  0  0  0  0
  -30.2070  -24.6148   20.7012 C   0  0  0  0  0  0  0  0  0  0  0  0
  -22.7297  -28.6298   21.1778 C   0  0  0  0  0  0  0  0  0  0  0  0
  -23.3395  -31.1348   19.2092 C   0  0  0  0  0  0  0  0  0  0  0  0
  -25.6322  -32.9281   17.4274 C   0  0  0  0  0  0  0  0  0  0  0  0
  -30.0878  -16.1702   20.1646 C   0  0  0  0  0  0  0  0  0  0  0  0
  -17.8788  -28.0594   22.6614 C   0  0  0  0  0  0  0  0  0  0  0  0
  -24.6251  -29.7704   22.3871 C   0  0  0  0  0  0  0  0  0  0  0  0
  -25.1966  -29.4524   19.5032 C   0  0  0  0  0  0  0  0  0  0  0  0
  -18.5841  -28.5649   21.4055 C   0  0  0  0  0  0  0  0  0  0  0  0
  -29.1321  -13.7327   17.7517 C   0  0  0  0  0  0  0  0  0  0  0  0
  -19.6592  -27.5774   20.9629 C   0  0  0  0  0  0  0  0  0  0  0  0
  -27.8346  -13.1514   18.3179 C   0  0  0  0  0  0  0  0  0  0  0  0
  -30.1367  -14.0586   18.8554 C   0  0  0  0  0  0  0  0  0  0  0  0
  -28.3222  -14.3301   20.4996 C   0  0  0  0  0  0  0  0  0  0  0  0
  -20.7372  -27.4153   22.0413 C   0  0  1  0  0  0  0  0  0  0  0  0
  -23.5291  -29.8926   21.3330 C   0  0  1  0  0  0  0  0  0  0  0  0
  -27.2544  -14.0464   19.4305 C   0  0  2  0  0  0  0  0  0  0  0  0
  -26.1835  -20.5144   23.8359 C   0  0  0  0  0  0  0  0  0  0  0  0
  -25.8250  -34.8993   15.8865 C   0  0  0  0  0  0  0  0  0  0  0  0
  -22.1874  -29.4636   16.9311 C   0  0  0  0  0  0  0  0  0  0  0  0
  -23.2561  -31.0523   15.3180 C   0  0  0  0  0  0  0  0  0  0  0  0
  -21.5128  -31.8716   16.9030 C   0  0  0  0  0  0  0  0  0  0  0  0
  -27.4240  -34.3613   19.2967 C   0  0  0  0  0  0  0  0  0  0  0  0
  -31.8077  -21.2257   21.7846 C   0  0  0  0  0  0  0  0  0  0  0  0
  -29.5440  -25.7025   21.5205 C   0  0  0  0  0  0  0  0  0  1  0  0
  -23.8091  -31.2834   17.7822 C   0  0  1  0  0  0  0  0  0  0  0  0
  -25.8869  -34.4214   17.3289 C   0  0  2  0  0  0  0  0  0  0  0  0
  -22.7071  -30.9041   16.7531 C   0  0  0  0  0  0  0  0  0  0  0  0
  -25.8720  -12.1156   20.0957 N   0  0  0  0  0  0  0  0  0  0  0  0
  -27.5792  -19.4299   25.5555 N   0  0  0  0  0  0  0  0  0  0  0  0
  -30.7902  -20.1185   21.9169 N   0  0  0  0  0  0  0  0  0  0  0  0
  -25.9933  -13.4524   20.0296 N   0  0  0  0  0  0  0  0  0  0  0  0
  -24.0539  -30.2311   20.0085 N   0  0  0  0  0  0  0  0  0  0  0  0
  -29.5182  -14.9130   19.8715 N   0  0  0  0  0  0  0  0  0  0  0  0
  -24.8779  -15.4779   20.5432 N   0  0  0  0  0  0  0  0  0  0  0  0
  -21.9759  -12.3090   21.9331 N   0  0  0  0  0  0  0  0  0  0  0  0
  -29.3946  -16.9077   21.1238 N   0  0  0  0  0  0  0  0  0  0  0  0
  -21.6418  -28.5449   22.0255 N   0  0  0  0  0  0  0  0  0  0  0  0
  -24.3007  -32.6511   17.6545 N   0  0  0  0  0  0  0  0  0  0  0  0
  -27.2320  -34.7547   17.8771 N   0  3  0  0  0  0  0  0  0  0  0  0
  -27.2056  -17.5323   23.1710 O   0  0  0  0  0  0  0  0  0  0  0  0
  -22.3134  -14.5690   21.7407 O   0  0  0  0  0  0  0  0  0  0  0  0
  -30.3266  -24.6928   19.4821 O   0  0  0  0  0  0  0  0  0  0  0  0
  -23.0736  -27.7950   20.3492 O   0  0  0  0  0  0  0  0  0  0  0  0
  -22.3789  -31.8014   19.6022 O   0  0  0  0  0  0  0  0  0  0  0  0
  -26.5245  -32.0910   17.3107 O   0  0  0  0  0  0  0  0  0  0  0  0
  -31.0996  -16.5750   19.5863 O   0  0  0  0  0  0  0  0  0  0  0  0
  -31.5936  -22.2266   19.5935 O   0  0  0  0  0  0  0  0  0  0  0  0
  -22.7201   -6.7969   21.6207 O   0  0  0  0  0  0  0  0  0  0  0  0
  -29.1178  -26.7725   20.6781 O   0  0  0  0  0  0  0  0  0  1  0  0
  -20.4199   -5.8088   26.5336 F   0  0  0  0  0  0  0  0  0  0  0  0
  -23.7514   -4.8637   23.3066 F   0  0  0  0  0  0  0  0  0  0  0  0
  1  2  1  0  0  0  0
  1  5  2  0  0  0  0
  2  6  2  0  0  0  0
  3  8  2  0  0  0  0
  3 17  1  0  0  0  0
  4  9  1  0  0  0  0
  4 17  2  0  0  0  0
  5 20  1  0  0  0  0
  6 22  1  0  0  0  0
  7 10  2  0  0  0  0
  7 21  1  0  0  0  0
  8 25  1  0  0  0  0
  9 25  2  0  0  0  0
 10 26  1  0  0  0  0
 11 12  2  0  0  0  0
 11 27  1  0  0  0  0
 12 28  1  0  0  0  0
 13 23  1  0  0  0  0
 13 26  2  0  0  0  0
 14 28  2  0  0  0  0
 14 29  1  0  0  0  0
 15 18  2  0  0  0  0
 15 67  1  0  0  0  0
 16 24  2  0  0  0  0
 16 67  1  0  0  0  0
 17 30  1  0  0  0  0
 18 24  1  0  0  0  0
 18 33  1  0  0  0  0
 19 30  1  0  0  0  0
 19 31  2  0  0  0  0
 19 34  1  0  0  0  0
 20 22  2  0  0  0  0
 20 42  1  0  0  0  0
 21 23  2  0  0  0  0
 21 43  1  0  0  0  0
 22 51  1  0  0  0  0
 23 44  1  0  0  0  0
 24 73  1  0  0  0  0
 25 85  1  0  0  0  0
 26 86  1  0  0  0  0
 27 29  2  0  0  0  0
 27 85  1  0  0  0  0
 28 87  1  0  0  0  0
 29 88  1  0  0  0  0
 30 65  2  0  0  0  0
 31 68  1  0  0  0  0
 31 71  1  0  0  0  0
 32 35  2  0  0  0  0
 32 37  1  0  0  0  0
 33 36  1  0  0  0  0
 33 77  2  0  0  0  0
 34 72  1  0  0  0  0
 34 78  2  0  0  0  0
 35 60  1  0  0  0  0
 35 84  1  0  0  0  0
 36 54  1  0  0  0  0
 36 66  2  0  0  0  0
 37 61  1  0  0  0  0
 37 79  2  0  0  0  0
 38 52  1  0  0  0  0
 38 74  1  0  0  0  0
 38 80  2  0  0  0  0
 39 62  1  0  0  0  0
 39 69  1  0  0  0  0
 39 81  2  0  0  0  0
 40 63  1  0  0  0  0
 40 75  1  0  0  0  0
 40 82  2  0  0  0  0
 41 70  1  0  0  0  0
 41 73  1  0  0  0  0
 41 83  2  0  0  0  0
 42 45  1  0  0  0  0
 43 52  1  0  0  0  0
 44 69  1  0  0  0  0
 45 47  1  0  0  0  0
 46 48  1  0  0  0  0
 46 49  1  0  0  0  0
 47 51  1  0  0  0  0
 48 53  1  0  0  0  0
 49 70  1  0  0  0  0
 50 53  1  0  0  0  0
 50 70  1  0  0  0  0
 51 74  1  0  0  0  0
 52 69  1  0  0  0  0
 53 68  1  0  0  0  0
 55 63  1  0  0  0  0
 56 64  1  0  0  0  0
 57 64  1  0  0  0  0
 58 64  1  0  0  0  0
 59 76  1  0  0  0  0
 60 67  1  0  0  0  0
 61 86  1  0  0  0  0
 62 64  1  0  0  0  0
 62 75  1  0  0  0  0
 63 76  1  0  0  0  0
 65 68  1  0  0  0  0
M  CHG  1  76   1
M  ISO  4  41 100  61 101  73 100  86 101
M  END
> <Batch ID>
0164

> <Smiles>
CNC(C)C(=O)NC(C(=O)N1Cc2cc([101O:1][101CH2:1]C(=O)CC(=O)Cn3cc([100NH:0][100C:0](=O)N4CCCC(n5nc(-c6ccc(Oc7ccc(F)cc7F)cc6)c(C(N)=O)c5N)C4)c(C(=O)C(C)=N)c3)ccc2CC1C(=O)NC1CCCc2ccccc21)C(C)(C)C

> <Shape>
0.298

> <Color>
0.172

> <Negative vol penalty>
0.000

$$$$

  -OEChem-04052304023D

 90 98  0     1  0  0  0  0  0999 V2000
  -27.2512  -33.8271   26.4715 C   0  0  0  0  0  0  0  0  0  0  0  0
  -27.5739  -32.6819   25.7505 C   0  0  0  0  0  0  0  0  0  0  0  0
  -23.7112   -9.6691   21.8413 C   0  0  0  0  0  0  0  0  0  0  0  0
  -22.9364  -10.8357   19.8726 C   0  0  0  0  0  0  0  0  0  0  0  0
  -25.9248  -34.0800   26.8189 C   0  0  0  0  0  0  0  0  0  0  0  0
  -26.5705  -31.7883   25.3775 C   0  0  0  0  0  0  0  0  0  0  0  0
  -27.0153  -30.2646   20.5686 C   0  0  0  0  0  0  0  0  0  0  0  0
  -22.3965   -9.5599   22.2941 C   0  0  0  0  0  0  0  0  0  0  0  0
  -21.6216  -10.7265   20.3254 C   0  0  0  0  0  0  0  0  0  0  0  0
  -27.9745  -29.2903   20.2955 C   0  0  0  0  0  0  0  0  0  0  0  0
  -19.6963   -7.6257   21.6607 C   0  0  0  0  0  0  0  0  0  0  0  0
  -19.2836   -6.3910   22.1613 C   0  0  0  0  0  0  0  0  0  0  0  0
  -27.3435  -19.3591   16.3525 C   0  0  0  0  0  0  0  0  0  0  0  0
  -27.1727  -16.9623   16.6040 C   0  0  0  0  0  0  0  0  0  0  0  0
  -26.2493  -27.6043   20.2822 C   0  0  0  0  0  0  0  0  0  0  0  0
  -28.5821  -18.2362   18.0966 C   0  0  0  0  0  0  0  0  0  0  0  0
  -18.7962   -7.4182   24.2931 C   0  0  0  0  0  0  0  0  0  0  0  0
  -23.9812  -10.3070   20.6306 C   0  0  0  0  0  0  0  0  0  0  0  0
  -26.8168  -18.1356   15.9388 C   0  0  0  0  0  0  0  0  0  0  0  0
  -26.0366   -9.5089   19.3476 C   0  0  0  0  0  0  0  0  0  0  0  0
  -24.9034  -33.1940   26.4417 C   0  0  0  0  0  0  0  0  0  0  0  0
  -25.6651  -29.9138   20.7116 C   0  0  0  0  0  0  0  0  0  0  0  0
  -25.2294  -32.0289   25.7214 C   0  0  0  0  0  0  0  0  0  0  0  0
  -25.2746  -28.5763   20.5546 C   0  0  0  0  0  0  0  0  0  0  0  0
  -28.2262  -19.4094   17.4314 C   0  0  0  0  0  0  0  0  0  0  0  0
  -28.0553  -17.0126   17.6830 C   0  0  0  0  0  0  0  0  0  0  0  0
  -21.3516  -10.0886   21.5361 C   0  0  0  0  0  0  0  0  0  0  0  0
  -27.5920  -27.9595   20.1552 C   0  0  0  0  0  0  0  0  0  0  0  0
  -19.6591   -8.7567   22.4763 C   0  0  0  0  0  0  0  0  0  0  0  0
  -18.8335   -6.2872   23.4775 C   0  0  0  0  0  0  0  0  0  0  0  0
  -19.2091   -8.6530   23.7924 C   0  0  0  0  0  0  0  0  0  0  0  0
  -25.3393  -10.4207   20.1626 C   0  0  0  0  0  0  0  0  0  0  0  0
  -27.2801  -10.0707   19.1901 C   0  0  0  0  0  0  0  0  0  0  0  0
  -25.9014  -18.0833   14.8204 C   0  0  0  0  0  0  0  0  0  0  0  0
  -25.5995   -8.2655   18.7833 C   0  0  0  0  0  0  0  0  0  0  0  0
  -29.9945  -22.3160   19.0447 C   0  0  0  0  0  0  0  0  0  0  0  0
  -29.6440  -20.8637   18.8870 C   0  0  0  0  0  0  0  0  0  0  0  0
  -23.5383  -30.0932   23.0670 C   0  0  0  0  0  0  0  0  0  0  0  0
  -29.2205  -24.7197   19.4876 C   0  0  0  0  0  0  0  0  0  0  0  0
  -21.4883  -29.0722   20.7697 C   0  0  0  0  0  0  0  0  0  0  0  0
  -21.0370  -27.4383   17.8077 C   0  0  0  0  0  0  0  0  0  0  0  0
  -29.2806  -15.6954   19.4464 C   0  0  0  0  0  0  0  0  0  0  0  0
  -23.4904  -33.4857   26.8810 C   0  0  0  0  0  0  0  0  0  0  0  0
  -24.6391  -30.9805   20.9797 C   0  0  0  0  0  0  0  0  0  0  0  0
  -23.8352  -28.1507   20.6785 C   0  0  0  0  0  0  0  0  0  0  0  0
  -22.4384  -32.6793   26.1239 C   0  0  0  0  0  0  0  0  0  0  0  0
  -30.3992  -12.9457   21.4126 C   0  0  0  0  0  0  0  0  0  0  0  0
  -22.8472  -31.2119   26.0424 C   0  0  0  0  0  0  0  0  0  0  0  0
  -29.2949  -11.9009   21.2361 C   0  0  0  0  0  0  0  0  0  0  0  0
  -29.8341  -14.3639   21.4702 C   0  0  0  0  0  0  0  0  0  0  0  0
  -27.8525  -13.6838   20.1741 C   0  0  0  0  0  0  0  0  0  0  0  0
  -24.1659  -31.0483   25.2771 C   0  0  1  0  0  0  0  0  0  0  0  0
  -23.3632  -30.4362   21.6146 C   0  0  1  0  0  0  0  0  0  0  0  0
  -28.3787  -12.2449   20.0454 C   0  0  2  0  0  0  0  0  0  0  0  0
  -19.2434  -26.7310   16.2015 C   0  0  0  0  0  0  0  0  0  0  0  0
  -20.6800  -26.8231   22.6667 C   0  0  0  0  0  0  0  0  0  0  0  0
  -19.6456  -25.6434   20.7156 C   0  0  0  0  0  0  0  0  0  0  0  0
  -18.7805  -27.8732   21.4242 C   0  0  0  0  0  0  0  0  0  0  0  0
  -23.7376  -18.8052   13.8091 C   0  0  0  0  0  0  0  0  0  0  0  0
  -22.2068  -29.0437   15.6137 C   0  0  0  0  0  0  0  0  0  0  0  0
  -28.8539  -23.2562   19.3421 C   0  0  0  0  0  0  0  0  0  0  0  0
  -28.0641  -25.6627   19.7579 C   0  0  0  0  0  0  0  0  0  1  0  0
  -21.0259  -27.7241   20.2719 C   0  0  1  0  0  0  0  0  0  0  0  0
  -20.2531  -27.8095   16.5618 C   0  0  2  0  0  0  0  0  0  0  0  0
  -20.0605  -27.0234   21.2691 C   0  0  0  0  0  0  0  0  0  0  0  0
  -26.0783  -11.4810   20.4995 N   0  0  0  0  0  0  0  0  0  0  0  0
  -27.2530  -11.2390   19.8932 N   0  0  0  0  0  0  0  0  0  0  0  0
  -22.8701  -29.2295   20.9474 N   0  0  0  0  0  0  0  0  0  0  0  0
  -28.9797  -14.6198   20.3086 N   0  0  0  0  0  0  0  0  0  0  0  0
  -28.3830   -9.6742   18.5202 N   0  0  0  0  0  0  0  0  0  0  0  0
  -24.2912   -7.8363   19.0448 N   0  0  0  0  0  0  0  0  0  0  0  0
  -28.7600  -20.6501   17.8512 N   0  0  0  0  0  0  0  0  0  0  0  0
  -28.4177  -15.8208   18.3582 N   0  0  0  0  0  0  0  0  0  0  0  0
  -24.7349  -18.7662   14.8817 N   0  0  0  0  0  0  0  0  0  0  0  0
  -23.9400  -31.1572   23.8518 N   0  0  0  0  0  0  0  0  0  0  0  0
  -20.4562  -27.9512   18.9482 N   0  0  0  0  0  0  0  0  0  0  0  0
  -26.2269  -17.3517   13.7363 N   0  3  0  0  0  0  0  0  0  0  0  0
  -21.1752  -27.9951   15.4058 N   0  3  0  0  0  0  0  0  0  0  0  0
  -26.3523   -7.5480   18.0818 O   0  0  0  0  0  0  0  0  0  0  0  0
  -31.1679  -22.6249   18.9014 O   0  0  0  0  0  0  0  0  0  0  0  0
  -30.1888  -20.0848   19.6517 O   0  0  0  0  0  0  0  0  0  0  0  0
  -23.3232  -28.9485   23.4477 O   0  0  0  0  0  0  0  0  0  0  0  0
  -30.3801  -25.1236   19.4196 O   0  0  0  0  0  0  0  0  0  0  0  0
  -20.6548  -29.9554   20.9859 O   0  0  0  0  0  0  0  0  0  0  0  0
  -22.0601  -26.7581   17.7729 O   0  0  0  0  0  0  0  0  0  0  0  0
  -30.2497  -16.4331   19.6430 O   0  0  0  0  0  0  0  0  0  0  0  0
  -20.0685   -9.9820   21.9775 O   0  0  0  0  0  0  0  0  0  0  0  0
  -28.5262  -27.0065   19.8892 O   0  0  0  0  0  0  0  0  0  1  0  0
  -18.4357   -5.1017   23.9576 F   0  0  0  0  0  0  0  0  0  0  0  0
  -19.1699   -9.7362   24.5804 F   0  0  0  0  0  0  0  0  0  0  0  0
  1  2  1  0  0  0  0
  1  5  2  0  0  0  0
  2  6  2  0  0  0  0
  3  8  2  0  0  0  0
  3 18  1  0  0  0  0
  4  9  1  0  0  0  0
  4 18  2  0  0  0  0
  5 21  1  0  0  0  0
  6 23  1  0  0  0  0
  7 10  2  0  0  0  0
  7 22  1  0  0  0  0
  8 27  1  0  0  0  0
  9 27  2  0  0  0  0
 10 28  1  0  0  0  0
 11 12  2  0  0  0  0
 11 29  1  0  0  0  0
 12 30  1  0  0  0  0
 13 19  1  0  0  0  0
 13 25  2  0  0  0  0
 14 19  2  0  0  0  0
 14 26  1  0  0  0  0
 15 24  1  0  0  0  0
 15 28  2  0  0  0  0
 16 25  1  0  0  0  0
 16 26  2  0  0  0  0
 17 30  2  0  0  0  0
 17 31  1  0  0  0  0
 18 32  1  0  0  0  0
 19 34  1  0  0  0  0
 20 32  1  0  0  0  0
 20 33  2  0  0  0  0
 20 35  1  0  0  0  0
 21 23  2  0  0  0  0
 21 43  1  0  0  0  0
 22 24  2  0  0  0  0
 22 44  1  0  0  0  0
 23 52  1  0  0  0  0
 24 45  1  0  0  0  0
 25 72  1  0  0  0  0
 26 73  1  0  0  0  0
 27 87  1  0  0  0  0
 28 88  1  0  0  0  0
 29 31  2  0  0  0  0
 29 87  1  0  0  0  0
 30 89  1  0  0  0  0
 31 90  1  0  0  0  0
 32 66  2  0  0  0  0
 33 67  1  0  0  0  0
 33 70  1  0  0  0  0
 34 74  1  0  0  0  0
 34 77  2  0  0  0  0
 35 71  1  0  0  0  0
 35 79  2  0  0  0  0
 36 37  1  0  0  0  0
 36 61  1  0  0  0  0
 36 80  2  0  0  0  0
 37 72  1  0  0  0  0
 37 81  2  0  0  0  0
 38 53  1  0  0  0  0
 38 75  1  0  0  0  0
 38 82  2  0  0  0  0
 39 61  1  0  0  0  0
 39 62  1  0  0  0  0
 39 83  2  0  0  0  0
 40 63  1  0  0  0  0
 40 68  1  0  0  0  0
 40 84  2  0  0  0  0
 41 64  1  0  0  0  0
 41 76  1  0  0  0  0
 41 85  2  0  0  0  0
 42 69  1  0  0  0  0
 42 73  1  0  0  0  0
 42 86  2  0  0  0  0
 43 46  1  0  0  0  0
 44 53  1  0  0  0  0
 45 68  1  0  0  0  0
 46 48  1  0  0  0  0
 47 49  1  0  0  0  0
 47 50  1  0  0  0  0
 48 52  1  0  0  0  0
 49 54  1  0  0  0  0
 50 69  1  0  0  0  0
 51 54  1  0  0  0  0
 51 69  1  0  0  0  0
 52 75  1  0  0  0  0
 53 68  1  0  0  0  0
 54 67  1  0  0  0  0
 55 64  1  0  0  0  0
 56 65  1  0  0  0  0
 57 65  1  0  0  0  0
 58 65  1  0  0  0  0
 59 74  1  0  0  0  0
 60 78  1  0  0  0  0
 62 88  1  0  0  0  0
 63 65  1  0  0  0  0
 63 76  1  0  0  0  0
 64 78  1  0  0  0  0
 66 67  1  0  0  0  0
M  CHG  2  77   1  78   1
M  ISO  4  42 100  62 101  73 100  88 101
M  END
> <Batch ID>
0164

> <Smiles>
CNC(=N)c1cc(NC(=O)C(=O)CC(=O)[101CH2:1][101O:1]c2ccc3c(c2)CN(C(=O)C(NC(=O)C(C)NC)C(C)(C)C)C(C(=O)NC2CCCc4ccccc42)C3)cc([100NH:0][100C:0](=O)N2CCCC(n3nc(-c4ccc(Oc5ccc(F)cc5F)cc4)c(C(N)=O)c3N)C2)c1

> <Shape>
0.264

> <Color>
0.101

> <Negative vol penalty>
0.000

$$$$

  -OEChem-04052304023D

 87 95  0     1  0  0  0  0  0999 V2000
  -17.1163  -30.2043   24.0722 C   0  0  0  0  0  0  0  0  0  0  0  0
  -18.2973  -30.1822   24.8071 C   0  0  0  0  0  0  0  0  0  0  0  0
  -25.3501  -14.6549   19.2734 C   0  0  0  0  0  0  0  0  0  0  0  0
  -26.7275  -14.9055   21.2424 C   0  0  0  0  0  0  0  0  0  0  0  0
  -29.8912  -25.2759   22.4049 C   0  0  0  0  0  0  0  0  0  0  0  0
  -16.9601  -29.3516   22.9802 C   0  0  0  0  0  0  0  0  0  0  0  0
  -19.3224  -29.3065   24.4512 C   0  0  0  0  0  0  0  0  0  0  0  0
  -25.3466  -30.3157   24.8954 C   0  0  0  0  0  0  0  0  0  0  0  0
  -29.4290  -24.2551   21.5743 C   0  0  0  0  0  0  0  0  0  0  0  0
  -25.2131  -13.2931   19.5425 C   0  0  0  0  0  0  0  0  0  0  0  0
  -26.5905  -13.5437   21.5115 C   0  0  0  0  0  0  0  0  0  0  0  0
  -26.2925  -29.9415   25.8488 C   0  0  0  0  0  0  0  0  0  0  0  0
  -24.2035   -9.8203   19.9101 C   0  0  0  0  0  0  0  0  0  0  0  0
  -22.9300   -9.2622   19.7993 C   0  0  0  0  0  0  0  0  0  0  0  0
  -26.8954  -28.0382   24.4949 C   0  0  0  0  0  0  0  0  0  0  0  0
  -31.4694  -24.3790   20.2864 C   0  0  0  0  0  0  0  0  0  0  0  0
  -22.1193  -10.7741   21.5005 C   0  0  0  0  0  0  0  0  0  0  0  0
  -26.1073  -15.4611   20.1233 C   0  0  0  0  0  0  0  0  0  0  0  0
  -31.1425  -25.8484   22.1762 C   0  0  0  0  0  0  0  0  0  0  0  0
  -25.4183  -17.9113   20.2946 C   0  0  0  0  0  0  0  0  0  0  0  0
  -17.9876  -28.4718   22.6048 C   0  0  0  0  0  0  0  0  0  0  0  0
  -25.1600  -29.5465   23.7378 C   0  0  0  0  0  0  0  0  0  0  0  0
  -19.1793  -28.4403   23.3539 C   0  0  0  0  0  0  0  0  0  0  0  0
  -25.9482  -28.4061   23.5271 C   0  0  0  0  0  0  0  0  0  0  0  0
  -30.2180  -23.8066   20.5151 C   0  0  0  0  0  0  0  0  0  0  0  0
  -25.8333  -12.7375   20.6616 C   0  0  0  0  0  0  0  0  0  0  0  0
  -27.0651  -28.8010   25.6500 C   0  0  0  0  0  0  0  0  0  0  0  0
  -24.4350  -10.8552   20.8162 C   0  0  0  0  0  0  0  0  0  0  0  0
  -21.8879   -9.7391   20.5944 C   0  0  0  0  0  0  0  0  0  0  0  0
  -31.9316  -25.3999   21.1170 C   0  0  0  0  0  0  0  0  0  0  0  0
  -23.3929  -11.3321   21.6114 C   0  0  0  0  0  0  0  0  0  0  0  0
  -26.2497  -16.8677   19.8456 C   0  0  0  0  0  0  0  0  0  0  0  0
  -25.9754  -19.0478   19.7613 C   0  0  0  0  0  0  0  0  0  0  0  0
  -31.6288  -26.9293   23.0569 C   0  0  0  0  0  0  0  0  0  0  0  0
  -24.2472  -17.8581   21.1201 C   0  0  0  0  0  0  0  0  0  0  0  0
  -31.6259  -27.3693   26.6622 C   0  0  0  0  0  0  0  0  0  0  0  0
  -30.3143  -28.0258   27.0095 C   0  0  0  0  0  0  0  0  0  0  0  0
  -22.7347  -27.9049   22.5021 C   0  0  0  0  0  0  0  0  0  0  0  0
  -24.7603  -27.5526   19.9932 C   0  0  0  0  0  0  0  0  0  0  0  0
  -27.9754  -27.5073   18.8495 C   0  0  0  0  0  0  0  0  0  0  0  0
  -30.4045  -22.2076   18.5774 C   0  0  0  0  0  0  0  0  0  0  0  0
  -17.7542  -27.5356   21.4456 C   0  0  0  0  0  0  0  0  0  0  0  0
  -24.1541  -29.9785   22.7063 C   0  0  0  0  0  0  0  0  0  0  0  0
  -25.8009  -27.5575   22.2916 C   0  0  0  0  0  0  0  0  0  0  0  0
  -19.0345  -26.9026   20.9066 C   0  0  0  0  0  0  0  0  0  0  0  0
  -29.5995  -19.6152   16.2734 C   0  0  0  0  0  0  0  0  0  0  0  0
  -19.8959  -26.3814   22.0526 C   0  0  0  0  0  0  0  0  0  0  0  0
  -28.5879  -18.7552   17.0343 C   0  0  0  0  0  0  0  0  0  0  0  0
  -30.6875  -20.1613   17.1964 C   0  0  0  0  0  0  0  0  0  0  0  0
  -29.1838  -20.0153   19.1423 C   0  0  0  0  0  0  0  0  0  0  0  0
  -20.3239  -27.5220   22.9839 C   0  0  1  0  0  0  0  0  0  0  0  0
  -23.6897  -28.8352   21.8092 C   0  0  1  0  0  0  0  0  0  0  0  0
  -28.0321  -19.4961   18.2662 C   0  0  2  0  0  0  0  0  0  0  0  0
  -29.3177  -27.1563   16.7584 C   0  0  0  0  0  0  0  0  0  0  0  0
  -24.3030  -24.5434   20.2077 C   0  0  0  0  0  0  0  0  0  0  0  0
  -26.3338  -24.2037   18.7833 C   0  0  0  0  0  0  0  0  0  0  0  0
  -24.3609  -25.4257   17.8683 C   0  0  0  0  0  0  0  0  0  0  0  0
  -29.0990  -30.2425   18.9728 C   0  0  0  0  0  0  0  0  0  0  0  0
  -32.2589  -27.6548   25.3315 C   0  0  0  0  0  0  0  0  0  0  0  0
  -29.1421  -27.7374   26.1086 C   0  0  0  0  0  0  0  0  0  1  0  0
  -25.8167  -26.5464   19.6052 C   0  0  1  0  0  0  0  0  0  0  0  0
  -28.6283  -28.1750   17.6527 C   0  0  2  0  0  0  0  0  0  0  0  0
  -25.2053  -25.1945   19.1404 C   0  0  0  0  0  0  0  0  0  0  0  0
  -27.2581  -17.3026   19.0854 N   0  0  0  0  0  0  0  0  0  0  0  0
  -32.1441  -26.5766   27.5402 N   0  0  0  0  0  0  0  0  0  0  0  0
  -27.0640  -18.6320   19.0525 N   0  0  0  0  0  0  0  0  0  0  0  0
  -24.7996  -28.0177   21.3153 N   0  0  0  0  0  0  0  0  0  0  0  0
  -30.0867  -20.8539   18.3384 N   0  0  0  0  0  0  0  0  0  0  0  0
  -25.6354  -20.3522   19.8340 N   0  0  0  0  0  0  0  0  0  0  0  0
  -23.8120  -16.6087   21.5827 N   0  0  0  0  0  0  0  0  0  0  0  0
  -29.7480  -22.7694   19.6719 N   0  0  0  0  0  0  0  0  0  0  0  0
  -31.7776  -26.6880   24.3792 N   0  0  0  0  0  0  0  0  0  0  0  0
  -21.4083  -28.2768   22.3934 N   0  0  0  0  0  0  0  0  0  0  0  0
  -26.6540  -27.1989   18.6044 N   0  0  0  0  0  0  0  0  0  0  0  0
  -31.9018  -28.1127   22.5071 N   0  3  0  0  0  0  0  0  0  0  0  0
  -29.6440  -29.1680   18.1037 N   0  3  0  0  0  0  0  0  0  0  0  0
  -23.5963  -18.8862   21.4246 O   0  0  0  0  0  0  0  0  0  0  0  0
  -30.2887  -28.7658   27.9825 O   0  0  0  0  0  0  0  0  0  0  0  0
  -23.1690  -26.9216   23.0906 O   0  0  0  0  0  0  0  0  0  0  0  0
  -23.9353  -27.9180   19.1521 O   0  0  0  0  0  0  0  0  0  0  0  0
  -28.5784  -27.2786   19.8957 O   0  0  0  0  0  0  0  0  0  0  0  0
  -31.1796  -22.8309   17.8475 O   0  0  0  0  0  0  0  0  0  0  0  0
  -25.6997  -11.4088   20.9246 O   0  0  0  0  0  0  0  0  0  0  0  0
  -27.9886  -28.4332   26.5793 O   0  0  0  0  0  0  0  0  0  1  0  0
  -20.6646   -9.2041   20.4867 F   0  0  0  0  0  0  0  0  0  0  0  0
  -33.1346  -25.9450   20.8882 F   0  0  0  0  0  0  0  0  0  0  0  0
  -23.6089  -12.3270   22.4828 F   0  0  0  0  0  0  0  0  0  0  0  0
  1  2  1  0  0  0  0
  1  6  2  0  0  0  0
  2  7  2  0  0  0  0
  3 10  2  0  0  0  0
  3 18  1  0  0  0  0
  4 11  1  0  0  0  0
  4 18  2  0  0  0  0
  5  9  2  0  0  0  0
  5 19  1  0  0  0  0
  6 21  1  0  0  0  0
  7 23  1  0  0  0  0
  8 12  2  0  0  0  0
  8 22  1  0  0  0  0
  9 25  1  0  0  0  0
 10 26  1  0  0  0  0
 11 26  2  0  0  0  0
 12 27  1  0  0  0  0
 13 14  2  0  0  0  0
 13 28  1  0  0  0  0
 14 29  1  0  0  0  0
 15 24  1  0  0  0  0
 15 27  2  0  0  0  0
 16 25  2  0  0  0  0
 16 30  1  0  0  0  0
 17 29  2  0  0  0  0
 17 31  1  0  0  0  0
 18 32  1  0  0  0  0
 19 30  2  0  0  0  0
 19 34  1  0  0  0  0
 20 32  1  0  0  0  0
 20 33  2  0  0  0  0
 20 35  1  0  0  0  0
 21 23  2  0  0  0  0
 21 42  1  0  0  0  0
 22 24  2  0  0  0  0
 22 43  1  0  0  0  0
 23 51  1  0  0  0  0
 24 44  1  0  0  0  0
 25 71  1  0  0  0  0
 26 83  1  0  0  0  0
 27 84  1  0  0  0  0
 28 31  2  0  0  0  0
 28 83  1  0  0  0  0
 29 85  1  0  0  0  0
 30 86  1  0  0  0  0
 31 87  1  0  0  0  0
 32 64  2  0  0  0  0
 33 66  1  0  0  0  0
 33 69  1  0  0  0  0
 34 72  1  0  0  0  0
 34 75  2  0  0  0  0
 35 70  1  0  0  0  0
 35 77  2  0  0  0  0
 36 37  1  0  0  0  0
 36 59  1  0  0  0  0
 36 65  2  0  0  0  0
 37 60  1  0  0  0  0
 37 78  2  0  0  0  0
 38 52  1  0  0  0  0
 38 73  1  0  0  0  0
 38 79  2  0  0  0  0
 39 61  1  0  0  0  0
 39 67  1  0  0  0  0
 39 80  2  0  0  0  0
 40 62  1  0  0  0  0
 40 74  1  0  0  0  0
 40 81  2  0  0  0  0
 41 68  1  0  0  0  0
 41 71  1  0  0  0  0
 41 82  2  0  0  0  0
 42 45  1  0  0  0  0
 43 52  1  0  0  0  0
 44 67  1  0  0  0  0
 45 47  1  0  0  0  0
 46 48  1  0  0  0  0
 46 49  1  0  0  0  0
 47 51  1  0  0  0  0
 48 53  1  0  0  0  0
 49 68  1  0  0  0  0
 50 53  1  0  0  0  0
 50 68  1  0  0  0  0
 51 73  1  0  0  0  0
 52 67  1  0  0  0  0
 53 66  1  0  0  0  0
 54 62  1  0  0  0  0
 55 63  1  0  0  0  0
 56 63  1  0  0  0  0
 57 63  1  0  0  0  0
 58 76  1  0  0  0  0
 59 72  1  0  0  0  0
 60 84  1  0  0  0  0
 61 63  1  0  0  0  0
 61 74  1  0  0  0  0
 62 76  1  0  0  0  0
 64 66  1  0  0  0  0
M  CHG  2  75   1  76   1
M  ISO  4  41 100  60 101  71 100  84 101
M  END
> <Batch ID>
0164

> <Smiles>
CNC(C)C(=O)NC(C(=O)N1Cc2cc([101O:1][101CH2:1]C(=O)C(=N)CNC(=N)c3ccc([100NH:0][100C:0](=O)N4CCCC(n5nc(-c6ccc(Oc7ccc(F)cc7F)cc6)c(C(N)=O)c5N)C4)cc3F)ccc2CC1C(=O)NC1CCCc2ccccc21)C(C)(C)C

> <Shape>
0.243

> <Color>
0.068

> <Negative vol penalty>
0.000

$$$$

  -OEChem-04052304023D

 89 97  0     1  0  0  0  0  0999 V2000
  -30.0529  -32.3390   24.8444 C   0  0  0  0  0  0  0  0  0  0  0  0
  -29.7607  -31.1454   24.1924 C   0  0  0  0  0  0  0  0  0  0  0  0
  -18.7085  -16.4627   25.2266 C   0  0  0  0  0  0  0  0  0  0  0  0
  -20.3531  -18.1673   24.7504 C   0  0  0  0  0  0  0  0  0  0  0  0
  -29.0406  -33.0418   25.4966 C   0  0  0  0  0  0  0  0  0  0  0  0
  -28.4560  -30.6532   24.1930 C   0  0  0  0  0  0  0  0  0  0  0  0
  -26.9942  -29.0178   19.6286 C   0  0  0  0  0  0  0  0  0  0  0  0
  -18.5007  -17.0161   26.4900 C   0  0  0  0  0  0  0  0  0  0  0  0
  -20.1452  -18.7208   26.0138 C   0  0  0  0  0  0  0  0  0  0  0  0
  -27.4580  -27.7676   19.2216 C   0  0  0  0  0  0  0  0  0  0  0  0
  -19.7866  -20.7967   28.9770 C   0  0  0  0  0  0  0  0  0  0  0  0
  -19.6591  -22.1828   29.0656 C   0  0  0  0  0  0  0  0  0  0  0  0
  -27.8975  -14.2651   20.5506 C   0  0  0  0  0  0  0  0  0  0  0  0
  -25.3425  -26.7879   19.8413 C   0  0  0  0  0  0  0  0  0  0  0  0
  -27.0689  -16.5328   20.4614 C   0  0  0  0  0  0  0  0  0  0  0  0
  -17.7360  -22.0993   27.6056 C   0  0  0  0  0  0  0  0  0  0  0  0
  -19.6348  -17.0383   24.3568 C   0  0  0  0  0  0  0  0  0  0  0  0
  -29.2067  -14.7448   20.5868 C   0  0  0  0  0  0  0  0  0  0  0  0
  -19.1726  -16.7881   21.8605 C   0  0  0  0  0  0  0  0  0  0  0  0
  -27.7210  -32.5629   25.4970 C   0  0  0  0  0  0  0  0  0  0  0  0
  -25.7028  -29.1608   20.1561 C   0  0  0  0  0  0  0  0  0  0  0  0
  -27.4253  -31.3495   24.8469 C   0  0  0  0  0  0  0  0  0  0  0  0
  -24.8638  -28.0414   20.2519 C   0  0  0  0  0  0  0  0  0  0  0  0
  -26.8286  -15.1590   20.4878 C   0  0  0  0  0  0  0  0  0  0  0  0
  -28.3782  -17.0126   20.4977 C   0  0  0  0  0  0  0  0  0  0  0  0
  -29.4471  -16.1186   20.5604 C   0  0  0  0  0  0  0  0  0  0  0  0
  -19.2190  -18.1451   26.8836 C   0  0  0  0  0  0  0  0  0  0  0  0
  -26.6331  -26.6519   19.3306 C   0  0  0  0  0  0  0  0  0  0  0  0
  -18.8888  -20.0618   28.2026 C   0  0  0  0  0  0  0  0  0  0  0  0
  -18.6338  -22.8342   28.3799 C   0  0  0  0  0  0  0  0  0  0  0  0
  -17.8635  -20.7131   27.5169 C   0  0  0  0  0  0  0  0  0  0  0  0
  -19.8504  -16.4667   23.0518 C   0  0  0  0  0  0  0  0  0  0  0  0
  -19.7421  -15.9748   20.9114 C   0  0  0  0  0  0  0  0  0  0  0  0
  -30.3000  -13.7825   20.6510 C   0  0  0  0  0  0  0  0  0  0  0  0
  -18.1223  -17.7370   21.6322 C   0  0  0  0  0  0  0  0  0  0  0  0
  -24.5122  -30.0953   22.9512 C   0  0  0  0  0  0  0  0  0  0  0  0
  -28.1240  -20.7565   20.3831 C   0  0  0  0  0  0  0  0  0  0  0  0
  -27.5681  -23.1618   19.6362 C   0  0  0  0  0  0  0  0  0  0  0  0
  -21.6799  -29.8272   21.3929 C   0  0  0  0  0  0  0  0  0  0  0  0
  -19.8962  -28.4208   18.8459 C   0  0  0  0  0  0  0  0  0  0  0  0
  -25.0866  -13.3393   20.4690 C   0  0  0  0  0  0  0  0  0  0  0  0
  -26.6695  -33.3332   26.2557 C   0  0  0  0  0  0  0  0  0  0  0  0
  -25.2080  -30.5209   20.5657 C   0  0  0  0  0  0  0  0  0  0  0  0
  -23.4619  -28.1451   20.7925 C   0  0  0  0  0  0  0  0  0  0  0  0
  -25.2415  -32.9355   25.8911 C   0  0  0  0  0  0  0  0  0  0  0  0
  -21.9098  -11.7319   20.4286 C   0  0  0  0  0  0  0  0  0  0  0  0
  -25.1005  -31.4169   25.8649 C   0  0  0  0  0  0  0  0  0  0  0  0
  -20.9585  -12.7950   20.9826 C   0  0  0  0  0  0  0  0  0  0  0  0
  -23.2710  -11.7728   21.1209 C   0  0  0  0  0  0  0  0  0  0  0  0
  -22.9713  -14.1519   21.6859 C   0  0  0  0  0  0  0  0  0  0  0  0
  -26.0175  -30.7959   24.8043 C   0  0  1  0  0  0  0  0  0  0  0  0
  -24.0582  -30.4619   21.5666 C   0  0  1  0  0  0  0  0  0  0  0  0
  -21.6089  -14.1924   20.9747 C   0  0  2  0  0  0  0  0  0  0  0  0
  -17.5937  -28.3650   17.8497 C   0  0  0  0  0  0  0  0  0  0  0  0
  -20.7426  -28.0212   23.6666 C   0  0  0  0  0  0  0  0  0  0  0  0
  -18.8698  -27.2545   22.1925 C   0  0  0  0  0  0  0  0  0  0  0  0
  -19.0295  -29.6536   22.8571 C   0  0  0  0  0  0  0  0  0  0  0  0
  -31.2569  -17.4613   21.6317 C   0  0  0  0  0  0  0  0  0  0  0  0
  -20.8619  -29.4944   16.2625 C   0  0  0  0  0  0  0  0  0  0  0  0
  -27.1146  -21.8870   20.3193 C   0  0  0  0  0  0  0  0  0  0  0  0
  -27.5367  -19.3596   20.4024 C   0  0  0  0  0  0  0  0  0  0  0  0
  -26.5572  -24.2920   19.6157 C   0  0  0  0  0  0  0  0  0  1  0  0
  -20.6765  -28.7192   21.1818 C   0  0  1  0  0  0  0  0  0  0  0  0
  -18.9618  -29.0282   17.8152 C   0  0  2  0  0  0  0  0  0  0  0  0
  -19.8567  -28.4095   22.4661 C   0  0  0  0  0  0  0  0  0  0  0  0
  -20.7792  -15.5228   22.8781 N   0  0  0  0  0  0  0  0  0  0  0  0
  -30.1180  -12.4975   20.6762 N   0  0  0  0  0  0  0  0  0  0  0  0
  -20.6891  -15.2440   21.5665 N   0  0  0  0  0  0  0  0  0  0  0  0
  -23.0263  -29.4954   21.1857 N   0  0  0  0  0  0  0  0  0  0  0  0
  -23.8281  -13.1263   21.0703 N   0  0  0  0  0  0  0  0  0  0  0  0
  -19.5200  -15.8206   19.5888 N   0  0  0  0  0  0  0  0  0  0  0  0
  -17.6548  -18.4902   22.7177 N   0  0  0  0  0  0  0  0  0  0  0  0
  -25.4987  -14.6714   20.4505 N   0  0  0  0  0  0  0  0  0  0  0  0
  -30.7759  -16.6046   20.5960 N   0  0  0  0  0  0  0  0  0  0  0  0
  -28.5936  -18.3829   20.4687 N   0  0  0  0  0  0  0  0  0  0  0  0
  -25.4479  -30.9612   23.4842 N   0  0  0  0  0  0  0  0  0  0  0  0
  -19.8651  -29.1161   20.0362 N   0  0  0  0  0  0  0  0  0  0  0  0
  -19.5271  -28.8685   16.4456 N   0  3  0  0  0  0  0  0  0  0  0  0
  -17.6022  -17.9001   20.5024 O   0  0  0  0  0  0  0  0  0  0  0  0
  -24.0469  -29.1013   23.4963 O   0  0  0  0  0  0  0  0  0  0  0  0
  -29.3349  -20.9612   20.4552 O   0  0  0  0  0  0  0  0  0  0  0  0
  -28.6682  -23.2707   19.0972 O   0  0  0  0  0  0  0  0  0  0  0  0
  -21.2831  -30.9478   21.7224 O   0  0  0  0  0  0  0  0  0  0  0  0
  -20.5822  -27.4265   18.6191 O   0  0  0  0  0  0  0  0  0  0  0  0
  -25.7375  -12.4122   19.9803 O   0  0  0  0  0  0  0  0  0  0  0  0
  -19.0163  -18.6856   28.1162 O   0  0  0  0  0  0  0  0  0  0  0  0
  -27.0835  -25.4303   18.9347 O   0  0  0  0  0  0  0  0  0  1  0  0
  -18.5106  -24.1651   28.4664 F   0  0  0  0  0  0  0  0  0  0  0  0
  -16.9972  -20.0123   26.7724 F   0  0  0  0  0  0  0  0  0  0  0  0
  1  2  1  0  0  0  0
  1  5  2  0  0  0  0
  2  6  2  0  0  0  0
  3  8  2  0  0  0  0
  3 17  1  0  0  0  0
  4  9  1  0  0  0  0
  4 17  2  0  0  0  0
  5 20  1  0  0  0  0
  6 22  1  0  0  0  0
  7 10  2  0  0  0  0
  7 21  1  0  0  0  0
  8 27  1  0  0  0  0
  9 27  2  0  0  0  0
 10 28  1  0  0  0  0
 11 12  2  0  0  0  0
 11 29  1  0  0  0  0
 12 30  1  0  0  0  0
 13 18  2  0  0  0  0
 13 24  1  0  0  0  0
 14 23  1  0  0  0  0
 14 28  2  0  0  0  0
 15 24  2  0  0  0  0
 15 25  1  0  0  0  0
 16 30  2  0  0  0  0
 16 31  1  0  0  0  0
 17 32  1  0  0  0  0
 18 26  1  0  0  0  0
 18 34  1  0  0  0  0
 19 32  1  0  0  0  0
 19 33  2  0  0  0  0
 19 35  1  0  0  0  0
 20 22  2  0  0  0  0
 20 42  1  0  0  0  0
 21 23  2  0  0  0  0
 21 43  1  0  0  0  0
 22 51  1  0  0  0  0
 23 44  1  0  0  0  0
 24 73  1  0  0  0  0
 25 26  2  0  0  0  0
 25 75  1  0  0  0  0
 26 74  1  0  0  0  0
 27 86  1  0  0  0  0
 28 87  1  0  0  0  0
 29 31  2  0  0  0  0
 29 86  1  0  0  0  0
 30 88  1  0  0  0  0
 31 89  1  0  0  0  0
 32 66  2  0  0  0  0
 33 68  1  0  0  0  0
 33 71  1  0  0  0  0
 34 67  2  0  0  0  0
 35 72  1  0  0  0  0
 35 79  2  0  0  0  0
 36 52  1  0  0  0  0
 36 76  1  0  0  0  0
 36 80  2  0  0  0  0
 37 60  1  0  0  0  0
 37 61  1  0  0  0  0
 37 81  2  0  0  0  0
 38 60  1  0  0  0  0
 38 62  1  0  0  0  0
 38 82  2  0  0  0  0
 39 63  1  0  0  0  0
 39 69  1  0  0  0  0
 39 83  2  0  0  0  0
 40 64  1  0  0  0  0
 40 77  1  0  0  0  0
 40 84  2  0  0  0  0
 41 70  1  0  0  0  0
 41 73  1  0  0  0  0
 41 85  2  0  0  0  0
 42 45  1  0  0  0  0
 43 52  1  0  0  0  0
 44 69  1  0  0  0  0
 45 47  1  0  0  0  0
 46 48  1  0  0  0  0
 46 49  1  0  0  0  0
 47 51  1  0  0  0  0
 48 53  1  0  0  0  0
 49 70  1  0  0  0  0
 50 53  1  0  0  0  0
 50 70  1  0  0  0  0
 51 76  1  0  0  0  0
 52 69  1  0  0  0  0
 53 68  1  0  0  0  0
 54 64  1  0  0  0  0
 55 65  1  0  0  0  0
 56 65  1  0  0  0  0
 57 65  1  0  0  0  0
 58 74  1  0  0  0  0
 59 78  1  0  0  0  0
 61 75  1  0  0  0  0
 62 87  1  0  0  0  0
 63 65  1  0  0  0  0
 63 77  1  0  0  0  0
 64 78  1  0  0  0  0
 66 68  1  0  0  0  0
M  CHG  1  78   1
M  ISO  4  41 100  62 101  73 100  87 101
M  END
> <Batch ID>
0164

> <Smiles>
CNc1c(C=N)cc([100NH:0][100C:0](=O)N2CCCC(n3nc(-c4ccc(Oc5ccc(F)cc5F)cc4)c(C(N)=O)c3N)C2)cc1NCC(=O)CC(=O)[101CH2:1][101O:1]c1ccc2c(c1)CN(C(=O)C(NC(=O)C(C)NC)C(C)(C)C)C(C(=O)NC1CCCc3ccccc31)C2

> <Shape>
0.275

> <Color>
0.077

> <Negative vol penalty>
0.000

$$$$

  -OEChem-04052304023D

 82 90  0     1  0  0  0  0  0999 V2000
  -26.1223   -8.8128   25.5172 C   0  0  0  0  0  0  0  0  0  0  0  0
  -27.0172   -9.7570   25.0241 C   0  0  0  0  0  0  0  0  0  0  0  0
  -22.4718  -25.3394   21.4211 C   0  0  0  0  0  0  0  0  0  0  0  0
  -21.7134  -27.2215   20.1097 C   0  0  0  0  0  0  0  0  0  0  0  0
  -24.9533   -8.5276   24.8129 C   0  0  0  0  0  0  0  0  0  0  0  0
  -26.7441  -10.4157   23.8258 C   0  0  0  0  0  0  0  0  0  0  0  0
  -28.1418  -16.2070   22.4067 C   0  0  0  0  0  0  0  0  0  0  0  0
  -21.2533  -25.3212   22.0997 C   0  0  0  0  0  0  0  0  0  0  0  0
  -20.4948  -27.2032   20.7882 C   0  0  0  0  0  0  0  0  0  0  0  0
  -29.1890  -16.7672   21.6766 C   0  0  0  0  0  0  0  0  0  0  0  0
  -17.3201  -27.8813   22.4226 C   0  0  0  0  0  0  0  0  0  0  0  0
  -16.8033  -29.1008   22.8601 C   0  0  0  0  0  0  0  0  0  0  0  0
  -27.7866  -16.8164   19.7144 C   0  0  0  0  0  0  0  0  0  0  0  0
  -18.7735  -29.4497   24.2143 C   0  0  0  0  0  0  0  0  0  0  0  0
  -32.2763  -22.2722   16.7371 C   0  0  0  0  0  0  0  0  0  0  0  0
  -22.7019  -26.2896   20.4261 C   0  0  0  0  0  0  0  0  0  0  0  0
  -24.2865  -25.6174   18.5434 C   0  0  0  0  0  0  0  0  0  0  0  0
  -24.6610   -9.1901   23.6103 C   0  0  0  0  0  0  0  0  0  0  0  0
  -26.9105  -15.9367   21.7924 C   0  0  0  0  0  0  0  0  0  0  0  0
  -25.5707  -10.1381   23.1041 C   0  0  0  0  0  0  0  0  0  0  0  0
  -26.7245  -16.2551   20.4396 C   0  0  0  0  0  0  0  0  0  0  0  0
  -20.2648  -26.2531   21.7832 C   0  0  0  0  0  0  0  0  0  0  0  0
  -29.0125  -17.0694   20.3295 C   0  0  0  0  0  0  0  0  0  0  0  0
  -18.5635  -27.4460   22.8809 C   0  0  0  0  0  0  0  0  0  0  0  0
  -17.5300  -29.8850   23.7559 C   0  0  0  0  0  0  0  0  0  0  0  0
  -19.2902  -28.2302   23.7767 C   0  0  0  0  0  0  0  0  0  0  0  0
  -23.9606  -26.3093   19.7252 C   0  0  0  0  0  0  0  0  0  0  0  0
  -31.6461  -23.8510   18.0180 C   0  0  0  0  0  0  0  0  0  0  0  0
  -25.5902  -25.9668   18.2892 C   0  0  0  0  0  0  0  0  0  0  0  0
  -30.7262  -22.8445   18.1953 C   0  0  0  0  0  0  0  0  0  0  0  0
  -31.6500  -25.1646   18.6860 C   0  0  0  0  0  0  0  0  0  0  0  0
  -23.4825  -24.7375   17.7464 C   0  0  0  0  0  0  0  0  0  0  0  0
  -25.2050  -13.3107   21.2457 C   0  0  0  0  0  0  0  0  0  0  0  0
  -30.7527  -19.5271   18.3102 C   0  0  0  0  0  0  0  0  0  0  0  0
  -22.9975  -15.4359   20.1814 C   0  0  0  0  0  0  0  0  0  0  0  0
  -22.3345  -18.5337   18.9121 C   0  0  0  0  0  0  0  0  0  0  0  0
  -30.8030  -26.7463   20.1255 C   0  0  0  0  0  0  0  0  0  0  0  0
  -23.4078   -8.8139   22.8603 C   0  0  0  0  0  0  0  0  0  0  0  0
  -25.7822  -15.3569   22.6006 C   0  0  0  0  0  0  0  0  0  0  0  0
  -25.4156  -16.0033   19.7383 C   0  0  0  0  0  0  0  0  0  0  0  0
  -23.0112   -9.8275   21.7899 C   0  0  0  0  0  0  0  0  0  0  0  0
  -28.5195  -29.5284   20.3505 C   0  0  0  0  0  0  0  0  0  0  0  0
  -24.2240  -10.2229   20.9536 C   0  0  0  0  0  0  0  0  0  0  0  0
  -27.1535  -28.8736   20.1454 C   0  0  0  0  0  0  0  0  0  0  0  0
  -29.4715  -28.6111   21.1120 C   0  0  0  0  0  0  0  0  0  0  0  0
  -28.2745  -26.6053   20.2796 C   0  0  0  0  0  0  0  0  0  0  0  0
  -25.2977  -10.8916   21.8205 C   0  0  1  0  0  0  0  0  0  0  0  0
  -24.7368  -14.6483   21.7448 C   0  0  1  0  0  0  0  0  0  0  0  0
  -27.2970  -27.4899   19.4869 C   0  0  1  0  0  0  0  0  0  0  0  0
  -20.4396  -19.9682   18.1067 C   0  0  0  0  0  0  0  0  0  0  0  0
  -22.8969  -13.8398   17.5828 C   0  0  0  0  0  0  0  0  0  0  0  0
  -21.7606  -15.7945   16.5077 C   0  0  0  0  0  0  0  0  0  0  0  0
  -20.6708  -14.6160   18.4172 C   0  0  0  0  0  0  0  0  0  0  0  0
  -22.8428  -20.5758   20.9931 C   0  0  0  0  0  0  0  0  0  0  0  0
  -30.4951  -20.4951   17.1697 C   0  0  0  0  0  0  0  0  0  0  0  0
  -29.6804  -18.4786   18.5339 C   0  0  0  0  0  0  0  0  0  1  0  0
  -22.6867  -16.0788   18.8513 C   0  0  1  0  0  0  0  0  0  0  0  0
  -21.3040  -19.5802   19.2961 C   0  0  2  0  0  0  0  0  0  0  0  0
  -22.0291  -15.0854   17.8522 C   0  0  0  0  0  0  0  0  0  0  0  0
  -32.6082  -23.4886   17.1089 N   0  0  0  0  0  0  0  0  0  0  0  0
  -24.9757  -27.0427   20.1898 N   0  0  0  0  0  0  0  0  0  0  0  0
  -30.7369  -25.4970   19.5387 N   0  0  0  0  0  0  0  0  0  0  0  0
  -31.1429  -21.8400   17.3679 N   0  0  0  0  0  0  0  0  0  0  0  0
  -25.9521  -26.8135   19.2954 N   0  0  0  0  0  0  0  0  0  0  0  0
  -24.3447  -15.4292   20.5697 N   0  0  0  0  0  0  0  0  0  0  0  0
  -29.5560  -27.2958   20.4758 N   0  0  0  0  0  0  0  0  0  0  0  0
  -26.4510  -25.6292   17.3056 N   0  0  0  0  0  0  0  0  0  0  0  0
  -29.6241  -22.7275   18.9645 N   0  0  0  0  0  0  0  0  0  0  0  0
  -22.1641  -24.4871   18.1509 N   0  0  0  0  0  0  0  0  0  0  0  0
  -24.9349  -12.2633   22.1056 N   0  0  0  0  0  0  0  0  0  0  0  0
  -21.8752  -17.2548   19.1460 N   0  0  0  0  0  0  0  0  0  0  0  0
  -21.9776  -20.8071   19.8078 N   0  3  0  0  0  0  0  0  0  0  0  0
  -23.9254  -24.1767   16.7155 O   0  0  0  0  0  0  0  0  0  0  0  0
  -25.7682  -13.2342   20.1600 O   0  0  0  0  0  0  0  0  0  0  0  0
  -31.7604  -19.5800   19.0141 O   0  0  0  0  0  0  0  0  0  0  0  0
  -22.0779  -14.9637   20.8544 O   0  0  0  0  0  0  0  0  0  0  0  0
  -23.4352  -18.8218   18.4474 O   0  0  0  0  0  0  0  0  0  0  0  0
  -31.8568  -27.3497   20.3410 O   0  0  0  0  0  0  0  0  0  0  0  0
  -19.0755  -26.2354   22.4450 O   0  0  0  0  0  0  0  0  0  0  0  0
  -30.0333  -17.6156   19.6143 O   0  0  0  0  0  0  0  0  0  1  0  0
  -17.0344  -31.0568   24.1748 F   0  0  0  0  0  0  0  0  0  0  0  0
  -20.4859  -27.8178   24.2197 F   0  0  0  0  0  0  0  0  0  0  0  0
  1  2  1  0  0  0  0
  1  5  2  0  0  0  0
  2  6  2  0  0  0  0
  3  8  2  0  0  0  0
  3 16  1  0  0  0  0
  4  9  1  0  0  0  0
  4 16  2  0  0  0  0
  5 18  1  0  0  0  0
  6 20  1  0  0  0  0
  7 10  2  0  0  0  0
  7 19  1  0  0  0  0
  8 22  1  0  0  0  0
  9 22  2  0  0  0  0
 10 23  1  0  0  0  0
 11 12  2  0  0  0  0
 11 24  1  0  0  0  0
 12 25  1  0  0  0  0
 13 21  1  0  0  0  0
 13 23  2  0  0  0  0
 14 25  2  0  0  0  0
 14 26  1  0  0  0  0
 15 60  2  0  0  0  0
 15 63  1  0  0  0  0
 16 27  1  0  0  0  0
 17 27  1  0  0  0  0
 17 29  2  0  0  0  0
 17 32  1  0  0  0  0
 18 20  2  0  0  0  0
 18 38  1  0  0  0  0
 19 21  2  0  0  0  0
 19 39  1  0  0  0  0
 20 47  1  0  0  0  0
 21 40  1  0  0  0  0
 22 79  1  0  0  0  0
 23 80  1  0  0  0  0
 24 26  2  0  0  0  0
 24 79  1  0  0  0  0
 25 81  1  0  0  0  0
 26 82  1  0  0  0  0
 27 61  2  0  0  0  0
 28 30  2  0  0  0  0
 28 31  1  0  0  0  0
 28 60  1  0  0  0  0
 29 64  1  0  0  0  0
 29 67  1  0  0  0  0
 30 63  1  0  0  0  0
 30 68  1  0  0  0  0
 31 62  2  0  0  0  0
 32 69  1  0  0  0  0
 32 73  2  0  0  0  0
 33 48  1  0  0  0  0
 33 70  1  0  0  0  0
 33 74  2  0  0  0  0
 34 55  1  0  0  0  0
 34 56  1  0  0  0  0
 34 75  2  0  0  0  0
 35 57  1  0  0  0  0
 35 65  1  0  0  0  0
 35 76  2  0  0  0  0
 36 58  1  0  0  0  0
 36 71  1  0  0  0  0
 36 77  2  0  0  0  0
 37 62  1  0  0  0  0
 37 66  1  0  0  0  0
 37 78  2  0  0  0  0
 38 41  1  0  0  0  0
 39 48  1  0  0  0  0
 40 65  1  0  0  0  0
 41 43  1  0  0  0  0
 42 44  1  0  0  0  0
 42 45  1  0  0  0  0
 43 47  1  0  0  0  0
 44 49  1  0  0  0  0
 45 66  1  0  0  0  0
 46 49  1  0  0  0  0
 46 66  1  0  0  0  0
 47 70  1  0  0  0  0
 48 65  1  0  0  0  0
 49 64  1  0  0  0  0
 50 58  1  0  0  0  0
 51 59  1  0  0  0  0
 52 59  1  0  0  0  0
 53 59  1  0  0  0  0
 54 72  1  0  0  0  0
 55 63  1  0  0  0  0
 56 80  1  0  0  0  0
 57 59  1  0  0  0  0
 57 71  1  0  0  0  0
 58 72  1  0  0  0  0
 61 64  1  0  0  0  0
M  CHG  1  72   1
M  ISO  4  37 100  56 101  62 100  80 101
M  END
> <Batch ID>
0164

> <Smiles>
CNC(C)C(=O)NC(C(=O)N1Cc2cc([101O:1][101CH2:1]C(=O)Cn3cnc(C=[100N:0][100C:0](=O)N4CCCC(n5nc(-c6ccc(Oc7ccc(F)cc7F)cc6)c(C(N)=O)c5N)C4)c3N)ccc2CC1C(=O)NC1CCCc2ccccc21)C(C)(C)C

> <Shape>
0.238

> <Color>
0.068

> <Negative vol penalty>
0.000

$$$$

  -OEChem-04052304023D

 85 93  0     1  0  0  0  0  0999 V2000
  -30.9680  -33.7514   23.7558 C   0  0  0  0  0  0  0  0  0  0  0  0
  -30.6123  -32.4993   23.2648 C   0  0  0  0  0  0  0  0  0  0  0  0
  -22.7268   -9.9432   20.3148 C   0  0  0  0  0  0  0  0  0  0  0  0
  -24.2620   -9.3459   22.0822 C   0  0  0  0  0  0  0  0  0  0  0  0
  -30.0560  -34.4877   24.5108 C   0  0  0  0  0  0  0  0  0  0  0  0
  -29.3446  -31.9822   23.5295 C   0  0  0  0  0  0  0  0  0  0  0  0
  -27.1927  -29.9222   19.4343 C   0  0  0  0  0  0  0  0  0  0  0  0
  -22.2452   -8.6344   20.2908 C   0  0  0  0  0  0  0  0  0  0  0  0
  -23.7803   -8.0371   22.0582 C   0  0  0  0  0  0  0  0  0  0  0  0
  -27.6250  -28.6509   19.0593 C   0  0  0  0  0  0  0  0  0  0  0  0
  -21.0893   -6.3534   23.2175 C   0  0  0  0  0  0  0  0  0  0  0  0
  -20.8169   -5.7423   24.4414 C   0  0  0  0  0  0  0  0  0  0  0  0
  -25.6803  -27.6859   20.1110 C   0  0  0  0  0  0  0  0  0  0  0  0
  -29.7512  -19.7360   21.2970 C   0  0  0  0  0  0  0  0  0  0  0  0
  -22.4302   -4.0157   23.9382 C   0  0  0  0  0  0  0  0  0  0  0  0
  -23.7353  -10.2990   21.2105 C   0  0  0  0  0  0  0  0  0  0  0  0
  -23.7527  -12.7199   22.0147 C   0  0  0  0  0  0  0  0  0  0  0  0
  -28.7731  -33.9835   24.7768 C   0  0  0  0  0  0  0  0  0  0  0  0
  -26.0045  -30.0843   20.1612 C   0  0  0  0  0  0  0  0  0  0  0  0
  -28.4150  -32.7119   24.2900 C   0  0  0  0  0  0  0  0  0  0  0  0
  -25.2338  -28.9605   20.4918 C   0  0  0  0  0  0  0  0  0  0  0  0
  -29.2551  -18.7594   22.1933 C   0  0  0  0  0  0  0  0  0  0  0  0
  -22.7719   -7.6813   21.1626 C   0  0  0  0  0  0  0  0  0  0  0  0
  -26.8703  -27.5322   19.4002 C   0  0  0  0  0  0  0  0  0  0  0  0
  -22.0321   -5.7957   22.3540 C   0  0  0  0  0  0  0  0  0  0  0  0
  -21.4873   -4.5734   24.8018 C   0  0  0  0  0  0  0  0  0  0  0  0
  -22.7026   -4.6269   22.7143 C   0  0  0  0  0  0  0  0  0  0  0  0
  -24.2336  -11.6507   21.2353 C   0  0  0  0  0  0  0  0  0  0  0  0
  -28.0637  -19.2515   22.6732 C   0  0  0  0  0  0  0  0  0  0  0  0
  -24.5567  -13.7806   21.6759 C   0  0  0  0  0  0  0  0  0  0  0  0
  -28.8275  -20.7552   21.2929 C   0  0  0  0  0  0  0  0  0  0  0  0
  -22.6755  -12.7513   22.9604 C   0  0  0  0  0  0  0  0  0  0  0  0
  -27.1213  -18.7177   23.5977 C   0  0  0  0  0  0  0  0  0  0  0  0
  -25.2701  -31.2360   23.0314 C   0  0  0  0  0  0  0  0  0  0  0  0
  -27.9827  -24.1175   19.8566 C   0  0  0  0  0  0  0  0  0  0  0  0
  -22.2268  -30.7735   22.0083 C   0  0  0  0  0  0  0  0  0  0  0  0
  -20.0900  -29.1121   19.9297 C   0  0  0  0  0  0  0  0  0  0  0  0
  -29.6018  -15.9219   20.6234 C   0  0  0  0  0  0  0  0  0  0  0  0
  -27.8381  -34.7956   25.6375 C   0  0  0  0  0  0  0  0  0  0  0  0
  -25.5382  -31.4646   20.5350 C   0  0  0  0  0  0  0  0  0  0  0  0
  -23.9403  -29.0823   21.2538 C   0  0  0  0  0  0  0  0  0  0  0  0
  -26.3840  -34.3380   25.5569 C   0  0  0  0  0  0  0  0  0  0  0  0
  -27.9236  -14.2971   17.9364 C   0  0  0  0  0  0  0  0  0  0  0  0
  -26.2943  -32.8204   25.6814 C   0  0  0  0  0  0  0  0  0  0  0  0
  -26.7788  -13.5474   18.6200 C   0  0  0  0  0  0  0  0  0  0  0  0
  -29.1865  -14.3031   18.7949 C   0  0  0  0  0  0  0  0  0  0  0  0
  -27.8537  -14.0542   20.8530 C   0  0  0  0  0  0  0  0  0  0  0  0
  -27.0407  -32.1277   24.5349 C   0  0  1  0  0  0  0  0  0  0  0  0
  -24.5764  -31.4700   21.7192 C   0  0  1  0  0  0  0  0  0  0  0  0
  -26.5418  -14.0692   20.0500 C   0  0  2  0  0  0  0  0  0  0  0  0
  -25.8829  -19.5297   23.9191 C   0  0  0  0  0  0  0  0  0  0  0  0
  -17.6558  -28.9214   19.3502 C   0  0  0  0  0  0  0  0  0  0  0  0
  -21.7508  -29.1554   24.5509 C   0  0  0  0  0  0  0  0  0  0  0  0
  -19.6845  -28.2235   23.4877 C   0  0  0  0  0  0  0  0  0  0  0  0
  -19.8692  -30.6745   23.9135 C   0  0  0  0  0  0  0  0  0  0  0  0
  -20.5676  -29.9742   17.1391 C   0  0  0  0  0  0  0  0  0  0  0  0
  -29.8937  -17.4754   22.5367 C   0  0  0  0  0  0  0  0  0  0  0  0
  -27.7114  -22.9166   20.7376 C   0  0  0  0  0  0  0  0  0  0  0  0
  -26.9269  -25.2055   19.8891 C   0  0  0  0  0  0  0  0  0  1  0  0
  -21.2419  -29.6308   22.0647 C   0  0  1  0  0  0  0  0  0  0  0  0
  -18.9742  -29.6072   19.0272 C   0  0  2  0  0  0  0  0  0  0  0  0
  -20.6619  -29.4182   23.4915 C   0  0  0  0  0  0  0  0  0  0  0  0
  -25.2633  -12.0003   20.4597 N   0  0  0  0  0  0  0  0  0  0  0  0
  -25.4359  -13.3011   20.7500 N   0  0  0  0  0  0  0  0  0  0  0  0
  -23.5298  -30.4526   21.6021 N   0  0  0  0  0  0  0  0  0  0  0  0
  -28.8937  -14.8103   20.1377 N   0  0  0  0  0  0  0  0  0  0  0  0
  -24.5903  -15.0674   22.0825 N   0  0  0  0  0  0  0  0  0  0  0  0
  -21.9525  -11.5726   23.1890 N   0  0  0  0  0  0  0  0  0  0  0  0
  -28.7820  -21.9614   20.6087 N   0  0  0  0  0  0  0  0  0  0  0  0
  -26.2511  -32.1645   23.3226 N   0  0  0  0  0  0  0  0  0  0  0  0
  -20.2355  -29.9086   21.0458 N   0  0  0  0  0  0  0  0  0  0  0  0
  -29.2582  -16.3419   21.9026 N   0  0  0  0  0  0  0  0  0  0  0  0
  -19.3057  -29.3394   17.5992 N   0  3  0  0  0  0  0  0  0  0  0  0
  -22.3528  -13.7979   23.5720 O   0  0  0  0  0  0  0  0  0  0  0  0
  -27.2124  -17.6214   24.1924 O   0  0  0  0  0  0  0  0  0  0  0  0
  -24.9387  -30.2843   23.7287 O   0  0  0  0  0  0  0  0  0  0  0  0
  -28.9895  -24.2150   19.1561 O   0  0  0  0  0  0  0  0  0  0  0  0
  -21.8519  -31.9102   22.3065 O   0  0  0  0  0  0  0  0  0  0  0  0
  -20.7625  -28.1162   19.6723 O   0  0  0  0  0  0  0  0  0  0  0  0
  -30.4718  -16.5007   19.9638 O   0  0  0  0  0  0  0  0  0  0  0  0
  -27.7957  -20.4676   22.1291 O   0  0  0  0  0  0  0  0  0  0  0  0
  -22.3020   -6.4041   21.1396 O   0  0  0  0  0  0  0  0  0  0  0  0
  -27.2903  -26.2901   19.0359 O   0  0  0  0  0  0  0  0  0  1  0  0
  -21.2268   -3.9874   25.9777 F   0  0  0  0  0  0  0  0  0  0  0  0
  -23.6102   -4.0870   21.8894 F   0  0  0  0  0  0  0  0  0  0  0  0
  1  2  1  0  0  0  0
  1  5  2  0  0  0  0
  2  6  2  0  0  0  0
  3  8  2  0  0  0  0
  3 16  1  0  0  0  0
  4  9  1  0  0  0  0
  4 16  2  0  0  0  0
  5 18  1  0  0  0  0
  6 20  1  0  0  0  0
  7 10  2  0  0  0  0
  7 19  1  0  0  0  0
  8 23  1  0  0  0  0
  9 23  2  0  0  0  0
 10 24  1  0  0  0  0
 11 12  2  0  0  0  0
 11 25  1  0  0  0  0
 12 26  1  0  0  0  0
 13 21  1  0  0  0  0
 13 24  2  0  0  0  0
 14 22  1  0  0  0  0
 14 31  2  0  0  0  0
 15 26  2  0  0  0  0
 15 27  1  0  0  0  0
 16 28  1  0  0  0  0
 17 28  1  0  0  0  0
 17 30  2  0  0  0  0
 17 32  1  0  0  0  0
 18 20  2  0  0  0  0
 18 39  1  0  0  0  0
 19 21  2  0  0  0  0
 19 40  1  0  0  0  0
 20 48  1  0  0  0  0
 21 41  1  0  0  0  0
 22 29  2  0  0  0  0
 22 57  1  0  0  0  0
 23 82  1  0  0  0  0
 24 83  1  0  0  0  0
 25 27  2  0  0  0  0
 25 82  1  0  0  0  0
 26 84  1  0  0  0  0
 27 85  1  0  0  0  0
 28 63  2  0  0  0  0
 29 33  1  0  0  0  0
 29 81  1  0  0  0  0
 30 64  1  0  0  0  0
 30 67  1  0  0  0  0
 31 69  1  0  0  0  0
 31 81  1  0  0  0  0
 32 68  1  0  0  0  0
 32 74  2  0  0  0  0
 33 51  1  0  0  0  0
 33 75  2  0  0  0  0
 34 49  1  0  0  0  0
 34 70  1  0  0  0  0
 34 76  2  0  0  0  0
 35 58  1  0  0  0  0
 35 59  1  0  0  0  0
 35 77  2  0  0  0  0
 36 60  1  0  0  0  0
 36 65  1  0  0  0  0
 36 78  2  0  0  0  0
 37 61  1  0  0  0  0
 37 71  1  0  0  0  0
 37 79  2  0  0  0  0
 38 66  1  0  0  0  0
 38 72  1  0  0  0  0
 38 80  2  0  0  0  0
 39 42  1  0  0  0  0
 40 49  1  0  0  0  0
 41 65  1  0  0  0  0
 42 44  1  0  0  0  0
 43 45  1  0  0  0  0
 43 46  1  0  0  0  0
 44 48  1  0  0  0  0
 45 50  1  0  0  0  0
 46 66  1  0  0  0  0
 47 50  1  0  0  0  0
 47 66  1  0  0  0  0
 48 70  1  0  0  0  0
 49 65  1  0  0  0  0
 50 64  1  0  0  0  0
 52 61  1  0  0  0  0
 53 62  1  0  0  0  0
 54 62  1  0  0  0  0
 55 62  1  0  0  0  0
 56 73  1  0  0  0  0
 57 72  1  0  0  0  0
 58 69  1  0  0  0  0
 59 83  1  0  0  0  0
 60 62  1  0  0  0  0
 60 71  1  0  0  0  0
 61 73  1  0  0  0  0
 63 64  1  0  0  0  0
M  CHG  1  73   1
M  ISO  4  38 100  59 101  72 100  83 101
M  END
> <Batch ID>
0164

> <Smiles>
CNC(C)C(=O)NC(C(=O)N1Cc2cc([101O:1][101CH2:1]C(=O)CNc3cc(C[100NH:0][100C:0](=O)N4CCCC(n5nc(-c6ccc(Oc7ccc(F)cc7F)cc6)c(C(N)=O)c5N)C4)c(C(C)=O)o3)ccc2CC1C(=O)NC1CCCc2ccccc21)C(C)(C)C

> <Shape>
0.337

> <Color>
0.111

> <Negative vol penalty>
0.000

$$$$

  -OEChem-04052304023D

 89 97  0     1  0  0  0  0  0999 V2000
  -17.0097  -29.7598   24.4845 C   0  0  0  0  0  0  0  0  0  0  0  0
  -18.2503  -29.8376   25.1093 C   0  0  0  0  0  0  0  0  0  0  0  0
  -26.5183  -13.1835   20.3083 C   0  0  0  0  0  0  0  0  0  0  0  0
  -24.8511  -14.9317   20.3437 C   0  0  0  0  0  0  0  0  0  0  0  0
  -16.8842  -29.0914   23.2674 C   0  0  0  0  0  0  0  0  0  0  0  0
  -19.3659  -29.2462   24.5177 C   0  0  0  0  0  0  0  0  0  0  0  0
  -25.1366  -31.2906   24.6786 C   0  0  0  0  0  0  0  0  0  0  0  0
  -25.5137  -12.2285   20.1532 C   0  0  0  0  0  0  0  0  0  0  0  0
  -23.8464  -13.9766   20.1885 C   0  0  0  0  0  0  0  0  0  0  0  0
  -26.2320  -30.9462   25.4694 C   0  0  0  0  0  0  0  0  0  0  0  0
  -23.3606   -9.2983   20.1087 C   0  0  0  0  0  0  0  0  0  0  0  0
  -23.4337   -8.1451   20.8900 C   0  0  0  0  0  0  0  0  0  0  0  0
  -27.0023  -29.4506   23.7405 C   0  0  0  0  0  0  0  0  0  0  0  0
  -29.6153  -25.5300   22.6753 C   0  0  0  0  0  0  0  0  0  0  0  0
  -29.7945  -23.5683   24.0741 C   0  0  0  0  0  0  0  0  0  0  0  0
  -23.3262   -9.4942   22.8913 C   0  0  0  0  0  0  0  0  0  0  0  0
  -26.1870  -14.5352   20.4036 C   0  0  0  0  0  0  0  0  0  0  0  0
  -27.9159  -16.2026   19.5443 C   0  0  0  0  0  0  0  0  0  0  0  0
  -18.0007  -28.4998   22.6558 C   0  0  0  0  0  0  0  0  0  0  0  0
  -24.9597  -30.7083   23.4152 C   0  0  0  0  0  0  0  0  0  0  0  0
  -19.2550  -28.5681   23.2919 C   0  0  0  0  0  0  0  0  0  0  0  0
  -25.9052  -29.7912   22.9346 C   0  0  0  0  0  0  0  0  0  0  0  0
  -29.5685  -24.7179   21.5423 C   0  0  0  0  0  0  0  0  0  0  0  0
  -29.6346  -23.3309   21.6751 C   0  0  0  0  0  0  0  0  0  0  0  0
  -29.7284  -24.9552   23.9413 C   0  0  0  0  0  0  0  0  0  0  0  0
  -29.7476  -22.7561   22.9410 C   0  0  0  0  0  0  0  0  0  0  0  0
  -24.1777  -12.6250   20.0933 C   0  0  0  0  0  0  0  0  0  0  0  0
  -27.1635  -30.0240   25.0016 C   0  0  0  0  0  0  0  0  0  0  0  0
  -23.2704  -10.5495   20.7187 C   0  0  0  0  0  0  0  0  0  0  0  0
  -23.4165   -8.2431   22.2813 C   0  0  0  0  0  0  0  0  0  0  0  0
  -23.2531  -10.6474   22.1100 C   0  0  0  0  0  0  0  0  0  0  0  0
  -27.2244  -15.5222   20.5644 C   0  0  0  0  0  0  0  0  0  0  0  0
  -28.7907  -17.0246   20.2118 C   0  0  0  0  0  0  0  0  0  0  0  0
  -27.7796  -16.1008   18.1207 C   0  0  0  0  0  0  0  0  0  0  0  0
  -22.7338  -28.8706   22.0840 C   0  0  0  0  0  0  0  0  0  0  0  0
  -30.7482  -25.3792   19.4083 C   0  0  0  0  0  0  0  0  0  0  0  0
  -28.7510  -27.3036   27.4180 C   0  0  0  0  0  0  0  0  0  0  0  0
  -24.5015  -29.3415   19.4053 C   0  0  0  0  0  0  0  0  0  0  0  0
  -27.5304  -30.1030   18.0296 C   0  0  0  0  0  0  0  0  0  0  0  0
  -29.9298  -20.6378   24.2923 C   0  0  0  0  0  0  0  0  0  0  0  0
  -17.8067  -27.7473   21.3632 C   0  0  0  0  0  0  0  0  0  0  0  0
  -23.7870  -31.1105   22.5634 C   0  0  0  0  0  0  0  0  0  0  0  0
  -25.7718  -29.1529   21.5769 C   0  0  0  0  0  0  0  0  0  0  0  0
  -19.1100  -27.4701   20.6183 C   0  0  0  0  0  0  0  0  0  0  0  0
  -30.0910  -17.1742   25.1015 C   0  0  0  0  0  0  0  0  0  0  0  0
  -20.1692  -26.9348   21.5766 C   0  0  0  0  0  0  0  0  0  0  0  0
  -29.4164  -16.4916   23.9093 C   0  0  0  0  0  0  0  0  0  0  0  0
  -29.4177  -18.5001   25.4513 C   0  0  0  0  0  0  0  0  0  0  0  0
  -28.6053  -18.7581   23.1399 C   0  0  0  0  0  0  0  0  0  0  0  0
  -20.4933  -27.9605   22.6695 C   0  0  1  0  0  0  0  0  0  0  0  0
  -23.4315  -30.0695   21.5064 C   0  0  1  0  0  0  0  0  0  0  0  0
  -29.2890  -17.4502   22.7091 C   0  0  2  0  0  0  0  0  0  0  0  0
  -29.5849  -22.4640   20.4560 C   0  0  0  0  0  0  0  0  0  0  0  0
  -30.7082  -26.0667   18.0678 C   0  0  0  0  0  0  0  0  0  0  0  0
  -28.6749  -30.3743   15.8128 C   0  0  0  0  0  0  0  0  0  0  0  0
  -24.5978  -26.3085   19.0866 C   0  0  0  0  0  0  0  0  0  0  0  0
  -26.4876  -26.6080   17.4718 C   0  0  0  0  0  0  0  0  0  0  0  0
  -24.2447  -27.5706   16.9566 C   0  0  0  0  0  0  0  0  0  0  0  0
  -28.1708  -32.9402   18.5765 C   0  0  0  0  0  0  0  0  0  0  0  0
  -29.4480  -25.3589   20.1984 C   0  0  0  0  0  0  0  0  0  0  0  0
  -29.9805  -26.4038   27.4087 C   0  0  0  0  0  0  0  0  0  0  0  0
  -28.9990  -28.7431   27.8494 C   0  0  0  0  0  0  0  0  0  0  0  0
  -29.8904  -25.2543   26.4131 C   0  0  0  0  0  0  0  0  0  0  0  0
  -28.0568  -29.7363   27.1868 C   0  0  0  0  0  0  0  0  0  1  0  0
  -25.6668  -28.6352   18.7555 C   0  0  1  0  0  0  0  0  0  0  0  0
  -27.9224  -31.0763   16.9325 C   0  0  2  0  0  0  0  0  0  0  0  0
  -25.2510  -27.2910   18.0940 C   0  0  0  0  0  0  0  0  0  0  0  0
  -27.6254  -15.8806   21.7870 N   0  0  0  0  0  0  0  0  0  0  0  0
  -28.5785  -16.7952   21.5394 N   0  0  0  0  0  0  0  0  0  0  0  0
  -24.6049  -29.5737   20.7841 N   0  0  0  0  0  0  0  0  0  0  0  0
  -29.3358  -19.3582   24.2673 N   0  0  0  0  0  0  0  0  0  0  0  0
  -29.7131  -17.9139   19.7868 N   0  0  0  0  0  0  0  0  0  0  0  0
  -26.8326  -15.2071   17.6024 N   0  0  0  0  0  0  0  0  0  0  0  0
  -29.8163  -21.3496   23.0986 N   0  0  0  0  0  0  0  0  0  0  0  0
  -29.7744  -25.7625   25.0664 N   0  0  0  0  0  0  0  0  0  0  0  0
  -21.3593  -28.9968   22.1492 N   0  0  0  0  0  0  0  0  0  0  0  0
  -26.2635  -29.5955   17.8334 N   0  0  0  0  0  0  0  0  0  0  0  0
  -28.7945  -32.1525   17.4821 N   0  3  0  0  0  0  0  0  0  0  0  0
  -28.4884  -16.7702   17.3314 O   0  0  0  0  0  0  0  0  0  0  0  0
  -23.3936  -27.9022   22.4426 O   0  0  0  0  0  0  0  0  0  0  0  0
  -31.7869  -24.8675   19.8244 O   0  0  0  0  0  0  0  0  0  0  0  0
  -27.6334  -26.8927   27.1105 O   0  0  0  0  0  0  0  0  0  0  0  0
  -23.5383  -29.6812   18.7136 O   0  0  0  0  0  0  0  0  0  0  0  0
  -28.2752  -29.8184   18.9649 O   0  0  0  0  0  0  0  0  0  0  0  0
  -30.5210  -21.0594   25.2897 O   0  0  0  0  0  0  0  0  0  0  0  0
  -23.1971  -11.6934   19.9417 O   0  0  0  0  0  0  0  0  0  0  0  0
  -28.2332  -29.6856   25.7716 O   0  0  0  0  0  0  0  0  0  1  0  0
  -23.4851   -7.1355   23.0314 F   0  0  0  0  0  0  0  0  0  0  0  0
  -23.1654  -11.8466   22.7018 F   0  0  0  0  0  0  0  0  0  0  0  0
  1  2  1  0  0  0  0
  1  5  2  0  0  0  0
  2  6  2  0  0  0  0
  3  8  2  0  0  0  0
  3 17  1  0  0  0  0
  4  9  1  0  0  0  0
  4 17  2  0  0  0  0
  5 19  1  0  0  0  0
  6 21  1  0  0  0  0
  7 10  2  0  0  0  0
  7 20  1  0  0  0  0
  8 27  1  0  0  0  0
  9 27  2  0  0  0  0
 10 28  1  0  0  0  0
 11 12  2  0  0  0  0
 11 29  1  0  0  0  0
 12 30  1  0  0  0  0
 13 22  1  0  0  0  0
 13 28  2  0  0  0  0
 14 23  2  0  0  0  0
 14 25  1  0  0  0  0
 15 25  2  0  0  0  0
 15 26  1  0  0  0  0
 16 30  2  0  0  0  0
 16 31  1  0  0  0  0
 17 32  1  0  0  0  0
 18 32  1  0  0  0  0
 18 33  2  0  0  0  0
 18 34  1  0  0  0  0
 19 21  2  0  0  0  0
 19 41  1  0  0  0  0
 20 22  2  0  0  0  0
 20 42  1  0  0  0  0
 21 50  1  0  0  0  0
 22 43  1  0  0  0  0
 23 24  1  0  0  0  0
 23 60  1  0  0  0  0
 24 26  2  0  0  0  0
 24 53  1  0  0  0  0
 25 75  1  0  0  0  0
 26 74  1  0  0  0  0
 27 86  1  0  0  0  0
 28 87  1  0  0  0  0
 29 31  2  0  0  0  0
 29 86  1  0  0  0  0
 30 88  1  0  0  0  0
 31 89  1  0  0  0  0
 32 68  2  0  0  0  0
 33 69  1  0  0  0  0
 33 72  1  0  0  0  0
 34 73  1  0  0  0  0
 34 79  2  0  0  0  0
 35 51  1  0  0  0  0
 35 76  1  0  0  0  0
 35 80  2  0  0  0  0
 36 54  1  0  0  0  0
 36 60  1  0  0  0  0
 36 81  2  0  0  0  0
 37 61  1  0  0  0  0
 37 62  1  0  0  0  0
 37 82  2  0  0  0  0
 38 65  1  0  0  0  0
 38 70  1  0  0  0  0
 38 83  2  0  0  0  0
 39 66  1  0  0  0  0
 39 77  1  0  0  0  0
 39 84  2  0  0  0  0
 40 71  1  0  0  0  0
 40 74  1  0  0  0  0
 40 85  2  0  0  0  0
 41 44  1  0  0  0  0
 42 51  1  0  0  0  0
 43 70  1  0  0  0  0
 44 46  1  0  0  0  0
 45 47  1  0  0  0  0
 45 48  1  0  0  0  0
 46 50  1  0  0  0  0
 47 52  1  0  0  0  0
 48 71  1  0  0  0  0
 49 52  1  0  0  0  0
 49 71  1  0  0  0  0
 50 76  1  0  0  0  0
 51 70  1  0  0  0  0
 52 69  1  0  0  0  0
 55 66  1  0  0  0  0
 56 67  1  0  0  0  0
 57 67  1  0  0  0  0
 58 67  1  0  0  0  0
 59 78  1  0  0  0  0
 61 63  1  0  0  0  0
 62 64  1  0  0  0  0
 63 75  1  0  0  0  0
 64 87  1  0  0  0  0
 65 67  1  0  0  0  0
 65 77  1  0  0  0  0
 66 78  1  0  0  0  0
 68 69  1  0  0  0  0
M  CHG  1  78   1
M  ISO  4  40 100  64 101  74 100  87 101
M  END
> <Batch ID>
0164

> <Smiles>
CNC(C)C(=O)NC(C(=O)N1Cc2cc([101O:1][101CH2:1]CC(=O)CCNc3cc(CC(C)=O)c(C)c([100NH:0][100C:0](=O)N4CCCC(n5nc(-c6ccc(Oc7ccc(F)cc7F)cc6)c(C(N)=O)c5N)C4)c3)ccc2CC1C(=O)NC1CCCc2ccccc21)C(C)(C)C

> <Shape>
0.285

> <Color>
0.092

> <Negative vol penalty>
0.000

$$$$

  -OEChem-04052304023D

 90 98  0     1  0  0  0  0  0999 V2000
  -20.4430  -31.0174   30.1546 C   0  0  0  0  0  0  0  0  0  0  0  0
  -21.2728  -30.2486   29.3448 C   0  0  0  0  0  0  0  0  0  0  0  0
  -24.7204   -8.6077   21.3942 C   0  0  0  0  0  0  0  0  0  0  0  0
  -23.1828  -10.4367   21.0374 C   0  0  0  0  0  0  0  0  0  0  0  0
  -19.9384  -32.2287   29.6833 C   0  0  0  0  0  0  0  0  0  0  0  0
  -21.5977  -30.6902   28.0627 C   0  0  0  0  0  0  0  0  0  0  0  0
  -26.9060  -29.8688   25.1211 C   0  0  0  0  0  0  0  0  0  0  0  0
  -23.8611   -8.0725   22.3538 C   0  0  0  0  0  0  0  0  0  0  0  0
  -22.3234   -9.9015   21.9970 C   0  0  0  0  0  0  0  0  0  0  0  0
  -27.3120  -28.9454   24.1587 C   0  0  0  0  0  0  0  0  0  0  0  0
  -21.0007   -6.2702   22.4081 C   0  0  0  0  0  0  0  0  0  0  0  0
  -20.7502   -4.8989   22.3612 C   0  0  0  0  0  0  0  0  0  0  0  0
  -26.1666  -20.1960   20.4838 C   0  0  0  0  0  0  0  0  0  0  0  0
  -25.8126  -17.9911   19.5619 C   0  0  0  0  0  0  0  0  0  0  0  0
  -26.8057  -30.5415   22.4223 C   0  0  0  0  0  0  0  0  0  0  0  0
  -27.9733  -18.5922   20.4604 C   0  0  0  0  0  0  0  0  0  0  0  0
  -21.6509   -4.6581   24.5901 C   0  0  0  0  0  0  0  0  0  0  0  0
  -24.3812   -9.7898   20.7360 C   0  0  0  0  0  0  0  0  0  0  0  0
  -25.3284  -19.2607   19.8770 C   0  0  0  0  0  0  0  0  0  0  0  0
  -25.2719  -10.0767   18.3628 C   0  0  0  0  0  0  0  0  0  0  0  0
  -20.2651  -32.6900   28.3983 C   0  0  0  0  0  0  0  0  0  0  0  0
  -26.4358  -31.1338   24.7400 C   0  0  0  0  0  0  0  0  0  0  0  0
  -21.0960  -31.9082   27.5732 C   0  0  0  0  0  0  0  0  0  0  0  0
  -26.3967  -31.4801   23.3819 C   0  0  0  0  0  0  0  0  0  0  0  0
  -27.4891  -19.8618   20.7755 C   0  0  0  0  0  0  0  0  0  0  0  0
  -27.1351  -17.6568   19.8536 C   0  0  0  0  0  0  0  0  0  0  0  0
  -22.6627   -8.7194   22.6552 C   0  0  0  0  0  0  0  0  0  0  0  0
  -27.2591  -29.2805   22.8089 C   0  0  0  0  0  0  0  0  0  0  0  0
  -21.5764   -6.8356   23.5460 C   0  0  0  0  0  0  0  0  0  0  0  0
  -21.0752   -4.0928   23.4522 C   0  0  0  0  0  0  0  0  0  0  0  0
  -21.9015   -6.0295   24.6370 C   0  0  0  0  0  0  0  0  0  0  0  0
  -25.2687  -10.3435   19.7451 C   0  0  0  0  0  0  0  0  0  0  0  0
  -26.2979  -10.8438   17.8675 C   0  0  0  0  0  0  0  0  0  0  0  0
  -29.0436  -24.8858   21.5301 C   0  0  0  0  0  0  0  0  0  0  0  0
  -29.0010  -21.5683   20.5837 C   0  0  0  0  0  0  0  0  0  0  0  0
  -23.9576  -19.6073   19.5736 C   0  0  0  0  0  0  0  0  0  0  0  0
  -24.4232   -9.2129   17.5952 C   0  0  0  0  0  0  0  0  0  0  0  0
  -29.4582  -23.9613   20.6455 C   0  0  0  0  0  0  0  0  0  0  0  0
  -28.5209  -26.2365   21.1671 C   0  0  0  0  0  0  0  0  0  0  0  0
  -23.6828  -32.6915   25.0538 C   0  0  0  0  0  0  0  0  0  0  0  0
  -25.3730  -35.1447   23.7702 C   0  0  0  0  0  0  0  0  0  0  0  0
  -28.0216  -36.1572   21.8711 C   0  0  0  0  0  0  0  0  0  0  0  0
  -28.9127  -15.8744   19.7544 C   0  0  0  0  0  0  0  0  0  0  0  0
  -19.6575  -33.9830   27.9150 C   0  0  0  0  0  0  0  0  0  0  0  0
  -26.0267  -32.1282   25.7918 C   0  0  0  0  0  0  0  0  0  0  0  0
  -25.9191  -32.8323   22.9217 C   0  0  0  0  0  0  0  0  0  0  0  0
  -20.3521  -34.5598   26.6841 C   0  0  0  0  0  0  0  0  0  0  0  0
  -30.5029  -12.7481   19.1428 C   0  0  0  0  0  0  0  0  0  0  0  0
  -20.5795  -33.4710   25.6402 C   0  0  0  0  0  0  0  0  0  0  0  0
  -29.3408  -11.7533   19.0960 C   0  0  0  0  0  0  0  0  0  0  0  0
  -30.2729  -13.8401   20.1860 C   0  0  0  0  0  0  0  0  0  0  0  0
  -27.8312  -13.5562   20.0221 C   0  0  0  0  0  0  0  0  0  0  0  0
  -21.4913  -32.3654   26.1858 C   0  0  1  0  0  0  0  0  0  0  0  0
  -25.0805  -33.2018   25.2632 C   0  0  1  0  0  0  0  0  0  0  0  0
  -27.9875  -12.4744   18.9408 C   0  0  2  0  0  0  0  0  0  0  0  0
  -31.4102  -22.3561   20.6475 C   0  0  0  0  0  0  0  0  0  0  0  0
  -29.1226  -38.2237   20.9684 C   0  0  0  0  0  0  0  0  0  0  0  0
  -23.1745  -35.3954   21.6693 C   0  0  0  0  0  0  0  0  0  0  0  0
  -24.7450  -36.7747   20.2912 C   0  0  0  0  0  0  0  0  0  0  0  0
  -24.0344  -37.5746   22.5446 C   0  0  0  0  0  0  0  0  0  0  0  0
  -30.5402  -35.5874   23.3172 C   0  0  0  0  0  0  0  0  0  0  0  0
  -28.1118  -27.1120   22.3333 C   0  0  0  0  0  0  0  0  0  1  0  0
  -29.9731  -22.6134   21.0932 C   0  0  2  0  0  0  0  0  0  0  0  0
  -25.6479  -35.6361   22.3695 C   0  0  1  0  0  0  0  0  0  0  0  0
  -29.0837  -37.2160   22.1067 C   0  0  2  0  0  0  0  0  0  0  0  0
  -24.4077  -36.3189   21.7269 C   0  0  0  0  0  0  0  0  0  0  0  0
  -26.2176  -11.2120   20.1048 N   0  0  0  0  0  0  0  0  0  0  0  0
  -28.3329  -20.8037   21.3868 N   0  0  0  0  0  0  0  0  0  0  0  0
  -26.8266  -11.4976   18.9414 N   0  0  0  0  0  0  0  0  0  0  0  0
  -25.5240  -33.7679   23.9876 N   0  0  0  0  0  0  0  0  0  0  0  0
  -28.9737  -14.4820   19.9740 N   0  0  0  0  0  0  0  0  0  0  0  0
  -26.7905  -11.0159   16.6224 N   0  0  0  0  0  0  0  0  0  0  0  0
  -23.4817  -20.8278   19.8724 N   0  0  0  0  0  0  0  0  0  0  0  0
  -23.4191   -8.4979   18.2621 N   0  0  0  0  0  0  0  0  0  0  0  0
  -27.6272  -16.3674   19.5328 N   0  0  0  0  0  0  0  0  0  0  0  0
  -22.8730  -32.7954   26.1686 N   0  0  0  0  0  0  0  0  0  0  0  0
  -26.8227  -36.4962   22.4619 N   0  0  0  0  0  0  0  0  0  0  0  0
  -23.1430  -18.7139   18.9875 N   0  3  0  0  0  0  0  0  0  0  0  0
  -30.4285  -36.5841   22.2212 N   0  3  0  0  0  0  0  0  0  0  0  0
  -24.5620   -9.0665   16.3572 O   0  0  0  0  0  0  0  0  0  0  0  0
  -28.4289  -26.6117   20.0020 O   0  0  0  0  0  0  0  0  0  0  0  0
  -23.3624  -32.2386   23.9611 O   0  0  0  0  0  0  0  0  0  0  0  0
  -25.0436  -35.9538   24.6411 O   0  0  0  0  0  0  0  0  0  0  0  0
  -28.2332  -35.1338   21.2244 O   0  0  0  0  0  0  0  0  0  0  0  0
  -29.9289  -16.5736   19.7354 O   0  0  0  0  0  0  0  0  0  0  0  0
  -29.4539  -24.1426   19.2762 O   0  0  0  0  0  0  0  0  0  0  0  0
  -21.8238   -8.1973   23.5913 O   0  0  0  0  0  0  0  0  0  0  0  0
  -27.6541  -28.3808   21.8675 O   0  0  0  0  0  0  0  0  0  1  0  0
  -20.8332   -2.7762   23.4076 F   0  0  0  0  0  0  0  0  0  0  0  0
  -22.4536   -6.5670   25.7333 F   0  0  0  0  0  0  0  0  0  0  0  0
  1  2  1  0  0  0  0
  1  5  2  0  0  0  0
  2  6  2  0  0  0  0
  3  8  2  0  0  0  0
  3 18  1  0  0  0  0
  4  9  1  0  0  0  0
  4 18  2  0  0  0  0
  5 21  1  0  0  0  0
  6 23  1  0  0  0  0
  7 10  2  0  0  0  0
  7 22  1  0  0  0  0
  8 27  1  0  0  0  0
  9 27  2  0  0  0  0
 10 28  1  0  0  0  0
 11 12  2  0  0  0  0
 11 29  1  0  0  0  0
 12 30  1  0  0  0  0
 13 19  1  0  0  0  0
 13 25  2  0  0  0  0
 14 19  2  0  0  0  0
 14 26  1  0  0  0  0
 15 24  1  0  0  0  0
 15 28  2  0  0  0  0
 16 25  1  0  0  0  0
 16 26  2  0  0  0  0
 17 30  2  0  0  0  0
 17 31  1  0  0  0  0
 18 32  1  0  0  0  0
 19 36  1  0  0  0  0
 20 32  1  0  0  0  0
 20 33  2  0  0  0  0
 20 37  1  0  0  0  0
 21 23  2  0  0  0  0
 21 44  1  0  0  0  0
 22 24  2  0  0  0  0
 22 45  1  0  0  0  0
 23 53  1  0  0  0  0
 24 46  1  0  0  0  0
 25 68  1  0  0  0  0
 26 75  1  0  0  0  0
 27 87  1  0  0  0  0
 28 88  1  0  0  0  0
 29 31  2  0  0  0  0
 29 87  1  0  0  0  0
 30 89  1  0  0  0  0
 31 90  1  0  0  0  0
 32 67  2  0  0  0  0
 33 69  1  0  0  0  0
 33 72  1  0  0  0  0
 34 38  2  0  0  0  0
 34 39  1  0  0  0  0
 35 63  1  0  0  0  0
 35 68  2  0  0  0  0
 36 73  1  0  0  0  0
 36 78  2  0  0  0  0
 37 74  1  0  0  0  0
 37 80  2  0  0  0  0
 38 63  1  0  0  0  0
 38 86  1  0  0  0  0
 39 62  1  0  0  0  0
 39 81  2  0  0  0  0
 40 54  1  0  0  0  0
 40 76  1  0  0  0  0
 40 82  2  0  0  0  0
 41 64  1  0  0  0  0
 41 70  1  0  0  0  0
 41 83  2  0  0  0  0
 42 65  1  0  0  0  0
 42 77  1  0  0  0  0
 42 84  2  0  0  0  0
 43 71  1  0  0  0  0
 43 75  1  0  0  0  0
 43 85  2  0  0  0  0
 44 47  1  0  0  0  0
 45 54  1  0  0  0  0
 46 70  1  0  0  0  0
 47 49  1  0  0  0  0
 48 50  1  0  0  0  0
 48 51  1  0  0  0  0
 49 53  1  0  0  0  0
 50 55  1  0  0  0  0
 51 71  1  0  0  0  0
 52 55  1  0  0  0  0
 52 71  1  0  0  0  0
 53 76  1  0  0  0  0
 54 70  1  0  0  0  0
 55 69  1  0  0  0  0
 56 63  1  0  0  0  0
 57 65  1  0  0  0  0
 58 66  1  0  0  0  0
 59 66  1  0  0  0  0
 60 66  1  0  0  0  0
 61 79  1  0  0  0  0
 62 88  1  0  0  0  0
 64 66  1  0  0  0  0
 64 77  1  0  0  0  0
 65 79  1  0  0  0  0
 67 69  1  0  0  0  0
M  CHG  2  78   1  79   1
M  ISO  4  43 100  62 101  75 100  88 101
M  END
> <Batch ID>
0164

> <Smiles>
CNC(C)C(=O)NC(C(=O)N1Cc2cc([101O:1][101CH2:1]C(=O)CC(=O)C(C)=CNc3cc([100NH:0][100C:0](=O)N4CCCC(n5nc(-c6ccc(Oc7ccc(F)cc7F)cc6)c(C(N)=O)c5N)C4)cc(C(=N)N)c3)ccc2CC1C(=O)NC1CCCc2ccccc21)C(C)(C)C

> <Shape>
0.275

> <Color>
0.094

> <Negative vol penalty>
0.000

$$$$

  -OEChem-04052304023D

 92100  0     1  0  0  0  0  0999 V2000
  -27.3267  -37.6640   19.3546 C   0  0  0  0  0  0  0  0  0  0  0  0
  -27.8709  -36.3905   19.2223 C   0  0  0  0  0  0  0  0  0  0  0  0
  -25.5274   -8.1409   21.4009 C   0  0  0  0  0  0  0  0  0  0  0  0
  -25.4811   -9.5393   23.3705 C   0  0  0  0  0  0  0  0  0  0  0  0
  -26.3994  -37.9233   20.3629 C   0  0  0  0  0  0  0  0  0  0  0  0
  -27.4888  -35.3757   20.0991 C   0  0  0  0  0  0  0  0  0  0  0  0
  -26.8745  -29.4232   18.7969 C   0  0  0  0  0  0  0  0  0  0  0  0
  -25.9953   -7.0747   22.1689 C   0  0  0  0  0  0  0  0  0  0  0  0
  -25.9490   -8.4731   24.1385 C   0  0  0  0  0  0  0  0  0  0  0  0
  -27.7166  -28.3290   18.9901 C   0  0  0  0  0  0  0  0  0  0  0  0
  -24.7105   -4.7931   24.3081 C   0  0  0  0  0  0  0  0  0  0  0  0
  -24.1207   -3.5445   24.1113 C   0  0  0  0  0  0  0  0  0  0  0  0
  -28.0219  -18.7504   20.9594 C   0  0  0  0  0  0  0  0  0  0  0  0
  -27.7905  -19.9858   23.0227 C   0  0  0  0  0  0  0  0  0  0  0  0
  -26.5636  -27.8121   21.0450 C   0  0  0  0  0  0  0  0  0  0  0  0
  -27.0768  -17.6805   22.9085 C   0  0  0  0  0  0  0  0  0  0  0  0
  -26.2662   -2.6305   23.4802 C   0  0  0  0  0  0  0  0  0  0  0  0
  -25.2704   -9.3733   22.0017 C   0  0  0  0  0  0  0  0  0  0  0  0
  -28.1826  -19.9307   21.6852 C   0  0  0  0  0  0  0  0  0  0  0  0
  -23.4457  -10.8069   20.9420 C   0  0  0  0  0  0  0  0  0  0  0  0
  -25.9984  -36.9087   21.2464 C   0  0  0  0  0  0  0  0  0  0  0  0
  -25.8759  -29.7269   19.7334 C   0  0  0  0  0  0  0  0  0  0  0  0
  -26.5562  -35.6220   21.1210 C   0  0  0  0  0  0  0  0  0  0  0  0
  -25.7084  -28.9092   20.8601 C   0  0  0  0  0  0  0  0  0  0  0  0
  -27.4689  -17.6253   21.5711 C   0  0  0  0  0  0  0  0  0  0  0  0
  -27.2375  -18.8608   23.6344 C   0  0  0  0  0  0  0  0  0  0  0  0
  -26.2061   -7.2407   23.5377 C   0  0  0  0  0  0  0  0  0  0  0  0
  -27.5631  -27.5249   20.1158 C   0  0  0  0  0  0  0  0  0  0  0  0
  -26.0782   -4.9604   24.0909 C   0  0  0  0  0  0  0  0  0  0  0  0
  -24.8985   -2.4632   23.6974 C   0  0  0  0  0  0  0  0  0  0  0  0
  -26.8560   -3.8791   23.6770 C   0  0  0  0  0  0  0  0  0  0  0  0
  -24.7876  -10.4753   21.2088 C   0  0  0  0  0  0  0  0  0  0  0  0
  -23.5197  -11.9265   20.1498 C   0  0  0  0  0  0  0  0  0  0  0  0
  -28.7721  -21.1289   21.0341 C   0  0  0  0  0  0  0  0  0  0  0  0
  -22.2401  -10.1608   21.3718 C   0  0  0  0  0  0  0  0  0  0  0  0
  -25.2597  -32.2000   21.6329 C   0  0  0  0  0  0  0  0  0  0  0  0
  -29.7540  -25.3501   18.6601 C   0  0  0  0  0  0  0  0  0  0  0  0
  -22.5467  -30.5384   22.2663 C   0  0  0  0  0  0  0  0  0  0  0  0
  -26.4669  -19.8180   27.1801 C   0  0  0  0  0  0  0  0  0  0  0  0
  -20.9481  -27.5244   22.3498 C   0  0  0  0  0  0  0  0  0  0  0  0
  -27.6433  -16.2019   19.4999 C   0  0  0  0  0  0  0  0  0  0  0  0
  -25.0286  -37.2487   22.3502 C   0  0  0  0  0  0  0  0  0  0  0  0
  -24.9584  -30.8951   19.4969 C   0  0  0  0  0  0  0  0  0  0  0  0
  -24.6387  -29.1806   21.8850 C   0  0  0  0  0  0  0  0  0  0  0  0
  -24.3952  -36.0231   23.0035 C   0  0  0  0  0  0  0  0  0  0  0  0
  -26.3676  -14.0687   16.9506 C   0  0  0  0  0  0  0  0  0  0  0  0
  -25.4589  -34.9758   23.3174 C   0  0  0  0  0  0  0  0  0  0  0  0
  -25.6902  -12.9384   17.7290 C   0  0  0  0  0  0  0  0  0  0  0  0
  -27.6412  -14.5503   17.6432 C   0  0  0  0  0  0  0  0  0  0  0  0
  -26.7998  -13.7949   19.8319 C   0  0  0  0  0  0  0  0  0  0  0  0
  -26.1482  -34.4887   22.0371 C   0  0  1  0  0  0  0  0  0  0  0  0
  -24.3085  -31.4131   20.7762 C   0  0  1  0  0  0  0  0  0  0  0  0
  -25.4776  -13.3206   19.2069 C   0  0  2  0  0  0  0  0  0  0  0  0
  -29.9188  -24.3778   17.5202 C   0  0  0  0  0  0  0  0  0  0  0  0
  -18.7472  -26.4778   22.9483 C   0  0  0  0  0  0  0  0  0  0  0  0
  -23.2419  -30.7758   25.2278 C   0  0  0  0  0  0  0  0  0  0  0  0
  -21.5880  -28.9540   25.6906 C   0  0  0  0  0  0  0  0  0  0  0  0
  -20.8213  -31.1087   24.6945 C   0  0  0  0  0  0  0  0  0  0  0  0
  -26.1639  -20.9606   29.3747 C   0  0  0  0  0  0  0  0  0  0  0  0
  -20.5209  -26.5636   19.5834 C   0  0  0  0  0  0  0  0  0  0  0  0
  -26.9775  -20.0925   25.7886 C   0  0  0  0  0  0  0  0  0  0  0  0
  -27.9219  -24.1209   19.9257 C   0  0  0  0  0  0  0  0  0  0  0  0
  -28.8568  -23.6086   21.0202 C   0  0  0  0  0  0  0  0  0  0  0  0
  -28.3749  -25.4424   19.3034 C   0  0  1  0  0  0  0  0  0  1  0  0
  -22.1466  -29.4894   23.2755 C   0  0  1  0  0  0  0  0  0  0  0  0
  -19.5857  -27.0923   21.8383 C   0  0  2  0  0  0  0  0  0  0  0  0
  -21.9709  -30.0777   24.7040 C   0  0  0  0  0  0  0  0  0  0  0  0
  -25.6509  -11.3160   20.6328 N   0  0  0  0  0  0  0  0  0  0  0  0
  -24.8496  -12.1871   19.9960 N   0  0  0  0  0  0  0  0  0  0  0  0
  -23.7706  -30.3380   21.6123 N   0  0  0  0  0  0  0  0  0  0  0  0
  -27.3622  -14.8986   19.0381 N   0  0  0  0  0  0  0  0  0  0  0  0
  -22.5763  -12.7037   19.5768 N   0  0  0  0  0  0  0  0  0  0  0  0
  -22.3448   -9.0219   22.1820 N   0  0  0  0  0  0  0  0  0  0  0  0
  -27.3061  -16.4260   20.8343 N   0  0  0  0  0  0  0  0  0  0  0  0
  -26.8411  -18.9161   24.9867 N   0  0  0  0  0  0  0  0  0  0  0  0
  -28.3911  -22.3588   21.5574 N   0  0  0  0  0  0  0  0  0  0  0  0
  -25.3020  -33.5485   21.3339 N   0  0  0  0  0  0  0  0  0  0  0  0
  -26.5801  -20.9383   27.9909 N   0  0  0  0  0  0  0  0  0  0  0  0
  -20.9504  -28.8460   22.7430 N   0  0  0  0  0  0  0  0  0  0  0  0
  -19.7365  -26.0847   20.7506 N   0  3  0  0  0  0  0  0  0  0  0  0
  -29.5299  -20.9811   20.0790 O   0  0  0  0  0  0  0  0  0  0  0  0
  -21.1041  -10.5713   21.0336 O   0  0  0  0  0  0  0  0  0  0  0  0
  -25.9061  -31.6265   22.5018 O   0  0  0  0  0  0  0  0  0  0  0  0
  -30.6997  -26.0400   19.0418 O   0  0  0  0  0  0  0  0  0  0  0  0
  -21.7975  -31.4965   22.0606 O   0  0  0  0  0  0  0  0  0  0  0  0
  -26.0099  -18.7333   27.5304 O   0  0  0  0  0  0  0  0  0  0  0  0
  -21.9128  -26.7644   22.3994 O   0  0  0  0  0  0  0  0  0  0  0  0
  -28.1209  -17.0643   18.7582 O   0  0  0  0  0  0  0  0  0  0  0  0
  -26.6624   -6.2005   24.2874 O   0  0  0  0  0  0  0  0  0  0  0  0
  -28.3841  -26.4567   20.3071 O   0  0  0  0  0  0  0  0  0  1  0  0
  -24.3322   -1.2639   23.5100 F   0  0  0  0  0  0  0  0  0  0  0  0
  -28.1706   -4.0334   23.4678 F   0  0  0  0  0  0  0  0  0  0  0  0
  1  2  1  0  0  0  0
  1  5  2  0  0  0  0
  2  6  2  0  0  0  0
  3  8  2  0  0  0  0
  3 18  1  0  0  0  0
  4  9  1  0  0  0  0
  4 18  2  0  0  0  0
  5 21  1  0  0  0  0
  6 23  1  0  0  0  0
  7 10  2  0  0  0  0
  7 22  1  0  0  0  0
  8 27  1  0  0  0  0
  9 27  2  0  0  0  0
 10 28  1  0  0  0  0
 11 12  2  0  0  0  0
 11 29  1  0  0  0  0
 12 30  1  0  0  0  0
 13 19  2  0  0  0  0
 13 25  1  0  0  0  0
 14 19  1  0  0  0  0
 14 26  2  0  0  0  0
 15 24  1  0  0  0  0
 15 28  2  0  0  0  0
 16 25  2  0  0  0  0
 16 26  1  0  0  0  0
 17 30  2  0  0  0  0
 17 31  1  0  0  0  0
 18 32  1  0  0  0  0
 19 34  1  0  0  0  0
 20 32  1  0  0  0  0
 20 33  2  0  0  0  0
 20 35  1  0  0  0  0
 21 23  2  0  0  0  0
 21 42  1  0  0  0  0
 22 24  2  0  0  0  0
 22 43  1  0  0  0  0
 23 51  1  0  0  0  0
 24 44  1  0  0  0  0
 25 74  1  0  0  0  0
 26 75  1  0  0  0  0
 27 89  1  0  0  0  0
 28 90  1  0  0  0  0
 29 31  2  0  0  0  0
 29 89  1  0  0  0  0
 30 91  1  0  0  0  0
 31 92  1  0  0  0  0
 32 68  2  0  0  0  0
 33 69  1  0  0  0  0
 33 72  1  0  0  0  0
 34 76  1  0  0  0  0
 34 81  2  0  0  0  0
 35 73  1  0  0  0  0
 35 82  2  0  0  0  0
 36 52  1  0  0  0  0
 36 77  1  0  0  0  0
 36 83  2  0  0  0  0
 37 54  1  0  0  0  0
 37 64  1  0  0  0  0
 37 84  2  0  0  0  0
 38 65  1  0  0  0  0
 38 70  1  0  0  0  0
 38 85  2  0  0  0  0
 39 61  1  0  0  0  0
 39 78  1  0  0  0  0
 39 86  2  0  0  0  0
 40 66  1  0  0  0  0
 40 79  1  0  0  0  0
 40 87  2  0  0  0  0
 41 71  1  0  0  0  0
 41 74  1  0  0  0  0
 41 88  2  0  0  0  0
 42 45  1  0  0  0  0
 43 52  1  0  0  0  0
 44 70  1  0  0  0  0
 45 47  1  0  0  0  0
 46 48  1  0  0  0  0
 46 49  1  0  0  0  0
 47 51  1  0  0  0  0
 48 53  1  0  0  0  0
 49 71  1  0  0  0  0
 50 53  1  0  0  0  0
 50 71  1  0  0  0  0
 51 77  1  0  0  0  0
 52 70  1  0  0  0  0
 53 69  1  0  0  0  0
 55 66  1  0  0  0  0
 56 67  1  0  0  0  0
 57 67  1  0  0  0  0
 58 67  1  0  0  0  0
 59 78  1  0  0  0  0
 60 80  1  0  0  0  0
 61 75  1  0  0  0  0
 62 63  1  0  0  0  0
 62 64  1  0  0  0  0
 63 76  1  0  0  0  0
 64 90  1  0  0  0  0
 65 67  1  0  0  0  0
 65 79  1  0  0  0  0
 66 80  1  0  0  0  0
 68 69  1  0  0  0  0
M  CHG  1  80   1
M  ISO  4  41 100  64 101  74 100  90 101
M  END
> <Batch ID>
0164

> <Smiles>
CNC(=O)CNc1cc([100NH:0][100C:0](=O)N2CCCC(n3nc(-c4ccc(Oc5ccc(F)cc5F)cc4)c(C(N)=O)c3N)C2)cc(C(=O)NCC[101CH:1](C(C)=O)[101O:1]c2ccc3c(c2)CN(C(=O)C(NC(=O)C(C)NC)C(C)(C)C)C(C(=O)NC2CCCc4ccccc42)C3)c1

> <Shape>
0.260

> <Color>
0.091

> <Negative vol penalty>
0.000

$$$$

  -OEChem-04052304023D

 86 95  0     1  0  0  0  0  0999 V2000
  -26.9407  -37.8683   26.3931 C   0  0  0  0  0  0  0  0  0  0  0  0
  -26.6535  -36.6544   27.0092 C   0  0  0  0  0  0  0  0  0  0  0  0
  -32.0738  -18.8901   19.5928 C   0  0  0  0  0  0  0  0  0  0  0  0
  -22.6829  -13.3846   22.5134 C   0  0  0  0  0  0  0  0  0  0  0  0
  -23.8419  -11.3895   23.2298 C   0  0  0  0  0  0  0  0  0  0  0  0
  -26.4437  -38.1364   25.1183 C   0  0  0  0  0  0  0  0  0  0  0  0
  -25.8683  -35.7085   26.3513 C   0  0  0  0  0  0  0  0  0  0  0  0
  -31.1748  -19.9513   19.6982 C   0  0  0  0  0  0  0  0  0  0  0  0
  -28.3907  -29.1016   24.9807 C   0  0  0  0  0  0  0  0  0  0  0  0
  -31.6305  -17.5799   19.7734 C   0  0  0  0  0  0  0  0  0  0  0  0
  -21.8848  -13.3314   23.6561 C   0  0  0  0  0  0  0  0  0  0  0  0
  -23.0439  -11.3363   24.3726 C   0  0  0  0  0  0  0  0  0  0  0  0
  -28.7247  -27.7517   24.8695 C   0  0  0  0  0  0  0  0  0  0  0  0
  -19.9129  -10.3493   25.1811 C   0  0  0  0  0  0  0  0  0  0  0  0
  -19.3787   -9.1122   25.5414 C   0  0  0  0  0  0  0  0  0  0  0  0
  -29.3892  -18.3923   20.1651 C   0  0  0  0  0  0  0  0  0  0  0  0
  -26.6382  -27.3187   23.7262 C   0  0  0  0  0  0  0  0  0  0  0  0
  -20.5346   -9.2301   27.6598 C   0  0  0  0  0  0  0  0  0  0  0  0
  -23.6614  -12.4136   22.3002 C   0  0  0  0  0  0  0  0  0  0  0  0
  -24.0563  -12.4159   19.7799 C   0  0  0  0  0  0  0  0  0  0  0  0
  -29.8325  -19.7025   19.9844 C   0  0  0  0  0  0  0  0  0  0  0  0
  -25.6599  -37.1893   24.4405 C   0  0  0  0  0  0  0  0  0  0  0  0
  -27.1847  -29.5686   24.4508 C   0  0  0  0  0  0  0  0  0  0  0  0
  -25.3592  -35.9647   25.0669 C   0  0  0  0  0  0  0  0  0  0  0  0
  -26.3039  -28.6720   23.8235 C   0  0  0  0  0  0  0  0  0  0  0  0
  -30.2882  -17.3310   20.0596 C   0  0  0  0  0  0  0  0  0  0  0  0
  -22.0654  -12.3073   24.5858 C   0  0  0  0  0  0  0  0  0  0  0  0
  -27.8505  -26.8625   24.2440 C   0  0  0  0  0  0  0  0  0  0  0  0
  -20.7581  -11.0268   26.0600 C   0  0  0  0  0  0  0  0  0  0  0  0
  -19.6895   -8.5526   26.7808 C   0  0  0  0  0  0  0  0  0  0  0  0
  -21.0689  -10.4672   27.2993 C   0  0  0  0  0  0  0  0  0  0  0  0
  -24.4857  -12.4677   21.1196 C   0  0  0  0  0  0  0  0  0  0  0  0
  -25.2133  -12.5031   19.0449 C   0  0  0  0  0  0  0  0  0  0  0  0
  -22.7302  -12.2995   19.2474 C   0  0  0  0  0  0  0  0  0  0  0  0
  -28.6091  -23.7169   22.6100 C   0  0  0  0  0  0  0  0  0  0  0  0
  -24.9210  -32.5010   23.8570 C   0  0  0  0  0  0  0  0  0  0  0  0
  -24.8492  -30.7902   21.3117 C   0  0  0  0  0  0  0  0  0  0  0  0
  -24.6284  -29.6311   18.1110 C   0  0  0  0  0  0  0  0  0  0  0  0
  -30.5990  -14.8336   20.1711 C   0  0  0  0  0  0  0  0  0  0  0  0
  -25.1057  -37.5433   23.0833 C   0  0  0  0  0  0  0  0  0  0  0  0
  -26.7560  -31.0029   24.6020 C   0  0  0  0  0  0  0  0  0  0  0  0
  -25.0019  -29.2128   23.2989 C   0  0  0  0  0  0  0  0  0  0  0  0
  -24.5929  -36.3368   22.3012 C   0  0  0  0  0  0  0  0  0  0  0  0
  -27.8071  -22.8550   18.9498 C   0  0  0  0  0  0  0  0  0  0  0  0
  -29.8825  -11.4634   19.2737 C   0  0  0  0  0  0  0  0  0  0  0  0
  -23.7259  -35.4525   23.1918 C   0  0  0  0  0  0  0  0  0  0  0  0
  -28.7899  -21.6935   18.8150 C   0  0  0  0  0  0  0  0  0  0  0  0
  -28.1193  -23.7161   20.1703 C   0  0  0  0  0  0  0  0  0  0  0  0
  -28.3770  -11.3355   19.5175 C   0  0  0  0  0  0  0  0  0  0  0  0
  -30.5527  -12.3534   20.3189 C   0  0  0  0  0  0  0  0  0  0  0  0
  -28.4400  -13.5522   20.7298 C   0  0  0  0  0  0  0  0  0  0  0  0
  -24.5315  -34.9032   24.3753 C   0  0  1  0  0  0  0  0  0  0  0  0
  -28.8575  -20.8543   20.0988 C   0  0  2  0  0  0  0  0  0  0  0  0
  -28.1863  -22.8834   21.4453 C   0  0  1  0  0  0  0  0  0  0  0  0
  -25.9625  -31.5264   23.3914 C   0  0  1  0  0  0  0  0  0  0  0  0
  -27.7106  -12.7175   19.6645 C   0  0  2  0  0  0  0  0  0  0  0  0
  -23.1048  -29.6305   16.1169 C   0  0  0  0  0  0  0  0  0  0  0  0
  -23.0675  -28.7257   22.6782 C   0  0  0  0  0  0  0  0  0  0  0  0
  -22.2025  -28.0812   20.4189 C   0  0  0  0  0  0  0  0  0  0  0  0
  -21.8433  -30.3960   21.2762 C   0  0  0  0  0  0  0  0  0  0  0  0
  -26.6394  -31.0038   16.4286 C   0  0  0  0  0  0  0  0  0  0  0  0
  -27.6734  -24.8392   23.0061 C   0  0  0  0  0  0  0  0  0  1  0  0
  -24.1586  -29.6900   20.5462 C   0  0  1  0  0  0  0  0  0  0  0  0
  -24.2660  -30.3256   16.8107 C   0  0  2  0  0  0  0  0  0  0  0  0
  -22.8458  -29.2222   21.2355 C   0  0  0  0  0  0  0  0  0  0  0  0
  -25.8119  -12.5790   21.2321 N   0  0  0  0  0  0  0  0  0  0  0  0
  -26.2259  -12.5978   19.9537 N   0  0  0  0  0  0  0  0  0  0  0  0
  -25.2273  -30.5031   22.6290 N   0  0  0  0  0  0  0  0  0  0  0  0
  -29.8706  -13.6470   20.3996 N   0  0  0  0  0  0  0  0  0  0  0  0
  -25.4531  -12.5072   17.7164 N   0  0  0  0  0  0  0  0  0  0  0  0
  -21.6551  -12.2211   20.1431 N   0  0  0  0  0  0  0  0  0  0  0  0
  -29.8381  -16.0000   20.2424 N   0  0  0  0  0  0  0  0  0  0  0  0
  -25.3710  -33.8043   23.9487 N   0  0  0  0  0  0  0  0  0  0  0  0
  -23.9748  -30.1909   19.1883 N   0  0  0  0  0  0  0  0  0  0  0  0
  -29.1764  -21.7745   21.2525 N   0  3  0  0  0  0  0  0  0  0  0  0
  -25.4327  -30.3303   15.8834 N   0  3  0  0  0  0  0  0  0  0  0  0
  -22.5066  -12.2494   18.0141 O   0  0  0  0  0  0  0  0  0  0  0  0
  -29.6616  -23.4945   23.2065 O   0  0  0  0  0  0  0  0  0  0  0  0
  -23.7912  -32.1015   24.1131 O   0  0  0  0  0  0  0  0  0  0  0  0
  -25.0442  -31.8775   20.7612 O   0  0  0  0  0  0  0  0  0  0  0  0
  -25.4100  -28.6841   18.1651 O   0  0  0  0  0  0  0  0  0  0  0  0
  -31.8031  -14.8145   19.9031 O   0  0  0  0  0  0  0  0  0  0  0  0
  -21.2870  -12.2552   25.7011 O   0  0  0  0  0  0  0  0  0  0  0  0
  -28.1848  -25.5468   24.1349 O   0  0  0  0  0  0  0  0  0  1  0  0
  -19.1752   -7.3654   27.1273 F   0  0  0  0  0  0  0  0  0  0  0  0
  -21.8792  -11.1139   28.1484 F   0  0  0  0  0  0  0  0  0  0  0  0
  1  2  1  0  0  0  0
  1  6  2  0  0  0  0
  2  7  2  0  0  0  0
  3  8  2  0  0  0  0
  3 10  1  0  0  0  0
  4 11  2  0  0  0  0
  4 19  1  0  0  0  0
  5 12  1  0  0  0  0
  5 19  2  0  0  0  0
  6 22  1  0  0  0  0
  7 24  1  0  0  0  0
  8 21  1  0  0  0  0
  9 13  2  0  0  0  0
  9 23  1  0  0  0  0
 10 26  2  0  0  0  0
 11 27  1  0  0  0  0
 12 27  2  0  0  0  0
 13 28  1  0  0  0  0
 14 15  2  0  0  0  0
 14 29  1  0  0  0  0
 15 30  1  0  0  0  0
 16 21  2  0  0  0  0
 16 26  1  0  0  0  0
 17 25  1  0  0  0  0
 17 28  2  0  0  0  0
 18 30  2  0  0  0  0
 18 31  1  0  0  0  0
 19 32  1  0  0  0  0
 20 32  1  0  0  0  0
 20 33  2  0  0  0  0
 20 34  1  0  0  0  0
 21 53  1  0  0  0  0
 22 24  2  0  0  0  0
 22 40  1  0  0  0  0
 23 25  2  0  0  0  0
 23 41  1  0  0  0  0
 24 52  1  0  0  0  0
 25 42  1  0  0  0  0
 26 72  1  0  0  0  0
 27 83  1  0  0  0  0
 28 84  1  0  0  0  0
 29 31  2  0  0  0  0
 29 83  1  0  0  0  0
 30 85  1  0  0  0  0
 31 86  1  0  0  0  0
 32 66  2  0  0  0  0
 33 67  1  0  0  0  0
 33 70  1  0  0  0  0
 34 71  1  0  0  0  0
 34 77  2  0  0  0  0
 35 54  1  0  0  0  0
 35 62  1  0  0  0  0
 35 78  2  0  0  0  0
 36 55  1  0  0  0  0
 36 73  1  0  0  0  0
 36 79  2  0  0  0  0
 37 63  1  0  0  0  0
 37 68  1  0  0  0  0
 37 80  2  0  0  0  0
 38 64  1  0  0  0  0
 38 74  1  0  0  0  0
 38 81  2  0  0  0  0
 39 69  1  0  0  0  0
 39 72  1  0  0  0  0
 39 82  2  0  0  0  0
 40 43  1  0  0  0  0
 41 55  1  0  0  0  0
 42 68  1  0  0  0  0
 43 46  1  0  0  0  0
 44 47  1  0  0  0  0
 44 48  1  0  0  0  0
 45 49  1  0  0  0  0
 45 50  1  0  0  0  0
 46 52  1  0  0  0  0
 47 53  1  0  0  0  0
 48 54  1  0  0  0  0
 49 56  1  0  0  0  0
 50 69  1  0  0  0  0
 51 56  1  0  0  0  0
 51 69  1  0  0  0  0
 52 73  1  0  0  0  0
 53 75  1  0  0  0  0
 54 75  1  0  0  0  0
 55 68  1  0  0  0  0
 56 67  1  0  0  0  0
 57 64  1  0  0  0  0
 58 65  1  0  0  0  0
 59 65  1  0  0  0  0
 60 65  1  0  0  0  0
 61 76  1  0  0  0  0
 62 84  1  0  0  0  0
 63 65  1  0  0  0  0
 63 74  1  0  0  0  0
 64 76  1  0  0  0  0
 66 67  1  0  0  0  0
M  CHG  2  75   1  76   1
M  ISO  4  39 100  62 101  72 100  84 101
M  END
> <Batch ID>
0164

> <Smiles>
CNC(C)C(=O)NC(C(=O)N1Cc2cc([101O:1][101CH2:1]C(=O)C3CCCC(c4cccc([100NH:0][100C:0](=O)N5CCCC(n6nc(-c7ccc(Oc8ccc(F)cc8F)cc7)c(C(N)=O)c6N)C5)c4)N3)ccc2CC1C(=O)NC1CCCc2ccccc21)C(C)(C)C

> <Shape>
0.273

> <Color>
0.086

> <Negative vol penalty>
0.000

$$$$

  -OEChem-04052304023D

 85 93  0     1  0  0  0  0  0999 V2000
  -25.4499  -32.7614   22.4572 C   0  0  0  0  0  0  0  0  0  0  0  0
  -25.5644  -31.3839   22.6150 C   0  0  0  0  0  0  0  0  0  0  0  0
  -23.1771   -9.7209   19.9570 C   0  0  0  0  0  0  0  0  0  0  0  0
  -23.8339   -9.8747   22.2769 C   0  0  0  0  0  0  0  0  0  0  0  0
  -24.2244  -33.3879   22.6797 C   0  0  0  0  0  0  0  0  0  0  0  0
  -24.4535  -30.6323   22.9964 C   0  0  0  0  0  0  0  0  0  0  0  0
  -23.9506  -26.3908   20.2757 C   0  0  0  0  0  0  0  0  0  0  0  0
  -32.3250  -17.8579   23.4602 C   0  0  0  0  0  0  0  0  0  0  0  0
  -31.8080  -16.9074   22.5800 C   0  0  0  0  0  0  0  0  0  0  0  0
  -22.4621   -8.5564   20.2365 C   0  0  0  0  0  0  0  0  0  0  0  0
  -23.1188   -8.7101   22.5565 C   0  0  0  0  0  0  0  0  0  0  0  0
  -24.7798  -25.3200   20.6067 C   0  0  0  0  0  0  0  0  0  0  0  0
  -19.8957   -7.8293   23.0631 C   0  0  0  0  0  0  0  0  0  0  0  0
  -19.0893   -7.8233   24.2012 C   0  0  0  0  0  0  0  0  0  0  0  0
  -22.9692  -24.3059   21.8365 C   0  0  0  0  0  0  0  0  0  0  0  0
  -29.5728  -17.7067   23.0298 C   0  0  0  0  0  0  0  0  0  0  0  0
  -20.3613   -5.9727   25.0925 C   0  0  0  0  0  0  0  0  0  0  0  0
  -23.8631  -10.3801   20.9771 C   0  0  0  0  0  0  0  0  0  0  0  0
  -24.1248  -12.9062   20.7366 C   0  0  0  0  0  0  0  0  0  0  0  0
  -23.0956  -32.6423   23.0546 C   0  0  0  0  0  0  0  0  0  0  0  0
  -22.6255  -26.4326   20.7325 C   0  0  0  0  0  0  0  0  0  0  0  0
  -23.2121  -31.2496   23.2254 C   0  0  0  0  0  0  0  0  0  0  0  0
  -22.1245  -25.3771   21.5078 C   0  0  0  0  0  0  0  0  0  0  0  0
  -31.4659  -18.7328   24.1253 C   0  0  0  0  0  0  0  0  0  0  0  0
  -30.4319  -16.8318   22.3648 C   0  0  0  0  0  0  0  0  0  0  0  0
  -30.0898  -18.6572   23.9101 C   0  0  0  0  0  0  0  0  0  0  0  0
  -22.4329   -8.0510   21.5363 C   0  0  0  0  0  0  0  0  0  0  0  0
  -24.2900  -24.2787   21.3896 C   0  0  0  0  0  0  0  0  0  0  0  0
  -20.9349   -6.9070   22.9396 C   0  0  0  0  0  0  0  0  0  0  0  0
  -19.3221   -6.8950   25.2159 C   0  0  0  0  0  0  0  0  0  0  0  0
  -21.1677   -5.9787   23.9544 C   0  0  0  0  0  0  0  0  0  0  0  0
  -24.6024  -11.5828   20.6889 C   0  0  0  0  0  0  0  0  0  0  0  0
  -25.2062  -13.6745   20.3804 C   0  0  0  0  0  0  0  0  0  0  0  0
  -22.8204  -13.3971   21.0729 C   0  0  0  0  0  0  0  0  0  0  0  0
  -20.9582  -28.3886   22.6028 C   0  0  0  0  0  0  0  0  0  0  0  0
  -18.4755  -26.5076   21.6970 C   0  0  0  0  0  0  0  0  0  0  0  0
  -27.8149  -19.5821   24.4688 C   0  0  0  0  0  0  0  0  0  0  0  0
  -17.4065  -23.4825   20.5337 C   0  0  0  0  0  0  0  0  0  0  0  0
  -30.6210  -14.9234   20.7311 C   0  0  0  0  0  0  0  0  0  0  0  0
  -21.8036  -33.3700   23.3299 C   0  0  0  0  0  0  0  0  0  0  0  0
  -21.7359  -27.5818   20.3445 C   0  0  0  0  0  0  0  0  0  0  0  0
  -20.7033  -25.3644   22.0064 C   0  0  0  0  0  0  0  0  0  0  0  0
  -20.5839  -32.4527   23.3675 C   0  0  0  0  0  0  0  0  0  0  0  0
  -29.6945  -12.3511   18.4504 C   0  0  0  0  0  0  0  0  0  0  0  0
  -20.8726  -31.2150   24.2110 C   0  0  0  0  0  0  0  0  0  0  0  0
  -28.2479  -12.0307   18.8334 C   0  0  0  0  0  0  0  0  0  0  0  0
  -30.5472  -12.6749   19.6759 C   0  0  0  0  0  0  0  0  0  0  0  0
  -28.5576  -13.4013   20.9340 C   0  0  0  0  0  0  0  0  0  0  0  0
  -22.0239  -30.3967   23.6140 C   0  0  1  0  0  0  0  0  0  0  0  0
  -20.5563  -27.7711   21.2933 C   0  0  1  0  0  0  0  0  0  0  0  0
  -27.6443  -13.1321   19.7268 C   0  0  2  0  0  0  0  0  0  0  0  0
  -32.0477  -19.7408   25.0625 C   0  0  0  0  0  0  0  0  0  0  0  0
  -15.3170  -22.2311   19.9290 C   0  0  0  0  0  0  0  0  0  0  0  0
  -17.8604  -26.1082   24.6588 C   0  0  0  0  0  0  0  0  0  0  0  0
  -16.4251  -24.1568   24.0260 C   0  0  0  0  0  0  0  0  0  0  0  0
  -15.8486  -26.4430   23.2113 C   0  0  0  0  0  0  0  0  0  0  0  0
  -18.2816  -23.1461   17.7266 C   0  0  0  0  0  0  0  0  0  0  0  0
  -27.2458  -20.6809   25.3581 C   0  0  0  0  0  0  0  0  0  0  0  0
  -25.9521  -21.2978   24.8281 C   0  0  0  0  0  0  0  0  0  0  0  0
  -26.1506  -22.0021   23.4854 C   0  0  0  0  0  0  0  0  0  0  0  0
  -24.8440  -22.5782   22.9571 C   0  0  0  0  0  0  0  0  0  1  0  0
  -17.8439  -25.2427   22.2263 C   0  0  1  0  0  0  0  0  0  0  0  0
  -16.4444  -23.1150   19.4185 C   0  0  2  0  0  0  0  0  0  0  0  0
  -17.0219  -25.4885   23.5230 C   0  0  0  0  0  0  0  0  0  0  0  0
  -25.8870  -11.5108   20.3305 N   0  0  0  0  0  0  0  0  0  0  0  0
  -26.2259  -12.7986   20.1497 N   0  0  0  0  0  0  0  0  0  0  0  0
  -19.8746  -26.5134   21.6056 N   0  0  0  0  0  0  0  0  0  0  0  0
  -29.9155  -13.7293   20.4722 N   0  0  0  0  0  0  0  0  0  0  0  0
  -25.3747  -15.0070   20.2452 N   0  0  0  0  0  0  0  0  0  0  0  0
  -21.8256  -12.4710   21.4150 N   0  0  0  0  0  0  0  0  0  0  0  0
  -29.2021  -19.5359   24.5756 N   0  0  0  0  0  0  0  0  0  0  0  0
  -29.9072  -15.8660   21.4705 N   0  0  0  0  0  0  0  0  0  0  0  0
  -21.5611  -29.6259   22.4800 N   0  0  0  0  0  0  0  0  0  0  0  0
  -17.0689  -24.6816   21.1249 N   0  0  0  0  0  0  0  0  0  0  0  0
  -17.1614  -22.3838   18.3358 N   0  3  0  0  0  0  0  0  0  0  0  0
  -22.5406  -14.6198   21.0541 O   0  0  0  0  0  0  0  0  0  0  0  0
  -20.7362  -27.7877   23.6475 O   0  0  0  0  0  0  0  0  0  0  0  0
  -17.7537  -27.4529   21.3698 O   0  0  0  0  0  0  0  0  0  0  0  0
  -27.0967  -18.8545   23.7912 O   0  0  0  0  0  0  0  0  0  0  0  0
  -18.3597  -22.7748   20.8513 O   0  0  0  0  0  0  0  0  0  0  0  0
  -31.7634  -15.1080   20.3036 O   0  0  0  0  0  0  0  0  0  0  0  0
  -21.7351   -6.9148   21.8095 O   0  0  0  0  0  0  0  0  0  0  0  0
  -25.0974  -23.2326   21.7146 O   0  0  0  0  0  0  0  0  0  1  0  0
  -18.5487   -6.8903   26.3095 F   0  0  0  0  0  0  0  0  0  0  0  0
  -22.1652   -5.0910   23.8420 F   0  0  0  0  0  0  0  0  0  0  0  0
  1  2  1  0  0  0  0
  1  5  2  0  0  0  0
  2  6  2  0  0  0  0
  3 10  2  0  0  0  0
  3 18  1  0  0  0  0
  4 11  1  0  0  0  0
  4 18  2  0  0  0  0
  5 20  1  0  0  0  0
  6 22  1  0  0  0  0
  7 12  2  0  0  0  0
  7 21  1  0  0  0  0
  8  9  2  0  0  0  0
  8 24  1  0  0  0  0
  9 25  1  0  0  0  0
 10 27  1  0  0  0  0
 11 27  2  0  0  0  0
 12 28  1  0  0  0  0
 13 14  2  0  0  0  0
 13 29  1  0  0  0  0
 14 30  1  0  0  0  0
 15 23  1  0  0  0  0
 15 28  2  0  0  0  0
 16 25  2  0  0  0  0
 16 26  1  0  0  0  0
 17 30  2  0  0  0  0
 17 31  1  0  0  0  0
 18 32  1  0  0  0  0
 19 32  1  0  0  0  0
 19 33  2  0  0  0  0
 19 34  1  0  0  0  0
 20 22  2  0  0  0  0
 20 40  1  0  0  0  0
 21 23  2  0  0  0  0
 21 41  1  0  0  0  0
 22 49  1  0  0  0  0
 23 42  1  0  0  0  0
 24 26  2  0  0  0  0
 24 52  1  0  0  0  0
 25 72  1  0  0  0  0
 26 71  1  0  0  0  0
 27 82  1  0  0  0  0
 28 83  1  0  0  0  0
 29 31  2  0  0  0  0
 29 82  1  0  0  0  0
 30 84  1  0  0  0  0
 31 85  1  0  0  0  0
 32 65  2  0  0  0  0
 33 66  1  0  0  0  0
 33 69  1  0  0  0  0
 34 70  1  0  0  0  0
 34 76  2  0  0  0  0
 35 50  1  0  0  0  0
 35 73  1  0  0  0  0
 35 77  2  0  0  0  0
 36 62  1  0  0  0  0
 36 67  1  0  0  0  0
 36 78  2  0  0  0  0
 37 58  1  0  0  0  0
 37 71  1  0  0  0  0
 37 79  2  0  0  0  0
 38 63  1  0  0  0  0
 38 74  1  0  0  0  0
 38 80  2  0  0  0  0
 39 68  1  0  0  0  0
 39 72  1  0  0  0  0
 39 81  2  0  0  0  0
 40 43  1  0  0  0  0
 41 50  1  0  0  0  0
 42 67  1  0  0  0  0
 43 45  1  0  0  0  0
 44 46  1  0  0  0  0
 44 47  1  0  0  0  0
 45 49  1  0  0  0  0
 46 51  1  0  0  0  0
 47 68  1  0  0  0  0
 48 51  1  0  0  0  0
 48 68  1  0  0  0  0
 49 73  1  0  0  0  0
 50 67  1  0  0  0  0
 51 66  1  0  0  0  0
 53 63  1  0  0  0  0
 54 64  1  0  0  0  0
 55 64  1  0  0  0  0
 56 64  1  0  0  0  0
 57 75  1  0  0  0  0
 58 59  1  0  0  0  0
 59 60  1  0  0  0  0
 60 61  1  0  0  0  0
 61 83  1  0  0  0  0
 62 64  1  0  0  0  0
 62 74  1  0  0  0  0
 63 75  1  0  0  0  0
 65 66  1  0  0  0  0
M  CHG  1  75   1
M  ISO  4  39 100  61 101  72 100  83 101
M  END
> <Batch ID>
0164

> <Smiles>
CNC(C)C(=O)NC(C(=O)N1Cc2cc([101O:1][101CH2:1]CCCC(=O)Nc3cc([100NH:0][100C:0](=O)N4CCCC(n5nc(-c6ccc(Oc7ccc(F)cc7F)cc6)c(C(N)=O)c5N)C4)ccc3C)ccc2CC1C(=O)NC1CCCc2ccccc21)C(C)(C)C

> <Shape>
0.273

> <Color>
0.209

> <Negative vol penalty>
0.000

$$$$

  -OEChem-04052304023D

 87 95  0     1  0  0  0  0  0999 V2000
  -23.1041  -32.7089   25.6576 C   0  0  0  0  0  0  0  0  0  0  0  0
  -23.9606  -31.7429   25.1392 C   0  0  0  0  0  0  0  0  0  0  0  0
  -27.1792  -23.0447   13.6200 C   0  0  0  0  0  0  0  0  0  0  0  0
  -23.2047  -13.6984   19.2342 C   0  0  0  0  0  0  0  0  0  0  0  0
  -24.9074  -15.2148   20.0331 C   0  0  0  0  0  0  0  0  0  0  0  0
  -21.7237  -32.5313   25.5755 C   0  0  0  0  0  0  0  0  0  0  0  0
  -23.4370  -30.5981   24.5394 C   0  0  0  0  0  0  0  0  0  0  0  0
  -25.7606  -29.4486   20.1891 C   0  0  0  0  0  0  0  0  0  0  0  0
  -26.0248  -22.2942   13.8430 C   0  0  0  0  0  0  0  0  0  0  0  0
  -28.0038  -23.3906   14.6905 C   0  0  0  0  0  0  0  0  0  0  0  0
  -24.0016  -12.6125   19.5968 C   0  0  0  0  0  0  0  0  0  0  0  0
  -25.7043  -14.1290   20.3958 C   0  0  0  0  0  0  0  0  0  0  0  0
  -27.0044  -28.8249   20.2771 C   0  0  0  0  0  0  0  0  0  0  0  0
  -28.3403  -11.7603   21.2024 C   0  0  0  0  0  0  0  0  0  0  0  0
  -29.6938  -11.8095   20.8692 C   0  0  0  0  0  0  0  0  0  0  0  0
  -25.9586  -26.6928   19.8530 C   0  0  0  0  0  0  0  0  0  0  0  0
  -29.1121  -11.9719   18.5299 C   0  0  0  0  0  0  0  0  0  0  0  0
  -23.6576  -14.9996   19.4523 C   0  0  0  0  0  0  0  0  0  0  0  0
  -26.5194  -22.2358   16.2071 C   0  0  0  0  0  0  0  0  0  0  0  0
  -21.8775  -16.7775   19.8740 C   0  0  0  0  0  0  0  0  0  0  0  0
  -21.1829  -31.3884   24.9657 C   0  0  0  0  0  0  0  0  0  0  0  0
  -24.6031  -28.6964   19.9428 C   0  0  0  0  0  0  0  0  0  0  0  0
  -22.0481  -30.4045   24.4502 C   0  0  0  0  0  0  0  0  0  0  0  0
  -24.7016  -27.3097   19.7598 C   0  0  0  0  0  0  0  0  0  0  0  0
  -25.6948  -21.8898   15.1365 C   0  0  0  0  0  0  0  0  0  0  0  0
  -27.6739  -22.9862   15.9841 C   0  0  0  0  0  0  0  0  0  0  0  0
  -25.2514  -12.8278   20.1776 C   0  0  0  0  0  0  0  0  0  0  0  0
  -27.1032  -27.4464   20.1119 C   0  0  0  0  0  0  0  0  0  0  0  0
  -27.3726  -11.8167   20.1993 C   0  0  0  0  0  0  0  0  0  0  0  0
  -30.0798  -11.9154   19.5330 C   0  0  0  0  0  0  0  0  0  0  0  0
  -27.7585  -11.9226   18.8631 C   0  0  0  0  0  0  0  0  0  0  0  0
  -22.8352  -16.1216   19.0774 C   0  0  0  0  0  0  0  0  0  0  0  0
  -21.3770  -17.7675   19.0641 C   0  0  0  0  0  0  0  0  0  0  0  0
  -26.1735  -21.8133   17.5624 C   0  0  0  0  0  0  0  0  0  0  0  0
  -21.4763  -16.5153   21.2253 C   0  0  0  0  0  0  0  0  0  0  0  0
  -30.3390  -24.3098   18.2235 C   0  0  0  0  0  0  0  0  0  0  0  0
  -29.9547  -25.5118   19.0476 C   0  0  0  0  0  0  0  0  0  0  0  0
  -21.9111  -28.1353   21.5373 C   0  0  0  0  0  0  0  0  0  0  0  0
  -21.0653  -26.6142   18.7999 C   0  0  0  0  0  0  0  0  0  0  0  0
  -22.0510  -25.0225   15.9466 C   0  0  0  0  0  0  0  0  0  0  0  0
  -23.6039  -20.7141   14.3670 C   0  0  0  0  0  0  0  0  0  0  0  0
  -19.6845  -31.2181   24.9427 C   0  0  0  0  0  0  0  0  0  0  0  0
  -23.2725  -29.3877   19.8243 C   0  0  0  0  0  0  0  0  0  0  0  0
  -23.4918  -26.4596   19.4733 C   0  0  0  0  0  0  0  0  0  0  0  0
  -19.2075  -30.1544   23.9570 C   0  0  0  0  0  0  0  0  0  0  0  0
  -20.6037  -18.7987   14.4519 C   0  0  0  0  0  0  0  0  0  0  0  0
  -20.0445  -28.8865   24.0934 C   0  0  0  0  0  0  0  0  0  0  0  0
  -20.7456  -17.9590   15.7234 C   0  0  0  0  0  0  0  0  0  0  0  0
  -21.9423  -18.9769   13.7376 C   0  0  0  0  0  0  0  0  0  0  0  0
  -23.1714  -18.6566   15.8485 C   0  0  0  0  0  0  0  0  0  0  0  0
  -21.5181  -29.1609   23.7699 C   0  0  1  0  0  0  0  0  0  0  0  0
  -22.0909  -28.4574   20.0807 C   0  0  1  0  0  0  0  0  0  0  0  0
  -21.8606  -18.5041   16.6373 C   0  0  2  0  0  0  0  0  0  0  0  0
  -25.3160  -22.7372   18.3718 C   0  0  0  0  0  0  0  0  0  0  0  0
  -21.1320  -23.8548   13.9244 C   0  0  0  0  0  0  0  0  0  0  0  0
  -20.4371  -24.1625   20.5041 C   0  0  0  0  0  0  0  0  0  0  0  0
  -20.4517  -22.7898   18.4104 C   0  0  0  0  0  0  0  0  0  0  0  0
  -18.7814  -24.6218   18.6870 C   0  0  0  0  0  0  0  0  0  0  0  0
  -23.2903  -26.9828   14.1080 C   0  0  0  0  0  0  0  0  0  0  0  0
  -29.7131  -24.1162   16.8731 C   0  0  0  0  0  0  0  0  0  0  0  0
  -28.5028  -25.6511   19.4235 C   0  0  0  0  0  0  0  0  0  1  0  0
  -21.2057  -25.2070   18.2716 C   0  0  1  0  0  0  0  0  0  0  0  0
  -21.6094  -25.1779   14.5025 C   0  0  2  0  0  0  0  0  0  0  0  0
  -20.2417  -24.2107   18.9756 C   0  0  0  0  0  0  0  0  0  0  0  0
  -22.9385  -16.6503   17.8551 N   0  0  0  0  0  0  0  0  0  0  0  0
  -31.1978  -23.4905   18.7326 N   0  0  0  0  0  0  0  0  0  0  0  0
  -22.0393  -17.6488   17.8777 N   0  0  0  0  0  0  0  0  0  0  0  0
  -22.2124  -27.1812   19.3731 N   0  0  0  0  0  0  0  0  0  0  0  0
  -22.9486  -19.5004   14.6640 N   0  0  0  0  0  0  0  0  0  0  0  0
  -20.4394  -18.7191   19.2582 N   0  0  0  0  0  0  0  0  0  0  0  0
  -22.0923  -15.4605   21.9124 N   0  0  0  0  0  0  0  0  0  0  0  0
  -24.5163  -21.1291   15.3365 N   0  0  0  0  0  0  0  0  0  0  0  0
  -28.5089  -23.3433   17.0336 N   0  0  0  0  0  0  0  0  0  0  0  0
  -21.7144  -29.2439   22.3384 N   0  0  0  0  0  0  0  0  0  0  0  0
  -21.0247  -25.2936   16.8265 N   0  0  0  0  0  0  0  0  0  0  0  0
  -22.7379  -25.6763   13.6665 N   0  3  0  0  0  0  0  0  0  0  0  0
  -26.5392  -20.7615   18.0821 O   0  0  0  0  0  0  0  0  0  0  0  0
  -20.5860  -17.1859   21.8007 O   0  0  0  0  0  0  0  0  0  0  0  0
  -30.8366  -26.3069   19.3393 O   0  0  0  0  0  0  0  0  0  0  0  0
  -21.9466  -26.9674   21.9067 O   0  0  0  0  0  0  0  0  0  0  0  0
  -19.9798  -27.1918   18.7011 O   0  0  0  0  0  0  0  0  0  0  0  0
  -23.1913  -24.6900   16.2623 O   0  0  0  0  0  0  0  0  0  0  0  0
  -23.3529  -21.3532   13.3420 O   0  0  0  0  0  0  0  0  0  0  0  0
  -26.0291  -11.7685   20.5318 O   0  0  0  0  0  0  0  0  0  0  0  0
  -28.3159  -26.8350   20.1979 O   0  0  0  0  0  0  0  0  0  1  0  0
  -31.3796  -11.9642   19.2133 F   0  0  0  0  0  0  0  0  0  0  0  0
  -26.8334  -11.9785   17.8952 F   0  0  0  0  0  0  0  0  0  0  0  0
  1  2  1  0  0  0  0
  1  6  2  0  0  0  0
  2  7  2  0  0  0  0
  3  9  1  0  0  0  0
  3 10  2  0  0  0  0
  4 11  2  0  0  0  0
  4 18  1  0  0  0  0
  5 12  1  0  0  0  0
  5 18  2  0  0  0  0
  6 21  1  0  0  0  0
  7 23  1  0  0  0  0
  8 13  2  0  0  0  0
  8 22  1  0  0  0  0
  9 25  2  0  0  0  0
 10 26  1  0  0  0  0
 11 27  1  0  0  0  0
 12 27  2  0  0  0  0
 13 28  1  0  0  0  0
 14 15  2  0  0  0  0
 14 29  1  0  0  0  0
 15 30  1  0  0  0  0
 16 24  1  0  0  0  0
 16 28  2  0  0  0  0
 17 30  2  0  0  0  0
 17 31  1  0  0  0  0
 18 32  1  0  0  0  0
 19 25  1  0  0  0  0
 19 26  2  0  0  0  0
 19 34  1  0  0  0  0
 20 32  1  0  0  0  0
 20 33  2  0  0  0  0
 20 35  1  0  0  0  0
 21 23  2  0  0  0  0
 21 42  1  0  0  0  0
 22 24  2  0  0  0  0
 22 43  1  0  0  0  0
 23 51  1  0  0  0  0
 24 44  1  0  0  0  0
 25 72  1  0  0  0  0
 26 73  1  0  0  0  0
 27 84  1  0  0  0  0
 28 85  1  0  0  0  0
 29 31  2  0  0  0  0
 29 84  1  0  0  0  0
 30 86  1  0  0  0  0
 31 87  1  0  0  0  0
 32 65  2  0  0  0  0
 33 67  1  0  0  0  0
 33 70  1  0  0  0  0
 34 54  1  0  0  0  0
 34 77  2  0  0  0  0
 35 71  1  0  0  0  0
 35 78  2  0  0  0  0
 36 37  1  0  0  0  0
 36 60  1  0  0  0  0
 36 66  2  0  0  0  0
 37 61  1  0  0  0  0
 37 79  2  0  0  0  0
 38 52  1  0  0  0  0
 38 74  1  0  0  0  0
 38 80  2  0  0  0  0
 39 62  1  0  0  0  0
 39 68  1  0  0  0  0
 39 81  2  0  0  0  0
 40 63  1  0  0  0  0
 40 75  1  0  0  0  0
 40 82  2  0  0  0  0
 41 69  1  0  0  0  0
 41 72  1  0  0  0  0
 41 83  2  0  0  0  0
 42 45  1  0  0  0  0
 43 52  1  0  0  0  0
 44 68  1  0  0  0  0
 45 47  1  0  0  0  0
 46 48  1  0  0  0  0
 46 49  1  0  0  0  0
 47 51  1  0  0  0  0
 48 53  1  0  0  0  0
 49 69  1  0  0  0  0
 50 53  1  0  0  0  0
 50 69  1  0  0  0  0
 51 74  1  0  0  0  0
 52 68  1  0  0  0  0
 53 67  1  0  0  0  0
 55 63  1  0  0  0  0
 56 64  1  0  0  0  0
 57 64  1  0  0  0  0
 58 64  1  0  0  0  0
 59 76  1  0  0  0  0
 60 73  1  0  0  0  0
 61 85  1  0  0  0  0
 62 64  1  0  0  0  0
 62 75  1  0  0  0  0
 63 76  1  0  0  0  0
 65 67  1  0  0  0  0
M  CHG  1  76   1
M  ISO  4  41 100  61 101  72 100  85 101
M  END
> <Batch ID>
0164

> <Smiles>
CNC(C)C(=O)NC(C(=O)N1Cc2cc([101O:1][101CH2:1]C(=O)C(=N)CNc3cccc([100NH:0][100C:0](=O)N4CCCC(n5nc(-c6ccc(Oc7ccc(F)cc7F)cc6)c(C(N)=O)c5N)C4)c3C(C)=O)ccc2CC1C(=O)NC1CCCc2ccccc21)C(C)(C)C

> <Shape>
0.194

> <Color>
0.084

> <Negative vol penalty>
0.000

$$$$

  -OEChem-04052304023D

 89 97  0     1  0  0  0  0  0999 V2000
  -30.5793  -24.8979   18.0735 C   0  0  0  0  0  0  0  0  0  0  0  0
  -29.1957  -24.8358   18.2048 C   0  0  0  0  0  0  0  0  0  0  0  0
  -24.4276  -12.3086   20.7255 C   0  0  0  0  0  0  0  0  0  0  0  0
  -22.6191  -13.9085   20.8091 C   0  0  0  0  0  0  0  0  0  0  0  0
  -31.3423  -25.5443   19.0451 C   0  0  0  0  0  0  0  0  0  0  0  0
  -28.5743  -25.4191   19.3084 C   0  0  0  0  0  0  0  0  0  0  0  0
  -23.1006  -28.1632   19.4273 C   0  0  0  0  0  0  0  0  0  0  0  0
  -23.6644  -11.4071   21.4672 C   0  0  0  0  0  0  0  0  0  0  0  0
  -21.8559  -13.0069   21.5509 C   0  0  0  0  0  0  0  0  0  0  0  0
  -21.8377  -27.7205   19.8183 C   0  0  0  0  0  0  0  0  0  0  0  0
  -21.1262   -9.2437   20.9102 C   0  0  0  0  0  0  0  0  0  0  0  0
  -21.0964   -7.9157   20.4844 C   0  0  0  0  0  0  0  0  0  0  0  0
  -24.0167  -21.8880   21.5402 C   0  0  0  0  0  0  0  0  0  0  0  0
  -22.1744  -28.7020   21.9960 C   0  0  0  0  0  0  0  0  0  0  0  0
  -26.0542  -22.5420   22.6618 C   0  0  0  0  0  0  0  0  0  0  0  0
  -22.0244   -7.2159   22.6025 C   0  0  0  0  0  0  0  0  0  0  0  0
  -23.9050  -13.5594   20.3965 C   0  0  0  0  0  0  0  0  0  0  0  0
  -23.3366  -22.9322   22.1667 C   0  0  0  0  0  0  0  0  0  0  0  0
  -24.0152  -23.7814   23.0408 C   0  0  0  0  0  0  0  0  0  0  0  0
  -24.7383  -14.6160   18.2292 C   0  0  0  0  0  0  0  0  0  0  0  0
  -30.7290  -26.1442   20.1563 C   0  0  0  0  0  0  0  0  0  0  0  0
  -23.9157  -28.8704   20.3229 C   0  0  0  0  0  0  0  0  0  0  0  0
  -29.3299  -26.0730   20.2965 C   0  0  0  0  0  0  0  0  0  0  0  0
  -23.4462  -29.1548   21.6132 C   0  0  0  0  0  0  0  0  0  0  0  0
  -25.3755  -21.6929   21.7877 C   0  0  0  0  0  0  0  0  0  0  0  0
  -25.3741  -23.5863   23.2883 C   0  0  0  0  0  0  0  0  0  0  0  0
  -22.3785  -11.7562   21.8799 C   0  0  0  0  0  0  0  0  0  0  0  0
  -21.3756  -27.9874   21.1037 C   0  0  0  0  0  0  0  0  0  0  0  0
  -21.6052   -9.5578   22.1821 C   0  0  0  0  0  0  0  0  0  0  0  0
  -21.5455   -6.9018   21.3306 C   0  0  0  0  0  0  0  0  0  0  0  0
  -22.0542   -8.5439   23.0282 C   0  0  0  0  0  0  0  0  0  0  0  0
  -24.6932  -14.4914   19.6307 C   0  0  0  0  0  0  0  0  0  0  0  0
  -25.6295  -15.6364   18.0038 C   0  0  0  0  0  0  0  0  0  0  0  0
  -23.3011  -24.8740   23.6962 C   0  0  0  0  0  0  0  0  0  0  0  0
  -21.8896  -23.1095   21.8804 C   0  0  0  0  0  0  0  0  0  0  0  0
  -24.0372  -13.8755   17.2213 C   0  0  0  0  0  0  0  0  0  0  0  0
  -26.7637  -28.3662   21.6414 C   0  0  0  0  0  0  0  0  0  0  0  0
  -26.3350  -31.3727   22.7812 C   0  0  0  0  0  0  0  0  0  0  0  0
  -24.1664  -33.8664   23.6332 C   0  0  0  0  0  0  0  0  0  0  0  0
  -27.4134  -20.2985   21.2883 C   0  0  0  0  0  0  0  0  0  0  0  0
  -31.5994  -26.7906   21.2047 C   0  0  0  0  0  0  0  0  0  0  0  0
  -25.2647  -29.3643   19.8771 C   0  0  0  0  0  0  0  0  0  0  0  0
  -24.2742  -29.9278   22.6058 C   0  0  0  0  0  0  0  0  0  0  0  0
  -30.8316  -27.7084   22.1525 C   0  0  0  0  0  0  0  0  0  0  0  0
  -29.4793  -17.7390   19.9253 C   0  0  0  0  0  0  0  0  0  0  0  0
  -29.5559  -27.0275   22.6382 C   0  0  0  0  0  0  0  0  0  0  0  0
  -28.4898  -16.6295   19.5620 C   0  0  0  0  0  0  0  0  0  0  0  0
  -29.0793  -18.4562   21.2135 C   0  0  0  0  0  0  0  0  0  0  0  0
  -26.7135  -17.8584   20.8740 C   0  0  0  0  0  0  0  0  0  0  0  0
  -28.6170  -26.7152   21.4667 C   0  0  1  0  0  0  0  0  0  0  0  0
  -26.2176  -29.6295   21.0385 C   0  0  1  0  0  0  0  0  0  0  0  0
  -27.0392  -17.1501   19.5489 C   0  0  2  0  0  0  0  0  0  0  0  0
  -22.5960  -25.8282   25.9515 C   0  0  0  0  0  0  0  0  0  0  0  0
  -24.1105  -36.1931   24.5716 C   0  0  0  0  0  0  0  0  0  0  0  0
  -19.2991  -27.3308   23.7207 C   0  0  0  0  0  0  0  0  0  0  0  0
  -26.8777  -30.2586   25.5694 C   0  0  0  0  0  0  0  0  0  0  0  0
  -25.8920  -32.3535   26.5224 C   0  0  0  0  0  0  0  0  0  0  0  0
  -27.9417  -32.4739   25.1058 C   0  0  0  0  0  0  0  0  0  0  0  0
  -22.9048  -34.9484   21.1844 C   0  0  0  0  0  0  0  0  0  0  0  0
  -22.6409  -24.6028   25.0522 C   0  0  0  0  0  0  0  0  0  0  0  0
  -19.4429  -25.3359   22.1783 C   0  0  0  0  0  0  0  0  0  0  0  0
  -20.1573  -24.6582   21.0106 C   0  0  0  0  0  0  0  0  0  0  0  0
  -25.7144  -31.9672   24.0223 C   0  0  1  0  0  0  0  0  0  0  0  0
  -24.1581  -35.3490   23.3075 C   0  0  2  0  0  0  0  0  0  0  0  0
  -20.0857  -26.6634   22.6001 C   0  0  1  0  0  0  0  0  0  1  0  0
  -26.5914  -31.7470   25.2871 C   0  0  0  0  0  0  0  0  0  0  0  0
  -25.4923  -15.3629   20.2519 N   0  0  0  0  0  0  0  0  0  0  0  0
  -26.0480  -16.0449   19.2359 N   0  0  0  0  0  0  0  0  0  0  0  0
  -25.5887  -30.3838   22.1246 N   0  0  0  0  0  0  0  0  0  0  0  0
  -27.6946  -18.9254   21.1267 N   0  0  0  0  0  0  0  0  0  0  0  0
  -26.0820  -24.4326   24.1708 N   0  0  0  0  0  0  0  0  0  0  0  0
  -26.0883  -16.2152   16.8737 N   0  0  0  0  0  0  0  0  0  0  0  0
  -23.1594  -12.8609   17.6267 N   0  0  0  0  0  0  0  0  0  0  0  0
  -26.0659  -20.6309   21.1526 N   0  0  0  0  0  0  0  0  0  0  0  0
  -21.5205  -24.3279   21.3213 N   0  0  0  0  0  0  0  0  0  0  0  0
  -27.9231  -27.9122   21.0421 N   0  0  0  0  0  0  0  0  0  0  0  0
  -25.4497  -33.3686   23.7152 N   0  0  0  0  0  0  0  0  0  0  0  0
  -22.9728  -35.6889   22.4705 N   0  3  0  0  0  0  0  0  0  0  0  0
  -23.2084  -26.0060   23.2002 O   0  0  0  0  0  0  0  0  0  0  0  0
  -21.1071  -22.2057   22.1621 O   0  0  0  0  0  0  0  0  0  0  0  0
  -24.1972  -14.0958   15.9968 O   0  0  0  0  0  0  0  0  0  0  0  0
  -26.1774  -27.8429   22.5816 O   0  0  0  0  0  0  0  0  0  0  0  0
  -27.4380  -31.7762   22.4039 O   0  0  0  0  0  0  0  0  0  0  0  0
  -23.1375  -33.2157   23.8019 O   0  0  0  0  0  0  0  0  0  0  0  0
  -28.3058  -21.1229   21.5023 O   0  0  0  0  0  0  0  0  0  0  0  0
  -21.6334  -10.8766   22.6035 O   0  0  0  0  0  0  0  0  0  0  0  0
  -20.1436  -27.5558   21.4881 O   0  0  0  0  0  0  0  0  0  1  0  0
  -21.5154   -5.6265   20.9222 F   0  0  0  0  0  0  0  0  0  0  0  0
  -22.5143   -8.8393   24.2517 F   0  0  0  0  0  0  0  0  0  0  0  0
  1  2  1  0  0  0  0
  1  5  2  0  0  0  0
  2  6  2  0  0  0  0
  3  8  2  0  0  0  0
  3 17  1  0  0  0  0
  4  9  1  0  0  0  0
  4 17  2  0  0  0  0
  5 21  1  0  0  0  0
  6 23  1  0  0  0  0
  7 10  2  0  0  0  0
  7 22  1  0  0  0  0
  8 27  1  0  0  0  0
  9 27  2  0  0  0  0
 10 28  1  0  0  0  0
 11 12  2  0  0  0  0
 11 29  1  0  0  0  0
 12 30  1  0  0  0  0
 13 18  1  0  0  0  0
 13 25  2  0  0  0  0
 14 24  1  0  0  0  0
 14 28  2  0  0  0  0
 15 25  1  0  0  0  0
 15 26  2  0  0  0  0
 16 30  2  0  0  0  0
 16 31  1  0  0  0  0
 17 32  1  0  0  0  0
 18 19  2  0  0  0  0
 18 35  1  0  0  0  0
 19 26  1  0  0  0  0
 19 34  1  0  0  0  0
 20 32  1  0  0  0  0
 20 33  2  0  0  0  0
 20 36  1  0  0  0  0
 21 23  2  0  0  0  0
 21 41  1  0  0  0  0
 22 24  2  0  0  0  0
 22 42  1  0  0  0  0
 23 50  1  0  0  0  0
 24 43  1  0  0  0  0
 25 74  1  0  0  0  0
 26 71  1  0  0  0  0
 27 86  1  0  0  0  0
 28 87  1  0  0  0  0
 29 31  2  0  0  0  0
 29 86  1  0  0  0  0
 30 88  1  0  0  0  0
 31 89  1  0  0  0  0
 32 67  2  0  0  0  0
 33 68  1  0  0  0  0
 33 72  1  0  0  0  0
 34 60  1  0  0  0  0
 34 79  2  0  0  0  0
 35 75  1  0  0  0  0
 35 80  2  0  0  0  0
 36 73  1  0  0  0  0
 36 81  2  0  0  0  0
 37 51  1  0  0  0  0
 37 76  1  0  0  0  0
 37 82  2  0  0  0  0
 38 63  1  0  0  0  0
 38 69  1  0  0  0  0
 38 83  2  0  0  0  0
 39 64  1  0  0  0  0
 39 77  1  0  0  0  0
 39 84  2  0  0  0  0
 40 70  1  0  0  0  0
 40 74  1  0  0  0  0
 40 85  2  0  0  0  0
 41 44  1  0  0  0  0
 42 51  1  0  0  0  0
 43 69  1  0  0  0  0
 44 46  1  0  0  0  0
 45 47  1  0  0  0  0
 45 48  1  0  0  0  0
 46 50  1  0  0  0  0
 47 52  1  0  0  0  0
 48 70  1  0  0  0  0
 49 52  1  0  0  0  0
 49 70  1  0  0  0  0
 50 76  1  0  0  0  0
 51 69  1  0  0  0  0
 52 68  1  0  0  0  0
 53 60  1  0  0  0  0
 54 64  1  0  0  0  0
 55 65  1  0  0  0  0
 56 66  1  0  0  0  0
 57 66  1  0  0  0  0
 58 66  1  0  0  0  0
 59 78  1  0  0  0  0
 61 62  1  0  0  0  0
 61 65  1  0  0  0  0
 62 75  1  0  0  0  0
 63 66  1  0  0  0  0
 63 77  1  0  0  0  0
 64 78  1  0  0  0  0
 65 87  1  0  0  0  0
 67 68  1  0  0  0  0
M  CHG  1  78   1
M  ISO  4  40 100  65 101  74 100  87 101
M  END
> <Batch ID>
0164

> <Smiles>
CCC(=O)c1c(N)cc([100NH:0][100C:0](=O)N2CCCC(n3nc(-c4ccc(Oc5ccc(F)cc5F)cc4)c(C(N)=O)c3N)C2)cc1C(=O)NCC[101CH:1](C)[101O:1]c1ccc2c(c1)CN(C(=O)C(NC(=O)C(C)NC)C(C)(C)C)C(C(=O)NC1CCCc3ccccc31)C2

> <Shape>
0.303

> <Color>
0.059

> <Negative vol penalty>
0.000

$$$$

  -OEChem-04052304023D

 87 95  0     1  0  0  0  0  0999 V2000
  -29.7627  -31.8678   25.4144 C   0  0  0  0  0  0  0  0  0  0  0  0
  -29.5952  -30.5320   25.0636 C   0  0  0  0  0  0  0  0  0  0  0  0
  -24.5294  -17.1429   25.4908 C   0  0  0  0  0  0  0  0  0  0  0  0
  -23.9372  -18.5133   23.5912 C   0  0  0  0  0  0  0  0  0  0  0  0
  -28.6991  -32.7599   25.2853 C   0  0  0  0  0  0  0  0  0  0  0  0
  -28.3635  -30.0874   24.5844 C   0  0  0  0  0  0  0  0  0  0  0  0
  -28.8244  -27.0843   20.5330 C   0  0  0  0  0  0  0  0  0  0  0  0
  -25.5012  -18.0732   25.8591 C   0  0  0  0  0  0  0  0  0  0  0  0
  -24.9090  -19.4437   23.9595 C   0  0  0  0  0  0  0  0  0  0  0  0
  -29.2050  -25.7625   20.7602 C   0  0  0  0  0  0  0  0  0  0  0  0
  -25.2411  -21.9342   26.2196 C   0  0  0  0  0  0  0  0  0  0  0  0
  -24.8879  -23.2833   26.1923 C   0  0  0  0  0  0  0  0  0  0  0  0
  -26.9037  -25.0702   20.5510 C   0  0  0  0  0  0  0  0  0  0  0  0
  -28.8693  -12.7361   20.9464 C   0  0  0  0  0  0  0  0  0  0  0  0
  -27.9644  -14.8463   20.1944 C   0  0  0  0  0  0  0  0  0  0  0  0
  -26.6326  -23.7073   24.5757 C   0  0  0  0  0  0  0  0  0  0  0  0
  -23.7474  -17.3629   24.3568 C   0  0  0  0  0  0  0  0  0  0  0  0
  -21.3948  -16.3767   24.3776 C   0  0  0  0  0  0  0  0  0  0  0  0
  -27.4566  -32.3280   24.7951 C   0  0  0  0  0  0  0  0  0  0  0  0
  -27.4769  -27.4110   20.3235 C   0  0  0  0  0  0  0  0  0  0  0  0
  -27.2818  -30.9743   24.4498 C   0  0  0  0  0  0  0  0  0  0  0  0
  -26.5089  -26.3966   20.3188 C   0  0  0  0  0  0  0  0  0  0  0  0
  -30.1595  -13.1943   20.6796 C   0  0  0  0  0  0  0  0  0  0  0  0
  -27.7718  -13.5621   20.7038 C   0  0  0  0  0  0  0  0  0  0  0  0
  -29.2546  -15.3045   19.9276 C   0  0  0  0  0  0  0  0  0  0  0  0
  -30.3521  -14.4784   20.1703 C   0  0  0  0  0  0  0  0  0  0  0  0
  -25.6910  -19.2236   25.0934 C   0  0  0  0  0  0  0  0  0  0  0  0
  -28.2443  -24.7555   20.7721 C   0  0  0  0  0  0  0  0  0  0  0  0
  -26.2901  -21.4716   25.4250 C   0  0  0  0  0  0  0  0  0  0  0  0
  -25.5836  -24.1698   25.3704 C   0  0  0  0  0  0  0  0  0  0  0  0
  -26.9858  -22.3582   24.6031 C   0  0  0  0  0  0  0  0  0  0  0  0
  -22.7437  -16.4020   23.9756 C   0  0  0  0  0  0  0  0  0  0  0  0
  -20.8690  -15.2760   23.7463 C   0  0  0  0  0  0  0  0  0  0  0  0
  -28.8335  -18.9278   19.1158 C   0  0  0  0  0  0  0  0  0  0  0  0
  -28.6513  -17.6984   19.6141 C   0  0  0  0  0  0  0  0  0  0  0  0
  -20.6809  -17.2685   25.2441 C   0  0  0  0  0  0  0  0  0  0  0  0
  -25.3458  -29.2197   21.8371 C   0  0  0  0  0  0  0  0  0  0  0  0
  -28.6605  -21.2267   20.0634 C   0  0  0  0  0  0  0  0  0  0  0  0
  -23.4958  -28.5060   19.2699 C   0  0  0  0  0  0  0  0  0  0  0  0
  -22.8180  -26.3784   16.6891 C   0  0  0  0  0  0  0  0  0  0  0  0
  -25.2551  -13.7802   20.7947 C   0  0  0  0  0  0  0  0  0  0  0  0
  -26.3224  -33.3192   24.7177 C   0  0  0  0  0  0  0  0  0  0  0  0
  -27.0860  -28.8381   20.0532 C   0  0  0  0  0  0  0  0  0  0  0  0
  -25.0516  -26.6921   20.0790 C   0  0  0  0  0  0  0  0  0  0  0  0
  -25.1595  -32.8475   23.8486 C   0  0  0  0  0  0  0  0  0  0  0  0
  -22.7950  -11.1422   22.1567 C   0  0  0  0  0  0  0  0  0  0  0  0
  -24.7940  -31.4048   24.1829 C   0  0  0  0  0  0  0  0  0  0  0  0
  -22.0723  -12.2058   22.9737 C   0  0  0  0  0  0  0  0  0  0  0  0
  -24.1531  -11.6626   21.6939 C   0  0  0  0  0  0  0  0  0  0  0  0
  -22.7782  -13.6010   20.9292 C   0  0  0  0  0  0  0  0  0  0  0  0
  -25.9682  -30.4592   23.9028 C   0  0  1  0  0  0  0  0  0  0  0  0
  -25.6200  -29.1250   20.3628 C   0  0  1  0  0  0  0  0  0  0  0  0
  -21.8464  -13.4917   22.1536 C   0  0  2  0  0  0  0  0  0  0  0  0
  -21.2211  -26.0393   14.7832 C   0  0  0  0  0  0  0  0  0  0  0  0
  -21.3626  -27.5496   21.2307 C   0  0  0  0  0  0  0  0  0  0  0  0
  -20.2377  -26.3762   19.3264 C   0  0  0  0  0  0  0  0  0  0  0  0
  -20.4836  -28.8583   19.2893 C   0  0  0  0  0  0  0  0  0  0  0  0
  -24.9914  -26.5413   14.6869 C   0  0  0  0  0  0  0  0  0  0  0  0
  -31.3155  -12.2866   20.9497 C   0  0  0  0  0  0  0  0  0  0  0  0
  -27.9193  -20.0806   19.3893 C   0  0  0  0  0  0  0  0  0  0  0  0
  -27.8197  -22.4481   20.3829 C   0  0  0  0  0  0  0  0  0  1  0  0
  -22.5208  -27.4055   18.9277 C   0  0  1  0  0  0  0  0  0  0  0  0
  -22.5522  -26.6337   15.2165 C   0  0  2  0  0  0  0  0  0  0  0  0
  -21.1783  -27.5418   19.7000 C   0  0  0  0  0  0  0  0  0  0  0  0
  -23.0555  -15.3971   23.1528 N   0  0  0  0  0  0  0  0  0  0  0  0
  -21.8950  -14.7300   23.0327 N   0  0  0  0  0  0  0  0  0  0  0  0
  -24.7185  -28.1036   19.8257 N   0  0  0  0  0  0  0  0  0  0  0  0
  -24.1084  -13.0330   21.1631 N   0  0  0  0  0  0  0  0  0  0  0  0
  -31.6622  -14.9398   19.9008 N   0  0  0  0  0  0  0  0  0  0  0  0
  -19.6337  -14.7316   23.7377 N   0  0  0  0  0  0  0  0  0  0  0  0
  -21.3733  -18.3485   25.8084 N   0  0  0  0  0  0  0  0  0  0  0  0
  -29.4246  -16.6009   19.4151 N   0  0  0  0  0  0  0  0  0  0  0  0
  -26.4604  -13.0963   20.9749 N   0  0  0  0  0  0  0  0  0  0  0  0
  -26.0784  -30.1967   22.4839 N   0  0  0  0  0  0  0  0  0  0  0  0
  -22.3793  -27.4224   17.4757 N   0  0  0  0  0  0  0  0  0  0  0  0
  -23.6301  -26.0298   14.3832 N   0  3  0  0  0  0  0  0  0  0  0  0
  -19.4692  -17.1028   25.5230 O   0  0  0  0  0  0  0  0  0  0  0  0
  -24.5290  -28.4635   22.3496 O   0  0  0  0  0  0  0  0  0  0  0  0
  -29.8565  -21.1752   20.3472 O   0  0  0  0  0  0  0  0  0  0  0  0
  -23.1869  -29.6790   19.0456 O   0  0  0  0  0  0  0  0  0  0  0  0
  -23.3572  -25.3536   17.1007 O   0  0  0  0  0  0  0  0  0  0  0  0
  -25.1662  -14.9279   20.3536 O   0  0  0  0  0  0  0  0  0  0  0  0
  -26.6390  -20.1318   25.4526 O   0  0  0  0  0  0  0  0  0  0  0  0
  -28.6130  -23.4646   20.9943 O   0  0  0  0  0  0  0  0  0  1  0  0
  -25.2433  -25.4651   25.3431 F   0  0  0  0  0  0  0  0  0  0  0  0
  -27.9937  -21.9195   23.8366 F   0  0  0  0  0  0  0  0  0  0  0  0
  -32.0097  -12.0487   19.8024 F   0  0  0  0  0  0  0  0  0  0  0  0
  1  2  1  0  0  0  0
  1  5  2  0  0  0  0
  2  6  2  0  0  0  0
  3  8  2  0  0  0  0
  3 17  1  0  0  0  0
  4  9  1  0  0  0  0
  4 17  2  0  0  0  0
  5 19  1  0  0  0  0
  6 21  1  0  0  0  0
  7 10  2  0  0  0  0
  7 20  1  0  0  0  0
  8 27  1  0  0  0  0
  9 27  2  0  0  0  0
 10 28  1  0  0  0  0
 11 12  2  0  0  0  0
 11 29  1  0  0  0  0
 12 30  1  0  0  0  0
 13 22  1  0  0  0  0
 13 28  2  0  0  0  0
 14 23  2  0  0  0  0
 14 24  1  0  0  0  0
 15 24  2  0  0  0  0
 15 25  1  0  0  0  0
 16 30  2  0  0  0  0
 16 31  1  0  0  0  0
 17 32  1  0  0  0  0
 18 32  1  0  0  0  0
 18 33  2  0  0  0  0
 18 36  1  0  0  0  0
 19 21  2  0  0  0  0
 19 42  1  0  0  0  0
 20 22  2  0  0  0  0
 20 43  1  0  0  0  0
 21 51  1  0  0  0  0
 22 44  1  0  0  0  0
 23 26  1  0  0  0  0
 23 59  1  0  0  0  0
 24 73  1  0  0  0  0
 25 26  2  0  0  0  0
 25 72  1  0  0  0  0
 26 69  1  0  0  0  0
 27 83  1  0  0  0  0
 28 84  1  0  0  0  0
 29 31  2  0  0  0  0
 29 83  1  0  0  0  0
 30 85  1  0  0  0  0
 31 86  1  0  0  0  0
 32 65  2  0  0  0  0
 33 66  1  0  0  0  0
 33 70  1  0  0  0  0
 34 35  2  0  0  0  0
 34 60  1  0  0  0  0
 35 72  1  0  0  0  0
 36 71  1  0  0  0  0
 36 77  2  0  0  0  0
 37 52  1  0  0  0  0
 37 74  1  0  0  0  0
 37 78  2  0  0  0  0
 38 60  1  0  0  0  0
 38 61  1  0  0  0  0
 38 79  2  0  0  0  0
 39 62  1  0  0  0  0
 39 67  1  0  0  0  0
 39 80  2  0  0  0  0
 40 63  1  0  0  0  0
 40 75  1  0  0  0  0
 40 81  2  0  0  0  0
 41 68  1  0  0  0  0
 41 73  1  0  0  0  0
 41 82  2  0  0  0  0
 42 45  1  0  0  0  0
 43 52  1  0  0  0  0
 44 67  1  0  0  0  0
 45 47  1  0  0  0  0
 46 48  1  0  0  0  0
 46 49  1  0  0  0  0
 47 51  1  0  0  0  0
 48 53  1  0  0  0  0
 49 68  1  0  0  0  0
 50 53  1  0  0  0  0
 50 68  1  0  0  0  0
 51 74  1  0  0  0  0
 52 67  1  0  0  0  0
 53 66  1  0  0  0  0
 54 63  1  0  0  0  0
 55 64  1  0  0  0  0
 56 64  1  0  0  0  0
 57 64  1  0  0  0  0
 58 76  1  0  0  0  0
 59 87  1  0  0  0  0
 61 84  1  0  0  0  0
 62 64  1  0  0  0  0
 62 75  1  0  0  0  0
 63 76  1  0  0  0  0
 65 66  1  0  0  0  0
M  CHG  1  76   1
M  ISO  4  41 100  61 101  73 100  84 101
M  END
> <Batch ID>
0164

> <Smiles>
CNC(C)C(=O)NC(C(=O)N1Cc2cc([101O:1][101CH2:1]C(=O)CC=CNc3cc([100NH:0][100C:0](=O)N4CCCC(n5nc(-c6ccc(Oc7ccc(F)cc7F)cc6)c(C(N)=O)c5N)C4)cc(CF)c3N)ccc2CC1C(=O)NC1CCCc2ccccc21)C(C)(C)C

> <Shape>
0.248

> <Color>
0.058

> <Negative vol penalty>
0.000

$$$$

  -OEChem-04052304023D

 86 94  0     1  0  0  0  0  0999 V2000
  -15.9781  -14.1499   18.6323 C   0  0  0  0  0  0  0  0  0  0  0  0
  -17.2937  -13.7032   18.5601 C   0  0  0  0  0  0  0  0  0  0  0  0
  -26.5556  -28.3519   18.8722 C   0  0  0  0  0  0  0  0  0  0  0  0
  -26.1657  -27.3099   21.0168 C   0  0  0  0  0  0  0  0  0  0  0  0
  -15.7121  -15.5116   18.7698 C   0  0  0  0  0  0  0  0  0  0  0  0
  -18.3440  -14.6182   18.6243 C   0  0  0  0  0  0  0  0  0  0  0  0
  -23.8300  -13.7502   21.2042 C   0  0  0  0  0  0  0  0  0  0  0  0
  -25.5243  -29.2565   19.1242 C   0  0  0  0  0  0  0  0  0  0  0  0
  -25.1344  -28.2146   21.2689 C   0  0  0  0  0  0  0  0  0  0  0  0
  -25.0727  -13.4078   20.6730 C   0  0  0  0  0  0  0  0  0  0  0  0
  -24.8313  -31.4273   22.2726 C   0  0  0  0  0  0  0  0  0  0  0  0
  -24.7840  -32.0185   23.5350 C   0  0  0  0  0  0  0  0  0  0  0  0
  -25.6781  -15.7418   20.6009 C   0  0  0  0  0  0  0  0  0  0  0  0
  -22.5914  -31.0704   23.8969 C   0  0  0  0  0  0  0  0  0  0  0  0
  -26.8763  -27.3785   19.8185 C   0  0  0  0  0  0  0  0  0  0  0  0
  -29.3033  -26.5951   19.8802 C   0  0  0  0  0  0  0  0  0  0  0  0
  -16.7599  -16.4428   18.8454 C   0  0  0  0  0  0  0  0  0  0  0  0
  -23.4973  -15.0939   21.4279 C   0  0  0  0  0  0  0  0  0  0  0  0
  -18.0917  -15.9937   18.7616 C   0  0  0  0  0  0  0  0  0  0  0  0
  -24.4315  -16.0984   21.1374 C   0  0  0  0  0  0  0  0  0  0  0  0
  -24.8137  -29.1879   20.3226 C   0  0  0  0  0  0  0  0  0  0  0  0
  -25.9959  -14.4039   20.3686 C   0  0  0  0  0  0  0  0  0  0  0  0
  -23.7586  -30.6577   21.8222 C   0  0  0  0  0  0  0  0  0  0  0  0
  -23.6641  -31.8401   24.3472 C   0  0  0  0  0  0  0  0  0  0  0  0
  -22.6387  -30.4792   22.6344 C   0  0  0  0  0  0  0  0  0  0  0  0
  -27.9412  -26.4433   19.5585 C   0  0  0  0  0  0  0  0  0  0  0  0
  -30.6801  -17.0831   21.8941 C   0  0  0  0  0  0  0  0  0  0  0  0
  -29.8937  -25.4406   19.4275 C   0  0  0  0  0  0  0  0  0  0  0  0
  -30.8377  -17.8791   23.0093 C   0  0  0  0  0  0  0  0  0  0  0  0
  -29.8546  -18.9480   21.0874 C   0  0  0  0  0  0  0  0  0  0  0  0
  -29.9748  -27.6825   20.5301 C   0  0  0  0  0  0  0  0  0  0  0  0
  -31.0723  -15.6485   21.8211 C   0  0  0  0  0  0  0  0  0  0  0  0
  -30.8420  -14.8999   20.5372 C   0  0  0  0  0  0  0  0  0  0  0  0
  -29.5837  -14.1430   20.1948 C   0  0  0  0  0  0  0  0  0  0  0  0
  -21.2665  -17.0673   20.3176 C   0  0  0  0  0  0  0  0  0  0  0  0
  -22.4957  -19.0831   22.5420 C   0  0  0  0  0  0  0  0  0  0  0  0
  -25.1560  -19.9837   24.4807 C   0  0  0  0  0  0  0  0  0  0  0  0
  -28.8555  -19.7806   18.9299 C   0  0  0  0  0  0  0  0  0  0  0  0
  -16.4220  -17.9092   18.9465 C   0  0  0  0  0  0  0  0  0  0  0  0
  -22.1628  -15.4449   22.0265 C   0  0  0  0  0  0  0  0  0  0  0  0
  -24.1309  -17.5545   21.3779 C   0  0  0  0  0  0  0  0  0  0  0  0
  -17.5994  -18.7768   19.3837 C   0  0  0  0  0  0  0  0  0  0  0  0
  -28.6719  -21.9651   16.1243 C   0  0  0  0  0  0  0  0  0  0  0  0
  -18.8540  -18.4099   18.5973 C   0  0  0  0  0  0  0  0  0  0  0  0
  -28.5980  -23.3581   16.7536 C   0  0  0  0  0  0  0  0  0  0  0  0
  -27.9025  -20.9308   16.9440 C   0  0  0  0  0  0  0  0  0  0  0  0
  -28.1906  -22.2644   18.9953 C   0  0  0  0  0  0  0  0  0  0  0  0
  -19.2586  -16.9530   18.8526 C   0  0  1  0  0  0  0  0  0  0  0  0
  -21.7349  -16.8795   21.7328 C   0  0  1  0  0  0  0  0  0  0  0  0
  -29.0050  -23.3274   18.2399 C   0  0  2  0  0  0  0  0  0  0  0  0
  -32.5818  -13.2153   24.0601 C   0  0  0  0  0  0  0  0  0  0  0  0
  -25.8726  -21.6959   26.1695 C   0  0  0  0  0  0  0  0  0  0  0  0
  -22.8312  -21.1386   20.3121 C   0  0  0  0  0  0  0  0  0  0  0  0
  -24.3788  -22.4114   21.8131 C   0  0  0  0  0  0  0  0  0  0  0  0
  -21.9978  -22.0741   22.4765 C   0  0  0  0  0  0  0  0  0  0  0  0
  -25.6008  -17.9205   26.5554 C   0  0  0  0  0  0  0  0  0  0  0  0
  -28.3037  -14.9365   20.1533 C   0  0  0  0  0  0  0  0  0  1  0  0
  -31.9707  -13.6547   22.7454 C   0  0  0  0  0  0  0  0  0  0  0  0
  -23.5960  -20.1166   22.5564 C   0  0  1  0  0  0  0  0  0  0  0  0
  -25.2578  -20.3212   25.9572 C   0  0  2  0  0  0  0  0  0  0  0  0
  -23.2062  -21.4080   21.7831 C   0  0  0  0  0  0  0  0  0  0  0  0
  -27.6815  -25.2838   18.9485 N   0  0  0  0  0  0  0  0  0  0  0  0
  -30.1162  -17.6942   20.7912 N   0  0  0  0  0  0  0  0  0  0  0  0
  -31.8089  -14.9276   19.6786 N   0  0  0  0  0  0  0  0  0  0  0  0
  -31.6008  -15.0587   22.8389 N   0  0  0  0  0  0  0  0  0  0  0  0
  -28.8886  -24.6966   18.8831 N   0  0  0  0  0  0  0  0  0  0  0  0
  -22.8102  -17.8474   21.9587 N   0  0  0  0  0  0  0  0  0  0  0  0
  -28.3441  -20.9560   18.3401 N   0  0  0  0  0  0  0  0  0  0  0  0
  -31.1694  -24.9994   19.4459 N   0  0  0  0  0  0  0  0  0  0  0  0
  -31.3568  -17.5419   24.2154 N   0  0  0  0  0  0  0  0  0  0  0  0
  -29.2175  -28.7918   20.9305 N   0  0  0  0  0  0  0  0  0  0  0  0
  -29.2742  -19.9337   20.2512 N   0  0  0  0  0  0  0  0  0  0  0  0
  -19.9177  -16.8287   20.1350 N   0  0  0  0  0  0  0  0  0  0  0  0
  -23.9297  -20.3380   23.9592 N   0  0  0  0  0  0  0  0  0  0  0  0
  -26.1019  -19.3150   26.6616 N   0  3  0  0  0  0  0  0  0  0  0  0
  -31.2124  -27.6780   20.7345 O   0  0  0  0  0  0  0  0  0  0  0  0
  -29.6724  -12.9447   19.9700 O   0  0  0  0  0  0  0  0  0  0  0  0
  -22.0691  -17.4052   19.4553 O   0  0  0  0  0  0  0  0  0  0  0  0
  -21.4000  -19.3594   23.0366 O   0  0  0  0  0  0  0  0  0  0  0  0
  -26.0739  -19.4616   23.8519 O   0  0  0  0  0  0  0  0  0  0  0  0
  -28.9428  -18.7235   18.3000 O   0  0  0  0  0  0  0  0  0  0  0  0
  -23.8074  -30.0707   20.5689 O   0  0  0  0  0  0  0  0  0  0  0  0
  -27.2094  -14.0725   19.8494 O   0  0  0  0  0  0  0  0  0  1  0  0
  -23.6194  -32.4066   25.5601 F   0  0  0  0  0  0  0  0  0  0  0  0
  -21.6056  -29.7400   22.2076 F   0  0  0  0  0  0  0  0  0  0  0  0
  -30.2616  -19.4593   22.6742 S   0  0  0  0  0  0  0  0  0  0  0  0
  1  2  1  0  0  0  0
  1  5  2  0  0  0  0
  2  6  2  0  0  0  0
  3  8  2  0  0  0  0
  3 15  1  0  0  0  0
  4  9  1  0  0  0  0
  4 15  2  0  0  0  0
  5 17  1  0  0  0  0
  6 19  1  0  0  0  0
  7 10  2  0  0  0  0
  7 18  1  0  0  0  0
  8 21  1  0  0  0  0
  9 21  2  0  0  0  0
 10 22  1  0  0  0  0
 11 12  2  0  0  0  0
 11 23  1  0  0  0  0
 12 24  1  0  0  0  0
 13 20  1  0  0  0  0
 13 22  2  0  0  0  0
 14 24  2  0  0  0  0
 14 25  1  0  0  0  0
 15 26  1  0  0  0  0
 16 26  1  0  0  0  0
 16 28  2  0  0  0  0
 16 31  1  0  0  0  0
 17 19  2  0  0  0  0
 17 39  1  0  0  0  0
 18 20  2  0  0  0  0
 18 40  1  0  0  0  0
 19 48  1  0  0  0  0
 20 41  1  0  0  0  0
 21 82  1  0  0  0  0
 22 83  1  0  0  0  0
 23 25  2  0  0  0  0
 23 82  1  0  0  0  0
 24 84  1  0  0  0  0
 25 85  1  0  0  0  0
 26 62  2  0  0  0  0
 27 29  2  0  0  0  0
 27 32  1  0  0  0  0
 27 63  1  0  0  0  0
 28 66  1  0  0  0  0
 28 69  1  0  0  0  0
 29 70  1  0  0  0  0
 29 86  1  0  0  0  0
 30 63  2  0  0  0  0
 30 72  1  0  0  0  0
 30 86  1  0  0  0  0
 31 71  1  0  0  0  0
 31 76  2  0  0  0  0
 32 33  1  0  0  0  0
 32 65  2  0  0  0  0
 33 34  1  0  0  0  0
 33 64  2  0  0  0  0
 34 57  1  0  0  0  0
 34 77  2  0  0  0  0
 35 49  1  0  0  0  0
 35 73  1  0  0  0  0
 35 78  2  0  0  0  0
 36 59  1  0  0  0  0
 36 67  1  0  0  0  0
 36 79  2  0  0  0  0
 37 60  1  0  0  0  0
 37 74  1  0  0  0  0
 37 80  2  0  0  0  0
 38 68  1  0  0  0  0
 38 72  1  0  0  0  0
 38 81  2  0  0  0  0
 39 42  1  0  0  0  0
 40 49  1  0  0  0  0
 41 67  1  0  0  0  0
 42 44  1  0  0  0  0
 43 45  1  0  0  0  0
 43 46  1  0  0  0  0
 44 48  1  0  0  0  0
 45 50  1  0  0  0  0
 46 68  1  0  0  0  0
 47 50  1  0  0  0  0
 47 68  1  0  0  0  0
 48 73  1  0  0  0  0
 49 67  1  0  0  0  0
 50 66  1  0  0  0  0
 51 58  1  0  0  0  0
 52 60  1  0  0  0  0
 53 61  1  0  0  0  0
 54 61  1  0  0  0  0
 55 61  1  0  0  0  0
 56 75  1  0  0  0  0
 57 83  1  0  0  0  0
 58 65  1  0  0  0  0
 59 61  1  0  0  0  0
 59 74  1  0  0  0  0
 60 75  1  0  0  0  0
 62 66  1  0  0  0  0
M  CHG  1  75   1
M  ISO  4  38 100  57 101  72 100  83 101
M  END
> <Batch ID>
0164

> <Smiles>
CCN=C(C(=N)C(=O)[101CH2:1][101O:1]c1ccc2c(c1)CN(C(=O)C(NC(=O)C(C)NC)C(C)(C)C)C(C(=O)NC1CCCc3ccccc31)C2)c1nc([100NH:0][100C:0](=O)N2CCCC(n3nc(-c4ccc(Oc5ccc(F)cc5F)cc4)c(C(N)=O)c3N)C2)sc1N

> <Shape>
0.231

> <Color>
0.053

> <Negative vol penalty>
0.000

$$$$

  -OEChem-04052304023D

 87 95  0     1  0  0  0  0  0999 V2000
  -28.7403  -24.4052   17.1857 C   0  0  0  0  0  0  0  0  0  0  0  0
  -27.5544  -24.5340   17.9015 C   0  0  0  0  0  0  0  0  0  0  0  0
  -26.3741  -13.2787   20.7140 C   0  0  0  0  0  0  0  0  0  0  0  0
  -24.0571  -13.0441   20.0708 C   0  0  0  0  0  0  0  0  0  0  0  0
  -29.8905  -25.0625   17.6205 C   0  0  0  0  0  0  0  0  0  0  0  0
  -27.5182  -25.3193   19.0531 C   0  0  0  0  0  0  0  0  0  0  0  0
  -23.4376  -28.3128   19.2358 C   0  0  0  0  0  0  0  0  0  0  0  0
  -26.3044  -12.0698   21.4062 C   0  0  0  0  0  0  0  0  0  0  0  0
  -23.9874  -11.8351   20.7630 C   0  0  0  0  0  0  0  0  0  0  0  0
  -22.2310  -27.7224   19.6092 C   0  0  0  0  0  0  0  0  0  0  0  0
  -24.9158   -8.6242   20.2644 C   0  0  0  0  0  0  0  0  0  0  0  0
  -24.2900   -7.5511   19.6301 C   0  0  0  0  0  0  0  0  0  0  0  0
  -17.2962  -20.6815   20.7123 C   0  0  0  0  0  0  0  0  0  0  0  0
  -19.0828  -19.4648   19.6331 C   0  0  0  0  0  0  0  0  0  0  0  0
  -22.5073  -28.5858   21.8447 C   0  0  0  0  0  0  0  0  0  0  0  0
  -19.5930  -21.3433   21.0641 C   0  0  0  0  0  0  0  0  0  0  0  0
  -22.6741   -7.4340   21.4223 C   0  0  0  0  0  0  0  0  0  0  0  0
  -25.2504  -13.7659   20.0463 C   0  0  0  0  0  0  0  0  0  0  0  0
  -17.7216  -19.6498   19.8756 C   0  0  0  0  0  0  0  0  0  0  0  0
  -25.6768  -15.2033   17.9824 C   0  0  0  0  0  0  0  0  0  0  0  0
  -29.8660  -25.8641   18.7726 C   0  0  0  0  0  0  0  0  0  0  0  0
  -24.1947  -29.0362   20.1685 C   0  0  0  0  0  0  0  0  0  0  0  0
  -28.6694  -25.9869   19.5045 C   0  0  0  0  0  0  0  0  0  0  0  0
  -23.7219  -29.1866   21.4799 C   0  0  0  0  0  0  0  0  0  0  0  0
  -18.2319  -21.5284   21.3065 C   0  0  0  0  0  0  0  0  0  0  0  0
  -20.0185  -20.3115   20.2274 C   0  0  0  0  0  0  0  0  0  0  0  0
  -25.1111  -11.3480   21.4307 C   0  0  0  0  0  0  0  0  0  0  0  0
  -21.7671  -27.8564   20.9145 C   0  0  0  0  0  0  0  0  0  0  0  0
  -24.4208   -9.1022   21.4778 C   0  0  0  0  0  0  0  0  0  0  0  0
  -23.1691   -6.9560   20.2090 C   0  0  0  0  0  0  0  0  0  0  0  0
  -23.2999   -8.5071   22.0567 C   0  0  0  0  0  0  0  0  0  0  0  0
  -25.3216  -15.0150   19.3315 C   0  0  0  0  0  0  0  0  0  0  0  0
  -25.5916  -16.5607   17.7912 C   0  0  0  0  0  0  0  0  0  0  0  0
  -17.5659  -23.6986   21.5694 C   0  0  0  0  0  0  0  0  0  0  0  0
  -16.7517  -18.7724   19.2586 C   0  0  0  0  0  0  0  0  0  0  0  0
  -26.0504  -14.2376   16.9907 C   0  0  0  0  0  0  0  0  0  0  0  0
  -27.1006  -28.7298   21.4198 C   0  0  0  0  0  0  0  0  0  0  0  0
  -26.3990  -31.5970   22.7648 C   0  0  0  0  0  0  0  0  0  0  0  0
  -24.0115  -33.8020   23.8063 C   0  0  0  0  0  0  0  0  0  0  0  0
  -22.4598  -20.8747   20.4906 C   0  0  0  0  0  0  0  0  0  0  0  0
  -31.1462  -26.5172   19.2300 C   0  0  0  0  0  0  0  0  0  0  0  0
  -25.4810  -29.6895   19.7429 C   0  0  0  0  0  0  0  0  0  0  0  0
  -24.4870  -29.9702   22.5138 C   0  0  0  0  0  0  0  0  0  0  0  0
  -30.9306  -27.6315   20.2508 C   0  0  0  0  0  0  0  0  0  0  0  0
  -26.0001  -20.7079   20.1509 C   0  0  0  0  0  0  0  0  0  0  0  0
  -29.9595  -27.1800   21.3370 C   0  0  0  0  0  0  0  0  0  0  0  0
  -26.2597  -19.2476   19.7735 C   0  0  0  0  0  0  0  0  0  0  0  0
  -24.8546  -20.8396   21.1530 C   0  0  0  0  0  0  0  0  0  0  0  0
  -23.8628  -18.7219   20.3779 C   0  0  0  0  0  0  0  0  0  0  0  0
  -28.5841  -26.8498   20.7448 C   0  0  1  0  0  0  0  0  0  0  0  0
  -26.4231  -29.9701   20.9095 C   0  0  1  0  0  0  0  0  0  0  0  0
  -24.9653  -18.5438   19.3213 C   0  0  2  0  0  0  0  0  0  0  0  0
  -15.7195  -25.2927   21.8780 C   0  0  0  0  0  0  0  0  0  0  0  0
  -23.7440  -36.0444   24.9005 C   0  0  0  0  0  0  0  0  0  0  0  0
  -27.0961  -30.3598   25.4654 C   0  0  0  0  0  0  0  0  0  0  0  0
  -25.9263  -32.2790   26.5682 C   0  0  0  0  0  0  0  0  0  0  0  0
  -27.9298  -32.6952   25.1415 C   0  0  0  0  0  0  0  0  0  0  0  0
  -22.6081  -34.9138   21.4498 C   0  0  0  0  0  0  0  0  0  0  0  0
  -19.4974  -25.6950   22.7446 C   0  0  0  0  0  0  0  0  0  0  0  0
  -18.0992  -26.0506   22.2205 C   0  0  0  0  0  0  0  0  0  0  0  0
  -20.4654  -26.8682   22.6422 C   0  0  0  0  0  0  0  0  0  1  0  0
  -17.1053  -24.8912   22.3758 C   0  0  2  0  0  0  0  0  0  0  0  0
  -25.7445  -32.0436   24.0498 C   0  0  1  0  0  0  0  0  0  0  0  0
  -23.8524  -35.2949   23.5818 C   0  0  2  0  0  0  0  0  0  0  0  0
  -26.6605  -31.8279   25.2875 C   0  0  0  0  0  0  0  0  0  0  0  0
  -25.0324  -16.1611   19.9534 N   0  0  0  0  0  0  0  0  0  0  0  0
  -17.8033  -22.5673   22.1493 N   0  0  0  0  0  0  0  0  0  0  0  0
  -25.2058  -17.0827   18.9907 N   0  0  0  0  0  0  0  0  0  0  0  0
  -25.7421  -30.5849   22.0508 N   0  0  0  0  0  0  0  0  0  0  0  0
  -23.6607  -20.1526   20.6555 N   0  0  0  0  0  0  0  0  0  0  0  0
  -25.8097  -17.3469   16.7156 N   0  0  0  0  0  0  0  0  0  0  0  0
  -15.4383  -18.9427   19.4851 N   0  0  0  0  0  0  0  0  0  0  0  0
  -26.0869  -12.8849   17.3557 N   0  0  0  0  0  0  0  0  0  0  0  0
  -21.4011  -20.1240   19.9804 N   0  0  0  0  0  0  0  0  0  0  0  0
  -27.8485  -28.0648   20.4670 N   0  0  0  0  0  0  0  0  0  0  0  0
  -25.3386  -33.4293   23.8410 N   0  0  0  0  0  0  0  0  0  0  0  0
  -17.1515  -17.7768   18.4497 N   0  3  0  0  0  0  0  0  0  0  0  0
  -22.6253  -35.5705   22.7822 N   0  3  0  0  0  0  0  0  0  0  0  0
  -26.3591  -14.5661   15.8201 O   0  0  0  0  0  0  0  0  0  0  0  0
  -26.9567  -28.4013   22.5916 O   0  0  0  0  0  0  0  0  0  0  0  0
  -27.4505  -32.1317   22.4041 O   0  0  0  0  0  0  0  0  0  0  0  0
  -23.0543  -33.0430   23.9415 O   0  0  0  0  0  0  0  0  0  0  0  0
  -22.3842  -22.0773   20.7549 O   0  0  0  0  0  0  0  0  0  0  0  0
  -25.0428  -10.1681   22.1059 O   0  0  0  0  0  0  0  0  0  0  0  0
  -20.5901  -27.2806   21.2818 O   0  0  0  0  0  0  0  0  0  1  0  0
  -22.5673   -5.9265   19.5990 F   0  0  0  0  0  0  0  0  0  0  0  0
  -22.8191   -8.9627   23.2216 F   0  0  0  0  0  0  0  0  0  0  0  0
  1  2  1  0  0  0  0
  1  5  2  0  0  0  0
  2  6  2  0  0  0  0
  3  8  2  0  0  0  0
  3 18  1  0  0  0  0
  4  9  1  0  0  0  0
  4 18  2  0  0  0  0
  5 21  1  0  0  0  0
  6 23  1  0  0  0  0
  7 10  2  0  0  0  0
  7 22  1  0  0  0  0
  8 27  1  0  0  0  0
  9 27  2  0  0  0  0
 10 28  1  0  0  0  0
 11 12  2  0  0  0  0
 11 29  1  0  0  0  0
 12 30  1  0  0  0  0
 13 19  1  0  0  0  0
 13 25  2  0  0  0  0
 14 19  2  0  0  0  0
 14 26  1  0  0  0  0
 15 24  1  0  0  0  0
 15 28  2  0  0  0  0
 16 25  1  0  0  0  0
 16 26  2  0  0  0  0
 17 30  2  0  0  0  0
 17 31  1  0  0  0  0
 18 32  1  0  0  0  0
 19 35  1  0  0  0  0
 20 32  1  0  0  0  0
 20 33  2  0  0  0  0
 20 36  1  0  0  0  0
 21 23  2  0  0  0  0
 21 41  1  0  0  0  0
 22 24  2  0  0  0  0
 22 42  1  0  0  0  0
 23 50  1  0  0  0  0
 24 43  1  0  0  0  0
 25 67  1  0  0  0  0
 26 74  1  0  0  0  0
 27 84  1  0  0  0  0
 28 85  1  0  0  0  0
 29 31  2  0  0  0  0
 29 84  1  0  0  0  0
 30 86  1  0  0  0  0
 31 87  1  0  0  0  0
 32 66  2  0  0  0  0
 33 68  1  0  0  0  0
 33 71  1  0  0  0  0
 34 62  1  0  0  0  0
 34 67  2  0  0  0  0
 35 72  1  0  0  0  0
 35 77  2  0  0  0  0
 36 73  1  0  0  0  0
 36 79  2  0  0  0  0
 37 51  1  0  0  0  0
 37 75  1  0  0  0  0
 37 80  2  0  0  0  0
 38 63  1  0  0  0  0
 38 69  1  0  0  0  0
 38 81  2  0  0  0  0
 39 64  1  0  0  0  0
 39 76  1  0  0  0  0
 39 82  2  0  0  0  0
 40 70  1  0  0  0  0
 40 74  1  0  0  0  0
 40 83  2  0  0  0  0
 41 44  1  0  0  0  0
 42 51  1  0  0  0  0
 43 69  1  0  0  0  0
 44 46  1  0  0  0  0
 45 47  1  0  0  0  0
 45 48  1  0  0  0  0
 46 50  1  0  0  0  0
 47 52  1  0  0  0  0
 48 70  1  0  0  0  0
 49 52  1  0  0  0  0
 49 70  1  0  0  0  0
 50 75  1  0  0  0  0
 51 69  1  0  0  0  0
 52 68  1  0  0  0  0
 53 62  1  0  0  0  0
 54 64  1  0  0  0  0
 55 65  1  0  0  0  0
 56 65  1  0  0  0  0
 57 65  1  0  0  0  0
 58 78  1  0  0  0  0
 59 60  1  0  0  0  0
 59 61  1  0  0  0  0
 60 62  1  0  0  0  0
 61 85  1  0  0  0  0
 63 65  1  0  0  0  0
 63 76  1  0  0  0  0
 64 78  1  0  0  0  0
 66 68  1  0  0  0  0
M  CHG  2  77   1  78   1
M  ISO  4  40 100  61 101  74 100  85 101
M  END
> <Batch ID>
0164

> <Smiles>
CNC(C)C(=O)NC(C(=O)N1Cc2cc([101O:1][101CH2:1]CCC(C)=CNc3cc([100NH:0][100C:0](=O)N4CCCC(n5nc(-c6ccc(Oc7ccc(F)cc7F)cc6)c(C(N)=O)c5N)C4)cc(C(=N)N)c3)ccc2CC1C(=O)NC1CCCc2ccccc21)C(C)(C)C

> <Shape>
0.265

> <Color>
0.072

> <Negative vol penalty>
0.000

$$$$

  -OEChem-04052304023D

 86 95  0     1  0  0  0  0  0999 V2000
  -24.5428  -36.4589   16.2337 C   0  0  0  0  0  0  0  0  0  0  0  0
  -24.9051  -35.1226   16.0980 C   0  0  0  0  0  0  0  0  0  0  0  0
  -24.8615   -8.7456   21.4963 C   0  0  0  0  0  0  0  0  0  0  0  0
  -23.3623   -9.7600   19.8962 C   0  0  0  0  0  0  0  0  0  0  0  0
  -24.7380  -37.1130   17.4494 C   0  0  0  0  0  0  0  0  0  0  0  0
  -25.4638  -34.4398   17.1779 C   0  0  0  0  0  0  0  0  0  0  0  0
  -24.6873  -28.5336   18.5990 C   0  0  0  0  0  0  0  0  0  0  0  0
  -29.0004  -17.8830   21.5382 C   0  0  0  0  0  0  0  0  0  0  0  0
  -28.6388  -18.9595   20.7284 C   0  0  0  0  0  0  0  0  0  0  0  0
  -23.9316   -7.7314   21.7247 C   0  0  0  0  0  0  0  0  0  0  0  0
  -22.4323   -8.7458   20.1246 C   0  0  0  0  0  0  0  0  0  0  0  0
  -25.4685  -27.4024   18.3667 C   0  0  0  0  0  0  0  0  0  0  0  0
  -21.0689   -7.3254   23.4753 C   0  0  0  0  0  0  0  0  0  0  0  0
  -20.8181   -6.9632   24.7987 C   0  0  0  0  0  0  0  0  0  0  0  0
  -28.7538  -20.4111   22.6382 C   0  0  0  0  0  0  0  0  0  0  0  0
  -26.4264  -27.6188   20.5700 C   0  0  0  0  0  0  0  0  0  0  0  0
  -21.5499   -4.7108   24.3208 C   0  0  0  0  0  0  0  0  0  0  0  0
  -24.5769   -9.7600   20.5821 C   0  0  0  0  0  0  0  0  0  0  0  0
  -26.5669  -10.8175   19.3866 C   0  0  0  0  0  0  0  0  0  0  0  0
  -25.2905  -36.4351   18.5476 C   0  0  0  0  0  0  0  0  0  0  0  0
  -24.7780  -29.2234   19.8165 C   0  0  0  0  0  0  0  0  0  0  0  0
  -25.6678  -35.0858   18.4091 C   0  0  0  0  0  0  0  0  0  0  0  0
  -29.1003  -19.3348   23.4837 C   0  0  0  0  0  0  0  0  0  0  0  0
  -25.6435  -28.7570   20.8163 C   0  0  0  0  0  0  0  0  0  0  0  0
  -29.2375  -18.0436   22.9201 C   0  0  0  0  0  0  0  0  0  0  0  0
  -28.5187  -20.2261   21.2780 C   0  0  0  0  0  0  0  0  0  0  0  0
  -22.7170   -7.7315   21.0388 C   0  0  0  0  0  0  0  0  0  0  0  0
  -26.3403  -26.9465   19.3511 C   0  0  0  0  0  0  0  0  0  0  0  0
  -21.5601   -6.3804   22.5746 C   0  0  0  0  0  0  0  0  0  0  0  0
  -21.0586   -5.6558   25.2215 C   0  0  0  0  0  0  0  0  0  0  0  0
  -21.8006   -5.0731   22.9973 C   0  0  0  0  0  0  0  0  0  0  0  0
  -25.5368  -10.8082   20.3462 C   0  0  0  0  0  0  0  0  0  0  0  0
  -27.1925  -12.0270   19.5660 C   0  0  0  0  0  0  0  0  0  0  0  0
  -26.9260   -9.8218   18.4195 C   0  0  0  0  0  0  0  0  0  0  0  0
  -25.6314  -32.1639   20.6705 C   0  0  0  0  0  0  0  0  0  0  0  0
  -27.6418  -23.5935   19.8485 C   0  0  0  0  0  0  0  0  0  0  0  0
  -24.6394  -31.1817   23.5986 C   0  0  0  0  0  0  0  0  0  0  0  0
  -24.0397  -28.5891   25.7354 C   0  0  0  0  0  0  0  0  0  0  0  0
  -29.4242  -15.5656   23.3047 C   0  0  0  0  0  0  0  0  0  0  0  0
  -25.5261  -37.1973   19.8275 C   0  0  0  0  0  0  0  0  0  0  0  0
  -23.9090  -30.4264   20.0617 C   0  0  0  0  0  0  0  0  0  0  0  0
  -29.2900  -19.6813   24.9489 C   0  0  0  0  0  0  0  0  0  0  0  0
  -25.7632  -29.4499   22.1482 C   0  0  0  0  0  0  0  0  0  0  0  0
  -25.7778  -36.2976   21.0347 C   0  0  0  0  0  0  0  0  0  0  0  0
  -28.9362  -18.5801   25.9451 C   0  0  0  0  0  0  0  0  0  0  0  0
  -30.0179  -17.5121   26.0625 C   0  0  0  0  0  0  0  0  0  0  0  0
  -25.8542  -16.0746   22.2603 C   0  0  0  0  0  0  0  0  0  0  0  0
  -26.7843  -35.2057   20.6861 C   0  0  0  0  0  0  0  0  0  0  0  0
  -25.5348  -14.7077   21.6599 C   0  0  0  0  0  0  0  0  0  0  0  0
  -30.6654  -17.1469   24.7346 C   0  0  0  0  0  0  0  0  0  0  0  0
  -26.9167  -15.9713   23.3485 C   0  0  0  0  0  0  0  0  0  0  0  0
  -27.8608  -13.9351   22.3008 C   0  0  0  0  0  0  0  0  0  0  0  0
  -26.2539  -34.3041   19.5648 C   0  0  1  0  0  0  0  0  0  0  0  0
  -24.4596  -31.3508   21.1432 C   0  0  1  0  0  0  0  0  0  0  0  0
  -26.8163  -14.0109   21.1754 C   0  0  1  0  0  0  0  0  0  0  0  0
  -23.2698  -28.1012   28.0734 C   0  0  0  0  0  0  0  0  0  0  0  0
  -27.3610  -32.0468   24.6728 C   0  0  0  0  0  0  0  0  0  0  0  0
  -26.9006  -30.6962   26.7300 C   0  0  0  0  0  0  0  0  0  0  0  0
  -25.4260  -32.6225   26.1488 C   0  0  0  0  0  0  0  0  0  0  0  0
  -21.7103  -27.0402   24.7691 C   0  0  0  0  0  0  0  0  0  0  0  0
  -28.0244  -22.6524   20.9711 C   0  0  0  0  0  0  0  0  0  0  0  0
  -27.4527  -25.0445   20.2461 C   0  0  0  0  0  0  0  0  0  1  0  0
  -25.2944  -30.5028   24.7771 C   0  0  1  0  0  0  0  0  0  0  0  0
  -22.8495  -28.2689   26.6215 C   0  0  2  0  0  0  0  0  0  0  0  0
  -26.2449  -31.4549   25.5564 C   0  0  0  0  0  0  0  0  0  0  0  0
  -25.5065  -11.9233   21.0808 N   0  0  0  0  0  0  0  0  0  0  0  0
  -26.5253  -12.6445   20.5828 N   0  0  0  0  0  0  0  0  0  0  0  0
  -29.6716  -16.9011   23.6868 N   0  0  0  0  0  0  0  0  0  0  0  0
  -24.8972  -30.6254   22.3376 N   0  0  0  0  0  0  0  0  0  0  0  0
  -28.1138  -15.2545   22.8861 N   0  0  0  0  0  0  0  0  0  0  0  0
  -28.2427  -12.6119   18.9518 N   0  0  0  0  0  0  0  0  0  0  0  0
  -26.1781   -8.6375   18.3705 N   0  0  0  0  0  0  0  0  0  0  0  0
  -28.1645  -21.3214   20.4651 N   0  0  0  0  0  0  0  0  0  0  0  0
  -25.2826  -33.3668   20.0867 N   0  0  0  0  0  0  0  0  0  0  0  0
  -24.2115  -29.9487   25.5826 N   0  0  0  0  0  0  0  0  0  0  0  0
  -22.1945  -27.0075   26.1732 N   0  3  0  0  0  0  0  0  0  0  0  0
  -27.8921   -9.9707   17.6334 O   0  0  0  0  0  0  0  0  0  0  0  0
  -26.7679  -31.7325   20.8254 O   0  0  0  0  0  0  0  0  0  0  0  0
  -27.4913  -23.2169   18.6869 O   0  0  0  0  0  0  0  0  0  0  0  0
  -23.9195  -32.1648   23.7904 O   0  0  0  0  0  0  0  0  0  0  0  0
  -24.7485  -27.7202   25.2323 O   0  0  0  0  0  0  0  0  0  0  0  0
  -30.3034  -14.6973   23.3704 O   0  0  0  0  0  0  0  0  0  0  0  0
  -21.8094   -6.7418   21.2612 O   0  0  0  0  0  0  0  0  0  0  0  0
  -27.1123  -25.8316   19.1244 O   0  0  0  0  0  0  0  0  0  1  0  0
  -20.8191   -5.3085   26.4927 F   0  0  0  0  0  0  0  0  0  0  0  0
  -22.2737   -4.1611   22.1369 F   0  0  0  0  0  0  0  0  0  0  0  0
  1  2  1  0  0  0  0
  1  5  2  0  0  0  0
  2  6  2  0  0  0  0
  3 10  2  0  0  0  0
  3 18  1  0  0  0  0
  4 11  1  0  0  0  0
  4 18  2  0  0  0  0
  5 20  1  0  0  0  0
  6 22  1  0  0  0  0
  7 12  2  0  0  0  0
  7 21  1  0  0  0  0
  8  9  2  0  0  0  0
  8 25  1  0  0  0  0
  9 26  1  0  0  0  0
 10 27  1  0  0  0  0
 11 27  2  0  0  0  0
 12 28  1  0  0  0  0
 13 14  2  0  0  0  0
 13 29  1  0  0  0  0
 14 30  1  0  0  0  0
 15 23  1  0  0  0  0
 15 26  2  0  0  0  0
 16 24  1  0  0  0  0
 16 28  2  0  0  0  0
 17 30  2  0  0  0  0
 17 31  1  0  0  0  0
 18 32  1  0  0  0  0
 19 32  1  0  0  0  0
 19 33  2  0  0  0  0
 19 34  1  0  0  0  0
 20 22  2  0  0  0  0
 20 40  1  0  0  0  0
 21 24  2  0  0  0  0
 21 41  1  0  0  0  0
 22 53  1  0  0  0  0
 23 25  2  0  0  0  0
 23 42  1  0  0  0  0
 24 43  1  0  0  0  0
 25 68  1  0  0  0  0
 26 73  1  0  0  0  0
 27 83  1  0  0  0  0
 28 84  1  0  0  0  0
 29 31  2  0  0  0  0
 29 83  1  0  0  0  0
 30 85  1  0  0  0  0
 31 86  1  0  0  0  0
 32 66  2  0  0  0  0
 33 67  1  0  0  0  0
 33 71  1  0  0  0  0
 34 72  1  0  0  0  0
 34 77  2  0  0  0  0
 35 54  1  0  0  0  0
 35 74  1  0  0  0  0
 35 78  2  0  0  0  0
 36 61  1  0  0  0  0
 36 62  1  0  0  0  0
 36 79  2  0  0  0  0
 37 63  1  0  0  0  0
 37 69  1  0  0  0  0
 37 80  2  0  0  0  0
 38 64  1  0  0  0  0
 38 75  1  0  0  0  0
 38 81  2  0  0  0  0
 39 68  1  0  0  0  0
 39 70  1  0  0  0  0
 39 82  2  0  0  0  0
 40 44  1  0  0  0  0
 41 54  1  0  0  0  0
 42 45  1  0  0  0  0
 43 69  1  0  0  0  0
 44 48  1  0  0  0  0
 45 46  1  0  0  0  0
 46 50  1  0  0  0  0
 47 49  1  0  0  0  0
 47 51  1  0  0  0  0
 48 53  1  0  0  0  0
 49 55  1  0  0  0  0
 50 68  1  0  0  0  0
 51 70  1  0  0  0  0
 52 55  1  0  0  0  0
 52 70  1  0  0  0  0
 53 74  1  0  0  0  0
 54 69  1  0  0  0  0
 55 67  1  0  0  0  0
 56 64  1  0  0  0  0
 57 65  1  0  0  0  0
 58 65  1  0  0  0  0
 59 65  1  0  0  0  0
 60 76  1  0  0  0  0
 61 73  1  0  0  0  0
 62 84  1  0  0  0  0
 63 65  1  0  0  0  0
 63 75  1  0  0  0  0
 64 76  1  0  0  0  0
 66 67  1  0  0  0  0
M  CHG  1  76   1
M  ISO  4  39 100  62 101  68 100  84 101
M  END
> <Batch ID>
0164

> <Smiles>
CNC(C)C(=O)NC(C(=O)N1Cc2cc([101O:1][101CH2:1]C(=O)CNc3ccc4c(c3)CCCC[100N:0]4[100C:0](=O)N3CCCC(n4nc(-c5ccc(Oc6ccc(F)cc6F)cc5)c(C(N)=O)c4N)C3)ccc2CC1C(=O)NC1CCCc2ccccc21)C(C)(C)C

> <Shape>
0.269

> <Color>
0.118

> <Negative vol penalty>
0.000

$$$$

  -OEChem-04052304023D

 88 96  0     1  0  0  0  0  0999 V2000
  -20.3747  -34.7924   21.8446 C   0  0  0  0  0  0  0  0  0  0  0  0
  -21.6109  -34.2611   21.4911 C   0  0  0  0  0  0  0  0  0  0  0  0
  -27.8053  -13.7807   22.9946 C   0  0  0  0  0  0  0  0  0  0  0  0
  -26.8979  -13.4347   20.7824 C   0  0  0  0  0  0  0  0  0  0  0  0
  -19.5459  -34.0998   22.7261 C   0  0  0  0  0  0  0  0  0  0  0  0
  -22.0194  -33.0372   22.0198 C   0  0  0  0  0  0  0  0  0  0  0  0
  -25.3762  -28.7513   19.2146 C   0  0  0  0  0  0  0  0  0  0  0  0
  -27.1103  -12.6623   23.4546 C   0  0  0  0  0  0  0  0  0  0  0  0
  -26.2029  -12.3162   21.2424 C   0  0  0  0  0  0  0  0  0  0  0  0
  -26.7350  -28.4433   19.2635 C   0  0  0  0  0  0  0  0  0  0  0  0
  -23.3778  -11.6829   22.9885 C   0  0  0  0  0  0  0  0  0  0  0  0
  -22.0439  -11.5457   22.6046 C   0  0  0  0  0  0  0  0  0  0  0  0
  -32.9877  -23.0425   17.3457 C   0  0  0  0  0  0  0  0  0  0  0  0
  -26.2850  -26.7480   20.9196 C   0  0  0  0  0  0  0  0  0  0  0  0
  -22.5685   -9.4449   21.5328 C   0  0  0  0  0  0  0  0  0  0  0  0
  -27.6990  -14.1670   21.6585 C   0  0  0  0  0  0  0  0  0  0  0  0
  -32.2209  -21.9333   16.9158 C   0  0  0  0  0  0  0  0  0  0  0  0
  -29.7166  -15.3538   20.6443 C   0  0  0  0  0  0  0  0  0  0  0  0
  -19.9403  -32.8621   23.2584 C   0  0  0  0  0  0  0  0  0  0  0  0
  -24.4614  -28.0663   20.0272 C   0  0  0  0  0  0  0  0  0  0  0  0
  -21.1956  -32.3279   22.9104 C   0  0  0  0  0  0  0  0  0  0  0  0
  -24.9147  -27.0475   20.8772 C   0  0  0  0  0  0  0  0  0  0  0  0
  -26.3091  -11.9300   22.5785 C   0  0  0  0  0  0  0  0  0  0  0  0
  -27.1900  -27.4435   20.1182 C   0  0  0  0  0  0  0  0  0  0  0  0
  -24.3071  -10.7011   22.6445 C   0  0  0  0  0  0  0  0  0  0  0  0
  -21.6392  -10.4267   21.8768 C   0  0  0  0  0  0  0  0  0  0  0  0
  -23.9024   -9.5822   21.9167 C   0  0  0  0  0  0  0  0  0  0  0  0
  -28.4163  -15.3226   21.1828 C   0  0  0  0  0  0  0  0  0  0  0  0
  -30.9483  -22.4089   16.7009 C   0  0  0  0  0  0  0  0  0  0  0  0
  -29.9336  -16.6772   20.3474 C   0  0  0  0  0  0  0  0  0  0  0  0
  -32.1290  -24.1169   17.3627 C   0  0  0  0  0  0  0  0  0  0  0  0
  -32.6459  -20.5776   16.7301 C   0  0  0  0  0  0  0  0  0  0  0  0
  -30.6453  -14.2824   20.4315 C   0  0  0  0  0  0  0  0  0  0  0  0
  -34.0832  -20.1395   16.9945 C   0  0  0  0  0  0  0  0  0  0  0  0
  -22.4639  -28.9023   22.3541 C   0  0  0  0  0  0  0  0  0  0  0  0
  -30.4111  -26.3407   18.8875 C   0  0  0  0  0  0  0  0  0  0  0  0
  -21.5176  -25.8082   22.1231 C   0  0  0  0  0  0  0  0  0  0  0  0
  -22.2731  -22.6079   21.2097 C   0  0  0  0  0  0  0  0  0  0  0  0
  -28.1986  -21.5349   18.2172 C   0  0  0  0  0  0  0  0  0  0  0  0
  -19.0306  -32.1730   24.2444 C   0  0  0  0  0  0  0  0  0  0  0  0
  -22.9954  -28.3922   19.9431 C   0  0  0  0  0  0  0  0  0  0  0  0
  -23.9707  -26.2685   21.7551 C   0  0  0  0  0  0  0  0  0  0  0  0
  -19.3767  -30.7031   24.4680 C   0  0  0  0  0  0  0  0  0  0  0  0
  -27.2827  -20.8053   21.5796 C   0  0  0  0  0  0  0  0  0  0  0  0
  -20.8780  -30.5342   24.6788 C   0  0  0  0  0  0  0  0  0  0  0  0
  -27.5973  -19.3158   21.7294 C   0  0  0  0  0  0  0  0  0  0  0  0
  -26.7503  -21.1323   20.1861 C   0  0  0  0  0  0  0  0  0  0  0  0
  -27.9203  -19.1884   19.2237 C   0  0  0  0  0  0  0  0  0  0  0  0
  -21.6634  -30.9911   23.4435 C   0  0  1  0  0  0  0  0  0  0  0  0
  -22.2197  -27.9827   21.1913 C   0  0  1  0  0  0  0  0  0  0  0  0
  -28.5130  -18.8192   20.5944 C   0  0  2  0  0  0  0  0  0  0  0  0
  -35.8324  -19.2352   18.5481 C   0  0  0  0  0  0  0  0  0  0  0  0
  -21.3127  -20.2898   21.1772 C   0  0  0  0  0  0  0  0  0  0  0  0
  -22.0147  -25.5628   25.1235 C   0  0  0  0  0  0  0  0  0  0  0  0
  -21.9679  -23.0738   24.8571 C   0  0  0  0  0  0  0  0  0  0  0  0
  -19.9415  -24.4229   24.3129 C   0  0  0  0  0  0  0  0  0  0  0  0
  -22.4584  -22.4474   18.2603 C   0  0  0  0  0  0  0  0  0  0  0  0
  -29.6954  -21.7816   16.2530 C   0  0  0  0  0  0  0  0  0  0  0  0
  -34.3866  -19.6721   18.3969 C   0  0  0  0  0  0  0  0  0  0  0  0
  -31.2787  -26.4449   17.6512 C   0  0  0  0  0  0  0  0  0  0  0  0
  -29.2726  -27.3386   18.9747 C   0  0  0  0  0  0  0  0  0  1  0  0
  -21.9403  -24.5100   22.7672 C   0  0  1  0  0  0  0  0  0  0  0  0
  -21.5008  -21.5828   20.3991 C   0  0  2  0  0  0  0  0  0  0  0  0
  -21.4844  -24.4082   24.2502 C   0  0  0  0  0  0  0  0  0  0  0  0
  -27.8472  -16.5302   21.2268 N   0  0  0  0  0  0  0  0  0  0  0  0
  -31.8580  -19.5998   16.3275 N   0  0  0  0  0  0  0  0  0  0  0  0
  -28.7945  -17.3327   20.7122 N   0  0  0  0  0  0  0  0  0  0  0  0
  -22.5477  -26.6285   21.6416 N   0  0  0  0  0  0  0  0  0  0  0  0
  -27.6656  -20.6359   19.1557 N   0  0  0  0  0  0  0  0  0  0  0  0
  -30.9857  -17.3324   19.8126 N   0  0  0  0  0  0  0  0  0  0  0  0
  -30.2614  -12.9838   20.7929 N   0  0  0  0  0  0  0  0  0  0  0  0
  -32.3196  -25.4501   17.6968 N   0  0  0  0  0  0  0  0  0  0  0  0
  -21.6050  -29.9836   22.4063 N   0  0  0  0  0  0  0  0  0  0  0  0
  -21.4306  -23.4445   21.9109 N   0  0  0  0  0  0  0  0  0  0  0  0
  -29.0625  -20.9832   17.2791 N   0  0  0  0  0  0  0  0  0  0  0  0
  -22.2254  -21.2694   19.1350 N   0  3  0  0  0  0  0  0  0  0  0  0
  -31.7880  -14.4734   19.9507 O   0  0  0  0  0  0  0  0  0  0  0  0
  -34.8690  -20.1924   16.0610 O   0  0  0  0  0  0  0  0  0  0  0  0
  -23.3638  -28.6488   23.1463 O   0  0  0  0  0  0  0  0  0  0  0  0
  -30.6075  -25.5059   19.7697 O   0  0  0  0  0  0  0  0  0  0  0  0
  -20.3172  -26.0810   22.0434 O   0  0  0  0  0  0  0  0  0  0  0  0
  -23.5010  -22.6590   21.2227 O   0  0  0  0  0  0  0  0  0  0  0  0
  -27.9290  -22.7408   18.2187 O   0  0  0  0  0  0  0  0  0  0  0  0
  -30.8839  -23.7391   16.9709 O   0  0  0  0  0  0  0  0  0  0  0  0
  -25.6310  -10.8384   23.0270 O   0  0  0  0  0  0  0  0  0  0  0  0
  -28.5159  -27.1413   20.1683 O   0  0  0  0  0  0  0  0  0  1  0  0
  -20.3579  -10.2943   21.5096 F   0  0  0  0  0  0  0  0  0  0  0  0
  -24.7904   -8.6351   21.5843 F   0  0  0  0  0  0  0  0  0  0  0  0
  1  2  1  0  0  0  0
  1  5  2  0  0  0  0
  2  6  2  0  0  0  0
  3  8  2  0  0  0  0
  3 16  1  0  0  0  0
  4  9  1  0  0  0  0
  4 16  2  0  0  0  0
  5 19  1  0  0  0  0
  6 21  1  0  0  0  0
  7 10  2  0  0  0  0
  7 20  1  0  0  0  0
  8 23  1  0  0  0  0
  9 23  2  0  0  0  0
 10 24  1  0  0  0  0
 11 12  2  0  0  0  0
 11 25  1  0  0  0  0
 12 26  1  0  0  0  0
 13 17  1  0  0  0  0
 13 31  2  0  0  0  0
 14 22  1  0  0  0  0
 14 24  2  0  0  0  0
 15 26  2  0  0  0  0
 15 27  1  0  0  0  0
 16 28  1  0  0  0  0
 17 29  2  0  0  0  0
 17 32  1  0  0  0  0
 18 28  1  0  0  0  0
 18 30  2  0  0  0  0
 18 33  1  0  0  0  0
 19 21  2  0  0  0  0
 19 40  1  0  0  0  0
 20 22  2  0  0  0  0
 20 41  1  0  0  0  0
 21 49  1  0  0  0  0
 22 42  1  0  0  0  0
 23 85  1  0  0  0  0
 24 86  1  0  0  0  0
 25 27  2  0  0  0  0
 25 85  1  0  0  0  0
 26 87  1  0  0  0  0
 27 88  1  0  0  0  0
 28 65  2  0  0  0  0
 29 58  1  0  0  0  0
 29 84  1  0  0  0  0
 30 67  1  0  0  0  0
 30 70  1  0  0  0  0
 31 72  1  0  0  0  0
 31 84  1  0  0  0  0
 32 34  1  0  0  0  0
 32 66  2  0  0  0  0
 33 71  1  0  0  0  0
 33 77  2  0  0  0  0
 34 59  1  0  0  0  0
 34 78  2  0  0  0  0
 35 50  1  0  0  0  0
 35 73  1  0  0  0  0
 35 79  2  0  0  0  0
 36 60  1  0  0  0  0
 36 61  1  0  0  0  0
 36 80  2  0  0  0  0
 37 62  1  0  0  0  0
 37 68  1  0  0  0  0
 37 81  2  0  0  0  0
 38 63  1  0  0  0  0
 38 74  1  0  0  0  0
 38 82  2  0  0  0  0
 39 69  1  0  0  0  0
 39 75  1  0  0  0  0
 39 83  2  0  0  0  0
 40 43  1  0  0  0  0
 41 50  1  0  0  0  0
 42 68  1  0  0  0  0
 43 45  1  0  0  0  0
 44 46  1  0  0  0  0
 44 47  1  0  0  0  0
 45 49  1  0  0  0  0
 46 51  1  0  0  0  0
 47 69  1  0  0  0  0
 48 51  1  0  0  0  0
 48 69  1  0  0  0  0
 49 73  1  0  0  0  0
 50 68  1  0  0  0  0
 51 67  1  0  0  0  0
 52 59  1  0  0  0  0
 53 63  1  0  0  0  0
 54 64  1  0  0  0  0
 55 64  1  0  0  0  0
 56 64  1  0  0  0  0
 57 76  1  0  0  0  0
 58 75  1  0  0  0  0
 60 72  1  0  0  0  0
 61 86  1  0  0  0  0
 62 64  1  0  0  0  0
 62 74  1  0  0  0  0
 63 76  1  0  0  0  0
 65 67  1  0  0  0  0
M  CHG  1  76   1
M  ISO  4  39 100  61 101  75 100  86 101
M  END
> <Batch ID>
0164

> <Smiles>
CCC(=O)C(=N)c1cc(NCC(=O)[101CH2:1][101O:1]c2ccc3c(c2)CN(C(=O)C(NC(=O)C(C)NC)C(C)(C)C)C(C(=O)NC2CCCc4ccccc42)C3)oc1C[100NH:0][100C:0](=O)N1CCCC(n2nc(-c3ccc(Oc4ccc(F)cc4F)cc3)c(C(N)=O)c2N)C1

> <Shape>
0.213

> <Color>
0.105

> <Negative vol penalty>
0.000

$$$$

  -OEChem-04052304023D

 88 96  0     1  0  0  0  0  0999 V2000
  -28.1507  -11.1163   19.1215 C   0  0  0  0  0  0  0  0  0  0  0  0
  -28.3200  -12.3956   18.6018 C   0  0  0  0  0  0  0  0  0  0  0  0
  -20.2274  -25.1533   19.1605 C   0  0  0  0  0  0  0  0  0  0  0  0
  -22.5213  -24.3947   19.1629 C   0  0  0  0  0  0  0  0  0  0  0  0
  -27.0222  -10.8186   19.8843 C   0  0  0  0  0  0  0  0  0  0  0  0
  -27.3602  -13.3778   18.8438 C   0  0  0  0  0  0  0  0  0  0  0  0
  -29.4124  -17.8209   20.1446 C   0  0  0  0  0  0  0  0  0  0  0  0
  -19.9074  -24.1825   18.2114 C   0  0  0  0  0  0  0  0  0  0  0  0
  -22.2012  -23.4239   18.2138 C   0  0  0  0  0  0  0  0  0  0  0  0
  -29.9427  -18.6020   19.1188 C   0  0  0  0  0  0  0  0  0  0  0  0
  -19.2806  -20.8603   18.1600 C   0  0  0  0  0  0  0  0  0  0  0  0
  -18.1167  -20.1179   18.3592 C   0  0  0  0  0  0  0  0  0  0  0  0
  -27.9405  -19.9475   19.1164 C   0  0  0  0  0  0  0  0  0  0  0  0
  -29.6809  -26.4307   23.1418 C   0  0  0  0  0  0  0  0  0  0  0  0
  -30.6222  -24.7184   21.7209 C   0  0  0  0  0  0  0  0  0  0  0  0
  -17.2428  -20.9237   16.2558 C   0  0  0  0  0  0  0  0  0  0  0  0
  -21.5344  -25.2594   19.6362 C   0  0  0  0  0  0  0  0  0  0  0  0
  -21.3204  -26.4032   21.9063 C   0  0  0  0  0  0  0  0  0  0  0  0
  -26.0529  -11.8003   20.1438 C   0  0  0  0  0  0  0  0  0  0  0  0
  -28.1355  -18.0909   20.6575 C   0  0  0  0  0  0  0  0  0  0  0  0
  -26.2170  -13.0926   19.6096 C   0  0  0  0  0  0  0  0  0  0  0  0
  -27.3973  -19.1699   20.1505 C   0  0  0  0  0  0  0  0  0  0  0  0
  -29.6245  -27.3022   22.0543 C   0  0  0  0  0  0  0  0  0  0  0  0
  -30.0670  -26.8819   20.8000 C   0  0  0  0  0  0  0  0  0  0  0  0
  -30.5658  -25.5899   20.6333 C   0  0  0  0  0  0  0  0  0  0  0  0
  -20.8942  -23.3178   17.7381 C   0  0  0  0  0  0  0  0  0  0  0  0
  -29.2055  -19.6637   18.6025 C   0  0  0  0  0  0  0  0  0  0  0  0
  -19.4257  -21.6344   17.0088 C   0  0  0  0  0  0  0  0  0  0  0  0
  -17.0978  -20.1496   17.4070 C   0  0  0  0  0  0  0  0  0  0  0  0
  -30.1798  -25.1388   22.9752 C   0  0  0  0  0  0  0  0  0  0  0  0
  -18.4068  -21.6661   16.0566 C   0  0  0  0  0  0  0  0  0  0  0  0
  -21.8658  -26.2623   20.6162 C   0  0  0  0  0  0  0  0  0  0  0  0
  -21.9615  -27.4980   22.4325 C   0  0  0  0  0  0  0  0  0  0  0  0
  -29.8895  -21.7636   17.8322 C   0  0  0  0  0  0  0  0  0  1  0  0
  -30.1236  -24.5924   18.6345 C   0  0  0  0  0  0  0  0  0  0  0  0
  -20.3233  -25.6149   22.5698 C   0  0  0  0  0  0  0  0  0  0  0  0
  -30.3778  -22.6674   16.9748 C   0  0  0  0  0  0  0  0  0  0  0  0
  -30.5328  -24.1063   17.2864 C   0  0  0  0  0  0  0  0  0  0  0  0
  -25.3936  -16.4899   20.8070 C   0  0  0  0  0  0  0  0  0  0  0  0
  -24.4575  -19.0307   22.5932 C   0  0  0  0  0  0  0  0  0  0  0  0
  -24.8822  -22.3196   23.3989 C   0  0  0  0  0  0  0  0  0  0  0  0
  -27.2561  -30.0558   21.3026 C   0  0  0  0  0  0  0  0  0  0  0  0
  -24.8264  -11.4184   20.9341 C   0  0  0  0  0  0  0  0  0  0  0  0
  -27.5887  -17.2555   21.7824 C   0  0  0  0  0  0  0  0  0  0  0  0
  -26.0301  -19.5140   20.6804 C   0  0  0  0  0  0  0  0  0  0  0  0
  -24.0415  -12.6182   21.4582 C   0  0  0  0  0  0  0  0  0  0  0  0
  -24.0521  -31.5987   21.1271 C   0  0  0  0  0  0  0  0  0  0  0  0
  -23.8575  -13.6579   20.3572 C   0  0  0  0  0  0  0  0  0  0  0  0
  -23.0793  -30.4188   21.0927 C   0  0  0  0  0  0  0  0  0  0  0  0
  -25.3335  -31.2965   20.3534 C   0  0  0  0  0  0  0  0  0  0  0  0
  -25.0496  -28.8763   20.7221 C   0  0  0  0  0  0  0  0  0  0  0  0
  -25.2102  -14.1918   19.8709 C   0  0  1  0  0  0  0  0  0  0  0  0
  -26.0668  -17.3026   21.8766 C   0  0  1  0  0  0  0  0  0  0  0  0
  -23.7659  -29.1129   21.5359 C   0  0  2  0  0  0  0  0  0  0  0  0
  -31.3730  -28.4020   19.2934 C   0  0  0  0  0  0  0  0  0  0  0  0
  -23.9423  -24.1257   24.8659 C   0  0  0  0  0  0  0  0  0  0  0  0
  -22.0763  -19.3199   20.7074 C   0  0  0  0  0  0  0  0  0  0  0  0
  -21.7287  -21.6282   21.6126 C   0  0  0  0  0  0  0  0  0  0  0  0
  -21.5378  -19.6548   23.1265 C   0  0  0  0  0  0  0  0  0  0  0  0
  -27.4513  -22.6553   24.8294 C   0  0  0  0  0  0  0  0  0  0  0  0
  -30.0067  -27.8171   19.6338 C   0  0  0  0  0  0  0  0  0  0  0  0
  -29.0866  -28.6804   22.2600 C   0  0  0  0  0  0  0  0  0  0  0  0
  -23.8185  -20.3665   22.2996 C   0  0  1  0  0  0  0  0  0  0  0  0
  -24.9824  -23.0233   24.7402 C   0  0  2  0  0  0  0  0  0  0  0  0
  -22.3153  -20.2349   21.9250 C   0  0  0  0  0  0  0  0  0  0  0  0
  -22.7828  -27.1933   20.3396 N   0  0  0  0  0  0  0  0  0  0  0  0
  -31.0161  -25.1474   19.3784 N   0  0  0  0  0  0  0  0  0  0  0  0
  -22.8184  -27.9297   21.4632 N   0  0  0  0  0  0  0  0  0  0  0  0
  -25.5362  -18.6637   21.7761 N   0  0  0  0  0  0  0  0  0  0  0  0
  -25.9358  -30.0465   20.8231 N   0  0  0  0  0  0  0  0  0  0  0  0
  -21.8702  -28.1239   23.6251 N   0  0  0  0  0  0  0  0  0  0  0  0
  -18.9780  -25.9807   22.4266 N   0  0  0  0  0  0  0  0  0  0  0  0
  -25.7425  -15.1528   20.8131 N   0  0  0  0  0  0  0  0  0  0  0  0
  -24.0725  -21.2056   23.4657 N   0  0  0  0  0  0  0  0  0  0  0  0
  -27.7479  -28.8300   21.7343 N   0  0  0  0  0  0  0  0  0  0  0  0
  -30.7796  -22.2866   15.6739 N   0  3  0  0  0  0  0  0  0  0  0  0
  -26.3332  -23.6303   24.9071 N   0  3  0  0  0  0  0  0  0  0  0  0
  -20.6180  -24.6255   23.2824 O   0  0  0  0  0  0  0  0  0  0  0  0
  -30.9841  -24.9336   16.5080 O   0  0  0  0  0  0  0  0  0  0  0  0
  -24.6142  -17.0351   20.0345 O   0  0  0  0  0  0  0  0  0  0  0  0
  -24.0203  -18.3414   23.5181 O   0  0  0  0  0  0  0  0  0  0  0  0
  -25.4612  -22.7204   22.3915 O   0  0  0  0  0  0  0  0  0  0  0  0
  -27.9436  -31.0816   21.3480 O   0  0  0  0  0  0  0  0  0  0  0  0
  -20.5822  -22.3703   16.8121 O   0  0  0  0  0  0  0  0  0  0  0  0
  -29.7205  -20.4273   17.6007 O   0  0  0  0  0  0  0  0  0  1  0  0
  -15.9807  -19.4354   17.5977 F   0  0  0  0  0  0  0  0  0  0  0  0
  -30.2331  -24.3015   24.0194 F   0  0  0  0  0  0  0  0  0  0  0  0
  -18.5409  -22.4070   14.9481 F   0  0  0  0  0  0  0  0  0  0  0  0
  1  2  1  0  0  0  0
  1  5  2  0  0  0  0
  2  6  2  0  0  0  0
  3  8  2  0  0  0  0
  3 17  1  0  0  0  0
  4  9  1  0  0  0  0
  4 17  2  0  0  0  0
  5 19  1  0  0  0  0
  6 21  1  0  0  0  0
  7 10  2  0  0  0  0
  7 20  1  0  0  0  0
  8 26  1  0  0  0  0
  9 26  2  0  0  0  0
 10 27  1  0  0  0  0
 11 12  2  0  0  0  0
 11 28  1  0  0  0  0
 12 29  1  0  0  0  0
 13 22  1  0  0  0  0
 13 27  2  0  0  0  0
 14 23  2  0  0  0  0
 14 30  1  0  0  0  0
 15 25  1  0  0  0  0
 15 30  2  0  0  0  0
 16 29  2  0  0  0  0
 16 31  1  0  0  0  0
 17 32  1  0  0  0  0
 18 32  1  0  0  0  0
 18 33  2  0  0  0  0
 18 36  1  0  0  0  0
 19 21  2  0  0  0  0
 19 43  1  0  0  0  0
 20 22  2  0  0  0  0
 20 44  1  0  0  0  0
 21 52  1  0  0  0  0
 22 45  1  0  0  0  0
 23 24  1  0  0  0  0
 23 62  1  0  0  0  0
 24 25  2  0  0  0  0
 24 61  1  0  0  0  0
 25 67  1  0  0  0  0
 26 84  1  0  0  0  0
 27 85  1  0  0  0  0
 28 31  2  0  0  0  0
 28 84  1  0  0  0  0
 29 86  1  0  0  0  0
 30 87  1  0  0  0  0
 31 88  1  0  0  0  0
 32 66  2  0  0  0  0
 33 68  1  0  0  0  0
 33 71  1  0  0  0  0
 34 37  2  0  0  0  0
 34 85  1  0  0  0  0
 35 38  1  0  0  0  0
 35 67  2  0  0  0  0
 36 72  1  0  0  0  0
 36 78  2  0  0  0  0
 37 38  1  0  0  0  0
 37 76  1  0  0  0  0
 38 79  2  0  0  0  0
 39 53  1  0  0  0  0
 39 73  1  0  0  0  0
 39 80  2  0  0  0  0
 40 63  1  0  0  0  0
 40 69  1  0  0  0  0
 40 81  2  0  0  0  0
 41 64  1  0  0  0  0
 41 74  1  0  0  0  0
 41 82  2  0  0  0  0
 42 70  1  0  0  0  0
 42 75  1  0  0  0  0
 42 83  2  0  0  0  0
 43 46  1  0  0  0  0
 44 53  1  0  0  0  0
 45 69  1  0  0  0  0
 46 48  1  0  0  0  0
 47 49  1  0  0  0  0
 47 50  1  0  0  0  0
 48 52  1  0  0  0  0
 49 54  1  0  0  0  0
 50 70  1  0  0  0  0
 51 54  1  0  0  0  0
 51 70  1  0  0  0  0
 52 73  1  0  0  0  0
 53 69  1  0  0  0  0
 54 68  1  0  0  0  0
 55 61  1  0  0  0  0
 56 64  1  0  0  0  0
 57 65  1  0  0  0  0
 58 65  1  0  0  0  0
 59 65  1  0  0  0  0
 60 77  1  0  0  0  0
 62 75  1  0  0  0  0
 63 65  1  0  0  0  0
 63 74  1  0  0  0  0
 64 77  1  0  0  0  0
 66 68  1  0  0  0  0
M  CHG  2  76   1  77   1
M  ISO  4  34 101  42 100  75 100  85 101
M  END
> <Batch ID>
0164

> <Smiles>
CCc1c(C=[100N:0][100C:0](=O)N2CCCC(n3nc(-c4ccc(Oc5ccc(F)cc5F)cc4)c(C(N)=O)c3N)C2)cc(F)cc1NCC(=O)C(=N)[101CH2:1][101O:1]c1ccc2c(c1)CN(C(=O)C(NC(=O)C(C)NC)C(C)(C)C)C(C(=O)NC1CCCc3ccccc31)C2

> <Shape>
0.221

> <Color>
0.065

> <Negative vol penalty>
0.000

$$$$

  -OEChem-04052304023D

 88 96  0     1  0  0  0  0  0999 V2000
  -16.9392  -12.4629   19.9536 C   0  0  0  0  0  0  0  0  0  0  0  0
  -17.9596  -13.0524   20.6929 C   0  0  0  0  0  0  0  0  0  0  0  0
  -22.9996   -9.8949   19.9814 C   0  0  0  0  0  0  0  0  0  0  0  0
  -23.7246   -9.9458   22.2855 C   0  0  0  0  0  0  0  0  0  0  0  0
  -16.5447  -13.0251   18.7402 C   0  0  0  0  0  0  0  0  0  0  0  0
  -18.5868  -14.2040   20.2188 C   0  0  0  0  0  0  0  0  0  0  0  0
  -19.1991  -17.7073   23.8239 C   0  0  0  0  0  0  0  0  0  0  0  0
  -22.2327   -8.7607   20.2477 C   0  0  0  0  0  0  0  0  0  0  0  0
  -22.9576   -8.8116   22.5519 C   0  0  0  0  0  0  0  0  0  0  0  0
  -20.2455  -17.5171   24.7254 C   0  0  0  0  0  0  0  0  0  0  0  0
  -23.2010   -5.4725   22.0802 C   0  0  0  0  0  0  0  0  0  0  0  0
  -23.7881   -4.4552   22.8324 C   0  0  0  0  0  0  0  0  0  0  0  0
  -21.5908  -19.0900   23.4861 C   0  0  0  0  0  0  0  0  0  0  0  0
  -31.8518  -18.3429   24.1707 C   0  0  0  0  0  0  0  0  0  0  0  0
  -32.0584  -16.5498   22.5649 C   0  0  0  0  0  0  0  0  0  0  0  0
  -29.8801  -17.4478   23.0992 C   0  0  0  0  0  0  0  0  0  0  0  0
  -22.0642   -4.6988   24.5075 C   0  0  0  0  0  0  0  0  0  0  0  0
  -23.7456  -10.4875   21.0003 C   0  0  0  0  0  0  0  0  0  0  0  0
  -24.1317  -13.0029   20.8241 C   0  0  0  0  0  0  0  0  0  0  0  0
  -17.1608  -14.1896   18.2557 C   0  0  0  0  0  0  0  0  0  0  0  0
  -19.3447  -18.5834   22.7388 C   0  0  0  0  0  0  0  0  0  0  0  0
  -18.2011  -14.7816   18.9972 C   0  0  0  0  0  0  0  0  0  0  0  0
  -20.5438  -19.2914   22.5738 C   0  0  0  0  0  0  0  0  0  0  0  0
  -32.6468  -17.4458   23.4574 C   0  0  0  0  0  0  0  0  0  0  0  0
  -30.4685  -18.3438   23.9917 C   0  0  0  0  0  0  0  0  0  0  0  0
  -30.6750  -16.5507   22.3858 C   0  0  0  0  0  0  0  0  0  0  0  0
  -22.2117   -8.2190   21.5330 C   0  0  0  0  0  0  0  0  0  0  0  0
  -21.4426  -18.2063   24.5549 C   0  0  0  0  0  0  0  0  0  0  0  0
  -22.0455   -6.1031   22.5416 C   0  0  0  0  0  0  0  0  0  0  0  0
  -23.2198   -4.0683   24.0461 C   0  0  0  0  0  0  0  0  0  0  0  0
  -21.4770   -5.7162   23.7552 C   0  0  0  0  0  0  0  0  0  0  0  0
  -24.5385  -11.6588   20.7256 C   0  0  0  0  0  0  0  0  0  0  0  0
  -25.2417  -13.7252   20.4598 C   0  0  0  0  0  0  0  0  0  0  0  0
  -26.0134  -19.1311   26.0995 C   0  0  0  0  0  0  0  0  0  0  0  0
  -29.2361  -18.8289   25.8551 C   0  0  0  0  0  0  0  0  0  0  0  0
  -22.8639  -13.5498   21.2105 C   0  0  0  0  0  0  0  0  0  0  0  0
  -27.0609  -18.9790   26.9285 C   0  0  0  0  0  0  0  0  0  0  0  0
  -24.7012  -18.4358   26.2530 C   0  0  0  0  0  0  0  0  0  0  0  0
  -19.2802  -18.2677   19.5765 C   0  0  0  0  0  0  0  0  0  0  0  0
  -19.4852  -21.5044   19.6395 C   0  0  0  0  0  0  0  0  0  0  0  0
  -20.4159  -24.3160   21.3352 C   0  0  0  0  0  0  0  0  0  0  0  0
  -30.7215  -14.6846   20.6941 C   0  0  0  0  0  0  0  0  0  0  0  0
  -16.7324  -14.7339   16.9159 C   0  0  0  0  0  0  0  0  0  0  0  0
  -18.1970  -18.7976   21.7905 C   0  0  0  0  0  0  0  0  0  0  0  0
  -20.7435  -20.2588   21.4368 C   0  0  0  0  0  0  0  0  0  0  0  0
  -17.1927  -16.1677   16.6655 C   0  0  0  0  0  0  0  0  0  0  0  0
  -29.6026  -12.2319   18.3683 C   0  0  0  0  0  0  0  0  0  0  0  0
  -18.6630  -16.3291   17.0382 C   0  0  0  0  0  0  0  0  0  0  0  0
  -28.1519  -11.9747   18.7823 C   0  0  0  0  0  0  0  0  0  0  0  0
  -30.5031  -12.4751   19.5781 C   0  0  0  0  0  0  0  0  0  0  0  0
  -28.5879  -13.2646   20.9114 C   0  0  0  0  0  0  0  0  0  0  0  0
  -18.8888  -16.0454   18.5282 C   0  0  1  0  0  0  0  0  0  0  0  0
  -18.6376  -19.3254   20.4287 C   0  0  1  0  0  0  0  0  0  0  0  0
  -27.6303  -13.0785   19.7232 C   0  0  2  0  0  0  0  0  0  0  0  0
  -20.4938  -26.8145   21.1142 C   0  0  0  0  0  0  0  0  0  0  0  0
  -21.8964  -21.2628   17.7853 C   0  0  0  0  0  0  0  0  0  0  0  0
  -22.4887  -23.6260   18.3618 C   0  0  0  0  0  0  0  0  0  0  0  0
  -20.3280  -23.1267   17.2195 C   0  0  0  0  0  0  0  0  0  0  0  0
  -18.6287  -24.6938   23.6637 C   0  0  0  0  0  0  0  0  0  0  0  0
  -34.1259  -17.4448   23.6491 C   0  0  0  0  0  0  0  0  0  0  0  0
  -28.3570  -19.7025   26.7079 C   0  0  0  0  0  0  0  0  0  0  0  0
  -23.6642  -18.7605   25.1980 C   0  0  0  0  0  0  0  0  0  1  0  0
  -20.6165  -22.5039   19.6528 C   0  0  1  0  0  0  0  0  0  0  0  0
  -19.6863  -25.6207   21.5995 C   0  0  2  0  0  0  0  0  0  0  0  0
  -21.3296  -22.6102   18.2753 C   0  0  0  0  0  0  0  0  0  0  0  0
  -25.8077  -11.5319   20.3296 N   0  0  0  0  0  0  0  0  0  0  0  0
  -29.6679  -19.2476   24.7101 N   0  0  0  0  0  0  0  0  0  0  0  0
  -26.2081  -12.8055   20.1759 N   0  0  0  0  0  0  0  0  0  0  0  0
  -19.5941  -20.4292   20.5327 N   0  0  0  0  0  0  0  0  0  0  0  0
  -29.9483  -13.5363   20.4213 N   0  0  0  0  0  0  0  0  0  0  0  0
  -25.4756  -15.0508   20.3576 N   0  0  0  0  0  0  0  0  0  0  0  0
  -21.8318  -12.6660   21.5540 N   0  0  0  0  0  0  0  0  0  0  0  0
  -30.0774  -15.6400   21.4796 N   0  0  0  0  0  0  0  0  0  0  0  0
  -18.4695  -17.1767   19.3273 N   0  0  0  0  0  0  0  0  0  0  0  0
  -20.0463  -23.7595   20.1290 N   0  0  0  0  0  0  0  0  0  0  0  0
  -34.5808  -16.5284   24.7310 N   0  3  0  0  0  0  0  0  0  0  0  0
  -19.4333  -25.7864   23.0588 N   0  3  0  0  0  0  0  0  0  0  0  0
  -22.6475  -14.7851   21.2341 O   0  0  0  0  0  0  0  0  0  0  0  0
  -24.4783  -17.6540   27.1728 O   0  0  0  0  0  0  0  0  0  0  0  0
  -20.4260  -18.4301   19.1737 O   0  0  0  0  0  0  0  0  0  0  0  0
  -18.5363  -21.6753   18.8700 O   0  0  0  0  0  0  0  0  0  0  0  0
  -21.2347  -23.8402   22.1185 O   0  0  0  0  0  0  0  0  0  0  0  0
  -31.8602  -14.8231   20.2402 O   0  0  0  0  0  0  0  0  0  0  0  0
  -27.0711  -18.1466   28.0289 O   0  0  0  0  0  0  0  0  0  0  0  0
  -21.4633   -7.1124   21.7933 O   0  0  0  0  0  0  0  0  0  0  0  0
  -22.4659  -18.0221   25.4329 O   0  0  0  0  0  0  0  0  0  1  0  0
  -23.7828   -3.0903   24.7676 F   0  0  0  0  0  0  0  0  0  0  0  0
  -20.3663   -6.3174   24.2031 F   0  0  0  0  0  0  0  0  0  0  0  0
  1  2  1  0  0  0  0
  1  5  2  0  0  0  0
  2  6  2  0  0  0  0
  3  8  2  0  0  0  0
  3 18  1  0  0  0  0
  4  9  1  0  0  0  0
  4 18  2  0  0  0  0
  5 20  1  0  0  0  0
  6 22  1  0  0  0  0
  7 10  2  0  0  0  0
  7 21  1  0  0  0  0
  8 27  1  0  0  0  0
  9 27  2  0  0  0  0
 10 28  1  0  0  0  0
 11 12  2  0  0  0  0
 11 29  1  0  0  0  0
 12 30  1  0  0  0  0
 13 23  1  0  0  0  0
 13 28  2  0  0  0  0
 14 24  2  0  0  0  0
 14 25  1  0  0  0  0
 15 24  1  0  0  0  0
 15 26  2  0  0  0  0
 16 25  2  0  0  0  0
 16 26  1  0  0  0  0
 17 30  2  0  0  0  0
 17 31  1  0  0  0  0
 18 32  1  0  0  0  0
 19 32  1  0  0  0  0
 19 33  2  0  0  0  0
 19 36  1  0  0  0  0
 20 22  2  0  0  0  0
 20 43  1  0  0  0  0
 21 23  2  0  0  0  0
 21 44  1  0  0  0  0
 22 52  1  0  0  0  0
 23 45  1  0  0  0  0
 24 60  1  0  0  0  0
 25 67  1  0  0  0  0
 26 73  1  0  0  0  0
 27 85  1  0  0  0  0
 28 86  1  0  0  0  0
 29 31  2  0  0  0  0
 29 85  1  0  0  0  0
 30 87  1  0  0  0  0
 31 88  1  0  0  0  0
 32 66  2  0  0  0  0
 33 68  1  0  0  0  0
 33 71  1  0  0  0  0
 34 37  2  0  0  0  0
 34 38  1  0  0  0  0
 35 61  1  0  0  0  0
 35 67  2  0  0  0  0
 36 72  1  0  0  0  0
 36 78  2  0  0  0  0
 37 61  1  0  0  0  0
 37 84  1  0  0  0  0
 38 62  1  0  0  0  0
 38 79  2  0  0  0  0
 39 53  1  0  0  0  0
 39 74  1  0  0  0  0
 39 80  2  0  0  0  0
 40 63  1  0  0  0  0
 40 69  1  0  0  0  0
 40 81  2  0  0  0  0
 41 64  1  0  0  0  0
 41 75  1  0  0  0  0
 41 82  2  0  0  0  0
 42 70  1  0  0  0  0
 42 73  1  0  0  0  0
 42 83  2  0  0  0  0
 43 46  1  0  0  0  0
 44 53  1  0  0  0  0
 45 69  1  0  0  0  0
 46 48  1  0  0  0  0
 47 49  1  0  0  0  0
 47 50  1  0  0  0  0
 48 52  1  0  0  0  0
 49 54  1  0  0  0  0
 50 70  1  0  0  0  0
 51 54  1  0  0  0  0
 51 70  1  0  0  0  0
 52 74  1  0  0  0  0
 53 69  1  0  0  0  0
 54 68  1  0  0  0  0
 55 64  1  0  0  0  0
 56 65  1  0  0  0  0
 57 65  1  0  0  0  0
 58 65  1  0  0  0  0
 59 77  1  0  0  0  0
 60 76  1  0  0  0  0
 62 86  1  0  0  0  0
 63 65  1  0  0  0  0
 63 75  1  0  0  0  0
 64 77  1  0  0  0  0
 66 68  1  0  0  0  0
M  CHG  2  76   1  77   1
M  ISO  4  42 100  62 101  73 100  86 101
M  END
> <Batch ID>
0164

> <Smiles>
CNC(C)C(=O)NC(C(=O)N1Cc2cc([101O:1][101CH2:1]C(=O)CC(=O)C=CNc3cc(CN)cc([100NH:0][100C:0](=O)N4CCCC(n5nc(-c6ccc(Oc7ccc(F)cc7F)cc6)c(C(N)=O)c5N)C4)c3)ccc2CC1C(=O)NC1CCCc2ccccc21)C(C)(C)C

> <Shape>
0.189

> <Color>
0.186

> <Negative vol penalty>
0.000

$$$$
