
  -OEChem-04052304053D

 88 96  0     1  0  0  0  0  0999 V2000
  -29.5366  -30.0591   26.7682 C   0  0  0  0  0  0  0  0  0  0  0  0
  -29.1461  -29.1269   25.8122 C   0  0  0  0  0  0  0  0  0  0  0  0
  -23.2669  -11.9425   23.1874 C   0  0  0  0  0  0  0  0  0  0  0  0
  -23.0046  -14.2742   22.6115 C   0  0  0  0  0  0  0  0  0  0  0  0
  -28.5932  -30.9208   27.3261 C   0  0  0  0  0  0  0  0  0  0  0  0
  -27.8115  -29.0551   25.4144 C   0  0  0  0  0  0  0  0  0  0  0  0
  -27.2995  -28.6764   20.3905 C   0  0  0  0  0  0  0  0  0  0  0  0
  -22.4235  -12.1185   24.2843 C   0  0  0  0  0  0  0  0  0  0  0  0
  -22.1611  -14.4502   23.7084 C   0  0  0  0  0  0  0  0  0  0  0  0
  -27.5294  -27.4255   19.8196 C   0  0  0  0  0  0  0  0  0  0  0  0
  -18.9355  -13.8196   24.4947 C   0  0  0  0  0  0  0  0  0  0  0  0
  -17.7596  -14.5433   24.2966 C   0  0  0  0  0  0  0  0  0  0  0  0
  -25.1502  -27.0404   19.7197 C   0  0  0  0  0  0  0  0  0  0  0  0
  -31.4064  -17.9606   20.2445 C   0  0  0  0  0  0  0  0  0  0  0  0
  -30.8611  -20.3098   20.1017 C   0  0  0  0  0  0  0  0  0  0  0  0
  -29.1762  -18.6471   19.6184 C   0  0  0  0  0  0  0  0  0  0  0  0
  -18.4730  -16.1548   25.9492 C   0  0  0  0  0  0  0  0  0  0  0  0
  -23.5575  -13.0204   22.3510 C   0  0  0  0  0  0  0  0  0  0  0  0
  -24.0582  -12.4747   19.9099 C   0  0  0  0  0  0  0  0  0  0  0  0
  -27.2482  -30.8660   26.9279 C   0  0  0  0  0  0  0  0  0  0  0  0
  -25.9913  -29.1150   20.6408 C   0  0  0  0  0  0  0  0  0  0  0  0
  -26.8489  -29.9160   25.9685 C   0  0  0  0  0  0  0  0  0  0  0  0
  -24.9062  -28.2984   20.2916 C   0  0  0  0  0  0  0  0  0  0  0  0
  -31.7863  -19.2979   20.3579 C   0  0  0  0  0  0  0  0  0  0  0  0
  -30.1014  -17.6352   19.8746 C   0  0  0  0  0  0  0  0  0  0  0  0
  -29.5561  -19.9845   19.7319 C   0  0  0  0  0  0  0  0  0  0  0  0
  -21.8706  -13.3723   24.5449 C   0  0  0  0  0  0  0  0  0  0  0  0
  -26.4548  -26.6060   19.4867 C   0  0  0  0  0  0  0  0  0  0  0  0
  -19.8801  -14.2635   25.4201 C   0  0  0  0  0  0  0  0  0  0  0  0
  -17.5283  -15.7109   25.0238 C   0  0  0  0  0  0  0  0  0  0  0  0
  -19.6488  -15.4311   26.1473 C   0  0  0  0  0  0  0  0  0  0  0  0
  -24.4291  -12.8393   21.2180 C   0  0  0  0  0  0  0  0  0  0  0  0
  -25.2424  -12.4372   19.2151 C   0  0  0  0  0  0  0  0  0  0  0  0
  -22.7594  -12.1950   19.3709 C   0  0  0  0  0  0  0  0  0  0  0  0
  -24.3515  -29.9095   23.2454 C   0  0  0  0  0  0  0  0  0  0  0  0
  -27.7117  -23.2128   19.2235 C   0  0  0  0  0  0  0  0  0  0  0  0
  -22.0828  -30.7531   21.0858 C   0  0  0  0  0  0  0  0  0  0  0  0
  -20.7749  -30.3675   17.9573 C   0  0  0  0  0  0  0  0  0  0  0  0
  -30.5107  -15.1516   19.9782 C   0  0  0  0  0  0  0  0  0  0  0  0
  -26.2559  -31.7862   27.5938 C   0  0  0  0  0  0  0  0  0  0  0  0
  -25.7592  -30.4781   21.2327 C   0  0  0  0  0  0  0  0  0  0  0  0
  -23.4819  -28.7310   20.5211 C   0  0  0  0  0  0  0  0  0  0  0  0
  -24.9308  -31.8980   26.8442 C   0  0  0  0  0  0  0  0  0  0  0  0
  -29.9242  -11.6427   19.8349 C   0  0  0  0  0  0  0  0  0  0  0  0
  -24.4275  -30.5158   26.4405 C   0  0  0  0  0  0  0  0  0  0  0  0
  -28.4138  -11.5186   20.0482 C   0  0  0  0  0  0  0  0  0  0  0  0
  -30.5254  -12.7669   20.6767 C   0  0  0  0  0  0  0  0  0  0  0  0
  -28.3655  -13.9505   20.7339 C   0  0  0  0  0  0  0  0  0  0  0  0
  -25.4152  -29.8241   25.4930 C   0  0  1  0  0  0  0  0  0  0  0  0
  -24.4019  -30.6094   21.9167 C   0  0  1  0  0  0  0  0  0  0  0  0
  -27.7046  -12.8737   19.8580 C   0  0  2  0  0  0  0  0  0  0  0  0
  -18.8967  -31.1632   16.4956 C   0  0  0  0  0  0  0  0  0  0  0  0
  -35.7472  -19.1146   22.3972 C   0  0  0  0  0  0  0  0  0  0  0  0
  -34.7413  -20.3334   24.3322 C   0  0  0  0  0  0  0  0  0  0  0  0
  -35.1731  -21.5357   22.1745 C   0  0  0  0  0  0  0  0  0  0  0  0
  -20.1366  -28.9759   22.6233 C   0  0  0  0  0  0  0  0  0  0  0  0
  -18.6111  -29.0493   20.6395 C   0  0  0  0  0  0  0  0  0  0  0  0
  -19.1764  -31.1533   21.8545 C   0  0  0  0  0  0  0  0  0  0  0  0
  -22.6495  -31.4962   15.9645 C   0  0  0  0  0  0  0  0  0  0  0  0
  -33.1816  -19.6458   20.7532 C   0  0  0  0  0  0  0  0  0  0  0  0
  -28.9389  -22.3966   19.5699 C   0  0  0  0  0  0  0  0  0  0  0  0
  -27.8867  -24.7177   19.2869 C   0  0  0  0  0  0  0  0  0  1  0  0
  -33.3333  -19.7740   22.2816 C   0  0  0  0  0  0  0  0  0  0  0  0
  -20.9323  -30.0451   20.4120 C   0  0  1  0  0  0  0  0  0  0  0  0
  -20.3422  -31.3822   16.9144 C   0  0  2  0  0  0  0  0  0  0  0  0
  -34.7321  -20.2025   22.8003 C   0  0  0  0  0  0  0  0  0  0  0  0
  -19.7409  -29.7967   21.3797 C   0  0  0  0  0  0  0  0  0  0  0  0
  -25.7459  -13.0204   21.3491 N   0  0  0  0  0  0  0  0  0  0  0  0
  -26.2129  -12.7684   20.1144 N   0  0  0  0  0  0  0  0  0  0  0  0
  -23.3069  -30.0698   21.1080 N   0  0  0  0  0  0  0  0  0  0  0  0
  -29.8057  -14.0205   20.4413 N   0  0  0  0  0  0  0  0  0  0  0  0
  -25.5379  -12.1535   17.9288 N   0  0  0  0  0  0  0  0  0  0  0  0
  -21.6499  -12.2798   20.2231 N   0  0  0  0  0  0  0  0  0  0  0  0
  -29.7161  -16.2765   19.7594 N   0  0  0  0  0  0  0  0  0  0  0  0
  -28.6359  -20.9914   19.4773 N   0  0  0  0  0  0  0  0  0  0  0  0
  -25.2903  -30.3592   24.1542 N   0  0  0  0  0  0  0  0  0  0  0  0
  -20.5928  -30.8429   19.2388 N   0  0  0  0  0  0  0  0  0  0  0  0
  -21.2034  -31.2788   15.7025 N   0  3  0  0  0  0  0  0  0  0  0  0
  -22.5896  -11.8631   18.1732 O   0  0  0  0  0  0  0  0  0  0  0  0
  -23.5213  -29.0278   23.4326 O   0  0  0  0  0  0  0  0  0  0  0  0
  -26.6382  -22.6998   18.9103 O   0  0  0  0  0  0  0  0  0  0  0  0
  -21.9039  -31.8743   21.5682 O   0  0  0  0  0  0  0  0  0  0  0  0
  -21.2257  -29.2623   17.6646 O   0  0  0  0  0  0  0  0  0  0  0  0
  -31.7251  -15.1164   19.7637 O   0  0  0  0  0  0  0  0  0  0  0  0
  -21.0474  -13.5444   25.6150 O   0  0  0  0  0  0  0  0  0  0  0  0
  -26.6765  -25.3843   18.9299 O   0  0  0  0  0  0  0  0  0  1  0  0
  -16.3998  -16.4065   24.8323 F   0  0  0  0  0  0  0  0  0  0  0  0
  -20.5532  -15.8632   27.0368 F   0  0  0  0  0  0  0  0  0  0  0  0
  1  2  1  0  0  0  0
  1  5  2  0  0  0  0
  2  6  2  0  0  0  0
  3  8  2  0  0  0  0
  3 18  1  0  0  0  0
  4  9  1  0  0  0  0
  4 18  2  0  0  0  0
  5 20  1  0  0  0  0
  6 22  1  0  0  0  0
  7 10  2  0  0  0  0
  7 21  1  0  0  0  0
  8 27  1  0  0  0  0
  9 27  2  0  0  0  0
 10 28  1  0  0  0  0
 11 12  2  0  0  0  0
 11 29  1  0  0  0  0
 12 30  1  0  0  0  0
 13 23  1  0  0  0  0
 13 28  2  0  0  0  0
 14 24  1  0  0  0  0
 14 25  2  0  0  0  0
 15 24  2  0  0  0  0
 15 26  1  0  0  0  0
 16 25  1  0  0  0  0
 16 26  2  0  0  0  0
 17 30  2  0  0  0  0
 17 31  1  0  0  0  0
 18 32  1  0  0  0  0
 19 32  1  0  0  0  0
 19 33  2  0  0  0  0
 19 34  1  0  0  0  0
 20 22  2  0  0  0  0
 20 40  1  0  0  0  0
 21 23  2  0  0  0  0
 21 41  1  0  0  0  0
 22 49  1  0  0  0  0
 23 42  1  0  0  0  0
 24 60  1  0  0  0  0
 25 74  1  0  0  0  0
 26 75  1  0  0  0  0
 27 85  1  0  0  0  0
 28 86  1  0  0  0  0
 29 31  2  0  0  0  0
 29 85  1  0  0  0  0
 30 87  1  0  0  0  0
 31 88  1  0  0  0  0
 32 68  2  0  0  0  0
 33 69  1  0  0  0  0
 33 72  1  0  0  0  0
 34 73  1  0  0  0  0
 34 79  2  0  0  0  0
 35 50  1  0  0  0  0
 35 76  1  0  0  0  0
 35 80  2  0  0  0  0
 36 61  1  0  0  0  0
 36 62  1  0  0  0  0
 36 81  2  0  0  0  0
 37 64  1  0  0  0  0
 37 70  1  0  0  0  0
 37 82  2  0  0  0  0
 38 65  1  0  0  0  0
 38 77  1  0  0  0  0
 38 83  2  0  0  0  0
 39 71  1  0  0  0  0
 39 74  1  0  0  0  0
 39 84  2  0  0  0  0
 40 43  1  0  0  0  0
 41 50  1  0  0  0  0
 42 70  1  0  0  0  0
 43 45  1  0  0  0  0
 44 46  1  0  0  0  0
 44 47  1  0  0  0  0
 45 49  1  0  0  0  0
 46 51  1  0  0  0  0
 47 71  1  0  0  0  0
 48 51  1  0  0  0  0
 48 71  1  0  0  0  0
 49 76  1  0  0  0  0
 50 70  1  0  0  0  0
 51 69  1  0  0  0  0
 52 65  1  0  0  0  0
 53 66  1  0  0  0  0
 54 66  1  0  0  0  0
 55 66  1  0  0  0  0
 56 67  1  0  0  0  0
 57 67  1  0  0  0  0
 58 67  1  0  0  0  0
 59 78  1  0  0  0  0
 60 63  1  0  0  0  0
 61 75  1  0  0  0  0
 62 86  1  0  0  0  0
 63 66  1  0  0  0  0
 64 67  1  0  0  0  0
 64 77  1  0  0  0  0
 65 78  1  0  0  0  0
 68 69  1  0  0  0  0
M  CHG  1  78   1
M  ISO  4  39 100  62 101  74 100  86 101
M  END
> <Batch ID>
0165

> <Smiles>
CNC(C)C(=O)NC(C(=O)N1Cc2cc([101O:1][101CH2:1]C(=O)CNc3cc(CCC(C)(C)C)cc([100NH:0][100C:0](=O)N4CCCC(n5nc(-c6ccc(Oc7ccc(F)cc7F)cc6)c(C(N)=O)c5N)C4)c3)ccc2CC1C(=O)NC1CCCc2ccccc21)C(C)(C)C

> <Shape>
0.246

> <Color>
0.094

> <Negative vol penalty>
0.000

$$$$

  -OEChem-04052304053D

 86 94  0     1  0  0  0  0  0999 V2000
  -29.5102  -34.2750   24.5732 C   0  0  0  0  0  0  0  0  0  0  0  0
  -29.3665  -32.9413   24.2048 C   0  0  0  0  0  0  0  0  0  0  0  0
  -24.8716   -8.6923   21.1339 C   0  0  0  0  0  0  0  0  0  0  0  0
  -23.1846   -9.8749   19.8720 C   0  0  0  0  0  0  0  0  0  0  0  0
  -28.3913  -35.0186   24.9460 C   0  0  0  0  0  0  0  0  0  0  0  0
  -28.1037  -32.3499   24.2099 C   0  0  0  0  0  0  0  0  0  0  0  0
  -27.2421  -29.5728   20.0638 C   0  0  0  0  0  0  0  0  0  0  0  0
  -24.3662  -20.0965   17.4589 C   0  0  0  0  0  0  0  0  0  0  0  0
  -23.9098   -7.7774   21.5623 C   0  0  0  0  0  0  0  0  0  0  0  0
  -22.2228   -8.9600   20.3004 C   0  0  0  0  0  0  0  0  0  0  0  0
  -27.8263  -28.3079   20.0119 C   0  0  0  0  0  0  0  0  0  0  0  0
  -21.4500   -7.6502   23.8768 C   0  0  0  0  0  0  0  0  0  0  0  0
  -23.3347  -19.3584   18.0392 C   0  0  0  0  0  0  0  0  0  0  0  0
  -21.4451   -7.3007   25.2272 C   0  0  0  0  0  0  0  0  0  0  0  0
  -25.7250  -27.3174   20.6620 C   0  0  0  0  0  0  0  0  0  0  0  0
  -21.8232   -4.9903   24.6305 C   0  0  0  0  0  0  0  0  0  0  0  0
  -24.5090   -9.7411   20.2888 C   0  0  0  0  0  0  0  0  0  0  0  0
  -26.3039  -10.6003   18.6926 C   0  0  0  0  0  0  0  0  0  0  0  0
  -27.1128  -34.4387   24.9464 C   0  0  0  0  0  0  0  0  0  0  0  0
  -25.8956  -29.7206   20.4264 C   0  0  0  0  0  0  0  0  0  0  0  0
  -26.9667  -33.0860   24.5843 C   0  0  0  0  0  0  0  0  0  0  0  0
  -25.1254  -28.5850   20.7153 C   0  0  0  0  0  0  0  0  0  0  0  0
  -25.6898  -19.8534   17.8260 C   0  0  0  0  0  0  0  0  0  0  0  0
  -24.9502  -18.1341   19.3538 C   0  0  0  0  0  0  0  0  0  0  0  0
  -22.5854   -7.9112   21.1455 C   0  0  0  0  0  0  0  0  0  0  0  0
  -27.0685  -27.1803   20.3139 C   0  0  0  0  0  0  0  0  0  0  0  0
  -21.6414   -6.6697   22.9033 C   0  0  0  0  0  0  0  0  0  0  0  0
  -21.6317   -5.9708   25.6040 C   0  0  0  0  0  0  0  0  0  0  0  0
  -23.6266  -18.3772   18.9866 C   0  0  0  0  0  0  0  0  0  0  0  0
  -21.8280   -5.3398   23.2801 C   0  0  0  0  0  0  0  0  0  0  0  0
  -25.9818  -18.8722   18.7735 C   0  0  0  0  0  0  0  0  0  0  0  0
  -25.5019  -10.6869   19.8464 C   0  0  0  0  0  0  0  0  0  0  0  0
  -27.0752  -11.7364   18.7246 C   0  0  0  0  0  0  0  0  0  0  0  0
  -27.1072  -25.0272   19.4008 C   0  0  0  0  0  0  0  0  0  1  0  0
  -26.3477   -9.5839   17.6823 C   0  0  0  0  0  0  0  0  0  0  0  0
  -27.5276  -23.7666   19.2123 C   0  0  0  0  0  0  0  0  0  0  0  0
  -26.8002  -22.9269   18.2074 C   0  0  0  0  0  0  0  0  0  0  0  0
  -24.3579  -31.1727   22.7993 C   0  0  0  0  0  0  0  0  0  0  0  0
  -21.7297  -30.3002   21.1100 C   0  0  0  0  0  0  0  0  0  0  0  0
  -20.3204  -28.1870   18.8307 C   0  0  0  0  0  0  0  0  0  0  0  0
  -26.3163  -17.1171   21.2101 C   0  0  0  0  0  0  0  0  0  0  0  0
  -25.9393  -35.2691   25.4025 C   0  0  0  0  0  0  0  0  0  0  0  0
  -25.2733  -31.0897   20.4517 C   0  0  0  0  0  0  0  0  0  0  0  0
  -23.6704  -28.6881   21.0903 C   0  0  0  0  0  0  0  0  0  0  0  0
  -24.5866  -34.6732   25.0210 C   0  0  0  0  0  0  0  0  0  0  0  0
  -29.0107  -14.8635   21.7920 C   0  0  0  0  0  0  0  0  0  0  0  0
  -24.5477  -33.1840   25.3490 C   0  0  0  0  0  0  0  0  0  0  0  0
  -28.4920  -13.5302   21.2486 C   0  0  0  0  0  0  0  0  0  0  0  0
  -27.9021  -15.6719   22.4638 C   0  0  0  0  0  0  0  0  0  0  0  0
  -26.1848  -14.5508   21.0989 C   0  0  0  0  0  0  0  0  0  0  0  0
  -25.6102  -32.4159   24.5534 C   0  0  1  0  0  0  0  0  0  0  0  0
  -24.0302  -31.1648   21.3329 C   0  0  1  0  0  0  0  0  0  0  0  0
  -27.2515  -13.7298   20.3560 C   0  0  2  0  0  0  0  0  0  0  0  0
  -18.1447  -27.6978   17.6800 C   0  0  0  0  0  0  0  0  0  0  0  0
  -20.6760  -28.9991   23.6608 C   0  0  0  0  0  0  0  0  0  0  0  0
  -19.0233  -27.7478   22.2568 C   0  0  0  0  0  0  0  0  0  0  0  0
  -18.9562  -30.2401   22.3355 C   0  0  0  0  0  0  0  0  0  0  0  0
  -21.4825  -28.7091   16.1594 C   0  0  0  0  0  0  0  0  0  0  0  0
  -26.7976  -20.6493   17.1988 C   0  0  0  0  0  0  0  0  0  0  0  0
  -20.8282  -29.0896   21.0850 C   0  0  1  0  0  0  0  0  0  0  0  0
  -19.4629  -28.4525   17.6065 C   0  0  2  0  0  0  0  0  0  0  0  0
  -19.8988  -29.0170   22.3294 C   0  0  0  0  0  0  0  0  0  0  0  0
  -25.7416  -11.7906   20.5594 N   0  0  0  0  0  0  0  0  0  0  0  0
  -26.7030  -12.4080   19.8518 N   0  0  0  0  0  0  0  0  0  0  0  0
  -23.1091  -30.0490   21.1072 N   0  0  0  0  0  0  0  0  0  0  0  0
  -26.7617  -15.8242   21.5576 N   0  0  0  0  0  0  0  0  0  0  0  0
  -28.0287  -12.2163   17.8982 N   0  0  0  0  0  0  0  0  0  0  0  0
  -25.4873   -8.4842   17.8032 N   0  0  0  0  0  0  0  0  0  0  0  0
  -25.2460  -17.1373   20.3165 N   0  0  0  0  0  0  0  0  0  0  0  0
  -27.3229  -21.6495   18.1008 N   0  0  0  0  0  0  0  0  0  0  0  0
  -25.1740  -32.2180   23.1878 N   0  0  0  0  0  0  0  0  0  0  0  0
  -20.1186  -29.1353   19.8111 N   0  0  0  0  0  0  0  0  0  0  0  0
  -20.1792  -28.0282   16.3705 N   0  3  0  0  0  0  0  0  0  0  0  0
  -27.1382   -9.6410   16.7101 O   0  0  0  0  0  0  0  0  0  0  0  0
  -25.8475  -23.3562   17.5627 O   0  0  0  0  0  0  0  0  0  0  0  0
  -23.9028  -30.2962   23.5248 O   0  0  0  0  0  0  0  0  0  0  0  0
  -21.2286  -31.4272   21.1240 O   0  0  0  0  0  0  0  0  0  0  0  0
  -21.0895  -27.2316   18.9108 O   0  0  0  0  0  0  0  0  0  0  0  0
  -26.8629  -18.1318   21.6499 O   0  0  0  0  0  0  0  0  0  0  0  0
  -28.5862  -23.1930   19.8818 O   0  0  0  0  0  0  0  0  0  0  0  0
  -21.6467   -7.0184   21.5631 O   0  0  0  0  0  0  0  0  0  0  0  0
  -27.6364  -25.9446   20.2646 O   0  0  0  0  0  0  0  0  0  1  0  0
  -21.6286   -5.6355   26.9009 F   0  0  0  0  0  0  0  0  0  0  0  0
  -22.6274  -17.6740   19.5381 F   0  0  0  0  0  0  0  0  0  0  0  0
  -22.0135   -4.3936   22.3495 F   0  0  0  0  0  0  0  0  0  0  0  0
  -27.2554  -18.6397   19.1248 F   0  0  0  0  0  0  0  0  0  0  0  0
  1  2  1  0  0  0  0
  1  5  2  0  0  0  0
  2  6  2  0  0  0  0
  3  9  2  0  0  0  0
  3 17  1  0  0  0  0
  4 10  1  0  0  0  0
  4 17  2  0  0  0  0
  5 19  1  0  0  0  0
  6 21  1  0  0  0  0
  7 11  2  0  0  0  0
  7 20  1  0  0  0  0
  8 13  2  0  0  0  0
  8 23  1  0  0  0  0
  9 25  1  0  0  0  0
 10 25  2  0  0  0  0
 11 26  1  0  0  0  0
 12 14  2  0  0  0  0
 12 27  1  0  0  0  0
 13 29  1  0  0  0  0
 14 28  1  0  0  0  0
 15 22  1  0  0  0  0
 15 26  2  0  0  0  0
 16 28  2  0  0  0  0
 16 30  1  0  0  0  0
 17 32  1  0  0  0  0
 18 32  1  0  0  0  0
 18 33  2  0  0  0  0
 18 35  1  0  0  0  0
 19 21  2  0  0  0  0
 19 42  1  0  0  0  0
 20 22  2  0  0  0  0
 20 43  1  0  0  0  0
 21 51  1  0  0  0  0
 22 44  1  0  0  0  0
 23 31  2  0  0  0  0
 23 59  1  0  0  0  0
 24 29  2  0  0  0  0
 24 31  1  0  0  0  0
 24 69  1  0  0  0  0
 25 81  1  0  0  0  0
 26 82  1  0  0  0  0
 27 30  2  0  0  0  0
 27 81  1  0  0  0  0
 28 83  1  0  0  0  0
 29 84  1  0  0  0  0
 30 85  1  0  0  0  0
 31 86  1  0  0  0  0
 32 63  2  0  0  0  0
 33 64  1  0  0  0  0
 33 67  1  0  0  0  0
 34 36  2  0  0  0  0
 34 82  1  0  0  0  0
 35 68  1  0  0  0  0
 35 74  2  0  0  0  0
 36 37  1  0  0  0  0
 36 80  1  0  0  0  0
 37 70  1  0  0  0  0
 37 75  2  0  0  0  0
 38 52  1  0  0  0  0
 38 71  1  0  0  0  0
 38 76  2  0  0  0  0
 39 60  1  0  0  0  0
 39 65  1  0  0  0  0
 39 77  2  0  0  0  0
 40 61  1  0  0  0  0
 40 72  1  0  0  0  0
 40 78  2  0  0  0  0
 41 66  1  0  0  0  0
 41 69  1  0  0  0  0
 41 79  2  0  0  0  0
 42 45  1  0  0  0  0
 43 52  1  0  0  0  0
 44 65  1  0  0  0  0
 45 47  1  0  0  0  0
 46 48  1  0  0  0  0
 46 49  1  0  0  0  0
 47 51  1  0  0  0  0
 48 53  1  0  0  0  0
 49 66  1  0  0  0  0
 50 53  1  0  0  0  0
 50 66  1  0  0  0  0
 51 71  1  0  0  0  0
 52 65  1  0  0  0  0
 53 64  1  0  0  0  0
 54 61  1  0  0  0  0
 55 62  1  0  0  0  0
 56 62  1  0  0  0  0
 57 62  1  0  0  0  0
 58 73  1  0  0  0  0
 59 70  1  0  0  0  0
 60 62  1  0  0  0  0
 60 72  1  0  0  0  0
 61 73  1  0  0  0  0
 63 64  1  0  0  0  0
M  CHG  1  73   1
M  ISO  4  34 101  41 100  69 100  82 101
M  END
> <Batch ID>
0165

> <Smiles>
CNC(C)C(=O)NC(C(=O)N1Cc2cc([101O:1][101CH2:1]C(=O)C(=O)NCc3ccc(F)c([100NH:0][100C:0](=O)N4CCCC(n5nc(-c6ccc(Oc7ccc(F)cc7F)cc6)c(C(N)=O)c5N)C4)c3F)ccc2CC1C(=O)NC1CCCc2ccccc21)C(C)(C)C

> <Shape>
0.285

> <Color>
0.092

> <Negative vol penalty>
0.000

$$$$

  -OEChem-04052304053D

 86 94  0     1  0  0  0  0  0999 V2000
  -22.3136  -17.0047   37.0838 C   0  0  0  0  0  0  0  0  0  0  0  0
  -23.4215  -16.4864   36.4209 C   0  0  0  0  0  0  0  0  0  0  0  0
  -23.1993   -9.8521   19.9525 C   0  0  0  0  0  0  0  0  0  0  0  0
  -23.9117   -9.9295   22.2598 C   0  0  0  0  0  0  0  0  0  0  0  0
  -21.0992  -17.1365   36.4117 C   0  0  0  0  0  0  0  0  0  0  0  0
  -23.3152  -16.0986   35.0857 C   0  0  0  0  0  0  0  0  0  0  0  0
  -27.2188  -17.6950   32.2824 C   0  0  0  0  0  0  0  0  0  0  0  0
  -22.5069   -8.6681   20.2060 C   0  0  0  0  0  0  0  0  0  0  0  0
  -23.2192   -8.7455   22.5133 C   0  0  0  0  0  0  0  0  0  0  0  0
  -28.4119  -16.9813   32.3872 C   0  0  0  0  0  0  0  0  0  0  0  0
  -20.0217   -7.8014   23.0655 C   0  0  0  0  0  0  0  0  0  0  0  0
  -19.2441   -7.7421   24.2220 C   0  0  0  0  0  0  0  0  0  0  0  0
  -32.7541  -15.5507   25.5700 C   0  0  0  0  0  0  0  0  0  0  0  0
  -27.8915  -15.8220   30.3368 C   0  0  0  0  0  0  0  0  0  0  0  0
  -32.6207  -14.7368   23.2991 C   0  0  0  0  0  0  0  0  0  0  0  0
  -20.5621   -5.8780   25.0126 C   0  0  0  0  0  0  0  0  0  0  0  0
  -23.9018  -10.4828   20.9794 C   0  0  0  0  0  0  0  0  0  0  0  0
  -31.3701  -15.7233   25.5894 C   0  0  0  0  0  0  0  0  0  0  0  0
  -24.1242  -13.0194   20.8265 C   0  0  0  0  0  0  0  0  0  0  0  0
  -20.9805  -16.7592   35.0648 C   0  0  0  0  0  0  0  0  0  0  0  0
  -26.3465  -17.4693   31.2080 C   0  0  0  0  0  0  0  0  0  0  0  0
  -22.0977  -16.2243   34.3953 C   0  0  0  0  0  0  0  0  0  0  0  0
  -26.6892  -16.5359   30.2193 C   0  0  0  0  0  0  0  0  0  0  0  0
  -31.2367  -14.9093   23.3185 C   0  0  0  0  0  0  0  0  0  0  0  0
  -22.5168   -8.1148   21.4864 C   0  0  0  0  0  0  0  0  0  0  0  0
  -28.7471  -16.0426   31.4158 C   0  0  0  0  0  0  0  0  0  0  0  0
  -21.0694   -6.8989   22.8825 C   0  0  0  0  0  0  0  0  0  0  0  0
  -19.5143   -6.7804   25.1956 C   0  0  0  0  0  0  0  0  0  0  0  0
  -33.3794  -15.0575   24.4248 C   0  0  0  0  0  0  0  0  0  0  0  0
  -21.3397   -5.9373   23.8561 C   0  0  0  0  0  0  0  0  0  0  0  0
  -30.6114  -15.4026   24.4637 C   0  0  0  0  0  0  0  0  0  0  0  0
  -24.6178  -11.7055   20.7180 C   0  0  0  0  0  0  0  0  0  0  0  0
  -25.1861  -13.8155   20.4728 C   0  0  0  0  0  0  0  0  0  0  0  0
  -30.7113  -16.2451   26.8036 C   0  0  0  0  0  0  0  0  0  0  0  0
  -22.8222  -13.4793   21.2126 C   0  0  0  0  0  0  0  0  0  0  0  0
  -23.3551  -16.4318   30.9271 C   0  0  0  0  0  0  0  0  0  0  0  0
  -23.7966  -17.1937   27.8050 C   0  0  0  0  0  0  0  0  0  0  0  0
  -25.9736  -17.6971   25.2255 C   0  0  0  0  0  0  0  0  0  0  0  0
  -30.9353  -14.0833   20.9578 C   0  0  0  0  0  0  0  0  0  0  0  0
  -19.6348  -16.8763   34.3940 C   0  0  0  0  0  0  0  0  0  0  0  0
  -25.0760  -18.2665   31.0952 C   0  0  0  0  0  0  0  0  0  0  0  0
  -25.7967  -16.2711   29.0353 C   0  0  0  0  0  0  0  0  0  0  0  0
  -19.7038  -16.7914   32.8714 C   0  0  0  0  0  0  0  0  0  0  0  0
  -29.3626  -13.1191   17.9125 C   0  0  0  0  0  0  0  0  0  0  0  0
  -20.5907  -15.6273   32.4413 C   0  0  0  0  0  0  0  0  0  0  0  0
  -27.9301  -12.7844   18.3344 C   0  0  0  0  0  0  0  0  0  0  0  0
  -30.3791  -12.6970   18.9719 C   0  0  0  0  0  0  0  0  0  0  0  0
  -28.6790  -12.8667   20.7467 C   0  0  0  0  0  0  0  0  0  0  0  0
  -22.0285  -15.8156   32.9399 C   0  0  1  0  0  0  0  0  0  0  0  0
  -24.0185  -17.5865   30.2311 C   0  0  1  0  0  0  0  0  0  0  0  0
  -27.6141  -13.3319   19.7401 C   0  0  2  0  0  0  0  0  0  0  0  0
  -26.0353  -18.2721   22.7836 C   0  0  0  0  0  0  0  0  0  0  0  0
  -22.9120  -14.3557   27.1169 C   0  0  0  0  0  0  0  0  0  0  0  0
  -23.8853  -14.6807   24.8333 C   0  0  0  0  0  0  0  0  0  0  0  0
  -22.0045  -16.1273   25.6029 C   0  0  0  0  0  0  0  0  0  0  0  0
  -29.9766  -13.5495   29.9414 C   0  0  0  0  0  0  0  0  0  0  0  0
  -32.0366  -14.8454   30.5386 C   0  0  0  0  0  0  0  0  0  0  0  0
  -27.5350  -20.1609   25.7263 C   0  0  0  0  0  0  0  0  0  0  0  0
  -30.2293  -15.9677   29.2093 C   0  0  0  0  0  0  0  0  0  0  0  0
  -24.3087  -16.4618   26.5881 C   0  0  1  0  0  0  0  0  0  0  0  0
  -26.0835  -18.8143   24.2036 C   0  0  2  0  0  0  0  0  0  0  0  0
  -23.2937  -15.4097   26.0585 C   0  0  0  0  0  0  0  0  0  0  0  0
  -30.5273  -14.9311   30.2972 C   0  0  0  0  0  0  0  0  0  1  0  0
  -25.8939  -11.6649   20.3259 N   0  0  0  0  0  0  0  0  0  0  0  0
  -26.2112  -12.9631   20.1848 N   0  0  0  0  0  0  0  0  0  0  0  0
  -24.5625  -17.0713   28.9730 N   0  0  0  0  0  0  0  0  0  0  0  0
  -30.0177  -13.2560   20.2764 N   0  0  0  0  0  0  0  0  0  0  0  0
  -25.3337  -15.1543   20.3831 N   0  0  0  0  0  0  0  0  0  0  0  0
  -30.0227  -17.3823   26.7052 N   0  0  0  0  0  0  0  0  0  0  0  0
  -21.8486  -12.5273   21.5444 N   0  0  0  0  0  0  0  0  0  0  0  0
  -30.4689  -14.5829   22.1733 N   0  0  0  0  0  0  0  0  0  0  0  0
  -22.7295  -16.7728   32.1111 N   0  0  0  0  0  0  0  0  0  0  0  0
  -24.6676  -17.4882   25.6154 N   0  0  0  0  0  0  0  0  0  0  0  0
  -30.8392  -15.5539   27.9416 N   0  3  0  0  0  0  0  0  0  0  0  0
  -27.3649  -19.5542   24.3809 N   0  3  0  0  0  0  0  0  0  0  0  0
  -22.5259  -14.6978   21.2461 O   0  0  0  0  0  0  0  0  0  0  0  0
  -23.4056  -15.3146   30.4261 O   0  0  0  0  0  0  0  0  0  0  0  0
  -22.7591  -17.8556   27.7205 O   0  0  0  0  0  0  0  0  0  0  0  0
  -26.9484  -17.0698   25.6340 O   0  0  0  0  0  0  0  0  0  0  0  0
  -32.0423  -14.3523   20.4842 O   0  0  0  0  0  0  0  0  0  0  0  0
  -21.8410   -6.9596   21.7342 O   0  0  0  0  0  0  0  0  0  0  0  0
  -29.9107  -15.3442   31.5161 O   0  0  0  0  0  0  0  0  0  1  0  0
  -18.7685   -6.7246   26.3068 F   0  0  0  0  0  0  0  0  0  0  0  0
  -34.7083  -14.8916   24.4063 F   0  0  0  0  0  0  0  0  0  0  0  0
  -22.3457   -5.0684   23.6864 F   0  0  0  0  0  0  0  0  0  0  0  0
  -29.2803  -15.5694   24.4838 F   0  0  0  0  0  0  0  0  0  0  0  0
  1  2  1  0  0  0  0
  1  5  2  0  0  0  0
  2  6  2  0  0  0  0
  3  8  2  0  0  0  0
  3 17  1  0  0  0  0
  4  9  1  0  0  0  0
  4 17  2  0  0  0  0
  5 20  1  0  0  0  0
  6 22  1  0  0  0  0
  7 10  2  0  0  0  0
  7 21  1  0  0  0  0
  8 25  1  0  0  0  0
  9 25  2  0  0  0  0
 10 26  1  0  0  0  0
 11 12  2  0  0  0  0
 11 27  1  0  0  0  0
 12 28  1  0  0  0  0
 13 18  1  0  0  0  0
 13 29  2  0  0  0  0
 14 23  1  0  0  0  0
 14 26  2  0  0  0  0
 15 24  2  0  0  0  0
 15 29  1  0  0  0  0
 16 28  2  0  0  0  0
 16 30  1  0  0  0  0
 17 32  1  0  0  0  0
 18 31  2  0  0  0  0
 18 34  1  0  0  0  0
 19 32  1  0  0  0  0
 19 33  2  0  0  0  0
 19 35  1  0  0  0  0
 20 22  2  0  0  0  0
 20 40  1  0  0  0  0
 21 23  2  0  0  0  0
 21 41  1  0  0  0  0
 22 49  1  0  0  0  0
 23 42  1  0  0  0  0
 24 31  1  0  0  0  0
 24 71  1  0  0  0  0
 25 81  1  0  0  0  0
 26 82  1  0  0  0  0
 27 30  2  0  0  0  0
 27 81  1  0  0  0  0
 28 83  1  0  0  0  0
 29 84  1  0  0  0  0
 30 85  1  0  0  0  0
 31 86  1  0  0  0  0
 32 64  2  0  0  0  0
 33 65  1  0  0  0  0
 33 68  1  0  0  0  0
 34 69  1  0  0  0  0
 34 74  2  0  0  0  0
 35 70  1  0  0  0  0
 35 76  2  0  0  0  0
 36 50  1  0  0  0  0
 36 72  1  0  0  0  0
 36 77  2  0  0  0  0
 37 60  1  0  0  0  0
 37 66  1  0  0  0  0
 37 78  2  0  0  0  0
 38 61  1  0  0  0  0
 38 73  1  0  0  0  0
 38 79  2  0  0  0  0
 39 67  1  0  0  0  0
 39 71  1  0  0  0  0
 39 80  2  0  0  0  0
 40 43  1  0  0  0  0
 41 50  1  0  0  0  0
 42 66  1  0  0  0  0
 43 45  1  0  0  0  0
 44 46  1  0  0  0  0
 44 47  1  0  0  0  0
 45 49  1  0  0  0  0
 46 51  1  0  0  0  0
 47 67  1  0  0  0  0
 48 51  1  0  0  0  0
 48 67  1  0  0  0  0
 49 72  1  0  0  0  0
 50 66  1  0  0  0  0
 51 65  1  0  0  0  0
 52 61  1  0  0  0  0
 53 62  1  0  0  0  0
 54 62  1  0  0  0  0
 55 62  1  0  0  0  0
 56 63  1  0  0  0  0
 57 63  1  0  0  0  0
 58 75  1  0  0  0  0
 59 63  1  0  0  0  0
 59 74  1  0  0  0  0
 60 62  1  0  0  0  0
 60 73  1  0  0  0  0
 61 75  1  0  0  0  0
 63 82  1  0  0  0  0
 64 65  1  0  0  0  0
M  CHG  2  74   1  75   1
M  ISO  4  39 100  63 101  71 100  82 101
M  END
> <Batch ID>
0165

> <Smiles>
CNC(C)C(=O)NC(C(=O)N1Cc2cc([101O:1][101C:1](C)(C)CNC(=N)c3cc(F)cc([100NH:0][100C:0](=O)N4CCCC(n5nc(-c6ccc(Oc7ccc(F)cc7F)cc6)c(C(N)=O)c5N)C4)c3F)ccc2CC1C(=O)NC1CCCc2ccccc21)C(C)(C)C

> <Shape>
0.151

> <Color>
0.178

> <Negative vol penalty>
0.000

$$$$

  -OEChem-04052304053D

 83 91  0     1  0  0  0  0  0999 V2000
  -19.2177  -22.1485   24.2188 C   0  0  0  0  0  0  0  0  0  0  0  0
  -20.6066  -22.2218   24.1872 C   0  0  0  0  0  0  0  0  0  0  0  0
  -23.0844   -9.8705   19.9795 C   0  0  0  0  0  0  0  0  0  0  0  0
  -23.8102   -9.9451   22.2827 C   0  0  0  0  0  0  0  0  0  0  0  0
  -18.4536  -23.2344   23.7936 C   0  0  0  0  0  0  0  0  0  0  0  0
  -21.2322  -23.3808   23.7292 C   0  0  0  0  0  0  0  0  0  0  0  0
  -25.0802  -24.8124   26.6938 C   0  0  0  0  0  0  0  0  0  0  0  0
  -22.3383   -8.7239   20.2517 C   0  0  0  0  0  0  0  0  0  0  0  0
  -23.0641   -8.7984   22.5549 C   0  0  0  0  0  0  0  0  0  0  0  0
  -26.2817  -24.1184   26.5570 C   0  0  0  0  0  0  0  0  0  0  0  0
  -19.8283   -8.0130   23.1325 C   0  0  0  0  0  0  0  0  0  0  0  0
  -19.0541   -8.0057   24.2927 C   0  0  0  0  0  0  0  0  0  0  0  0
  -27.1524  -25.9070   25.1924 C   0  0  0  0  0  0  0  0  0  0  0  0
  -29.8853  -17.9696   22.6671 C   0  0  0  0  0  0  0  0  0  0  0  0
  -20.2869   -6.0924   25.1032 C   0  0  0  0  0  0  0  0  0  0  0  0
  -31.8027  -17.5092   21.5801 C   0  0  0  0  0  0  0  0  0  0  0  0
  -23.8204  -10.4811   20.9949 C   0  0  0  0  0  0  0  0  0  0  0  0
  -24.1609  -13.0023   20.8070 C   0  0  0  0  0  0  0  0  0  0  0  0
  -19.0702  -24.4108   23.3393 C   0  0  0  0  0  0  0  0  0  0  0  0
  -24.9016  -26.0559   26.0708 C   0  0  0  0  0  0  0  0  0  0  0  0
  -20.4757  -24.4830   23.2963 C   0  0  0  0  0  0  0  0  0  0  0  0
  -25.9487  -26.6159   25.3250 C   0  0  0  0  0  0  0  0  0  0  0  0
  -30.5546  -17.0057   21.8732 C   0  0  0  0  0  0  0  0  0  0  0  0
  -22.3281   -8.1878   21.5394 C   0  0  0  0  0  0  0  0  0  0  0  0
  -27.3170  -24.6644   25.8039 C   0  0  0  0  0  0  0  0  0  0  0  0
  -20.8317   -7.0600   22.9575 C   0  0  0  0  0  0  0  0  0  0  0  0
  -19.2834   -7.0455   25.2781 C   0  0  0  0  0  0  0  0  0  0  0  0
  -21.0610   -6.0997   23.9429 C   0  0  0  0  0  0  0  0  0  0  0  0
  -24.5917  -11.6653   20.7143 C   0  0  0  0  0  0  0  0  0  0  0  0
  -30.7448  -19.0328   22.8348 C   0  0  0  0  0  0  0  0  0  0  0  0
  -25.2573  -13.7428   20.4383 C   0  0  0  0  0  0  0  0  0  0  0  0
  -28.4568  -22.7498   25.0927 C   0  0  0  0  0  0  0  0  0  1  0  0
  -22.8837  -13.5279   21.1920 C   0  0  0  0  0  0  0  0  0  0  0  0
  -29.5370  -21.9850   24.9020 C   0  0  0  0  0  0  0  0  0  0  0  0
  -29.4281  -20.6364   24.2583 C   0  0  0  0  0  0  0  0  0  0  0  0
  -22.9263  -27.1914   23.8544 C   0  0  0  0  0  0  0  0  0  0  0  0
  -24.3522  -30.0119   24.5854 C   0  0  0  0  0  0  0  0  0  0  0  0
  -27.0746  -31.6422   25.8412 C   0  0  0  0  0  0  0  0  0  0  0  0
  -30.7190  -14.8022   20.6634 C   0  0  0  0  0  0  0  0  0  0  0  0
  -18.2024  -25.5411   22.8453 C   0  0  0  0  0  0  0  0  0  0  0  0
  -23.6092  -26.8041   26.2501 C   0  0  0  0  0  0  0  0  0  0  0  0
  -25.8147  -27.9571   24.6529 C   0  0  0  0  0  0  0  0  0  0  0  0
  -18.9429  -26.8707   22.7268 C   0  0  0  0  0  0  0  0  0  0  0  0
  -29.6429  -12.3188   18.3499 C   0  0  0  0  0  0  0  0  0  0  0  0
  -20.2845  -26.6741   22.0281 C   0  0  0  0  0  0  0  0  0  0  0  0
  -28.1974  -12.0374   18.7665 C   0  0  0  0  0  0  0  0  0  0  0  0
  -30.5398  -12.5839   19.5579 C   0  0  0  0  0  0  0  0  0  0  0  0
  -28.6116  -13.3449   20.8891 C   0  0  0  0  0  0  0  0  0  0  0  0
  -21.1911  -25.7321   22.8295 C   0  0  1  0  0  0  0  0  0  0  0  0
  -23.3528  -27.8267   25.1475 C   0  0  1  0  0  0  0  0  0  0  0  0
  -27.6566  -13.1360   19.7026 C   0  0  2  0  0  0  0  0  0  0  0  0
  -27.9629  -33.9489   26.2742 C   0  0  0  0  0  0  0  0  0  0  0  0
  -24.9491  -30.3377   21.6109 C   0  0  0  0  0  0  0  0  0  0  0  0
  -26.6144  -32.1085   22.2102 C   0  0  0  0  0  0  0  0  0  0  0  0
  -24.2026  -32.4295   22.7603 C   0  0  0  0  0  0  0  0  0  0  0  0
  -33.0766  -19.5903   22.0889 C   0  0  0  0  0  0  0  0  0  0  0  0
  -27.2538  -31.1521   28.7544 C   0  0  0  0  0  0  0  0  0  0  0  0
  -25.5638  -30.7592   24.0828 C   0  0  1  0  0  0  0  0  0  0  0  0
  -27.1967  -32.7688   26.8513 C   0  0  2  0  0  0  0  0  0  0  0  0
  -25.3346  -31.3825   22.6770 C   0  0  0  0  0  0  0  0  0  0  0  0
  -25.8628  -11.5595   20.3177 N   0  0  0  0  0  0  0  0  0  0  0  0
  -31.9071  -18.7421   22.1695 N   0  0  0  0  0  0  0  0  0  0  0  0
  -26.2400  -12.8395   20.1578 N   0  0  0  0  0  0  0  0  0  0  0  0
  -24.5294  -28.6469   24.8526 N   0  0  0  0  0  0  0  0  0  0  0  0
  -29.9666  -13.6388   20.3966 N   0  0  0  0  0  0  0  0  0  0  0  0
  -25.4672  -15.0719   20.3299 N   0  0  0  0  0  0  0  0  0  0  0  0
  -21.8680  -12.6272   21.5404 N   0  0  0  0  0  0  0  0  0  0  0  0
  -30.0584  -15.7495   21.4449 N   0  0  0  0  0  0  0  0  0  0  0  0
  -30.5541  -20.2459   23.5452 N   0  0  0  0  0  0  0  0  0  0  0  0
  -21.7775  -26.4300   23.9536 N   0  0  0  0  0  0  0  0  0  0  0  0
  -25.9037  -31.7290   25.1183 N   0  0  0  0  0  0  0  0  0  0  0  0
  -30.8079  -22.4564   25.3024 N   0  3  0  0  0  0  0  0  0  0  0  0
  -27.9107  -32.2959   28.0709 N   0  3  0  0  0  0  0  0  0  0  0  0
  -22.6451  -14.7593   21.2102 O   0  0  0  0  0  0  0  0  0  0  0  0
  -28.3954  -19.9850   24.3999 O   0  0  0  0  0  0  0  0  0  0  0  0
  -23.5897  -27.3793   22.8413 O   0  0  0  0  0  0  0  0  0  0  0  0
  -23.2896  -30.6184   24.7420 O   0  0  0  0  0  0  0  0  0  0  0  0
  -27.9339  -30.7742   25.7045 O   0  0  0  0  0  0  0  0  0  0  0  0
  -31.8547  -14.9592   20.2078 O   0  0  0  0  0  0  0  0  0  0  0  0
  -21.6000   -7.0690   21.8054 O   0  0  0  0  0  0  0  0  0  0  0  0
  -28.4905  -23.9889   25.6682 O   0  0  0  0  0  0  0  0  0  1  0  0
  -18.5409   -7.0395   26.3929 F   0  0  0  0  0  0  0  0  0  0  0  0
  -22.0244   -5.1823   23.7810 F   0  0  0  0  0  0  0  0  0  0  0  0
  1  2  1  0  0  0  0
  1  5  2  0  0  0  0
  2  6  2  0  0  0  0
  3  8  2  0  0  0  0
  3 17  1  0  0  0  0
  4  9  1  0  0  0  0
  4 17  2  0  0  0  0
  5 19  1  0  0  0  0
  6 21  1  0  0  0  0
  7 10  2  0  0  0  0
  7 20  1  0  0  0  0
  8 24  1  0  0  0  0
  9 24  2  0  0  0  0
 10 25  1  0  0  0  0
 11 12  2  0  0  0  0
 11 26  1  0  0  0  0
 12 27  1  0  0  0  0
 13 22  1  0  0  0  0
 13 25  2  0  0  0  0
 14 23  1  0  0  0  0
 14 30  2  0  0  0  0
 15 27  2  0  0  0  0
 15 28  1  0  0  0  0
 16 23  2  0  0  0  0
 16 62  1  0  0  0  0
 17 29  1  0  0  0  0
 18 29  1  0  0  0  0
 18 31  2  0  0  0  0
 18 33  1  0  0  0  0
 19 21  2  0  0  0  0
 19 40  1  0  0  0  0
 20 22  2  0  0  0  0
 20 41  1  0  0  0  0
 21 49  1  0  0  0  0
 22 42  1  0  0  0  0
 23 68  1  0  0  0  0
 24 80  1  0  0  0  0
 25 81  1  0  0  0  0
 26 28  2  0  0  0  0
 26 80  1  0  0  0  0
 27 82  1  0  0  0  0
 28 83  1  0  0  0  0
 29 61  2  0  0  0  0
 30 62  1  0  0  0  0
 30 69  1  0  0  0  0
 31 63  1  0  0  0  0
 31 66  1  0  0  0  0
 32 34  2  0  0  0  0
 32 81  1  0  0  0  0
 33 67  1  0  0  0  0
 33 74  2  0  0  0  0
 34 35  1  0  0  0  0
 34 72  1  0  0  0  0
 35 69  1  0  0  0  0
 35 75  2  0  0  0  0
 36 50  1  0  0  0  0
 36 70  1  0  0  0  0
 36 76  2  0  0  0  0
 37 58  1  0  0  0  0
 37 64  1  0  0  0  0
 37 77  2  0  0  0  0
 38 59  1  0  0  0  0
 38 71  1  0  0  0  0
 38 78  2  0  0  0  0
 39 65  1  0  0  0  0
 39 68  1  0  0  0  0
 39 79  2  0  0  0  0
 40 43  1  0  0  0  0
 41 50  1  0  0  0  0
 42 64  1  0  0  0  0
 43 45  1  0  0  0  0
 44 46  1  0  0  0  0
 44 47  1  0  0  0  0
 45 49  1  0  0  0  0
 46 51  1  0  0  0  0
 47 65  1  0  0  0  0
 48 51  1  0  0  0  0
 48 65  1  0  0  0  0
 49 70  1  0  0  0  0
 50 64  1  0  0  0  0
 51 63  1  0  0  0  0
 52 59  1  0  0  0  0
 53 60  1  0  0  0  0
 54 60  1  0  0  0  0
 55 60  1  0  0  0  0
 56 62  1  0  0  0  0
 57 73  1  0  0  0  0
 58 60  1  0  0  0  0
 58 71  1  0  0  0  0
 59 73  1  0  0  0  0
 61 63  1  0  0  0  0
M  CHG  2  72   1  73   1
M  ISO  4  32 101  39 100  68 100  81 101
M  END
> <Batch ID>
0165

> <Smiles>
CNC(C)C(=O)NC(C(=O)N1Cc2cc([101O:1][101CH2:1]C(=N)C(=O)Nc3cc([100NH:0][100C:0](=O)N4CCCC(n5nc(-c6ccc(Oc7ccc(F)cc7F)cc6)c(C(N)=O)c5N)C4)cn3C)ccc2CC1C(=O)NC1CCCc2ccccc21)C(C)(C)C

> <Shape>
0.279

> <Color>
0.187

> <Negative vol penalty>
0.000

$$$$

  -OEChem-04052304053D

 83 91  0     1  0  0  0  0  0999 V2000
  -30.2725  -23.9413   17.2452 C   0  0  0  0  0  0  0  0  0  0  0  0
  -29.0458  -23.9310   17.9013 C   0  0  0  0  0  0  0  0  0  0  0  0
  -28.5125  -16.1029   20.5406 C   0  0  0  0  0  0  0  0  0  0  0  0
  -27.2175  -17.9296   21.4480 C   0  0  0  0  0  0  0  0  0  0  0  0
  -31.3059  -24.7512   17.7145 C   0  0  0  0  0  0  0  0  0  0  0  0
  -28.8520  -24.7298   19.0276 C   0  0  0  0  0  0  0  0  0  0  0  0
  -24.4173  -27.1732   18.9369 C   0  0  0  0  0  0  0  0  0  0  0  0
  -29.5787  -16.9725   20.3116 C   0  0  0  0  0  0  0  0  0  0  0  0
  -28.2838  -18.7992   21.2191 C   0  0  0  0  0  0  0  0  0  0  0  0
  -23.2794  -26.4399   19.2701 C   0  0  0  0  0  0  0  0  0  0  0  0
  -31.2286  -19.5677   22.6881 C   0  0  0  0  0  0  0  0  0  0  0  0
  -31.5680  -20.4569   23.7078 C   0  0  0  0  0  0  0  0  0  0  0  0
  -23.3312  -27.3801   21.4910 C   0  0  0  0  0  0  0  0  0  0  0  0
  -31.1347  -22.3178   22.2292 C   0  0  0  0  0  0  0  0  0  0  0  0
  -27.3318  -16.5814   21.1087 C   0  0  0  0  0  0  0  0  0  0  0  0
  -25.9814  -14.9302   22.5078 C   0  0  0  0  0  0  0  0  0  0  0  0
  -31.1216  -25.5677   18.8414 C   0  0  0  0  0  0  0  0  0  0  0  0
  -25.0281  -28.0086   19.8832 C   0  0  0  0  0  0  0  0  0  0  0  0
  -29.8843  -25.5504   19.5132 C   0  0  0  0  0  0  0  0  0  0  0  0
  -24.4753  -28.1249   21.1665 C   0  0  0  0  0  0  0  0  0  0  0  0
  -29.4644  -18.3207   20.6509 C   0  0  0  0  0  0  0  0  0  0  0  0
  -22.7378  -26.5410   20.5482 C   0  0  0  0  0  0  0  0  0  0  0  0
  -30.8422  -20.0536   21.4390 C   0  0  0  0  0  0  0  0  0  0  0  0
  -31.5211  -21.8319   23.4783 C   0  0  0  0  0  0  0  0  0  0  0  0
  -30.7953  -21.4286   21.2095 C   0  0  0  0  0  0  0  0  0  0  0  0
  -26.2298  -15.6837   21.3449 C   0  0  0  0  0  0  0  0  0  0  0  0
  -18.8428  -18.2222   20.3823 C   0  0  0  0  0  0  0  0  0  0  0  0
  -18.3164  -18.2775   21.6490 C   0  0  0  0  0  0  0  0  0  0  0  0
  -24.8225  -14.2463   22.2327 C   0  0  0  0  0  0  0  0  0  0  0  0
  -19.2642  -20.1313   21.1576 C   0  0  0  0  0  0  0  0  0  0  0  0
  -26.7312  -14.8552   23.7276 C   0  0  0  0  0  0  0  0  0  0  0  0
  -27.8835  -28.1081   21.2762 C   0  0  0  0  0  0  0  0  0  0  0  0
  -20.6692  -23.6103   21.0909 C   0  0  0  0  0  0  0  0  0  0  0  0
  -26.7541  -30.8889   22.5066 C   0  0  0  0  0  0  0  0  0  0  0  0
  -24.0548  -32.7884   23.3741 C   0  0  0  0  0  0  0  0  0  0  0  0
  -20.2510  -15.3006   18.5124 C   0  0  0  0  0  0  0  0  0  0  0  0
  -32.2832  -26.3907   19.3394 C   0  0  0  0  0  0  0  0  0  0  0  0
  -26.2395  -28.8135   19.4997 C   0  0  0  0  0  0  0  0  0  0  0  0
  -25.0814  -29.0232   22.2126 C   0  0  0  0  0  0  0  0  0  0  0  0
  -31.8761  -27.4897   20.3176 C   0  0  0  0  0  0  0  0  0  0  0  0
  -22.3331  -12.4133   18.5812 C   0  0  0  0  0  0  0  0  0  0  0  0
  -30.9181  -26.9399   21.3696 C   0  0  0  0  0  0  0  0  0  0  0  0
  -23.5455  -12.8560   19.4022 C   0  0  0  0  0  0  0  0  0  0  0  0
  -21.8011  -13.5451   17.7049 C   0  0  0  0  0  0  0  0  0  0  0  0
  -22.7115  -15.2391   19.2461 C   0  0  0  0  0  0  0  0  0  0  0  0
  -29.6275  -26.4217   20.7236 C   0  0  1  0  0  0  0  0  0  0  0  0
  -27.0788  -29.2389   20.7006 C   0  0  1  0  0  0  0  0  0  0  0  0
  -23.2493  -14.1479   20.1876 C   0  0  2  0  0  0  0  0  0  0  0  0
  -17.5756  -17.3457   22.5058 C   0  0  0  0  0  0  0  0  0  0  0  0
  -23.4480  -35.0005   24.3917 C   0  0  0  0  0  0  0  0  0  0  0  0
  -27.4691  -29.8111   25.2701 C   0  0  0  0  0  0  0  0  0  0  0  0
  -26.0095  -31.5863   26.2634 C   0  0  0  0  0  0  0  0  0  0  0  0
  -28.0115  -32.2273   24.9203 C   0  0  0  0  0  0  0  0  0  0  0  0
  -22.6393  -33.6578   20.9248 C   0  0  0  0  0  0  0  0  0  0  0  0
  -18.8182  -17.1135   19.4179 C   0  0  0  0  0  0  0  0  0  0  0  0
  -20.3966  -22.2502   20.4843 C   0  0  0  0  0  0  0  0  0  0  0  0
  -21.4400  -24.5766   20.2126 C   0  0  0  0  0  0  0  0  0  1  0  0
  -25.9848  -31.2748   23.7468 C   0  0  1  0  0  0  0  0  0  0  0  0
  -23.7170  -34.2429   23.1008 C   0  0  2  0  0  0  0  0  0  0  0  0
  -26.8582  -31.2064   25.0313 C   0  0  0  0  0  0  0  0  0  0  0  0
  -25.3032  -15.4963   20.4013 N   0  0  0  0  0  0  0  0  0  0  0  0
  -19.4486  -19.4131   20.0729 N   0  0  0  0  0  0  0  0  0  0  0  0
  -24.4614  -14.6171   20.9709 N   0  0  0  0  0  0  0  0  0  0  0  0
  -26.2687  -29.7850   21.7913 N   0  0  0  0  0  0  0  0  0  0  0  0
  -21.5390  -14.7402   18.5105 N   0  0  0  0  0  0  0  0  0  0  0  0
  -24.0873  -13.3699   22.9496 N   0  0  0  0  0  0  0  0  0  0  0  0
  -27.8975  -15.6237   23.8432 N   0  0  0  0  0  0  0  0  0  0  0  0
  -19.6673  -21.4328   21.4198 N   0  0  0  0  0  0  0  0  0  0  0  0
  -28.7570  -27.5250   20.3781 N   0  0  0  0  0  0  0  0  0  0  0  0
  -25.4154  -32.5914   23.4808 N   0  0  0  0  0  0  0  0  0  0  0  0
  -20.0867  -16.4282   19.3076 N   0  0  0  0  0  0  0  0  0  0  0  0
  -22.5059  -34.3400   22.2377 N   0  3  0  0  0  0  0  0  0  0  0  0
  -26.3862  -14.1157   24.6803 O   0  0  0  0  0  0  0  0  0  0  0  0
  -27.7249  -27.7892   22.4487 O   0  0  0  0  0  0  0  0  0  0  0  0
  -20.2951  -23.9219   22.2208 O   0  0  0  0  0  0  0  0  0  0  0  0
  -27.7450  -31.5472   22.1804 O   0  0  0  0  0  0  0  0  0  0  0  0
  -23.1974  -31.9150   23.4858 O   0  0  0  0  0  0  0  0  0  0  0  0
  -19.3153  -14.8278   17.8582 O   0  0  0  0  0  0  0  0  0  0  0  0
  -18.5842  -19.5112   22.1606 O   0  0  0  0  0  0  0  0  0  0  0  0
  -30.5047  -19.1695   20.4279 O   0  0  0  0  0  0  0  0  0  0  0  0
  -21.6275  -25.8258   20.8763 O   0  0  0  0  0  0  0  0  0  1  0  0
  -31.8456  -22.6857   24.4581 F   0  0  0  0  0  0  0  0  0  0  0  0
  -30.4237  -21.9014   20.0119 F   0  0  0  0  0  0  0  0  0  0  0  0
  1  2  1  0  0  0  0
  1  5  2  0  0  0  0
  2  6  2  0  0  0  0
  3  8  2  0  0  0  0
  3 15  1  0  0  0  0
  4  9  1  0  0  0  0
  4 15  2  0  0  0  0
  5 17  1  0  0  0  0
  6 19  1  0  0  0  0
  7 10  2  0  0  0  0
  7 18  1  0  0  0  0
  8 21  1  0  0  0  0
  9 21  2  0  0  0  0
 10 22  1  0  0  0  0
 11 12  2  0  0  0  0
 11 23  1  0  0  0  0
 12 24  1  0  0  0  0
 13 20  1  0  0  0  0
 13 22  2  0  0  0  0
 14 24  2  0  0  0  0
 14 25  1  0  0  0  0
 15 26  1  0  0  0  0
 16 26  1  0  0  0  0
 16 29  2  0  0  0  0
 16 31  1  0  0  0  0
 17 19  2  0  0  0  0
 17 37  1  0  0  0  0
 18 20  2  0  0  0  0
 18 38  1  0  0  0  0
 19 46  1  0  0  0  0
 20 39  1  0  0  0  0
 21 80  1  0  0  0  0
 22 81  1  0  0  0  0
 23 25  2  0  0  0  0
 23 80  1  0  0  0  0
 24 82  1  0  0  0  0
 25 83  1  0  0  0  0
 26 61  2  0  0  0  0
 27 28  2  0  0  0  0
 27 55  1  0  0  0  0
 27 62  1  0  0  0  0
 28 49  1  0  0  0  0
 28 79  1  0  0  0  0
 29 63  1  0  0  0  0
 29 66  1  0  0  0  0
 30 62  2  0  0  0  0
 30 68  1  0  0  0  0
 30 79  1  0  0  0  0
 31 67  1  0  0  0  0
 31 73  2  0  0  0  0
 32 47  1  0  0  0  0
 32 69  1  0  0  0  0
 32 74  2  0  0  0  0
 33 56  1  0  0  0  0
 33 57  1  0  0  0  0
 33 75  2  0  0  0  0
 34 58  1  0  0  0  0
 34 64  1  0  0  0  0
 34 76  2  0  0  0  0
 35 59  1  0  0  0  0
 35 70  1  0  0  0  0
 35 77  2  0  0  0  0
 36 65  1  0  0  0  0
 36 71  1  0  0  0  0
 36 78  2  0  0  0  0
 37 40  1  0  0  0  0
 38 47  1  0  0  0  0
 39 64  1  0  0  0  0
 40 42  1  0  0  0  0
 41 43  1  0  0  0  0
 41 44  1  0  0  0  0
 42 46  1  0  0  0  0
 43 48  1  0  0  0  0
 44 65  1  0  0  0  0
 45 48  1  0  0  0  0
 45 65  1  0  0  0  0
 46 69  1  0  0  0  0
 47 64  1  0  0  0  0
 48 63  1  0  0  0  0
 50 59  1  0  0  0  0
 51 60  1  0  0  0  0
 52 60  1  0  0  0  0
 53 60  1  0  0  0  0
 54 72  1  0  0  0  0
 55 71  1  0  0  0  0
 56 68  1  0  0  0  0
 57 81  1  0  0  0  0
 58 60  1  0  0  0  0
 58 70  1  0  0  0  0
 59 72  1  0  0  0  0
 61 63  1  0  0  0  0
M  CHG  1  72   1
M  ISO  4  36 100  57 101  71 100  81 101
M  END
> <Batch ID>
0165

> <Smiles>
CNC(C)C(=O)NC(C(=O)N1Cc2cc([101O:1][101CH2:1]C(=O)CNc3nc(C[100NH:0][100C:0](=O)N4CCCC(n5nc(-c6ccc(Oc7ccc(F)cc7F)cc6)c(C(N)=O)c5N)C4)c(C)o3)ccc2CC1C(=O)NC1CCCc2ccccc21)C(C)(C)C

> <Shape>
0.219

> <Color>
0.058

> <Negative vol penalty>
0.000

$$$$

  -OEChem-04052304053D

 87 95  0     1  0  0  0  0  0999 V2000
  -16.9360  -29.4814   24.5236 C   0  0  0  0  0  0  0  0  0  0  0  0
  -18.0106  -28.6055   24.6393 C   0  0  0  0  0  0  0  0  0  0  0  0
  -23.1629   -9.6718   19.9414 C   0  0  0  0  0  0  0  0  0  0  0  0
  -23.7432   -9.8809   22.2773 C   0  0  0  0  0  0  0  0  0  0  0  0
  -16.9011  -30.4062   23.4808 C   0  0  0  0  0  0  0  0  0  0  0  0
  -19.0505  -28.6531   23.7115 C   0  0  0  0  0  0  0  0  0  0  0  0
  -24.9898  -27.6115   24.7818 C   0  0  0  0  0  0  0  0  0  0  0  0
  -22.4389   -8.5138   20.2249 C   0  0  0  0  0  0  0  0  0  0  0  0
  -23.0191   -8.7229   22.5608 C   0  0  0  0  0  0  0  0  0  0  0  0
  -25.7940  -26.4885   24.5931 C   0  0  0  0  0  0  0  0  0  0  0  0
  -23.4571   -5.3815   22.2887 C   0  0  0  0  0  0  0  0  0  0  0  0
  -24.0475   -4.4374   23.1285 C   0  0  0  0  0  0  0  0  0  0  0  0
  -31.3176  -18.7834   24.1631 C   0  0  0  0  0  0  0  0  0  0  0  0
  -26.5186  -27.3719   22.4685 C   0  0  0  0  0  0  0  0  0  0  0  0
  -31.7050  -16.9213   22.6733 C   0  0  0  0  0  0  0  0  0  0  0  0
  -22.2150   -4.6758   24.6849 C   0  0  0  0  0  0  0  0  0  0  0  0
  -23.8151  -10.3554   20.9676 C   0  0  0  0  0  0  0  0  0  0  0  0
  -29.9489  -18.7041   23.9064 C   0  0  0  0  0  0  0  0  0  0  0  0
  -24.0851  -12.8752   20.6759 C   0  0  0  0  0  0  0  0  0  0  0  0
  -17.9457  -30.4717   22.5454 C   0  0  0  0  0  0  0  0  0  0  0  0
  -24.9354  -28.6198   23.8088 C   0  0  0  0  0  0  0  0  0  0  0  0
  -19.0289  -29.5788   22.6544 C   0  0  0  0  0  0  0  0  0  0  0  0
  -25.7148  -28.5080   22.6485 C   0  0  0  0  0  0  0  0  0  0  0  0
  -30.3362  -16.8420   22.4166 C   0  0  0  0  0  0  0  0  0  0  0  0
  -22.3669   -8.0394   21.5346 C   0  0  0  0  0  0  0  0  0  0  0  0
  -26.5563  -26.3671   23.4350 C   0  0  0  0  0  0  0  0  0  0  0  0
  -22.2456   -5.9729   22.6469 C   0  0  0  0  0  0  0  0  0  0  0  0
  -23.4265   -4.0844   24.3266 C   0  0  0  0  0  0  0  0  0  0  0  0
  -32.1957  -17.8920   23.5465 C   0  0  0  0  0  0  0  0  0  0  0  0
  -21.6246   -5.6200   23.8450 C   0  0  0  0  0  0  0  0  0  0  0  0
  -29.4582  -17.7334   23.0331 C   0  0  0  0  0  0  0  0  0  0  0  0
  -24.5637  -11.5513   20.6753 C   0  0  0  0  0  0  0  0  0  0  0  0
  -25.1778  -13.6355   20.3373 C   0  0  0  0  0  0  0  0  0  0  0  0
  -29.0222  -19.6491   24.5613 C   0  0  0  0  0  0  0  0  0  0  0  0
  -22.7705  -13.3733   20.9574 C   0  0  0  0  0  0  0  0  0  0  0  0
  -22.6499  -29.8377   21.9658 C   0  0  0  0  0  0  0  0  0  0  0  0
  -28.2472  -23.1270   23.9157 C   0  0  0  0  0  0  0  0  0  0  0  0
  -24.9744  -31.9465   21.1462 C   0  0  0  0  0  0  0  0  0  0  0  0
  -28.3086  -32.6260   20.8842 C   0  0  0  0  0  0  0  0  0  0  0  0
  -30.5784  -14.8955   20.8358 C   0  0  0  0  0  0  0  0  0  0  0  0
  -17.8409  -31.4565   21.4079 C   0  0  0  0  0  0  0  0  0  0  0  0
  -24.0834  -29.8377   24.0396 C   0  0  0  0  0  0  0  0  0  0  0  0
  -25.7075  -29.5722   21.5827 C   0  0  0  0  0  0  0  0  0  0  0  0
  -19.1637  -31.6939   20.6839 C   0  0  0  0  0  0  0  0  0  0  0  0
  -29.7268  -12.2692   18.5876 C   0  0  0  0  0  0  0  0  0  0  0  0
  -19.8553  -30.3671   20.3870 C   0  0  0  0  0  0  0  0  0  0  0  0
  -28.2683  -11.9572   18.9303 C   0  0  0  0  0  0  0  0  0  0  0  0
  -30.5389  -12.6225   19.8323 C   0  0  0  0  0  0  0  0  0  0  0  0
  -28.5092  -13.3774   21.0069 C   0  0  0  0  0  0  0  0  0  0  0  0
  -20.1879  -29.6164   21.6821 C   0  0  1  0  0  0  0  0  0  0  0  0
  -23.7102  -30.5593   22.7484 C   0  0  1  0  0  0  0  0  0  0  0  0
  -27.6360  -13.0791   19.7771 C   0  0  2  0  0  0  0  0  0  0  0  0
  -28.9162  -22.4362   26.2359 C   0  0  0  0  0  0  0  0  0  0  0  0
  -29.9015  -34.4186   20.1450 C   0  0  0  0  0  0  0  0  0  0  0  0
  -24.4162  -31.2373   18.2315 C   0  0  0  0  0  0  0  0  0  0  0  0
  -26.6053  -32.2919   17.6283 C   0  0  0  0  0  0  0  0  0  0  0  0
  -24.7999  -33.6715   18.6578 C   0  0  0  0  0  0  0  0  0  0  0  0
  -29.4763  -32.8671   23.5929 C   0  0  0  0  0  0  0  0  0  0  0  0
  -27.3367  -24.2851   24.2790 C   0  0  0  0  0  0  0  0  0  1  0  0
  -28.3207  -21.9899   24.9152 C   0  0  2  0  0  0  0  0  0  0  0  0
  -26.0461  -31.9969   20.0842 C   0  0  1  0  0  0  0  0  0  0  0  0
  -29.1282  -33.8291   21.3143 C   0  0  2  0  0  0  0  0  0  0  0  0
  -25.4658  -32.2782   18.6694 C   0  0  0  0  0  0  0  0  0  0  0  0
  -25.8595  -11.4716   20.3611 N   0  0  0  0  0  0  0  0  0  0  0  0
  -26.2043  -12.7550   20.1610 N   0  0  0  0  0  0  0  0  0  0  0  0
  -24.8536  -30.7409   21.8517 N   0  0  0  0  0  0  0  0  0  0  0  0
  -29.8816  -13.6951   20.5822 N   0  0  0  0  0  0  0  0  0  0  0  0
  -25.3510  -14.9645   20.1760 N   0  0  0  0  0  0  0  0  0  0  0  0
  -21.7648  -12.4549   21.2886 N   0  0  0  0  0  0  0  0  0  0  0  0
  -29.8410  -15.8549   21.5287 N   0  0  0  0  0  0  0  0  0  0  0  0
  -29.1829  -20.9622   24.3400 N   0  0  0  0  0  0  0  0  0  0  0  0
  -21.3588  -30.1885   22.3115 N   0  0  0  0  0  0  0  0  0  0  0  0
  -27.0227  -32.9819   20.5361 N   0  0  0  0  0  0  0  0  0  0  0  0
  -28.0674  -19.1502   25.3466 N   0  3  0  0  0  0  0  0  0  0  0  0
  -30.1018  -33.4407   22.3736 N   0  3  0  0  0  0  0  0  0  0  0  0
  -22.4917  -14.5950   20.9004 O   0  0  0  0  0  0  0  0  0  0  0  0
  -22.9787  -29.0241   21.1105 O   0  0  0  0  0  0  0  0  0  0  0  0
  -28.8881  -23.1186   22.8645 O   0  0  0  0  0  0  0  0  0  0  0  0
  -24.2752  -32.9426   21.3474 O   0  0  0  0  0  0  0  0  0  0  0  0
  -28.7646  -31.4850   20.8560 O   0  0  0  0  0  0  0  0  0  0  0  0
  -31.7343  -15.0705   20.4417 O   0  0  0  0  0  0  0  0  0  0  0  0
  -21.6602   -6.9096   21.8116 O   0  0  0  0  0  0  0  0  0  0  0  0
  -27.3417  -25.2717   23.2479 O   0  0  0  0  0  0  0  0  0  1  0  0
  -23.9929   -3.1766   25.1323 F   0  0  0  0  0  0  0  0  0  0  0  0
  -33.5099  -17.9680   23.7932 F   0  0  0  0  0  0  0  0  0  0  0  0
  -20.4600   -6.1839   24.1939 F   0  0  0  0  0  0  0  0  0  0  0  0
  -28.1415  -17.6586   22.7869 F   0  0  0  0  0  0  0  0  0  0  0  0
  1  2  1  0  0  0  0
  1  5  2  0  0  0  0
  2  6  2  0  0  0  0
  3  8  2  0  0  0  0
  3 17  1  0  0  0  0
  4  9  1  0  0  0  0
  4 17  2  0  0  0  0
  5 20  1  0  0  0  0
  6 22  1  0  0  0  0
  7 10  2  0  0  0  0
  7 21  1  0  0  0  0
  8 25  1  0  0  0  0
  9 25  2  0  0  0  0
 10 26  1  0  0  0  0
 11 12  2  0  0  0  0
 11 27  1  0  0  0  0
 12 28  1  0  0  0  0
 13 18  1  0  0  0  0
 13 29  2  0  0  0  0
 14 23  1  0  0  0  0
 14 26  2  0  0  0  0
 15 24  2  0  0  0  0
 15 29  1  0  0  0  0
 16 28  2  0  0  0  0
 16 30  1  0  0  0  0
 17 32  1  0  0  0  0
 18 31  2  0  0  0  0
 18 34  1  0  0  0  0
 19 32  1  0  0  0  0
 19 33  2  0  0  0  0
 19 35  1  0  0  0  0
 20 22  2  0  0  0  0
 20 41  1  0  0  0  0
 21 23  2  0  0  0  0
 21 42  1  0  0  0  0
 22 50  1  0  0  0  0
 23 43  1  0  0  0  0
 24 31  1  0  0  0  0
 24 70  1  0  0  0  0
 25 82  1  0  0  0  0
 26 83  1  0  0  0  0
 27 30  2  0  0  0  0
 27 82  1  0  0  0  0
 28 84  1  0  0  0  0
 29 85  1  0  0  0  0
 30 86  1  0  0  0  0
 31 87  1  0  0  0  0
 32 64  2  0  0  0  0
 33 65  1  0  0  0  0
 33 68  1  0  0  0  0
 34 71  1  0  0  0  0
 34 74  2  0  0  0  0
 35 69  1  0  0  0  0
 35 76  2  0  0  0  0
 36 51  1  0  0  0  0
 36 72  1  0  0  0  0
 36 77  2  0  0  0  0
 37 59  1  0  0  0  0
 37 60  1  0  0  0  0
 37 78  2  0  0  0  0
 38 61  1  0  0  0  0
 38 66  1  0  0  0  0
 38 79  2  0  0  0  0
 39 62  1  0  0  0  0
 39 73  1  0  0  0  0
 39 80  2  0  0  0  0
 40 67  1  0  0  0  0
 40 70  1  0  0  0  0
 40 81  2  0  0  0  0
 41 44  1  0  0  0  0
 42 51  1  0  0  0  0
 43 66  1  0  0  0  0
 44 46  1  0  0  0  0
 45 47  1  0  0  0  0
 45 48  1  0  0  0  0
 46 50  1  0  0  0  0
 47 52  1  0  0  0  0
 48 67  1  0  0  0  0
 49 52  1  0  0  0  0
 49 67  1  0  0  0  0
 50 72  1  0  0  0  0
 51 66  1  0  0  0  0
 52 65  1  0  0  0  0
 53 60  1  0  0  0  0
 54 62  1  0  0  0  0
 55 63  1  0  0  0  0
 56 63  1  0  0  0  0
 57 63  1  0  0  0  0
 58 75  1  0  0  0  0
 59 83  1  0  0  0  0
 60 71  1  0  0  0  0
 61 63  1  0  0  0  0
 61 73  1  0  0  0  0
 62 75  1  0  0  0  0
 64 65  1  0  0  0  0
M  CHG  2  74   1  75   1
M  ISO  4  40 100  59 101  70 100  83 101
M  END
> <Batch ID>
0165

> <Smiles>
CNC(C)C(=O)NC(C(=O)N1Cc2cc([101O:1][101CH2:1]C(=O)C(C)NC(=N)c3cc(F)cc([100NH:0][100C:0](=O)N4CCCC(n5nc(-c6ccc(Oc7ccc(F)cc7F)cc6)c(C(N)=O)c5N)C4)c3F)ccc2CC1C(=O)NC1CCCc2ccccc21)C(C)(C)C

> <Shape>
0.268

> <Color>
0.216

> <Negative vol penalty>
0.000

$$$$

  -OEChem-04052304053D

 87 95  0     1  0  0  0  0  0999 V2000
  -22.1774  -32.1574   14.4014 C   0  0  0  0  0  0  0  0  0  0  0  0
  -23.2946  -31.5347   14.9486 C   0  0  0  0  0  0  0  0  0  0  0  0
  -31.2952  -19.0639   19.8062 C   0  0  0  0  0  0  0  0  0  0  0  0
  -23.2052   -9.6247   22.4980 C   0  0  0  0  0  0  0  0  0  0  0  0
  -23.7805   -9.2617   20.1798 C   0  0  0  0  0  0  0  0  0  0  0  0
  -21.5884  -33.2353   15.0610 C   0  0  0  0  0  0  0  0  0  0  0  0
  -23.8242  -31.9904   16.1554 C   0  0  0  0  0  0  0  0  0  0  0  0
  -24.9565  -28.2111   19.3303 C   0  0  0  0  0  0  0  0  0  0  0  0
  -30.3528  -18.0376   19.7418 C   0  0  0  0  0  0  0  0  0  0  0  0
  -30.8770  -20.3869   19.9500 C   0  0  0  0  0  0  0  0  0  0  0  0
  -22.4038   -8.4832   22.4779 C   0  0  0  0  0  0  0  0  0  0  0  0
  -22.9792   -8.1201   20.1597 C   0  0  0  0  0  0  0  0  0  0  0  0
  -26.1350  -27.5069   19.0873 C   0  0  0  0  0  0  0  0  0  0  0  0
  -20.4922   -5.4628   23.1396 C   0  0  0  0  0  0  0  0  0  0  0  0
  -20.5944   -4.5797   24.2144 C   0  0  0  0  0  0  0  0  0  0  0  0
  -27.2468  -28.7875   20.8029 C   0  0  0  0  0  0  0  0  0  0  0  0
  -22.9363   -4.2497   23.7207 C   0  0  0  0  0  0  0  0  0  0  0  0
  -23.8935  -10.0140   21.3489 C   0  0  0  0  0  0  0  0  0  0  0  0
  -26.0881  -11.2672   21.6964 C   0  0  0  0  0  0  0  0  0  0  0  0
  -22.1052  -33.6982   16.2813 C   0  0  0  0  0  0  0  0  0  0  0  0
  -24.9172  -29.2180   20.3055 C   0  0  0  0  0  0  0  0  0  0  0  0
  -23.2424  -33.0764   16.8313 C   0  0  0  0  0  0  0  0  0  0  0  0
  -26.0659  -29.5013   21.0581 C   0  0  0  0  0  0  0  0  0  0  0  0
  -28.9921  -18.3343   19.8210 C   0  0  0  0  0  0  0  0  0  0  0  0
  -28.5739  -19.6572   19.9647 C   0  0  0  0  0  0  0  0  0  0  0  0
  -29.5164  -20.6835   20.0292 C   0  0  0  0  0  0  0  0  0  0  0  0
  -22.2908   -7.7309   21.3088 C   0  0  0  0  0  0  0  0  0  0  0  0
  -27.2811  -27.7971   19.8217 C   0  0  0  0  0  0  0  0  0  0  0  0
  -21.6121   -5.7393   22.3552 C   0  0  0  0  0  0  0  0  0  0  0  0
  -21.8164   -3.9732   24.5050 C   0  0  0  0  0  0  0  0  0  0  0  0
  -22.8341   -5.1328   22.6458 C   0  0  0  0  0  0  0  0  0  0  0  0
  -24.7210  -11.1934   21.3688 C   0  0  0  0  0  0  0  0  0  0  0  0
  -26.4013  -12.5980   21.5648 C   0  0  0  0  0  0  0  0  0  0  0  0
  -26.9939  -10.2259   22.0847 C   0  0  0  0  0  0  0  0  0  0  0  0
  -24.3558  -32.3466   20.2781 C   0  0  0  0  0  0  0  0  0  0  0  0
  -29.2761  -24.4139   20.4027 C   0  0  0  0  0  0  0  0  0  0  0  0
  -24.5277  -32.0111   23.5000 C   0  0  0  0  0  0  0  0  0  0  0  0
  -25.6801  -30.2244   26.1694 C   0  0  0  0  0  0  0  0  0  0  0  0
  -25.9456  -17.2137   18.2778 C   0  0  0  0  0  0  0  0  0  0  0  0
  -21.4629  -34.8968   16.9337 C   0  0  0  0  0  0  0  0  0  0  0  0
  -23.6310  -29.9501   20.5740 C   0  0  0  0  0  0  0  0  0  0  0  0
  -26.0706  -30.5590   22.1303 C   0  0  0  0  0  0  0  0  0  0  0  0
  -21.8596  -35.0797   18.3964 C   0  0  0  0  0  0  0  0  0  0  0  0
  -23.4495  -16.6484   20.9520 C   0  0  0  0  0  0  0  0  0  0  0  0
  -23.3683  -34.9285   18.5633 C   0  0  0  0  0  0  0  0  0  0  0  0
  -23.6300  -15.1647   21.2679 C   0  0  0  0  0  0  0  0  0  0  0  0
  -23.8194  -16.9698   19.5072 C   0  0  0  0  0  0  0  0  0  0  0  0
  -25.3678  -15.0432   19.4388 C   0  0  0  0  0  0  0  0  0  0  0  0
  -23.8311  -33.5259   18.1510 C   0  0  1  0  0  0  0  0  0  0  0  0
  -23.8433  -31.3083   21.2357 C   0  0  1  0  0  0  0  0  0  0  0  0
  -25.0479  -14.6940   20.9000 C   0  0  2  0  0  0  0  0  0  0  0  0
  -26.6699  -20.2685   21.4773 C   0  0  0  0  0  0  0  0  0  0  0  0
  -25.6907  -30.2178   28.6789 C   0  0  0  0  0  0  0  0  0  0  0  0
  -26.6171  -34.2347   23.4946 C   0  0  0  0  0  0  0  0  0  0  0  0
  -27.2636  -33.5376   25.8107 C   0  0  0  0  0  0  0  0  0  0  0  0
  -24.9555  -34.3691   25.3589 C   0  0  0  0  0  0  0  0  0  0  0  0
  -28.2038  -17.3066   17.2922 C   0  0  0  0  0  0  0  0  0  0  0  0
  -24.2803  -27.6193   26.2841 C   0  0  0  0  0  0  0  0  0  0  0  0
  -27.1130  -19.9711   20.0492 C   0  0  0  0  0  0  0  0  0  0  0  0
  -28.0040  -17.2164   19.7494 C   0  0  0  0  0  0  0  0  0  0  0  0
  -30.1356  -25.6683   20.4870 C   0  0  0  0  0  0  0  0  0  0  0  0
  -30.0388  -23.1136   20.2464 C   0  0  0  0  0  0  0  0  0  0  0  0
  -29.3223  -26.9377   20.6884 C   0  0  0  0  0  0  0  0  0  1  0  0
  -25.6341  -32.0809   24.5246 C   0  0  1  0  0  0  0  0  0  0  0  0
  -24.9854  -29.7269   27.4242 C   0  0  2  0  0  0  0  0  0  0  0  0
  -26.1183  -33.5369   24.7757 C   0  0  0  0  0  0  0  0  0  0  0  0
  -24.2014  -12.3827   21.0531 N   0  0  0  0  0  0  0  0  0  0  0  0
  -25.2476  -13.2164   21.1818 N   0  0  0  0  0  0  0  0  0  0  0  0
  -24.7903  -31.2516   22.3511 N   0  0  0  0  0  0  0  0  0  0  0  0
  -25.1544  -16.4734   19.1715 N   0  0  0  0  0  0  0  0  0  0  0  0
  -27.5483  -13.2879   21.7407 N   0  0  0  0  0  0  0  0  0  0  0  0
  -26.5072   -8.9144   22.1701 N   0  0  0  0  0  0  0  0  0  0  0  0
  -29.1206  -22.0053   20.1725 N   0  0  0  0  0  0  0  0  0  0  0  0
  -23.5297  -32.5676   19.1928 N   0  0  0  0  0  0  0  0  0  0  0  0
  -25.1309  -31.4048   25.7155 N   0  0  0  0  0  0  0  0  0  0  0  0
  -27.3365  -17.1500   18.4511 N   0  0  0  0  0  0  0  0  0  0  0  0
  -24.9650  -28.2370   27.4489 N   0  3  0  0  0  0  0  0  0  0  0  0
  -28.1953  -10.4543   22.3641 O   0  0  0  0  0  0  0  0  0  0  0  0
  -25.4212  -32.9069   20.5078 O   0  0  0  0  0  0  0  0  0  0  0  0
  -28.0477  -24.4546   20.4558 O   0  0  0  0  0  0  0  0  0  0  0  0
  -23.4667  -32.6027   23.7144 O   0  0  0  0  0  0  0  0  0  0  0  0
  -26.6187  -29.6275   25.6466 O   0  0  0  0  0  0  0  0  0  0  0  0
  -25.4373  -17.9005   17.3822 O   0  0  0  0  0  0  0  0  0  0  0  0
  -21.5092   -6.6168   21.2889 O   0  0  0  0  0  0  0  0  0  0  0  0
  -28.4329  -27.1117   19.5861 O   0  0  0  0  0  0  0  0  0  1  0  0
  -21.9148   -3.1264   25.5382 F   0  0  0  0  0  0  0  0  0  0  0  0
  -23.9137   -5.3954   21.8965 F   0  0  0  0  0  0  0  0  0  0  0  0
  1  2  1  0  0  0  0
  1  6  2  0  0  0  0
  2  7  2  0  0  0  0
  3  9  1  0  0  0  0
  3 10  2  0  0  0  0
  4 11  2  0  0  0  0
  4 18  1  0  0  0  0
  5 12  1  0  0  0  0
  5 18  2  0  0  0  0
  6 20  1  0  0  0  0
  7 22  1  0  0  0  0
  8 13  2  0  0  0  0
  8 21  1  0  0  0  0
  9 24  2  0  0  0  0
 10 26  1  0  0  0  0
 11 27  1  0  0  0  0
 12 27  2  0  0  0  0
 13 28  1  0  0  0  0
 14 15  2  0  0  0  0
 14 29  1  0  0  0  0
 15 30  1  0  0  0  0
 16 23  1  0  0  0  0
 16 28  2  0  0  0  0
 17 30  2  0  0  0  0
 17 31  1  0  0  0  0
 18 32  1  0  0  0  0
 19 32  1  0  0  0  0
 19 33  2  0  0  0  0
 19 34  1  0  0  0  0
 20 22  2  0  0  0  0
 20 40  1  0  0  0  0
 21 23  2  0  0  0  0
 21 41  1  0  0  0  0
 22 49  1  0  0  0  0
 23 42  1  0  0  0  0
 24 25  1  0  0  0  0
 24 60  1  0  0  0  0
 25 26  2  0  0  0  0
 25 59  1  0  0  0  0
 26 73  1  0  0  0  0
 27 84  1  0  0  0  0
 28 85  1  0  0  0  0
 29 31  2  0  0  0  0
 29 84  1  0  0  0  0
 30 86  1  0  0  0  0
 31 87  1  0  0  0  0
 32 67  2  0  0  0  0
 33 68  1  0  0  0  0
 33 71  1  0  0  0  0
 34 72  1  0  0  0  0
 34 78  2  0  0  0  0
 35 50  1  0  0  0  0
 35 74  1  0  0  0  0
 35 79  2  0  0  0  0
 36 61  1  0  0  0  0
 36 62  1  0  0  0  0
 36 80  2  0  0  0  0
 37 64  1  0  0  0  0
 37 69  1  0  0  0  0
 37 81  2  0  0  0  0
 38 65  1  0  0  0  0
 38 75  1  0  0  0  0
 38 82  2  0  0  0  0
 39 70  1  0  0  0  0
 39 76  1  0  0  0  0
 39 83  2  0  0  0  0
 40 43  1  0  0  0  0
 41 50  1  0  0  0  0
 42 69  1  0  0  0  0
 43 45  1  0  0  0  0
 44 46  1  0  0  0  0
 44 47  1  0  0  0  0
 45 49  1  0  0  0  0
 46 51  1  0  0  0  0
 47 70  1  0  0  0  0
 48 51  1  0  0  0  0
 48 70  1  0  0  0  0
 49 74  1  0  0  0  0
 50 69  1  0  0  0  0
 51 68  1  0  0  0  0
 52 59  1  0  0  0  0
 53 65  1  0  0  0  0
 54 66  1  0  0  0  0
 55 66  1  0  0  0  0
 56 66  1  0  0  0  0
 57 76  1  0  0  0  0
 58 77  1  0  0  0  0
 60 76  1  0  0  0  0
 61 63  1  0  0  0  0
 62 73  1  0  0  0  0
 63 85  1  0  0  0  0
 64 66  1  0  0  0  0
 64 75  1  0  0  0  0
 65 77  1  0  0  0  0
 67 68  1  0  0  0  0
M  CHG  1  77   1
M  ISO  4  39 100  63 101  76 100  85 101
M  END
> <Batch ID>
0165

> <Smiles>
CCc1c(C[100N:0](C)[100C:0](=O)N2CCCC(n3nc(-c4ccc(Oc5ccc(F)cc5F)cc4)c(C(N)=O)c3N)C2)cccc1NCC(=O)C[101CH2:1][101O:1]c1ccc2c(c1)CN(C(=O)C(NC(=O)C(C)NC)C(C)(C)C)C(C(=O)NC1CCCc3ccccc31)C2

> <Shape>
0.313

> <Color>
0.130

> <Negative vol penalty>
0.000

$$$$

  -OEChem-04052304053D

 84 93  0     1  0  0  0  0  0999 V2000
  -30.1342  -36.3133   21.9058 C   0  0  0  0  0  0  0  0  0  0  0  0
  -29.8641  -35.4443   20.8535 C   0  0  0  0  0  0  0  0  0  0  0  0
  -24.4017  -17.5746   15.1353 C   0  0  0  0  0  0  0  0  0  0  0  0
  -24.2249   -9.0056   19.8920 C   0  0  0  0  0  0  0  0  0  0  0  0
  -23.9335   -9.5887   22.2184 C   0  0  0  0  0  0  0  0  0  0  0  0
  -29.8918  -35.9125   23.2190 C   0  0  0  0  0  0  0  0  0  0  0  0
  -29.3524  -34.1736   21.1139 C   0  0  0  0  0  0  0  0  0  0  0  0
  -24.9836  -29.2334   18.3167 C   0  0  0  0  0  0  0  0  0  0  0  0
  -23.2168   -8.0484   20.0056 C   0  0  0  0  0  0  0  0  0  0  0  0
  -22.9253   -8.6315   22.3320 C   0  0  0  0  0  0  0  0  0  0  0  0
  -24.9617  -27.8800   17.9828 C   0  0  0  0  0  0  0  0  0  0  0  0
  -22.7037   -5.2759   22.6809 C   0  0  0  0  0  0  0  0  0  0  0  0
  -22.7252   -4.4415   23.7984 C   0  0  0  0  0  0  0  0  0  0  0  0
  -24.5137  -18.9604   15.1526 C   0  0  0  0  0  0  0  0  0  0  0  0
  -24.5806  -16.8535   16.3105 C   0  0  0  0  0  0  0  0  0  0  0  0
  -24.5081  -27.3252   20.2862 C   0  0  0  0  0  0  0  0  0  0  0  0
  -20.5453   -5.2558   24.4483 C   0  0  0  0  0  0  0  0  0  0  0  0
  -24.5834   -9.7758   20.9985 C   0  0  0  0  0  0  0  0  0  0  0  0
  -26.9686  -10.5452   20.5231 C   0  0  0  0  0  0  0  0  0  0  0  0
  -29.3677  -34.6398   23.4951 C   0  0  0  0  0  0  0  0  0  0  0  0
  -24.7783  -29.6430   19.6420 C   0  0  0  0  0  0  0  0  0  0  0  0
  -29.1040  -33.7549   22.4321 C   0  0  0  0  0  0  0  0  0  0  0  0
  -24.5253  -28.6846   20.6338 C   0  0  0  0  0  0  0  0  0  0  0  0
  -22.5669   -7.8614   21.2256 C   0  0  0  0  0  0  0  0  0  0  0  0
  -24.7269  -26.9255   18.9681 C   0  0  0  0  0  0  0  0  0  0  0  0
  -21.6031   -6.1003   22.4471 C   0  0  0  0  0  0  0  0  0  0  0  0
  -21.6460   -4.4314   24.6821 C   0  0  0  0  0  0  0  0  0  0  0  0
  -20.5239   -6.0903   23.3308 C   0  0  0  0  0  0  0  0  0  0  0  0
  -25.6251  -10.7643   20.8819 C   0  0  0  0  0  0  0  0  0  0  0  0
  -24.8037  -19.5726   16.3613 C   0  0  0  0  0  0  0  0  0  0  0  0
  -24.8678  -17.5599   17.4674 C   0  0  0  0  0  0  0  0  0  0  0  0
  -27.5411  -11.7933   20.5573 C   0  0  0  0  0  0  0  0  0  0  0  0
  -24.8652  -23.7639   17.1665 C   0  0  0  0  0  0  0  0  0  0  0  0
  -27.6392   -9.3229   20.1887 C   0  0  0  0  0  0  0  0  0  0  0  0
  -26.5163  -31.1929   21.8056 C   0  0  0  0  0  0  0  0  0  0  0  0
  -23.7721  -31.0658   23.5306 C   0  0  0  0  0  0  0  0  0  0  0  0
  -20.7902  -29.5144   24.1207 C   0  0  0  0  0  0  0  0  0  0  0  0
  -25.3394  -17.3127   19.9297 C   0  0  0  0  0  0  0  0  0  0  0  0
  -29.1667  -34.2340   24.9337 C   0  0  0  0  0  0  0  0  0  0  0  0
  -24.7784  -31.1084   19.9811 C   0  0  0  0  0  0  0  0  0  0  0  0
  -24.2788  -29.0736   22.0679 C   0  0  0  0  0  0  0  0  0  0  0  0
  -26.1564  -23.0131   17.3499 C   0  0  0  0  0  0  0  0  0  0  0  0
  -28.2717  -33.0088   25.1015 C   0  0  0  0  0  0  0  0  0  0  0  0
  -27.1339  -16.0416   22.7299 C   0  0  0  0  0  0  0  0  0  0  0  0
  -28.6812  -31.9107   24.1250 C   0  0  0  0  0  0  0  0  0  0  0  0
  -27.0781  -14.5243   22.5379 C   0  0  0  0  0  0  0  0  0  0  0  0
  -23.6168  -21.7683   16.7751 C   0  0  0  0  0  0  0  0  0  0  0  0
  -25.8360  -16.7170   22.2905 C   0  0  0  0  0  0  0  0  0  0  0  0
  -25.3392  -14.8706   20.7370 C   0  0  0  0  0  0  0  0  0  0  0  0
  -28.5251  -32.3776   22.6727 C   0  0  1  0  0  0  0  0  0  0  0  0
  -24.9327  -21.0785   16.4179 C   0  0  1  0  0  0  0  0  0  0  0  0
  -25.0676  -31.3808   21.4540 C   0  0  1  0  0  0  0  0  0  0  0  0
  -26.6481  -14.1530   21.1051 C   0  0  2  0  0  0  0  0  0  0  0  0
  -18.7800  -29.6150   25.6195 C   0  0  0  0  0  0  0  0  0  0  0  0
  -25.3981  -29.8186   25.7911 C   0  0  0  0  0  0  0  0  0  0  0  0
  -23.2466  -29.0846   26.8401 C   0  0  0  0  0  0  0  0  0  0  0  0
  -23.7154  -31.5149   26.5294 C   0  0  0  0  0  0  0  0  0  0  0  0
  -18.9678  -29.9909   21.8380 C   0  0  0  0  0  0  0  0  0  0  0  0
  -24.9318  -25.2657   17.2772 C   0  0  0  0  0  0  0  0  0  1  0  0
  -23.1712  -30.0900   24.5132 C   0  0  1  0  0  0  0  0  0  0  0  0
  -19.3866  -30.0643   24.2993 C   0  0  2  0  0  0  0  0  0  0  0  0
  -23.8894  -30.1193   25.8919 C   0  0  0  0  0  0  0  0  0  0  0  0
  -25.3598  -12.0504   21.1263 N   0  0  0  0  0  0  0  0  0  0  0  0
  -24.9843  -18.9056   17.5233 N   0  0  0  0  0  0  0  0  0  0  0  0
  -23.7313  -23.2247   16.8821 N   0  0  0  0  0  0  0  0  0  0  0  0
  -26.5445  -12.6506   20.9208 N   0  0  0  0  0  0  0  0  0  0  0  0
  -24.2952  -30.5183   22.3506 N   0  0  0  0  0  0  0  0  0  0  0  0
  -25.4937  -16.3220   20.9224 N   0  0  0  0  0  0  0  0  0  0  0  0
  -28.7946  -12.2300   20.3118 N   0  0  0  0  0  0  0  0  0  0  0  0
  -28.2415   -8.5878   21.2188 N   0  0  0  0  0  0  0  0  0  0  0  0
  -25.0464  -16.8160   18.6600 N   0  0  0  0  0  0  0  0  0  0  0  0
  -27.1341  -32.3362   22.2753 N   0  0  0  0  0  0  0  0  0  0  0  0
  -21.7465  -30.3979   24.5749 N   0  0  0  0  0  0  0  0  0  0  0  0
  -25.9435  -21.5460   17.4220 N   0  3  0  0  0  0  0  0  0  0  0  0
  -18.5031  -29.5983   23.1934 N   0  3  0  0  0  0  0  0  0  0  0  0
  -27.7166   -8.9036   19.0090 O   0  0  0  0  0  0  0  0  0  0  0  0
  -27.0347  -30.0917   21.6627 O   0  0  0  0  0  0  0  0  0  0  0  0
  -23.7706  -32.2703   23.7968 O   0  0  0  0  0  0  0  0  0  0  0  0
  -21.0156  -28.4099   23.6310 O   0  0  0  0  0  0  0  0  0  0  0  0
  -25.4853  -18.5117   20.1811 O   0  0  0  0  0  0  0  0  0  0  0  0
  -21.5829   -6.9276   21.3367 O   0  0  0  0  0  0  0  0  0  0  0  0
  -24.7057  -25.6037   18.6451 O   0  0  0  0  0  0  0  0  0  1  0  0
  -21.6661   -3.6290   25.7544 F   0  0  0  0  0  0  0  0  0  0  0  0
  -19.4632   -6.8792   23.1107 F   0  0  0  0  0  0  0  0  0  0  0  0
  1  2  1  0  0  0  0
  1  6  2  0  0  0  0
  2  7  2  0  0  0  0
  3 14  2  0  0  0  0
  3 15  1  0  0  0  0
  4  9  2  0  0  0  0
  4 18  1  0  0  0  0
  5 10  1  0  0  0  0
  5 18  2  0  0  0  0
  6 20  1  0  0  0  0
  7 22  1  0  0  0  0
  8 11  2  0  0  0  0
  8 21  1  0  0  0  0
  9 24  1  0  0  0  0
 10 24  2  0  0  0  0
 11 25  1  0  0  0  0
 12 13  2  0  0  0  0
 12 26  1  0  0  0  0
 13 27  1  0  0  0  0
 14 30  1  0  0  0  0
 15 31  2  0  0  0  0
 16 23  1  0  0  0  0
 16 25  2  0  0  0  0
 17 27  2  0  0  0  0
 17 28  1  0  0  0  0
 18 29  1  0  0  0  0
 19 29  1  0  0  0  0
 19 32  2  0  0  0  0
 19 34  1  0  0  0  0
 20 22  2  0  0  0  0
 20 39  1  0  0  0  0
 21 23  2  0  0  0  0
 21 40  1  0  0  0  0
 22 50  1  0  0  0  0
 23 41  1  0  0  0  0
 24 81  1  0  0  0  0
 25 82  1  0  0  0  0
 26 28  2  0  0  0  0
 26 81  1  0  0  0  0
 27 83  1  0  0  0  0
 28 84  1  0  0  0  0
 29 63  2  0  0  0  0
 30 51  1  0  0  0  0
 30 64  2  0  0  0  0
 31 64  1  0  0  0  0
 31 71  1  0  0  0  0
 32 66  1  0  0  0  0
 32 69  1  0  0  0  0
 33 42  1  0  0  0  0
 33 59  1  0  0  0  0
 33 65  2  0  0  0  0
 34 70  1  0  0  0  0
 34 76  2  0  0  0  0
 35 52  1  0  0  0  0
 35 72  1  0  0  0  0
 35 77  2  0  0  0  0
 36 60  1  0  0  0  0
 36 67  1  0  0  0  0
 36 78  2  0  0  0  0
 37 61  1  0  0  0  0
 37 73  1  0  0  0  0
 37 79  2  0  0  0  0
 38 68  1  0  0  0  0
 38 71  1  0  0  0  0
 38 80  2  0  0  0  0
 39 43  1  0  0  0  0
 40 52  1  0  0  0  0
 41 67  1  0  0  0  0
 42 74  1  0  0  0  0
 43 45  1  0  0  0  0
 44 46  1  0  0  0  0
 44 48  1  0  0  0  0
 45 50  1  0  0  0  0
 46 53  1  0  0  0  0
 47 51  1  0  0  0  0
 47 65  1  0  0  0  0
 48 68  1  0  0  0  0
 49 53  1  0  0  0  0
 49 68  1  0  0  0  0
 50 72  1  0  0  0  0
 51 74  1  0  0  0  0
 52 67  1  0  0  0  0
 53 66  1  0  0  0  0
 54 61  1  0  0  0  0
 55 62  1  0  0  0  0
 56 62  1  0  0  0  0
 57 62  1  0  0  0  0
 58 75  1  0  0  0  0
 59 82  1  0  0  0  0
 60 62  1  0  0  0  0
 60 73  1  0  0  0  0
 61 75  1  0  0  0  0
 63 66  1  0  0  0  0
M  CHG  2  74   1  75   1
M  ISO  4  38 100  59 101  71 100  82 101
M  END
> <Batch ID>
0165

> <Smiles>
CNC(C)C(=O)NC(C(=O)N1Cc2cc([101O:1][101CH2:1]C3=NCC(c4cccc([100NH:0][100C:0](=O)N5CCCC(n6nc(-c7ccc(Oc8ccc(F)cc8F)cc7)c(C(N)=O)c6N)C5)n4)NC3)ccc2CC1C(=O)NC1CCCc2ccccc21)C(C)(C)C

> <Shape>
0.222

> <Color>
0.098

> <Negative vol penalty>
0.000

$$$$

  -OEChem-04052304053D

 86 94  0     1  0  0  0  0  0999 V2000
  -25.5851  -35.0020   23.7071 C   0  0  0  0  0  0  0  0  0  0  0  0
  -26.1930  -33.7750   23.4616 C   0  0  0  0  0  0  0  0  0  0  0  0
  -21.6651  -11.4009   22.1588 C   0  0  0  0  0  0  0  0  0  0  0  0
  -23.5717  -11.4133   20.6750 C   0  0  0  0  0  0  0  0  0  0  0  0
  -24.2382  -35.0524   24.0637 C   0  0  0  0  0  0  0  0  0  0  0  0
  -25.4546  -32.5975   23.5737 C   0  0  0  0  0  0  0  0  0  0  0  0
  -26.2809  -29.4123   19.7244 C   0  0  0  0  0  0  0  0  0  0  0  0
  -21.5206  -10.0277   21.9618 C   0  0  0  0  0  0  0  0  0  0  0  0
  -23.4272  -10.0400   20.4779 C   0  0  0  0  0  0  0  0  0  0  0  0
  -27.4592  -28.6678   19.7558 C   0  0  0  0  0  0  0  0  0  0  0  0
  -22.9735   -7.1849   23.0755 C   0  0  0  0  0  0  0  0  0  0  0  0
  -22.7480   -6.3890   24.1986 C   0  0  0  0  0  0  0  0  0  0  0  0
  -26.2278  -26.7648   20.5814 C   0  0  0  0  0  0  0  0  0  0  0  0
  -26.8608  -22.2924   18.4127 C   0  0  0  0  0  0  0  0  0  0  0  0
  -20.6462   -5.6574   23.2581 C   0  0  0  0  0  0  0  0  0  0  0  0
  -22.6906  -12.0938   21.5154 C   0  0  0  0  0  0  0  0  0  0  0  0
  -23.6074  -14.1534   22.7092 C   0  0  0  0  0  0  0  0  0  0  0  0
  -23.4804  -33.8756   24.1708 C   0  0  0  0  0  0  0  0  0  0  0  0
  -25.0669  -28.8410   20.1323 C   0  0  0  0  0  0  0  0  0  0  0  0
  -24.0966  -32.6321   23.9333 C   0  0  0  0  0  0  0  0  0  0  0  0
  -25.0350  -27.5034   20.5518 C   0  0  0  0  0  0  0  0  0  0  0  0
  -25.5742  -21.6826   18.3595 C   0  0  0  0  0  0  0  0  0  0  0  0
  -22.4016   -9.3472   21.1213 C   0  0  0  0  0  0  0  0  0  0  0  0
  -27.4333  -27.3447   20.1871 C   0  0  0  0  0  0  0  0  0  0  0  0
  -22.0354   -7.2171   22.0437 C   0  0  0  0  0  0  0  0  0  0  0  0
  -21.5844   -5.6252   24.2899 C   0  0  0  0  0  0  0  0  0  0  0  0
  -20.8718   -6.4533   22.1350 C   0  0  0  0  0  0  0  0  0  0  0  0
  -22.8401  -13.5124   21.7181 C   0  0  0  0  0  0  0  0  0  0  0  0
  -27.6340  -21.7812   19.4318 C   0  0  0  0  0  0  0  0  0  0  0  0
  -23.4186  -15.4937   22.4763 C   0  0  0  0  0  0  0  0  0  0  0  0
  -25.4130  -20.7282   19.3398 C   0  0  0  0  0  0  0  0  0  0  0  0
  -24.4185  -13.5877   23.7474 C   0  0  0  0  0  0  0  0  0  0  0  0
  -29.0243  -22.1445   19.8216 C   0  0  0  0  0  0  0  0  0  0  0  0
  -29.7413  -23.2085   19.0368 C   0  0  0  0  0  0  0  0  0  0  0  0
  -29.7109  -24.6819   19.3552 C   0  0  0  0  0  0  0  0  0  0  0  0
  -22.9642  -29.4490   22.4372 C   0  0  0  0  0  0  0  0  0  0  0  0
  -21.2489  -27.1336   20.9476 C   0  0  0  0  0  0  0  0  0  0  0  0
  -21.2367  -24.3859   18.9236 C   0  0  0  0  0  0  0  0  0  0  0  0
  -23.0816  -19.8344   19.0051 C   0  0  0  0  0  0  0  0  0  0  0  0
  -22.0397  -33.9769   24.6052 C   0  0  0  0  0  0  0  0  0  0  0  0
  -23.8001  -29.6493   20.0672 C   0  0  0  0  0  0  0  0  0  0  0  0
  -23.7542  -26.8372   20.9808 C   0  0  0  0  0  0  0  0  0  0  0  0
  -21.2320  -32.7097   24.3369 C   0  0  0  0  0  0  0  0  0  0  0  0
  -20.1382  -17.8810   19.4494 C   0  0  0  0  0  0  0  0  0  0  0  0
  -22.0057  -31.4769   24.7933 C   0  0  0  0  0  0  0  0  0  0  0  0
  -20.6418  -16.6231   20.1608 C   0  0  0  0  0  0  0  0  0  0  0  0
  -21.1447  -18.3918   18.4200 C   0  0  0  0  0  0  0  0  0  0  0  0
  -23.0083  -17.3440   19.6441 C   0  0  0  0  0  0  0  0  0  0  0  0
  -23.3225  -31.3346   24.0205 C   0  0  1  0  0  0  0  0  0  0  0  0
  -22.7075  -29.1235   20.9930 C   0  0  1  0  0  0  0  0  0  0  0  0
  -22.0566  -16.8294   20.7364 C   0  0  2  0  0  0  0  0  0  0  0  0
  -24.4210  -21.0090   16.2375 C   0  0  0  0  0  0  0  0  0  0  0  0
  -19.6875  -22.6876   17.9169 C   0  0  0  0  0  0  0  0  0  0  0  0
  -21.0472  -25.7221   23.6452 C   0  0  0  0  0  0  0  0  0  0  0  0
  -20.3538  -23.6466   22.4289 C   0  0  0  0  0  0  0  0  0  0  0  0
  -18.9418  -25.6987   22.2956 C   0  0  0  0  0  0  0  0  0  0  0  0
  -30.9643  -21.9273   21.1731 C   0  0  0  0  0  0  0  0  0  0  0  0
  -21.9539  -25.1940   16.1683 C   0  0  0  0  0  0  0  0  0  0  0  0
  -24.5391  -22.0414   17.3602 C   0  0  0  0  0  0  0  0  0  0  0  0
  -28.4642  -25.2083   20.0172 C   0  0  0  0  0  0  0  0  0  1  0  0
  -21.1505  -25.6319   21.0670 C   0  0  1  0  0  0  0  0  0  0  0  0
  -20.3844  -24.0249   17.7203 C   0  0  2  0  0  0  0  0  0  0  0  0
  -20.3979  -25.1877   22.3530 C   0  0  0  0  0  0  0  0  0  0  0  0
  -22.2105  -14.3747   20.9155 N   0  0  0  0  0  0  0  0  0  0  0  0
  -30.4316  -22.8015   18.0215 N   0  0  0  0  0  0  0  0  0  0  0  0
  -29.6031  -21.5592   20.8144 N   0  0  0  0  0  0  0  0  0  0  0  0
  -22.5819  -15.5712   21.4020 N   0  0  0  0  0  0  0  0  0  0  0  0
  -22.5431  -27.6710   20.9053 N   0  0  0  0  0  0  0  0  0  0  0  0
  -22.4609  -18.5678   19.0378 N   0  0  0  0  0  0  0  0  0  0  0  0
  -23.8882  -16.6019   23.0877 N   0  0  0  0  0  0  0  0  0  0  0  0
  -24.5021  -12.1921   23.8443 N   0  0  0  0  0  0  0  0  0  0  0  0
  -24.3153  -19.8887   19.6529 N   0  0  0  0  0  0  0  0  0  0  0  0
  -23.0772  -30.8013   22.6977 N   0  0  0  0  0  0  0  0  0  0  0  0
  -20.5423  -25.1627   19.8267 N   0  0  0  0  0  0  0  0  0  0  0  0
  -21.2281  -23.9395   16.4948 N   0  3  0  0  0  0  0  0  0  0  0  0
  -25.0373  -14.2988   24.5750 O   0  0  0  0  0  0  0  0  0  0  0  0
  -30.6881  -25.3567   19.0652 O   0  0  0  0  0  0  0  0  0  0  0  0
  -23.0517  -28.5405   23.2550 O   0  0  0  0  0  0  0  0  0  0  0  0
  -20.2155  -27.8044   20.8867 O   0  0  0  0  0  0  0  0  0  0  0  0
  -22.4007  -24.0126   19.0514 O   0  0  0  0  0  0  0  0  0  0  0  0
  -22.5450  -20.8064   18.4674 O   0  0  0  0  0  0  0  0  0  0  0  0
  -22.2611   -8.0071   20.9290 O   0  0  0  0  0  0  0  0  0  0  0  0
  -28.5821  -26.6160   20.2193 O   0  0  0  0  0  0  0  0  0  1  0  0
  -21.3687   -4.8598   25.3677 F   0  0  0  0  0  0  0  0  0  0  0  0
  -19.9674   -6.4792   21.1464 F   0  0  0  0  0  0  0  0  0  0  0  0
  -26.8091  -20.5708   20.3189 S   0  0  0  0  0  0  0  0  0  0  0  0
  1  2  1  0  0  0  0
  1  5  2  0  0  0  0
  2  6  2  0  0  0  0
  3  8  2  0  0  0  0
  3 16  1  0  0  0  0
  4  9  1  0  0  0  0
  4 16  2  0  0  0  0
  5 18  1  0  0  0  0
  6 20  1  0  0  0  0
  7 10  2  0  0  0  0
  7 19  1  0  0  0  0
  8 23  1  0  0  0  0
  9 23  2  0  0  0  0
 10 24  1  0  0  0  0
 11 12  2  0  0  0  0
 11 25  1  0  0  0  0
 12 26  1  0  0  0  0
 13 21  1  0  0  0  0
 13 24  2  0  0  0  0
 14 22  1  0  0  0  0
 14 29  2  0  0  0  0
 15 26  2  0  0  0  0
 15 27  1  0  0  0  0
 16 28  1  0  0  0  0
 17 28  1  0  0  0  0
 17 30  2  0  0  0  0
 17 32  1  0  0  0  0
 18 20  2  0  0  0  0
 18 40  1  0  0  0  0
 19 21  2  0  0  0  0
 19 41  1  0  0  0  0
 20 49  1  0  0  0  0
 21 42  1  0  0  0  0
 22 31  2  0  0  0  0
 22 59  1  0  0  0  0
 23 82  1  0  0  0  0
 24 83  1  0  0  0  0
 25 27  2  0  0  0  0
 25 82  1  0  0  0  0
 26 84  1  0  0  0  0
 27 85  1  0  0  0  0
 28 64  2  0  0  0  0
 29 33  1  0  0  0  0
 29 86  1  0  0  0  0
 30 67  1  0  0  0  0
 30 70  1  0  0  0  0
 31 72  1  0  0  0  0
 31 86  1  0  0  0  0
 32 71  1  0  0  0  0
 32 76  2  0  0  0  0
 33 34  1  0  0  0  0
 33 66  2  0  0  0  0
 34 35  1  0  0  0  0
 34 65  2  0  0  0  0
 35 60  1  0  0  0  0
 35 77  2  0  0  0  0
 36 50  1  0  0  0  0
 36 73  1  0  0  0  0
 36 78  2  0  0  0  0
 37 61  1  0  0  0  0
 37 68  1  0  0  0  0
 37 79  2  0  0  0  0
 38 62  1  0  0  0  0
 38 74  1  0  0  0  0
 38 80  2  0  0  0  0
 39 69  1  0  0  0  0
 39 72  1  0  0  0  0
 39 81  2  0  0  0  0
 40 43  1  0  0  0  0
 41 50  1  0  0  0  0
 42 68  1  0  0  0  0
 43 45  1  0  0  0  0
 44 46  1  0  0  0  0
 44 47  1  0  0  0  0
 45 49  1  0  0  0  0
 46 51  1  0  0  0  0
 47 69  1  0  0  0  0
 48 51  1  0  0  0  0
 48 69  1  0  0  0  0
 49 73  1  0  0  0  0
 50 68  1  0  0  0  0
 51 67  1  0  0  0  0
 52 59  1  0  0  0  0
 53 62  1  0  0  0  0
 54 63  1  0  0  0  0
 55 63  1  0  0  0  0
 56 63  1  0  0  0  0
 57 66  1  0  0  0  0
 58 75  1  0  0  0  0
 60 83  1  0  0  0  0
 61 63  1  0  0  0  0
 61 74  1  0  0  0  0
 62 75  1  0  0  0  0
 64 67  1  0  0  0  0
M  CHG  1  75   1
M  ISO  4  39 100  60 101  72 100  83 101
M  END
> <Batch ID>
0165

> <Smiles>
CCc1cc(C(=NC)C(=N)C(=O)[101CH2:1][101O:1]c2ccc3c(c2)CN(C(=O)C(NC(=O)C(C)NC)C(C)(C)C)C(C(=O)NC2CCCc4ccccc42)C3)sc1[100NH:0][100C:0](=O)N1CCCC(n2nc(-c3ccc(Oc4ccc(F)cc4F)cc3)c(C(N)=O)c2N)C1

> <Shape>
0.250

> <Color>
0.092

> <Negative vol penalty>
0.000

$$$$

  -OEChem-04052304053D

 87 95  0     1  0  0  0  0  0999 V2000
  -20.1941   -8.9008   19.1491 C   0  0  0  0  0  0  0  0  0  0  0  0
  -19.8728  -10.1622   19.6402 C   0  0  0  0  0  0  0  0  0  0  0  0
  -27.9376  -25.9043   21.6366 C   0  0  0  0  0  0  0  0  0  0  0  0
  -29.5856  -27.6710   21.6326 C   0  0  0  0  0  0  0  0  0  0  0  0
  -21.4110   -8.3110   19.4885 C   0  0  0  0  0  0  0  0  0  0  0  0
  -20.7679  -10.8340   20.4720 C   0  0  0  0  0  0  0  0  0  0  0  0
  -21.7508  -16.8743   20.7070 C   0  0  0  0  0  0  0  0  0  0  0  0
  -28.7243  -25.1684   20.7506 C   0  0  0  0  0  0  0  0  0  0  0  0
  -30.3724  -26.9351   20.7466 C   0  0  0  0  0  0  0  0  0  0  0  0
  -21.2793  -17.8687   21.5629 C   0  0  0  0  0  0  0  0  0  0  0  0
  -29.3907  -25.1500   17.4370 C   0  0  0  0  0  0  0  0  0  0  0  0
  -28.7535  -24.5482   16.3519 C   0  0  0  0  0  0  0  0  0  0  0  0
  -23.2873  -17.6741   22.8855 C   0  0  0  0  0  0  0  0  0  0  0  0
  -19.0104  -25.4091   22.3422 C   0  0  0  0  0  0  0  0  0  0  0  0
  -29.4915  -22.3800   17.1211 C   0  0  0  0  0  0  0  0  0  0  0  0
  -28.3682  -27.1557   22.0776 C   0  0  0  0  0  0  0  0  0  0  0  0
  -27.5980  -27.8805   24.3990 C   0  0  0  0  0  0  0  0  0  0  0  0
  -22.3256   -8.9801   20.3171 C   0  0  0  0  0  0  0  0  0  0  0  0
  -22.9914  -16.2636   20.9406 C   0  0  0  0  0  0  0  0  0  0  0  0
  -21.9976  -10.2521   20.8239 C   0  0  0  0  0  0  0  0  0  0  0  0
  -23.7735  -16.6740   22.0297 C   0  0  0  0  0  0  0  0  0  0  0  0
  -18.7848  -26.7946   22.0979 C   0  0  0  0  0  0  0  0  0  0  0  0
  -29.9417  -25.6837   20.3056 C   0  0  0  0  0  0  0  0  0  0  0  0
  -22.0462  -18.2668   22.6540 C   0  0  0  0  0  0  0  0  0  0  0  0
  -30.0784  -24.3669   18.3641 C   0  0  0  0  0  0  0  0  0  0  0  0
  -28.8039  -23.1632   16.1940 C   0  0  0  0  0  0  0  0  0  0  0  0
  -30.1287  -22.9819   18.2062 C   0  0  0  0  0  0  0  0  0  0  0  0
  -27.5556  -27.9166   22.9924 C   0  0  0  0  0  0  0  0  0  0  0  0
  -19.8310  -27.5748   22.5386 C   0  0  0  0  0  0  0  0  0  0  0  0
  -26.6373  -28.7788   24.7947 C   0  0  0  0  0  0  0  0  0  0  0  0
  -20.2207  -25.1831   22.9604 C   0  0  0  0  0  0  0  0  0  0  0  0
  -28.4314  -27.1044   25.2702 C   0  0  0  0  0  0  0  0  0  0  0  0
  -19.9939  -29.0501   22.4769 C   0  0  0  0  0  0  0  0  0  0  0  0
  -23.9486  -13.2992   21.5730 C   0  0  0  0  0  0  0  0  0  0  0  0
  -20.9075  -21.5577   23.6435 C   0  0  0  0  0  0  0  0  0  0  0  0
  -26.9027  -14.6068   21.2792 C   0  0  0  0  0  0  0  0  0  0  0  0
  -28.8624  -17.3974   21.4157 C   0  0  0  0  0  0  0  0  0  0  0  0
  -21.6759  -30.8524   22.2615 C   0  0  0  0  0  0  0  0  0  0  0  0
  -23.6082   -8.2822   20.6947 C   0  0  0  0  0  0  0  0  0  0  0  0
  -23.4978  -15.2112   19.9928 C   0  0  0  0  0  0  0  0  0  0  0  0
  -25.1212  -16.0641   22.3127 C   0  0  0  0  0  0  0  0  0  0  0  0
  -24.6626   -9.2194   21.2780 C   0  0  0  0  0  0  0  0  0  0  0  0
  -24.4302  -32.7817   23.3515 C   0  0  0  0  0  0  0  0  0  0  0  0
  -24.0406  -10.1360   22.3267 C   0  0  0  0  0  0  0  0  0  0  0  0
  -25.5471  -31.7493   23.5276 C   0  0  0  0  0  0  0  0  0  0  0  0
  -23.5528  -32.4674   22.1406 C   0  0  0  0  0  0  0  0  0  0  0  0
  -24.1247  -30.0773   22.2766 C   0  0  0  0  0  0  0  0  0  0  0  0
  -22.9530  -11.0230   21.7087 C   0  0  1  0  0  0  0  0  0  0  0  0
  -24.5450  -14.2962   20.6201 C   0  0  1  0  0  0  0  0  0  0  0  0
  -24.9932  -30.3104   23.5234 C   0  0  1  0  0  0  0  0  0  0  0  0
  -31.2447  -18.1456   21.1665 C   0  0  0  0  0  0  0  0  0  0  0  0
  -27.5506  -13.4513   24.0279 C   0  0  0  0  0  0  0  0  0  0  0  0
  -29.5228  -14.9901   24.1328 C   0  0  0  0  0  0  0  0  0  0  0  0
  -29.3945  -13.2496   22.3504 C   0  0  0  0  0  0  0  0  0  0  0  0
  -28.1870  -19.1820   19.1534 C   0  0  0  0  0  0  0  0  0  0  0  0
  -20.0603  -22.6983   23.1207 C   0  0  0  0  0  0  0  0  0  0  0  0
  -20.7355  -20.2323   22.9270 C   0  0  0  0  0  0  0  0  0  1  0  0
  -27.8777  -15.2683   22.2230 C   0  0  1  0  0  0  0  0  0  0  0  0
  -29.9128  -17.9382   20.4625 C   0  0  2  0  0  0  0  0  0  0  0  0
  -17.5611  -27.3199   21.4454 C   0  0  0  0  0  0  0  0  0  0  0  0
  -28.5602  -14.2501   23.1795 C   0  0  0  0  0  0  0  0  0  0  0  0
  -26.6403  -28.7701   22.5258 N   0  0  0  0  0  0  0  0  0  0  0  0
  -26.0985  -29.2786   23.6457 N   0  0  0  0  0  0  0  0  0  0  0  0
  -25.5699  -15.0345   21.3607 N   0  0  0  0  0  0  0  0  0  0  0  0
  -23.0606  -31.0908   22.2170 N   0  0  0  0  0  0  0  0  0  0  0  0
  -26.2091  -29.1819   26.0098 N   0  0  0  0  0  0  0  0  0  0  0  0
  -29.3657  -26.2306   24.6976 N   0  0  0  0  0  0  0  0  0  0  0  0
  -20.7384  -23.9512   23.3341 N   0  0  0  0  0  0  0  0  0  0  0  0
  -21.3083  -29.5071   22.3769 N   0  0  0  0  0  0  0  0  0  0  0  0
  -23.5503  -12.1186   20.9756 N   0  0  0  0  0  0  0  0  0  0  0  0
  -28.8082  -16.0199   21.3878 N   0  0  0  0  0  0  0  0  0  0  0  0
  -29.4733  -19.2439   19.8941 N   0  3  0  0  0  0  0  0  0  0  0  0
  -28.3387  -27.1714   26.5193 O   0  0  0  0  0  0  0  0  0  0  0  0
  -18.9939  -29.7627   22.4770 O   0  0  0  0  0  0  0  0  0  0  0  0
  -23.8580  -13.5798   22.7625 O   0  0  0  0  0  0  0  0  0  0  0  0
  -21.6870  -21.6859   24.5867 O   0  0  0  0  0  0  0  0  0  0  0  0
  -27.3099  -13.7474   20.4935 O   0  0  0  0  0  0  0  0  0  0  0  0
  -28.1628  -18.1240   22.1179 O   0  0  0  0  0  0  0  0  0  0  0  0
  -20.8396  -31.7609   22.2391 O   0  0  0  0  0  0  0  0  0  0  0  0
  -30.7098  -24.9658   19.4412 O   0  0  0  0  0  0  0  0  0  0  0  0
  -21.5881  -19.2367   23.4913 O   0  0  0  0  0  0  0  0  0  1  0  0
  -28.1906  -22.5853   15.1528 F   0  0  0  0  0  0  0  0  0  0  0  0
  -30.7868  -22.2242   19.0942 F   0  0  0  0  0  0  0  0  0  0  0  0
  -16.6586  -26.3515   21.0947 F   0  0  0  0  0  0  0  0  0  0  0  0
  -16.8494  -28.1943   22.2224 F   0  0  0  0  0  0  0  0  0  0  0  0
  -17.8239  -28.0008   20.2881 F   0  0  0  0  0  0  0  0  0  0  0  0
  -21.0788  -26.6376   23.2437 S   0  0  0  0  0  0  0  0  0  0  0  0
  1  2  1  0  0  0  0
  1  5  2  0  0  0  0
  2  6  2  0  0  0  0
  3  8  2  0  0  0  0
  3 16  1  0  0  0  0
  4  9  1  0  0  0  0
  4 16  2  0  0  0  0
  5 18  1  0  0  0  0
  6 20  1  0  0  0  0
  7 10  2  0  0  0  0
  7 19  1  0  0  0  0
  8 23  1  0  0  0  0
  9 23  2  0  0  0  0
 10 24  1  0  0  0  0
 11 12  2  0  0  0  0
 11 25  1  0  0  0  0
 12 26  1  0  0  0  0
 13 21  1  0  0  0  0
 13 24  2  0  0  0  0
 14 22  1  0  0  0  0
 14 31  2  0  0  0  0
 15 26  2  0  0  0  0
 15 27  1  0  0  0  0
 16 28  1  0  0  0  0
 17 28  1  0  0  0  0
 17 30  2  0  0  0  0
 17 32  1  0  0  0  0
 18 20  2  0  0  0  0
 18 39  1  0  0  0  0
 19 21  2  0  0  0  0
 19 40  1  0  0  0  0
 20 48  1  0  0  0  0
 21 41  1  0  0  0  0
 22 29  2  0  0  0  0
 22 60  1  0  0  0  0
 23 80  1  0  0  0  0
 24 81  1  0  0  0  0
 25 27  2  0  0  0  0
 25 80  1  0  0  0  0
 26 82  1  0  0  0  0
 27 83  1  0  0  0  0
 28 62  2  0  0  0  0
 29 33  1  0  0  0  0
 29 87  1  0  0  0  0
 30 63  1  0  0  0  0
 30 66  1  0  0  0  0
 31 68  1  0  0  0  0
 31 87  1  0  0  0  0
 32 67  1  0  0  0  0
 32 73  2  0  0  0  0
 33 69  1  0  0  0  0
 33 74  2  0  0  0  0
 34 49  1  0  0  0  0
 34 70  1  0  0  0  0
 34 75  2  0  0  0  0
 35 56  1  0  0  0  0
 35 57  1  0  0  0  0
 35 76  2  0  0  0  0
 36 58  1  0  0  0  0
 36 64  1  0  0  0  0
 36 77  2  0  0  0  0
 37 59  1  0  0  0  0
 37 71  1  0  0  0  0
 37 78  2  0  0  0  0
 38 65  1  0  0  0  0
 38 69  1  0  0  0  0
 38 79  2  0  0  0  0
 39 42  1  0  0  0  0
 40 49  1  0  0  0  0
 41 64  1  0  0  0  0
 42 44  1  0  0  0  0
 43 45  1  0  0  0  0
 43 46  1  0  0  0  0
 44 48  1  0  0  0  0
 45 50  1  0  0  0  0
 46 65  1  0  0  0  0
 47 50  1  0  0  0  0
 47 65  1  0  0  0  0
 48 70  1  0  0  0  0
 49 64  1  0  0  0  0
 50 63  1  0  0  0  0
 51 59  1  0  0  0  0
 52 61  1  0  0  0  0
 53 61  1  0  0  0  0
 54 61  1  0  0  0  0
 55 72  1  0  0  0  0
 56 68  1  0  0  0  0
 57 81  1  0  0  0  0
 58 61  1  0  0  0  0
 58 71  1  0  0  0  0
 59 72  1  0  0  0  0
 60 84  1  0  0  0  0
 60 85  1  0  0  0  0
 60 86  1  0  0  0  0
 62 63  1  0  0  0  0
M  CHG  1  72   1
M  ISO  4  38 100  57 101  69 100  81 101
M  END
> <Batch ID>
0165

> <Smiles>
CNC(C)C(=O)NC(C(=O)N1Cc2cc([101O:1][101CH2:1]C(=O)CNc3cc(C(F)(F)F)c(C(=O)[100NH:0][100C:0](=O)N4CCCC(n5nc(-c6ccc(Oc7ccc(F)cc7F)cc6)c(C(N)=O)c5N)C4)s3)ccc2CC1C(=O)NC1CCCc2ccccc21)C(C)(C)C

> <Shape>
0.279

> <Color>
0.053

> <Negative vol penalty>
0.000

$$$$

  -OEChem-04052304053D

 84 92  0     1  0  0  0  0  0999 V2000
  -16.9425  -30.0985   24.7413 C   0  0  0  0  0  0  0  0  0  0  0  0
  -17.9797  -29.1734   24.8013 C   0  0  0  0  0  0  0  0  0  0  0  0
  -32.0519  -18.1390   23.4677 C   0  0  0  0  0  0  0  0  0  0  0  0
  -23.2803   -9.5916   19.9796 C   0  0  0  0  0  0  0  0  0  0  0  0
  -23.8237   -9.8805   22.3159 C   0  0  0  0  0  0  0  0  0  0  0  0
  -31.1417  -19.0233   24.0466 C   0  0  0  0  0  0  0  0  0  0  0  0
  -16.9287  -31.0644   23.7359 C   0  0  0  0  0  0  0  0  0  0  0  0
  -19.0033  -29.2129   23.8552 C   0  0  0  0  0  0  0  0  0  0  0  0
  -24.9103  -27.8759   24.7639 C   0  0  0  0  0  0  0  0  0  0  0  0
  -31.5998  -17.1315   22.6154 C   0  0  0  0  0  0  0  0  0  0  0  0
  -22.5817   -8.4239   20.2865 C   0  0  0  0  0  0  0  0  0  0  0  0
  -23.1251   -8.7129   22.6228 C   0  0  0  0  0  0  0  0  0  0  0  0
  -25.6610  -26.7276   24.5156 C   0  0  0  0  0  0  0  0  0  0  0  0
  -19.9044   -7.7725   23.0273 C   0  0  0  0  0  0  0  0  0  0  0  0
  -19.0460   -7.8025   24.1263 C   0  0  0  0  0  0  0  0  0  0  0  0
  -29.3273  -17.8926   22.9212 C   0  0  0  0  0  0  0  0  0  0  0  0
  -26.3840  -27.6624   22.4126 C   0  0  0  0  0  0  0  0  0  0  0  0
  -20.3199   -6.0345   25.1696 C   0  0  0  0  0  0  0  0  0  0  0  0
  -23.9013  -10.3199   20.9943 C   0  0  0  0  0  0  0  0  0  0  0  0
  -29.7794  -18.9002   23.7733 C   0  0  0  0  0  0  0  0  0  0  0  0
  -24.1119  -12.8366   20.6349 C   0  0  0  0  0  0  0  0  0  0  0  0
  -17.9576  -31.1219   22.7828 C   0  0  0  0  0  0  0  0  0  0  0  0
  -24.8820  -28.9232   23.8318 C   0  0  0  0  0  0  0  0  0  0  0  0
  -19.0026  -30.1796   22.8353 C   0  0  0  0  0  0  0  0  0  0  0  0
  -25.6341  -28.8239   22.6526 C   0  0  0  0  0  0  0  0  0  0  0  0
  -30.2375  -17.0083   22.3422 C   0  0  0  0  0  0  0  0  0  0  0  0
  -22.5041   -7.9845   21.6081 C   0  0  0  0  0  0  0  0  0  0  0  0
  -26.3957  -26.6195   23.3385 C   0  0  0  0  0  0  0  0  0  0  0  0
  -20.9705   -6.8734   22.9994 C   0  0  0  0  0  0  0  0  0  0  0  0
  -19.2538   -6.9336   25.1975 C   0  0  0  0  0  0  0  0  0  0  0  0
  -21.1783   -6.0044   24.0706 C   0  0  0  0  0  0  0  0  0  0  0  0
  -24.6235  -11.5258   20.6779 C   0  0  0  0  0  0  0  0  0  0  0  0
  -25.1896  -13.6147   20.2889 C   0  0  0  0  0  0  0  0  0  0  0  0
  -28.8151  -19.8363   24.3853 C   0  0  0  0  0  0  0  0  0  0  0  0
  -22.7815  -13.3087   20.8855 C   0  0  0  0  0  0  0  0  0  0  0  0
  -22.6180  -30.3099   22.0839 C   0  0  0  0  0  0  0  0  0  0  0  0
  -27.9795  -23.3083   23.6803 C   0  0  0  0  0  0  0  0  0  0  0  0
  -25.0168  -32.3476   21.2995 C   0  0  0  0  0  0  0  0  0  0  0  0
  -28.3720  -32.8931   20.9965 C   0  0  0  0  0  0  0  0  0  0  0  0
  -30.5497  -15.0252   20.8203 C   0  0  0  0  0  0  0  0  0  0  0  0
  -17.8748  -32.1544   21.6865 C   0  0  0  0  0  0  0  0  0  0  0  0
  -24.0884  -30.1664   24.1268 C   0  0  0  0  0  0  0  0  0  0  0  0
  -25.6535  -29.9286   21.6290 C   0  0  0  0  0  0  0  0  0  0  0  0
  -19.1931  -32.3631   20.9456 C   0  0  0  0  0  0  0  0  0  0  0  0
  -29.7945  -12.3163   18.6366 C   0  0  0  0  0  0  0  0  0  0  0  0
  -19.8204  -31.0206   20.5837 C   0  0  0  0  0  0  0  0  0  0  0  0
  -28.3398  -11.9770   18.9694 C   0  0  0  0  0  0  0  0  0  0  0  0
  -30.5807  -12.7248   19.8811 C   0  0  0  0  0  0  0  0  0  0  0  0
  -28.5171  -13.4604   21.0079 C   0  0  0  0  0  0  0  0  0  0  0  0
  -20.1438  -30.2058   21.8419 C   0  0  1  0  0  0  0  0  0  0  0  0
  -23.7232  -30.9539   22.8722 C   0  0  1  0  0  0  0  0  0  0  0  0
  -27.6682  -13.1057   19.7760 C   0  0  2  0  0  0  0  0  0  0  0  0
  -30.0278  -34.6435   20.2950 C   0  0  0  0  0  0  0  0  0  0  0  0
  -24.3742  -31.7786   18.3715 C   0  0  0  0  0  0  0  0  0  0  0  0
  -26.5957  -32.7612   17.7652 C   0  0  0  0  0  0  0  0  0  0  0  0
  -24.8717  -34.1754   18.8836 C   0  0  0  0  0  0  0  0  0  0  0  0
  -29.5993  -32.9768   23.6883 C   0  0  0  0  0  0  0  0  0  0  0  0
  -28.0410  -22.1650   24.6590 C   0  0  0  0  0  0  0  0  0  0  0  0
  -27.0999  -24.4742   24.0855 C   0  0  0  0  0  0  0  0  0  1  0  0
  -26.0698  -32.3938   20.2187 C   0  0  1  0  0  0  0  0  0  0  0  0
  -29.2513  -34.0421   21.4561 C   0  0  2  0  0  0  0  0  0  0  0  0
  -25.4762  -32.7555   18.8280 C   0  0  0  0  0  0  0  0  0  0  0  0
  -25.9249  -11.4704   20.3826 N   0  0  0  0  0  0  0  0  0  0  0  0
  -26.2402  -12.7560   20.1507 N   0  0  0  0  0  0  0  0  0  0  0  0
  -24.8565  -31.1214   21.9602 N   0  0  0  0  0  0  0  0  0  0  0  0
  -29.8867  -13.8009   20.5919 N   0  0  0  0  0  0  0  0  0  0  0  0
  -25.3315  -14.9427   20.0924 N   0  0  0  0  0  0  0  0  0  0  0  0
  -21.7948  -12.3747   21.2297 N   0  0  0  0  0  0  0  0  0  0  0  0
  -29.7791  -15.9846   21.4764 N   0  0  0  0  0  0  0  0  0  0  0  0
  -28.9378  -21.1511   24.1303 N   0  0  0  0  0  0  0  0  0  0  0  0
  -21.3501  -30.7018   22.4690 N   0  0  0  0  0  0  0  0  0  0  0  0
  -27.0967  -33.3175   20.6885 N   0  0  0  0  0  0  0  0  0  0  0  0
  -27.8622  -19.3328   25.1699 N   0  3  0  0  0  0  0  0  0  0  0  0
  -30.2265  -33.5708   22.4796 N   0  3  0  0  0  0  0  0  0  0  0  0
  -22.4729  -14.5209   20.7905 O   0  0  0  0  0  0  0  0  0  0  0  0
  -22.8950  -29.5173   21.1913 O   0  0  0  0  0  0  0  0  0  0  0  0
  -28.6001  -23.3035   22.6181 O   0  0  0  0  0  0  0  0  0  0  0  0
  -24.3656  -33.3641   21.5532 O   0  0  0  0  0  0  0  0  0  0  0  0
  -28.7772  -31.7357   20.9149 O   0  0  0  0  0  0  0  0  0  0  0  0
  -31.7060  -15.2186   20.4362 O   0  0  0  0  0  0  0  0  0  0  0  0
  -21.8224   -6.8453   21.9079 O   0  0  0  0  0  0  0  0  0  0  0  0
  -27.1289  -25.4996   23.0934 O   0  0  0  0  0  0  0  0  0  1  0  0
  -18.4303   -6.9636   26.2535 F   0  0  0  0  0  0  0  0  0  0  0  0
  -22.2015   -5.1393   24.0500 F   0  0  0  0  0  0  0  0  0  0  0  0
  1  2  1  0  0  0  0
  1  7  2  0  0  0  0
  2  8  2  0  0  0  0
  3  6  2  0  0  0  0
  3 10  1  0  0  0  0
  4 11  2  0  0  0  0
  4 19  1  0  0  0  0
  5 12  1  0  0  0  0
  5 19  2  0  0  0  0
  6 20  1  0  0  0  0
  7 22  1  0  0  0  0
  8 24  1  0  0  0  0
  9 13  2  0  0  0  0
  9 23  1  0  0  0  0
 10 26  2  0  0  0  0
 11 27  1  0  0  0  0
 12 27  2  0  0  0  0
 13 28  1  0  0  0  0
 14 15  2  0  0  0  0
 14 29  1  0  0  0  0
 15 30  1  0  0  0  0
 16 20  2  0  0  0  0
 16 26  1  0  0  0  0
 17 25  1  0  0  0  0
 17 28  2  0  0  0  0
 18 30  2  0  0  0  0
 18 31  1  0  0  0  0
 19 32  1  0  0  0  0
 20 34  1  0  0  0  0
 21 32  1  0  0  0  0
 21 33  2  0  0  0  0
 21 35  1  0  0  0  0
 22 24  2  0  0  0  0
 22 41  1  0  0  0  0
 23 25  2  0  0  0  0
 23 42  1  0  0  0  0
 24 50  1  0  0  0  0
 25 43  1  0  0  0  0
 26 69  1  0  0  0  0
 27 81  1  0  0  0  0
 28 82  1  0  0  0  0
 29 31  2  0  0  0  0
 29 81  1  0  0  0  0
 30 83  1  0  0  0  0
 31 84  1  0  0  0  0
 32 63  2  0  0  0  0
 33 64  1  0  0  0  0
 33 67  1  0  0  0  0
 34 70  1  0  0  0  0
 34 73  2  0  0  0  0
 35 68  1  0  0  0  0
 35 75  2  0  0  0  0
 36 51  1  0  0  0  0
 36 71  1  0  0  0  0
 36 76  2  0  0  0  0
 37 58  1  0  0  0  0
 37 59  1  0  0  0  0
 37 77  2  0  0  0  0
 38 60  1  0  0  0  0
 38 65  1  0  0  0  0
 38 78  2  0  0  0  0
 39 61  1  0  0  0  0
 39 72  1  0  0  0  0
 39 79  2  0  0  0  0
 40 66  1  0  0  0  0
 40 69  1  0  0  0  0
 40 80  2  0  0  0  0
 41 44  1  0  0  0  0
 42 51  1  0  0  0  0
 43 65  1  0  0  0  0
 44 46  1  0  0  0  0
 45 47  1  0  0  0  0
 45 48  1  0  0  0  0
 46 50  1  0  0  0  0
 47 52  1  0  0  0  0
 48 66  1  0  0  0  0
 49 52  1  0  0  0  0
 49 66  1  0  0  0  0
 50 71  1  0  0  0  0
 51 65  1  0  0  0  0
 52 64  1  0  0  0  0
 53 61  1  0  0  0  0
 54 62  1  0  0  0  0
 55 62  1  0  0  0  0
 56 62  1  0  0  0  0
 57 74  1  0  0  0  0
 58 70  1  0  0  0  0
 59 82  1  0  0  0  0
 60 62  1  0  0  0  0
 60 72  1  0  0  0  0
 61 74  1  0  0  0  0
 63 64  1  0  0  0  0
M  CHG  2  73   1  74   1
M  ISO  4  40 100  59 101  69 100  82 101
M  END
> <Batch ID>
0165

> <Smiles>
CNC(C)C(=O)NC(C(=O)N1Cc2cc([101O:1][101CH2:1]C(=O)CNC(=N)c3cccc([100NH:0][100C:0](=O)N4CCCC(n5nc(-c6ccc(Oc7ccc(F)cc7F)cc6)c(C(N)=O)c5N)C4)c3)ccc2CC1C(=O)NC1CCCc2ccccc21)C(C)(C)C

> <Shape>
0.261

> <Color>
0.183

> <Negative vol penalty>
0.000

$$$$

  -OEChem-04052304053D

 86 94  0     1  0  0  0  0  0999 V2000
  -32.6408  -31.4833   22.2087 C   0  0  0  0  0  0  0  0  0  0  0  0
  -31.8057  -30.4347   21.8363 C   0  0  0  0  0  0  0  0  0  0  0  0
  -24.6496   -7.7561   20.3128 C   0  0  0  0  0  0  0  0  0  0  0  0
  -23.0349   -9.5079   19.9114 C   0  0  0  0  0  0  0  0  0  0  0  0
  -28.1625  -19.4101   15.9354 C   0  0  0  0  0  0  0  0  0  0  0  0
  -32.2530  -32.3540   23.2263 C   0  0  0  0  0  0  0  0  0  0  0  0
  -30.5829  -30.2556   22.4819 C   0  0  0  0  0  0  0  0  0  0  0  0
  -26.8004  -29.3079   19.2508 C   0  0  0  0  0  0  0  0  0  0  0  0
  -23.6430   -6.9500   20.8443 C   0  0  0  0  0  0  0  0  0  0  0  0
  -22.0282   -8.7018   20.4428 C   0  0  0  0  0  0  0  0  0  0  0  0
  -26.7105  -28.0148   18.7375 C   0  0  0  0  0  0  0  0  0  0  0  0
  -21.9511   -6.6741   23.7574 C   0  0  0  0  0  0  0  0  0  0  0  0
  -27.8430  -18.1785   15.3640 C   0  0  0  0  0  0  0  0  0  0  0  0
  -22.2250   -5.9946   24.9443 C   0  0  0  0  0  0  0  0  0  0  0  0
  -28.7037  -18.3051   18.0146 C   0  0  0  0  0  0  0  0  0  0  0  0
  -24.9780  -27.5066   20.3372 C   0  0  0  0  0  0  0  0  0  0  0  0
  -21.8378   -3.8875   23.8274 C   0  0  0  0  0  0  0  0  0  0  0  0
  -24.3456   -9.0351   19.8464 C   0  0  0  0  0  0  0  0  0  0  0  0
  -28.5929  -19.4735   17.2608 C   0  0  0  0  0  0  0  0  0  0  0  0
  -25.7966   -9.9400   17.9535 C   0  0  0  0  0  0  0  0  0  0  0  0
  -31.0204  -32.1913   23.8782 C   0  0  0  0  0  0  0  0  0  0  0  0
  -25.9861  -29.7074   20.3202 C   0  0  0  0  0  0  0  0  0  0  0  0
  -30.1788  -31.1242   23.5101 C   0  0  0  0  0  0  0  0  0  0  0  0
  -25.0577  -28.8061   20.8607 C   0  0  0  0  0  0  0  0  0  0  0  0
  -28.3841  -17.0734   17.4432 C   0  0  0  0  0  0  0  0  0  0  0  0
  -22.3323   -7.4228   20.9093 C   0  0  0  0  0  0  0  0  0  0  0  0
  -25.8013  -27.1130   19.2825 C   0  0  0  0  0  0  0  0  0  0  0  0
  -21.6205   -5.9603   22.6054 C   0  0  0  0  0  0  0  0  0  0  0  0
  -22.1683   -4.6013   24.9793 C   0  0  0  0  0  0  0  0  0  0  0  0
  -27.9538  -17.0101   16.1179 C   0  0  0  0  0  0  0  0  0  0  0  0
  -21.5639   -4.5671   22.6404 C   0  0  0  0  0  0  0  0  0  0  0  0
  -25.3851   -9.8685   19.2978 C   0  0  0  0  0  0  0  0  0  0  0  0
  -26.8060  -10.8714   17.9525 C   0  0  0  0  0  0  0  0  0  0  0  0
  -26.8267  -25.0607   18.8275 C   0  0  0  0  0  0  0  0  0  1  0  0
  -28.9315  -20.7780   17.8654 C   0  0  0  0  0  0  0  0  0  0  0  0
  -25.3098   -9.2283   16.8080 C   0  0  0  0  0  0  0  0  0  0  0  0
  -26.8525  -23.8052   18.3665 C   0  0  0  0  0  0  0  0  0  0  0  0
  -28.1196  -23.0430   18.4652 C   0  0  0  0  0  0  0  0  0  0  0  0
  -26.5146  -30.7006   23.2931 C   0  0  0  0  0  0  0  0  0  0  0  0
  -23.3085  -31.1935   23.2833 C   0  0  0  0  0  0  0  0  0  0  0  0
  -20.2603  -30.4068   21.9655 C   0  0  0  0  0  0  0  0  0  0  0  0
  -28.9088  -15.7771   19.5386 C   0  0  0  0  0  0  0  0  0  0  0  0
  -30.6655  -33.1295   25.0044 C   0  0  0  0  0  0  0  0  0  0  0  0
  -26.0765  -31.1141   20.8450 C   0  0  0  0  0  0  0  0  0  0  0  0
  -24.1465  -29.1919   21.9961 C   0  0  0  0  0  0  0  0  0  0  0  0
  -29.1870  -33.0949   25.3829 C   0  0  0  0  0  0  0  0  0  0  0  0
  -29.2847  -13.0466   21.7926 C   0  0  0  0  0  0  0  0  0  0  0  0
  -28.7008  -31.6542   25.5052 C   0  0  0  0  0  0  0  0  0  0  0  0
  -28.3376  -11.9823   21.2339 C   0  0  0  0  0  0  0  0  0  0  0  0
  -28.7132  -14.4544   21.6331 C   0  0  0  0  0  0  0  0  0  0  0  0
  -27.3483  -13.7397   19.7108 C   0  0  0  0  0  0  0  0  0  0  0  0
  -28.8335  -30.9120   24.1699 C   0  0  1  0  0  0  0  0  0  0  0  0
  -25.5593  -31.2533   22.2735 C   0  0  1  0  0  0  0  0  0  0  0  0
  -27.9097  -12.3107   19.7900 C   0  0  2  0  0  0  0  0  0  0  0  0
  -17.8197  -30.9468   22.1870 C   0  0  0  0  0  0  0  0  0  0  0  0
  -23.1669  -29.5023   25.8190 C   0  0  0  0  0  0  0  0  0  0  0  0
  -20.6996  -29.2854   25.4531 C   0  0  0  0  0  0  0  0  0  0  0  0
  -21.7088  -31.5341   25.8374 C   0  0  0  0  0  0  0  0  0  0  0  0
  -20.1088  -31.4010   19.1821 C   0  0  0  0  0  0  0  0  0  0  0  0
  -22.0979  -30.3615   23.6316 C   0  0  1  0  0  0  0  0  0  0  0  0
  -19.1203  -31.2797   21.4727 C   0  0  2  0  0  0  0  0  0  0  0  0
  -21.9367  -30.1627   25.1652 C   0  0  0  0  0  0  0  0  0  0  0  0
  -26.0767  -10.6890   20.0931 N   0  0  0  0  0  0  0  0  0  0  0  0
  -26.9331  -11.2848   19.2460 N   0  0  0  0  0  0  0  0  0  0  0  0
  -24.2771  -30.5766   22.4789 N   0  0  0  0  0  0  0  0  0  0  0  0
  -28.3340  -14.6957   20.2393 N   0  0  0  0  0  0  0  0  0  0  0  0
  -27.5886  -11.3689   16.9713 N   0  0  0  0  0  0  0  0  0  0  0  0
  -24.2680   -8.3078   16.9863 N   0  0  0  0  0  0  0  0  0  0  0  0
  -28.4972  -15.8878   18.2108 N   0  0  0  0  0  0  0  0  0  0  0  0
  -27.9741  -21.7142   17.9250 N   0  0  0  0  0  0  0  0  0  0  0  0
  -27.7636  -31.2914   23.2722 N   0  0  0  0  0  0  0  0  0  0  0  0
  -20.9590  -31.0095   22.9901 N   0  0  0  0  0  0  0  0  0  0  0  0
  -30.1727  -20.9478   18.3199 N   0  3  0  0  0  0  0  0  0  0  0  0
  -18.9155  -31.0867   20.0092 N   0  3  0  0  0  0  0  0  0  0  0  0
  -25.7957   -9.3913   15.6631 O   0  0  0  0  0  0  0  0  0  0  0  0
  -29.1683  -23.4521   18.9356 O   0  0  0  0  0  0  0  0  0  0  0  0
  -26.1454  -29.8054   24.0442 O   0  0  0  0  0  0  0  0  0  0  0  0
  -23.3883  -32.3505   23.7035 O   0  0  0  0  0  0  0  0  0  0  0  0
  -20.5041  -29.2993   21.4917 O   0  0  0  0  0  0  0  0  0  0  0  0
  -29.7280  -16.5320   20.0688 O   0  0  0  0  0  0  0  0  0  0  0  0
  -25.7567  -23.1882   17.8042 O   0  0  0  0  0  0  0  0  0  0  0  0
  -21.3497   -6.6364   21.4276 O   0  0  0  0  0  0  0  0  0  0  0  0
  -25.7119  -25.8500   18.7838 O   0  0  0  0  0  0  0  0  0  1  0  0
  -22.4328   -3.9488   26.1188 F   0  0  0  0  0  0  0  0  0  0  0  0
  -27.6436  -15.8320   15.5582 F   0  0  0  0  0  0  0  0  0  0  0  0
  -21.2480   -3.8759   21.5366 F   0  0  0  0  0  0  0  0  0  0  0  0
  1  2  1  0  0  0  0
  1  6  2  0  0  0  0
  2  7  2  0  0  0  0
  3  9  2  0  0  0  0
  3 18  1  0  0  0  0
  4 10  1  0  0  0  0
  4 18  2  0  0  0  0
  5 13  2  0  0  0  0
  5 19  1  0  0  0  0
  6 21  1  0  0  0  0
  7 23  1  0  0  0  0
  8 11  2  0  0  0  0
  8 22  1  0  0  0  0
  9 26  1  0  0  0  0
 10 26  2  0  0  0  0
 11 27  1  0  0  0  0
 12 14  2  0  0  0  0
 12 28  1  0  0  0  0
 13 30  1  0  0  0  0
 14 29  1  0  0  0  0
 15 19  2  0  0  0  0
 15 25  1  0  0  0  0
 16 24  1  0  0  0  0
 16 27  2  0  0  0  0
 17 29  2  0  0  0  0
 17 31  1  0  0  0  0
 18 32  1  0  0  0  0
 19 35  1  0  0  0  0
 20 32  1  0  0  0  0
 20 33  2  0  0  0  0
 20 36  1  0  0  0  0
 21 23  2  0  0  0  0
 21 43  1  0  0  0  0
 22 24  2  0  0  0  0
 22 44  1  0  0  0  0
 23 52  1  0  0  0  0
 24 45  1  0  0  0  0
 25 30  2  0  0  0  0
 25 69  1  0  0  0  0
 26 82  1  0  0  0  0
 27 83  1  0  0  0  0
 28 31  2  0  0  0  0
 28 82  1  0  0  0  0
 29 84  1  0  0  0  0
 30 85  1  0  0  0  0
 31 86  1  0  0  0  0
 32 63  2  0  0  0  0
 33 64  1  0  0  0  0
 33 67  1  0  0  0  0
 34 37  2  0  0  0  0
 34 83  1  0  0  0  0
 35 70  1  0  0  0  0
 35 73  2  0  0  0  0
 36 68  1  0  0  0  0
 36 75  2  0  0  0  0
 37 38  1  0  0  0  0
 37 81  1  0  0  0  0
 38 70  1  0  0  0  0
 38 76  2  0  0  0  0
 39 53  1  0  0  0  0
 39 71  1  0  0  0  0
 39 77  2  0  0  0  0
 40 60  1  0  0  0  0
 40 65  1  0  0  0  0
 40 78  2  0  0  0  0
 41 61  1  0  0  0  0
 41 72  1  0  0  0  0
 41 79  2  0  0  0  0
 42 66  1  0  0  0  0
 42 69  1  0  0  0  0
 42 80  2  0  0  0  0
 43 46  1  0  0  0  0
 44 53  1  0  0  0  0
 45 65  1  0  0  0  0
 46 48  1  0  0  0  0
 47 49  1  0  0  0  0
 47 50  1  0  0  0  0
 48 52  1  0  0  0  0
 49 54  1  0  0  0  0
 50 66  1  0  0  0  0
 51 54  1  0  0  0  0
 51 66  1  0  0  0  0
 52 71  1  0  0  0  0
 53 65  1  0  0  0  0
 54 64  1  0  0  0  0
 55 61  1  0  0  0  0
 56 62  1  0  0  0  0
 57 62  1  0  0  0  0
 58 62  1  0  0  0  0
 59 74  1  0  0  0  0
 60 62  1  0  0  0  0
 60 72  1  0  0  0  0
 61 74  1  0  0  0  0
 63 64  1  0  0  0  0
M  CHG  2  73   1  74   1
M  ISO  4  34 101  42 100  69 100  83 101
M  END
> <Batch ID>
0165

> <Smiles>
CNC(C)C(=O)NC(C(=O)N1Cc2cc([101O:1][101CH2:1]C(=O)C(=O)NC(=N)c3ccc(F)c([100NH:0][100C:0](=O)N4CCCC(n5nc(-c6ccc(Oc7ccc(F)cc7F)cc6)c(C(N)=O)c5N)C4)c3)ccc2CC1C(=O)NC1CCCc2ccccc21)C(C)(C)C

> <Shape>
0.235

> <Color>
0.110

> <Negative vol penalty>
0.000

$$$$

  -OEChem-04052304053D

 85 93  0     1  0  0  0  0  0999 V2000
  -29.0917  -12.2034   19.7401 C   0  0  0  0  0  0  0  0  0  0  0  0
  -28.9828  -13.5103   19.2758 C   0  0  0  0  0  0  0  0  0  0  0  0
  -28.9719  -26.3295   19.1092 C   0  0  0  0  0  0  0  0  0  0  0  0
  -26.9553  -25.0353   19.4183 C   0  0  0  0  0  0  0  0  0  0  0  0
  -27.9682  -11.5468   20.2406 C   0  0  0  0  0  0  0  0  0  0  0  0
  -27.7501  -14.1610   19.3108 C   0  0  0  0  0  0  0  0  0  0  0  0
  -24.8981  -20.6740   20.1850 C   0  0  0  0  0  0  0  0  0  0  0  0
  -29.6845  -25.1581   18.8535 C   0  0  0  0  0  0  0  0  0  0  0  0
  -27.6680  -23.8638   19.1626 C   0  0  0  0  0  0  0  0  0  0  0  0
  -24.0111  -21.5533   19.5656 C   0  0  0  0  0  0  0  0  0  0  0  0
  -29.7751  -21.8145   20.8334 C   0  0  0  0  0  0  0  0  0  0  0  0
  -29.5581  -20.7264   21.6786 C   0  0  0  0  0  0  0  0  0  0  0  0
  -18.9035  -28.0920   23.7186 C   0  0  0  0  0  0  0  0  0  0  0  0
  -17.7420  -27.5334   23.1337 C   0  0  0  0  0  0  0  0  0  0  0  0
  -22.1552  -20.3476   20.5253 C   0  0  0  0  0  0  0  0  0  0  0  0
  -28.8132  -19.4110   19.7939 C   0  0  0  0  0  0  0  0  0  0  0  0
  -27.6072  -26.2681   19.3917 C   0  0  0  0  0  0  0  0  0  0  0  0
  -26.7043  -28.5779   18.7939 C   0  0  0  0  0  0  0  0  0  0  0  0
  -26.7231  -12.1932   20.2908 C   0  0  0  0  0  0  0  0  0  0  0  0
  -24.4192  -19.6165   20.9717 C   0  0  0  0  0  0  0  0  0  0  0  0
  -26.6086  -13.5120   19.8113 C   0  0  0  0  0  0  0  0  0  0  0  0
  -23.0383  -19.4578   21.1557 C   0  0  0  0  0  0  0  0  0  0  0  0
  -29.0326  -23.9252   18.8802 C   0  0  0  0  0  0  0  0  0  0  0  0
  -22.6393  -21.3885   19.7334 C   0  0  0  0  0  0  0  0  0  0  0  0
  -29.5110  -21.7010   19.4684 C   0  0  0  0  0  0  0  0  0  0  0  0
  -29.0772  -19.5246   21.1589 C   0  0  0  0  0  0  0  0  0  0  0  0
  -29.0301  -20.4992   18.9487 C   0  0  0  0  0  0  0  0  0  0  0  0
  -26.8706  -27.4778   19.6565 C   0  0  0  0  0  0  0  0  0  0  0  0
  -25.9297  -29.4596   19.5074 C   0  0  0  0  0  0  0  0  0  0  0  0
  -19.9474  -27.7605   22.8865 C   0  0  0  0  0  0  0  0  0  0  0  0
  -18.1589  -26.9006   21.9857 C   0  0  0  0  0  0  0  0  0  0  0  0
  -20.9249  -22.9684   19.9219 C   0  0  0  0  0  0  0  0  0  1  0  0
  -27.2051  -28.7843   17.4664 C   0  0  0  0  0  0  0  0  0  0  0  0
  -20.0318  -23.8388   19.4347 C   0  0  0  0  0  0  0  0  0  0  0  0
  -19.1519  -24.5825   20.3969 C   0  0  0  0  0  0  0  0  0  0  0  0
  -24.6038  -16.4468   20.8216 C   0  0  0  0  0  0  0  0  0  0  0  0
  -23.1398  -16.6142   23.7114 C   0  0  0  0  0  0  0  0  0  0  0  0
  -21.1760  -18.3886   25.8659 C   0  0  0  0  0  0  0  0  0  0  0  0
  -21.9965  -28.7665   23.9521 C   0  0  0  0  0  0  0  0  0  0  0  0
  -25.5270  -11.4264   20.7967 C   0  0  0  0  0  0  0  0  0  0  0  0
  -25.3899  -18.6926   21.6548 C   0  0  0  0  0  0  0  0  0  0  0  0
  -22.4738  -18.3508   22.0067 C   0  0  0  0  0  0  0  0  0  0  0  0
  -24.3365  -12.3158   21.1461 C   0  0  0  0  0  0  0  0  0  0  0  0
  -24.9323  -30.7804   24.0013 C   0  0  0  0  0  0  0  0  0  0  0  0
  -24.0861  -13.3326   20.0369 C   0  0  0  0  0  0  0  0  0  0  0  0
  -25.7446  -30.2663   22.8105 C   0  0  0  0  0  0  0  0  0  0  0  0
  -24.1911  -29.6498   24.7127 C   0  0  0  0  0  0  0  0  0  0  0  0
  -24.1665  -28.2986   22.6529 C   0  0  0  0  0  0  0  0  0  0  0  0
  -25.2938  -14.2601   19.8558 C   0  0  1  0  0  0  0  0  0  0  0  0
  -24.7773  -17.3428   22.0153 C   0  0  1  0  0  0  0  0  0  0  0  0
  -24.8790  -29.4102   21.8653 C   0  0  2  0  0  0  0  0  0  0  0  0
  -20.1198  -18.2496   28.1381 C   0  0  0  0  0  0  0  0  0  0  0  0
  -18.7711  -26.7250   19.0694 C   0  0  0  0  0  0  0  0  0  0  0  0
  -17.0233  -24.8939   19.0448 C   0  0  0  0  0  0  0  0  0  0  0  0
  -21.0194  -14.7183   22.6071 C   0  0  0  0  0  0  0  0  0  0  0  0
  -19.5435  -15.3642   24.5236 C   0  0  0  0  0  0  0  0  0  0  0  0
  -21.7264  -14.2374   24.9573 C   0  0  0  0  0  0  0  0  0  0  0  0
  -22.6691  -20.7541   26.8324 C   0  0  0  0  0  0  0  0  0  0  0  0
  -21.7061  -16.6443   24.1835 C   0  0  1  0  0  0  0  0  0  0  0  0
  -21.3323  -18.7066   27.3421 C   0  0  2  0  0  0  0  0  0  0  0  0
  -18.1138  -25.5917   19.8619 C   0  0  0  0  0  0  0  0  0  0  0  0
  -21.0091  -15.2609   24.0502 C   0  0  0  0  0  0  0  0  0  0  0  0
  -26.2516  -27.6433   20.8284 N   0  0  0  0  0  0  0  0  0  0  0  0
  -25.6888  -28.8576   20.7073 N   0  0  0  0  0  0  0  0  0  0  0  0
  -23.4632  -17.4696   22.6487 N   0  0  0  0  0  0  0  0  0  0  0  0
  -23.3887  -28.8849   23.7557 N   0  0  0  0  0  0  0  0  0  0  0  0
  -25.4380  -30.6834   19.2192 N   0  0  0  0  0  0  0  0  0  0  0  0
  -26.4215  -28.3627   16.3836 N   0  0  0  0  0  0  0  0  0  0  0  0
  -21.3337  -28.0439   22.9605 N   0  0  0  0  0  0  0  0  0  0  0  0
  -17.4706  -26.1929   21.0251 N   0  0  0  0  0  0  0  0  0  0  0  0
  -25.3185  -15.2665   20.8955 N   0  0  0  0  0  0  0  0  0  0  0  0
  -21.7353  -17.1701   25.5440 N   0  0  0  0  0  0  0  0  0  0  0  0
  -21.4992  -20.1741   27.5409 N   0  3  0  0  0  0  0  0  0  0  0  0
  -28.3221  -29.3116   17.2475 O   0  0  0  0  0  0  0  0  0  0  0  0
  -19.2667  -24.3740   21.6079 O   0  0  0  0  0  0  0  0  0  0  0  0
  -23.8742  -16.7995   19.9024 O   0  0  0  0  0  0  0  0  0  0  0  0
  -23.9447  -15.8647   24.2700 O   0  0  0  0  0  0  0  0  0  0  0  0
  -20.6108  -19.1438   25.0781 O   0  0  0  0  0  0  0  0  0  0  0  0
  -21.4297  -29.2920   24.9136 O   0  0  0  0  0  0  0  0  0  0  0  0
  -19.5019  -27.0343   21.8278 O   0  0  0  0  0  0  0  0  0  0  0  0
  -19.8994  -24.0748   18.0850 O   0  0  0  0  0  0  0  0  0  0  0  0
  -29.7277  -22.7820   18.6305 O   0  0  0  0  0  0  0  0  0  0  0  0
  -21.7712  -22.2450   19.1294 O   0  0  0  0  0  0  0  0  0  1  0  0
  -28.8704  -18.4792   21.9705 F   0  0  0  0  0  0  0  0  0  0  0  0
  -28.7758  -20.3837   17.6381 F   0  0  0  0  0  0  0  0  0  0  0  0
  1  2  1  0  0  0  0
  1  5  2  0  0  0  0
  2  6  2  0  0  0  0
  3  8  2  0  0  0  0
  3 17  1  0  0  0  0
  4  9  1  0  0  0  0
  4 17  2  0  0  0  0
  5 19  1  0  0  0  0
  6 21  1  0  0  0  0
  7 10  2  0  0  0  0
  7 20  1  0  0  0  0
  8 23  1  0  0  0  0
  9 23  2  0  0  0  0
 10 24  1  0  0  0  0
 11 12  2  0  0  0  0
 11 25  1  0  0  0  0
 12 26  1  0  0  0  0
 13 14  1  0  0  0  0
 13 30  2  0  0  0  0
 14 31  2  0  0  0  0
 15 22  1  0  0  0  0
 15 24  2  0  0  0  0
 16 26  2  0  0  0  0
 16 27  1  0  0  0  0
 17 28  1  0  0  0  0
 18 28  1  0  0  0  0
 18 29  2  0  0  0  0
 18 33  1  0  0  0  0
 19 21  2  0  0  0  0
 19 40  1  0  0  0  0
 20 22  2  0  0  0  0
 20 41  1  0  0  0  0
 21 49  1  0  0  0  0
 22 42  1  0  0  0  0
 23 82  1  0  0  0  0
 24 83  1  0  0  0  0
 25 27  2  0  0  0  0
 25 82  1  0  0  0  0
 26 84  1  0  0  0  0
 27 85  1  0  0  0  0
 28 63  2  0  0  0  0
 29 64  1  0  0  0  0
 29 67  1  0  0  0  0
 30 69  1  0  0  0  0
 30 80  1  0  0  0  0
 31 70  1  0  0  0  0
 31 80  1  0  0  0  0
 32 34  2  0  0  0  0
 32 83  1  0  0  0  0
 33 68  1  0  0  0  0
 33 74  2  0  0  0  0
 34 35  1  0  0  0  0
 34 81  1  0  0  0  0
 35 61  1  0  0  0  0
 35 75  2  0  0  0  0
 36 50  1  0  0  0  0
 36 71  1  0  0  0  0
 36 76  2  0  0  0  0
 37 59  1  0  0  0  0
 37 65  1  0  0  0  0
 37 77  2  0  0  0  0
 38 60  1  0  0  0  0
 38 72  1  0  0  0  0
 38 78  2  0  0  0  0
 39 66  1  0  0  0  0
 39 69  1  0  0  0  0
 39 79  2  0  0  0  0
 40 43  1  0  0  0  0
 41 50  1  0  0  0  0
 42 65  1  0  0  0  0
 43 45  1  0  0  0  0
 44 46  1  0  0  0  0
 44 47  1  0  0  0  0
 45 49  1  0  0  0  0
 46 51  1  0  0  0  0
 47 66  1  0  0  0  0
 48 51  1  0  0  0  0
 48 66  1  0  0  0  0
 49 71  1  0  0  0  0
 50 65  1  0  0  0  0
 51 64  1  0  0  0  0
 52 60  1  0  0  0  0
 53 61  1  0  0  0  0
 54 61  1  0  0  0  0
 55 62  1  0  0  0  0
 56 62  1  0  0  0  0
 57 62  1  0  0  0  0
 58 73  1  0  0  0  0
 59 62  1  0  0  0  0
 59 72  1  0  0  0  0
 60 73  1  0  0  0  0
 61 70  1  0  0  0  0
 63 64  1  0  0  0  0
M  CHG  1  73   1
M  ISO  4  32 101  39 100  69 100  83 101
M  END
> <Batch ID>
0165

> <Smiles>
CNC(C)C(=O)NC(C(=O)N1Cc2cc([101O:1][101CH2:1]C(=O)C(=O)C(C)(C)Nc3ccc([100NH:0][100C:0](=O)N4CCCC(n5nc(-c6ccc(Oc7ccc(F)cc7F)cc6)c(C(N)=O)c5N)C4)o3)ccc2CC1C(=O)NC1CCCc2ccccc21)C(C)(C)C

> <Shape>
0.225

> <Color>
0.075

> <Negative vol penalty>
0.000

$$$$

  -OEChem-04052304053D

 87 95  0     1  0  0  0  0  0999 V2000
  -29.6004  -36.8382   27.9843 C   0  0  0  0  0  0  0  0  0  0  0  0
  -30.1325  -35.6162   28.3834 C   0  0  0  0  0  0  0  0  0  0  0  0
  -23.0905   -9.8304   19.9294 C   0  0  0  0  0  0  0  0  0  0  0  0
  -23.8438   -9.8396   22.2249 C   0  0  0  0  0  0  0  0  0  0  0  0
  -28.5619  -36.8747   27.0548 C   0  0  0  0  0  0  0  0  0  0  0  0
  -29.6255  -34.4300   27.8539 C   0  0  0  0  0  0  0  0  0  0  0  0
  -31.6751  -27.8247   25.9870 C   0  0  0  0  0  0  0  0  0  0  0  0
  -22.3575   -8.6693   20.1746 C   0  0  0  0  0  0  0  0  0  0  0  0
  -23.1108   -8.6784   22.4701 C   0  0  0  0  0  0  0  0  0  0  0  0
  -31.3325  -26.4902   26.1998 C   0  0  0  0  0  0  0  0  0  0  0  0
  -19.8891   -7.8470   23.0617 C   0  0  0  0  0  0  0  0  0  0  0  0
  -19.1293   -7.7967   24.2303 C   0  0  0  0  0  0  0  0  0  0  0  0
  -31.7290  -17.5979   21.7388 C   0  0  0  0  0  0  0  0  0  0  0  0
  -29.5909  -26.6791   24.5414 C   0  0  0  0  0  0  0  0  0  0  0  0
  -20.3880   -5.8700   24.9658 C   0  0  0  0  0  0  0  0  0  0  0  0
  -23.8337  -10.4155   20.9546 C   0  0  0  0  0  0  0  0  0  0  0  0
  -31.8029  -18.8562   22.4031 C   0  0  0  0  0  0  0  0  0  0  0  0
  -24.1506  -12.9442   20.8414 C   0  0  0  0  0  0  0  0  0  0  0  0
  -28.0485  -35.6888   26.5064 C   0  0  0  0  0  0  0  0  0  0  0  0
  -30.9699  -28.6009   25.0560 C   0  0  0  0  0  0  0  0  0  0  0  0
  -28.5783  -34.4507   26.9172 C   0  0  0  0  0  0  0  0  0  0  0  0
  -29.9282  -28.0225   24.3167 C   0  0  0  0  0  0  0  0  0  0  0  0
  -22.3676   -8.0933   21.4449 C   0  0  0  0  0  0  0  0  0  0  0  0
  -30.2883  -25.9179   25.4791 C   0  0  0  0  0  0  0  0  0  0  0  0
  -20.8983   -6.9087   22.8450 C   0  0  0  0  0  0  0  0  0  0  0  0
  -19.3788   -6.8082   25.1824 C   0  0  0  0  0  0  0  0  0  0  0  0
  -21.1478   -5.9203   23.7970 C   0  0  0  0  0  0  0  0  0  0  0  0
  -24.5915  -11.6146   20.7018 C   0  0  0  0  0  0  0  0  0  0  0  0
  -25.2362  -13.7055   20.4830 C   0  0  0  0  0  0  0  0  0  0  0  0
  -30.5232  -16.9682   21.9560 C   0  0  0  0  0  0  0  0  0  0  0  0
  -30.6506  -19.1405   23.1025 C   0  0  0  0  0  0  0  0  0  0  0  0
  -30.5692  -23.6630   24.9248 C   0  0  0  0  0  0  0  0  0  1  0  0
  -32.9360  -19.7448   22.3641 C   0  0  0  0  0  0  0  0  0  0  0  0
  -22.8738  -13.4463   21.2580 C   0  0  0  0  0  0  0  0  0  0  0  0
  -30.3149  -22.3542   25.0432 C   0  0  0  0  0  0  0  0  0  0  0  0
  -33.8619  -19.8061   21.1670 C   0  0  0  0  0  0  0  0  0  0  0  0
  -31.0477  -21.3881   24.1613 C   0  0  0  0  0  0  0  0  0  0  0  0
  -29.1854  -31.2264   25.2178 C   0  0  0  0  0  0  0  0  0  0  0  0
  -29.1993  -30.9649   21.9846 C   0  0  0  0  0  0  0  0  0  0  0  0
  -29.5434  -28.9645   19.2411 C   0  0  0  0  0  0  0  0  0  0  0  0
  -30.6912  -14.8051   20.6756 C   0  0  0  0  0  0  0  0  0  0  0  0
  -26.8936  -35.7762   25.5403 C   0  0  0  0  0  0  0  0  0  0  0  0
  -31.3693  -30.0315   24.8188 C   0  0  0  0  0  0  0  0  0  0  0  0
  -29.1531  -28.8071   23.2910 C   0  0  0  0  0  0  0  0  0  0  0  0
  -26.6657  -34.4928   24.7457 C   0  0  0  0  0  0  0  0  0  0  0  0
  -29.6075  -12.3861   18.2984 C   0  0  0  0  0  0  0  0  0  0  0  0
  -26.7029  -33.2794   25.6694 C   0  0  0  0  0  0  0  0  0  0  0  0
  -28.1697  -12.0791   18.7233 C   0  0  0  0  0  0  0  0  0  0  0  0
  -30.5170  -12.6211   19.5032 C   0  0  0  0  0  0  0  0  0  0  0  0
  -28.5990  -13.3231   20.8808 C   0  0  0  0  0  0  0  0  0  0  0  0
  -28.0719  -33.1436   26.3469 C   0  0  1  0  0  0  0  0  0  0  0  0
  -30.2483  -30.8727   24.2163 C   0  0  1  0  0  0  0  0  0  0  0  0
  -27.6313  -13.1430   19.6999 C   0  0  2  0  0  0  0  0  0  0  0  0
  -33.5265  -20.7782   20.0810 C   0  0  0  0  0  0  0  0  0  0  0  0
  -29.4642  -29.0290   16.7337 C   0  0  0  0  0  0  0  0  0  0  0  0
  -26.1523  -31.0907   22.0864 C   0  0  0  0  0  0  0  0  0  0  0  0
  -26.1072  -30.2114   19.7427 C   0  0  0  0  0  0  0  0  0  0  0  0
  -27.1892  -32.4058   20.2290 C   0  0  0  0  0  0  0  0  0  0  0  0
  -32.3608  -28.0873   19.0139 C   0  0  0  0  0  0  0  0  0  0  0  0
  -28.3287  -30.2720   20.9643 C   0  0  1  0  0  0  0  0  0  0  0  0
  -30.3494  -29.1336   17.9659 C   0  0  2  0  0  0  0  0  0  0  0  0
  -26.9575  -30.9805   20.7762 C   0  0  0  0  0  0  0  0  0  0  0  0
  -25.8585  -11.5324   20.2869 N   0  0  0  0  0  0  0  0  0  0  0  0
  -34.8875  -19.0236   21.1535 N   0  0  0  0  0  0  0  0  0  0  0  0
  -26.2229  -12.8200   20.1626 N   0  0  0  0  0  0  0  0  0  0  0  0
  -29.5773  -30.2039   23.0998 N   0  0  0  0  0  0  0  0  0  0  0  0
  -29.9453  -13.6441   20.3815 N   0  0  0  0  0  0  0  0  0  0  0  0
  -25.4335  -15.0391   20.4137 N   0  0  0  0  0  0  0  0  0  0  0  0
  -21.8701  -12.5263   21.5903 N   0  0  0  0  0  0  0  0  0  0  0  0
  -30.2881  -20.2576   23.8932 N   0  0  0  0  0  0  0  0  0  0  0  0
  -30.0323  -15.7217   21.4944 N   0  0  0  0  0  0  0  0  0  0  0  0
  -29.0382  -32.5844   25.4261 N   0  0  0  0  0  0  0  0  0  0  0  0
  -29.1246  -30.1776   19.7453 N   0  0  0  0  0  0  0  0  0  0  0  0
  -31.4044  -28.0848   17.8770 N   0  3  0  0  0  0  0  0  0  0  0  0
  -33.2589  -20.5202   23.2819 O   0  0  0  0  0  0  0  0  0  0  0  0
  -22.6251  -14.6744   21.3175 O   0  0  0  0  0  0  0  0  0  0  0  0
  -32.1809  -21.6341   23.7623 O   0  0  0  0  0  0  0  0  0  0  0  0
  -28.5453  -30.3333   25.7602 O   0  0  0  0  0  0  0  0  0  0  0  0
  -29.5375  -32.1360   21.7954 O   0  0  0  0  0  0  0  0  0  0  0  0
  -29.3056  -27.8659   19.7381 O   0  0  0  0  0  0  0  0  0  0  0  0
  -31.8198  -14.9862   20.2116 O   0  0  0  0  0  0  0  0  0  0  0  0
  -29.4019  -21.8546   25.9495 O   0  0  0  0  0  0  0  0  0  0  0  0
  -21.6523   -6.9604   21.6846 O   0  0  0  0  0  0  0  0  0  0  0  0
  -29.9514  -24.6157   25.6854 O   0  0  0  0  0  0  0  0  0  1  0  0
  -18.6501   -6.7610   26.3053 F   0  0  0  0  0  0  0  0  0  0  0  0
  -22.1167   -5.0169   23.5950 F   0  0  0  0  0  0  0  0  0  0  0  0
  -29.4865  -17.8931   22.9570 S   0  0  0  0  0  0  0  0  0  0  0  0
  1  2  1  0  0  0  0
  1  5  2  0  0  0  0
  2  6  2  0  0  0  0
  3  8  2  0  0  0  0
  3 16  1  0  0  0  0
  4  9  1  0  0  0  0
  4 16  2  0  0  0  0
  5 19  1  0  0  0  0
  6 21  1  0  0  0  0
  7 10  2  0  0  0  0
  7 20  1  0  0  0  0
  8 23  1  0  0  0  0
  9 23  2  0  0  0  0
 10 24  1  0  0  0  0
 11 12  2  0  0  0  0
 11 25  1  0  0  0  0
 12 26  1  0  0  0  0
 13 17  1  0  0  0  0
 13 30  2  0  0  0  0
 14 22  1  0  0  0  0
 14 24  2  0  0  0  0
 15 26  2  0  0  0  0
 15 27  1  0  0  0  0
 16 28  1  0  0  0  0
 17 31  2  0  0  0  0
 17 33  1  0  0  0  0
 18 28  1  0  0  0  0
 18 29  2  0  0  0  0
 18 34  1  0  0  0  0
 19 21  2  0  0  0  0
 19 42  1  0  0  0  0
 20 22  2  0  0  0  0
 20 43  1  0  0  0  0
 21 51  1  0  0  0  0
 22 44  1  0  0  0  0
 23 83  1  0  0  0  0
 24 84  1  0  0  0  0
 25 27  2  0  0  0  0
 25 83  1  0  0  0  0
 26 85  1  0  0  0  0
 27 86  1  0  0  0  0
 28 63  2  0  0  0  0
 29 65  1  0  0  0  0
 29 68  1  0  0  0  0
 30 71  1  0  0  0  0
 30 87  1  0  0  0  0
 31 70  1  0  0  0  0
 31 87  1  0  0  0  0
 32 35  2  0  0  0  0
 32 84  1  0  0  0  0
 33 36  1  0  0  0  0
 33 75  2  0  0  0  0
 34 69  1  0  0  0  0
 34 76  2  0  0  0  0
 35 37  1  0  0  0  0
 35 82  1  0  0  0  0
 36 54  1  0  0  0  0
 36 64  2  0  0  0  0
 37 70  1  0  0  0  0
 37 77  2  0  0  0  0
 38 52  1  0  0  0  0
 38 72  1  0  0  0  0
 38 78  2  0  0  0  0
 39 60  1  0  0  0  0
 39 66  1  0  0  0  0
 39 79  2  0  0  0  0
 40 61  1  0  0  0  0
 40 73  1  0  0  0  0
 40 80  2  0  0  0  0
 41 67  1  0  0  0  0
 41 71  1  0  0  0  0
 41 81  2  0  0  0  0
 42 45  1  0  0  0  0
 43 52  1  0  0  0  0
 44 66  1  0  0  0  0
 45 47  1  0  0  0  0
 46 48  1  0  0  0  0
 46 49  1  0  0  0  0
 47 51  1  0  0  0  0
 48 53  1  0  0  0  0
 49 67  1  0  0  0  0
 50 53  1  0  0  0  0
 50 67  1  0  0  0  0
 51 72  1  0  0  0  0
 52 66  1  0  0  0  0
 53 65  1  0  0  0  0
 55 61  1  0  0  0  0
 56 62  1  0  0  0  0
 57 62  1  0  0  0  0
 58 62  1  0  0  0  0
 59 74  1  0  0  0  0
 60 62  1  0  0  0  0
 60 73  1  0  0  0  0
 61 74  1  0  0  0  0
 63 65  1  0  0  0  0
M  CHG  1  74   1
M  ISO  4  32 101  41 100  71 100  84 101
M  END
> <Batch ID>
0165

> <Smiles>
CNC(C)C(=O)NC(C(=O)N1Cc2cc([101O:1][101CH2:1]C(=O)C(=O)Nc3sc([100NH:0][100C:0](=O)N4CCCC(n5nc(-c6ccc(Oc7ccc(F)cc7F)cc6)c(C(N)=O)c5N)C4)cc3C(=O)C(C)=N)ccc2CC1C(=O)NC1CCCc2ccccc21)C(C)(C)C

> <Shape>
0.237

> <Color>
0.178

> <Negative vol penalty>
0.000

$$$$

  -OEChem-04052304053D

 88 96  0     1  0  0  0  0  0999 V2000
  -13.0250  -22.7390   24.8754 C   0  0  0  0  0  0  0  0  0  0  0  0
  -14.2775  -22.4606   25.4132 C   0  0  0  0  0  0  0  0  0  0  0  0
  -23.1273   -9.7159   19.8882 C   0  0  0  0  0  0  0  0  0  0  0  0
  -23.8671   -9.7232   22.1881 C   0  0  0  0  0  0  0  0  0  0  0  0
  -12.9240  -23.4108   23.6579 C   0  0  0  0  0  0  0  0  0  0  0  0
  -15.4299  -22.8529   24.7330 C   0  0  0  0  0  0  0  0  0  0  0  0
  -20.7071  -24.7303   27.2092 C   0  0  0  0  0  0  0  0  0  0  0  0
  -29.4940  -17.4327   24.1782 C   0  0  0  0  0  0  0  0  0  0  0  0
  -28.6546  -18.1917   24.9935 C   0  0  0  0  0  0  0  0  0  0  0  0
  -22.4211   -8.5355   20.1191 C   0  0  0  0  0  0  0  0  0  0  0  0
  -23.1608   -8.5427   22.4190 C   0  0  0  0  0  0  0  0  0  0  0  0
  -21.9108  -24.0737   27.4615 C   0  0  0  0  0  0  0  0  0  0  0  0
  -23.5694   -5.2389   21.8283 C   0  0  0  0  0  0  0  0  0  0  0  0
  -24.2134   -4.2272   22.5405 C   0  0  0  0  0  0  0  0  0  0  0  0
  -22.7981  -24.9138   25.3816 C   0  0  0  0  0  0  0  0  0  0  0  0
  -28.2230  -19.6937   23.1509 C   0  0  0  0  0  0  0  0  0  0  0  0
  -22.4927   -4.3239   24.2337 C   0  0  0  0  0  0  0  0  0  0  0  0
  -23.8504  -10.3098   20.9227 C   0  0  0  0  0  0  0  0  0  0  0  0
  -24.1070  -12.8463   20.8331 C   0  0  0  0  0  0  0  0  0  0  0  0
  -14.0756  -23.8200   22.9672 C   0  0  0  0  0  0  0  0  0  0  0  0
  -20.5358  -25.4759   26.0340 C   0  0  0  0  0  0  0  0  0  0  0  0
  -15.3442  -23.5295   23.5044 C   0  0  0  0  0  0  0  0  0  0  0  0
  -21.5922  -25.5810   25.1179 C   0  0  0  0  0  0  0  0  0  0  0  0
  -29.6981  -17.8042   22.8492 C   0  0  0  0  0  0  0  0  0  0  0  0
  -29.0625  -18.9347   22.3356 C   0  0  0  0  0  0  0  0  0  0  0  0
  -28.0190  -19.3222   24.4798 C   0  0  0  0  0  0  0  0  0  0  0  0
  -22.4378   -7.9489   21.3845 C   0  0  0  0  0  0  0  0  0  0  0  0
  -22.9556  -24.1630   26.5463 C   0  0  0  0  0  0  0  0  0  0  0  0
  -22.3871   -5.7933   22.3188 C   0  0  0  0  0  0  0  0  0  0  0  0
  -23.6750   -3.7696   23.7432 C   0  0  0  0  0  0  0  0  0  0  0  0
  -21.8488   -5.3357   23.5215 C   0  0  0  0  0  0  0  0  0  0  0  0
  -24.5806  -11.5289   20.6847 C   0  0  0  0  0  0  0  0  0  0  0  0
  -25.1761  -13.6364   20.4876 C   0  0  0  0  0  0  0  0  0  0  0  0
  -22.8162  -13.3139   21.2464 C   0  0  0  0  0  0  0  0  0  0  0  0
  -18.5891  -25.2968   23.5276 C   0  0  0  0  0  0  0  0  0  0  0  0
  -25.6631  -21.8268   25.9828 C   0  0  0  0  0  0  0  0  0  0  0  0
  -20.0029  -28.1027   22.7214 C   0  0  0  0  0  0  0  0  0  0  0  0
  -22.7072  -30.1669   22.9910 C   0  0  0  0  0  0  0  0  0  0  0  0
  -30.6201  -14.8390   20.7354 C   0  0  0  0  0  0  0  0  0  0  0  0
  -13.9170  -24.5016   21.6311 C   0  0  0  0  0  0  0  0  0  0  0  0
  -19.2405  -26.2002   25.7893 C   0  0  0  0  0  0  0  0  0  0  0  0
  -21.4660  -26.3855   23.8509 C   0  0  0  0  0  0  0  0  0  0  0  0
  -15.1810  -25.2142   21.1570 C   0  0  0  0  0  0  0  0  0  0  0  0
  -29.5846  -12.4439   18.3130 C   0  0  0  0  0  0  0  0  0  0  0  0
  -16.3994  -24.3132   21.3322 C   0  0  0  0  0  0  0  0  0  0  0  0
  -28.1544  -12.0967   18.7300 C   0  0  0  0  0  0  0  0  0  0  0  0
  -30.4835  -12.6824   19.5242 C   0  0  0  0  0  0  0  0  0  0  0  0
  -28.5463  -13.3329   20.9018 C   0  0  0  0  0  0  0  0  0  0  0  0
  -16.6171  -23.9607   22.8086 C   0  0  1  0  0  0  0  0  0  0  0  0
  -18.9979  -26.5093   24.3152 C   0  0  1  0  0  0  0  0  0  0  0  0
  -27.5886  -13.1385   19.7138 C   0  0  2  0  0  0  0  0  0  0  0  0
  -23.5878  -32.3750   22.1872 C   0  0  0  0  0  0  0  0  0  0  0  0
  -29.6639  -21.8021   21.3461 C   0  0  0  0  0  0  0  0  0  0  0  0
  -31.6307  -20.2681   21.3036 C   0  0  0  0  0  0  0  0  0  0  0  0
  -30.4295  -20.8358   19.1772 C   0  0  0  0  0  0  0  0  0  0  0  0
  -20.6388  -26.8588   20.0088 C   0  0  0  0  0  0  0  0  0  0  0  0
  -22.2947  -28.6984   19.6315 C   0  0  0  0  0  0  0  0  0  0  0  0
  -19.8755  -29.2384   19.9120 C   0  0  0  0  0  0  0  0  0  0  0  0
  -22.8482  -31.2443   25.7439 C   0  0  0  0  0  0  0  0  0  0  0  0
  -29.2670  -19.3525   20.9163 C   0  0  0  0  0  0  0  0  0  0  0  0
  -30.6022  -16.9766   21.9961 C   0  0  0  0  0  0  0  0  0  0  0  0
  -26.4865  -21.2566   24.8475 C   0  0  0  0  0  0  0  0  0  0  0  0
  -24.8781  -23.0824   25.6563 C   0  0  0  0  0  0  0  0  0  1  0  0
  -21.2205  -28.4948   21.9196 C   0  0  1  0  0  0  0  0  0  0  0  0
  -22.8150  -31.6533   23.2801 C   0  0  2  0  0  0  0  0  0  0  0  0
  -30.2525  -20.5419   20.6771 C   0  0  0  0  0  0  0  0  0  0  0  0
  -21.0094  -28.3058   20.3908 C   0  0  0  0  0  0  0  0  0  0  0  0
  -25.8515  -11.4807   20.2766 N   0  0  0  0  0  0  0  0  0  0  0  0
  -26.1855  -12.7777   20.1655 N   0  0  0  0  0  0  0  0  0  0  0  0
  -20.1777  -27.0703   23.6538 N   0  0  0  0  0  0  0  0  0  0  0  0
  -29.8908  -13.6817   20.4164 N   0  0  0  0  0  0  0  0  0  0  0  0
  -25.3416  -14.9750   20.4309 N   0  0  0  0  0  0  0  0  0  0  0  0
  -21.8330  -12.3672   21.5648 N   0  0  0  0  0  0  0  0  0  0  0  0
  -27.1832  -20.0763   25.2910 N   0  0  0  0  0  0  0  0  0  0  0  0
  -17.2259  -25.0713   23.5089 N   0  0  0  0  0  0  0  0  0  0  0  0
  -21.5459  -29.8613   22.3134 N   0  0  0  0  0  0  0  0  0  0  0  0
  -29.9826  -15.7375   21.5822 N   0  0  0  0  0  0  0  0  0  0  0  0
  -23.5132  -31.8794   24.5772 N   0  3  0  0  0  0  0  0  0  0  0  0
  -22.5377  -14.5351   21.3150 O   0  0  0  0  0  0  0  0  0  0  0  0
  -19.4468  -24.6170   22.9763 O   0  0  0  0  0  0  0  0  0  0  0  0
  -25.6260  -21.3140   27.1006 O   0  0  0  0  0  0  0  0  0  0  0  0
  -18.9378  -28.6957   22.5325 O   0  0  0  0  0  0  0  0  0  0  0  0
  -23.5689  -29.3584   23.3290 O   0  0  0  0  0  0  0  0  0  0  0  0
  -31.7532  -15.0579   20.2937 O   0  0  0  0  0  0  0  0  0  0  0  0
  -21.7486   -6.7971   21.6102 O   0  0  0  0  0  0  0  0  0  0  0  0
  -24.1313  -23.5225   26.7898 O   0  0  0  0  0  0  0  0  0  1  0  0
  -24.2927   -2.7970   24.4262 F   0  0  0  0  0  0  0  0  0  0  0  0
  -20.7126   -5.8635   23.9972 F   0  0  0  0  0  0  0  0  0  0  0  0
  1  2  1  0  0  0  0
  1  5  2  0  0  0  0
  2  6  2  0  0  0  0
  3 10  2  0  0  0  0
  3 18  1  0  0  0  0
  4 11  1  0  0  0  0
  4 18  2  0  0  0  0
  5 20  1  0  0  0  0
  6 22  1  0  0  0  0
  7 12  2  0  0  0  0
  7 21  1  0  0  0  0
  8  9  2  0  0  0  0
  8 24  1  0  0  0  0
  9 26  1  0  0  0  0
 10 27  1  0  0  0  0
 11 27  2  0  0  0  0
 12 28  1  0  0  0  0
 13 14  2  0  0  0  0
 13 29  1  0  0  0  0
 14 30  1  0  0  0  0
 15 23  1  0  0  0  0
 15 28  2  0  0  0  0
 16 25  1  0  0  0  0
 16 26  2  0  0  0  0
 17 30  2  0  0  0  0
 17 31  1  0  0  0  0
 18 32  1  0  0  0  0
 19 32  1  0  0  0  0
 19 33  2  0  0  0  0
 19 34  1  0  0  0  0
 20 22  2  0  0  0  0
 20 40  1  0  0  0  0
 21 23  2  0  0  0  0
 21 41  1  0  0  0  0
 22 49  1  0  0  0  0
 23 42  1  0  0  0  0
 24 25  2  0  0  0  0
 24 61  1  0  0  0  0
 25 60  1  0  0  0  0
 26 74  1  0  0  0  0
 27 85  1  0  0  0  0
 28 86  1  0  0  0  0
 29 31  2  0  0  0  0
 29 85  1  0  0  0  0
 30 87  1  0  0  0  0
 31 88  1  0  0  0  0
 32 68  2  0  0  0  0
 33 69  1  0  0  0  0
 33 72  1  0  0  0  0
 34 73  1  0  0  0  0
 34 79  2  0  0  0  0
 35 50  1  0  0  0  0
 35 75  1  0  0  0  0
 35 80  2  0  0  0  0
 36 62  1  0  0  0  0
 36 63  1  0  0  0  0
 36 81  2  0  0  0  0
 37 64  1  0  0  0  0
 37 70  1  0  0  0  0
 37 82  2  0  0  0  0
 38 65  1  0  0  0  0
 38 76  1  0  0  0  0
 38 83  2  0  0  0  0
 39 71  1  0  0  0  0
 39 77  1  0  0  0  0
 39 84  2  0  0  0  0
 40 43  1  0  0  0  0
 41 50  1  0  0  0  0
 42 70  1  0  0  0  0
 43 45  1  0  0  0  0
 44 46  1  0  0  0  0
 44 47  1  0  0  0  0
 45 49  1  0  0  0  0
 46 51  1  0  0  0  0
 47 71  1  0  0  0  0
 48 51  1  0  0  0  0
 48 71  1  0  0  0  0
 49 75  1  0  0  0  0
 50 70  1  0  0  0  0
 51 69  1  0  0  0  0
 52 65  1  0  0  0  0
 53 66  1  0  0  0  0
 54 66  1  0  0  0  0
 55 66  1  0  0  0  0
 56 67  1  0  0  0  0
 57 67  1  0  0  0  0
 58 67  1  0  0  0  0
 59 78  1  0  0  0  0
 60 66  1  0  0  0  0
 61 77  1  0  0  0  0
 62 74  1  0  0  0  0
 63 86  1  0  0  0  0
 64 67  1  0  0  0  0
 64 76  1  0  0  0  0
 65 78  1  0  0  0  0
 68 69  1  0  0  0  0
M  CHG  1  78   1
M  ISO  4  39 100  63 101  77 100  86 101
M  END
> <Batch ID>
0165

> <Smiles>
CNC(C)C(=O)NC(C(=O)N1Cc2cc([101O:1][101CH2:1]C(=O)CNc3ccc(C[100NH:0][100C:0](=O)N4CCCC(n5nc(-c6ccc(Oc7ccc(F)cc7F)cc6)c(C(N)=O)c5N)C4)c(CC(C)(C)C)c3)ccc2CC1C(=O)NC1CCCc2ccccc21)C(C)(C)C

> <Shape>
0.264

> <Color>
0.221

> <Negative vol penalty>
0.000

$$$$

  -OEChem-04052304053D

 88 96  0     1  0  0  0  0  0999 V2000
  -20.2659  -27.6006   28.9841 C   0  0  0  0  0  0  0  0  0  0  0  0
  -21.0465  -27.2593   27.8843 C   0  0  0  0  0  0  0  0  0  0  0  0
  -23.0718   -9.8707   19.9427 C   0  0  0  0  0  0  0  0  0  0  0  0
  -23.8347   -9.8774   22.2350 C   0  0  0  0  0  0  0  0  0  0  0  0
  -20.8391  -27.6575   30.2537 C   0  0  0  0  0  0  0  0  0  0  0  0
  -22.4013  -26.9757   28.0535 C   0  0  0  0  0  0  0  0  0  0  0  0
  -23.8574  -22.8542   25.4965 C   0  0  0  0  0  0  0  0  0  0  0  0
  -31.6210  -18.3518   20.0522 C   0  0  0  0  0  0  0  0  0  0  0  0
  -22.3281   -8.7176   20.1935 C   0  0  0  0  0  0  0  0  0  0  0  0
  -23.0910   -8.7244   22.4860 C   0  0  0  0  0  0  0  0  0  0  0  0
  -24.0657  -22.9962   24.1253 C   0  0  0  0  0  0  0  0  0  0  0  0
  -19.3817   -7.9212   21.6487 C   0  0  0  0  0  0  0  0  0  0  0  0
  -31.4396  -19.3814   19.1289 C   0  0  0  0  0  0  0  0  0  0  0  0
  -18.0742   -7.8751   21.1651 C   0  0  0  0  0  0  0  0  0  0  0  0
  -26.4428  -23.1458   24.5081 C   0  0  0  0  0  0  0  0  0  0  0  0
  -18.6320   -5.9320   19.8421 C   0  0  0  0  0  0  0  0  0  0  0  0
  -23.8251  -10.4506   20.9634 C   0  0  0  0  0  0  0  0  0  0  0  0
  -29.3687  -18.6809   20.8619 C   0  0  0  0  0  0  0  0  0  0  0  0
  -24.1670  -12.9757   20.8431 C   0  0  0  0  0  0  0  0  0  0  0  0
  -22.1994  -27.3650   30.4400 C   0  0  0  0  0  0  0  0  0  0  0  0
  -24.9411  -22.8679   26.3863 C   0  0  0  0  0  0  0  0  0  0  0  0
  -22.9936  -27.0299   29.3267 C   0  0  0  0  0  0  0  0  0  0  0  0
  -26.2457  -23.0012   25.8899 C   0  0  0  0  0  0  0  0  0  0  0  0
  -30.5855  -18.0015   20.9187 C   0  0  0  0  0  0  0  0  0  0  0  0
  -29.1872  -19.7106   19.9386 C   0  0  0  0  0  0  0  0  0  0  0  0
  -22.3377   -8.1444   21.4652 C   0  0  0  0  0  0  0  0  0  0  0  0
  -25.3583  -23.1449   23.6311 C   0  0  0  0  0  0  0  0  0  0  0  0
  -20.3144   -6.9727   21.2289 C   0  0  0  0  0  0  0  0  0  0  0  0
  -17.6993   -6.8805   20.2619 C   0  0  0  0  0  0  0  0  0  0  0  0
  -30.2228  -20.0609   19.0721 C   0  0  0  0  0  0  0  0  0  0  0  0
  -19.9396   -5.9782   20.3256 C   0  0  0  0  0  0  0  0  0  0  0  0
  -24.5940  -11.6414   20.7047 C   0  0  0  0  0  0  0  0  0  0  0  0
  -25.2588  -13.7251   20.4784 C   0  0  0  0  0  0  0  0  0  0  0  0
  -28.2881  -18.3102   21.7712 C   0  0  0  0  0  0  0  0  0  0  0  0
  -22.8972  -13.4916   21.2637 C   0  0  0  0  0  0  0  0  0  0  0  0
  -25.8383  -24.7315   28.7999 C   0  0  0  0  0  0  0  0  0  0  0  0
  -26.6346  -22.3524   20.3287 C   0  0  0  0  0  0  0  0  0  0  0  0
  -28.1455  -22.4812   29.1684 C   0  0  0  0  0  0  0  0  0  0  0  0
  -30.0304  -20.0073   27.7635 C   0  0  0  0  0  0  0  0  0  0  0  0
  -30.7429  -14.7436   20.6596 C   0  0  0  0  0  0  0  0  0  0  0  0
  -22.7850  -27.4857   31.8246 C   0  0  0  0  0  0  0  0  0  0  0  0
  -24.7017  -22.6868   27.8601 C   0  0  0  0  0  0  0  0  0  0  0  0
  -27.4447  -23.0020   26.8013 C   0  0  0  0  0  0  0  0  0  0  0  0
  -24.1436  -26.8058   31.9728 C   0  0  0  0  0  0  0  0  0  0  0  0
  -29.6019  -12.3593   18.2742 C   0  0  0  0  0  0  0  0  0  0  0  0
  -25.0535  -27.1706   30.8041 C   0  0  0  0  0  0  0  0  0  0  0  0
  -28.1650  -12.0657   18.7090 C   0  0  0  0  0  0  0  0  0  0  0  0
  -30.5206  -12.5800   19.4739 C   0  0  0  0  0  0  0  0  0  0  0  0
  -28.6208  -13.3112   20.8630 C   0  0  0  0  0  0  0  0  0  0  0  0
  -24.4612  -26.6913   29.4733 C   0  0  1  0  0  0  0  0  0  0  0  0
  -25.8373  -23.2310   28.7212 C   0  0  1  0  0  0  0  0  0  0  0  0
  -27.6451  -13.1367   19.6866 C   0  0  2  0  0  0  0  0  0  0  0  0
  -26.7802  -19.1492   23.6471 C   0  0  0  0  0  0  0  0  0  0  0  0
  -31.8585  -18.3755   28.3045 C   0  0  0  0  0  0  0  0  0  0  0  0
  -30.1922  -24.7415   29.0587 C   0  0  0  0  0  0  0  0  0  0  0  0
  -31.9651  -23.0223   28.6468 C   0  0  0  0  0  0  0  0  0  0  0  0
  -30.6667  -22.9869   30.7765 C   0  0  0  0  0  0  0  0  0  0  0  0
  -28.3005  -17.6868   27.1458 C   0  0  0  0  0  0  0  0  0  0  0  0
  -30.8106  -16.8941   21.8965 C   0  0  0  0  0  0  0  0  0  0  0  0
  -28.2038  -19.0158   23.1291 C   0  0  0  0  0  0  0  0  0  0  0  0
  -27.8855  -21.8212   19.6615 C   0  0  0  0  0  0  0  0  0  0  0  0
  -26.7974  -22.7909   21.7711 C   0  0  0  0  0  0  0  0  0  1  0  0
  -29.5400  -22.2811   28.6260 C   0  0  1  0  0  0  0  0  0  0  0  0
  -30.3562  -18.6004   28.2313 C   0  0  2  0  0  0  0  0  0  0  0  0
  -30.5685  -23.2599   29.2598 C   0  0  0  0  0  0  0  0  0  0  0  0
  -25.8583  -11.5455   20.2848 N   0  0  0  0  0  0  0  0  0  0  0  0
  -26.2351  -12.8290   20.1560 N   0  0  0  0  0  0  0  0  0  0  0  0
  -27.1585  -22.8281   28.2349 N   0  0  0  0  0  0  0  0  0  0  0  0
  -29.9713  -13.6085   20.3606 N   0  0  0  0  0  0  0  0  0  0  0  0
  -25.4692  -15.0565   20.4051 N   0  0  0  0  0  0  0  0  0  0  0  0
  -21.8856  -12.5825   21.6022 N   0  0  0  0  0  0  0  0  0  0  0  0
  -27.9845  -20.3987   19.8661 N   0  0  0  0  0  0  0  0  0  0  0  0
  -24.6717  -25.2689   29.3095 N   0  0  0  0  0  0  0  0  0  0  0  0
  -29.8566  -20.8708   28.8244 N   0  0  0  0  0  0  0  0  0  0  0  0
  -30.1449  -15.6724   21.5024 N   0  0  0  0  0  0  0  0  0  0  0  0
  -29.7757  -17.5960   27.2957 N   0  3  0  0  0  0  0  0  0  0  0  0
  -27.4406  -17.4505   21.4895 O   0  0  0  0  0  0  0  0  0  0  0  0
  -22.6611  -14.7223   21.3214 O   0  0  0  0  0  0  0  0  0  0  0  0
  -26.8250  -25.3554   28.4273 O   0  0  0  0  0  0  0  0  0  0  0  0
  -25.5521  -22.4277   19.7488 O   0  0  0  0  0  0  0  0  0  0  0  0
  -27.9380  -22.3282   30.3747 O   0  0  0  0  0  0  0  0  0  0  0  0
  -29.9427  -20.3109   26.5758 O   0  0  0  0  0  0  0  0  0  0  0  0
  -31.8782  -14.9190   20.2044 O   0  0  0  0  0  0  0  0  0  0  0  0
  -21.6120   -7.0194   21.7104 O   0  0  0  0  0  0  0  0  0  0  0  0
  -25.5644  -23.2844   22.2932 O   0  0  0  0  0  0  0  0  0  1  0  0
  -16.4432   -6.8354   19.7988 F   0  0  0  0  0  0  0  0  0  0  0  0
  -30.0604  -21.0488   18.1804 F   0  0  0  0  0  0  0  0  0  0  0  0
  -20.8309   -5.0635   19.9195 F   0  0  0  0  0  0  0  0  0  0  0  0
  1  2  1  0  0  0  0
  1  5  2  0  0  0  0
  2  6  2  0  0  0  0
  3  9  2  0  0  0  0
  3 17  1  0  0  0  0
  4 10  1  0  0  0  0
  4 17  2  0  0  0  0
  5 20  1  0  0  0  0
  6 22  1  0  0  0  0
  7 11  2  0  0  0  0
  7 21  1  0  0  0  0
  8 13  1  0  0  0  0
  8 24  2  0  0  0  0
  9 26  1  0  0  0  0
 10 26  2  0  0  0  0
 11 27  1  0  0  0  0
 12 14  2  0  0  0  0
 12 28  1  0  0  0  0
 13 30  2  0  0  0  0
 14 29  1  0  0  0  0
 15 23  1  0  0  0  0
 15 27  2  0  0  0  0
 16 29  2  0  0  0  0
 16 31  1  0  0  0  0
 17 32  1  0  0  0  0
 18 24  1  0  0  0  0
 18 25  2  0  0  0  0
 18 34  1  0  0  0  0
 19 32  1  0  0  0  0
 19 33  2  0  0  0  0
 19 35  1  0  0  0  0
 20 22  2  0  0  0  0
 20 41  1  0  0  0  0
 21 23  2  0  0  0  0
 21 42  1  0  0  0  0
 22 50  1  0  0  0  0
 23 43  1  0  0  0  0
 24 59  1  0  0  0  0
 25 30  1  0  0  0  0
 25 72  1  0  0  0  0
 26 84  1  0  0  0  0
 27 85  1  0  0  0  0
 28 31  2  0  0  0  0
 28 84  1  0  0  0  0
 29 86  1  0  0  0  0
 30 87  1  0  0  0  0
 31 88  1  0  0  0  0
 32 66  2  0  0  0  0
 33 67  1  0  0  0  0
 33 70  1  0  0  0  0
 34 60  1  0  0  0  0
 34 77  2  0  0  0  0
 35 71  1  0  0  0  0
 35 78  2  0  0  0  0
 36 51  1  0  0  0  0
 36 73  1  0  0  0  0
 36 79  2  0  0  0  0
 37 61  1  0  0  0  0
 37 62  1  0  0  0  0
 37 80  2  0  0  0  0
 38 63  1  0  0  0  0
 38 68  1  0  0  0  0
 38 81  2  0  0  0  0
 39 64  1  0  0  0  0
 39 74  1  0  0  0  0
 39 82  2  0  0  0  0
 40 69  1  0  0  0  0
 40 75  1  0  0  0  0
 40 83  2  0  0  0  0
 41 44  1  0  0  0  0
 42 51  1  0  0  0  0
 43 68  1  0  0  0  0
 44 46  1  0  0  0  0
 45 47  1  0  0  0  0
 45 48  1  0  0  0  0
 46 50  1  0  0  0  0
 47 52  1  0  0  0  0
 48 69  1  0  0  0  0
 49 52  1  0  0  0  0
 49 69  1  0  0  0  0
 50 73  1  0  0  0  0
 51 68  1  0  0  0  0
 52 67  1  0  0  0  0
 53 60  1  0  0  0  0
 54 64  1  0  0  0  0
 55 65  1  0  0  0  0
 56 65  1  0  0  0  0
 57 65  1  0  0  0  0
 58 76  1  0  0  0  0
 59 75  1  0  0  0  0
 61 72  1  0  0  0  0
 62 85  1  0  0  0  0
 63 65  1  0  0  0  0
 63 74  1  0  0  0  0
 64 76  1  0  0  0  0
 66 67  1  0  0  0  0
M  CHG  1  76   1
M  ISO  4  40 100  62 101  75 100  85 101
M  END
> <Batch ID>
0165

> <Smiles>
CCC(=O)c1c(C[100NH:0][100C:0](=O)N2CCCC(n3nc(-c4ccc(Oc5ccc(F)cc5F)cc4)c(C(N)=O)c3N)C2)ccc(F)c1NCC(=O)[101CH2:1][101O:1]c1ccc2c(c1)CN(C(=O)C(NC(=O)C(C)NC)C(C)(C)C)C(C(=O)NC1CCCc3ccccc31)C2

> <Shape>
0.182

> <Color>
0.184

> <Negative vol penalty>
0.000

$$$$

  -OEChem-04052304053D

 87 95  0     1  0  0  0  0  0999 V2000
  -27.6299  -34.4553   21.1729 C   0  0  0  0  0  0  0  0  0  0  0  0
  -27.6815  -33.1043   20.8448 C   0  0  0  0  0  0  0  0  0  0  0  0
  -31.2711  -19.5864   19.6894 C   0  0  0  0  0  0  0  0  0  0  0  0
  -23.0342   -9.9293   19.8718 C   0  0  0  0  0  0  0  0  0  0  0  0
  -23.9686   -9.6487   22.0821 C   0  0  0  0  0  0  0  0  0  0  0  0
  -26.7327  -34.9024   22.1420 C   0  0  0  0  0  0  0  0  0  0  0  0
  -26.8366  -32.1994   21.4865 C   0  0  0  0  0  0  0  0  0  0  0  0
  -24.2671  -27.2007   19.0541 C   0  0  0  0  0  0  0  0  0  0  0  0
  -31.5269  -18.4480   20.4536 C   0  0  0  0  0  0  0  0  0  0  0  0
  -30.0503  -20.2497   19.8131 C   0  0  0  0  0  0  0  0  0  0  0  0
  -22.3171   -8.7427   20.0243 C   0  0  0  0  0  0  0  0  0  0  0  0
  -23.2515   -8.4621   22.2346 C   0  0  0  0  0  0  0  0  0  0  0  0
  -24.6136  -25.8511   19.1000 C   0  0  0  0  0  0  0  0  0  0  0  0
  -20.0831   -7.5453   22.9704 C   0  0  0  0  0  0  0  0  0  0  0  0
  -19.4189   -7.3421   24.1800 C   0  0  0  0  0  0  0  0  0  0  0  0
  -23.0796  -25.5257   20.9330 C   0  0  0  0  0  0  0  0  0  0  0  0
  -20.7223   -5.3437   24.5601 C   0  0  0  0  0  0  0  0  0  0  0  0
  -23.8599  -10.3824   20.9007 C   0  0  0  0  0  0  0  0  0  0  0  0
  -29.3408  -18.6359   21.4651 C   0  0  0  0  0  0  0  0  0  0  0  0
  -24.1798  -12.9064   21.0868 C   0  0  0  0  0  0  0  0  0  0  0  0
  -25.8697  -34.0039   22.7889 C   0  0  0  0  0  0  0  0  0  0  0  0
  -23.3307  -27.7262   19.9560 C   0  0  0  0  0  0  0  0  0  0  0  0
  -25.9279  -32.6347   22.4661 C   0  0  0  0  0  0  0  0  0  0  0  0
  -22.7210  -26.8818   20.8949 C   0  0  0  0  0  0  0  0  0  0  0  0
  -30.5617  -17.9727   21.3414 C   0  0  0  0  0  0  0  0  0  0  0  0
  -29.0851  -19.7744   20.7009 C   0  0  0  0  0  0  0  0  0  0  0  0
  -22.4258   -8.0090   21.2056 C   0  0  0  0  0  0  0  0  0  0  0  0
  -24.0220  -25.0140   20.0414 C   0  0  0  0  0  0  0  0  0  0  0  0
  -21.0669   -6.6476   22.5556 C   0  0  0  0  0  0  0  0  0  0  0  0
  -19.7385   -6.2414   24.9749 C   0  0  0  0  0  0  0  0  0  0  0  0
  -21.3865   -5.5469   23.3505 C   0  0  0  0  0  0  0  0  0  0  0  0
  -24.6013  -11.6078   20.7436 C   0  0  0  0  0  0  0  0  0  0  0  0
  -25.2372  -13.7127   20.7431 C   0  0  0  0  0  0  0  0  0  0  0  0
  -28.3336  -18.1341   22.3954 C   0  0  0  0  0  0  0  0  0  0  0  0
  -22.9430  -13.3445   21.6648 C   0  0  0  0  0  0  0  0  0  0  0  0
  -23.4089  -29.9414   22.2343 C   0  0  0  0  0  0  0  0  0  0  0  0
  -26.1580  -22.1043   20.4082 C   0  0  0  0  0  0  0  0  0  0  0  0
  -20.2160  -29.3803   22.3478 C   0  0  0  0  0  0  0  0  0  0  0  0
  -17.6279  -27.2375   21.7506 C   0  0  0  0  0  0  0  0  0  0  0  0
  -30.7144  -14.7789   20.6470 C   0  0  0  0  0  0  0  0  0  0  0  0
  -24.9498  -34.5271   23.8636 C   0  0  0  0  0  0  0  0  0  0  0  0
  -22.9478  -29.1786   19.8760 C   0  0  0  0  0  0  0  0  0  0  0  0
  -21.6949  -27.3924   21.8721 C   0  0  0  0  0  0  0  0  0  0  0  0
  -23.8272  -33.5592   24.2288 C   0  0  0  0  0  0  0  0  0  0  0  0
  -29.4072  -12.7091   18.0617 C   0  0  0  0  0  0  0  0  0  0  0  0
  -24.3782  -32.1494   24.4177 C   0  0  0  0  0  0  0  0  0  0  0  0
  -28.0088  -12.3404   18.5601 C   0  0  0  0  0  0  0  0  0  0  0  0
  -30.4132  -12.7851   19.2081 C   0  0  0  0  0  0  0  0  0  0  0  0
  -28.6206  -13.3014   20.8187 C   0  0  0  0  0  0  0  0  0  0  0  0
  -25.0103  -31.6260   23.1223 C   0  0  1  0  0  0  0  0  0  0  0  0
  -22.3635  -29.7151   21.1791 C   0  0  1  0  0  0  0  0  0  0  0  0
  -27.5594  -13.2674   19.7056 C   0  0  2  0  0  0  0  0  0  0  0  0
  -27.8122  -17.6484   24.8426 C   0  0  0  0  0  0  0  0  0  0  0  0
  -15.1366  -27.0447   21.9819 C   0  0  0  0  0  0  0  0  0  0  0  0
  -20.5339  -28.8986   25.3440 C   0  0  0  0  0  0  0  0  0  0  0  0
  -18.2801  -27.8083   25.3371 C   0  0  0  0  0  0  0  0  0  0  0  0
  -18.5028  -30.2120   24.7082 C   0  0  0  0  0  0  0  0  0  0  0  0
  -17.2643  -26.9284   18.8298 C   0  0  0  0  0  0  0  0  0  0  0  0
  -30.8654  -16.7508   22.1463 C   0  0  0  0  0  0  0  0  0  0  0  0
  -28.3487  -18.6548   23.8367 C   0  0  0  0  0  0  0  0  0  0  0  0
  -27.5504  -21.6306   20.0491 C   0  0  0  0  0  0  0  0  0  0  0  0
  -25.6830  -23.3496   19.6851 C   0  0  0  0  0  0  0  0  0  1  0  0
  -19.3237  -28.4319   23.1115 C   0  0  1  0  0  0  0  0  0  0  0  0
  -16.2867  -27.4429   21.0700 C   0  0  2  0  0  0  0  0  0  0  0  0
  -19.1809  -28.8282   24.6082 C   0  0  0  0  0  0  0  0  0  0  0  0
  -25.8306  -11.5858   20.2217 N   0  0  0  0  0  0  0  0  0  0  0  0
  -26.1906  -12.8806   20.2343 N   0  0  0  0  0  0  0  0  0  0  0  0
  -21.3587  -28.8212   21.7583 N   0  0  0  0  0  0  0  0  0  0  0  0
  -29.9278  -13.6813   20.2603 N   0  0  0  0  0  0  0  0  0  0  0  0
  -25.4352  -15.0453   20.8293 N   0  0  0  0  0  0  0  0  0  0  0  0
  -21.9643  -12.3844   21.9559 N   0  0  0  0  0  0  0  0  0  0  0  0
  -27.8781  -20.4505   20.8075 N   0  0  0  0  0  0  0  0  0  0  0  0
  -23.9840  -31.1973   22.1964 N   0  0  0  0  0  0  0  0  0  0  0  0
  -18.0607  -28.3838   22.3830 N   0  0  0  0  0  0  0  0  0  0  0  0
  -30.1776  -15.5813   21.6464 N   0  0  0  0  0  0  0  0  0  0  0  0
  -16.2059  -26.6246   19.8271 N   0  3  0  0  0  0  0  0  0  0  0  0
  -27.4712  -17.3064   22.0668 O   0  0  0  0  0  0  0  0  0  0  0  0
  -22.7062  -14.5536   21.9006 O   0  0  0  0  0  0  0  0  0  0  0  0
  -23.6733  -29.0435   23.0252 O   0  0  0  0  0  0  0  0  0  0  0  0
  -25.4499  -21.5254   21.2311 O   0  0  0  0  0  0  0  0  0  0  0  0
  -19.9068  -30.5720   22.2710 O   0  0  0  0  0  0  0  0  0  0  0  0
  -18.2297  -26.1661   21.7271 O   0  0  0  0  0  0  0  0  0  0  0  0
  -31.8112  -15.0286   20.1355 O   0  0  0  0  0  0  0  0  0  0  0  0
  -21.7260   -6.8512   21.3549 O   0  0  0  0  0  0  0  0  0  0  0  0
  -24.3590  -23.6963   20.0888 O   0  0  0  0  0  0  0  0  0  1  0  0
  -19.1016   -6.0473   26.1371 F   0  0  0  0  0  0  0  0  0  0  0  0
  -22.3316   -4.6817   22.9578 F   0  0  0  0  0  0  0  0  0  0  0  0
  1  2  1  0  0  0  0
  1  6  2  0  0  0  0
  2  7  2  0  0  0  0
  3  9  1  0  0  0  0
  3 10  2  0  0  0  0
  4 11  2  0  0  0  0
  4 18  1  0  0  0  0
  5 12  1  0  0  0  0
  5 18  2  0  0  0  0
  6 21  1  0  0  0  0
  7 23  1  0  0  0  0
  8 13  2  0  0  0  0
  8 22  1  0  0  0  0
  9 25  2  0  0  0  0
 10 26  1  0  0  0  0
 11 27  1  0  0  0  0
 12 27  2  0  0  0  0
 13 28  1  0  0  0  0
 14 15  2  0  0  0  0
 14 29  1  0  0  0  0
 15 30  1  0  0  0  0
 16 24  1  0  0  0  0
 16 28  2  0  0  0  0
 17 30  2  0  0  0  0
 17 31  1  0  0  0  0
 18 32  1  0  0  0  0
 19 25  1  0  0  0  0
 19 26  2  0  0  0  0
 19 34  1  0  0  0  0
 20 32  1  0  0  0  0
 20 33  2  0  0  0  0
 20 35  1  0  0  0  0
 21 23  2  0  0  0  0
 21 41  1  0  0  0  0
 22 24  2  0  0  0  0
 22 42  1  0  0  0  0
 23 50  1  0  0  0  0
 24 43  1  0  0  0  0
 25 59  1  0  0  0  0
 26 72  1  0  0  0  0
 27 84  1  0  0  0  0
 28 85  1  0  0  0  0
 29 31  2  0  0  0  0
 29 84  1  0  0  0  0
 30 86  1  0  0  0  0
 31 87  1  0  0  0  0
 32 66  2  0  0  0  0
 33 67  1  0  0  0  0
 33 70  1  0  0  0  0
 34 60  1  0  0  0  0
 34 77  2  0  0  0  0
 35 71  1  0  0  0  0
 35 78  2  0  0  0  0
 36 51  1  0  0  0  0
 36 73  1  0  0  0  0
 36 79  2  0  0  0  0
 37 61  1  0  0  0  0
 37 62  1  0  0  0  0
 37 80  2  0  0  0  0
 38 63  1  0  0  0  0
 38 68  1  0  0  0  0
 38 81  2  0  0  0  0
 39 64  1  0  0  0  0
 39 74  1  0  0  0  0
 39 82  2  0  0  0  0
 40 69  1  0  0  0  0
 40 75  1  0  0  0  0
 40 83  2  0  0  0  0
 41 44  1  0  0  0  0
 42 51  1  0  0  0  0
 43 68  1  0  0  0  0
 44 46  1  0  0  0  0
 45 47  1  0  0  0  0
 45 48  1  0  0  0  0
 46 50  1  0  0  0  0
 47 52  1  0  0  0  0
 48 69  1  0  0  0  0
 49 52  1  0  0  0  0
 49 69  1  0  0  0  0
 50 73  1  0  0  0  0
 51 68  1  0  0  0  0
 52 67  1  0  0  0  0
 53 60  1  0  0  0  0
 54 64  1  0  0  0  0
 55 65  1  0  0  0  0
 56 65  1  0  0  0  0
 57 65  1  0  0  0  0
 58 76  1  0  0  0  0
 59 75  1  0  0  0  0
 61 72  1  0  0  0  0
 62 85  1  0  0  0  0
 63 65  1  0  0  0  0
 63 74  1  0  0  0  0
 64 76  1  0  0  0  0
 66 67  1  0  0  0  0
M  CHG  1  76   1
M  ISO  4  40 100  62 101  75 100  85 101
M  END
> <Batch ID>
0165

> <Smiles>
CCC(=O)c1c(C[100NH:0][100C:0](=O)N2CCCC(n3nc(-c4ccc(Oc5ccc(F)cc5F)cc4)c(C(N)=O)c3N)C2)cccc1NCC(=O)[101CH2:1][101O:1]c1ccc2c(c1)CN(C(=O)C(NC(=O)C(C)NC)C(C)(C)C)C(C(=O)NC1CCCc3ccccc31)C2

> <Shape>
0.375

> <Color>
0.187

> <Negative vol penalty>
0.000

$$$$

  -OEChem-04052304053D

 85 93  0     1  0  0  0  0  0999 V2000
  -16.7640  -29.1949   24.5986 C   0  0  0  0  0  0  0  0  0  0  0  0
  -17.8053  -28.2729   24.6308 C   0  0  0  0  0  0  0  0  0  0  0  0
  -23.0894   -9.8065   20.0147 C   0  0  0  0  0  0  0  0  0  0  0  0
  -23.7552   -9.9787   22.3308 C   0  0  0  0  0  0  0  0  0  0  0  0
  -16.7459  -30.1905   23.6227 C   0  0  0  0  0  0  0  0  0  0  0  0
  -18.8285  -28.3453   23.6863 C   0  0  0  0  0  0  0  0  0  0  0  0
  -24.7414  -27.0073   24.5547 C   0  0  0  0  0  0  0  0  0  0  0  0
  -22.3226   -8.6818   20.3188 C   0  0  0  0  0  0  0  0  0  0  0  0
  -22.9883   -8.8540   22.6349 C   0  0  0  0  0  0  0  0  0  0  0  0
  -25.4971  -25.8703   24.2721 C   0  0  0  0  0  0  0  0  0  0  0  0
  -19.3085   -8.0215   21.7017 C   0  0  0  0  0  0  0  0  0  0  0  0
  -18.0220   -7.9503   21.1674 C   0  0  0  0  0  0  0  0  0  0  0  0
  -29.8447  -17.5559   22.9179 C   0  0  0  0  0  0  0  0  0  0  0  0
  -31.7837  -18.5198   23.9892 C   0  0  0  0  0  0  0  0  0  0  0  0
  -26.2157  -26.8709   22.1980 C   0  0  0  0  0  0  0  0  0  0  0  0
  -32.0410  -16.6479   22.4836 C   0  0  0  0  0  0  0  0  0  0  0  0
  -18.6125   -5.9089   20.0179 C   0  0  0  0  0  0  0  0  0  0  0  0
  -23.8058  -10.4550   21.0207 C   0  0  0  0  0  0  0  0  0  0  0  0
  -30.4053  -18.5012   23.7768 C   0  0  0  0  0  0  0  0  0  0  0  0
  -24.1817  -12.9610   20.7272 C   0  0  0  0  0  0  0  0  0  0  0  0
  -17.7745  -30.2810   22.6717 C   0  0  0  0  0  0  0  0  0  0  0  0
  -24.7084  -28.0820   23.6544 C   0  0  0  0  0  0  0  0  0  0  0  0
  -18.8235  -29.3422   22.6959 C   0  0  0  0  0  0  0  0  0  0  0  0
  -25.4608  -28.0214   22.4727 C   0  0  0  0  0  0  0  0  0  0  0  0
  -30.6625  -16.6292   22.2713 C   0  0  0  0  0  0  0  0  0  0  0  0
  -22.2720   -8.2055   21.6288 C   0  0  0  0  0  0  0  0  0  0  0  0
  -26.2321  -25.8008   23.0922 C   0  0  0  0  0  0  0  0  0  0  0  0
  -20.2470   -7.0364   21.3941 C   0  0  0  0  0  0  0  0  0  0  0  0
  -17.6740   -6.8940   20.3255 C   0  0  0  0  0  0  0  0  0  0  0  0
  -32.6016  -17.5931   23.3426 C   0  0  0  0  0  0  0  0  0  0  0  0
  -19.8990   -5.9801   20.5522 C   0  0  0  0  0  0  0  0  0  0  0  0
  -24.5986  -11.6165   20.7072 C   0  0  0  0  0  0  0  0  0  0  0  0
  -25.2964  -13.6717   20.3548 C   0  0  0  0  0  0  0  0  0  0  0  0
  -29.5398  -19.4816   24.4626 C   0  0  0  0  0  0  0  0  0  0  0  0
  -22.9013  -13.5176   21.0534 C   0  0  0  0  0  0  0  0  0  0  0  0
  -22.4382  -29.5106   21.9489 C   0  0  0  0  0  0  0  0  0  0  0  0
  -27.8303  -22.4877   23.3345 C   0  0  0  0  0  0  0  0  0  0  0  0
  -24.8281  -31.5814   21.2260 C   0  0  0  0  0  0  0  0  0  0  0  0
  -28.1809  -32.1504   20.9396 C   0  0  0  0  0  0  0  0  0  0  0  0
  -30.7628  -14.6805   20.6780 C   0  0  0  0  0  0  0  0  0  0  0  0
  -17.6871  -31.3456   21.6069 C   0  0  0  0  0  0  0  0  0  0  0  0
  -23.9095  -29.3123   23.9866 C   0  0  0  0  0  0  0  0  0  0  0  0
  -25.4753  -29.1564   21.4828 C   0  0  0  0  0  0  0  0  0  0  0  0
  -19.0043  -31.5822   20.8726 C   0  0  0  0  0  0  0  0  0  0  0  0
  -29.7178  -12.1057   18.4519 C   0  0  0  0  0  0  0  0  0  0  0  0
  -19.6375  -30.2539   20.4706 C   0  0  0  0  0  0  0  0  0  0  0  0
  -28.2585  -11.8595   18.8418 C   0  0  0  0  0  0  0  0  0  0  0  0
  -30.5857  -12.4160   19.6701 C   0  0  0  0  0  0  0  0  0  0  0  0
  -28.6326  -13.2583   20.9132 C   0  0  0  0  0  0  0  0  0  0  0  0
  -19.9645  -29.4031   21.7038 C   0  0  1  0  0  0  0  0  0  0  0  0
  -23.5408  -30.1355   22.7562 C   0  0  1  0  0  0  0  0  0  0  0  0
  -27.7067  -13.0056   19.7122 C   0  0  2  0  0  0  0  0  0  0  0  0
  -29.8289  -33.9282   20.2910 C   0  0  0  0  0  0  0  0  0  0  0  0
  -24.1876  -31.0978   18.2823 C   0  0  0  0  0  0  0  0  0  0  0  0
  -26.4048  -32.1078   17.7058 C   0  0  0  0  0  0  0  0  0  0  0  0
  -24.6748  -33.4803   18.8661 C   0  0  0  0  0  0  0  0  0  0  0  0
  -29.4081  -32.1586   23.6327 C   0  0  0  0  0  0  0  0  0  0  0  0
  -27.8969  -21.3158   24.2785 C   0  0  0  0  0  0  0  0  0  0  0  0
  -26.9457  -23.6371   23.7745 C   0  0  0  0  0  0  0  0  0  1  0  0
  -25.8808  -31.6646   20.1471 C   0  0  1  0  0  0  0  0  0  0  0  0
  -29.0552  -33.2889   21.4335 C   0  0  2  0  0  0  0  0  0  0  0  0
  -25.2854  -32.0653   18.7679 C   0  0  0  0  0  0  0  0  0  0  0  0
  -25.8783  -11.4788   20.3501 N   0  0  0  0  0  0  0  0  0  0  0  0
  -26.2751  -12.7458   20.1422 N   0  0  0  0  0  0  0  0  0  0  0  0
  -24.6732  -30.3353   21.8496 N   0  0  0  0  0  0  0  0  0  0  0  0
  -30.0035  -13.5144   20.4443 N   0  0  0  0  0  0  0  0  0  0  0  0
  -25.5252  -14.9921   20.1916 N   0  0  0  0  0  0  0  0  0  0  0  0
  -21.8659  -12.6450   21.4152 N   0  0  0  0  0  0  0  0  0  0  0  0
  -30.0934  -15.6698   21.3976 N   0  0  0  0  0  0  0  0  0  0  0  0
  -28.7980  -20.3221   23.7196 N   0  0  0  0  0  0  0  0  0  0  0  0
  -21.1687  -29.8853   22.3456 N   0  0  0  0  0  0  0  0  0  0  0  0
  -26.9037  -32.5782   20.6445 N   0  0  0  0  0  0  0  0  0  0  0  0
  -29.5348  -19.4910   25.7957 N   0  3  0  0  0  0  0  0  0  0  0  0
  -30.0326  -32.7912   22.4425 N   0  3  0  0  0  0  0  0  0  0  0  0
  -22.6773  -14.7511   21.0091 O   0  0  0  0  0  0  0  0  0  0  0  0
  -22.7186  -28.7464   21.0329 O   0  0  0  0  0  0  0  0  0  0  0  0
  -28.4508  -22.5175   22.2727 O   0  0  0  0  0  0  0  0  0  0  0  0
  -24.1725  -32.5870   21.5101 O   0  0  0  0  0  0  0  0  0  0  0  0
  -28.5910  -30.9977   20.8234 O   0  0  0  0  0  0  0  0  0  0  0  0
  -31.9119  -14.8040   20.2464 O   0  0  0  0  0  0  0  0  0  0  0  0
  -21.5236   -7.1081   21.9260 O   0  0  0  0  0  0  0  0  0  0  0  0
  -26.9701  -24.6919   22.8136 O   0  0  0  0  0  0  0  0  0  1  0  0
  -16.4381   -6.8249   19.8137 F   0  0  0  0  0  0  0  0  0  0  0  0
  -33.9253  -17.6111   23.5466 F   0  0  0  0  0  0  0  0  0  0  0  0
  -20.7959   -5.0302   20.2540 F   0  0  0  0  0  0  0  0  0  0  0  0
  1  2  1  0  0  0  0
  1  5  2  0  0  0  0
  2  6  2  0  0  0  0
  3  8  2  0  0  0  0
  3 18  1  0  0  0  0
  4  9  1  0  0  0  0
  4 18  2  0  0  0  0
  5 21  1  0  0  0  0
  6 23  1  0  0  0  0
  7 10  2  0  0  0  0
  7 22  1  0  0  0  0
  8 26  1  0  0  0  0
  9 26  2  0  0  0  0
 10 27  1  0  0  0  0
 11 12  2  0  0  0  0
 11 28  1  0  0  0  0
 12 29  1  0  0  0  0
 13 19  2  0  0  0  0
 13 25  1  0  0  0  0
 14 19  1  0  0  0  0
 14 30  2  0  0  0  0
 15 24  1  0  0  0  0
 15 27  2  0  0  0  0
 16 25  2  0  0  0  0
 16 30  1  0  0  0  0
 17 29  2  0  0  0  0
 17 31  1  0  0  0  0
 18 32  1  0  0  0  0
 19 34  1  0  0  0  0
 20 32  1  0  0  0  0
 20 33  2  0  0  0  0
 20 35  1  0  0  0  0
 21 23  2  0  0  0  0
 21 41  1  0  0  0  0
 22 24  2  0  0  0  0
 22 42  1  0  0  0  0
 23 50  1  0  0  0  0
 24 43  1  0  0  0  0
 25 69  1  0  0  0  0
 26 81  1  0  0  0  0
 27 82  1  0  0  0  0
 28 31  2  0  0  0  0
 28 81  1  0  0  0  0
 29 83  1  0  0  0  0
 30 84  1  0  0  0  0
 31 85  1  0  0  0  0
 32 63  2  0  0  0  0
 33 64  1  0  0  0  0
 33 67  1  0  0  0  0
 34 70  1  0  0  0  0
 34 73  2  0  0  0  0
 35 68  1  0  0  0  0
 35 75  2  0  0  0  0
 36 51  1  0  0  0  0
 36 71  1  0  0  0  0
 36 76  2  0  0  0  0
 37 58  1  0  0  0  0
 37 59  1  0  0  0  0
 37 77  2  0  0  0  0
 38 60  1  0  0  0  0
 38 65  1  0  0  0  0
 38 78  2  0  0  0  0
 39 61  1  0  0  0  0
 39 72  1  0  0  0  0
 39 79  2  0  0  0  0
 40 66  1  0  0  0  0
 40 69  1  0  0  0  0
 40 80  2  0  0  0  0
 41 44  1  0  0  0  0
 42 51  1  0  0  0  0
 43 65  1  0  0  0  0
 44 46  1  0  0  0  0
 45 47  1  0  0  0  0
 45 48  1  0  0  0  0
 46 50  1  0  0  0  0
 47 52  1  0  0  0  0
 48 66  1  0  0  0  0
 49 52  1  0  0  0  0
 49 66  1  0  0  0  0
 50 71  1  0  0  0  0
 51 65  1  0  0  0  0
 52 64  1  0  0  0  0
 53 61  1  0  0  0  0
 54 62  1  0  0  0  0
 55 62  1  0  0  0  0
 56 62  1  0  0  0  0
 57 74  1  0  0  0  0
 58 70  1  0  0  0  0
 59 82  1  0  0  0  0
 60 62  1  0  0  0  0
 60 72  1  0  0  0  0
 61 74  1  0  0  0  0
 63 64  1  0  0  0  0
M  CHG  2  73   1  74   1
M  ISO  4  40 100  59 101  69 100  82 101
M  END
> <Batch ID>
0165

> <Smiles>
CNC(C)C(=O)NC(C(=O)N1Cc2cc([101O:1][101CH2:1]C(=O)CNC(=N)c3cc(F)cc([100NH:0][100C:0](=O)N4CCCC(n5nc(-c6ccc(Oc7ccc(F)cc7F)cc6)c(C(N)=O)c5N)C4)c3)ccc2CC1C(=O)NC1CCCc2ccccc21)C(C)(C)C

> <Shape>
0.250

> <Color>
0.219

> <Negative vol penalty>
0.000

$$$$

  -OEChem-04052304053D

 84 92  0     1  0  0  0  0  0999 V2000
  -31.8776  -35.6538   24.6530 C   0  0  0  0  0  0  0  0  0  0  0  0
  -31.7702  -34.3039   24.3343 C   0  0  0  0  0  0  0  0  0  0  0  0
  -24.1739   -9.9659   22.3722 C   0  0  0  0  0  0  0  0  0  0  0  0
  -24.6747  -11.6805   23.9990 C   0  0  0  0  0  0  0  0  0  0  0  0
  -30.8359  -36.2962   25.3210 C   0  0  0  0  0  0  0  0  0  0  0  0
  -30.6215  -33.5953   24.6844 C   0  0  0  0  0  0  0  0  0  0  0  0
  -28.9352  -30.6494   20.9263 C   0  0  0  0  0  0  0  0  0  0  0  0
  -23.8119   -9.0959   23.4005 C   0  0  0  0  0  0  0  0  0  0  0  0
  -24.3127  -10.8104   25.0274 C   0  0  0  0  0  0  0  0  0  0  0  0
  -29.6042  -29.4450   20.7122 C   0  0  0  0  0  0  0  0  0  0  0  0
  -21.1434   -8.5946   25.4157 C   0  0  0  0  0  0  0  0  0  0  0  0
  -19.9693   -7.8581   25.2586 C   0  0  0  0  0  0  0  0  0  0  0  0
  -27.8689  -28.2749   21.9116 C   0  0  0  0  0  0  0  0  0  0  0  0
  -27.9034  -19.3919   19.0064 C   0  0  0  0  0  0  0  0  0  0  0  0
  -30.2888  -19.0700   18.7985 C   0  0  0  0  0  0  0  0  0  0  0  0
  -21.2346   -5.8063   25.4206 C   0  0  0  0  0  0  0  0  0  0  0  0
  -24.6054  -11.2582   22.6714 C   0  0  0  0  0  0  0  0  0  0  0  0
  -24.1427  -13.0554   20.9210 C   0  0  0  0  0  0  0  0  0  0  0  0
  -29.6698  -35.5974   25.6709 C   0  0  0  0  0  0  0  0  0  0  0  0
  -27.7316  -30.6770   21.6453 C   0  0  0  0  0  0  0  0  0  0  0  0
  -29.5638  -34.2286   25.3589 C   0  0  0  0  0  0  0  0  0  0  0  0
  -27.1853  -29.4805   22.1313 C   0  0  0  0  0  0  0  0  0  0  0  0
  -29.0012  -18.5403   18.8836 C   0  0  0  0  0  0  0  0  0  0  0  0
  -29.3806  -21.3031   18.9591 C   0  0  0  0  0  0  0  0  0  0  0  0
  -23.8813   -9.5181   24.7281 C   0  0  0  0  0  0  0  0  0  0  0  0
  -29.0725  -28.2579   21.2074 C   0  0  0  0  0  0  0  0  0  0  0  0
  -22.3632   -7.9369   25.5752 C   0  0  0  0  0  0  0  0  0  0  0  0
  -20.0149   -6.4640   25.2611 C   0  0  0  0  0  0  0  0  0  0  0  0
  -28.0931  -20.7733   19.0442 C   0  0  0  0  0  0  0  0  0  0  0  0
  -30.4785  -20.4514   18.8363 C   0  0  0  0  0  0  0  0  0  0  0  0
  -22.4088   -6.5428   25.5777 C   0  0  0  0  0  0  0  0  0  0  0  0
  -24.9800  -12.1572   21.6095 C   0  0  0  0  0  0  0  0  0  0  0  0
  -24.9715  -13.6728   20.0164 C   0  0  0  0  0  0  0  0  0  0  0  0
  -22.7410  -13.3090   21.0846 C   0  0  0  0  0  0  0  0  0  0  0  0
  -26.7671  -32.0329   24.3536 C   0  0  0  0  0  0  0  0  0  0  0  0
  -29.5884  -24.8677   20.0228 C   0  0  0  0  0  0  0  0  0  0  0  0
  -23.8759  -30.8735   23.4487 C   0  0  0  0  0  0  0  0  0  0  0  0
  -22.1112  -28.5812   21.6381 C   0  0  0  0  0  0  0  0  0  0  0  0
  -29.7870  -16.1520   18.7251 C   0  0  0  0  0  0  0  0  0  0  0  0
  -28.5902  -36.3230   26.4342 C   0  0  0  0  0  0  0  0  0  0  0  0
  -27.0086  -31.9808   21.8446 C   0  0  0  0  0  0  0  0  0  0  0  0
  -25.8856  -29.4536   22.8919 C   0  0  0  0  0  0  0  0  0  0  0  0
  -27.2501  -35.5919   26.4373 C   0  0  0  0  0  0  0  0  0  0  0  0
  -29.7178  -12.5935   18.6272 C   0  0  0  0  0  0  0  0  0  0  0  0
  -27.4489  -34.1141   26.7589 C   0  0  0  0  0  0  0  0  0  0  0  0
  -28.4101  -12.2367   19.3377 C   0  0  0  0  0  0  0  0  0  0  0  0
  -30.3973  -13.8043   19.2644 C   0  0  0  0  0  0  0  0  0  0  0  0
  -28.2388  -14.6365   20.1114 C   0  0  0  0  0  0  0  0  0  0  0  0
  -28.3232  -33.4318   25.6999 C   0  0  1  0  0  0  0  0  0  0  0  0
  -26.0530  -31.9584   23.0336 C   0  0  1  0  0  0  0  0  0  0  0  0
  -27.4850  -13.4629   19.4648 C   0  0  2  0  0  0  0  0  0  0  0  0
  -19.7626  -27.8594   21.1279 C   0  0  0  0  0  0  0  0  0  0  0  0
  -23.6935  -29.5399   26.1870 C   0  0  0  0  0  0  0  0  0  0  0  0
  -21.8509  -28.1034   25.2874 C   0  0  0  0  0  0  0  0  0  0  0  0
  -21.5634  -30.5792   25.3889 C   0  0  0  0  0  0  0  0  0  0  0  0
  -22.4408  -29.1470   18.7518 C   0  0  0  0  0  0  0  0  0  0  0  0
  -28.8349  -23.5645   19.8612 C   0  0  0  0  0  0  0  0  0  0  0  0
  -28.9234  -25.9032   20.9087 C   0  0  0  0  0  0  0  0  0  1  0  0
  -23.1253  -29.5823   23.6688 C   0  0  1  0  0  0  0  0  0  0  0  0
  -20.9297  -28.7342   20.6973 C   0  0  2  0  0  0  0  0  0  0  0  0
  -22.5838  -29.4516   25.1204 C   0  0  0  0  0  0  0  0  0  0  0  0
  -26.2437  -12.1972   21.1791 N   0  0  0  0  0  0  0  0  0  0  0  0
  -26.2067  -13.1279   20.2103 N   0  0  0  0  0  0  0  0  0  0  0  0
  -25.2196  -30.7549   23.0664 N   0  0  0  0  0  0  0  0  0  0  0  0
  -29.4622  -14.9283   19.3478 N   0  0  0  0  0  0  0  0  0  0  0  0
  -24.7569  -14.6231   19.0819 N   0  0  0  0  0  0  0  0  0  0  0  0
  -22.0408  -12.5866   22.0604 N   0  0  0  0  0  0  0  0  0  0  0  0
  -28.8072  -17.1372   18.8436 N   0  0  0  0  0  0  0  0  0  0  0  0
  -29.5689  -22.6773   18.9956 N   0  0  0  0  0  0  0  0  0  0  0  0
  -27.5515  -33.1602   24.5060 N   0  0  0  0  0  0  0  0  0  0  0  0
  -22.0933  -29.5294   22.6390 N   0  0  0  0  0  0  0  0  0  0  0  0
  -21.3184  -28.3503   19.3108 N   0  3  0  0  0  0  0  0  0  0  0  0
  -22.1243  -14.1394   20.3750 O   0  0  0  0  0  0  0  0  0  0  0  0
  -26.6163  -31.1349   25.1736 O   0  0  0  0  0  0  0  0  0  0  0  0
  -30.6693  -25.0834   19.4762 O   0  0  0  0  0  0  0  0  0  0  0  0
  -23.2895  -31.9477   23.6032 O   0  0  0  0  0  0  0  0  0  0  0  0
  -22.9628  -27.7057   21.5010 O   0  0  0  0  0  0  0  0  0  0  0  0
  -30.8437  -16.3053   18.1071 O   0  0  0  0  0  0  0  0  0  0  0  0
  -23.5279   -8.6695   25.7319 O   0  0  0  0  0  0  0  0  0  0  0  0
  -29.7238  -27.0811   21.0004 O   0  0  0  0  0  0  0  0  0  1  0  0
  -18.8871   -5.7569   25.1118 F   0  0  0  0  0  0  0  0  0  0  0  0
  -27.0311  -21.5830   19.1617 F   0  0  0  0  0  0  0  0  0  0  0  0
  -31.7202  -20.9500   18.7525 F   0  0  0  0  0  0  0  0  0  0  0  0
  -23.5774   -5.9054   25.7317 F   0  0  0  0  0  0  0  0  0  0  0  0
  1  2  1  0  0  0  0
  1  5  2  0  0  0  0
  2  6  2  0  0  0  0
  3  8  2  0  0  0  0
  3 17  1  0  0  0  0
  4  9  1  0  0  0  0
  4 17  2  0  0  0  0
  5 19  1  0  0  0  0
  6 21  1  0  0  0  0
  7 10  2  0  0  0  0
  7 20  1  0  0  0  0
  8 25  1  0  0  0  0
  9 25  2  0  0  0  0
 10 26  1  0  0  0  0
 11 12  2  0  0  0  0
 11 27  1  0  0  0  0
 12 28  1  0  0  0  0
 13 22  1  0  0  0  0
 13 26  2  0  0  0  0
 14 23  1  0  0  0  0
 14 29  2  0  0  0  0
 15 23  2  0  0  0  0
 15 30  1  0  0  0  0
 16 28  2  0  0  0  0
 16 31  1  0  0  0  0
 17 32  1  0  0  0  0
 18 32  1  0  0  0  0
 18 33  2  0  0  0  0
 18 34  1  0  0  0  0
 19 21  2  0  0  0  0
 19 40  1  0  0  0  0
 20 22  2  0  0  0  0
 20 41  1  0  0  0  0
 21 49  1  0  0  0  0
 22 42  1  0  0  0  0
 23 68  1  0  0  0  0
 24 29  1  0  0  0  0
 24 30  2  0  0  0  0
 24 69  1  0  0  0  0
 25 79  1  0  0  0  0
 26 80  1  0  0  0  0
 27 31  2  0  0  0  0
 27 79  1  0  0  0  0
 28 81  1  0  0  0  0
 29 82  1  0  0  0  0
 30 83  1  0  0  0  0
 31 84  1  0  0  0  0
 32 62  2  0  0  0  0
 33 63  1  0  0  0  0
 33 66  1  0  0  0  0
 34 67  1  0  0  0  0
 34 73  2  0  0  0  0
 35 50  1  0  0  0  0
 35 70  1  0  0  0  0
 35 74  2  0  0  0  0
 36 57  1  0  0  0  0
 36 58  1  0  0  0  0
 36 75  2  0  0  0  0
 37 59  1  0  0  0  0
 37 64  1  0  0  0  0
 37 76  2  0  0  0  0
 38 60  1  0  0  0  0
 38 71  1  0  0  0  0
 38 77  2  0  0  0  0
 39 65  1  0  0  0  0
 39 68  1  0  0  0  0
 39 78  2  0  0  0  0
 40 43  1  0  0  0  0
 41 50  1  0  0  0  0
 42 64  1  0  0  0  0
 43 45  1  0  0  0  0
 44 46  1  0  0  0  0
 44 47  1  0  0  0  0
 45 49  1  0  0  0  0
 46 51  1  0  0  0  0
 47 65  1  0  0  0  0
 48 51  1  0  0  0  0
 48 65  1  0  0  0  0
 49 70  1  0  0  0  0
 50 64  1  0  0  0  0
 51 63  1  0  0  0  0
 52 60  1  0  0  0  0
 53 61  1  0  0  0  0
 54 61  1  0  0  0  0
 55 61  1  0  0  0  0
 56 72  1  0  0  0  0
 57 69  1  0  0  0  0
 58 80  1  0  0  0  0
 59 61  1  0  0  0  0
 59 71  1  0  0  0  0
 60 72  1  0  0  0  0
 62 63  1  0  0  0  0
M  CHG  1  72   1
M  ISO  4  39 100  58 101  68 100  80 101
M  END
> <Batch ID>
0165

> <Smiles>
CNC(C)C(=O)NC(C(=O)N1Cc2cc([101O:1][101CH2:1]C(=O)CNc3c(F)cc([100NH:0][100C:0](=O)N4CCCC(n5nc(-c6ccc(Oc7ccc(F)cc7F)cc6)c(C(N)=O)c5N)C4)cc3F)ccc2CC1C(=O)NC1CCCc2ccccc21)C(C)(C)C

> <Shape>
0.287

> <Color>
0.124

> <Negative vol penalty>
0.000

$$$$

  -OEChem-04052304053D

 86 94  0     1  0  0  0  0  0999 V2000
  -26.7502  -35.2917   23.8420 C   0  0  0  0  0  0  0  0  0  0  0  0
  -27.3210  -34.1021   24.2830 C   0  0  0  0  0  0  0  0  0  0  0  0
  -23.0030   -9.8878   19.9787 C   0  0  0  0  0  0  0  0  0  0  0  0
  -23.7289   -9.9390   22.2825 C   0  0  0  0  0  0  0  0  0  0  0  0
  -26.3816  -35.4330   22.5048 C   0  0  0  0  0  0  0  0  0  0  0  0
  -27.5225  -33.0527   23.3873 C   0  0  0  0  0  0  0  0  0  0  0  0
  -32.1494  -29.0404   23.3981 C   0  0  0  0  0  0  0  0  0  0  0  0
  -22.2389   -8.7516   20.2447 C   0  0  0  0  0  0  0  0  0  0  0  0
  -22.9648   -8.8028   22.5486 C   0  0  0  0  0  0  0  0  0  0  0  0
  -32.2595  -27.7370   23.8805 C   0  0  0  0  0  0  0  0  0  0  0  0
  -21.4900   -5.7061   23.7508 C   0  0  0  0  0  0  0  0  0  0  0  0
  -22.0784   -4.6911   24.5052 C   0  0  0  0  0  0  0  0  0  0  0  0
  -29.7514  -17.7003   22.6726 C   0  0  0  0  0  0  0  0  0  0  0  0
  -31.7669  -26.8865   21.6775 C   0  0  0  0  0  0  0  0  0  0  0  0
  -23.8046   -4.4483   22.8324 C   0  0  0  0  0  0  0  0  0  0  0  0
  -23.7481  -10.4815   20.9976 C   0  0  0  0  0  0  0  0  0  0  0  0
  -30.2391  -18.9360   23.0831 C   0  0  0  0  0  0  0  0  0  0  0  0
  -24.1282  -12.9980   20.8228 C   0  0  0  0  0  0  0  0  0  0  0  0
  -26.5877  -34.3882   21.5901 C   0  0  0  0  0  0  0  0  0  0  0  0
  -31.8359  -29.2770   22.0519 C   0  0  0  0  0  0  0  0  0  0  0  0
  -27.1552  -33.1796   22.0368 C   0  0  0  0  0  0  0  0  0  0  0  0
  -31.6559  -28.1938   21.1799 C   0  0  0  0  0  0  0  0  0  0  0  0
  -31.5151  -19.3352   22.7012 C   0  0  0  0  0  0  0  0  0  0  0  0
  -22.2197   -8.2091   21.5297 C   0  0  0  0  0  0  0  0  0  0  0  0
  -32.0654  -26.6598   23.0208 C   0  0  0  0  0  0  0  0  0  0  0  0
  -22.0589   -6.0922   22.5371 C   0  0  0  0  0  0  0  0  0  0  0  0
  -23.2357   -4.0622   24.0461 C   0  0  0  0  0  0  0  0  0  0  0  0
  -23.2162   -5.4633   22.0779 C   0  0  0  0  0  0  0  0  0  0  0  0
  -24.5381  -11.6549   20.7233 C   0  0  0  0  0  0  0  0  0  0  0  0
  -32.2574  -18.4691   21.9148 C   0  0  0  0  0  0  0  0  0  0  0  0
  -30.5726  -16.9075   21.8873 C   0  0  0  0  0  0  0  0  0  0  0  0
  -25.2364  -13.7230   20.4584 C   0  0  0  0  0  0  0  0  0  0  0  0
  -29.3904  -19.7864   23.9080 C   0  0  0  0  0  0  0  0  0  0  0  0
  -22.8593  -13.5416   21.2101 C   0  0  0  0  0  0  0  0  0  0  0  0
  -29.4405  -30.7017   20.5235 C   0  0  0  0  0  0  0  0  0  0  0  0
  -32.0891  -22.9786   23.2281 C   0  0  0  0  0  0  0  0  0  0  0  0
  -31.2948  -30.1581   17.9181 C   0  0  0  0  0  0  0  0  0  0  0  0
  -33.7669  -28.3157   16.4548 C   0  0  0  0  0  0  0  0  0  0  0  0
  -30.7140  -14.6951   20.6908 C   0  0  0  0  0  0  0  0  0  0  0  0
  -26.1297  -34.5705   20.1647 C   0  0  0  0  0  0  0  0  0  0  0  0
  -31.7470  -30.6890   21.5412 C   0  0  0  0  0  0  0  0  0  0  0  0
  -31.3375  -28.3943   19.7215 C   0  0  0  0  0  0  0  0  0  0  0  0
  -26.7211  -33.5466   19.1993 C   0  0  0  0  0  0  0  0  0  0  0  0
  -29.5998  -12.2412   18.3640 C   0  0  0  0  0  0  0  0  0  0  0  0
  -26.6188  -32.1411   19.7831 C   0  0  0  0  0  0  0  0  0  0  0  0
  -28.1499  -11.9804   18.7785 C   0  0  0  0  0  0  0  0  0  0  0  0
  -30.5003  -12.4857   19.5735 C   0  0  0  0  0  0  0  0  0  0  0  0
  -28.5838  -13.2700   20.9082 C   0  0  0  0  0  0  0  0  0  0  0  0
  -27.4126  -32.0274   21.0901 C   0  0  1  0  0  0  0  0  0  0  0  0
  -30.9169  -30.8125   20.2672 C   0  0  1  0  0  0  0  0  0  0  0  0
  -27.6261  -13.0823   19.7203 C   0  0  2  0  0  0  0  0  0  0  0  0
  -33.6341  -18.8412   21.4678 C   0  0  0  0  0  0  0  0  0  0  0  0
  -27.9070  -19.6711   23.7204 C   0  0  0  0  0  0  0  0  0  0  0  0
  -35.0396  -28.0821   14.3047 C   0  0  0  0  0  0  0  0  0  0  0  0
  -28.8830  -28.7931   16.6415 C   0  0  0  0  0  0  0  0  0  0  0  0
  -30.4360  -27.7737   14.9631 C   0  0  0  0  0  0  0  0  0  0  0  0
  -30.1960  -30.2532   15.0929 C   0  0  0  0  0  0  0  0  0  0  0  0
  -36.3456  -28.9044   17.7824 C   0  0  0  0  0  0  0  0  0  0  0  0
  -31.8705  -21.7773   22.3330 C   0  0  0  0  0  0  0  0  0  0  0  0
  -31.9602  -24.3304   22.5532 C   0  0  0  0  0  0  0  0  0  1  0  0
  -31.4382  -29.0308   16.9243 C   0  0  1  0  0  0  0  0  0  0  0  0
  -35.0065  -28.7274   15.6814 C   0  0  2  0  0  0  0  0  0  0  0  0
  -30.2424  -28.9586   15.9333 C   0  0  0  0  0  0  0  0  0  0  0  0
  -25.8074  -11.5311   20.3266 N   0  0  0  0  0  0  0  0  0  0  0  0
  -31.8175  -17.2612   21.4965 N   0  0  0  0  0  0  0  0  0  0  0  0
  -26.2048  -12.8058   20.1735 N   0  0  0  0  0  0  0  0  0  0  0  0
  -31.2550  -29.7936   19.2713 N   0  0  0  0  0  0  0  0  0  0  0  0
  -29.9434  -13.5451   20.4176 N   0  0  0  0  0  0  0  0  0  0  0  0
  -25.4671  -15.0492   20.3570 N   0  0  0  0  0  0  0  0  0  0  0  0
  -21.8294  -12.6552   21.5536 N   0  0  0  0  0  0  0  0  0  0  0  0
  -32.0273  -20.5638   23.0931 N   0  0  0  0  0  0  0  0  0  0  0  0
  -30.0681  -15.6485   21.4771 N   0  0  0  0  0  0  0  0  0  0  0  0
  -28.8278  -31.9060   20.8130 N   0  0  0  0  0  0  0  0  0  0  0  0
  -32.7356  -29.2146   16.2829 N   0  0  0  0  0  0  0  0  0  0  0  0
  -36.2361  -28.3226   16.4199 N   0  3  0  0  0  0  0  0  0  0  0  0
  -29.8016  -20.5935   24.7417 O   0  0  0  0  0  0  0  0  0  0  0  0
  -22.6401  -14.7764   21.2346 O   0  0  0  0  0  0  0  0  0  0  0  0
  -28.8971  -29.6051   20.4617 O   0  0  0  0  0  0  0  0  0  0  0  0
  -32.3546  -22.8768   24.4251 O   0  0  0  0  0  0  0  0  0  0  0  0
  -31.2280  -31.3199   17.5091 O   0  0  0  0  0  0  0  0  0  0  0  0
  -33.7171  -27.2964   17.1398 O   0  0  0  0  0  0  0  0  0  0  0  0
  -31.8522  -14.8365   20.2364 O   0  0  0  0  0  0  0  0  0  0  0  0
  -21.4740   -7.1006   21.7896 O   0  0  0  0  0  0  0  0  0  0  0  0
  -32.1716  -25.3865   23.4892 O   0  0  0  0  0  0  0  0  0  1  0  0
  -23.8015   -3.0886   24.7714 F   0  0  0  0  0  0  0  0  0  0  0  0
  -23.7679   -5.8308   20.9133 F   0  0  0  0  0  0  0  0  0  0  0  0
  1  2  1  0  0  0  0
  1  5  2  0  0  0  0
  2  6  2  0  0  0  0
  3  8  2  0  0  0  0
  3 16  1  0  0  0  0
  4  9  1  0  0  0  0
  4 16  2  0  0  0  0
  5 19  1  0  0  0  0
  6 21  1  0  0  0  0
  7 10  2  0  0  0  0
  7 20  1  0  0  0  0
  8 24  1  0  0  0  0
  9 24  2  0  0  0  0
 10 25  1  0  0  0  0
 11 12  2  0  0  0  0
 11 26  1  0  0  0  0
 12 27  1  0  0  0  0
 13 17  2  0  0  0  0
 13 31  1  0  0  0  0
 14 22  1  0  0  0  0
 14 25  2  0  0  0  0
 15 27  2  0  0  0  0
 15 28  1  0  0  0  0
 16 29  1  0  0  0  0
 17 23  1  0  0  0  0
 17 33  1  0  0  0  0
 18 29  1  0  0  0  0
 18 32  2  0  0  0  0
 18 34  1  0  0  0  0
 19 21  2  0  0  0  0
 19 40  1  0  0  0  0
 20 22  2  0  0  0  0
 20 41  1  0  0  0  0
 21 49  1  0  0  0  0
 22 42  1  0  0  0  0
 23 30  2  0  0  0  0
 23 71  1  0  0  0  0
 24 83  1  0  0  0  0
 25 84  1  0  0  0  0
 26 28  2  0  0  0  0
 26 83  1  0  0  0  0
 27 85  1  0  0  0  0
 28 86  1  0  0  0  0
 29 64  2  0  0  0  0
 30 52  1  0  0  0  0
 30 65  1  0  0  0  0
 31 65  2  0  0  0  0
 31 72  1  0  0  0  0
 32 66  1  0  0  0  0
 32 69  1  0  0  0  0
 33 53  1  0  0  0  0
 33 76  2  0  0  0  0
 34 70  1  0  0  0  0
 34 77  2  0  0  0  0
 35 50  1  0  0  0  0
 35 73  1  0  0  0  0
 35 78  2  0  0  0  0
 36 59  1  0  0  0  0
 36 60  1  0  0  0  0
 36 79  2  0  0  0  0
 37 61  1  0  0  0  0
 37 67  1  0  0  0  0
 37 80  2  0  0  0  0
 38 62  1  0  0  0  0
 38 74  1  0  0  0  0
 38 81  2  0  0  0  0
 39 68  1  0  0  0  0
 39 72  1  0  0  0  0
 39 82  2  0  0  0  0
 40 43  1  0  0  0  0
 41 50  1  0  0  0  0
 42 67  1  0  0  0  0
 43 45  1  0  0  0  0
 44 46  1  0  0  0  0
 44 47  1  0  0  0  0
 45 49  1  0  0  0  0
 46 51  1  0  0  0  0
 47 68  1  0  0  0  0
 48 51  1  0  0  0  0
 48 68  1  0  0  0  0
 49 73  1  0  0  0  0
 50 67  1  0  0  0  0
 51 66  1  0  0  0  0
 54 62  1  0  0  0  0
 55 63  1  0  0  0  0
 56 63  1  0  0  0  0
 57 63  1  0  0  0  0
 58 75  1  0  0  0  0
 59 71  1  0  0  0  0
 60 84  1  0  0  0  0
 61 63  1  0  0  0  0
 61 74  1  0  0  0  0
 62 75  1  0  0  0  0
 64 66  1  0  0  0  0
M  CHG  1  75   1
M  ISO  4  39 100  60 101  72 100  84 101
M  END
> <Batch ID>
0165

> <Smiles>
CNC(C)C(=O)NC(C(=O)N1Cc2cc([101O:1][101CH2:1]C(=O)CNc3c(C(C)=O)cc([100NH:0][100C:0](=O)N4CCCC(n5nc(-c6ccc(Oc7ccc(F)cc7F)cc6)c(C(N)=O)c5N)C4)nc3C)ccc2CC1C(=O)NC1CCCc2ccccc21)C(C)(C)C

> <Shape>
0.213

> <Color>
0.190

> <Negative vol penalty>
0.000

$$$$

  -OEChem-04052304053D

 87 95  0     1  0  0  0  0  0999 V2000
  -16.6674  -29.8642   23.7420 C   0  0  0  0  0  0  0  0  0  0  0  0
  -17.7798  -30.4389   24.3484 C   0  0  0  0  0  0  0  0  0  0  0  0
  -23.9151  -13.9833   20.5396 C   0  0  0  0  0  0  0  0  0  0  0  0
  -26.3028  -13.8479   20.1961 C   0  0  0  0  0  0  0  0  0  0  0  0
  -30.0595  -24.2084   21.7763 C   0  0  0  0  0  0  0  0  0  0  0  0
  -16.8222  -28.7524   22.9151 C   0  0  0  0  0  0  0  0  0  0  0  0
  -19.0476  -29.9014   24.1291 C   0  0  0  0  0  0  0  0  0  0  0  0
  -25.9166  -31.8528   23.5585 C   0  0  0  0  0  0  0  0  0  0  0  0
  -23.8059  -12.6099   20.3215 C   0  0  0  0  0  0  0  0  0  0  0  0
  -26.1935  -12.4745   19.9781 C   0  0  0  0  0  0  0  0  0  0  0  0
  -27.1716  -31.5416   24.0800 C   0  0  0  0  0  0  0  0  0  0  0  0
  -24.3477   -9.7608   22.0599 C   0  0  0  0  0  0  0  0  0  0  0  0
  -23.5502   -9.0265   22.9375 C   0  0  0  0  0  0  0  0  0  0  0  0
  -29.3541  -23.1340   21.2458 C   0  0  0  0  0  0  0  0  0  0  0  0
  -27.3279  -29.6676   22.5690 C   0  0  0  0  0  0  0  0  0  0  0  0
  -22.1484   -8.3434   21.0921 C   0  0  0  0  0  0  0  0  0  0  0  0
  -29.3429  -25.5238   19.9290 C   0  0  0  0  0  0  0  0  0  0  0  0
  -25.1636  -14.6023   20.4769 C   0  0  0  0  0  0  0  0  0  0  0  0
  -30.0589  -25.4295   21.1114 C   0  0  0  0  0  0  0  0  0  0  0  0
  -25.4911  -16.6726   21.9309 C   0  0  0  0  0  0  0  0  0  0  0  0
  -18.0937  -28.2068   22.6779 C   0  0  0  0  0  0  0  0  0  0  0  0
  -25.3521  -31.0660   22.5443 C   0  0  0  0  0  0  0  0  0  0  0  0
  -19.2194  -28.7804   23.2993 C   0  0  0  0  0  0  0  0  0  0  0  0
  -26.0667  -29.9725   22.0346 C   0  0  0  0  0  0  0  0  0  0  0  0
  -24.9450  -11.8555   20.0408 C   0  0  0  0  0  0  0  0  0  0  0  0
  -27.8762  -30.4471   23.5872 C   0  0  0  0  0  0  0  0  0  0  0  0
  -24.0456   -9.7865   20.6983 C   0  0  0  0  0  0  0  0  0  0  0  0
  -22.4505   -8.3178   22.4537 C   0  0  0  0  0  0  0  0  0  0  0  0
  -22.9459   -9.0778   20.2145 C   0  0  0  0  0  0  0  0  0  0  0  0
  -25.2771  -16.0210   20.7015 C   0  0  0  0  0  0  0  0  0  0  0  0
  -28.6695  -23.3311   20.0575 C   0  0  0  0  0  0  0  0  0  0  0  0
  -25.5216  -18.0080   21.6110 C   0  0  0  0  0  0  0  0  0  0  0  0
  -30.7982  -26.5893   21.6489 C   0  0  0  0  0  0  0  0  0  0  0  0
  -25.6483  -16.1202   23.2446 C   0  0  0  0  0  0  0  0  0  0  0  0
  -22.7381  -29.2761   22.2862 C   0  0  0  0  0  0  0  0  0  0  0  0
  -23.6866  -29.0261   19.1943 C   0  0  0  0  0  0  0  0  0  0  0  0
  -26.2314  -29.1621   16.9244 C   0  0  0  0  0  0  0  0  0  0  0  0
  -27.2010  -22.1988   18.3522 C   0  0  0  0  0  0  0  0  0  0  0  0
  -18.2057  -26.9756   21.8141 C   0  0  0  0  0  0  0  0  0  0  0  0
  -24.0090  -31.4309   21.9739 C   0  0  0  0  0  0  0  0  0  0  0  0
  -25.5138  -29.1081   20.9321 C   0  0  0  0  0  0  0  0  0  0  0  0
  -19.6276  -26.6952   21.3346 C   0  0  0  0  0  0  0  0  0  0  0  0
  -24.3128  -20.3941   17.3137 C   0  0  0  0  0  0  0  0  0  0  0  0
  -20.6151  -26.8198   22.4905 C   0  0  0  0  0  0  0  0  0  0  0  0
  -24.3238  -19.1491   18.2036 C   0  0  0  0  0  0  0  0  0  0  0  0
  -25.7247  -20.8150   16.9098 C   0  0  0  0  0  0  0  0  0  0  0  0
  -26.6744  -19.7449   18.9153 C   0  0  0  0  0  0  0  0  0  0  0  0
  -20.6141  -28.2411   23.0662 C   0  0  1  0  0  0  0  0  0  0  0  0
  -23.3071  -30.2561   21.2996 C   0  0  1  0  0  0  0  0  0  0  0  0
  -25.2788  -19.3208   19.4011 C   0  0  2  0  0  0  0  0  0  0  0  0
  -26.7052  -28.8760   14.4768 C   0  0  0  0  0  0  0  0  0  0  0  0
  -23.5163  -25.9968   19.5178 C   0  0  0  0  0  0  0  0  0  0  0  0
  -24.8771  -25.7672   17.4288 C   0  0  0  0  0  0  0  0  0  0  0  0
  -22.6386  -26.8647   17.3427 C   0  0  0  0  0  0  0  0  0  0  0  0
  -27.1606  -31.9594   16.6589 C   0  0  0  0  0  0  0  0  0  0  0  0
  -31.1253  -28.1906   23.4997 C   0  0  0  0  0  0  0  0  0  0  0  0
  -24.5747  -28.0811   18.4216 C   0  0  1  0  0  0  0  0  0  0  0  0
  -26.3464  -29.8587   15.5806 C   0  0  2  0  0  0  0  0  0  0  0  0
  -30.4870  -28.4510   24.8632 C   0  0  2  0  0  0  0  0  0  0  0  0
  -23.9115  -26.6924   18.1998 C   0  0  0  0  0  0  0  0  0  0  0  0
  -30.5767  -27.2448   25.7882 C   0  0  0  0  0  0  0  0  0  0  0  0
  -28.6456  -24.5024   19.3829 N   0  0  0  0  0  0  0  0  0  0  0  0
  -25.1785  -16.8723   19.6770 N   0  0  0  0  0  0  0  0  0  0  0  0
  -25.3311  -18.0725   20.2620 N   0  0  0  0  0  0  0  0  0  0  0  0
  -24.1941  -29.5018   20.4116 N   0  0  0  0  0  0  0  0  0  0  0  0
  -26.5715  -20.9624   18.0955 N   0  0  0  0  0  0  0  0  0  0  0  0
  -25.6925  -19.1215   22.3548 N   0  0  0  0  0  0  0  0  0  0  0  0
  -31.7615  -27.1231   20.8978 N   0  0  0  0  0  0  0  0  0  0  0  0
  -25.5902  -14.7280   23.3953 N   0  0  0  0  0  0  0  0  0  0  0  0
  -27.9543  -22.2296   19.5253 N   0  0  0  0  0  0  0  0  0  0  0  0
  -21.3657  -29.1337   22.2101 N   0  0  0  0  0  0  0  0  0  0  0  0
  -24.9349  -28.7748   17.1897 N   0  0  0  0  0  0  0  0  0  0  0  0
  -29.0858  -28.7958   24.6695 N   0  0  0  0  0  0  0  0  0  1  0  0
  -30.4683  -27.0467   22.8628 N   0  3  0  0  0  0  0  0  0  0  0  0
  -27.3986  -30.9127   15.6319 N   0  3  0  0  0  0  0  0  0  0  0  0
  -25.8183  -16.8407   24.2572 O   0  0  0  0  0  0  0  0  0  0  0  0
  -23.4887  -28.6913   23.0584 O   0  0  0  0  0  0  0  0  0  0  0  0
  -22.5861  -29.3365   18.7313 O   0  0  0  0  0  0  0  0  0  0  0  0
  -27.1959  -28.9765   17.6632 O   0  0  0  0  0  0  0  0  0  0  0  0
  -27.0587  -23.1676   17.6018 O   0  0  0  0  0  0  0  0  0  0  0  0
  -24.8388  -10.5154   19.8282 O   0  0  0  0  0  0  0  0  0  0  0  0
  -29.1011  -30.1407   24.0949 O   0  0  0  0  0  0  0  0  0  1  0  0
  -21.6856   -7.6114   23.2964 F   0  0  0  0  0  0  0  0  0  0  0  0
  -22.6513   -9.0977   18.9073 F   0  0  0  0  0  0  0  0  0  0  0  0
  -29.9882  -27.4808   26.9808 F   0  0  0  0  0  0  0  0  0  0  0  0
  -31.8656  -26.9084   26.0235 F   0  0  0  0  0  0  0  0  0  0  0  0
  -29.9780  -26.1625   25.2431 F   0  0  0  0  0  0  0  0  0  0  0  0
  1  2  1  0  0  0  0
  1  6  2  0  0  0  0
  2  7  2  0  0  0  0
  3  9  2  0  0  0  0
  3 18  1  0  0  0  0
  4 10  1  0  0  0  0
  4 18  2  0  0  0  0
  5 14  2  0  0  0  0
  5 19  1  0  0  0  0
  6 21  1  0  0  0  0
  7 23  1  0  0  0  0
  8 11  2  0  0  0  0
  8 22  1  0  0  0  0
  9 25  1  0  0  0  0
 10 25  2  0  0  0  0
 11 26  1  0  0  0  0
 12 13  2  0  0  0  0
 12 27  1  0  0  0  0
 13 28  1  0  0  0  0
 14 31  1  0  0  0  0
 15 24  1  0  0  0  0
 15 26  2  0  0  0  0
 16 28  2  0  0  0  0
 16 29  1  0  0  0  0
 17 19  2  0  0  0  0
 17 62  1  0  0  0  0
 18 30  1  0  0  0  0
 19 33  1  0  0  0  0
 20 30  1  0  0  0  0
 20 32  2  0  0  0  0
 20 34  1  0  0  0  0
 21 23  2  0  0  0  0
 21 39  1  0  0  0  0
 22 24  2  0  0  0  0
 22 40  1  0  0  0  0
 23 48  1  0  0  0  0
 24 41  1  0  0  0  0
 25 81  1  0  0  0  0
 26 82  1  0  0  0  0
 27 29  2  0  0  0  0
 27 81  1  0  0  0  0
 28 83  1  0  0  0  0
 29 84  1  0  0  0  0
 30 63  2  0  0  0  0
 31 62  2  0  0  0  0
 31 70  1  0  0  0  0
 32 64  1  0  0  0  0
 32 67  1  0  0  0  0
 33 68  1  0  0  0  0
 33 74  2  0  0  0  0
 34 69  1  0  0  0  0
 34 76  2  0  0  0  0
 35 49  1  0  0  0  0
 35 71  1  0  0  0  0
 35 77  2  0  0  0  0
 36 57  1  0  0  0  0
 36 65  1  0  0  0  0
 36 78  2  0  0  0  0
 37 58  1  0  0  0  0
 37 72  1  0  0  0  0
 37 79  2  0  0  0  0
 38 66  1  0  0  0  0
 38 70  1  0  0  0  0
 38 80  2  0  0  0  0
 39 42  1  0  0  0  0
 40 49  1  0  0  0  0
 41 65  1  0  0  0  0
 42 44  1  0  0  0  0
 43 45  1  0  0  0  0
 43 46  1  0  0  0  0
 44 48  1  0  0  0  0
 45 50  1  0  0  0  0
 46 66  1  0  0  0  0
 47 50  1  0  0  0  0
 47 66  1  0  0  0  0
 48 71  1  0  0  0  0
 49 65  1  0  0  0  0
 50 64  1  0  0  0  0
 51 58  1  0  0  0  0
 52 60  1  0  0  0  0
 53 60  1  0  0  0  0
 54 60  1  0  0  0  0
 55 75  1  0  0  0  0
 56 59  1  0  0  0  0
 56 74  1  0  0  0  0
 57 60  1  0  0  0  0
 57 72  1  0  0  0  0
 58 75  1  0  0  0  0
 59 61  1  0  0  0  0
 59 73  1  0  0  0  0
 61 85  1  0  0  0  0
 61 86  1  0  0  0  0
 61 87  1  0  0  0  0
 63 64  1  0  0  0  0
 73 82  1  0  0  0  0
M  CHG  2  74   1  75   1
M  ISO  4  38 100  70 100  73 101  82 101
M  END
> <Batch ID>
0165

> <Smiles>
CNC(C)C(=O)NC(C(=O)N1Cc2cc([101O:1][101NH:1]C(CNC(=N)c3ccc([100NH:0][100C:0](=O)N4CCCC(n5nc(-c6ccc(Oc7ccc(F)cc7F)cc6)c(C(N)=O)c5N)C4)nc3)C(F)(F)F)ccc2CC1C(=O)NC1CCCc2ccccc21)C(C)(C)C

> <Shape>
0.278

> <Color>
0.121

> <Negative vol penalty>
0.000

$$$$

  -OEChem-04052304053D

 85 93  0     1  0  0  0  0  0999 V2000
  -29.8113  -35.0882   22.5228 C   0  0  0  0  0  0  0  0  0  0  0  0
  -29.3876  -33.7636   22.4863 C   0  0  0  0  0  0  0  0  0  0  0  0
  -24.2827   -8.9089   20.4949 C   0  0  0  0  0  0  0  0  0  0  0  0
  -22.9508  -10.7878   21.2249 C   0  0  0  0  0  0  0  0  0  0  0  0
  -28.2261  -20.1563   19.4018 C   0  0  0  0  0  0  0  0  0  0  0  0
  -28.9806  -36.0700   23.0612 C   0  0  0  0  0  0  0  0  0  0  0  0
  -28.1332  -33.4199   22.9892 C   0  0  0  0  0  0  0  0  0  0  0  0
  -25.6115  -30.2676   19.9316 C   0  0  0  0  0  0  0  0  0  0  0  0
  -28.2760  -18.7747   19.5867 C   0  0  0  0  0  0  0  0  0  0  0  0
  -23.2726   -8.0359   20.8987 C   0  0  0  0  0  0  0  0  0  0  0  0
  -21.9407   -9.9148   21.6287 C   0  0  0  0  0  0  0  0  0  0  0  0
  -25.9819  -28.9238   19.9570 C   0  0  0  0  0  0  0  0  0  0  0  0
  -22.1514   -6.6919   23.7903 C   0  0  0  0  0  0  0  0  0  0  0  0
  -22.5261   -5.5562   24.5081 C   0  0  0  0  0  0  0  0  0  0  0  0
  -24.1053  -28.4399   21.3934 C   0  0  0  0  0  0  0  0  0  0  0  0
  -29.5904  -19.0901   21.5892 C   0  0  0  0  0  0  0  0  0  0  0  0
  -21.5705   -4.1540   22.7882 C   0  0  0  0  0  0  0  0  0  0  0  0
  -24.1219  -10.2848   20.6580 C   0  0  0  0  0  0  0  0  0  0  0  0
  -28.8583  -21.0049   20.3106 C   0  0  0  0  0  0  0  0  0  0  0  0
  -25.3163  -11.7860   18.9765 C   0  0  0  0  0  0  0  0  0  0  0  0
  -27.7115  -35.7397   23.5621 C   0  0  0  0  0  0  0  0  0  0  0  0
  -24.4896  -30.7103   20.6469 C   0  0  0  0  0  0  0  0  0  0  0  0
  -27.2853  -34.3980   23.5360 C   0  0  0  0  0  0  0  0  0  0  0  0
  -23.7212  -29.7894   21.3734 C   0  0  0  0  0  0  0  0  0  0  0  0
  -28.9582  -18.2416   20.6804 C   0  0  0  0  0  0  0  0  0  0  0  0
  -22.1016   -8.5388   21.4656 C   0  0  0  0  0  0  0  0  0  0  0  0
  -25.2304  -28.0102   20.6903 C   0  0  0  0  0  0  0  0  0  0  0  0
  -21.4862   -6.5587   22.5714 C   0  0  0  0  0  0  0  0  0  0  0  0
  -22.2357   -4.2872   24.0070 C   0  0  0  0  0  0  0  0  0  0  0  0
  -29.5404  -20.4718   21.4043 C   0  0  0  0  0  0  0  0  0  0  0  0
  -21.1958   -5.2898   22.0704 C   0  0  0  0  0  0  0  0  0  0  0  0
  -25.1652  -11.1871   20.2415 C   0  0  0  0  0  0  0  0  0  0  0  0
  -26.4531  -12.5483   19.0910 C   0  0  0  0  0  0  0  0  0  0  0  0
  -28.8048  -22.4757   20.1081 C   0  0  0  0  0  0  0  0  0  0  0  0
  -24.5019  -11.6641   17.8027 C   0  0  0  0  0  0  0  0  0  0  0  0
  -24.0153  -32.7515   23.0370 C   0  0  0  0  0  0  0  0  0  0  0  0
  -27.3307  -25.1218   21.3130 C   0  0  0  0  0  0  0  0  0  0  0  0
  -20.8896  -32.1345   22.4273 C   0  0  0  0  0  0  0  0  0  0  0  0
  -18.5540  -30.0022   21.1448 C   0  0  0  0  0  0  0  0  0  0  0  0
  -29.6426  -16.1459   21.8995 C   0  0  0  0  0  0  0  0  0  0  0  0
  -26.8681  -36.8281   24.1775 C   0  0  0  0  0  0  0  0  0  0  0  0
  -24.0878  -32.1586   20.5876 C   0  0  0  0  0  0  0  0  0  0  0  0
  -22.4963  -30.2103   22.1420 C   0  0  0  0  0  0  0  0  0  0  0  0
  -25.4017  -36.4395   24.3478 C   0  0  0  0  0  0  0  0  0  0  0  0
  -29.9644  -12.6996   22.7338 C   0  0  0  0  0  0  0  0  0  0  0  0
  -25.2860  -35.0471   24.9599 C   0  0  0  0  0  0  0  0  0  0  0  0
  -28.7570  -12.0481   22.0557 C   0  0  0  0  0  0  0  0  0  0  0  0
  -29.6267  -14.0835   23.2855 C   0  0  0  0  0  0  0  0  0  0  0  0
  -27.8142  -14.3557   21.6393 C   0  0  0  0  0  0  0  0  0  0  0  0
  -25.9215  -33.9896   24.0491 C   0  0  1  0  0  0  0  0  0  0  0  0
  -23.2245  -32.5880   21.7699 C   0  0  1  0  0  0  0  0  0  0  0  0
  -28.1230  -12.9870   21.0107 C   0  0  2  0  0  0  0  0  0  0  0  0
  -16.0774  -29.7544   20.8250 C   0  0  0  0  0  0  0  0  0  0  0  0
  -20.5804  -31.4370   25.3816 C   0  0  0  0  0  0  0  0  0  0  0  0
  -18.4139  -30.3157   24.8184 C   0  0  0  0  0  0  0  0  0  0  0  0
  -18.6905  -32.7625   24.4193 C   0  0  0  0  0  0  0  0  0  0  0  0
  -18.8269  -29.9048   18.1994 C   0  0  0  0  0  0  0  0  0  0  0  0
  -28.7789  -24.6893   21.2285 C   0  0  0  0  0  0  0  0  0  0  0  0
  -26.9797  -26.4026   20.5825 C   0  0  0  0  0  0  0  0  0  1  0  0
  -19.8854  -31.1185   22.9155 C   0  0  1  0  0  0  0  0  0  0  0  0
  -17.3816  -30.2367   20.2094 C   0  0  2  0  0  0  0  0  0  0  0  0
  -19.4167  -31.4005   24.3709 C   0  0  0  0  0  0  0  0  0  0  0  0
  -26.1290  -11.5386   21.0968 N   0  0  0  0  0  0  0  0  0  0  0  0
  -26.8966  -12.3665   20.3679 N   0  0  0  0  0  0  0  0  0  0  0  0
  -22.1479  -31.6383   22.0580 N   0  0  0  0  0  0  0  0  0  0  0  0
  -29.0342  -14.9189   22.2387 N   0  0  0  0  0  0  0  0  0  0  0  0
  -27.1065  -13.3496   18.2231 N   0  0  0  0  0  0  0  0  0  0  0  0
  -23.3700  -10.8395   17.8576 N   0  0  0  0  0  0  0  0  0  0  0  0
  -29.0088  -16.8380   20.8680 N   0  0  0  0  0  0  0  0  0  0  0  0
  -28.8460  -23.2586   21.2591 N   0  0  0  0  0  0  0  0  0  0  0  0
  -25.0384  -33.6759   22.9463 N   0  0  0  0  0  0  0  0  0  0  0  0
  -18.8075  -31.1051   21.9325 N   0  0  0  0  0  0  0  0  0  0  0  0
  -17.5911  -29.5117   18.9243 N   0  3  0  0  0  0  0  0  0  0  0  0
  -28.7084  -22.9212   18.9676 O   0  0  0  0  0  0  0  0  0  0  0  0
  -24.7792  -12.2557   16.7319 O   0  0  0  0  0  0  0  0  0  0  0  0
  -23.7182  -32.0892   24.0243 O   0  0  0  0  0  0  0  0  0  0  0  0
  -26.4976  -24.5046   21.9760 O   0  0  0  0  0  0  0  0  0  0  0  0
  -20.5670  -33.3237   22.3687 O   0  0  0  0  0  0  0  0  0  0  0  0
  -19.1798  -28.9448   21.1762 O   0  0  0  0  0  0  0  0  0  0  0  0
  -30.6671  -16.5399   22.4626 O   0  0  0  0  0  0  0  0  0  0  0  0
  -21.1156   -7.6873   21.8596 O   0  0  0  0  0  0  0  0  0  0  0  0
  -25.5902  -26.6980   20.7173 O   0  0  0  0  0  0  0  0  0  1  0  0
  -22.5969   -3.1966   24.6957 F   0  0  0  0  0  0  0  0  0  0  0  0
  -30.1521  -21.2778   22.2840 F   0  0  0  0  0  0  0  0  0  0  0  0
  -20.5580   -5.1555   20.8995 F   0  0  0  0  0  0  0  0  0  0  0  0
  1  2  1  0  0  0  0
  1  6  2  0  0  0  0
  2  7  2  0  0  0  0
  3 10  2  0  0  0  0
  3 18  1  0  0  0  0
  4 11  1  0  0  0  0
  4 18  2  0  0  0  0
  5  9  2  0  0  0  0
  5 19  1  0  0  0  0
  6 21  1  0  0  0  0
  7 23  1  0  0  0  0
  8 12  2  0  0  0  0
  8 22  1  0  0  0  0
  9 25  1  0  0  0  0
 10 26  1  0  0  0  0
 11 26  2  0  0  0  0
 12 27  1  0  0  0  0
 13 14  2  0  0  0  0
 13 28  1  0  0  0  0
 14 29  1  0  0  0  0
 15 24  1  0  0  0  0
 15 27  2  0  0  0  0
 16 25  2  0  0  0  0
 16 30  1  0  0  0  0
 17 29  2  0  0  0  0
 17 31  1  0  0  0  0
 18 32  1  0  0  0  0
 19 30  2  0  0  0  0
 19 34  1  0  0  0  0
 20 32  1  0  0  0  0
 20 33  2  0  0  0  0
 20 35  1  0  0  0  0
 21 23  2  0  0  0  0
 21 41  1  0  0  0  0
 22 24  2  0  0  0  0
 22 42  1  0  0  0  0
 23 50  1  0  0  0  0
 24 43  1  0  0  0  0
 25 69  1  0  0  0  0
 26 81  1  0  0  0  0
 27 82  1  0  0  0  0
 28 31  2  0  0  0  0
 28 81  1  0  0  0  0
 29 83  1  0  0  0  0
 30 84  1  0  0  0  0
 31 85  1  0  0  0  0
 32 63  2  0  0  0  0
 33 64  1  0  0  0  0
 33 67  1  0  0  0  0
 34 70  1  0  0  0  0
 34 74  2  0  0  0  0
 35 68  1  0  0  0  0
 35 75  2  0  0  0  0
 36 51  1  0  0  0  0
 36 71  1  0  0  0  0
 36 76  2  0  0  0  0
 37 58  1  0  0  0  0
 37 59  1  0  0  0  0
 37 77  2  0  0  0  0
 38 60  1  0  0  0  0
 38 65  1  0  0  0  0
 38 78  2  0  0  0  0
 39 61  1  0  0  0  0
 39 72  1  0  0  0  0
 39 79  2  0  0  0  0
 40 66  1  0  0  0  0
 40 69  1  0  0  0  0
 40 80  2  0  0  0  0
 41 44  1  0  0  0  0
 42 51  1  0  0  0  0
 43 65  1  0  0  0  0
 44 46  1  0  0  0  0
 45 47  1  0  0  0  0
 45 48  1  0  0  0  0
 46 50  1  0  0  0  0
 47 52  1  0  0  0  0
 48 66  1  0  0  0  0
 49 52  1  0  0  0  0
 49 66  1  0  0  0  0
 50 71  1  0  0  0  0
 51 65  1  0  0  0  0
 52 64  1  0  0  0  0
 53 61  1  0  0  0  0
 54 62  1  0  0  0  0
 55 62  1  0  0  0  0
 56 62  1  0  0  0  0
 57 73  1  0  0  0  0
 58 70  1  0  0  0  0
 59 82  1  0  0  0  0
 60 62  1  0  0  0  0
 60 72  1  0  0  0  0
 61 73  1  0  0  0  0
 63 64  1  0  0  0  0
M  CHG  1  73   1
M  ISO  4  40 100  59 101  69 100  82 101
M  END
> <Batch ID>
0165

> <Smiles>
CNC(C)C(=O)NC(C(=O)N1Cc2cc([101O:1][101CH2:1]C(=O)CNC(=O)c3ccc([100NH:0][100C:0](=O)N4CCCC(n5nc(-c6ccc(Oc7ccc(F)cc7F)cc6)c(C(N)=O)c5N)C4)cc3F)ccc2CC1C(=O)NC1CCCc2ccccc21)C(C)(C)C

> <Shape>
0.311

> <Color>
0.108

> <Negative vol penalty>
0.000

$$$$

  -OEChem-04052304053D

 88 96  0     1  0  0  0  0  0999 V2000
  -16.6211  -30.0235   23.6151 C   0  0  0  0  0  0  0  0  0  0  0  0
  -17.7262  -30.7145   24.1015 C   0  0  0  0  0  0  0  0  0  0  0  0
  -29.4777  -24.7224   19.1859 C   0  0  0  0  0  0  0  0  0  0  0  0
  -31.0152  -26.4210   19.9527 C   0  0  0  0  0  0  0  0  0  0  0  0
  -16.7921  -28.7892   22.9895 C   0  0  0  0  0  0  0  0  0  0  0  0
  -19.0030  -30.1711   23.9636 C   0  0  0  0  0  0  0  0  0  0  0  0
  -25.8262  -32.1239   22.9903 C   0  0  0  0  0  0  0  0  0  0  0  0
  -29.8092  -25.0191   17.8639 C   0  0  0  0  0  0  0  0  0  0  0  0
  -31.3467  -26.7177   18.6307 C   0  0  0  0  0  0  0  0  0  0  0  0
  -27.0912  -31.9304   23.5434 C   0  0  0  0  0  0  0  0  0  0  0  0
  -32.3318  -24.3425   15.7164 C   0  0  0  0  0  0  0  0  0  0  0  0
  -32.5731  -23.2739   14.8531 C   0  0  0  0  0  0  0  0  0  0  0  0
  -31.0449  -28.0789   29.5914 C   0  0  0  0  0  0  0  0  0  0  0  0
  -27.2740  -29.8281   22.3746 C   0  0  0  0  0  0  0  0  0  0  0  0
  -30.7617  -24.0110   13.4344 C   0  0  0  0  0  0  0  0  0  0  0  0
  -32.3920  -29.5431   28.5371 C   0  0  0  0  0  0  0  0  0  0  0  0
  -30.0806  -25.4234   20.2303 C   0  0  0  0  0  0  0  0  0  0  0  0
  -32.3909  -28.4870   29.4214 C   0  0  0  0  0  0  0  0  0  0  0  0
  -30.3594  -24.1757   22.4379 C   0  0  0  0  0  0  0  0  0  0  0  0
  -18.0726  -28.2350   22.8352 C   0  0  0  0  0  0  0  0  0  0  0  0
  -25.2700  -31.1642   22.1324 C   0  0  0  0  0  0  0  0  0  0  0  0
  -19.1912  -28.9277   23.3365 C   0  0  0  0  0  0  0  0  0  0  0  0
  -26.0028  -30.0130   21.8100 C   0  0  0  0  0  0  0  0  0  0  0  0
  -30.7437  -26.0167   17.5863 C   0  0  0  0  0  0  0  0  0  0  0  0
  -27.8141  -30.7810   23.2379 C   0  0  0  0  0  0  0  0  0  0  0  0
  -31.3054  -25.2454   15.4388 C   0  0  0  0  0  0  0  0  0  0  0  0
  -31.7881  -23.1081   13.7121 C   0  0  0  0  0  0  0  0  0  0  0  0
  -30.5204  -25.0797   14.2977 C   0  0  0  0  0  0  0  0  0  0  0  0
  -29.7382  -25.1177   21.5961 C   0  0  0  0  0  0  0  0  0  0  0  0
  -30.2644  -28.8979   28.8057 C   0  0  0  0  0  0  0  0  0  0  0  0
  -29.6699  -24.2663   23.6223 C   0  0  0  0  0  0  0  0  0  0  0  0
  -33.5643  -27.9349   30.0337 C   0  0  0  0  0  0  0  0  0  0  0  0
  -31.4612  -23.2974   22.1729 C   0  0  0  0  0  0  0  0  0  0  0  0
  -22.6910  -29.3079   22.2143 C   0  0  0  0  0  0  0  0  0  0  0  0
  -30.3091  -30.3403   25.8317 C   0  0  0  0  0  0  0  0  0  0  0  0
  -23.6204  -28.5485   19.2007 C   0  0  0  0  0  0  0  0  0  0  0  0
  -26.1443  -28.3403   16.9130 C   0  0  0  0  0  0  0  0  0  0  0  0
  -27.0640  -28.1901   26.9880 C   0  0  0  0  0  0  0  0  0  0  0  0
  -18.2029  -26.8760   22.1942 C   0  0  0  0  0  0  0  0  0  0  0  0
  -23.9154  -31.4005   21.5229 C   0  0  0  0  0  0  0  0  0  0  0  0
  -25.4590  -28.9619   20.8783 C   0  0  0  0  0  0  0  0  0  0  0  0
  -19.6265  -26.5441   21.7542 C   0  0  0  0  0  0  0  0  0  0  0  0
  -25.2100  -25.9459   24.9379 C   0  0  0  0  0  0  0  0  0  0  0  0
  -20.6201  -26.8839   22.8605 C   0  0  0  0  0  0  0  0  0  0  0  0
  -26.2464  -25.4160   23.9454 C   0  0  0  0  0  0  0  0  0  0  0  0
  -25.4511  -27.4157   25.2747 C   0  0  0  0  0  0  0  0  0  0  0  0
  -27.8499  -27.1979   24.7532 C   0  0  0  0  0  0  0  0  0  0  0  0
  -20.5946  -28.3827   23.1838 C   0  0  1  0  0  0  0  0  0  0  0  0
  -23.2323  -30.1145   21.0680 C   0  0  1  0  0  0  0  0  0  0  0  0
  -27.6815  -25.7043   24.4258 C   0  0  2  0  0  0  0  0  0  0  0  0
  -27.2462  -27.9724   14.6887 C   0  0  0  0  0  0  0  0  0  0  0  0
  -34.6747  -30.8942   30.6274 C   0  0  0  0  0  0  0  0  0  0  0  0
  -35.5789  -29.0779   32.0764 C   0  0  0  0  0  0  0  0  0  0  0  0
  -36.9964  -29.9915   30.2424 C   0  0  0  0  0  0  0  0  0  0  0  0
  -23.5143  -25.6171   20.0409 C   0  0  0  0  0  0  0  0  0  0  0  0
  -24.8633  -25.0577   18.0073 C   0  0  0  0  0  0  0  0  0  0  0  0
  -22.6024  -26.0820   17.7591 C   0  0  0  0  0  0  0  0  0  0  0  0
  -25.7260  -31.1578   16.1094 C   0  0  0  0  0  0  0  0  0  0  0  0
  -28.8000  -28.9085   28.6095 C   0  0  0  0  0  0  0  0  0  0  0  0
  -34.9693  -28.5264   29.7176 C   0  0  0  0  0  0  0  0  0  0  0  0
  -30.6637  -30.8637   27.2116 C   0  0  0  0  0  0  0  0  0  0  0  0
  -29.2927  -31.1608   25.0615 C   0  0  0  0  0  0  0  0  0  1  0  0
  -24.5216  -27.5016   18.5917 C   0  0  1  0  0  0  0  0  0  0  0  0
  -26.2346  -28.7979   15.4684 C   0  0  2  0  0  0  0  0  0  0  0  0
  -35.5534  -29.6320   30.6348 C   0  0  0  0  0  0  0  0  0  0  0  0
  -23.8851  -26.0833   18.6189 C   0  0  0  0  0  0  0  0  0  0  0  0
  -28.7314  -25.7594   22.1949 N   0  0  0  0  0  0  0  0  0  0  0  0
  -31.0939  -29.7839   28.1692 N   0  0  0  0  0  0  0  0  0  0  0  0
  -28.7146  -25.2197   23.4255 N   0  0  0  0  0  0  0  0  0  0  0  0
  -24.1275  -29.2356   20.3127 N   0  0  0  0  0  0  0  0  0  0  0  0
  -26.8298  -27.6212   25.7252 N   0  0  0  0  0  0  0  0  0  0  0  0
  -29.7935  -23.6226   24.8024 N   0  0  0  0  0  0  0  0  0  0  0  0
  -32.0538  -23.3331   20.9033 N   0  0  0  0  0  0  0  0  0  0  0  0
  -21.3213  -29.1288   22.1790 N   0  0  0  0  0  0  0  0  0  0  0  0
  -24.8580  -27.9801   17.2552 N   0  0  0  0  0  0  0  0  0  0  0  0
  -28.3993  -28.3440   27.3400 N   0  0  0  0  0  0  0  0  0  0  0  0
  -26.6454  -30.2289   15.4030 N   0  3  0  0  0  0  0  0  0  0  0  0
  -33.4824  -26.9721   30.8383 O   0  0  0  0  0  0  0  0  0  0  0  0
  -31.8965  -22.4927   23.0311 O   0  0  0  0  0  0  0  0  0  0  0  0
  -23.4594  -28.8785   23.0669 O   0  0  0  0  0  0  0  0  0  0  0  0
  -30.8058  -29.3189   25.3585 O   0  0  0  0  0  0  0  0  0  0  0  0
  -22.5103  -28.7541   18.7036 O   0  0  0  0  0  0  0  0  0  0  0  0
  -27.1181  -28.3024   17.6619 O   0  0  0  0  0  0  0  0  0  0  0  0
  -26.1508  -28.5303   27.7478 O   0  0  0  0  0  0  0  0  0  0  0  0
  -31.0676  -26.3063   16.2964 O   0  0  0  0  0  0  0  0  0  0  0  0
  -29.0489  -30.5893   23.7769 O   0  0  0  0  0  0  0  0  0  1  0  0
  -32.0209  -22.0827   12.8823 F   0  0  0  0  0  0  0  0  0  0  0  0
  -29.5337  -25.9445   14.0251 F   0  0  0  0  0  0  0  0  0  0  0  0
  1  2  1  0  0  0  0
  1  5  2  0  0  0  0
  2  6  2  0  0  0  0
  3  8  2  0  0  0  0
  3 17  1  0  0  0  0
  4  9  1  0  0  0  0
  4 17  2  0  0  0  0
  5 20  1  0  0  0  0
  6 22  1  0  0  0  0
  7 10  2  0  0  0  0
  7 21  1  0  0  0  0
  8 24  1  0  0  0  0
  9 24  2  0  0  0  0
 10 25  1  0  0  0  0
 11 12  2  0  0  0  0
 11 26  1  0  0  0  0
 12 27  1  0  0  0  0
 13 18  1  0  0  0  0
 13 30  2  0  0  0  0
 14 23  1  0  0  0  0
 14 25  2  0  0  0  0
 15 27  2  0  0  0  0
 15 28  1  0  0  0  0
 16 18  2  0  0  0  0
 16 68  1  0  0  0  0
 17 29  1  0  0  0  0
 18 32  1  0  0  0  0
 19 29  1  0  0  0  0
 19 31  2  0  0  0  0
 19 33  1  0  0  0  0
 20 22  2  0  0  0  0
 20 39  1  0  0  0  0
 21 23  2  0  0  0  0
 21 40  1  0  0  0  0
 22 48  1  0  0  0  0
 23 41  1  0  0  0  0
 24 85  1  0  0  0  0
 25 86  1  0  0  0  0
 26 28  2  0  0  0  0
 26 85  1  0  0  0  0
 27 87  1  0  0  0  0
 28 88  1  0  0  0  0
 29 67  2  0  0  0  0
 30 59  1  0  0  0  0
 30 68  1  0  0  0  0
 31 69  1  0  0  0  0
 31 72  1  0  0  0  0
 32 60  1  0  0  0  0
 32 78  2  0  0  0  0
 33 73  1  0  0  0  0
 33 79  2  0  0  0  0
 34 49  1  0  0  0  0
 34 74  1  0  0  0  0
 34 80  2  0  0  0  0
 35 61  1  0  0  0  0
 35 62  1  0  0  0  0
 35 81  2  0  0  0  0
 36 63  1  0  0  0  0
 36 70  1  0  0  0  0
 36 82  2  0  0  0  0
 37 64  1  0  0  0  0
 37 75  1  0  0  0  0
 37 83  2  0  0  0  0
 38 71  1  0  0  0  0
 38 76  1  0  0  0  0
 38 84  2  0  0  0  0
 39 42  1  0  0  0  0
 40 49  1  0  0  0  0
 41 70  1  0  0  0  0
 42 44  1  0  0  0  0
 43 45  1  0  0  0  0
 43 46  1  0  0  0  0
 44 48  1  0  0  0  0
 45 50  1  0  0  0  0
 46 71  1  0  0  0  0
 47 50  1  0  0  0  0
 47 71  1  0  0  0  0
 48 74  1  0  0  0  0
 49 70  1  0  0  0  0
 50 69  1  0  0  0  0
 51 64  1  0  0  0  0
 52 65  1  0  0  0  0
 53 65  1  0  0  0  0
 54 65  1  0  0  0  0
 55 66  1  0  0  0  0
 56 66  1  0  0  0  0
 57 66  1  0  0  0  0
 58 77  1  0  0  0  0
 59 76  1  0  0  0  0
 60 65  1  0  0  0  0
 61 68  1  0  0  0  0
 62 86  1  0  0  0  0
 63 66  1  0  0  0  0
 63 75  1  0  0  0  0
 64 77  1  0  0  0  0
 67 69  1  0  0  0  0
M  CHG  1  77   1
M  ISO  4  38 100  62 101  76 100  86 101
M  END
> <Batch ID>
0165

> <Smiles>
CNC(C)C(=O)NC(C(=O)N1Cc2cc([101O:1][101CH2:1]C(=O)Cn3cc(C(=O)CC(C)(C)C)cc3C[100NH:0][100C:0](=O)N3CCCC(n4nc(-c5ccc(Oc6ccc(F)cc6F)cc5)c(C(N)=O)c4N)C3)ccc2CC1C(=O)NC1CCCc2ccccc21)C(C)(C)C

> <Shape>
0.186

> <Color>
0.091

> <Negative vol penalty>
0.000

$$$$

  -OEChem-04052304053D

 90 99  0     1  0  0  0  0  0999 V2000
  -30.4234  -23.5646   12.0798 C   0  0  0  0  0  0  0  0  0  0  0  0
  -30.0157  -24.8161   12.5303 C   0  0  0  0  0  0  0  0  0  0  0  0
  -23.2498  -14.2481   20.9293 C   0  0  0  0  0  0  0  0  0  0  0  0
  -25.2220  -15.6072   21.2456 C   0  0  0  0  0  0  0  0  0  0  0  0
  -29.8646  -22.4113   12.6290 C   0  0  0  0  0  0  0  0  0  0  0  0
  -29.0482  -24.9151   13.5296 C   0  0  0  0  0  0  0  0  0  0  0  0
  -27.1593  -29.0254   19.0842 C   0  0  0  0  0  0  0  0  0  0  0  0
  -24.0532  -13.1189   20.7712 C   0  0  0  0  0  0  0  0  0  0  0  0
  -26.0255  -14.4780   21.0876 C   0  0  0  0  0  0  0  0  0  0  0  0
  -26.0550  -29.7078   19.5927 C   0  0  0  0  0  0  0  0  0  0  0  0
  -27.1903  -12.5860   18.5392 C   0  0  0  0  0  0  0  0  0  0  0  0
  -28.3125  -12.6989   17.7186 C   0  0  0  0  0  0  0  0  0  0  0  0
  -25.2171  -27.6461   20.5235 C   0  0  0  0  0  0  0  0  0  0  0  0
  -21.6427  -24.6743   22.5242 C   0  0  0  0  0  0  0  0  0  0  0  0
  -29.7354  -12.1286   19.5860 C   0  0  0  0  0  0  0  0  0  0  0  0
  -20.5128  -26.7178   21.1124 C   0  0  0  0  0  0  0  0  0  0  0  0
  -23.8342  -15.4923   21.1664 C   0  0  0  0  0  0  0  0  0  0  0  0
  -22.4676  -17.1595   22.5304 C   0  0  0  0  0  0  0  0  0  0  0  0
  -28.8968  -22.4960   13.6423 C   0  0  0  0  0  0  0  0  0  0  0  0
  -27.2955  -27.6439   19.2826 C   0  0  0  0  0  0  0  0  0  0  0  0
  -28.4750  -23.7619   14.0919 C   0  0  0  0  0  0  0  0  0  0  0  0
  -26.3253  -26.9489   20.0187 C   0  0  0  0  0  0  0  0  0  0  0  0
  -21.3940  -25.8861   23.1590 C   0  0  0  0  0  0  0  0  0  0  0  0
  -20.8185  -26.9324   22.4467 C   0  0  0  0  0  0  0  0  0  0  0  0
  -25.4411  -13.2338   20.8504 C   0  0  0  0  0  0  0  0  0  0  0  0
  -25.0823  -29.0177   20.3100 C   0  0  0  0  0  0  0  0  0  0  0  0
  -27.3406  -12.2445   19.8832 C   0  0  0  0  0  0  0  0  0  0  0  0
  -29.5851  -12.4701   18.2420 C   0  0  0  0  0  0  0  0  0  0  0  0
  -28.6131  -12.0158   20.4066 C   0  0  0  0  0  0  0  0  0  0  0  0
  -23.0048  -16.6592   21.3292 C   0  0  0  0  0  0  0  0  0  0  0  0
  -21.2999  -24.5607   21.1866 C   0  0  0  0  0  0  0  0  0  0  0  0
  -21.7608  -18.2748   22.1523 C   0  0  0  0  0  0  0  0  0  0  0  0
  -22.5961  -16.6607   23.8685 C   0  0  0  0  0  0  0  0  0  0  0  0
  -22.5683  -31.4123   22.6467 C   0  0  0  0  0  0  0  0  0  0  0  0
  -21.4506  -30.5564   23.1709 C   0  0  0  0  0  0  0  0  0  0  0  0
  -27.4363  -25.1067   17.3729 C   0  0  0  0  0  0  0  0  0  0  0  0
  -28.0568  -23.5410   20.1452 C   0  0  0  0  0  0  0  0  0  0  0  0
  -27.7867  -23.4533   23.5461 C   0  0  0  0  0  0  0  0  0  0  0  0
  -21.2977  -22.9857   19.2204 C   0  0  0  0  0  0  0  0  0  0  0  0
  -28.2871  -21.2223   14.1721 C   0  0  0  0  0  0  0  0  0  0  0  0
  -28.5061  -26.9271   18.7505 C   0  0  0  0  0  0  0  0  0  0  0  0
  -26.4350  -25.4691   20.2768 C   0  0  0  0  0  0  0  0  0  0  0  0
  -27.5398  -21.4072   15.4903 C   0  0  0  0  0  0  0  0  0  0  0  0
  -23.2524  -26.0442   26.2368 C   0  0  0  0  0  0  0  0  0  0  0  0
  -20.4643  -19.9509   17.5553 C   0  0  0  0  0  0  0  0  0  0  0  0
  -22.6026  -24.9356   25.3872 C   0  0  0  0  0  0  0  0  0  0  0  0
  -22.9421  -27.0079   25.0753 C   0  0  0  0  0  0  0  0  0  0  0  0
  -26.6318  -22.6310   15.4221 C   0  0  0  0  0  0  0  0  0  0  0  0
  -21.0068  -18.8651   18.4875 C   0  0  0  0  0  0  0  0  0  0  0  0
  -21.3768  -21.1756   17.5197 C   0  0  0  0  0  0  0  0  0  0  0  0
  -22.2470  -20.6582   19.7657 C   0  0  0  0  0  0  0  0  0  0  0  0
  -21.7720  -26.0539   24.6879 C   0  0  0  0  0  0  0  0  0  0  0  0
  -27.4460  -23.9098   15.1916 C   0  0  1  0  0  0  0  0  0  0  0  0
  -28.2827  -25.4286   18.5719 C   0  0  1  0  0  0  0  0  0  0  0  0
  -21.3285  -19.4310   19.8846 C   0  0  2  0  0  0  0  0  0  0  0  0
  -22.5085  -33.1301   20.8386 C   0  0  0  0  0  0  0  0  0  0  0  0
  -28.3568  -22.0282   25.5314 C   0  0  0  0  0  0  0  0  0  0  0  0
  -25.7594  -21.6573   19.4498 C   0  0  0  0  0  0  0  0  0  0  0  0
  -25.7584  -20.8909   21.8333 C   0  0  0  0  0  0  0  0  0  0  0  0
  -27.7760  -20.5328   20.4107 C   0  0  0  0  0  0  0  0  0  0  0  0
  -29.4921  -25.5679   24.7204 C   0  0  0  0  0  0  0  0  0  0  0  0
  -20.5311  -28.2607   23.0848 C   0  0  0  0  0  0  0  0  0  0  0  0
  -23.9311  -31.0842   20.5559 C   0  0  0  0  0  0  0  0  0  1  0  0
  -22.6298  -31.6390   21.1413 C   0  0  1  0  0  0  0  0  0  0  0  0
  -27.2172  -22.8675   21.2037 C   0  0  1  0  0  0  0  0  0  0  0  0
  -28.8094  -23.1669   24.6308 C   0  0  2  0  0  0  0  0  0  0  0  0
  -26.6244  -21.5147   20.7180 C   0  0  0  0  0  0  0  0  0  0  0  0
  -20.7395  -25.5548   20.4617 N   0  0  0  0  0  0  0  0  0  0  0  0
  -22.6679  -17.3961   20.2674 N   0  0  0  0  0  0  0  0  0  0  0  0
  -21.9114  -18.3708   20.8001 N   0  0  0  0  0  0  0  0  0  0  0  0
  -27.6338  -24.8118   19.7307 N   0  0  0  0  0  0  0  0  0  0  0  0
  -21.6343  -21.6589   18.8780 N   0  0  0  0  0  0  0  0  0  0  0  0
  -21.0312  -19.1728   22.8477 N   0  0  0  0  0  0  0  0  0  0  0  0
  -23.3585  -15.5038   24.0800 N   0  0  0  0  0  0  0  0  0  0  0  0
  -21.5582  -23.3223   20.5484 N   0  0  0  0  0  0  0  0  0  0  0  0
  -21.4838  -29.2696   22.6853 N   0  0  0  0  0  0  0  0  0  0  0  0
  -28.0774  -24.3357   16.4222 N   0  0  0  0  0  0  0  0  0  0  0  0
  -28.0629  -22.7586   22.3875 N   0  0  0  0  0  0  0  0  0  0  0  0
  -29.0226  -24.3769   25.4742 N   0  3  0  0  0  0  0  0  0  0  0  0
  -22.0375  -17.2149   24.8454 O   0  0  0  0  0  0  0  0  0  0  0  0
  -23.3503  -31.8604   23.4735 O   0  0  0  0  0  0  0  0  0  0  0  0
  -20.6743  -31.0580   23.9685 O   0  0  0  0  0  0  0  0  0  0  0  0
  -26.2861  -25.5256   17.3153 O   0  0  0  0  0  0  0  0  0  0  0  0
  -29.0553  -22.9638   19.7077 O   0  0  0  0  0  0  0  0  0  0  0  0
  -26.8357  -24.2140   23.7115 O   0  0  0  0  0  0  0  0  0  0  0  0
  -20.7887  -23.7575   18.4036 O   0  0  0  0  0  0  0  0  0  0  0  0
  -26.2254  -12.1322   20.6965 O   0  0  0  0  0  0  0  0  0  0  0  0
  -24.0031  -29.6813   20.8069 O   0  0  0  0  0  0  0  0  0  1  0  0
  -30.6626  -12.5770   17.4534 F   0  0  0  0  0  0  0  0  0  0  0  0
  -28.7637  -11.6862   21.6968 F   0  0  0  0  0  0  0  0  0  0  0  0
  1  2  1  0  0  0  0
  1  5  2  0  0  0  0
  2  6  2  0  0  0  0
  3  8  2  0  0  0  0
  3 17  1  0  0  0  0
  4  9  1  0  0  0  0
  4 17  2  0  0  0  0
  5 19  1  0  0  0  0
  6 21  1  0  0  0  0
  7 10  2  0  0  0  0
  7 20  1  0  0  0  0
  8 25  1  0  0  0  0
  9 25  2  0  0  0  0
 10 26  1  0  0  0  0
 11 12  2  0  0  0  0
 11 27  1  0  0  0  0
 12 28  1  0  0  0  0
 13 22  1  0  0  0  0
 13 26  2  0  0  0  0
 14 23  1  0  0  0  0
 14 31  2  0  0  0  0
 15 28  2  0  0  0  0
 15 29  1  0  0  0  0
 16 24  1  0  0  0  0
 16 68  2  0  0  0  0
 17 30  1  0  0  0  0
 18 30  1  0  0  0  0
 18 32  2  0  0  0  0
 18 33  1  0  0  0  0
 19 21  2  0  0  0  0
 19 40  1  0  0  0  0
 20 22  2  0  0  0  0
 20 41  1  0  0  0  0
 21 53  1  0  0  0  0
 22 42  1  0  0  0  0
 23 24  2  0  0  0  0
 23 52  1  0  0  0  0
 24 62  1  0  0  0  0
 25 87  1  0  0  0  0
 26 88  1  0  0  0  0
 27 29  2  0  0  0  0
 27 87  1  0  0  0  0
 28 89  1  0  0  0  0
 29 90  1  0  0  0  0
 30 69  2  0  0  0  0
 31 68  1  0  0  0  0
 31 75  1  0  0  0  0
 32 70  1  0  0  0  0
 32 73  1  0  0  0  0
 33 74  1  0  0  0  0
 33 80  2  0  0  0  0
 34 35  1  0  0  0  0
 34 64  1  0  0  0  0
 34 81  2  0  0  0  0
 35 76  1  0  0  0  0
 35 82  2  0  0  0  0
 36 54  1  0  0  0  0
 36 77  1  0  0  0  0
 36 83  2  0  0  0  0
 37 65  1  0  0  0  0
 37 71  1  0  0  0  0
 37 84  2  0  0  0  0
 38 66  1  0  0  0  0
 38 78  1  0  0  0  0
 38 85  2  0  0  0  0
 39 72  1  0  0  0  0
 39 75  1  0  0  0  0
 39 86  2  0  0  0  0
 40 43  1  0  0  0  0
 41 54  1  0  0  0  0
 42 71  1  0  0  0  0
 43 48  1  0  0  0  0
 44 46  1  0  0  0  0
 44 47  1  0  0  0  0
 45 49  1  0  0  0  0
 45 50  1  0  0  0  0
 46 52  1  0  0  0  0
 47 52  1  0  0  0  0
 48 53  1  0  0  0  0
 49 55  1  0  0  0  0
 50 72  1  0  0  0  0
 51 55  1  0  0  0  0
 51 72  1  0  0  0  0
 53 77  1  0  0  0  0
 54 71  1  0  0  0  0
 55 70  1  0  0  0  0
 56 64  1  0  0  0  0
 57 66  1  0  0  0  0
 58 67  1  0  0  0  0
 59 67  1  0  0  0  0
 60 67  1  0  0  0  0
 61 79  1  0  0  0  0
 62 76  1  0  0  0  0
 63 64  1  0  0  0  0
 63 88  1  0  0  0  0
 65 67  1  0  0  0  0
 65 78  1  0  0  0  0
 66 79  1  0  0  0  0
 69 70  1  0  0  0  0
M  CHG  1  79   1
M  ISO  4  39 100  63 101  75 100  88 101
M  END
> <Batch ID>
0165

> <Smiles>
CNC(C)C(=O)NC(C(=O)N1Cc2cc([101O:1][101CH2:1]C(C)C(=O)C(=O)NCc3cnc([100NH:0][100C:0](=O)N4CCCC(n5nc(-c6ccc(Oc7ccc(F)cc7F)cc6)c(C(N)=O)c5N)C4)cc3C3CCC3)ccc2CC1C(=O)NC1CCCc2ccccc21)C(C)(C)C

> <Shape>
0.193

> <Color>
0.077

> <Negative vol penalty>
0.000

$$$$

  -OEChem-04052304053D

 85 93  0     1  0  0  0  0  0999 V2000
  -25.3383  -29.8814   19.6206 C   0  0  0  0  0  0  0  0  0  0  0  0
  -24.5763  -28.9237   20.2822 C   0  0  0  0  0  0  0  0  0  0  0  0
  -23.8134   -9.7943   22.1585 C   0  0  0  0  0  0  0  0  0  0  0  0
  -22.4136  -10.2059   20.2329 C   0  0  0  0  0  0  0  0  0  0  0  0
  -25.4001  -31.1840   20.1139 C   0  0  0  0  0  0  0  0  0  0  0  0
  -23.8766  -29.2678   21.4382 C   0  0  0  0  0  0  0  0  0  0  0  0
  -19.1492  -27.4523   21.4608 C   0  0  0  0  0  0  0  0  0  0  0  0
  -23.4413   -8.4501   22.1418 C   0  0  0  0  0  0  0  0  0  0  0  0
  -22.0415   -8.8617   20.2161 C   0  0  0  0  0  0  0  0  0  0  0  0
  -18.9868  -26.1032   21.7727 C   0  0  0  0  0  0  0  0  0  0  0  0
  -20.7920   -6.5874   23.1091 C   0  0  0  0  0  0  0  0  0  0  0  0
  -20.4516   -5.9947   24.3250 C   0  0  0  0  0  0  0  0  0  0  0  0
  -18.3719  -26.7047   24.0265 C   0  0  0  0  0  0  0  0  0  0  0  0
  -17.5505  -18.2509   21.4293 C   0  0  0  0  0  0  0  0  0  0  0  0
  -22.2373   -4.3918   24.0436 C   0  0  0  0  0  0  0  0  0  0  0  0
  -18.1900  -17.1355   19.4284 C   0  0  0  0  0  0  0  0  0  0  0  0
  -23.2996  -10.6722   21.2041 C   0  0  0  0  0  0  0  0  0  0  0  0
  -24.7740  -12.6499   20.5540 C   0  0  0  0  0  0  0  0  0  0  0  0
  -24.6931  -31.5467   21.2711 C   0  0  0  0  0  0  0  0  0  0  0  0
  -18.9345  -28.4388   22.4340 C   0  0  0  0  0  0  0  0  0  0  0  0
  -23.9302  -30.5762   21.9483 C   0  0  0  0  0  0  0  0  0  0  0  0
  -18.5298  -28.0657   23.7236 C   0  0  0  0  0  0  0  0  0  0  0  0
  -16.3305  -18.5533   20.8348 C   0  0  0  0  0  0  0  0  0  0  0  0
  -18.5034  -17.5288   20.7194 C   0  0  0  0  0  0  0  0  0  0  0  0
  -22.5553   -7.9838   21.1705 C   0  0  0  0  0  0  0  0  0  0  0  0
  -18.6008  -25.7291   23.0565 C   0  0  0  0  0  0  0  0  0  0  0  0
  -21.8549   -6.0822   22.3603 C   0  0  0  0  0  0  0  0  0  0  0  0
  -21.1743   -4.8969   24.7923 C   0  0  0  0  0  0  0  0  0  0  0  0
  -22.5776   -4.9845   22.8276 C   0  0  0  0  0  0  0  0  0  0  0  0
  -23.6832  -12.0610   21.2213 C   0  0  0  0  0  0  0  0  0  0  0  0
  -16.1144  -18.1143   19.5385 C   0  0  0  0  0  0  0  0  0  0  0  0
  -24.7035  -13.9801   20.8885 C   0  0  0  0  0  0  0  0  0  0  0  0
  -25.7624  -12.0483   19.7074 C   0  0  0  0  0  0  0  0  0  0  0  0
  -20.7424  -30.6589   23.8148 C   0  0  0  0  0  0  0  0  0  0  0  0
  -17.2095  -22.3951   22.8513 C   0  0  0  0  0  0  0  0  0  0  0  0
  -17.9287  -31.5621   25.1527 C   0  0  0  0  0  0  0  0  0  0  0  0
  -14.7654  -30.7044   26.1037 C   0  0  0  0  0  0  0  0  0  0  0  0
  -20.2049  -17.5321   22.5772 C   0  0  0  0  0  0  0  0  0  0  0  0
  -24.8286  -32.9552   21.7930 C   0  0  0  0  0  0  0  0  0  0  0  0
  -19.0880  -29.8912   22.0741 C   0  0  0  0  0  0  0  0  0  0  0  0
  -18.2670  -29.0871   24.7989 C   0  0  0  0  0  0  0  0  0  0  0  0
  -23.7574  -33.3324   22.8131 C   0  0  0  0  0  0  0  0  0  0  0  0
  -23.2035  -16.8877   24.3857 C   0  0  0  0  0  0  0  0  0  0  0  0
  -23.5933  -32.2250   23.8492 C   0  0  0  0  0  0  0  0  0  0  0  0
  -23.7692  -15.6339   23.7148 C   0  0  0  0  0  0  0  0  0  0  0  0
  -21.6780  -16.8522   24.4594 C   0  0  0  0  0  0  0  0  0  0  0  0
  -21.5659  -15.3506   22.5096 C   0  0  0  0  0  0  0  0  0  0  0  0
  -23.1372  -30.9171   23.1913 C   0  0  1  0  0  0  0  0  0  0  0  0
  -19.3416  -30.7833   23.2854 C   0  0  1  0  0  0  0  0  0  0  0  0
  -23.0953  -15.3702   22.3539 C   0  0  2  0  0  0  0  0  0  0  0  0
  -14.3725  -18.4443   22.4308 C   0  0  0  0  0  0  0  0  0  0  0  0
  -12.7163  -31.6451   27.2053 C   0  0  0  0  0  0  0  0  0  0  0  0
  -19.3001  -31.3600   27.8708 C   0  0  0  0  0  0  0  0  0  0  0  0
  -17.0346  -31.3677   28.9365 C   0  0  0  0  0  0  0  0  0  0  0  0
  -17.7926  -33.3380   27.6075 C   0  0  0  0  0  0  0  0  0  0  0  0
  -13.1117  -30.2303   23.6956 C   0  0  0  0  0  0  0  0  0  0  0  0
  -16.6859  -21.4011   21.8485 C   0  0  0  0  0  0  0  0  0  0  0  0
  -18.0345  -23.5439   22.3079 C   0  0  0  0  0  0  0  0  0  1  0  0
  -15.2973  -19.3388   21.6090 C   0  0  1  0  0  0  0  0  0  0  0  0
  -17.1773  -31.1978   26.4103 C   0  0  1  0  0  0  0  0  0  0  0  0
  -13.4278  -31.3883   25.8860 C   0  0  2  0  0  0  0  0  0  0  0  0
  -17.8329  -31.7963   27.6868 C   0  0  0  0  0  0  0  0  0  0  0  0
  -17.0159  -17.4107   18.8174 N   0  0  0  0  0  0  0  0  0  0  0  0
  -22.9720  -12.9446   21.9265 N   0  0  0  0  0  0  0  0  0  0  0  0
  -23.6174  -14.1023   21.7043 N   0  0  0  0  0  0  0  0  0  0  0  0
  -18.4368  -30.4940   24.3998 N   0  0  0  0  0  0  0  0  0  0  0  0
  -21.1093  -16.6026   23.1331 N   0  0  0  0  0  0  0  0  0  0  0  0
  -14.8726  -18.4204   18.9281 N   0  0  0  0  0  0  0  0  0  0  0  0
  -25.4654  -15.0455   20.5616 N   0  0  0  0  0  0  0  0  0  0  0  0
  -25.6874  -10.6693   19.4682 N   0  0  0  0  0  0  0  0  0  0  0  0
  -19.7556  -17.2051   21.2982 N   0  0  0  0  0  0  0  0  0  0  0  0
  -21.7224  -30.9689   22.8913 N   0  0  0  0  0  0  0  0  0  0  0  0
  -15.7960  -31.6158   26.1959 N   0  0  0  0  0  0  0  0  0  0  0  0
  -12.5460  -30.5418   25.0334 N   0  3  0  0  0  0  0  0  0  0  0  0
  -15.9066  -20.3420   22.5268 N   0  3  0  0  0  0  0  0  0  0  0  0
  -26.6945  -12.7109   19.1920 O   0  0  0  0  0  0  0  0  0  0  0  0
  -20.9207  -30.3090   24.9756 O   0  0  0  0  0  0  0  0  0  0  0  0
  -16.9894  -22.2580   24.0545 O   0  0  0  0  0  0  0  0  0  0  0  0
  -18.0540  -32.7503   24.8457 O   0  0  0  0  0  0  0  0  0  0  0  0
  -14.8837  -29.4839   26.1876 O   0  0  0  0  0  0  0  0  0  0  0  0
  -19.8759  -18.5573   23.1794 O   0  0  0  0  0  0  0  0  0  0  0  0
  -22.1921   -6.6722   21.1537 O   0  0  0  0  0  0  0  0  0  0  0  0
  -18.4422  -24.4129   23.3638 O   0  0  0  0  0  0  0  0  0  1  0  0
  -20.8483   -4.3289   25.9607 F   0  0  0  0  0  0  0  0  0  0  0  0
  -23.6006   -4.4955   22.1132 F   0  0  0  0  0  0  0  0  0  0  0  0
  1  2  1  0  0  0  0
  1  5  2  0  0  0  0
  2  6  2  0  0  0  0
  3  8  2  0  0  0  0
  3 17  1  0  0  0  0
  4  9  1  0  0  0  0
  4 17  2  0  0  0  0
  5 19  1  0  0  0  0
  6 21  1  0  0  0  0
  7 10  2  0  0  0  0
  7 20  1  0  0  0  0
  8 25  1  0  0  0  0
  9 25  2  0  0  0  0
 10 26  1  0  0  0  0
 11 12  2  0  0  0  0
 11 27  1  0  0  0  0
 12 28  1  0  0  0  0
 13 22  1  0  0  0  0
 13 26  2  0  0  0  0
 14 23  1  0  0  0  0
 14 24  2  0  0  0  0
 15 28  2  0  0  0  0
 15 29  1  0  0  0  0
 16 24  1  0  0  0  0
 16 63  2  0  0  0  0
 17 30  1  0  0  0  0
 18 30  1  0  0  0  0
 18 32  2  0  0  0  0
 18 33  1  0  0  0  0
 19 21  2  0  0  0  0
 19 39  1  0  0  0  0
 20 22  2  0  0  0  0
 20 40  1  0  0  0  0
 21 48  1  0  0  0  0
 22 41  1  0  0  0  0
 23 31  2  0  0  0  0
 23 59  1  0  0  0  0
 24 71  1  0  0  0  0
 25 82  1  0  0  0  0
 26 83  1  0  0  0  0
 27 29  2  0  0  0  0
 27 82  1  0  0  0  0
 28 84  1  0  0  0  0
 29 85  1  0  0  0  0
 30 64  2  0  0  0  0
 31 63  1  0  0  0  0
 31 68  1  0  0  0  0
 32 65  1  0  0  0  0
 32 69  1  0  0  0  0
 33 70  1  0  0  0  0
 33 76  2  0  0  0  0
 34 49  1  0  0  0  0
 34 72  1  0  0  0  0
 34 77  2  0  0  0  0
 35 57  1  0  0  0  0
 35 58  1  0  0  0  0
 35 78  2  0  0  0  0
 36 60  1  0  0  0  0
 36 66  1  0  0  0  0
 36 79  2  0  0  0  0
 37 61  1  0  0  0  0
 37 73  1  0  0  0  0
 37 80  2  0  0  0  0
 38 67  1  0  0  0  0
 38 71  1  0  0  0  0
 38 81  2  0  0  0  0
 39 42  1  0  0  0  0
 40 49  1  0  0  0  0
 41 66  1  0  0  0  0
 42 44  1  0  0  0  0
 43 45  1  0  0  0  0
 43 46  1  0  0  0  0
 44 48  1  0  0  0  0
 45 50  1  0  0  0  0
 46 67  1  0  0  0  0
 47 50  1  0  0  0  0
 47 67  1  0  0  0  0
 48 72  1  0  0  0  0
 49 66  1  0  0  0  0
 50 65  1  0  0  0  0
 51 59  1  0  0  0  0
 52 61  1  0  0  0  0
 53 62  1  0  0  0  0
 54 62  1  0  0  0  0
 55 62  1  0  0  0  0
 56 74  1  0  0  0  0
 57 75  1  0  0  0  0
 58 83  1  0  0  0  0
 59 75  1  0  0  0  0
 60 62  1  0  0  0  0
 60 73  1  0  0  0  0
 61 74  1  0  0  0  0
 64 65  1  0  0  0  0
M  CHG  2  74   1  75   1
M  ISO  4  38 100  58 101  71 100  83 101
M  END
> <Batch ID>
0165

> <Smiles>
CNC(C)C(=O)NC(C(=O)N1Cc2cc([101O:1][101CH2:1]C(=O)CNC(C)c3cc([100NH:0][100C:0](=O)N4CCCC(n5nc(-c6ccc(Oc7ccc(F)cc7F)cc6)c(C(N)=O)c5N)C4)cnc3N)ccc2CC1C(=O)NC1CCCc2ccccc21)C(C)(C)C

> <Shape>
0.215

> <Color>
0.121

> <Negative vol penalty>
0.000

$$$$

  -OEChem-04052304053D

 86 94  0     1  0  0  0  0  0999 V2000
  -17.1045  -13.1828   23.4798 C   0  0  0  0  0  0  0  0  0  0  0  0
  -17.8991  -14.2691   23.1279 C   0  0  0  0  0  0  0  0  0  0  0  0
  -30.5675  -24.6548   19.4489 C   0  0  0  0  0  0  0  0  0  0  0  0
  -28.2487  -23.9909   19.3091 C   0  0  0  0  0  0  0  0  0  0  0  0
  -17.6984  -11.9901   23.8904 C   0  0  0  0  0  0  0  0  0  0  0  0
  -19.2883  -14.1637   23.1874 C   0  0  0  0  0  0  0  0  0  0  0  0
  -21.5610  -16.1072   19.1006 C   0  0  0  0  0  0  0  0  0  0  0  0
  -30.9502  -23.3137   19.4705 C   0  0  0  0  0  0  0  0  0  0  0  0
  -28.6314  -22.6497   19.3307 C   0  0  0  0  0  0  0  0  0  0  0  0
  -21.6764  -17.4951   19.0358 C   0  0  0  0  0  0  0  0  0  0  0  0
  -28.9742  -19.0515   19.7118 C   0  0  0  0  0  0  0  0  0  0  0  0
  -28.2604  -18.1869   20.5415 C   0  0  0  0  0  0  0  0  0  0  0  0
  -23.9666  -17.3333   19.7760 C   0  0  0  0  0  0  0  0  0  0  0  0
  -20.9562  -26.6413   21.3660 C   0  0  0  0  0  0  0  0  0  0  0  0
  -19.8036  -28.4671   22.4498 C   0  0  0  0  0  0  0  0  0  0  0  0
  -19.1826  -26.1846   22.9416 C   0  0  0  0  0  0  0  0  0  0  0  0
  -28.8933  -19.5081   22.4627 C   0  0  0  0  0  0  0  0  0  0  0  0
  -29.2167  -24.9934   19.3682 C   0  0  0  0  0  0  0  0  0  0  0  0
  -29.1837  -27.3517   18.3961 C   0  0  0  0  0  0  0  0  0  0  0  0
  -19.0957  -11.8669   23.9457 C   0  0  0  0  0  0  0  0  0  0  0  0
  -22.6461  -15.3214   19.5147 C   0  0  0  0  0  0  0  0  0  0  0  0
  -19.9014  -12.9686   23.6004 C   0  0  0  0  0  0  0  0  0  0  0  0
  -23.8633  -15.9355   19.8427 C   0  0  0  0  0  0  0  0  0  0  0  0
  -20.7790  -28.0107   21.5633 C   0  0  0  0  0  0  0  0  0  0  0  0
  -20.1580  -25.7283   22.0551 C   0  0  0  0  0  0  0  0  0  0  0  0
  -29.9821  -22.3111   19.4114 C   0  0  0  0  0  0  0  0  0  0  0  0
  -22.8784  -18.1086   19.3763 C   0  0  0  0  0  0  0  0  0  0  0  0
  -29.6476  -20.1444   20.2575 C   0  0  0  0  0  0  0  0  0  0  0  0
  -28.2199  -18.4152   21.9170 C   0  0  0  0  0  0  0  0  0  0  0  0
  -19.0053  -27.5540   23.1390 C   0  0  0  0  0  0  0  0  0  0  0  0
  -29.6071  -20.3727   21.6329 C   0  0  0  0  0  0  0  0  0  0  0  0
  -28.8207  -26.3786   19.3464 C   0  0  0  0  0  0  0  0  0  0  0  0
  -28.5538  -28.4966   18.8191 C   0  0  0  0  0  0  0  0  0  0  0  0
  -22.1580  -20.2159   20.0912 C   0  0  0  0  0  0  0  0  0  1  0  0
  -30.0159  -27.2314   17.2347 C   0  0  0  0  0  0  0  0  0  0  0  0
  -22.1843  -21.5536   20.1090 C   0  0  0  0  0  0  0  0  0  0  0  0
  -21.2285  -22.2929   20.9923 C   0  0  0  0  0  0  0  0  0  0  0  0
  -23.1797  -13.3308   21.9347 C   0  0  0  0  0  0  0  0  0  0  0  0
  -25.9597  -12.7782   20.3572 C   0  0  0  0  0  0  0  0  0  0  0  0
  -28.3115  -13.8977   18.1520 C   0  0  0  0  0  0  0  0  0  0  0  0
  -23.6739  -29.4731   22.1484 C   0  0  0  0  0  0  0  0  0  0  0  0
  -19.6912  -10.5728   24.4410 C   0  0  0  0  0  0  0  0  0  0  0  0
  -22.5138  -13.8236   19.5536 C   0  0  0  0  0  0  0  0  0  0  0  0
  -25.0643  -15.1354   20.2740 C   0  0  0  0  0  0  0  0  0  0  0  0
  -21.1756  -10.4224   24.1179 C   0  0  0  0  0  0  0  0  0  0  0  0
  -26.9721  -30.6525   22.7866 C   0  0  0  0  0  0  0  0  0  0  0  0
  -21.9288  -11.7042   24.4589 C   0  0  0  0  0  0  0  0  0  0  0  0
  -27.8526  -29.7787   21.8916 C   0  0  0  0  0  0  0  0  0  0  0  0
  -25.7969  -29.8659   23.3629 C   0  0  0  0  0  0  0  0  0  0  0  0
  -25.8505  -28.2921   21.4671 C   0  0  0  0  0  0  0  0  0  0  0  0
  -21.4122  -12.8852   23.6283 C   0  0  1  0  0  0  0  0  0  0  0  0
  -23.5247  -13.1584   20.4825 C   0  0  1  0  0  0  0  0  0  0  0  0
  -27.0176  -29.0554   20.8179 C   0  0  2  0  0  0  0  0  0  0  0  0
  -30.4889  -13.2402   17.0918 C   0  0  0  0  0  0  0  0  0  0  0  0
  -27.4186  -13.4252   22.9578 C   0  0  0  0  0  0  0  0  0  0  0  0
  -29.5251  -13.6854   21.6299 C   0  0  0  0  0  0  0  0  0  0  0  0
  -28.3556  -11.4829   21.6914 C   0  0  0  0  0  0  0  0  0  0  0  0
  -27.1458  -13.9807   15.4329 C   0  0  0  0  0  0  0  0  0  0  0  0
  -21.6309  -28.9876   20.8257 C   0  0  0  0  0  0  0  0  0  0  0  0
  -21.3138  -23.8058   20.9624 C   0  0  0  0  0  0  0  0  0  0  0  0
  -27.3401  -13.3891   20.3773 C   0  0  1  0  0  0  0  0  0  0  0  0
  -28.9738  -13.2298   16.9605 C   0  0  2  0  0  0  0  0  0  0  0  0
  -28.1368  -13.0112   21.6579 C   0  0  0  0  0  0  0  0  0  0  0  0
  -28.0222  -26.8631   20.3013 N   0  0  0  0  0  0  0  0  0  0  0  0
  -27.8784  -28.1531   19.9531 N   0  0  0  0  0  0  0  0  0  0  0  0
  -24.8831  -13.6746   20.3021 N   0  0  0  0  0  0  0  0  0  0  0  0
  -25.0452  -29.2056   22.2929 N   0  0  0  0  0  0  0  0  0  0  0  0
  -28.5174  -29.7535   18.3280 N   0  0  0  0  0  0  0  0  0  0  0  0
  -29.4167  -26.8825   16.0167 N   0  0  0  0  0  0  0  0  0  0  0  0
  -20.3330  -24.3667   21.8582 N   0  0  0  0  0  0  0  0  0  0  0  0
  -21.9412  -12.8263   22.2825 N   0  0  0  0  0  0  0  0  0  0  0  0
  -27.9836  -12.9848   19.1321 N   0  0  0  0  0  0  0  0  0  0  0  0
  -23.0385  -28.8106   21.1053 N   0  0  0  0  0  0  0  0  0  0  0  0
  -28.6064  -13.9359   15.7005 N   0  3  0  0  0  0  0  0  0  0  0  0
  -31.2565  -27.4115   17.2793 O   0  0  0  0  0  0  0  0  0  0  0  0
  -20.4220  -21.6916   21.6998 O   0  0  0  0  0  0  0  0  0  0  0  0
  -23.9787  -13.8795   22.6845 O   0  0  0  0  0  0  0  0  0  0  0  0
  -25.8413  -11.5506   20.3820 O   0  0  0  0  0  0  0  0  0  0  0  0
  -28.1088  -15.1085   18.2093 O   0  0  0  0  0  0  0  0  0  0  0  0
  -23.0624  -30.2492   22.8904 O   0  0  0  0  0  0  0  0  0  0  0  0
  -23.0594  -22.2935   19.3434 O   0  0  0  0  0  0  0  0  0  0  0  0
  -30.3552  -21.0023   19.4323 O   0  0  0  0  0  0  0  0  0  0  0  0
  -22.9935  -19.4632   19.3146 O   0  0  0  0  0  0  0  0  0  1  0  0
  -27.5331  -17.5857   22.7135 F   0  0  0  0  0  0  0  0  0  0  0  0
  -18.0691  -27.9924   23.9907 F   0  0  0  0  0  0  0  0  0  0  0  0
  -30.2511  -21.4217   22.1628 F   0  0  0  0  0  0  0  0  0  0  0  0
  1  2  1  0  0  0  0
  1  5  2  0  0  0  0
  2  6  2  0  0  0  0
  3  8  2  0  0  0  0
  3 18  1  0  0  0  0
  4  9  1  0  0  0  0
  4 18  2  0  0  0  0
  5 20  1  0  0  0  0
  6 22  1  0  0  0  0
  7 10  2  0  0  0  0
  7 21  1  0  0  0  0
  8 26  1  0  0  0  0
  9 26  2  0  0  0  0
 10 27  1  0  0  0  0
 11 12  2  0  0  0  0
 11 28  1  0  0  0  0
 12 29  1  0  0  0  0
 13 23  1  0  0  0  0
 13 27  2  0  0  0  0
 14 24  1  0  0  0  0
 14 25  2  0  0  0  0
 15 24  2  0  0  0  0
 15 30  1  0  0  0  0
 16 25  1  0  0  0  0
 16 30  2  0  0  0  0
 17 29  2  0  0  0  0
 17 31  1  0  0  0  0
 18 32  1  0  0  0  0
 19 32  1  0  0  0  0
 19 33  2  0  0  0  0
 19 35  1  0  0  0  0
 20 22  2  0  0  0  0
 20 42  1  0  0  0  0
 21 23  2  0  0  0  0
 21 43  1  0  0  0  0
 22 51  1  0  0  0  0
 23 44  1  0  0  0  0
 24 59  1  0  0  0  0
 25 70  1  0  0  0  0
 26 82  1  0  0  0  0
 27 83  1  0  0  0  0
 28 31  2  0  0  0  0
 28 82  1  0  0  0  0
 29 84  1  0  0  0  0
 30 85  1  0  0  0  0
 31 86  1  0  0  0  0
 32 64  2  0  0  0  0
 33 65  1  0  0  0  0
 33 68  1  0  0  0  0
 34 36  2  0  0  0  0
 34 83  1  0  0  0  0
 35 69  1  0  0  0  0
 35 75  2  0  0  0  0
 36 37  1  0  0  0  0
 36 81  1  0  0  0  0
 37 60  1  0  0  0  0
 37 76  2  0  0  0  0
 38 52  1  0  0  0  0
 38 71  1  0  0  0  0
 38 77  2  0  0  0  0
 39 61  1  0  0  0  0
 39 66  1  0  0  0  0
 39 78  2  0  0  0  0
 40 62  1  0  0  0  0
 40 72  1  0  0  0  0
 40 79  2  0  0  0  0
 41 67  1  0  0  0  0
 41 73  1  0  0  0  0
 41 80  2  0  0  0  0
 42 45  1  0  0  0  0
 43 52  1  0  0  0  0
 44 66  1  0  0  0  0
 45 47  1  0  0  0  0
 46 48  1  0  0  0  0
 46 49  1  0  0  0  0
 47 51  1  0  0  0  0
 48 53  1  0  0  0  0
 49 67  1  0  0  0  0
 50 53  1  0  0  0  0
 50 67  1  0  0  0  0
 51 71  1  0  0  0  0
 52 66  1  0  0  0  0
 53 65  1  0  0  0  0
 54 62  1  0  0  0  0
 55 63  1  0  0  0  0
 56 63  1  0  0  0  0
 57 63  1  0  0  0  0
 58 74  1  0  0  0  0
 59 73  1  0  0  0  0
 60 70  1  0  0  0  0
 61 63  1  0  0  0  0
 61 72  1  0  0  0  0
 62 74  1  0  0  0  0
 64 65  1  0  0  0  0
M  CHG  1  74   1
M  ISO  4  34 101  41 100  73 100  83 101
M  END
> <Batch ID>
0165

> <Smiles>
CNC(C)C(=O)NC(C(=O)N1Cc2cc([101O:1][101CH2:1]C(=O)C(=O)CNc3cc(F)cc(C[100NH:0][100C:0](=O)N4CCCC(n5nc(-c6ccc(Oc7ccc(F)cc7F)cc6)c(C(N)=O)c5N)C4)c3)ccc2CC1C(=O)NC1CCCc2ccccc21)C(C)(C)C

> <Shape>
0.255

> <Color>
0.064

> <Negative vol penalty>
0.000

$$$$

  -OEChem-04052304053D

 86 95  0     1  0  0  0  0  0999 V2000
  -30.0047  -36.8215   20.7857 C   0  0  0  0  0  0  0  0  0  0  0  0
  -30.0325  -35.4891   20.3866 C   0  0  0  0  0  0  0  0  0  0  0  0
  -22.9374   -9.4749   19.9949 C   0  0  0  0  0  0  0  0  0  0  0  0
  -24.6477   -8.3952   21.3163 C   0  0  0  0  0  0  0  0  0  0  0  0
  -29.3274  -37.1857   21.9487 C   0  0  0  0  0  0  0  0  0  0  0  0
  -29.3838  -34.5199   21.1509 C   0  0  0  0  0  0  0  0  0  0  0  0
  -28.2524  -18.9156   20.3307 C   0  0  0  0  0  0  0  0  0  0  0  0
  -26.5273  -29.5101   19.0898 C   0  0  0  0  0  0  0  0  0  0  0  0
  -28.6445  -17.6024   20.0713 C   0  0  0  0  0  0  0  0  0  0  0  0
  -21.9656   -9.0360   20.8940 C   0  0  0  0  0  0  0  0  0  0  0  0
  -23.6758   -7.9563   22.2155 C   0  0  0  0  0  0  0  0  0  0  0  0
  -26.9249  -28.1775   18.9907 C   0  0  0  0  0  0  0  0  0  0  0  0
  -21.3636   -5.4952   22.3797 C   0  0  0  0  0  0  0  0  0  0  0  0
  -21.4280   -4.1691   22.8074 C   0  0  0  0  0  0  0  0  0  0  0  0
  -25.8457  -27.7053   21.0959 C   0  0  0  0  0  0  0  0  0  0  0  0
  -26.5120  -17.1732   19.0200 C   0  0  0  0  0  0  0  0  0  0  0  0
  -21.6684   -4.9176   25.0919 C   0  0  0  0  0  0  0  0  0  0  0  0
  -24.2785   -9.1545   20.2060 C   0  0  0  0  0  0  0  0  0  0  0  0
  -25.3655   -9.3109   17.9035 C   0  0  0  0  0  0  0  0  0  0  0  0
  -28.6619  -36.2218   22.7224 C   0  0  0  0  0  0  0  0  0  0  0  0
  -25.7940  -29.9534   20.1998 C   0  0  0  0  0  0  0  0  0  0  0  0
  -28.6980  -34.8713   22.3260 C   0  0  0  0  0  0  0  0  0  0  0  0
  -26.9900  -19.3576   19.9348 C   0  0  0  0  0  0  0  0  0  0  0  0
  -25.4378  -29.0434   21.2054 C   0  0  0  0  0  0  0  0  0  0  0  0
  -27.7743  -16.7312   19.4160 C   0  0  0  0  0  0  0  0  0  0  0  0
  -26.1198  -18.4865   19.2795 C   0  0  0  0  0  0  0  0  0  0  0  0
  -22.3348   -8.2768   22.0043 C   0  0  0  0  0  0  0  0  0  0  0  0
  -26.5867  -27.2755   19.9953 C   0  0  0  0  0  0  0  0  0  0  0  0
  -21.4516   -6.5325   23.3081 C   0  0  0  0  0  0  0  0  0  0  0  0
  -21.5803   -3.8803   24.1635 C   0  0  0  0  0  0  0  0  0  0  0  0
  -21.6040   -6.2437   24.6642 C   0  0  0  0  0  0  0  0  0  0  0  0
  -25.2828   -9.6071   19.2772 C   0  0  0  0  0  0  0  0  0  0  0  0
  -26.4894   -9.9748   17.4761 C   0  0  0  0  0  0  0  0  0  0  0  0
  -24.5035   -8.5074   17.0867 C   0  0  0  0  0  0  0  0  0  0  0  0
  -26.2909  -32.0743   22.5147 C   0  0  0  0  0  0  0  0  0  0  0  0
  -23.2244  -31.3596   23.2946 C   0  0  0  0  0  0  0  0  0  0  0  0
  -20.6491  -29.1237   23.1700 C   0  0  0  0  0  0  0  0  0  0  0  0
  -29.3900  -14.7994   19.4798 C   0  0  0  0  0  0  0  0  0  0  0  0
  -27.9829  -36.6566   23.9971 C   0  0  0  0  0  0  0  0  0  0  0  0
  -25.3497  -31.3883   20.2787 C   0  0  0  0  0  0  0  0  0  0  0  0
  -24.6343  -29.4646   22.4077 C   0  0  0  0  0  0  0  0  0  0  0  0
  -27.0049  -35.6228   24.5494 C   0  0  0  0  0  0  0  0  0  0  0  0
  -30.7391  -11.5340   19.0389 C   0  0  0  0  0  0  0  0  0  0  0  0
  -26.9188  -21.7298   19.0565 C   0  0  0  0  0  0  0  0  0  0  0  0
  -27.2176  -21.3034   21.5369 C   0  0  0  0  0  0  0  0  0  0  0  0
  -27.6355  -34.2339   24.5420 C   0  0  0  0  0  0  0  0  0  0  0  0
  -29.5005  -10.6432   18.9189 C   0  0  0  0  0  0  0  0  0  0  0  0
  -26.4994  -23.1715   19.3569 C   0  0  0  0  0  0  0  0  0  0  0  0
  -26.7949  -22.7444   21.8338 C   0  0  0  0  0  0  0  0  0  0  0  0
  -30.5293  -12.6645   20.0448 C   0  0  0  0  0  0  0  0  0  0  0  0
  -28.0912  -12.5903   19.6997 C   0  0  0  0  0  0  0  0  0  0  0  0
  -26.5898  -20.7919   20.2297 C   0  0  0  0  0  0  0  0  0  0  0  0
  -27.9854  -33.7945   23.1152 C   0  0  1  0  0  0  0  0  0  0  0  0
  -25.0476  -31.8427   21.7033 C   0  0  1  0  0  0  0  0  0  0  0  0
  -28.2316  -11.4756   18.6501 C   0  0  2  0  0  0  0  0  0  0  0  0
  -27.1064  -23.6951   20.6671 C   0  0  0  0  0  0  0  0  0  0  0  0
  -18.2789  -28.8046   23.9299 C   0  0  0  0  0  0  0  0  0  0  0  0
  -24.2123  -30.7706   26.1207 C   0  0  0  0  0  0  0  0  0  0  0  0
  -22.0542  -29.5768   26.5514 C   0  0  0  0  0  0  0  0  0  0  0  0
  -22.0441  -32.0121   26.0111 C   0  0  0  0  0  0  0  0  0  0  0  0
  -19.6622  -28.9182   20.3874 C   0  0  0  0  0  0  0  0  0  0  0  0
  -26.5930  -25.1047   20.9667 C   0  0  0  0  0  0  0  0  0  1  0  0
  -22.5579  -30.3396   24.1860 C   0  0  1  0  0  0  0  0  0  0  0  0
  -19.1842  -29.2936   22.8101 C   0  0  2  0  0  0  0  0  0  0  0  0
  -22.7340  -30.6669   25.6957 C   0  0  0  0  0  0  0  0  0  0  0  0
  -26.2752  -10.3975   19.6949 N   0  0  0  0  0  0  0  0  0  0  0  0
  -26.9921  -10.6036   18.5770 N   0  0  0  0  0  0  0  0  0  0  0  0
  -24.2288  -30.8795   22.4422 N   0  0  0  0  0  0  0  0  0  0  0  0
  -29.3113  -13.4121   19.7246 N   0  0  0  0  0  0  0  0  0  0  0  0
  -24.8377  -18.9172   18.8725 N   0  0  0  0  0  0  0  0  0  0  0  0
  -27.0867  -10.0762   16.2697 N   0  0  0  0  0  0  0  0  0  0  0  0
  -24.7853   -7.1402   16.9613 N   0  0  0  0  0  0  0  0  0  0  0  0
  -28.1732  -15.3972   19.1533 N   0  0  0  0  0  0  0  0  0  0  0  0
  -26.7967  -33.3564   22.4154 N   0  0  0  0  0  0  0  0  0  0  0  0
  -21.1680  -30.2622   23.7495 N   0  0  0  0  0  0  0  0  0  0  0  0
  -18.8616  -28.5242   21.5752 N   0  3  0  0  0  0  0  0  0  0  0  0
  -23.5223   -8.9909   16.4727 O   0  0  0  0  0  0  0  0  0  0  0  0
  -26.7559  -31.1581   23.1825 O   0  0  0  0  0  0  0  0  0  0  0  0
  -22.8621  -32.5375   23.3473 O   0  0  0  0  0  0  0  0  0  0  0  0
  -21.2699  -28.0837   22.9616 O   0  0  0  0  0  0  0  0  0  0  0  0
  -30.4626  -15.4070   19.5276 O   0  0  0  0  0  0  0  0  0  0  0  0
  -28.5246  -23.7745   20.4959 O   0  0  0  0  0  0  0  0  0  0  0  0
  -21.3867   -7.8485   22.8820 O   0  0  0  0  0  0  0  0  0  0  0  0
  -26.9741  -25.9743   19.9014 O   0  0  0  0  0  0  0  0  0  1  0  0
  -21.6406   -2.6067   24.5742 F   0  0  0  0  0  0  0  0  0  0  0  0
  -21.6880   -7.2360   25.5610 F   0  0  0  0  0  0  0  0  0  0  0  0
  1  2  1  0  0  0  0
  1  5  2  0  0  0  0
  2  6  2  0  0  0  0
  3 10  2  0  0  0  0
  3 18  1  0  0  0  0
  4 11  1  0  0  0  0
  4 18  2  0  0  0  0
  5 20  1  0  0  0  0
  6 22  1  0  0  0  0
  7  9  2  0  0  0  0
  7 23  1  0  0  0  0
  8 12  2  0  0  0  0
  8 21  1  0  0  0  0
  9 25  1  0  0  0  0
 10 27  1  0  0  0  0
 11 27  2  0  0  0  0
 12 28  1  0  0  0  0
 13 14  2  0  0  0  0
 13 29  1  0  0  0  0
 14 30  1  0  0  0  0
 15 24  1  0  0  0  0
 15 28  2  0  0  0  0
 16 25  2  0  0  0  0
 16 26  1  0  0  0  0
 17 30  2  0  0  0  0
 17 31  1  0  0  0  0
 18 32  1  0  0  0  0
 19 32  1  0  0  0  0
 19 33  2  0  0  0  0
 19 34  1  0  0  0  0
 20 22  2  0  0  0  0
 20 39  1  0  0  0  0
 21 24  2  0  0  0  0
 21 40  1  0  0  0  0
 22 53  1  0  0  0  0
 23 26  2  0  0  0  0
 23 52  1  0  0  0  0
 24 41  1  0  0  0  0
 25 73  1  0  0  0  0
 26 70  1  0  0  0  0
 27 83  1  0  0  0  0
 28 84  1  0  0  0  0
 29 31  2  0  0  0  0
 29 83  1  0  0  0  0
 30 85  1  0  0  0  0
 31 86  1  0  0  0  0
 32 66  2  0  0  0  0
 33 67  1  0  0  0  0
 33 71  1  0  0  0  0
 34 72  1  0  0  0  0
 34 77  2  0  0  0  0
 35 54  1  0  0  0  0
 35 74  1  0  0  0  0
 35 78  2  0  0  0  0
 36 63  1  0  0  0  0
 36 68  1  0  0  0  0
 36 79  2  0  0  0  0
 37 64  1  0  0  0  0
 37 75  1  0  0  0  0
 37 80  2  0  0  0  0
 38 69  1  0  0  0  0
 38 73  1  0  0  0  0
 38 81  2  0  0  0  0
 39 42  1  0  0  0  0
 40 54  1  0  0  0  0
 41 68  1  0  0  0  0
 42 46  1  0  0  0  0
 43 47  1  0  0  0  0
 43 50  1  0  0  0  0
 44 48  1  0  0  0  0
 44 52  1  0  0  0  0
 45 49  1  0  0  0  0
 45 52  1  0  0  0  0
 46 53  1  0  0  0  0
 47 55  1  0  0  0  0
 48 56  1  0  0  0  0
 49 56  1  0  0  0  0
 50 69  1  0  0  0  0
 51 55  1  0  0  0  0
 51 69  1  0  0  0  0
 53 74  1  0  0  0  0
 54 68  1  0  0  0  0
 55 67  1  0  0  0  0
 56 62  1  0  0  0  0
 56 82  1  0  0  0  0
 57 64  1  0  0  0  0
 58 65  1  0  0  0  0
 59 65  1  0  0  0  0
 60 65  1  0  0  0  0
 61 76  1  0  0  0  0
 62 84  1  0  0  0  0
 63 65  1  0  0  0  0
 63 75  1  0  0  0  0
 64 76  1  0  0  0  0
 66 67  1  0  0  0  0
M  CHG  1  76   1
M  ISO  4  38 100  62 101  73 100  84 101
M  END
> <Batch ID>
0165

> <Smiles>
CNC(C)C(=O)NC(C(=O)N1Cc2cc([101O:1][101CH2:1]C3(O)CCC(c4ccc([100NH:0][100C:0](=O)N5CCCC(n6nc(-c7ccc(Oc8ccc(F)cc8F)cc7)c(C(N)=O)c6N)C5)cc4N)CC3)ccc2CC1C(=O)NC1CCCc2ccccc21)C(C)(C)C

> <Shape>
0.280

> <Color>
0.085

> <Negative vol penalty>
0.000

$$$$

  -OEChem-04052304053D

 86 94  0     1  0  0  0  0  0999 V2000
  -30.2425  -13.7913   16.0068 C   0  0  0  0  0  0  0  0  0  0  0  0
  -29.2054  -14.7103   16.1297 C   0  0  0  0  0  0  0  0  0  0  0  0
  -29.6540  -26.2740   20.5834 C   0  0  0  0  0  0  0  0  0  0  0  0
  -27.9576  -24.6305   21.0917 C   0  0  0  0  0  0  0  0  0  0  0  0
  -30.4777  -12.8673   17.0241 C   0  0  0  0  0  0  0  0  0  0  0  0
  -28.4021  -14.7051   17.2695 C   0  0  0  0  0  0  0  0  0  0  0  0
  -25.8785  -19.5619   20.0171 C   0  0  0  0  0  0  0  0  0  0  0  0
  -30.6226  -25.4526   21.1603 C   0  0  0  0  0  0  0  0  0  0  0  0
  -28.9262  -23.8091   21.6686 C   0  0  0  0  0  0  0  0  0  0  0  0
  -24.5992  -20.1131   19.9585 C   0  0  0  0  0  0  0  0  0  0  0  0
  -31.0093  -21.1202   22.9526 C   0  0  0  0  0  0  0  0  0  0  0  0
  -30.9840  -19.7629   22.6325 C   0  0  0  0  0  0  0  0  0  0  0  0
  -20.1467  -26.9172   22.5025 C   0  0  0  0  0  0  0  0  0  0  0  0
  -17.8161  -27.4229   22.1158 C   0  0  0  0  0  0  0  0  0  0  0  0
  -23.9909  -18.8979   21.9516 C   0  0  0  0  0  0  0  0  0  0  0  0
  -19.4332  -29.2124   22.2567 C   0  0  0  0  0  0  0  0  0  0  0  0
  -31.2960  -20.3074   20.2994 C   0  0  0  0  0  0  0  0  0  0  0  0
  -28.3215  -25.8629   20.5492 C   0  0  0  0  0  0  0  0  0  0  0  0
  -18.8308  -26.4893   22.3267 C   0  0  0  0  0  0  0  0  0  0  0  0
  -26.9063  -26.7222   18.6084 C   0  0  0  0  0  0  0  0  0  0  0  0
  -29.6830  -12.8570   18.1812 C   0  0  0  0  0  0  0  0  0  0  0  0
  -26.2208  -18.6646   21.0389 C   0  0  0  0  0  0  0  0  0  0  0  0
  -28.6261  -13.7792   18.3026 C   0  0  0  0  0  0  0  0  0  0  0  0
  -25.2760  -18.3387   22.0224 C   0  0  0  0  0  0  0  0  0  0  0  0
  -20.4479  -28.2788   22.4676 C   0  0  0  0  0  0  0  0  0  0  0  0
  -30.2587  -24.2202   21.7029 C   0  0  0  0  0  0  0  0  0  0  0  0
  -23.6543  -19.7789   20.9242 C   0  0  0  0  0  0  0  0  0  0  0  0
  -31.1779  -22.0712   21.9461 C   0  0  0  0  0  0  0  0  0  0  0  0
  -31.1273  -19.3564   21.3059 C   0  0  0  0  0  0  0  0  0  0  0  0
  -18.1173  -28.7844   22.0808 C   0  0  0  0  0  0  0  0  0  0  0  0
  -31.3213  -21.6648   20.6195 C   0  0  0  0  0  0  0  0  0  0  0  0
  -27.3204  -26.7112   19.9539 C   0  0  0  0  0  0  0  0  0  0  0  0
  -25.9423  -27.6991   18.5539 C   0  0  0  0  0  0  0  0  0  0  0  0
  -18.5111  -25.0481   22.3650 C   0  0  0  0  0  0  0  0  0  0  0  0
  -27.3529  -25.9210   17.5065 C   0  0  0  0  0  0  0  0  0  0  0  0
  -27.1400  -15.6234   21.1387 C   0  0  0  0  0  0  0  0  0  0  0  0
  -20.1922  -22.0986   21.6294 C   0  0  0  0  0  0  0  0  0  0  0  0
  -27.5354  -16.2523   24.2963 C   0  0  0  0  0  0  0  0  0  0  0  0
  -26.6964  -18.1623   26.9972 C   0  0  0  0  0  0  0  0  0  0  0  0
  -22.2538  -30.0269   22.6382 C   0  0  0  0  0  0  0  0  0  0  0  0
  -29.9457  -11.8084   19.2330 C   0  0  0  0  0  0  0  0  0  0  0  0
  -27.6132  -18.0995   21.1033 C   0  0  0  0  0  0  0  0  0  0  0  0
  -25.5997  -17.3960   23.1516 C   0  0  0  0  0  0  0  0  0  0  0  0
  -29.2855  -12.1133   20.5751 C   0  0  0  0  0  0  0  0  0  0  0  0
  -24.6359  -31.7930   20.6675 C   0  0  0  0  0  0  0  0  0  0  0  0
  -27.8349  -12.5394   20.3720 C   0  0  0  0  0  0  0  0  0  0  0  0
  -25.5533  -30.6906   20.1335 C   0  0  0  0  0  0  0  0  0  0  0  0
  -24.1758  -31.5057   22.0956 C   0  0  0  0  0  0  0  0  0  0  0  0
  -24.4809  -29.0838   21.7629 C   0  0  0  0  0  0  0  0  0  0  0  0
  -27.7486  -13.8212   19.5348 C   0  0  1  0  0  0  0  0  0  0  0  0
  -27.6938  -16.7978   21.8949 C   0  0  1  0  0  0  0  0  0  0  0  0
  -24.9180  -29.2968   20.3044 C   0  0  2  0  0  0  0  0  0  0  0  0
  -27.1551  -18.4128   29.4517 C   0  0  0  0  0  0  0  0  0  0  0  0
  -25.7654  -13.8344   24.8715 C   0  0  0  0  0  0  0  0  0  0  0  0
  -25.4848  -14.6837   27.2099 C   0  0  0  0  0  0  0  0  0  0  0  0
  -27.7505  -14.0557   26.3764 C   0  0  0  0  0  0  0  0  0  0  0  0
  -27.7685  -20.8970   26.6359 C   0  0  0  0  0  0  0  0  0  0  0  0
  -20.1358  -20.5771   21.6290 C   0  0  0  0  0  0  0  0  0  0  0  0
  -18.8724  -22.7961   21.4190 C   0  0  0  0  0  0  0  0  0  0  0  0
  -21.4866  -19.9288   21.8909 C   0  0  0  0  0  0  0  0  0  1  0  0
  -26.6570  -16.1687   25.5212 C   0  0  1  0  0  0  0  0  0  0  0  0
  -27.5486  -18.8492   28.0490 C   0  0  2  0  0  0  0  0  0  0  0  0
  -26.4074  -14.7019   25.9725 C   0  0  0  0  0  0  0  0  0  0  0  0
  -26.6727  -27.6098   20.7001 N   0  0  0  0  0  0  0  0  0  0  0  0
  -25.8418  -28.1947   19.8206 N   0  0  0  0  0  0  0  0  0  0  0  0
  -26.9726  -16.8647   23.1675 N   0  0  0  0  0  0  0  0  0  0  0  0
  -23.5807  -30.1702   22.1803 N   0  0  0  0  0  0  0  0  0  0  0  0
  -25.1794  -28.1740   17.5465 N   0  0  0  0  0  0  0  0  0  0  0  0
  -28.3504  -24.9639   17.7374 N   0  0  0  0  0  0  0  0  0  0  0  0
  -21.7847  -28.7137   22.6448 N   0  0  0  0  0  0  0  0  0  0  0  0
  -19.0937  -24.2316   21.4692 N   0  0  0  0  0  0  0  0  0  0  0  0
  -28.0683  -14.9767   20.3453 N   0  0  0  0  0  0  0  0  0  0  0  0
  -27.2890  -17.0064   26.5347 N   0  0  0  0  0  0  0  0  0  0  0  0
  -17.6521  -24.6195   23.2899 N   0  3  0  0  0  0  0  0  0  0  0  0
  -27.3935  -20.3285   27.9562 N   0  3  0  0  0  0  0  0  0  0  0  0
  -26.8931  -26.0613   16.3479 O   0  0  0  0  0  0  0  0  0  0  0  0
  -25.9584  -15.3251   21.2668 O   0  0  0  0  0  0  0  0  0  0  0  0
  -21.2430  -22.7183   21.7877 O   0  0  0  0  0  0  0  0  0  0  0  0
  -28.6812  -15.7977   24.3416 O   0  0  0  0  0  0  0  0  0  0  0  0
  -25.6115  -18.6047   26.6260 O   0  0  0  0  0  0  0  0  0  0  0  0
  -21.5738  -31.0006   22.9721 O   0  0  0  0  0  0  0  0  0  0  0  0
  -31.2037  -23.4184   22.2657 O   0  0  0  0  0  0  0  0  0  0  0  0
  -22.4047  -20.3150   20.8690 O   0  0  0  0  0  0  0  0  0  1  0  0
  -31.1045  -18.0528   20.9987 F   0  0  0  0  0  0  0  0  0  0  0  0
  -17.1429  -29.6809   21.8783 F   0  0  0  0  0  0  0  0  0  0  0  0
  -31.4847  -22.5737   19.6484 F   0  0  0  0  0  0  0  0  0  0  0  0
  1  2  1  0  0  0  0
  1  5  2  0  0  0  0
  2  6  2  0  0  0  0
  3  8  2  0  0  0  0
  3 18  1  0  0  0  0
  4  9  1  0  0  0  0
  4 18  2  0  0  0  0
  5 21  1  0  0  0  0
  6 23  1  0  0  0  0
  7 10  2  0  0  0  0
  7 22  1  0  0  0  0
  8 26  1  0  0  0  0
  9 26  2  0  0  0  0
 10 27  1  0  0  0  0
 11 12  2  0  0  0  0
 11 28  1  0  0  0  0
 12 29  1  0  0  0  0
 13 19  2  0  0  0  0
 13 25  1  0  0  0  0
 14 19  1  0  0  0  0
 14 30  2  0  0  0  0
 15 24  1  0  0  0  0
 15 27  2  0  0  0  0
 16 25  2  0  0  0  0
 16 30  1  0  0  0  0
 17 29  2  0  0  0  0
 17 31  1  0  0  0  0
 18 32  1  0  0  0  0
 19 34  1  0  0  0  0
 20 32  1  0  0  0  0
 20 33  2  0  0  0  0
 20 35  1  0  0  0  0
 21 23  2  0  0  0  0
 21 41  1  0  0  0  0
 22 24  2  0  0  0  0
 22 42  1  0  0  0  0
 23 50  1  0  0  0  0
 24 43  1  0  0  0  0
 25 70  1  0  0  0  0
 26 82  1  0  0  0  0
 27 83  1  0  0  0  0
 28 31  2  0  0  0  0
 28 82  1  0  0  0  0
 29 84  1  0  0  0  0
 30 85  1  0  0  0  0
 31 86  1  0  0  0  0
 32 64  2  0  0  0  0
 33 65  1  0  0  0  0
 33 68  1  0  0  0  0
 34 71  1  0  0  0  0
 34 74  2  0  0  0  0
 35 69  1  0  0  0  0
 35 76  2  0  0  0  0
 36 51  1  0  0  0  0
 36 72  1  0  0  0  0
 36 77  2  0  0  0  0
 37 58  1  0  0  0  0
 37 59  1  0  0  0  0
 37 78  2  0  0  0  0
 38 61  1  0  0  0  0
 38 66  1  0  0  0  0
 38 79  2  0  0  0  0
 39 62  1  0  0  0  0
 39 73  1  0  0  0  0
 39 80  2  0  0  0  0
 40 67  1  0  0  0  0
 40 70  1  0  0  0  0
 40 81  2  0  0  0  0
 41 44  1  0  0  0  0
 42 51  1  0  0  0  0
 43 66  1  0  0  0  0
 44 46  1  0  0  0  0
 45 47  1  0  0  0  0
 45 48  1  0  0  0  0
 46 50  1  0  0  0  0
 47 52  1  0  0  0  0
 48 67  1  0  0  0  0
 49 52  1  0  0  0  0
 49 67  1  0  0  0  0
 50 72  1  0  0  0  0
 51 66  1  0  0  0  0
 52 65  1  0  0  0  0
 53 62  1  0  0  0  0
 54 63  1  0  0  0  0
 55 63  1  0  0  0  0
 56 63  1  0  0  0  0
 57 75  1  0  0  0  0
 58 60  1  0  0  0  0
 59 71  1  0  0  0  0
 60 83  1  0  0  0  0
 61 63  1  0  0  0  0
 61 73  1  0  0  0  0
 62 75  1  0  0  0  0
 64 65  1  0  0  0  0
M  CHG  2  74   1  75   1
M  ISO  4  40 100  60 101  70 100  83 101
M  END
> <Batch ID>
0165

> <Smiles>
CNC(C)C(=O)NC(C(=O)N1Cc2cc([101O:1][101CH2:1]CC(=O)CNC(=N)c3cc(F)cc([100NH:0][100C:0](=O)N4CCCC(n5nc(-c6ccc(Oc7ccc(F)cc7F)cc6)c(C(N)=O)c5N)C4)c3)ccc2CC1C(=O)NC1CCCc2ccccc21)C(C)(C)C

> <Shape>
0.199

> <Color>
0.070

> <Negative vol penalty>
0.000

$$$$

  -OEChem-04052304053D

 85 93  0     1  0  0  0  0  0999 V2000
  -24.5241  -21.1465   17.6942 C   0  0  0  0  0  0  0  0  0  0  0  0
  -25.5966  -20.5088   18.3094 C   0  0  0  0  0  0  0  0  0  0  0  0
  -22.5260  -29.5097   19.7423 C   0  0  0  0  0  0  0  0  0  0  0  0
  -22.3896  -27.9115   21.5490 C   0  0  0  0  0  0  0  0  0  0  0  0
  -23.2733  -20.5313   17.6632 C   0  0  0  0  0  0  0  0  0  0  0  0
  -25.4186  -19.2559   18.8950 C   0  0  0  0  0  0  0  0  0  0  0  0
  -29.1498  -16.0288   17.7507 C   0  0  0  0  0  0  0  0  0  0  0  0
  -21.1535  -29.7382   19.8408 C   0  0  0  0  0  0  0  0  0  0  0  0
  -21.0171  -28.1401   21.6476 C   0  0  0  0  0  0  0  0  0  0  0  0
  -30.3514  -16.1736   18.4427 C   0  0  0  0  0  0  0  0  0  0  0  0
  -18.9725  -30.4834   22.9700 C   0  0  0  0  0  0  0  0  0  0  0  0
  -18.4351  -30.6518   24.2461 C   0  0  0  0  0  0  0  0  0  0  0  0
  -29.7250  -14.3550   19.8986 C   0  0  0  0  0  0  0  0  0  0  0  0
  -17.0022  -28.7384   23.8950 C   0  0  0  0  0  0  0  0  0  0  0  0
  -29.8966  -22.3704   22.7821 C   0  0  0  0  0  0  0  0  0  0  0  0
  -23.1440  -28.5963   20.5964 C   0  0  0  0  0  0  0  0  0  0  0  0
  -25.5884  -29.0409   21.1753 C   0  0  0  0  0  0  0  0  0  0  0  0
  -23.0822  -19.2660   18.2403 C   0  0  0  0  0  0  0  0  0  0  0  0
  -28.2204  -15.0516   18.1349 C   0  0  0  0  0  0  0  0  0  0  0  0
  -24.1637  -18.6238   18.8729 C   0  0  0  0  0  0  0  0  0  0  0  0
  -28.5135  -14.1982   19.2082 C   0  0  0  0  0  0  0  0  0  0  0  0
  -20.3991  -29.0534   20.7934 C   0  0  0  0  0  0  0  0  0  0  0  0
  -30.6379  -15.3385   19.5187 C   0  0  0  0  0  0  0  0  0  0  0  0
  -18.5247  -29.4426   22.1564 C   0  0  0  0  0  0  0  0  0  0  0  0
  -17.4499  -29.7793   24.7086 C   0  0  0  0  0  0  0  0  0  0  0  0
  -17.5396  -28.5701   22.6189 C   0  0  0  0  0  0  0  0  0  0  0  0
  -24.5616  -28.3594   20.4947 C   0  0  0  0  0  0  0  0  0  0  0  0
  -26.7455  -28.4450   20.7366 C   0  0  0  0  0  0  0  0  0  0  0  0
  -29.7283  -22.4720   21.4234 C   0  0  0  0  0  0  0  0  0  0  0  0
  -31.2199  -21.0079   21.8791 C   0  0  0  0  0  0  0  0  0  0  0  0
  -25.5037  -30.1165   22.1196 C   0  0  0  0  0  0  0  0  0  0  0  0
  -25.2247  -15.0992   19.1966 C   0  0  0  0  0  0  0  0  0  0  0  0
  -33.1853  -16.9656   21.5179 C   0  0  0  0  0  0  0  0  0  0  0  0
  -25.4867  -11.8780   18.9181 C   0  0  0  0  0  0  0  0  0  0  0  0
  -27.5135   -9.1341   18.8165 C   0  0  0  0  0  0  0  0  0  0  0  0
  -32.9683  -19.2916   22.4468 C   0  0  0  0  0  0  0  0  0  0  0  0
  -28.8172  -23.2725   19.2154 C   0  0  0  0  0  0  0  0  0  0  0  0
  -21.7005  -18.6616   18.2234 C   0  0  0  0  0  0  0  0  0  0  0  0
  -26.9405  -14.8906   17.3613 C   0  0  0  0  0  0  0  0  0  0  0  0
  -27.5582  -13.1199   19.6477 C   0  0  0  0  0  0  0  0  0  0  0  0
  -21.6851  -17.1680   18.5385 C   0  0  0  0  0  0  0  0  0  0  0  0
  -27.9908  -25.7398   16.7851 C   0  0  0  0  0  0  0  0  0  0  0  0
  -22.5541  -16.8703   19.7563 C   0  0  0  0  0  0  0  0  0  0  0  0
  -27.1226  -26.7345   17.5590 C   0  0  0  0  0  0  0  0  0  0  0  0
  -27.7360  -24.3002   17.2280 C   0  0  0  0  0  0  0  0  0  0  0  0
  -26.9826  -25.0603   19.4469 C   0  0  0  0  0  0  0  0  0  0  0  0
  -24.0163  -17.2533   19.4975 C   0  0  1  0  0  0  0  0  0  0  0  0
  -25.8409  -14.2002   18.1623 C   0  0  1  0  0  0  0  0  0  0  0  0
  -27.2509  -26.5293   19.0811 C   0  0  2  0  0  0  0  0  0  0  0  0
  -27.4354   -6.6337   18.6187 C   0  0  0  0  0  0  0  0  0  0  0  0
  -24.5833  -11.6787   21.8257 C   0  0  0  0  0  0  0  0  0  0  0  0
  -25.4259   -9.3212   21.8531 C   0  0  0  0  0  0  0  0  0  0  0  0
  -23.5816   -9.9668   20.3024 C   0  0  0  0  0  0  0  0  0  0  0  0
  -29.0845   -9.1674   16.3086 C   0  0  0  0  0  0  0  0  0  0  0  0
  -32.3779  -16.7860   20.2486 C   0  0  0  0  0  0  0  0  0  1  0  0
  -25.9350  -10.7593   19.8273 C   0  0  1  0  0  0  0  0  0  0  0  0
  -27.5591   -7.9502   17.8675 C   0  0  2  0  0  0  0  0  0  0  0  0
  -33.8623  -18.3087   21.7129 C   0  0  0  0  0  0  0  0  0  0  0  0
  -24.8988  -10.4530   20.9453 C   0  0  0  0  0  0  0  0  0  0  0  0
  -30.8535  -21.4304   23.0679 N   0  0  0  0  0  0  0  0  0  0  0  0
  -25.0256  -27.4037   19.6851 N   0  0  0  0  0  0  0  0  0  0  0  0
  -26.3567  -27.4805   19.8541 N   0  0  0  0  0  0  0  0  0  0  0  0
  -26.3173  -13.0063   18.8636 N   0  0  0  0  0  0  0  0  0  0  0  0
  -27.8793  -24.1808   18.6806 N   0  0  0  0  0  0  0  0  0  0  0  0
  -28.0474  -28.6572   21.0235 N   0  0  0  0  0  0  0  0  0  0  0  0
  -24.2364  -30.6094   22.4590 N   0  0  0  0  0  0  0  0  0  0  0  0
  -28.8878  -23.2698   20.6081 N   0  0  0  0  0  0  0  0  0  0  0  0
  -32.1886  -20.0266   21.5637 N   0  0  0  0  0  0  0  0  0  0  0  0
  -24.6639  -16.2510   18.6786 N   0  0  0  0  0  0  0  0  0  0  0  0
  -26.2326   -9.6237   18.9610 N   0  0  0  0  0  0  0  0  0  0  0  0
  -28.8436   -7.9412   17.1119 N   0  3  0  0  0  0  0  0  0  0  0  0
  -26.5227  -30.6363   22.6344 O   0  0  0  0  0  0  0  0  0  0  0  0
  -25.2544  -14.7713   20.3770 O   0  0  0  0  0  0  0  0  0  0  0  0
  -33.3185  -16.0620   22.3429 O   0  0  0  0  0  0  0  0  0  0  0  0
  -24.4420  -11.7524   18.2745 O   0  0  0  0  0  0  0  0  0  0  0  0
  -28.5134   -9.5777   19.3767 O   0  0  0  0  0  0  0  0  0  0  0  0
  -32.9728  -19.3460   23.6728 O   0  0  0  0  0  0  0  0  0  0  0  0
  -29.5262  -22.5698   18.4905 O   0  0  0  0  0  0  0  0  0  0  0  0
  -30.5818  -21.5927   20.8285 O   0  0  0  0  0  0  0  0  0  0  0  0
  -19.0598  -29.2763   20.8900 O   0  0  0  0  0  0  0  0  0  0  0  0
  -31.8097  -15.4781   20.1963 O   0  0  0  0  0  0  0  0  0  1  0  0
  -16.9350  -29.9402   25.9347 F   0  0  0  0  0  0  0  0  0  0  0  0
  -17.1063  -27.5677   21.8423 F   0  0  0  0  0  0  0  0  0  0  0  0
  -35.0297  -18.1428   22.4011 F   0  0  0  0  0  0  0  0  0  0  0  0
  -34.2368  -18.8185   20.5025 F   0  0  0  0  0  0  0  0  0  0  0  0
  1  2  1  0  0  0  0
  1  5  2  0  0  0  0
  2  6  2  0  0  0  0
  3  8  2  0  0  0  0
  3 16  1  0  0  0  0
  4  9  1  0  0  0  0
  4 16  2  0  0  0  0
  5 18  1  0  0  0  0
  6 20  1  0  0  0  0
  7 10  2  0  0  0  0
  7 19  1  0  0  0  0
  8 22  1  0  0  0  0
  9 22  2  0  0  0  0
 10 23  1  0  0  0  0
 11 12  2  0  0  0  0
 11 24  1  0  0  0  0
 12 25  1  0  0  0  0
 13 21  1  0  0  0  0
 13 23  2  0  0  0  0
 14 25  2  0  0  0  0
 14 26  1  0  0  0  0
 15 29  2  0  0  0  0
 15 60  1  0  0  0  0
 16 27  1  0  0  0  0
 17 27  1  0  0  0  0
 17 28  2  0  0  0  0
 17 31  1  0  0  0  0
 18 20  2  0  0  0  0
 18 38  1  0  0  0  0
 19 21  2  0  0  0  0
 19 39  1  0  0  0  0
 20 47  1  0  0  0  0
 21 40  1  0  0  0  0
 22 80  1  0  0  0  0
 23 81  1  0  0  0  0
 24 26  2  0  0  0  0
 24 80  1  0  0  0  0
 25 82  1  0  0  0  0
 26 83  1  0  0  0  0
 27 61  2  0  0  0  0
 28 62  1  0  0  0  0
 28 65  1  0  0  0  0
 29 67  1  0  0  0  0
 29 79  1  0  0  0  0
 30 60  2  0  0  0  0
 30 68  1  0  0  0  0
 30 79  1  0  0  0  0
 31 66  1  0  0  0  0
 31 72  2  0  0  0  0
 32 48  1  0  0  0  0
 32 69  1  0  0  0  0
 32 73  2  0  0  0  0
 33 55  1  0  0  0  0
 33 58  1  0  0  0  0
 33 74  2  0  0  0  0
 34 56  1  0  0  0  0
 34 63  1  0  0  0  0
 34 75  2  0  0  0  0
 35 57  1  0  0  0  0
 35 70  1  0  0  0  0
 35 76  2  0  0  0  0
 36 58  1  0  0  0  0
 36 68  1  0  0  0  0
 36 77  2  0  0  0  0
 37 64  1  0  0  0  0
 37 67  1  0  0  0  0
 37 78  2  0  0  0  0
 38 41  1  0  0  0  0
 39 48  1  0  0  0  0
 40 63  1  0  0  0  0
 41 43  1  0  0  0  0
 42 44  1  0  0  0  0
 42 45  1  0  0  0  0
 43 47  1  0  0  0  0
 44 49  1  0  0  0  0
 45 64  1  0  0  0  0
 46 49  1  0  0  0  0
 46 64  1  0  0  0  0
 47 69  1  0  0  0  0
 48 63  1  0  0  0  0
 49 62  1  0  0  0  0
 50 57  1  0  0  0  0
 51 59  1  0  0  0  0
 52 59  1  0  0  0  0
 53 59  1  0  0  0  0
 54 71  1  0  0  0  0
 55 81  1  0  0  0  0
 56 59  1  0  0  0  0
 56 70  1  0  0  0  0
 57 71  1  0  0  0  0
 58 84  1  0  0  0  0
 58 85  1  0  0  0  0
 61 62  1  0  0  0  0
M  CHG  1  71   1
M  ISO  4  37 100  55 101  67 100  81 101
M  END
> <Batch ID>
0165

> <Smiles>
CNC(C)C(=O)NC(C(=O)N1Cc2cc([101O:1][101CH2:1]C(=O)C(F)(F)C(=O)Nc3ncc([100NH:0][100C:0](=O)N4CCCC(n5nc(-c6ccc(Oc7ccc(F)cc7F)cc6)c(C(N)=O)c5N)C4)o3)ccc2CC1C(=O)NC1CCCc2ccccc21)C(C)(C)C

> <Shape>
0.208

> <Color>
0.067

> <Negative vol penalty>
0.000

$$$$

  -OEChem-04052304053D

 86 94  0     1  0  0  0  0  0999 V2000
  -30.0374  -32.3371   24.8495 C   0  0  0  0  0  0  0  0  0  0  0  0
  -29.7462  -31.1425   24.1986 C   0  0  0  0  0  0  0  0  0  0  0  0
  -18.6761  -16.3413   25.2153 C   0  0  0  0  0  0  0  0  0  0  0  0
  -20.2981  -18.0668   24.7371 C   0  0  0  0  0  0  0  0  0  0  0  0
  -29.0233  -33.0427   25.4957 C   0  0  0  0  0  0  0  0  0  0  0  0
  -28.4408  -30.6523   24.1946 C   0  0  0  0  0  0  0  0  0  0  0  0
  -26.9966  -29.0095   19.6273 C   0  0  0  0  0  0  0  0  0  0  0  0
  -27.9161  -14.2504   20.5919 C   0  0  0  0  0  0  0  0  0  0  0  0
  -18.4546  -16.8984   26.4747 C   0  0  0  0  0  0  0  0  0  0  0  0
  -20.0766  -18.6240   25.9965 C   0  0  0  0  0  0  0  0  0  0  0  0
  -27.4603  -27.7578   19.2249 C   0  0  0  0  0  0  0  0  0  0  0  0
  -19.6749  -20.7105   28.9467 C   0  0  0  0  0  0  0  0  0  0  0  0
  -29.2183  -14.7486   20.6320 C   0  0  0  0  0  0  0  0  0  0  0  0
  -19.5271  -22.0951   29.0272 C   0  0  0  0  0  0  0  0  0  0  0  0
  -25.3406  -26.7825   19.8374 C   0  0  0  0  0  0  0  0  0  0  0  0
  -27.0565  -16.5059   20.4873 C   0  0  0  0  0  0  0  0  0  0  0  0
  -17.6119  -21.9760   27.5592 C   0  0  0  0  0  0  0  0  0  0  0  0
  -19.5978  -16.9254   24.3465 C   0  0  0  0  0  0  0  0  0  0  0  0
  -19.1505  -16.6551   21.8496 C   0  0  0  0  0  0  0  0  0  0  0  0
  -27.7030  -32.5658   25.4914 C   0  0  0  0  0  0  0  0  0  0  0  0
  -25.7031  -29.1556   20.1487 C   0  0  0  0  0  0  0  0  0  0  0  0
  -27.4083  -31.3515   24.8425 C   0  0  0  0  0  0  0  0  0  0  0  0
  -24.8621  -28.0376   20.2433 C   0  0  0  0  0  0  0  0  0  0  0  0
  -26.8351  -15.1291   20.5195 C   0  0  0  0  0  0  0  0  0  0  0  0
  -28.3587  -17.0041   20.5275 C   0  0  0  0  0  0  0  0  0  0  0  0
  -19.1549  -18.0398   26.8653 C   0  0  0  0  0  0  0  0  0  0  0  0
  -26.6333  -26.6435   19.3326 C   0  0  0  0  0  0  0  0  0  0  0  0
  -18.7913  -19.9586   28.1724 C   0  0  0  0  0  0  0  0  0  0  0  0
  -18.4956  -22.7279   28.3335 C   0  0  0  0  0  0  0  0  0  0  0  0
  -29.4397  -16.1254   20.5998 C   0  0  0  0  0  0  0  0  0  0  0  0
  -17.7598  -20.5913   27.4787 C   0  0  0  0  0  0  0  0  0  0  0  0
  -19.8275  -16.3500   23.0456 C   0  0  0  0  0  0  0  0  0  0  0  0
  -19.7358  -15.8450   20.9075 C   0  0  0  0  0  0  0  0  0  0  0  0
  -18.0877  -17.5875   21.6115 C   0  0  0  0  0  0  0  0  0  0  0  0
  -24.5017  -30.0977   22.9367 C   0  0  0  0  0  0  0  0  0  0  0  0
  -28.1107  -20.7482   20.4040 C   0  0  0  0  0  0  0  0  0  0  0  0
  -27.5616  -23.1527   19.6496 C   0  0  0  0  0  0  0  0  0  0  0  0
  -21.6758  -29.8305   21.3665 C   0  0  0  0  0  0  0  0  0  0  0  0
  -19.9012  -28.4214   18.8147 C   0  0  0  0  0  0  0  0  0  0  0  0
  -25.1196  -13.2844   20.5030 C   0  0  0  0  0  0  0  0  0  0  0  0
  -26.6494  -33.3392   26.2439 C   0  0  0  0  0  0  0  0  0  0  0  0
  -25.2086  -30.5172   20.5534 C   0  0  0  0  0  0  0  0  0  0  0  0
  -23.4579  -28.1445   20.7775 C   0  0  0  0  0  0  0  0  0  0  0  0
  -25.2224  -32.9429   25.8739 C   0  0  0  0  0  0  0  0  0  0  0  0
  -21.9665  -11.6312   20.4574 C   0  0  0  0  0  0  0  0  0  0  0  0
  -25.0792  -31.4245   25.8502 C   0  0  0  0  0  0  0  0  0  0  0  0
  -20.9975  -12.6835   21.0014 C   0  0  0  0  0  0  0  0  0  0  0  0
  -23.3239  -11.6954   21.1554 C   0  0  0  0  0  0  0  0  0  0  0  0
  -22.9874  -14.0730   21.7061 C   0  0  0  0  0  0  0  0  0  0  0  0
  -25.9999  -30.7999   24.7949 C   0  0  1  0  0  0  0  0  0  0  0  0
  -24.0543  -30.4621   21.5494 C   0  0  1  0  0  0  0  0  0  0  0  0
  -21.6278  -14.0900   20.9887 C   0  0  2  0  0  0  0  0  0  0  0  0
  -17.6030  -28.3670   17.8085 C   0  0  0  0  0  0  0  0  0  0  0  0
  -20.7259  -28.0307   23.6399 C   0  0  0  0  0  0  0  0  0  0  0  0
  -18.8584  -27.2637   22.1592 C   0  0  0  0  0  0  0  0  0  0  0  0
  -19.0188  -29.6639   22.8195 C   0  0  0  0  0  0  0  0  0  0  0  0
  -20.8798  -29.4882   16.2333 C   0  0  0  0  0  0  0  0  0  0  0  0
  -27.1033  -21.8800   20.3334 C   0  0  0  0  0  0  0  0  0  0  0  0
  -27.5212  -19.3521   20.4236 C   0  0  0  0  0  0  0  0  0  0  0  0
  -26.5526  -24.2844   19.6223 C   0  0  0  0  0  0  0  0  0  1  0  0
  -20.6717  -28.7236   21.1534 C   0  0  1  0  0  0  0  0  0  0  0  0
  -18.9722  -29.0281   17.7787 C   0  0  2  0  0  0  0  0  0  0  0  0
  -19.8458  -28.4178   22.4347 C   0  0  0  0  0  0  0  0  0  0  0  0
  -20.7706  -15.4186   22.8811 N   0  0  0  0  0  0  0  0  0  0  0  0
  -20.6904  -15.1314   21.5707 N   0  0  0  0  0  0  0  0  0  0  0  0
  -23.0226  -29.4963   21.1659 N   0  0  0  0  0  0  0  0  0  0  0  0
  -23.8616  -13.0565   21.0999 N   0  0  0  0  0  0  0  0  0  0  0  0
  -19.5219  -15.6805   19.5848 N   0  0  0  0  0  0  0  0  0  0  0  0
  -17.6045  -18.3398   22.6908 N   0  0  0  0  0  0  0  0  0  0  0  0
  -25.5126  -14.6221   20.4790 N   0  0  0  0  0  0  0  0  0  0  0  0
  -28.5764  -18.3740   20.4965 N   0  0  0  0  0  0  0  0  0  0  0  0
  -25.4364  -30.9633   23.4720 N   0  0  0  0  0  0  0  0  0  0  0  0
  -19.8659  -29.1193   20.0033 N   0  0  0  0  0  0  0  0  0  0  0  0
  -19.5433  -28.8646   16.4119 N   0  3  0  0  0  0  0  0  0  0  0  0
  -17.5704  -17.7370   20.4786 O   0  0  0  0  0  0  0  0  0  0  0  0
  -24.0325  -29.1055   23.4818 O   0  0  0  0  0  0  0  0  0  0  0  0
  -29.3216  -20.9512   20.4810 O   0  0  0  0  0  0  0  0  0  0  0  0
  -28.6642  -23.2588   19.1152 O   0  0  0  0  0  0  0  0  0  0  0  0
  -21.2792  -30.9524   21.6919 O   0  0  0  0  0  0  0  0  0  0  0  0
  -20.5867  -27.4257   18.5929 O   0  0  0  0  0  0  0  0  0  0  0  0
  -25.7860  -12.3642   20.0222 O   0  0  0  0  0  0  0  0  0  0  0  0
  -18.9388  -18.5839   28.0941 O   0  0  0  0  0  0  0  0  0  0  0  0
  -27.0836  -25.4204   18.9413 O   0  0  0  0  0  0  0  0  0  1  0  0
  -18.3529  -24.0574   28.4121 F   0  0  0  0  0  0  0  0  0  0  0  0
  -30.6952  -16.5935   20.6409 F   0  0  0  0  0  0  0  0  0  0  0  0
  -16.9070  -19.8742   26.7342 F   0  0  0  0  0  0  0  0  0  0  0  0
  1  2  1  0  0  0  0
  1  5  2  0  0  0  0
  2  6  2  0  0  0  0
  3  9  2  0  0  0  0
  3 18  1  0  0  0  0
  4 10  1  0  0  0  0
  4 18  2  0  0  0  0
  5 20  1  0  0  0  0
  6 22  1  0  0  0  0
  7 11  2  0  0  0  0
  7 21  1  0  0  0  0
  8 13  2  0  0  0  0
  8 24  1  0  0  0  0
  9 26  1  0  0  0  0
 10 26  2  0  0  0  0
 11 27  1  0  0  0  0
 12 14  2  0  0  0  0
 12 28  1  0  0  0  0
 13 30  1  0  0  0  0
 14 29  1  0  0  0  0
 15 23  1  0  0  0  0
 15 27  2  0  0  0  0
 16 24  2  0  0  0  0
 16 25  1  0  0  0  0
 17 29  2  0  0  0  0
 17 31  1  0  0  0  0
 18 32  1  0  0  0  0
 19 32  1  0  0  0  0
 19 33  2  0  0  0  0
 19 34  1  0  0  0  0
 20 22  2  0  0  0  0
 20 41  1  0  0  0  0
 21 23  2  0  0  0  0
 21 42  1  0  0  0  0
 22 50  1  0  0  0  0
 23 43  1  0  0  0  0
 24 70  1  0  0  0  0
 25 30  2  0  0  0  0
 25 71  1  0  0  0  0
 26 82  1  0  0  0  0
 27 83  1  0  0  0  0
 28 31  2  0  0  0  0
 28 82  1  0  0  0  0
 29 84  1  0  0  0  0
 30 85  1  0  0  0  0
 31 86  1  0  0  0  0
 32 64  2  0  0  0  0
 33 65  1  0  0  0  0
 33 68  1  0  0  0  0
 34 69  1  0  0  0  0
 34 75  2  0  0  0  0
 35 51  1  0  0  0  0
 35 72  1  0  0  0  0
 35 76  2  0  0  0  0
 36 58  1  0  0  0  0
 36 59  1  0  0  0  0
 36 77  2  0  0  0  0
 37 58  1  0  0  0  0
 37 60  1  0  0  0  0
 37 78  2  0  0  0  0
 38 61  1  0  0  0  0
 38 66  1  0  0  0  0
 38 79  2  0  0  0  0
 39 62  1  0  0  0  0
 39 73  1  0  0  0  0
 39 80  2  0  0  0  0
 40 67  1  0  0  0  0
 40 70  1  0  0  0  0
 40 81  2  0  0  0  0
 41 44  1  0  0  0  0
 42 51  1  0  0  0  0
 43 66  1  0  0  0  0
 44 46  1  0  0  0  0
 45 47  1  0  0  0  0
 45 48  1  0  0  0  0
 46 50  1  0  0  0  0
 47 52  1  0  0  0  0
 48 67  1  0  0  0  0
 49 52  1  0  0  0  0
 49 67  1  0  0  0  0
 50 72  1  0  0  0  0
 51 66  1  0  0  0  0
 52 65  1  0  0  0  0
 53 62  1  0  0  0  0
 54 63  1  0  0  0  0
 55 63  1  0  0  0  0
 56 63  1  0  0  0  0
 57 74  1  0  0  0  0
 59 71  1  0  0  0  0
 60 83  1  0  0  0  0
 61 63  1  0  0  0  0
 61 73  1  0  0  0  0
 62 74  1  0  0  0  0
 64 65  1  0  0  0  0
M  CHG  1  74   1
M  ISO  4  40 100  60 101  70 100  83 101
M  END
> <Batch ID>
0165

> <Smiles>
CNC(C)C(=O)NC(C(=O)N1Cc2cc([101O:1][101CH2:1]C(=O)CC(=O)CNc3cc([100NH:0][100C:0](=O)N4CCCC(n5nc(-c6ccc(Oc7ccc(F)cc7F)cc6)c(C(N)=O)c5N)C4)ccc3F)ccc2CC1C(=O)NC1CCCc2ccccc21)C(C)(C)C

> <Shape>
0.258

> <Color>
0.081

> <Negative vol penalty>
0.000

$$$$

  -OEChem-04052304053D

 87 96  0     1  0  0  0  0  0999 V2000
  -24.4304  -38.0912   17.4987 C   0  0  0  0  0  0  0  0  0  0  0  0
  -25.4997  -37.2029   17.5524 C   0  0  0  0  0  0  0  0  0  0  0  0
  -24.7516   -8.4445   20.7917 C   0  0  0  0  0  0  0  0  0  0  0  0
  -23.0755  -10.1595   20.4975 C   0  0  0  0  0  0  0  0  0  0  0  0
  -23.6611  -38.3241   18.6379 C   0  0  0  0  0  0  0  0  0  0  0  0
  -25.8011  -36.5478   18.7459 C   0  0  0  0  0  0  0  0  0  0  0  0
  -25.8389  -29.3541   19.1204 C   0  0  0  0  0  0  0  0  0  0  0  0
  -23.7617   -7.5449   21.1871 C   0  0  0  0  0  0  0  0  0  0  0  0
  -22.0856   -9.2598   20.8929 C   0  0  0  0  0  0  0  0  0  0  0  0
  -26.0730  -27.9824   19.2199 C   0  0  0  0  0  0  0  0  0  0  0  0
  -21.9595   -6.8900   23.9705 C   0  0  0  0  0  0  0  0  0  0  0  0
  -22.2129   -6.1003   25.0920 C   0  0  0  0  0  0  0  0  0  0  0  0
  -26.5479  -28.2237   21.5788 C   0  0  0  0  0  0  0  0  0  0  0  0
  -21.9741   -4.1094   23.7441 C   0  0  0  0  0  0  0  0  0  0  0  0
  -23.5770  -18.0285   18.7308 C   0  0  0  0  0  0  0  0  0  0  0  0
  -24.4085   -9.7519   20.4470 C   0  0  0  0  0  0  0  0  0  0  0  0
  -26.3043  -10.5576   18.9423 C   0  0  0  0  0  0  0  0  0  0  0  0
  -23.9473  -37.6642   19.8435 C   0  0  0  0  0  0  0  0  0  0  0  0
  -25.9435  -30.1644   20.2543 C   0  0  0  0  0  0  0  0  0  0  0  0
  -25.0358  -36.7731   19.9028 C   0  0  0  0  0  0  0  0  0  0  0  0
  -26.3024  -29.5964   21.4878 C   0  0  0  0  0  0  0  0  0  0  0  0
  -22.4287   -7.9525   21.2376 C   0  0  0  0  0  0  0  0  0  0  0  0
  -26.4268  -27.4187   20.4460 C   0  0  0  0  0  0  0  0  0  0  0  0
  -21.7132   -6.2894   22.7358 C   0  0  0  0  0  0  0  0  0  0  0  0
  -22.2203   -4.7100   24.9788 C   0  0  0  0  0  0  0  0  0  0  0  0
  -21.7206   -4.8991   22.6226 C   0  0  0  0  0  0  0  0  0  0  0  0
  -25.4306  -10.6819   20.0391 C   0  0  0  0  0  0  0  0  0  0  0  0
  -23.0235  -19.1502   18.1479 C   0  0  0  0  0  0  0  0  0  0  0  0
  -24.5686  -18.2665   19.6605 C   0  0  0  0  0  0  0  0  0  0  0  0
  -27.0756  -11.6932   18.9873 C   0  0  0  0  0  0  0  0  0  0  0  0
  -24.3769  -20.5121   19.3647 C   0  0  0  0  0  0  0  0  0  0  0  0
  -26.4093   -9.5094   17.9697 C   0  0  0  0  0  0  0  0  0  0  0  0
  -25.6717  -33.6125   21.7080 C   0  0  0  0  0  0  0  0  0  0  0  0
  -24.4594  -31.6819   23.7608 C   0  0  0  0  0  0  0  0  0  0  0  0
  -22.6382  -30.2043   26.2381 C   0  0  0  0  0  0  0  0  0  0  0  0
  -26.1769  -17.1514   21.2467 C   0  0  0  0  0  0  0  0  0  0  0  0
  -23.1167  -37.9841   21.0610 C   0  0  0  0  0  0  0  0  0  0  0  0
  -25.7604  -31.6560   20.1811 C   0  0  0  0  0  0  0  0  0  0  0  0
  -26.4369  -30.5121   22.6737 C   0  0  0  0  0  0  0  0  0  0  0  0
  -23.2711  -36.9663   22.1882 C   0  0  0  0  0  0  0  0  0  0  0  0
  -28.8215  -14.9144   22.0711 C   0  0  0  0  0  0  0  0  0  0  0  0
  -24.7444  -36.6477   22.4217 C   0  0  0  0  0  0  0  0  0  0  0  0
  -26.3253  -21.9604   20.0786 C   0  0  0  0  0  0  0  0  0  0  0  0
  -23.9768  -22.5236   20.8473 C   0  0  0  0  0  0  0  0  0  0  0  0
  -28.3342  -13.5650   21.5383 C   0  0  0  0  0  0  0  0  0  0  0  0
  -26.7772  -23.3821   20.4239 C   0  0  0  0  0  0  0  0  0  0  0  0
  -24.4312  -23.9451   21.1884 C   0  0  0  0  0  0  0  0  0  0  0  0
  -27.6749  -15.7453   22.6445 C   0  0  0  0  0  0  0  0  0  0  0  0
  -26.0446  -14.5830   21.2091 C   0  0  0  0  0  0  0  0  0  0  0  0
  -25.3789  -36.0246   21.1724 C   0  0  1  0  0  0  0  0  0  0  0  0
  -24.8303  -21.9161   19.7217 C   0  0  0  0  0  0  0  0  0  0  0  0
  -25.1088  -32.2468   21.4443 C   0  0  1  0  0  0  0  0  0  0  0  0
  -27.1538  -13.7375   20.5623 C   0  0  2  0  0  0  0  0  0  0  0  0
  -25.9265  -24.0107   21.5376 C   0  0  0  0  0  0  0  0  0  0  0  0
  -22.0069  -30.4804   28.6511 C   0  0  0  0  0  0  0  0  0  0  0  0
  -27.2351  -30.7288   24.5921 C   0  0  0  0  0  0  0  0  0  0  0  0
  -26.2799  -30.1209   26.8251 C   0  0  0  0  0  0  0  0  0  0  0  0
  -26.2543  -32.4965   26.0644 C   0  0  0  0  0  0  0  0  0  0  0  0
  -19.7579  -30.3902   25.5835 C   0  0  0  0  0  0  0  0  0  0  0  0
  -25.4014  -23.7967   23.8184 C   0  0  0  0  0  0  0  0  0  0  0  0
  -26.3601  -25.4562   21.7883 C   0  0  0  0  0  0  0  0  0  1  0  0
  -24.6856  -30.8328   24.9860 C   0  0  1  0  0  0  0  0  0  0  0  0
  -21.6162  -30.7667   27.2095 C   0  0  2  0  0  0  0  0  0  0  0  0
  -26.1028  -31.0338   25.5930 C   0  0  0  0  0  0  0  0  0  0  0  0
  -25.6279  -11.8076   20.7304 N   0  0  0  0  0  0  0  0  0  0  0  0
  -23.4008  -20.4116   18.4424 N   0  0  0  0  0  0  0  0  0  0  0  0
  -24.9949  -19.5000   20.0028 N   0  0  0  0  0  0  0  0  0  0  0  0
  -26.6345  -12.4009   20.0665 N   0  0  0  0  0  0  0  0  0  0  0  0
  -25.3335  -31.4852   22.6847 N   0  0  0  0  0  0  0  0  0  0  0  0
  -26.5951  -15.8698   21.6630 N   0  0  0  0  0  0  0  0  0  0  0  0
  -22.0004  -18.9494   17.1890 N   0  0  0  0  0  0  0  0  0  0  0  0
  -28.0815  -12.1453   18.2086 N   0  0  0  0  0  0  0  0  0  0  0  0
  -25.6422   -9.6036   16.8004 N   0  0  0  0  0  0  0  0  0  0  0  0
  -25.1659  -17.1443   20.2864 N   0  0  0  0  0  0  0  0  0  0  0  0
  -25.0037  -34.6316   21.0564 N   0  0  0  0  0  0  0  0  0  0  0  0
  -23.5935  -31.1405   25.9031 N   0  0  0  0  0  0  0  0  0  0  0  0
  -20.2762  -30.1651   26.9574 N   0  3  0  0  0  0  0  0  0  0  0  0
  -27.1486   -8.5104   18.1401 O   0  0  0  0  0  0  0  0  0  0  0  0
  -26.6399  -33.7341   22.4492 O   0  0  0  0  0  0  0  0  0  0  0  0
  -23.5372  -32.5022   23.7572 O   0  0  0  0  0  0  0  0  0  0  0  0
  -22.5956  -29.0490   25.8211 O   0  0  0  0  0  0  0  0  0  0  0  0
  -26.6976  -18.1791   21.6881 O   0  0  0  0  0  0  0  0  0  0  0  0
  -21.4625   -7.0748   21.6231 O   0  0  0  0  0  0  0  0  0  0  0  0
  -26.6496  -26.0783   20.5370 O   0  0  0  0  0  0  0  0  0  1  0  0
  -26.1576  -23.2711   22.7404 O   0  0  0  0  0  0  0  0  0  0  0  0
  -22.4652   -3.9519   26.0555 F   0  0  0  0  0  0  0  0  0  0  0  0
  -21.4859   -4.3165   21.4389 F   0  0  0  0  0  0  0  0  0  0  0  0
  1  2  1  0  0  0  0
  1  5  2  0  0  0  0
  2  6  2  0  0  0  0
  3  8  2  0  0  0  0
  3 16  1  0  0  0  0
  4  9  1  0  0  0  0
  4 16  2  0  0  0  0
  5 18  1  0  0  0  0
  6 20  1  0  0  0  0
  7 10  2  0  0  0  0
  7 19  1  0  0  0  0
  8 22  1  0  0  0  0
  9 22  2  0  0  0  0
 10 23  1  0  0  0  0
 11 12  2  0  0  0  0
 11 24  1  0  0  0  0
 12 25  1  0  0  0  0
 13 21  1  0  0  0  0
 13 23  2  0  0  0  0
 14 25  2  0  0  0  0
 14 26  1  0  0  0  0
 15 28  1  0  0  0  0
 15 29  2  0  0  0  0
 16 27  1  0  0  0  0
 17 27  1  0  0  0  0
 17 30  2  0  0  0  0
 17 32  1  0  0  0  0
 18 20  2  0  0  0  0
 18 37  1  0  0  0  0
 19 21  2  0  0  0  0
 19 38  1  0  0  0  0
 20 50  1  0  0  0  0
 21 39  1  0  0  0  0
 22 83  1  0  0  0  0
 23 84  1  0  0  0  0
 24 26  2  0  0  0  0
 24 83  1  0  0  0  0
 25 86  1  0  0  0  0
 26 87  1  0  0  0  0
 27 65  2  0  0  0  0
 28 66  2  0  0  0  0
 28 71  1  0  0  0  0
 29 67  1  0  0  0  0
 29 74  1  0  0  0  0
 30 68  1  0  0  0  0
 30 72  1  0  0  0  0
 31 51  1  0  0  0  0
 31 66  1  0  0  0  0
 31 67  2  0  0  0  0
 32 73  1  0  0  0  0
 32 78  2  0  0  0  0
 33 52  1  0  0  0  0
 33 75  1  0  0  0  0
 33 79  2  0  0  0  0
 34 62  1  0  0  0  0
 34 69  1  0  0  0  0
 34 80  2  0  0  0  0
 35 63  1  0  0  0  0
 35 76  1  0  0  0  0
 35 81  2  0  0  0  0
 36 70  1  0  0  0  0
 36 74  1  0  0  0  0
 36 82  2  0  0  0  0
 37 40  1  0  0  0  0
 38 52  1  0  0  0  0
 39 69  1  0  0  0  0
 40 42  1  0  0  0  0
 41 45  1  0  0  0  0
 41 48  1  0  0  0  0
 42 50  1  0  0  0  0
 43 46  1  0  0  0  0
 43 51  1  0  0  0  0
 44 47  1  0  0  0  0
 44 51  1  0  0  0  0
 45 53  1  0  0  0  0
 46 54  1  0  0  0  0
 47 54  1  0  0  0  0
 48 70  1  0  0  0  0
 49 53  1  0  0  0  0
 49 70  1  0  0  0  0
 50 75  1  0  0  0  0
 52 69  1  0  0  0  0
 53 68  1  0  0  0  0
 54 61  1  0  0  0  0
 54 85  1  0  0  0  0
 55 63  1  0  0  0  0
 56 64  1  0  0  0  0
 57 64  1  0  0  0  0
 58 64  1  0  0  0  0
 59 77  1  0  0  0  0
 60 85  1  0  0  0  0
 61 84  1  0  0  0  0
 62 64  1  0  0  0  0
 62 76  1  0  0  0  0
 63 77  1  0  0  0  0
 65 68  1  0  0  0  0
M  CHG  1  77   1
M  ISO  4  36 100  61 101  74 100  84 101
M  END
> <Batch ID>
0165

> <Smiles>
CNC(C)C(=O)NC(C(=O)N1Cc2cc([101O:1][101CH2:1]C3(OC)CCC(c4nc(N)cc([100NH:0][100C:0](=O)N5CCCC(n6nc(-c7ccc(Oc8ccc(F)cc8F)cc7)c(C(N)=O)c6N)C5)n4)CC3)ccc2CC1C(=O)NC1CCCc2ccccc21)C(C)(C)C

> <Shape>
0.230

> <Color>
0.112

> <Negative vol penalty>
0.000

$$$$

  -OEChem-04052304053D

 88 97  0     1  0  0  0  0  0999 V2000
  -23.8758  -25.1357   13.6921 C   0  0  0  0  0  0  0  0  0  0  0  0
  -24.9064  -24.9345   14.6046 C   0  0  0  0  0  0  0  0  0  0  0  0
  -23.2005   -9.7257   19.9554 C   0  0  0  0  0  0  0  0  0  0  0  0
  -23.8962   -9.8515   22.2656 C   0  0  0  0  0  0  0  0  0  0  0  0
  -23.4674  -26.4312   13.3780 C   0  0  0  0  0  0  0  0  0  0  0  0
  -25.5300  -26.0289   15.2028 C   0  0  0  0  0  0  0  0  0  0  0  0
  -26.1938  -25.4031   20.1841 C   0  0  0  0  0  0  0  0  0  0  0  0
  -22.5183   -8.5395   20.2254 C   0  0  0  0  0  0  0  0  0  0  0  0
  -23.2139   -8.6652   22.5357 C   0  0  0  0  0  0  0  0  0  0  0  0
  -27.2509  -24.5890   20.5882 C   0  0  0  0  0  0  0  0  0  0  0  0
  -20.0223   -7.6986   23.0833 C   0  0  0  0  0  0  0  0  0  0  0  0
  -19.2374   -7.6520   24.2354 C   0  0  0  0  0  0  0  0  0  0  0  0
  -28.5838  -26.5502   21.0315 C   0  0  0  0  0  0  0  0  0  0  0  0
  -20.5687   -5.8158   25.0680 C   0  0  0  0  0  0  0  0  0  0  0  0
  -29.9842  -19.1793   22.8543 C   0  0  0  0  0  0  0  0  0  0  0  0
  -23.8895  -10.3817   20.9755 C   0  0  0  0  0  0  0  0  0  0  0  0
  -24.0874  -12.9174   20.7788 C   0  0  0  0  0  0  0  0  0  0  0  0
  -24.0797  -27.5417   13.9799 C   0  0  0  0  0  0  0  0  0  0  0  0
  -26.3277  -26.7990   20.1903 C   0  0  0  0  0  0  0  0  0  0  0  0
  -25.1303  -27.3405   14.8955 C   0  0  0  0  0  0  0  0  0  0  0  0
  -27.5260  -27.3799   20.6294 C   0  0  0  0  0  0  0  0  0  0  0  0
  -22.5249   -8.0092   21.5155 C   0  0  0  0  0  0  0  0  0  0  0  0
  -28.4472  -25.1624   21.0093 C   0  0  0  0  0  0  0  0  0  0  0  0
  -21.0804   -6.8037   22.9234 C   0  0  0  0  0  0  0  0  0  0  0  0
  -19.5107   -6.7106   25.2278 C   0  0  0  0  0  0  0  0  0  0  0  0
  -21.3536   -5.8624   23.9158 C   0  0  0  0  0  0  0  0  0  0  0  0
  -24.5949  -11.6069   20.6971 C   0  0  0  0  0  0  0  0  0  0  0  0
  -31.2066  -19.1161   22.2329 C   0  0  0  0  0  0  0  0  0  0  0  0
  -25.1437  -13.7178   20.4180 C   0  0  0  0  0  0  0  0  0  0  0  0
  -30.2186  -17.2959   21.8675 C   0  0  0  0  0  0  0  0  0  0  0  0
  -22.7782  -13.3708   21.1478 C   0  0  0  0  0  0  0  0  0  0  0  0
  -26.2233  -29.0723   17.9711 C   0  0  0  0  0  0  0  0  0  0  0  0
  -31.0277  -22.6340   20.7351 C   0  0  0  0  0  0  0  0  0  0  0  0
  -26.4355  -31.0447   20.5376 C   0  0  0  0  0  0  0  0  0  0  0  0
  -27.3926  -31.4821   23.7841 C   0  0  0  0  0  0  0  0  0  0  0  0
  -30.5333  -15.0885   20.6950 C   0  0  0  0  0  0  0  0  0  0  0  0
  -23.6358  -28.9246   13.5732 C   0  0  0  0  0  0  0  0  0  0  0  0
  -25.1687  -27.6639   19.7767 C   0  0  0  0  0  0  0  0  0  0  0  0
  -27.7135  -28.8736   20.6741 C   0  0  0  0  0  0  0  0  0  0  0  0
  -24.0958  -30.0188   14.5331 C   0  0  0  0  0  0  0  0  0  0  0  0
  -29.6254  -12.5381   18.3823 C   0  0  0  0  0  0  0  0  0  0  0  0
  -34.5043  -19.2092   20.4040 C   0  0  0  0  0  0  0  0  0  0  0  0
  -25.5710  -29.8408   14.8782 C   0  0  0  0  0  0  0  0  0  0  0  0
  -28.1940  -12.1763   18.7851 C   0  0  0  0  0  0  0  0  0  0  0  0
  -34.3725  -18.6635   21.8223 C   0  0  0  0  0  0  0  0  0  0  0  0
  -30.4928  -12.8590   19.5982 C   0  0  0  0  0  0  0  0  0  0  0  0
  -28.5102  -13.5141   20.9057 C   0  0  0  0  0  0  0  0  0  0  0  0
  -33.1820  -19.6765   19.8214 C   0  0  0  0  0  0  0  0  0  0  0  0
  -25.8146  -28.5014   15.5840 C   0  0  1  0  0  0  0  0  0  0  0  0
  -32.2846  -20.1424   22.1868 C   0  0  1  0  0  0  0  0  0  0  0  0
  -25.5934  -29.0611   19.3352 C   0  0  1  0  0  0  0  0  0  0  0  0
  -27.5814  -13.2460   19.7103 C   0  0  2  0  0  0  0  0  0  0  0  0
  -33.6419  -19.6248   22.7868 C   0  0  0  0  0  0  0  0  0  0  0  0
  -33.4204  -18.9036   24.1364 C   0  0  0  0  0  0  0  0  0  0  0  0
  -34.5594  -20.8380   23.0880 C   0  0  0  0  0  0  0  0  0  0  0  0
  -27.4728  -33.2145   25.5978 C   0  0  0  0  0  0  0  0  0  0  0  0
  -28.8230  -32.3630   19.1696 C   0  0  0  0  0  0  0  0  0  0  0  0
  -29.4271  -33.3923   21.3704 C   0  0  0  0  0  0  0  0  0  0  0  0
  -27.2514  -33.9550   20.2876 C   0  0  0  0  0  0  0  0  0  0  0  0
  -25.6352  -29.8832   25.5488 C   0  0  0  0  0  0  0  0  0  0  0  0
  -31.2933  -21.2782   20.1358 C   0  0  0  0  0  0  0  0  0  0  0  0
  -29.5820  -23.0834   20.7948 C   0  0  0  0  0  0  0  0  0  1  0  0
  -27.5688  -31.6675   21.3165 C   0  0  1  0  0  0  0  0  0  0  0  0
  -26.6689  -32.0835   24.9753 C   0  0  2  0  0  0  0  0  0  0  0  0
  -28.2650  -32.8162   20.5335 C   0  0  0  0  0  0  0  0  0  0  0  0
  -25.8741  -11.5723   20.3143 N   0  0  0  0  0  0  0  0  0  0  0  0
  -31.3512  -17.9068   21.6024 N   0  0  0  0  0  0  0  0  0  0  0  0
  -26.1792  -12.8710   20.1522 N   0  0  0  0  0  0  0  0  0  0  0  0
  -26.5533  -29.6767   20.2538 N   0  0  0  0  0  0  0  0  0  0  0  0
  -29.8513  -13.8829   20.4259 N   0  0  0  0  0  0  0  0  0  0  0  0
  -25.2784  -15.0563   20.3053 N   0  0  0  0  0  0  0  0  0  0  0  0
  -21.8120  -12.4150   21.4901 N   0  0  0  0  0  0  0  0  0  0  0  0
  -29.8114  -15.9997   21.4652 N   0  0  0  0  0  0  0  0  0  0  0  0
  -25.4075  -28.5794   16.9706 N   0  0  0  0  0  0  0  0  0  0  0  0
  -27.0070  -32.0741   22.6000 N   0  0  0  0  0  0  0  0  0  0  0  0
  -32.4987  -20.6708   20.7416 N   0  3  2  0  0  0  0  0  0  0  0  0
  -26.4344  -31.0445   26.0175 N   0  3  0  0  0  0  0  0  0  0  0  0
  -22.4695  -14.5866   21.1575 O   0  0  0  0  0  0  0  0  0  0  0  0
  -27.3644  -29.4981   17.8360 O   0  0  0  0  0  0  0  0  0  0  0  0
  -31.9515  -23.3431   21.1338 O   0  0  0  0  0  0  0  0  0  0  0  0
  -25.4775  -31.7445   20.1999 O   0  0  0  0  0  0  0  0  0  0  0  0
  -28.2202  -30.5800   23.8934 O   0  0  0  0  0  0  0  0  0  0  0  0
  -31.6629  -15.3082   20.2506 O   0  0  0  0  0  0  0  0  0  0  0  0
  -29.3355  -18.0040   22.6236 O   0  0  0  0  0  0  0  0  0  0  0  0
  -21.8591   -6.8518   21.7794 O   0  0  0  0  0  0  0  0  0  0  0  0
  -29.4809  -24.3701   21.4037 O   0  0  0  0  0  0  0  0  0  1  0  0
  -18.7578   -6.6670   26.3348 F   0  0  0  0  0  0  0  0  0  0  0  0
  -22.3694   -5.0009   23.7685 F   0  0  0  0  0  0  0  0  0  0  0  0
  1  2  1  0  0  0  0
  1  5  2  0  0  0  0
  2  6  2  0  0  0  0
  3  8  2  0  0  0  0
  3 16  1  0  0  0  0
  4  9  1  0  0  0  0
  4 16  2  0  0  0  0
  5 18  1  0  0  0  0
  6 20  1  0  0  0  0
  7 10  2  0  0  0  0
  7 19  1  0  0  0  0
  8 22  1  0  0  0  0
  9 22  2  0  0  0  0
 10 23  1  0  0  0  0
 11 12  2  0  0  0  0
 11 24  1  0  0  0  0
 12 25  1  0  0  0  0
 13 21  1  0  0  0  0
 13 23  2  0  0  0  0
 14 25  2  0  0  0  0
 14 26  1  0  0  0  0
 15 28  2  0  0  0  0
 15 84  1  0  0  0  0
 16 27  1  0  0  0  0
 17 27  1  0  0  0  0
 17 29  2  0  0  0  0
 17 31  1  0  0  0  0
 18 20  2  0  0  0  0
 18 37  1  0  0  0  0
 19 21  2  0  0  0  0
 19 38  1  0  0  0  0
 20 49  1  0  0  0  0
 21 39  1  0  0  0  0
 22 85  1  0  0  0  0
 23 86  1  0  0  0  0
 24 26  2  0  0  0  0
 24 85  1  0  0  0  0
 25 87  1  0  0  0  0
 26 88  1  0  0  0  0
 27 66  2  0  0  0  0
 28 50  1  0  0  0  0
 28 67  1  0  0  0  0
 29 68  1  0  0  0  0
 29 71  1  0  0  0  0
 30 67  2  0  0  0  0
 30 73  1  0  0  0  0
 30 84  1  0  0  0  0
 31 72  1  0  0  0  0
 31 78  2  0  0  0  0
 32 51  1  0  0  0  0
 32 74  1  0  0  0  0
 32 79  2  0  0  0  0
 33 61  1  0  0  0  0
 33 62  1  0  0  0  0
 33 80  2  0  0  0  0
 34 63  1  0  0  0  0
 34 69  1  0  0  0  0
 34 81  2  0  0  0  0
 35 64  1  0  0  0  0
 35 75  1  0  0  0  0
 35 82  2  0  0  0  0
 36 70  1  0  0  0  0
 36 73  1  0  0  0  0
 36 83  2  0  0  0  0
 37 40  1  0  0  0  0
 38 51  1  0  0  0  0
 39 69  1  0  0  0  0
 40 43  1  0  0  0  0
 41 44  1  0  0  0  0
 41 46  1  0  0  0  0
 42 45  1  0  0  0  0
 42 48  1  0  0  0  0
 43 49  1  0  0  0  0
 44 52  1  0  0  0  0
 45 53  1  0  0  0  0
 46 70  1  0  0  0  0
 47 52  1  0  0  0  0
 47 70  1  0  0  0  0
 48 76  1  0  0  0  0
 49 74  1  0  0  0  0
 50 53  1  0  0  0  0
 50 76  1  0  0  0  0
 51 69  1  0  0  0  0
 52 68  1  0  0  0  0
 53 54  1  0  0  0  0
 53 55  1  0  0  0  0
 56 64  1  0  0  0  0
 57 65  1  0  0  0  0
 58 65  1  0  0  0  0
 59 65  1  0  0  0  0
 60 77  1  0  0  0  0
 61 76  1  0  0  0  0
 62 86  1  0  0  0  0
 63 65  1  0  0  0  0
 63 75  1  0  0  0  0
 64 77  1  0  0  0  0
 66 68  1  0  0  0  0
M  CHG  2  76   1  77   1
M  ISO  4  36 100  62 101  73 100  86 101
M  END
> <Batch ID>
0165

> <Smiles>
CNC(C)C(=O)NC(C(=O)N1Cc2cc([101O:1][101CH2:1]C(=O)CN3CCCC(C)(C)C3c3coc([100NH:0][100C:0](=O)N4CCCC(n5nc(-c6ccc(Oc7ccc(F)cc7F)cc6)c(C(N)=O)c5N)C4)n3)ccc2CC1C(=O)NC1CCCc2ccccc21)C(C)(C)C

> <Shape>
0.295

> <Color>
0.187

> <Negative vol penalty>
0.000

$$$$

  -OEChem-04052304053D

 86 94  0     1  0  0  0  0  0999 V2000
  -27.4465  -32.7912   27.4361 C   0  0  0  0  0  0  0  0  0  0  0  0
  -27.6356  -31.6679   26.6374 C   0  0  0  0  0  0  0  0  0  0  0  0
  -23.3363   -9.7315   21.3550 C   0  0  0  0  0  0  0  0  0  0  0  0
  -24.0911  -10.6506   23.4579 C   0  0  0  0  0  0  0  0  0  0  0  0
  -26.1711  -33.3355   27.5807 C   0  0  0  0  0  0  0  0  0  0  0  0
  -26.5492  -31.0877   25.9837 C   0  0  0  0  0  0  0  0  0  0  0  0
  -27.5791  -29.9197   21.1649 C   0  0  0  0  0  0  0  0  0  0  0  0
  -22.6846   -8.7045   22.0377 C   0  0  0  0  0  0  0  0  0  0  0  0
  -23.4393   -9.6237   24.1407 C   0  0  0  0  0  0  0  0  0  0  0  0
  -28.3250  -28.7644   20.9353 C   0  0  0  0  0  0  0  0  0  0  0  0
  -19.8061   -8.2959   23.7641 C   0  0  0  0  0  0  0  0  0  0  0  0
  -18.5073   -7.9766   23.3683 C   0  0  0  0  0  0  0  0  0  0  0  0
  -29.5228  -18.4401   21.2988 C   0  0  0  0  0  0  0  0  0  0  0  0
  -31.4186  -19.8161   21.8896 C   0  0  0  0  0  0  0  0  0  0  0  0
  -26.2983  -27.5685   20.4048 C   0  0  0  0  0  0  0  0  0  0  0  0
  -31.7670  -17.5948   21.0055 C   0  0  0  0  0  0  0  0  0  0  0  0
  -19.2183   -5.7264   22.8505 C   0  0  0  0  0  0  0  0  0  0  0  0
  -24.0397  -10.7045   22.0651 C   0  0  0  0  0  0  0  0  0  0  0  0
  -30.0386  -19.6391   21.7905 C   0  0  0  0  0  0  0  0  0  0  0  0
  -24.1834  -13.0193   21.0027 C   0  0  0  0  0  0  0  0  0  0  0  0
  -25.0700  -32.7674   26.9207 C   0  0  0  0  0  0  0  0  0  0  0  0
  -26.1837  -29.9051   21.0266 C   0  0  0  0  0  0  0  0  0  0  0  0
  -25.2576  -31.6242   26.1206 C   0  0  0  0  0  0  0  0  0  0  0  0
  -25.5372  -28.7255   20.6308 C   0  0  0  0  0  0  0  0  0  0  0  0
  -30.3870  -17.4179   20.9064 C   0  0  0  0  0  0  0  0  0  0  0  0
  -22.7360   -8.6507   23.4306 C   0  0  0  0  0  0  0  0  0  0  0  0
  -27.6844  -27.5878   20.5579 C   0  0  0  0  0  0  0  0  0  0  0  0
  -20.8111   -7.3305   23.7031 C   0  0  0  0  0  0  0  0  0  0  0  0
  -18.2134   -6.6919   22.9115 C   0  0  0  0  0  0  0  0  0  0  0  0
  -32.2829  -18.7939   21.4971 C   0  0  0  0  0  0  0  0  0  0  0  0
  -20.5172   -6.0458   23.2463 C   0  0  0  0  0  0  0  0  0  0  0  0
  -24.7137  -11.7652   21.3603 C   0  0  0  0  0  0  0  0  0  0  0  0
  -25.2140  -13.6560   20.3555 C   0  0  0  0  0  0  0  0  0  0  0  0
  -28.1432  -25.3595   21.1009 C   0  0  0  0  0  0  0  0  0  1  0  0
  -29.1239  -20.7215   22.2074 C   0  0  0  0  0  0  0  0  0  0  0  0
  -22.8761  -13.5604   21.2349 C   0  0  0  0  0  0  0  0  0  0  0  0
  -28.7940  -24.1985   20.9669 C   0  0  0  0  0  0  0  0  0  0  0  0
  -28.4204  -23.0732   21.8559 C   0  0  0  0  0  0  0  0  0  0  0  0
  -23.7302  -30.4056   22.9846 C   0  0  0  0  0  0  0  0  0  0  0  0
  -21.9988  -30.1281   20.2555 C   0  0  0  0  0  0  0  0  0  0  0  0
  -21.7831  -28.9184   17.0717 C   0  0  0  0  0  0  0  0  0  0  0  0
  -30.5817  -15.0860   19.9730 C   0  0  0  0  0  0  0  0  0  0  0  0
  -23.7027  -33.3629   27.1452 C   0  0  0  0  0  0  0  0  0  0  0  0
  -25.3961  -31.1666   21.2520 C   0  0  0  0  0  0  0  0  0  0  0  0
  -24.0434  -28.6626   20.4487 C   0  0  0  0  0  0  0  0  0  0  0  0
  -22.6660  -32.9119   26.1195 C   0  0  0  0  0  0  0  0  0  0  0  0
  -29.6615  -11.8876   18.7079 C   0  0  0  0  0  0  0  0  0  0  0  0
  -22.7367  -31.4015   25.9177 C   0  0  0  0  0  0  0  0  0  0  0  0
  -28.2486  -11.6738   19.2557 C   0  0  0  0  0  0  0  0  0  0  0  0
  -30.5548  -12.6151   19.7112 C   0  0  0  0  0  0  0  0  0  0  0  0
  -28.5957  -13.6625   20.7762 C   0  0  0  0  0  0  0  0  0  0  0  0
  -24.1081  -30.9810   25.3756 C   0  0  1  0  0  0  0  0  0  0  0  0
  -23.9297  -30.9046   21.5814 C   0  0  1  0  0  0  0  0  0  0  0  0
  -27.6405  -12.9911   19.7759 C   0  0  2  0  0  0  0  0  0  0  0  0
  -20.2306  -28.8204   15.1026 C   0  0  0  0  0  0  0  0  0  0  0  0
  -20.3385  -27.9969   21.6738 C   0  0  0  0  0  0  0  0  0  0  0  0
  -19.4703  -27.2837   19.4364 C   0  0  0  0  0  0  0  0  0  0  0  0
  -19.0142  -29.5894   20.2722 C   0  0  0  0  0  0  0  0  0  0  0  0
  -23.6998  -30.3642   15.3411 C   0  0  0  0  0  0  0  0  0  0  0  0
  -21.3490  -28.9854   19.5133 C   0  0  1  0  0  0  0  0  0  0  0  0
  -21.3678  -29.5786   15.7693 C   0  0  2  0  0  0  0  0  0  0  0  0
  -20.0709  -28.4642   20.2291 C   0  0  0  0  0  0  0  0  0  0  0  0
  -25.9825  -11.6123   20.9723 N   0  0  0  0  0  0  0  0  0  0  0  0
  -26.2582  -12.7786   20.3641 N   0  0  0  0  0  0  0  0  0  0  0  0
  -23.3166  -29.9206   20.6870 N   0  0  0  0  0  0  0  0  0  0  0  0
  -29.9161  -13.8555   20.1565 N   0  0  0  0  0  0  0  0  0  0  0  0
  -25.3199  -14.8751   19.7855 N   0  0  0  0  0  0  0  0  0  0  0  0
  -21.9379  -12.7722   21.9153 N   0  0  0  0  0  0  0  0  0  0  0  0
  -29.8632  -16.2002   20.4056 N   0  0  0  0  0  0  0  0  0  0  0  0
  -29.2153  -21.9025   21.5800 N   0  0  0  0  0  0  0  0  0  0  0  0
  -24.2004  -31.2647   23.9594 N   0  0  0  0  0  0  0  0  0  0  0  0
  -21.1203  -29.4599   18.1528 N   0  0  0  0  0  0  0  0  0  0  0  0
  -28.2570  -20.4592   23.1849 N   0  3  0  0  0  0  0  0  0  0  0  0
  -22.5184  -29.6273   14.8233 N   0  3  0  0  0  0  0  0  0  0  0  0
  -22.5444  -14.7025   20.8360 O   0  0  0  0  0  0  0  0  0  0  0  0
  -27.5585  -23.0964   22.7192 O   0  0  0  0  0  0  0  0  0  0  0  0
  -23.1883  -29.3221   23.1691 O   0  0  0  0  0  0  0  0  0  0  0  0
  -21.3631  -31.1691   20.4393 O   0  0  0  0  0  0  0  0  0  0  0  0
  -22.6098  -28.0105   17.1242 O   0  0  0  0  0  0  0  0  0  0  0  0
  -31.6946  -15.1494   19.4445 O   0  0  0  0  0  0  0  0  0  0  0  0
  -29.7952  -24.0004   20.0416 O   0  0  0  0  0  0  0  0  0  0  0  0
  -22.0999   -7.6489   24.0972 O   0  0  0  0  0  0  0  0  0  0  0  0
  -28.4100  -26.4587   20.3338 O   0  0  0  0  0  0  0  0  0  1  0  0
  -16.9658   -6.3850   22.5328 F   0  0  0  0  0  0  0  0  0  0  0  0
  -33.6081  -18.9639   21.5924 F   0  0  0  0  0  0  0  0  0  0  0  0
  -21.4782   -5.1137   23.1865 F   0  0  0  0  0  0  0  0  0  0  0  0
  1  2  1  0  0  0  0
  1  5  2  0  0  0  0
  2  6  2  0  0  0  0
  3  8  2  0  0  0  0
  3 18  1  0  0  0  0
  4  9  1  0  0  0  0
  4 18  2  0  0  0  0
  5 21  1  0  0  0  0
  6 23  1  0  0  0  0
  7 10  2  0  0  0  0
  7 22  1  0  0  0  0
  8 26  1  0  0  0  0
  9 26  2  0  0  0  0
 10 27  1  0  0  0  0
 11 12  2  0  0  0  0
 11 28  1  0  0  0  0
 12 29  1  0  0  0  0
 13 19  2  0  0  0  0
 13 25  1  0  0  0  0
 14 19  1  0  0  0  0
 14 30  2  0  0  0  0
 15 24  1  0  0  0  0
 15 27  2  0  0  0  0
 16 25  2  0  0  0  0
 16 30  1  0  0  0  0
 17 29  2  0  0  0  0
 17 31  1  0  0  0  0
 18 32  1  0  0  0  0
 19 35  1  0  0  0  0
 20 32  1  0  0  0  0
 20 33  2  0  0  0  0
 20 36  1  0  0  0  0
 21 23  2  0  0  0  0
 21 43  1  0  0  0  0
 22 24  2  0  0  0  0
 22 44  1  0  0  0  0
 23 52  1  0  0  0  0
 24 45  1  0  0  0  0
 25 69  1  0  0  0  0
 26 82  1  0  0  0  0
 27 83  1  0  0  0  0
 28 31  2  0  0  0  0
 28 82  1  0  0  0  0
 29 84  1  0  0  0  0
 30 85  1  0  0  0  0
 31 86  1  0  0  0  0
 32 63  2  0  0  0  0
 33 64  1  0  0  0  0
 33 67  1  0  0  0  0
 34 37  2  0  0  0  0
 34 83  1  0  0  0  0
 35 70  1  0  0  0  0
 35 73  2  0  0  0  0
 36 68  1  0  0  0  0
 36 75  2  0  0  0  0
 37 38  1  0  0  0  0
 37 81  1  0  0  0  0
 38 70  1  0  0  0  0
 38 76  2  0  0  0  0
 39 53  1  0  0  0  0
 39 71  1  0  0  0  0
 39 77  2  0  0  0  0
 40 60  1  0  0  0  0
 40 65  1  0  0  0  0
 40 78  2  0  0  0  0
 41 61  1  0  0  0  0
 41 72  1  0  0  0  0
 41 79  2  0  0  0  0
 42 66  1  0  0  0  0
 42 69  1  0  0  0  0
 42 80  2  0  0  0  0
 43 46  1  0  0  0  0
 44 53  1  0  0  0  0
 45 65  1  0  0  0  0
 46 48  1  0  0  0  0
 47 49  1  0  0  0  0
 47 50  1  0  0  0  0
 48 52  1  0  0  0  0
 49 54  1  0  0  0  0
 50 66  1  0  0  0  0
 51 54  1  0  0  0  0
 51 66  1  0  0  0  0
 52 71  1  0  0  0  0
 53 65  1  0  0  0  0
 54 64  1  0  0  0  0
 55 61  1  0  0  0  0
 56 62  1  0  0  0  0
 57 62  1  0  0  0  0
 58 62  1  0  0  0  0
 59 74  1  0  0  0  0
 60 62  1  0  0  0  0
 60 72  1  0  0  0  0
 61 74  1  0  0  0  0
 63 64  1  0  0  0  0
M  CHG  2  73   1  74   1
M  ISO  4  34 101  42 100  69 100  83 101
M  END
> <Batch ID>
0165

> <Smiles>
CNC(C)C(=O)NC(C(=O)N1Cc2cc([101O:1][101CH2:1]C(=O)C(=O)NC(=N)c3cc(F)cc([100NH:0][100C:0](=O)N4CCCC(n5nc(-c6ccc(Oc7ccc(F)cc7F)cc6)c(C(N)=O)c5N)C4)c3)ccc2CC1C(=O)NC1CCCc2ccccc21)C(C)(C)C

> <Shape>
0.320

> <Color>
0.190

> <Negative vol penalty>
0.000

$$$$

  -OEChem-04052304053D

 88 97  0     1  0  0  0  0  0999 V2000
  -26.4879  -17.9302   23.3213 C   0  0  0  0  0  0  0  0  0  0  0  0
  -26.5279  -19.2928   23.5992 C   0  0  0  0  0  0  0  0  0  0  0  0
  -31.0913  -18.0555   20.8058 C   0  0  0  0  0  0  0  0  0  0  0  0
  -28.7055  -17.7307   20.6060 C   0  0  0  0  0  0  0  0  0  0  0  0
  -25.6334  -17.4466   22.3314 C   0  0  0  0  0  0  0  0  0  0  0  0
  -25.7140  -20.1727   22.8866 C   0  0  0  0  0  0  0  0  0  0  0  0
  -23.0505  -25.2624   25.0094 C   0  0  0  0  0  0  0  0  0  0  0  0
  -31.2599  -16.6871   21.0169 C   0  0  0  0  0  0  0  0  0  0  0  0
  -28.8741  -16.3623   20.8171 C   0  0  0  0  0  0  0  0  0  0  0  0
  -23.4016  -26.6091   24.9271 C   0  0  0  0  0  0  0  0  0  0  0  0
  -29.8426  -13.6676   19.0223 C   0  0  0  0  0  0  0  0  0  0  0  0
  -29.1471  -12.7939   18.1864 C   0  0  0  0  0  0  0  0  0  0  0  0
  -26.4696  -28.3394   20.6444 C   0  0  0  0  0  0  0  0  0  0  0  0
  -21.9505  -26.8644   23.0170 C   0  0  0  0  0  0  0  0  0  0  0  0
  -28.0162  -11.8582   20.1054 C   0  0  0  0  0  0  0  0  0  0  0  0
  -25.6397  -26.9326   18.9156 C   0  0  0  0  0  0  0  0  0  0  0  0
  -29.8141  -18.5773   20.6004 C   0  0  0  0  0  0  0  0  0  0  0  0
  -26.3126  -29.4273   19.7928 C   0  0  0  0  0  0  0  0  0  0  0  0
  -29.6500  -20.6689   19.1492 C   0  0  0  0  0  0  0  0  0  0  0  0
  -24.8016  -18.3199   21.6130 C   0  0  0  0  0  0  0  0  0  0  0  0
  -22.1536  -24.7030   24.0879 C   0  0  0  0  0  0  0  0  0  0  0  0
  -24.8485  -19.7005   21.8853 C   0  0  0  0  0  0  0  0  0  0  0  0
  -21.5877  -25.5109   23.0914 C   0  0  0  0  0  0  0  0  0  0  0  0
  -26.1290  -27.0649   20.2051 C   0  0  0  0  0  0  0  0  0  0  0  0
  -30.1514  -15.8404   21.0225 C   0  0  0  0  0  0  0  0  0  0  0  0
  -22.8538  -27.4097   23.9290 C   0  0  0  0  0  0  0  0  0  0  0  0
  -29.6249  -13.6365   20.3997 C   0  0  0  0  0  0  0  0  0  0  0  0
  -28.2339  -11.8893   18.7279 C   0  0  0  0  0  0  0  0  0  0  0  0
  -28.7117  -12.7319   20.9413 C   0  0  0  0  0  0  0  0  0  0  0  0
  -29.6392  -19.9909   20.3829 C   0  0  0  0  0  0  0  0  0  0  0  0
  -25.8152  -29.1892   18.5217 C   0  0  0  0  0  0  0  0  0  0  0  0
  -29.4422  -21.9859   19.4793 C   0  0  0  0  0  0  0  0  0  0  0  0
  -26.6735  -30.7754   20.2592 C   0  0  0  0  0  0  0  0  0  0  0  0
  -29.8315  -20.1543   17.8233 C   0  0  0  0  0  0  0  0  0  0  0  0
  -22.3275  -22.4018   21.9021 C   0  0  0  0  0  0  0  0  0  0  0  0
  -24.2137  -30.4234   22.4515 C   0  0  0  0  0  0  0  0  0  0  0  0
  -19.1439  -22.9594   21.6263 C   0  0  0  0  0  0  0  0  0  0  0  0
  -16.5366  -25.1248   22.0260 C   0  0  0  0  0  0  0  0  0  0  0  0
  -26.7535  -25.9195   22.3602 C   0  0  0  0  0  0  0  0  0  0  0  0
  -23.9289  -17.7562   20.5197 C   0  0  0  0  0  0  0  0  0  0  0  0
  -21.7645  -23.2549   24.2067 C   0  0  0  0  0  0  0  0  0  0  0  0
  -20.6046  -24.9636   22.0901 C   0  0  0  0  0  0  0  0  0  0  0  0
  -22.8256  -18.7097   20.0684 C   0  0  0  0  0  0  0  0  0  0  0  0
  -29.4770  -24.2980   23.9820 C   0  0  0  0  0  0  0  0  0  0  0  0
  -23.3874  -20.1110   19.8500 C   0  0  0  0  0  0  0  0  0  0  0  0
  -25.6559  -30.0510   16.0915 C   0  0  0  0  0  0  0  0  0  0  0  0
  -26.7963  -30.7769   16.7342 C   0  0  0  0  0  0  0  0  0  0  0  0
  -29.7629  -23.0887   23.0887 C   0  0  0  0  0  0  0  0  0  0  0  0
  -27.9816  -24.5979   24.0690 C   0  0  0  0  0  0  0  0  0  0  0  0
  -27.5870  -23.5336   21.8826 C   0  0  0  0  0  0  0  0  0  0  0  0
  -23.9629  -20.6836   21.1510 C   0  0  1  0  0  0  0  0  0  0  0  0
  -25.6291  -30.3272   17.5700 C   0  0  0  0  0  0  0  0  0  0  0  0
  -21.2370  -22.6689   22.9007 C   0  0  1  0  0  0  0  0  0  0  0  0
  -29.0850  -23.2322   21.7120 C   0  0  2  0  0  0  0  0  0  0  0  0
  -14.0583  -25.3096   21.6778 C   0  0  0  0  0  0  0  0  0  0  0  0
  -19.5945  -23.3254   18.6309 C   0  0  0  0  0  0  0  0  0  0  0  0
  -17.3449  -24.4161   18.4964 C   0  0  0  0  0  0  0  0  0  0  0  0
  -17.5346  -22.0383   19.2263 C   0  0  0  0  0  0  0  0  0  0  0  0
  -26.0265  -32.8778   21.3708 C   0  0  0  0  0  0  0  0  0  0  0  0
  -16.0452  -25.5461   24.9139 C   0  0  0  0  0  0  0  0  0  0  0  0
  -24.3096  -31.1217   21.1118 C   0  0  0  0  0  0  0  0  0  0  0  0
  -23.1810  -29.3184   22.5486 C   0  0  0  0  0  0  0  0  0  1  0  0
  -18.2881  -23.8782   20.7881 C   0  0  1  0  0  0  0  0  0  0  0  0
  -15.1662  -24.9463   22.6542 C   0  0  2  0  0  0  0  0  0  0  0  0
  -18.2105  -23.4247   19.3030 C   0  0  0  0  0  0  0  0  0  0  0  0
  -25.4734  -27.9655   18.0595 N   0  0  0  0  0  0  0  0  0  0  0  0
  -29.4404  -20.8095   21.4194 N   0  0  0  0  0  0  0  0  0  0  0  0
  -29.3245  -22.0155   20.8378 N   0  0  0  0  0  0  0  0  0  0  0  0
  -20.2606  -23.5404   22.2438 N   0  0  0  0  0  0  0  0  0  0  0  0
  -27.4083  -24.7249   22.7274 N   0  0  0  0  0  0  0  0  0  0  0  0
  -29.3506  -23.1098   18.7372 N   0  0  0  0  0  0  0  0  0  0  0  0
  -30.0332  -18.7766   17.6632 N   0  0  0  0  0  0  0  0  0  0  0  0
  -26.2776  -25.9368   21.0496 N   0  0  0  0  0  0  0  0  0  0  0  0
  -22.8976  -21.1480   22.0135 N   0  0  0  0  0  0  0  0  0  0  0  0
  -16.9943  -23.9548   21.4579 N   0  0  0  0  0  0  0  0  0  0  0  0
  -25.6629  -31.5374   20.8927 N   0  0  0  0  0  0  0  0  0  0  0  0
  -15.0324  -25.8118   23.8600 N   0  3  0  0  0  0  0  0  0  0  0  0
  -27.8374  -31.1249   20.0661 O   0  0  0  0  0  0  0  0  0  0  0  0
  -29.8317  -20.8964   16.8120 O   0  0  0  0  0  0  0  0  0  0  0  0
  -22.6283  -23.2685   21.0897 O   0  0  0  0  0  0  0  0  0  0  0  0
  -24.8923  -30.7635   23.4203 O   0  0  0  0  0  0  0  0  0  0  0  0
  -18.8290  -21.7717   21.7352 O   0  0  0  0  0  0  0  0  0  0  0  0
  -17.1390  -26.1961   22.0349 O   0  0  0  0  0  0  0  0  0  0  0  0
  -26.6483  -26.8684   23.1415 O   0  0  0  0  0  0  0  0  0  0  0  0
  -30.3155  -14.5050   21.2282 O   0  0  0  0  0  0  0  0  0  0  0  0
  -23.1953  -28.7243   23.8460 O   0  0  0  0  0  0  0  0  0  1  0  0
  -27.5650  -11.0515   17.9250 F   0  0  0  0  0  0  0  0  0  0  0  0
  -28.4974  -12.6982   22.2637 F   0  0  0  0  0  0  0  0  0  0  0  0
  1  2  1  0  0  0  0
  1  5  2  0  0  0  0
  2  6  2  0  0  0  0
  3  8  2  0  0  0  0
  3 17  1  0  0  0  0
  4  9  1  0  0  0  0
  4 17  2  0  0  0  0
  5 20  1  0  0  0  0
  6 22  1  0  0  0  0
  7 10  2  0  0  0  0
  7 21  1  0  0  0  0
  8 25  1  0  0  0  0
  9 25  2  0  0  0  0
 10 26  1  0  0  0  0
 11 12  2  0  0  0  0
 11 27  1  0  0  0  0
 12 28  1  0  0  0  0
 13 18  1  0  0  0  0
 13 24  2  0  0  0  0
 14 23  1  0  0  0  0
 14 26  2  0  0  0  0
 15 28  2  0  0  0  0
 15 29  1  0  0  0  0
 16 24  1  0  0  0  0
 16 66  2  0  0  0  0
 17 30  1  0  0  0  0
 18 31  2  0  0  0  0
 18 33  1  0  0  0  0
 19 30  1  0  0  0  0
 19 32  2  0  0  0  0
 19 34  1  0  0  0  0
 20 22  2  0  0  0  0
 20 40  1  0  0  0  0
 21 23  2  0  0  0  0
 21 41  1  0  0  0  0
 22 51  1  0  0  0  0
 23 42  1  0  0  0  0
 24 73  1  0  0  0  0
 25 85  1  0  0  0  0
 26 86  1  0  0  0  0
 27 29  2  0  0  0  0
 27 85  1  0  0  0  0
 28 87  1  0  0  0  0
 29 88  1  0  0  0  0
 30 67  2  0  0  0  0
 31 52  1  0  0  0  0
 31 66  1  0  0  0  0
 32 68  1  0  0  0  0
 32 71  1  0  0  0  0
 33 76  1  0  0  0  0
 33 78  2  0  0  0  0
 34 72  1  0  0  0  0
 34 79  2  0  0  0  0
 35 53  1  0  0  0  0
 35 74  1  0  0  0  0
 35 80  2  0  0  0  0
 36 61  1  0  0  0  0
 36 62  1  0  0  0  0
 36 81  2  0  0  0  0
 37 63  1  0  0  0  0
 37 69  1  0  0  0  0
 37 82  2  0  0  0  0
 38 64  1  0  0  0  0
 38 75  1  0  0  0  0
 38 83  2  0  0  0  0
 39 70  1  0  0  0  0
 39 73  1  0  0  0  0
 39 84  2  0  0  0  0
 40 43  1  0  0  0  0
 41 53  1  0  0  0  0
 42 69  1  0  0  0  0
 43 45  1  0  0  0  0
 44 48  1  0  0  0  0
 44 49  1  0  0  0  0
 45 51  1  0  0  0  0
 46 47  1  0  0  0  0
 46 52  1  0  0  0  0
 47 52  1  0  0  0  0
 48 54  1  0  0  0  0
 49 70  1  0  0  0  0
 50 54  1  0  0  0  0
 50 70  1  0  0  0  0
 51 74  1  0  0  0  0
 53 69  1  0  0  0  0
 54 68  1  0  0  0  0
 55 64  1  0  0  0  0
 56 65  1  0  0  0  0
 57 65  1  0  0  0  0
 58 65  1  0  0  0  0
 59 76  1  0  0  0  0
 60 77  1  0  0  0  0
 61 76  1  0  0  0  0
 62 86  1  0  0  0  0
 63 65  1  0  0  0  0
 63 75  1  0  0  0  0
 64 77  1  0  0  0  0
 67 68  1  0  0  0  0
M  CHG  1  77   1
M  ISO  4  39 100  62 101  73 100  86 101
M  END
> <Batch ID>
0165

> <Smiles>
CNC(C)C(=O)NC(C(=O)N1Cc2cc([101O:1][101CH2:1]C(=O)CN(C)C(=O)c3cc([100NH:0][100C:0](=O)N4CCCC(n5nc(-c6ccc(Oc7ccc(F)cc7F)cc6)c(C(N)=O)c5N)C4)cnc3C3CC3)ccc2CC1C(=O)NC1CCCc2ccccc21)C(C)(C)C

> <Shape>
0.195

> <Color>
0.060

> <Negative vol penalty>
0.000

$$$$

  -OEChem-04052304053D

 87 96  0     1  0  0  0  0  0999 V2000
  -26.0687  -38.1357   24.9967 C   0  0  0  0  0  0  0  0  0  0  0  0
  -26.4719  -36.8569   25.3676 C   0  0  0  0  0  0  0  0  0  0  0  0
  -22.8262  -11.4868   22.3562 C   0  0  0  0  0  0  0  0  0  0  0  0
  -24.6261   -9.9288   22.7682 C   0  0  0  0  0  0  0  0  0  0  0  0
  -24.8506  -38.3193   24.3436 C   0  0  0  0  0  0  0  0  0  0  0  0
  -25.6567  -35.7610   25.0866 C   0  0  0  0  0  0  0  0  0  0  0  0
  -27.2923  -20.0921   20.5069 C   0  0  0  0  0  0  0  0  0  0  0  0
  -28.0495  -30.2989   21.0455 C   0  0  0  0  0  0  0  0  0  0  0  0
  -27.3210  -18.6976   20.5234 C   0  0  0  0  0  0  0  0  0  0  0  0
  -22.1723  -11.0346   23.5023 C   0  0  0  0  0  0  0  0  0  0  0  0
  -23.9723   -9.4765   23.9144 C   0  0  0  0  0  0  0  0  0  0  0  0
  -28.5043  -29.1188   20.4568 C   0  0  0  0  0  0  0  0  0  0  0  0
  -21.4075   -7.4058   24.6661 C   0  0  0  0  0  0  0  0  0  0  0  0
  -21.3384   -6.0280   24.8717 C   0  0  0  0  0  0  0  0  0  0  0  0
  -26.2966  -28.1532   20.6613 C   0  0  0  0  0  0  0  0  0  0  0  0
  -29.6711  -18.7394   19.9646 C   0  0  0  0  0  0  0  0  0  0  0  0
  -22.5353   -6.2788   26.9554 C   0  0  0  0  0  0  0  0  0  0  0  0
  -24.0531  -10.9339   21.9892 C   0  0  0  0  0  0  0  0  0  0  0  0
  -24.2482  -11.3644   19.4823 C   0  0  0  0  0  0  0  0  0  0  0  0
  -24.0245  -37.2240   24.0458 C   0  0  0  0  0  0  0  0  0  0  0  0
  -26.7111  -30.4163   21.4307 C   0  0  0  0  0  0  0  0  0  0  0  0
  -24.4258  -35.9303   24.4301 C   0  0  0  0  0  0  0  0  0  0  0  0
  -28.4530  -20.8102   20.2192 C   0  0  0  0  0  0  0  0  0  0  0  0
  -25.8323  -29.3373   21.2400 C   0  0  0  0  0  0  0  0  0  0  0  0
  -28.5104  -18.0213   20.2523 C   0  0  0  0  0  0  0  0  0  0  0  0
  -22.7454  -10.0295   24.2814 C   0  0  0  0  0  0  0  0  0  0  0  0
  -27.6301  -28.0485   20.2654 C   0  0  0  0  0  0  0  0  0  0  0  0
  -22.0406   -8.2202   25.6051 C   0  0  0  0  0  0  0  0  0  0  0  0
  -21.9023   -5.4644   26.0163 C   0  0  0  0  0  0  0  0  0  0  0  0
  -29.6424  -20.1338   19.9480 C   0  0  0  0  0  0  0  0  0  0  0  0
  -22.6045   -7.6567   26.7497 C   0  0  0  0  0  0  0  0  0  0  0  0
  -24.7287  -11.4002   20.8050 C   0  0  0  0  0  0  0  0  0  0  0  0
  -25.2572  -11.9215   18.7352 C   0  0  0  0  0  0  0  0  0  0  0  0
  -23.0012  -10.8718   18.9744 C   0  0  0  0  0  0  0  0  0  0  0  0
  -24.0365  -32.5719   22.9394 C   0  0  0  0  0  0  0  0  0  0  0  0
  -22.7532  -31.0723   20.5910 C   0  0  0  0  0  0  0  0  0  0  0  0
  -20.8423  -30.0931   17.9402 C   0  0  0  0  0  0  0  0  0  0  0  0
  -29.6356  -15.7793   20.0203 C   0  0  0  0  0  0  0  0  0  0  0  0
  -22.6949  -37.4773   23.3806 C   0  0  0  0  0  0  0  0  0  0  0  0
  -26.1920  -31.6463   22.1247 C   0  0  0  0  0  0  0  0  0  0  0  0
  -24.4094  -29.4962   21.7016 C   0  0  0  0  0  0  0  0  0  0  0  0
  -22.0626  -36.2217   22.7855 C   0  0  0  0  0  0  0  0  0  0  0  0
  -30.0116  -12.4945   18.6991 C   0  0  0  0  0  0  0  0  0  0  0  0
  -28.7499  -22.8933   18.8134 C   0  0  0  0  0  0  0  0  0  0  0  0
  -29.3375  -22.9315   21.2785 C   0  0  0  0  0  0  0  0  0  0  0  0
  -22.1278  -35.0679   23.7811 C   0  0  0  0  0  0  0  0  0  0  0  0
  -28.6538  -11.8398   18.9634 C   0  0  0  0  0  0  0  0  0  0  0  0
  -28.6987  -24.4236   18.8039 C   0  0  0  0  0  0  0  0  0  0  0  0
  -29.2823  -24.4613   21.2662 C   0  0  0  0  0  0  0  0  0  0  0  0
  -30.4214  -13.4291   19.8359 C   0  0  0  0  0  0  0  0  0  0  0  0
  -28.0655  -13.7899   20.4593 C   0  0  0  0  0  0  0  0  0  0  0  0
  -28.4179  -22.3277   20.2042 C   0  0  0  0  0  0  0  0  0  0  0  0
  -23.5807  -34.7137   24.1207 C   0  0  1  0  0  0  0  0  0  0  0  0
  -24.7369  -31.9811   21.7511 C   0  0  1  0  0  0  0  0  0  0  0  0
  -27.5803  -12.8895   19.3116 C   0  0  2  0  0  0  0  0  0  0  0  0
  -29.6012  -25.0446   19.8805 C   0  0  0  0  0  0  0  0  0  0  0  0
  -18.4525  -29.7580   17.2518 C   0  0  0  0  0  0  0  0  0  0  0  0
  -22.6506  -28.4933   22.2164 C   0  0  0  0  0  0  0  0  0  0  0  0
  -20.7270  -27.7565   20.7933 C   0  0  0  0  0  0  0  0  0  0  0  0
  -20.5207  -29.8040   22.2032 C   0  0  0  0  0  0  0  0  0  0  0  0
  -21.0628  -32.1001   15.7763 C   0  0  0  0  0  0  0  0  0  0  0  0
  -31.8549  -25.2847   20.5022 C   0  0  0  0  0  0  0  0  0  0  0  0
  -29.4524  -26.5672   19.8878 C   0  0  0  0  0  0  0  0  0  1  0  0
  -21.9745  -29.8642   20.1356 C   0  0  1  0  0  0  0  0  0  0  0  0
  -19.6261  -30.7246   17.2871 C   0  0  2  0  0  0  0  0  0  0  0  0
  -21.4932  -28.9864   21.3253 C   0  0  0  0  0  0  0  0  0  0  0  0
  -25.9482  -11.9374   20.8962 N   0  0  0  0  0  0  0  0  0  0  0  0
  -26.2425  -12.2442   19.6213 N   0  0  0  0  0  0  0  0  0  0  0  0
  -23.9107  -30.8327   21.3415 N   0  0  0  0  0  0  0  0  0  0  0  0
  -29.3579  -14.3987   20.1071 N   0  0  0  0  0  0  0  0  0  0  0  0
  -25.3888  -12.1617   17.4134 N   0  0  0  0  0  0  0  0  0  0  0  0
  -22.0776  -10.3317   19.8797 N   0  0  0  0  0  0  0  0  0  0  0  0
  -28.5391  -16.6047   20.2671 N   0  0  0  0  0  0  0  0  0  0  0  0
  -24.1760  -33.9421   23.0508 N   0  0  0  0  0  0  0  0  0  0  0  0
  -20.8974  -30.3676   19.2903 N   0  0  0  0  0  0  0  0  0  0  0  0
  -19.9418  -31.1317   15.8887 N   0  3  0  0  0  0  0  0  0  0  0  0
  -22.7212  -10.8944   17.7518 O   0  0  0  0  0  0  0  0  0  0  0  0
  -23.4136  -31.8396   23.6993 O   0  0  0  0  0  0  0  0  0  0  0  0
  -22.3455  -32.1992   20.2956 O   0  0  0  0  0  0  0  0  0  0  0  0
  -21.6597  -29.4203   17.3158 O   0  0  0  0  0  0  0  0  0  0  0  0
  -30.7566  -16.1981   19.7203 O   0  0  0  0  0  0  0  0  0  0  0  0
  -22.1077   -9.5881   25.4000 O   0  0  0  0  0  0  0  0  0  0  0  0
  -28.0797  -26.9010   19.6859 O   0  0  0  0  0  0  0  0  0  1  0  0
  -30.9589  -24.7406   19.5475 O   0  0  0  0  0  0  0  0  0  0  0  0
  -21.8345   -4.1414   26.2144 F   0  0  0  0  0  0  0  0  0  0  0  0
  -30.7628  -20.8151   19.6706 F   0  0  0  0  0  0  0  0  0  0  0  0
  -23.2129   -8.4341   27.6560 F   0  0  0  0  0  0  0  0  0  0  0  0
  1  2  1  0  0  0  0
  1  5  2  0  0  0  0
  2  6  2  0  0  0  0
  3 10  2  0  0  0  0
  3 18  1  0  0  0  0
  4 11  1  0  0  0  0
  4 18  2  0  0  0  0
  5 20  1  0  0  0  0
  6 22  1  0  0  0  0
  7  9  2  0  0  0  0
  7 23  1  0  0  0  0
  8 12  2  0  0  0  0
  8 21  1  0  0  0  0
  9 25  1  0  0  0  0
 10 26  1  0  0  0  0
 11 26  2  0  0  0  0
 12 27  1  0  0  0  0
 13 14  2  0  0  0  0
 13 28  1  0  0  0  0
 14 29  1  0  0  0  0
 15 24  1  0  0  0  0
 15 27  2  0  0  0  0
 16 25  2  0  0  0  0
 16 30  1  0  0  0  0
 17 29  2  0  0  0  0
 17 31  1  0  0  0  0
 18 32  1  0  0  0  0
 19 32  1  0  0  0  0
 19 33  2  0  0  0  0
 19 34  1  0  0  0  0
 20 22  2  0  0  0  0
 20 39  1  0  0  0  0
 21 24  2  0  0  0  0
 21 40  1  0  0  0  0
 22 53  1  0  0  0  0
 23 30  2  0  0  0  0
 23 52  1  0  0  0  0
 24 41  1  0  0  0  0
 25 73  1  0  0  0  0
 26 82  1  0  0  0  0
 27 83  1  0  0  0  0
 28 31  2  0  0  0  0
 28 82  1  0  0  0  0
 29 85  1  0  0  0  0
 30 86  1  0  0  0  0
 31 87  1  0  0  0  0
 32 67  2  0  0  0  0
 33 68  1  0  0  0  0
 33 71  1  0  0  0  0
 34 72  1  0  0  0  0
 34 77  2  0  0  0  0
 35 54  1  0  0  0  0
 35 74  1  0  0  0  0
 35 78  2  0  0  0  0
 36 64  1  0  0  0  0
 36 69  1  0  0  0  0
 36 79  2  0  0  0  0
 37 65  1  0  0  0  0
 37 75  1  0  0  0  0
 37 80  2  0  0  0  0
 38 70  1  0  0  0  0
 38 73  1  0  0  0  0
 38 81  2  0  0  0  0
 39 42  1  0  0  0  0
 40 54  1  0  0  0  0
 41 69  1  0  0  0  0
 42 46  1  0  0  0  0
 43 47  1  0  0  0  0
 43 50  1  0  0  0  0
 44 48  1  0  0  0  0
 44 52  1  0  0  0  0
 45 49  1  0  0  0  0
 45 52  1  0  0  0  0
 46 53  1  0  0  0  0
 47 55  1  0  0  0  0
 48 56  1  0  0  0  0
 49 56  1  0  0  0  0
 50 70  1  0  0  0  0
 51 55  1  0  0  0  0
 51 70  1  0  0  0  0
 53 74  1  0  0  0  0
 54 69  1  0  0  0  0
 55 68  1  0  0  0  0
 56 63  1  0  0  0  0
 56 84  1  0  0  0  0
 57 65  1  0  0  0  0
 58 66  1  0  0  0  0
 59 66  1  0  0  0  0
 60 66  1  0  0  0  0
 61 76  1  0  0  0  0
 62 84  1  0  0  0  0
 63 83  1  0  0  0  0
 64 66  1  0  0  0  0
 64 75  1  0  0  0  0
 65 76  1  0  0  0  0
 67 68  1  0  0  0  0
M  CHG  1  76   1
M  ISO  4  38 100  63 101  73 100  83 101
M  END
> <Batch ID>
0165

> <Smiles>
CNC(C)C(=O)NC(C(=O)N1Cc2cc([101O:1][101CH2:1]C3(OC)CCC(c4ccc([100NH:0][100C:0](=O)N5CCCC(n6nc(-c7ccc(Oc8ccc(F)cc8F)cc7)c(C(N)=O)c6N)C5)cc4F)CC3)ccc2CC1C(=O)NC1CCCc2ccccc21)C(C)(C)C

> <Shape>
0.331

> <Color>
0.098

> <Negative vol penalty>
0.000

$$$$

  -OEChem-04052304053D

 82 90  0     1  0  0  0  0  0999 V2000
  -22.0892  -20.1024   36.7211 C   0  0  0  0  0  0  0  0  0  0  0  0
  -22.9218  -19.8261   35.6414 C   0  0  0  0  0  0  0  0  0  0  0  0
  -23.1899   -9.8191   19.9324 C   0  0  0  0  0  0  0  0  0  0  0  0
  -23.5680   -9.9995   22.3118 C   0  0  0  0  0  0  0  0  0  0  0  0
  -21.1311  -19.1703   37.1175 C   0  0  0  0  0  0  0  0  0  0  0  0
  -22.7976  -18.6169   34.9582 C   0  0  0  0  0  0  0  0  0  0  0  0
  -22.9051  -19.2069   29.9297 C   0  0  0  0  0  0  0  0  0  0  0  0
  -22.4236   -8.6725   20.1410 C   0  0  0  0  0  0  0  0  0  0  0  0
  -22.8015   -8.8529   22.5205 C   0  0  0  0  0  0  0  0  0  0  0  0
  -24.1520  -19.4046   29.3383 C   0  0  0  0  0  0  0  0  0  0  0  0
  -23.2024   -5.5062   22.2565 C   0  0  0  0  0  0  0  0  0  0  0  0
  -23.7006   -4.5448   23.1358 C   0  0  0  0  0  0  0  0  0  0  0  0
  -32.6336  -15.3711   24.0402 C   0  0  0  0  0  0  0  0  0  0  0  0
  -32.1599  -16.5892   24.5835 C   0  0  0  0  0  0  0  0  0  0  0  0
  -24.2093  -17.0802   28.6958 C   0  0  0  0  0  0  0  0  0  0  0  0
  -21.7439   -4.8050   24.5289 C   0  0  0  0  0  0  0  0  0  0  0  0
  -23.7622  -10.4826   21.0177 C   0  0  0  0  0  0  0  0  0  0  0  0
  -24.1012  -12.9992   20.7740 C   0  0  0  0  0  0  0  0  0  0  0  0
  -20.9886  -17.9531   36.4327 C   0  0  0  0  0  0  0  0  0  0  0  0
  -22.3048  -17.9396   29.9181 C   0  0  0  0  0  0  0  0  0  0  0  0
  -21.8377  -17.6670   35.3466 C   0  0  0  0  0  0  0  0  0  0  0  0
  -22.9535  -16.8695   29.2855 C   0  0  0  0  0  0  0  0  0  0  0  0
  -22.2293   -8.1894   21.4351 C   0  0  0  0  0  0  0  0  0  0  0  0
  -24.8056  -18.3406   28.7238 C   0  0  0  0  0  0  0  0  0  0  0  0
  -21.9749   -6.1171   22.5134 C   0  0  0  0  0  0  0  0  0  0  0  0
  -22.9713   -4.1942   24.2720 C   0  0  0  0  0  0  0  0  0  0  0  0
  -21.2457   -5.7664   23.6496 C   0  0  0  0  0  0  0  0  0  0  0  0
  -24.5545  -11.6667   20.8028 C   0  0  0  0  0  0  0  0  0  0  0  0
  -31.6569  -14.4357   24.2908 C   0  0  0  0  0  0  0  0  0  0  0  0
  -25.2324  -13.7418   20.5388 C   0  0  0  0  0  0  0  0  0  0  0  0
  -30.9272  -16.3113   25.1270 C   0  0  0  0  0  0  0  0  0  0  0  0
  -22.7760  -13.5192   20.9446 C   0  0  0  0  0  0  0  0  0  0  0  0
  -21.4004  -15.8654   32.1504 C   0  0  0  0  0  0  0  0  0  0  0  0
  -27.9908  -17.7613   26.9591 C   0  0  0  0  0  0  0  0  0  0  0  0
  -20.1745  -14.2619   29.6111 C   0  0  0  0  0  0  0  0  0  0  0  0
  -20.2566  -13.6550   26.2537 C   0  0  0  0  0  0  0  0  0  0  0  0
  -31.0470  -12.7514   21.5687 C   0  0  0  0  0  0  0  0  0  0  0  0
  -19.9703  -16.9567   36.9276 C   0  0  0  0  0  0  0  0  0  0  0  0
  -20.9472  -17.7488   30.5370 C   0  0  0  0  0  0  0  0  0  0  0  0
  -22.3425  -15.4941   29.2279 C   0  0  0  0  0  0  0  0  0  0  0  0
  -19.6517  -15.8583   35.9165 C   0  0  0  0  0  0  0  0  0  0  0  0
  -29.5200  -13.4688   18.4334 C   0  0  0  0  0  0  0  0  0  0  0  0
  -20.9366  -15.2936   35.3190 C   0  0  0  0  0  0  0  0  0  0  0  0
  -28.0334  -13.2085   18.6825 C   0  0  0  0  0  0  0  0  0  0  0  0
  -30.4012  -12.4793   19.1927 C   0  0  0  0  0  0  0  0  0  0  0  0
  -28.6474  -12.1368   20.8900 C   0  0  0  0  0  0  0  0  0  0  0  0
  -21.7169  -16.3770   34.5647 C   0  0  1  0  0  0  0  0  0  0  0  0
  -20.6617  -16.2989   30.9159 C   0  0  1  0  0  0  0  0  0  0  0  0
  -27.7201  -13.1446   20.1895 C   0  0  2  0  0  0  0  0  0  0  0  0
  -19.1584  -12.2660   24.4756 C   0  0  0  0  0  0  0  0  0  0  0  0
  -21.7331  -11.8171   30.5616 C   0  0  0  0  0  0  0  0  0  0  0  0
  -21.3767  -10.7982   28.3026 C   0  0  0  0  0  0  0  0  0  0  0  0
  -19.4176  -11.3284   29.7528 C   0  0  0  0  0  0  0  0  0  0  0  0
  -19.3126  -16.0537   24.7999 C   0  0  0  0  0  0  0  0  0  0  0  0
  -31.5369  -13.0025   23.9886 C   0  0  0  0  0  0  0  0  0  0  0  0
  -28.7448  -16.6296   26.2937 C   0  0  0  0  0  0  0  0  0  0  0  0
  -26.6360  -17.3966   27.5345 C   0  0  0  0  0  0  0  0  0  1  0  0
  -20.6941  -13.2149   28.6557 C   0  0  1  0  0  0  0  0  0  0  0  0
  -19.1526  -13.5957   25.2135 C   0  0  2  0  0  0  0  0  0  0  0  0
  -20.8180  -11.8150   29.3208 C   0  0  0  0  0  0  0  0  0  0  0  0
  -25.8711  -11.5655   20.6018 N   0  0  0  0  0  0  0  0  0  0  0  0
  -26.2547  -12.8439   20.4444 N   0  0  0  0  0  0  0  0  0  0  0  0
  -21.0166  -15.3565   29.8529 N   0  0  0  0  0  0  0  0  0  0  0  0
  -30.0545  -12.4683   20.6159 N   0  0  0  0  0  0  0  0  0  0  0  0
  -25.4425  -15.0686   20.4056 N   0  0  0  0  0  0  0  0  0  0  0  0
  -21.7292  -12.6171   21.1786 N   0  0  0  0  0  0  0  0  0  0  0  0
  -30.0049  -17.1102   25.7876 N   0  0  0  0  0  0  0  0  0  0  0  0
  -21.1174  -16.6232   33.2707 N   0  0  0  0  0  0  0  0  0  0  0  0
  -19.8121  -13.2486   27.4941 N   0  0  0  0  0  0  0  0  0  0  0  0
  -30.6326  -12.7260   22.8947 N   0  0  0  0  0  0  0  0  0  0  0  0
  -19.3229  -14.6884   24.2145 N   0  3  0  0  0  0  0  0  0  0  0  0
  -22.5249  -14.7463   20.8749 O   0  0  0  0  0  0  0  0  0  0  0  0
  -22.1691  -14.9128   32.0913 O   0  0  0  0  0  0  0  0  0  0  0  0
  -28.4376  -18.9052   27.0337 O   0  0  0  0  0  0  0  0  0  0  0  0
  -19.0594  -14.1175   30.1184 O   0  0  0  0  0  0  0  0  0  0  0  0
  -21.4001  -14.0214   25.9913 O   0  0  0  0  0  0  0  0  0  0  0  0
  -32.2147  -13.0129   21.2602 O   0  0  0  0  0  0  0  0  0  0  0  0
  -30.6133  -15.0007   24.9528 O   0  0  0  0  0  0  0  0  0  0  0  0
  -21.4813   -7.0707   21.6391 O   0  0  0  0  0  0  0  0  0  0  0  0
  -26.0231  -18.5307   28.1464 O   0  0  0  0  0  0  0  0  0  1  0  0
  -23.4491   -3.2699   25.1155 F   0  0  0  0  0  0  0  0  0  0  0  0
  -20.0653   -6.3490   23.9011 F   0  0  0  0  0  0  0  0  0  0  0  0
  1  2  1  0  0  0  0
  1  5  2  0  0  0  0
  2  6  2  0  0  0  0
  3  8  2  0  0  0  0
  3 17  1  0  0  0  0
  4  9  1  0  0  0  0
  4 17  2  0  0  0  0
  5 19  1  0  0  0  0
  6 21  1  0  0  0  0
  7 10  2  0  0  0  0
  7 20  1  0  0  0  0
  8 23  1  0  0  0  0
  9 23  2  0  0  0  0
 10 24  1  0  0  0  0
 11 12  2  0  0  0  0
 11 25  1  0  0  0  0
 12 26  1  0  0  0  0
 13 14  1  0  0  0  0
 13 29  2  0  0  0  0
 14 31  2  0  0  0  0
 15 22  1  0  0  0  0
 15 24  2  0  0  0  0
 16 26  2  0  0  0  0
 16 27  1  0  0  0  0
 17 28  1  0  0  0  0
 18 28  1  0  0  0  0
 18 30  2  0  0  0  0
 18 32  1  0  0  0  0
 19 21  2  0  0  0  0
 19 38  1  0  0  0  0
 20 22  2  0  0  0  0
 20 39  1  0  0  0  0
 21 47  1  0  0  0  0
 22 40  1  0  0  0  0
 23 79  1  0  0  0  0
 24 80  1  0  0  0  0
 25 27  2  0  0  0  0
 25 79  1  0  0  0  0
 26 81  1  0  0  0  0
 27 82  1  0  0  0  0
 28 61  2  0  0  0  0
 29 55  1  0  0  0  0
 29 78  1  0  0  0  0
 30 62  1  0  0  0  0
 30 65  1  0  0  0  0
 31 67  1  0  0  0  0
 31 78  1  0  0  0  0
 32 66  1  0  0  0  0
 32 72  2  0  0  0  0
 33 48  1  0  0  0  0
 33 68  1  0  0  0  0
 33 73  2  0  0  0  0
 34 56  1  0  0  0  0
 34 57  1  0  0  0  0
 34 74  2  0  0  0  0
 35 58  1  0  0  0  0
 35 63  1  0  0  0  0
 35 75  2  0  0  0  0
 36 59  1  0  0  0  0
 36 69  1  0  0  0  0
 36 76  2  0  0  0  0
 37 64  1  0  0  0  0
 37 70  1  0  0  0  0
 37 77  2  0  0  0  0
 38 41  1  0  0  0  0
 39 48  1  0  0  0  0
 40 63  1  0  0  0  0
 41 43  1  0  0  0  0
 42 44  1  0  0  0  0
 42 45  1  0  0  0  0
 43 47  1  0  0  0  0
 44 49  1  0  0  0  0
 45 64  1  0  0  0  0
 46 49  1  0  0  0  0
 46 64  1  0  0  0  0
 47 68  1  0  0  0  0
 48 63  1  0  0  0  0
 49 62  1  0  0  0  0
 50 59  1  0  0  0  0
 51 60  1  0  0  0  0
 52 60  1  0  0  0  0
 53 60  1  0  0  0  0
 54 71  1  0  0  0  0
 55 70  1  0  0  0  0
 56 67  1  0  0  0  0
 57 80  1  0  0  0  0
 58 60  1  0  0  0  0
 58 69  1  0  0  0  0
 59 71  1  0  0  0  0
 61 62  1  0  0  0  0
M  CHG  1  71   1
M  ISO  4  37 100  57 101  70 100  80 101
M  END
> <Batch ID>
0165

> <Smiles>
CNC(C)C(=O)NC(C(=O)N1Cc2cc([101O:1][101CH2:1]C(=O)CNc3ccc(C[100NH:0][100C:0](=O)N4CCCC(n5nc(-c6ccc(Oc7ccc(F)cc7F)cc6)c(C(N)=O)c5N)C4)o3)ccc2CC1C(=O)NC1CCCc2ccccc21)C(C)(C)C

> <Shape>
0.143

> <Color>
0.178

> <Negative vol penalty>
0.000

$$$$

  -OEChem-04052304053D

 86 94  0     1  0  0  0  0  0999 V2000
  -29.5362  -32.8167   24.4341 C   0  0  0  0  0  0  0  0  0  0  0  0
  -29.2893  -31.5471   23.9217 C   0  0  0  0  0  0  0  0  0  0  0  0
  -23.1280  -10.0638   21.7873 C   0  0  0  0  0  0  0  0  0  0  0  0
  -23.7745  -11.2810   23.7717 C   0  0  0  0  0  0  0  0  0  0  0  0
  -28.5164  -33.5191   25.0748 C   0  0  0  0  0  0  0  0  0  0  0  0
  -28.0226  -30.9786   24.0508 C   0  0  0  0  0  0  0  0  0  0  0  0
  -26.4257  -28.7994   19.7675 C   0  0  0  0  0  0  0  0  0  0  0  0
  -22.3754   -9.1880   22.5697 C   0  0  0  0  0  0  0  0  0  0  0  0
  -23.0219  -10.4052   24.5541 C   0  0  0  0  0  0  0  0  0  0  0  0
  -26.9492  -27.5449   19.4578 C   0  0  0  0  0  0  0  0  0  0  0  0
  -19.3614   -9.1798   24.1023 C   0  0  0  0  0  0  0  0  0  0  0  0
  -18.0800   -8.8526   23.6590 C   0  0  0  0  0  0  0  0  0  0  0  0
  -24.9413  -26.5060   20.2994 C   0  0  0  0  0  0  0  0  0  0  0  0
  -29.7488  -18.3945   20.8478 C   0  0  0  0  0  0  0  0  0  0  0  0
  -31.6656  -19.7704   21.3666 C   0  0  0  0  0  0  0  0  0  0  0  0
  -31.9609  -17.4235   20.8752 C   0  0  0  0  0  0  0  0  0  0  0  0
  -18.7083   -6.5217   23.5634 C   0  0  0  0  0  0  0  0  0  0  0  0
  -23.8276  -11.1103   22.3883 C   0  0  0  0  0  0  0  0  0  0  0  0
  -24.1691  -13.2146   20.9873 C   0  0  0  0  0  0  0  0  0  0  0  0
  -27.2339  -32.9629   25.2032 C   0  0  0  0  0  0  0  0  0  0  0  0
  -25.1584  -28.9162   20.3565 C   0  0  0  0  0  0  0  0  0  0  0  0
  -26.9850  -31.6737   24.6949 C   0  0  0  0  0  0  0  0  0  0  0  0
  -24.4029  -27.7633   20.6132 C   0  0  0  0  0  0  0  0  0  0  0  0
  -30.2893  -19.6354   21.1846 C   0  0  0  0  0  0  0  0  0  0  0  0
  -30.5846  -17.2884   20.6932 C   0  0  0  0  0  0  0  0  0  0  0  0
  -22.3223   -9.3587   23.9531 C   0  0  0  0  0  0  0  0  0  0  0  0
  -26.2082  -26.3978   19.7264 C   0  0  0  0  0  0  0  0  0  0  0  0
  -20.3163   -8.1780   24.2760 C   0  0  0  0  0  0  0  0  0  0  0  0
  -17.7534   -7.5235   23.3896 C   0  0  0  0  0  0  0  0  0  0  0  0
  -32.5014  -18.6644   21.2119 C   0  0  0  0  0  0  0  0  0  0  0  0
  -19.9898   -6.8489   24.0066 C   0  0  0  0  0  0  0  0  0  0  0  0
  -24.6057  -12.0150   21.5807 C   0  0  0  0  0  0  0  0  0  0  0  0
  -25.2760  -13.6963   20.3322 C   0  0  0  0  0  0  0  0  0  0  0  0
  -26.8858  -24.2777   20.4452 C   0  0  0  0  0  0  0  0  0  1  0  0
  -22.8784  -13.8378   21.0249 C   0  0  0  0  0  0  0  0  0  0  0  0
  -27.3770  -23.0468   20.2645 C   0  0  0  0  0  0  0  0  0  0  0  0
  -27.5178  -22.1566   21.4426 C   0  0  0  0  0  0  0  0  0  0  0  0
  -28.0719  -20.7862   21.1974 C   0  0  0  0  0  0  0  0  0  0  0  0
  -24.0629  -30.0566   23.1139 C   0  0  0  0  0  0  0  0  0  0  0  0
  -21.1738  -29.4580   21.7660 C   0  0  0  0  0  0  0  0  0  0  0  0
  -19.3515  -27.6924   19.4838 C   0  0  0  0  0  0  0  0  0  0  0  0
  -30.7246  -14.8303   20.1602 C   0  0  0  0  0  0  0  0  0  0  0  0
  -26.1763  -33.7408   25.9455 C   0  0  0  0  0  0  0  0  0  0  0  0
  -24.5968  -30.2782   20.6600 C   0  0  0  0  0  0  0  0  0  0  0  0
  -23.0289  -27.8356   21.2259 C   0  0  0  0  0  0  0  0  0  0  0  0
  -24.7603  -33.2214   25.7100 C   0  0  0  0  0  0  0  0  0  0  0  0
  -29.7333  -11.5083   19.3486 C   0  0  0  0  0  0  0  0  0  0  0  0
  -24.7201  -31.7022   25.8419 C   0  0  0  0  0  0  0  0  0  0  0  0
  -28.2749  -11.4427   19.8081 C   0  0  0  0  0  0  0  0  0  0  0  0
  -30.5878  -12.3526   20.2923 C   0  0  0  0  0  0  0  0  0  0  0  0
  -28.6138  -13.6361   21.0168 C   0  0  0  0  0  0  0  0  0  0  0  0
  -25.6173  -31.0335   24.7933 C   0  0  1  0  0  0  0  0  0  0  0  0
  -23.5101  -30.2515   21.7304 C   0  0  1  0  0  0  0  0  0  0  0  0
  -27.7003  -12.8500   20.0622 C   0  0  2  0  0  0  0  0  0  0  0  0
  -17.0066  -27.3944   18.6409 C   0  0  0  0  0  0  0  0  0  0  0  0
  -20.4857  -27.8396   24.2595 C   0  0  0  0  0  0  0  0  0  0  0  0
  -18.5906  -26.8133   22.9855 C   0  0  0  0  0  0  0  0  0  0  0  0
  -18.6253  -29.2729   23.3998 C   0  0  0  0  0  0  0  0  0  0  0  0
  -20.0999  -28.5537   16.7530 C   0  0  0  0  0  0  0  0  0  0  0  0
  -20.2369  -28.2749   21.7268 C   0  0  1  0  0  0  0  0  0  0  0  0
  -18.3233  -28.1331   18.4576 C   0  0  2  0  0  0  0  0  0  0  0  0
  -19.5113  -28.0484   23.0831 C   0  0  0  0  0  0  0  0  0  0  0  0
  -25.8897  -11.7507   21.3250 N   0  0  0  0  0  0  0  0  0  0  0  0
  -26.2695  -12.7910   20.5637 N   0  0  0  0  0  0  0  0  0  0  0  0
  -22.5260  -29.1898   21.5103 N   0  0  0  0  0  0  0  0  0  0  0  0
  -29.9841  -13.6733   20.4824 N   0  0  0  0  0  0  0  0  0  0  0  0
  -25.4867  -14.8016   19.5863 N   0  0  0  0  0  0  0  0  0  0  0  0
  -21.8533  -13.2084   21.7441 N   0  0  0  0  0  0  0  0  0  0  0  0
  -29.4424  -20.7569   21.3419 N   0  0  0  0  0  0  0  0  0  0  0  0
  -30.0358  -16.0276   20.3514 N   0  0  0  0  0  0  0  0  0  0  0  0
  -24.9663  -31.0280   23.5008 N   0  0  0  0  0  0  0  0  0  0  0  0
  -19.3391  -28.5024   20.5996 N   0  0  0  0  0  0  0  0  0  0  0  0
  -18.8221  -27.8692   17.0783 N   0  3  0  0  0  0  0  0  0  0  0  0
  -22.6368  -14.9124   20.4246 O   0  0  0  0  0  0  0  0  0  0  0  0
  -27.2061  -22.4412   22.5884 O   0  0  0  0  0  0  0  0  0  0  0  0
  -27.2690  -19.9090   20.9268 O   0  0  0  0  0  0  0  0  0  0  0  0
  -23.6958  -29.0968   23.7815 O   0  0  0  0  0  0  0  0  0  0  0  0
  -20.7214  -30.5799   22.0074 O   0  0  0  0  0  0  0  0  0  0  0  0
  -20.0891  -26.7240   19.3143 O   0  0  0  0  0  0  0  0  0  0  0  0
  -31.8749  -14.7627   19.7194 O   0  0  0  0  0  0  0  0  0  0  0  0
  -27.7595  -22.5621   19.0334 O   0  0  0  0  0  0  0  0  0  0  0  0
  -21.5879   -8.5044   24.7169 O   0  0  0  0  0  0  0  0  0  0  0  0
  -26.7171  -25.1720   19.4257 O   0  0  0  0  0  0  0  0  0  1  0  0
  -16.5224   -7.2092   22.9655 F   0  0  0  0  0  0  0  0  0  0  0  0
  -33.8231  -18.7937   21.3874 F   0  0  0  0  0  0  0  0  0  0  0  0
  -20.9026   -5.8820   24.1729 F   0  0  0  0  0  0  0  0  0  0  0  0
  1  2  1  0  0  0  0
  1  5  2  0  0  0  0
  2  6  2  0  0  0  0
  3  8  2  0  0  0  0
  3 18  1  0  0  0  0
  4  9  1  0  0  0  0
  4 18  2  0  0  0  0
  5 20  1  0  0  0  0
  6 22  1  0  0  0  0
  7 10  2  0  0  0  0
  7 21  1  0  0  0  0
  8 26  1  0  0  0  0
  9 26  2  0  0  0  0
 10 27  1  0  0  0  0
 11 12  2  0  0  0  0
 11 28  1  0  0  0  0
 12 29  1  0  0  0  0
 13 23  1  0  0  0  0
 13 27  2  0  0  0  0
 14 24  2  0  0  0  0
 14 25  1  0  0  0  0
 15 24  1  0  0  0  0
 15 30  2  0  0  0  0
 16 25  2  0  0  0  0
 16 30  1  0  0  0  0
 17 29  2  0  0  0  0
 17 31  1  0  0  0  0
 18 32  1  0  0  0  0
 19 32  1  0  0  0  0
 19 33  2  0  0  0  0
 19 35  1  0  0  0  0
 20 22  2  0  0  0  0
 20 43  1  0  0  0  0
 21 23  2  0  0  0  0
 21 44  1  0  0  0  0
 22 52  1  0  0  0  0
 23 45  1  0  0  0  0
 24 69  1  0  0  0  0
 25 70  1  0  0  0  0
 26 82  1  0  0  0  0
 27 83  1  0  0  0  0
 28 31  2  0  0  0  0
 28 82  1  0  0  0  0
 29 84  1  0  0  0  0
 30 85  1  0  0  0  0
 31 86  1  0  0  0  0
 32 63  2  0  0  0  0
 33 64  1  0  0  0  0
 33 67  1  0  0  0  0
 34 36  2  0  0  0  0
 34 83  1  0  0  0  0
 35 68  1  0  0  0  0
 35 74  2  0  0  0  0
 36 37  1  0  0  0  0
 36 81  1  0  0  0  0
 37 38  1  0  0  0  0
 37 75  2  0  0  0  0
 38 69  1  0  0  0  0
 38 76  2  0  0  0  0
 39 53  1  0  0  0  0
 39 71  1  0  0  0  0
 39 77  2  0  0  0  0
 40 60  1  0  0  0  0
 40 65  1  0  0  0  0
 40 78  2  0  0  0  0
 41 61  1  0  0  0  0
 41 72  1  0  0  0  0
 41 79  2  0  0  0  0
 42 66  1  0  0  0  0
 42 70  1  0  0  0  0
 42 80  2  0  0  0  0
 43 46  1  0  0  0  0
 44 53  1  0  0  0  0
 45 65  1  0  0  0  0
 46 48  1  0  0  0  0
 47 49  1  0  0  0  0
 47 50  1  0  0  0  0
 48 52  1  0  0  0  0
 49 54  1  0  0  0  0
 50 66  1  0  0  0  0
 51 54  1  0  0  0  0
 51 66  1  0  0  0  0
 52 71  1  0  0  0  0
 53 65  1  0  0  0  0
 54 64  1  0  0  0  0
 55 61  1  0  0  0  0
 56 62  1  0  0  0  0
 57 62  1  0  0  0  0
 58 62  1  0  0  0  0
 59 73  1  0  0  0  0
 60 62  1  0  0  0  0
 60 72  1  0  0  0  0
 61 73  1  0  0  0  0
 63 64  1  0  0  0  0
M  CHG  1  73   1
M  ISO  4  34 101  42 100  70 100  83 101
M  END
> <Batch ID>
0165

> <Smiles>
CNC(C)C(=O)NC(C(=O)N1Cc2cc([101O:1][101CH2:1]C(=O)C(=O)C(=O)Nc3cc(F)cc([100NH:0][100C:0](=O)N4CCCC(n5nc(-c6ccc(Oc7ccc(F)cc7F)cc6)c(C(N)=O)c5N)C4)c3)ccc2CC1C(=O)NC1CCCc2ccccc21)C(C)(C)C

> <Shape>
0.328

> <Color>
0.136

> <Negative vol penalty>
0.000

$$$$

  -OEChem-04052304053D

 86 94  0     1  0  0  0  0  0999 V2000
  -24.6691   -8.5382   23.3441 C   0  0  0  0  0  0  0  0  0  0  0  0
  -25.3218   -9.7404   23.0905 C   0  0  0  0  0  0  0  0  0  0  0  0
  -23.2435  -27.6407   23.2619 C   0  0  0  0  0  0  0  0  0  0  0  0
  -22.2902  -28.7056   21.3141 C   0  0  0  0  0  0  0  0  0  0  0  0
  -30.1673  -20.7956   20.9476 C   0  0  0  0  0  0  0  0  0  0  0  0
  -30.4621  -22.1436   20.7445 C   0  0  0  0  0  0  0  0  0  0  0  0
  -23.3664   -8.3437   22.8870 C   0  0  0  0  0  0  0  0  0  0  0  0
  -24.6724  -10.7484   22.3788 C   0  0  0  0  0  0  0  0  0  0  0  0
  -25.2844  -15.3146   24.4812 C   0  0  0  0  0  0  0  0  0  0  0  0
  -22.2794  -28.2484   24.0661 C   0  0  0  0  0  0  0  0  0  0  0  0
  -21.3260  -29.3133   22.1182 C   0  0  0  0  0  0  0  0  0  0  0  0
  -26.5028  -15.9569   24.2652 C   0  0  0  0  0  0  0  0  0  0  0  0
  -18.3928  -30.8595   23.6095 C   0  0  0  0  0  0  0  0  0  0  0  0
  -17.0713  -30.8431   23.1636 C   0  0  0  0  0  0  0  0  0  0  0  0
  -30.6877  -20.3331   18.6340 C   0  0  0  0  0  0  0  0  0  0  0  0
  -25.4830  -17.2973   22.5382 C   0  0  0  0  0  0  0  0  0  0  0  0
  -17.0995  -28.4272   23.1689 C   0  0  0  0  0  0  0  0  0  0  0  0
  -23.2490  -27.8694   21.8859 C   0  0  0  0  0  0  0  0  0  0  0  0
  -30.2801  -19.8903   19.8924 C   0  0  0  0  0  0  0  0  0  0  0  0
  -30.8697  -22.5865   19.4862 C   0  0  0  0  0  0  0  0  0  0  0  0
  -24.1538  -25.9915   20.4154 C   0  0  0  0  0  0  0  0  0  0  0  0
  -22.6972   -9.3535   22.1777 C   0  0  0  0  0  0  0  0  0  0  0  0
  -24.1570  -15.6518   23.7186 C   0  0  0  0  0  0  0  0  0  0  0  0
  -23.3600  -10.5667   21.9106 C   0  0  0  0  0  0  0  0  0  0  0  0
  -24.2509  -16.6596   22.7483 C   0  0  0  0  0  0  0  0  0  0  0  0
  -30.9825  -21.6813   18.4309 C   0  0  0  0  0  0  0  0  0  0  0  0
  -21.3206  -29.0847   23.4942 C   0  0  0  0  0  0  0  0  0  0  0  0
  -26.6030  -16.9464   23.2916 C   0  0  0  0  0  0  0  0  0  0  0  0
  -19.0677  -29.6597   23.8351 C   0  0  0  0  0  0  0  0  0  0  0  0
  -16.4246  -29.6269   22.9433 C   0  0  0  0  0  0  0  0  0  0  0  0
  -18.4210  -28.4436   23.6148 C   0  0  0  0  0  0  0  0  0  0  0  0
  -24.2451  -27.2423   21.0548 C   0  0  0  0  0  0  0  0  0  0  0  0
  -25.3502  -25.8556   19.7545 C   0  0  0  0  0  0  0  0  0  0  0  0
  -31.1753  -24.0161   19.2999 C   0  0  0  0  0  0  0  0  0  0  0  0
  -29.9670  -18.4521   20.1108 C   0  0  0  0  0  0  0  0  0  0  0  0
  -23.0833  -25.0377   20.4184 C   0  0  0  0  0  0  0  0  0  0  0  0
  -29.5313  -18.0098   21.4842 C   0  0  0  0  0  0  0  0  0  0  0  0
  -22.2738  -14.0914   21.6882 C   0  0  0  0  0  0  0  0  0  0  0  0
  -20.5566  -16.8421   21.7748 C   0  0  0  0  0  0  0  0  0  0  0  0
  -20.5005  -20.2056   22.3499 C   0  0  0  0  0  0  0  0  0  0  0  0
  -30.9174  -26.2550   19.7609 C   0  0  0  0  0  0  0  0  0  0  0  0
  -21.3064   -9.0793   21.6628 C   0  0  0  0  0  0  0  0  0  0  0  0
  -22.8433  -14.9682   23.9823 C   0  0  0  0  0  0  0  0  0  0  0  0
  -23.0650  -17.0727   21.9167 C   0  0  0  0  0  0  0  0  0  0  0  0
  -20.5539  -10.3386   21.2405 C   0  0  0  0  0  0  0  0  0  0  0  0
  -29.0330  -29.1964   18.8653 C   0  0  0  0  0  0  0  0  0  0  0  0
  -21.4450  -11.2301   20.3814 C   0  0  0  0  0  0  0  0  0  0  0  0
  -27.6183  -28.8588   19.3357 C   0  0  0  0  0  0  0  0  0  0  0  0
  -30.0883  -28.6076   19.7965 C   0  0  0  0  0  0  0  0  0  0  0  0
  -28.5416  -26.7909   20.4720 C   0  0  0  0  0  0  0  0  0  0  0  0
  -22.6800  -11.6934   21.1635 C   0  0  1  0  0  0  0  0  0  0  0  0
  -21.8878  -15.0318   22.7947 C   0  0  1  0  0  0  0  0  0  0  0  0
  -27.4502  -27.3424   19.5387 C   0  0  1  0  0  0  0  0  0  0  0  0
  -30.3034  -22.8351   16.3110 C   0  0  0  0  0  0  0  0  0  0  0  0
  -18.9611  -22.1869   22.3020 C   0  0  0  0  0  0  0  0  0  0  0  0
  -20.7249  -16.8961   18.7287 C   0  0  0  0  0  0  0  0  0  0  0  0
  -20.0361  -19.3020   18.8029 C   0  0  0  0  0  0  0  0  0  0  0  0
  -18.4953  -17.5383   19.6619 C   0  0  0  0  0  0  0  0  0  0  0  0
  -29.7336  -16.2061   19.3756 C   0  0  0  0  0  0  0  0  0  0  0  0
  -20.8748  -20.7128   25.2415 C   0  0  0  0  0  0  0  0  0  0  0  0
  -31.4196  -22.1288   17.0741 C   0  0  0  0  0  0  0  0  0  0  0  0
  -28.0492  -18.0443   21.7557 C   0  0  0  0  0  0  0  0  0  1  0  0
  -20.5632  -18.1317   20.9900 C   0  0  1  0  0  0  0  0  0  0  0  0
  -19.5507  -21.0742   23.1547 C   0  0  2  0  0  0  0  0  0  0  0  0
  -19.9778  -17.9581   19.5601 C   0  0  0  0  0  0  0  0  0  0  0  0
  -25.4076  -27.8572   20.8213 N   0  0  0  0  0  0  0  0  0  0  0  0
  -30.5815  -24.9343   19.9897 N   0  0  0  0  0  0  0  0  0  0  0  0
  -30.0622  -17.6041   19.1440 N   0  0  0  0  0  0  0  0  0  0  0  0
  -26.0579  -26.9890   20.0279 N   0  0  0  0  0  0  0  0  0  0  0  0
  -21.8041  -16.3706   22.2076 N   0  0  0  0  0  0  0  0  0  0  0  0
  -29.8762  -27.1727   19.9915 N   0  0  0  0  0  0  0  0  0  0  0  0
  -25.8554  -24.8784   18.9721 N   0  0  0  0  0  0  0  0  0  0  0  0
  -21.9251  -25.3357   21.1491 N   0  0  0  0  0  0  0  0  0  0  0  0
  -22.3306  -12.7650   22.0713 N   0  0  0  0  0  0  0  0  0  0  0  0
  -19.8584  -19.1117   21.8092 N   0  0  0  0  0  0  0  0  0  0  0  0
  -20.2651  -21.6933   24.3068 N   0  3  0  0  0  0  0  0  0  0  0  0
  -23.1584  -23.9460   19.8051 O   0  0  0  0  0  0  0  0  0  0  0  0
  -30.3955  -17.6522   22.2702 O   0  0  0  0  0  0  0  0  0  0  0  0
  -22.5017  -14.5362   20.5693 O   0  0  0  0  0  0  0  0  0  0  0  0
  -19.4835  -16.2778   22.0019 O   0  0  0  0  0  0  0  0  0  0  0  0
  -21.6921  -20.4729   22.2113 O   0  0  0  0  0  0  0  0  0  0  0  0
  -32.0335  -26.6261   19.3899 O   0  0  0  0  0  0  0  0  0  0  0  0
  -20.3795  -29.6777   24.2786 O   0  0  0  0  0  0  0  0  0  0  0  0
  -27.7912  -17.5745   23.0782 O   0  0  0  0  0  0  0  0  0  1  0  0
  -15.1550  -29.6113   22.5165 F   0  0  0  0  0  0  0  0  0  0  0  0
  -19.0639  -27.2878   23.8310 F   0  0  0  0  0  0  0  0  0  0  0  0
  1  2  1  0  0  0  0
  1  7  2  0  0  0  0
  2  8  2  0  0  0  0
  3 10  2  0  0  0  0
  3 18  1  0  0  0  0
  4 11  1  0  0  0  0
  4 18  2  0  0  0  0
  5  6  2  0  0  0  0
  5 19  1  0  0  0  0
  6 20  1  0  0  0  0
  7 22  1  0  0  0  0
  8 24  1  0  0  0  0
  9 12  2  0  0  0  0
  9 23  1  0  0  0  0
 10 27  1  0  0  0  0
 11 27  2  0  0  0  0
 12 28  1  0  0  0  0
 13 14  2  0  0  0  0
 13 29  1  0  0  0  0
 14 30  1  0  0  0  0
 15 19  2  0  0  0  0
 15 26  1  0  0  0  0
 16 25  1  0  0  0  0
 16 28  2  0  0  0  0
 17 30  2  0  0  0  0
 17 31  1  0  0  0  0
 18 32  1  0  0  0  0
 19 35  1  0  0  0  0
 20 26  2  0  0  0  0
 20 34  1  0  0  0  0
 21 32  1  0  0  0  0
 21 33  2  0  0  0  0
 21 36  1  0  0  0  0
 22 24  2  0  0  0  0
 22 42  1  0  0  0  0
 23 25  2  0  0  0  0
 23 43  1  0  0  0  0
 24 51  1  0  0  0  0
 25 44  1  0  0  0  0
 26 61  1  0  0  0  0
 27 83  1  0  0  0  0
 28 84  1  0  0  0  0
 29 31  2  0  0  0  0
 29 83  1  0  0  0  0
 30 85  1  0  0  0  0
 31 86  1  0  0  0  0
 32 66  2  0  0  0  0
 33 69  1  0  0  0  0
 33 72  1  0  0  0  0
 34 67  2  0  0  0  0
 35 37  1  0  0  0  0
 35 68  2  0  0  0  0
 36 73  1  0  0  0  0
 36 77  2  0  0  0  0
 37 62  1  0  0  0  0
 37 78  2  0  0  0  0
 38 52  1  0  0  0  0
 38 74  1  0  0  0  0
 38 79  2  0  0  0  0
 39 63  1  0  0  0  0
 39 70  1  0  0  0  0
 39 80  2  0  0  0  0
 40 64  1  0  0  0  0
 40 75  1  0  0  0  0
 40 81  2  0  0  0  0
 41 67  1  0  0  0  0
 41 71  1  0  0  0  0
 41 82  2  0  0  0  0
 42 45  1  0  0  0  0
 43 52  1  0  0  0  0
 44 70  1  0  0  0  0
 45 47  1  0  0  0  0
 46 48  1  0  0  0  0
 46 49  1  0  0  0  0
 47 51  1  0  0  0  0
 48 53  1  0  0  0  0
 49 71  1  0  0  0  0
 50 53  1  0  0  0  0
 50 71  1  0  0  0  0
 51 74  1  0  0  0  0
 52 70  1  0  0  0  0
 53 69  1  0  0  0  0
 54 61  1  0  0  0  0
 55 64  1  0  0  0  0
 56 65  1  0  0  0  0
 57 65  1  0  0  0  0
 58 65  1  0  0  0  0
 59 68  1  0  0  0  0
 60 76  1  0  0  0  0
 62 84  1  0  0  0  0
 63 65  1  0  0  0  0
 63 75  1  0  0  0  0
 64 76  1  0  0  0  0
 66 69  1  0  0  0  0
M  CHG  1  76   1
M  ISO  4  41 100  62 101  67 100  84 101
M  END
> <Batch ID>
0165

> <Smiles>
CCc1cc(C(=NC)C(=O)[101CH2:1][101O:1]c2ccc3c(c2)CN(C(=O)C(NC(=O)C(C)NC)C(C)(C)C)C(C(=O)NC2CCCc4ccccc42)C3)ccc1C=[100N:0][100C:0](=O)N1CCCC(n2nc(-c3ccc(Oc4ccc(F)cc4F)cc3)c(C(N)=O)c2N)C1

> <Shape>
0.224

> <Color>
0.077

> <Negative vol penalty>
0.000

$$$$

  -OEChem-04052304053D

 86 94  0     1  0  0  0  0  0999 V2000
  -28.0525  -12.1806   23.4162 C   0  0  0  0  0  0  0  0  0  0  0  0
  -28.4932  -13.3386   22.7837 C   0  0  0  0  0  0  0  0  0  0  0  0
  -19.5167  -27.8290   23.4738 C   0  0  0  0  0  0  0  0  0  0  0  0
  -20.6576  -26.7544   21.6352 C   0  0  0  0  0  0  0  0  0  0  0  0
  -26.8876  -11.5501   22.9809 C   0  0  0  0  0  0  0  0  0  0  0  0
  -27.7699  -13.8663   21.7147 C   0  0  0  0  0  0  0  0  0  0  0  0
  -27.2009  -18.8875   22.0443 C   0  0  0  0  0  0  0  0  0  0  0  0
  -29.6270  -30.5027   20.9226 C   0  0  0  0  0  0  0  0  0  0  0  0
  -18.2926  -27.6109   22.8417 C   0  0  0  0  0  0  0  0  0  0  0  0
  -19.4334  -26.5362   21.0031 C   0  0  0  0  0  0  0  0  0  0  0  0
  -28.2927  -19.6769   21.6858 C   0  0  0  0  0  0  0  0  0  0  0  0
  -16.8535  -24.3680   21.2551 C   0  0  0  0  0  0  0  0  0  0  0  0
  -30.8187  -29.9772   20.4233 C   0  0  0  0  0  0  0  0  0  0  0  0
  -16.6263  -23.1072   20.7035 C   0  0  0  0  0  0  0  0  0  0  0  0
  -27.2882  -20.0762   19.5292 C   0  0  0  0  0  0  0  0  0  0  0  0
  -16.3523  -24.1105   18.5228 C   0  0  0  0  0  0  0  0  0  0  0  0
  -20.6992  -27.4008   22.8705 C   0  0  0  0  0  0  0  0  0  0  0  0
  -22.6181  -26.7700   24.4286 C   0  0  0  0  0  0  0  0  0  0  0  0
  -26.1443  -12.0757   21.9123 C   0  0  0  0  0  0  0  0  0  0  0  0
  -26.1478  -18.6773   21.1424 C   0  0  0  0  0  0  0  0  0  0  0  0
  -26.5947  -13.2416   21.2638 C   0  0  0  0  0  0  0  0  0  0  0  0
  -26.1829  -19.2858   19.8796 C   0  0  0  0  0  0  0  0  0  0  0  0
  -29.5652  -28.3836   19.1094 C   0  0  0  0  0  0  0  0  0  0  0  0
  -28.4044  -29.9687   20.5154 C   0  0  0  0  0  0  0  0  0  0  0  0
  -18.2509  -26.9644   21.6064 C   0  0  0  0  0  0  0  0  0  0  0  0
  -28.3378  -20.2691   20.4270 C   0  0  0  0  0  0  0  0  0  0  0  0
  -16.8300  -25.5002   20.4405 C   0  0  0  0  0  0  0  0  0  0  0  0
  -16.3757  -22.9784   19.3374 C   0  0  0  0  0  0  0  0  0  0  0  0
  -30.7878  -28.9176   19.5167 C   0  0  0  0  0  0  0  0  0  0  0  0
  -16.5795  -25.3714   19.0744 C   0  0  0  0  0  0  0  0  0  0  0  0
  -28.3736  -28.9091   19.6088 C   0  0  0  0  0  0  0  0  0  0  0  0
  -21.9641  -27.6264   23.5226 C   0  0  0  0  0  0  0  0  0  0  0  0
  -23.7743  -27.4352   24.7562 C   0  0  0  0  0  0  0  0  0  0  0  0
  -22.2164  -25.4880   24.9293 C   0  0  0  0  0  0  0  0  0  0  0  0
  -24.8992  -16.1314   19.7060 C   0  0  0  0  0  0  0  0  0  0  0  0
  -22.6948  -18.2775   18.6778 C   0  0  0  0  0  0  0  0  0  0  0  0
  -30.2070  -25.1767   19.3273 C   0  0  0  0  0  0  0  0  0  0  0  0
  -21.9193  -21.5278   17.9842 C   0  0  0  0  0  0  0  0  0  0  0  0
  -27.0540  -31.5549   21.9319 C   0  0  0  0  0  0  0  0  0  0  0  0
  -24.9172  -11.3328   21.4467 C   0  0  0  0  0  0  0  0  0  0  0  0
  -24.9647  -17.8449   21.5542 C   0  0  0  0  0  0  0  0  0  0  0  0
  -25.0684  -19.1079   18.8824 C   0  0  0  0  0  0  0  0  0  0  0  0
  -24.0053  -12.1650   20.5489 C   0  0  0  0  0  0  0  0  0  0  0  0
  -25.5660  -31.8587   25.1523 C   0  0  0  0  0  0  0  0  0  0  0  0
  -24.8216  -12.8871   19.4816 C   0  0  0  0  0  0  0  0  0  0  0  0
  -24.5372  -30.7261   25.1846 C   0  0  0  0  0  0  0  0  0  0  0  0
  -25.6663  -32.4943   23.7668 C   0  0  0  0  0  0  0  0  0  0  0  0
  -24.8777  -30.4188   22.6993 C   0  0  0  0  0  0  0  0  0  0  0  0
  -25.8239  -13.8584   20.1168 C   0  0  1  0  0  0  0  0  0  0  0  0
  -24.1902  -17.2791   20.3678 C   0  0  1  0  0  0  0  0  0  0  0  0
  -24.7879  -29.7047   24.0579 C   0  0  2  0  0  0  0  0  0  0  0  0
  -20.5014  -23.4995   17.3521 C   0  0  0  0  0  0  0  0  0  0  0  0
  -23.2742  -17.3237   15.8380 C   0  0  0  0  0  0  0  0  0  0  0  0
  -22.1364  -19.3855   14.9880 C   0  0  0  0  0  0  0  0  0  0  0  0
  -20.8548  -17.7201   16.3321 C   0  0  0  0  0  0  0  0  0  0  0  0
  -21.1125  -21.9952   20.7930 C   0  0  0  0  0  0  0  0  0  0  0  0
  -29.5324  -27.2428   18.1337 C   0  0  0  0  0  0  0  0  0  0  0  0
  -29.6159  -23.9212   19.9433 C   0  0  0  0  0  0  0  0  0  0  0  0
  -30.6792  -23.0142   20.5519 C   0  0  0  0  0  0  0  0  0  0  0  0
  -30.0728  -21.7400   21.1215 C   0  0  0  0  0  0  0  0  0  1  0  0
  -22.5654  -19.1864   17.4794 C   0  0  1  0  0  0  0  0  0  0  0  0
  -20.7183  -22.3784   18.3565 C   0  0  2  0  0  0  0  0  0  0  0  0
  -22.2298  -18.4059   16.1772 C   0  0  0  0  0  0  0  0  0  0  0  0
  -22.6480  -28.7498   23.2897 N   0  0  0  0  0  0  0  0  0  0  0  0
  -23.7436  -28.6040   24.0541 N   0  0  0  0  0  0  0  0  0  0  0  0
  -23.9361  -18.2799   19.3296 N   0  0  0  0  0  0  0  0  0  0  0  0
  -25.9085  -31.4674   22.7511 N   0  0  0  0  0  0  0  0  0  0  0  0
  -24.8040  -27.1284   25.5735 N   0  0  0  0  0  0  0  0  0  0  0  0
  -20.9992  -24.9503   24.4892 N   0  0  0  0  0  0  0  0  0  0  0  0
  -27.1961  -30.5048   21.0254 N   0  0  0  0  0  0  0  0  0  0  0  0
  -25.1534  -15.0660   20.5485 N   0  0  0  0  0  0  0  0  0  0  0  0
  -29.2247  -25.9886   18.7792 N   0  0  0  0  0  0  0  0  0  0  0  0
  -21.5793  -20.1993   17.8399 N   0  0  0  0  0  0  0  0  0  0  0  0
  -20.9112  -22.9853   19.7039 N   0  3  0  0  0  0  0  0  0  0  0  0
  -22.9083  -24.8458   25.7554 O   0  0  0  0  0  0  0  0  0  0  0  0
  -25.1925  -16.2064   18.5186 O   0  0  0  0  0  0  0  0  0  0  0  0
  -21.7277  -17.5961   19.0272 O   0  0  0  0  0  0  0  0  0  0  0  0
  -31.4096  -25.4255   19.3252 O   0  0  0  0  0  0  0  0  0  0  0  0
  -23.0456  -21.9957   17.8325 O   0  0  0  0  0  0  0  0  0  0  0  0
  -27.8645  -32.4779   22.0461 O   0  0  0  0  0  0  0  0  0  0  0  0
  -17.0566  -26.7512   20.9895 O   0  0  0  0  0  0  0  0  0  0  0  0
  -29.4027  -21.0395   20.0743 O   0  0  0  0  0  0  0  0  0  1  0  0
  -16.1591  -21.7674   18.8076 F   0  0  0  0  0  0  0  0  0  0  0  0
  -31.9380  -28.4207   19.0409 F   0  0  0  0  0  0  0  0  0  0  0  0
  -16.5569  -26.4552   18.2866 F   0  0  0  0  0  0  0  0  0  0  0  0
  -27.1984  -28.3939   19.2167 F   0  0  0  0  0  0  0  0  0  0  0  0
  1  2  1  0  0  0  0
  1  5  2  0  0  0  0
  2  6  2  0  0  0  0
  3  9  2  0  0  0  0
  3 17  1  0  0  0  0
  4 10  1  0  0  0  0
  4 17  2  0  0  0  0
  5 19  1  0  0  0  0
  6 21  1  0  0  0  0
  7 11  2  0  0  0  0
  7 20  1  0  0  0  0
  8 13  1  0  0  0  0
  8 24  2  0  0  0  0
  9 25  1  0  0  0  0
 10 25  2  0  0  0  0
 11 26  1  0  0  0  0
 12 14  2  0  0  0  0
 12 27  1  0  0  0  0
 13 29  2  0  0  0  0
 14 28  1  0  0  0  0
 15 22  1  0  0  0  0
 15 26  2  0  0  0  0
 16 28  2  0  0  0  0
 16 30  1  0  0  0  0
 17 32  1  0  0  0  0
 18 32  1  0  0  0  0
 18 33  2  0  0  0  0
 18 34  1  0  0  0  0
 19 21  2  0  0  0  0
 19 40  1  0  0  0  0
 20 22  2  0  0  0  0
 20 41  1  0  0  0  0
 21 49  1  0  0  0  0
 22 42  1  0  0  0  0
 23 29  1  0  0  0  0
 23 31  2  0  0  0  0
 23 57  1  0  0  0  0
 24 31  1  0  0  0  0
 24 70  1  0  0  0  0
 25 81  1  0  0  0  0
 26 82  1  0  0  0  0
 27 30  2  0  0  0  0
 27 81  1  0  0  0  0
 28 83  1  0  0  0  0
 29 84  1  0  0  0  0
 30 85  1  0  0  0  0
 31 86  1  0  0  0  0
 32 64  2  0  0  0  0
 33 65  1  0  0  0  0
 33 68  1  0  0  0  0
 34 69  1  0  0  0  0
 34 75  2  0  0  0  0
 35 50  1  0  0  0  0
 35 71  1  0  0  0  0
 35 76  2  0  0  0  0
 36 61  1  0  0  0  0
 36 66  1  0  0  0  0
 36 77  2  0  0  0  0
 37 58  1  0  0  0  0
 37 72  1  0  0  0  0
 37 78  2  0  0  0  0
 38 62  1  0  0  0  0
 38 73  1  0  0  0  0
 38 79  2  0  0  0  0
 39 67  1  0  0  0  0
 39 70  1  0  0  0  0
 39 80  2  0  0  0  0
 40 43  1  0  0  0  0
 41 50  1  0  0  0  0
 42 66  1  0  0  0  0
 43 45  1  0  0  0  0
 44 46  1  0  0  0  0
 44 47  1  0  0  0  0
 45 49  1  0  0  0  0
 46 51  1  0  0  0  0
 47 67  1  0  0  0  0
 48 51  1  0  0  0  0
 48 67  1  0  0  0  0
 49 71  1  0  0  0  0
 50 66  1  0  0  0  0
 51 65  1  0  0  0  0
 52 62  1  0  0  0  0
 53 63  1  0  0  0  0
 54 63  1  0  0  0  0
 55 63  1  0  0  0  0
 56 74  1  0  0  0  0
 57 72  1  0  0  0  0
 58 59  1  0  0  0  0
 59 60  1  0  0  0  0
 60 82  1  0  0  0  0
 61 63  1  0  0  0  0
 61 73  1  0  0  0  0
 62 74  1  0  0  0  0
 64 65  1  0  0  0  0
M  CHG  1  74   1
M  ISO  4  39 100  60 101  70 100  82 101
M  END
> <Batch ID>
0165

> <Smiles>
CNC(C)C(=O)NC(C(=O)N1Cc2cc([101O:1][101CH2:1]CCC(=O)NCc3c(F)ccc([100NH:0][100C:0](=O)N4CCCC(n5nc(-c6ccc(Oc7ccc(F)cc7F)cc6)c(C(N)=O)c5N)C4)c3F)ccc2CC1C(=O)NC1CCCc2ccccc21)C(C)(C)C

> <Shape>
0.208

> <Color>
0.087

> <Negative vol penalty>
0.000

$$$$

  -OEChem-04052304053D

 87 96  0     1  0  0  0  0  0999 V2000
  -29.3771  -34.3505   13.3513 C   0  0  0  0  0  0  0  0  0  0  0  0
  -29.8025  -33.1842   13.9791 C   0  0  0  0  0  0  0  0  0  0  0  0
  -23.0579   -9.9278   19.8878 C   0  0  0  0  0  0  0  0  0  0  0  0
  -23.9372   -9.7423   22.1304 C   0  0  0  0  0  0  0  0  0  0  0  0
  -28.6464  -35.2988   14.0661 C   0  0  0  0  0  0  0  0  0  0  0  0
  -29.4984  -32.9659   15.3223 C   0  0  0  0  0  0  0  0  0  0  0  0
  -28.2676  -27.5936   17.9924 C   0  0  0  0  0  0  0  0  0  0  0  0
  -22.3493   -8.7398   20.0673 C   0  0  0  0  0  0  0  0  0  0  0  0
  -23.2286   -8.5543   22.3099 C   0  0  0  0  0  0  0  0  0  0  0  0
  -29.0517  -26.7166   18.7406 C   0  0  0  0  0  0  0  0  0  0  0  0
  -19.4965   -7.7462   21.5863 C   0  0  0  0  0  0  0  0  0  0  0  0
  -18.1670   -7.7146   21.1658 C   0  0  0  0  0  0  0  0  0  0  0  0
  -28.2151  -27.7117   20.7726 C   0  0  0  0  0  0  0  0  0  0  0  0
  -30.5929  -19.2968   20.6959 C   0  0  0  0  0  0  0  0  0  0  0  0
  -18.6915   -5.9141   19.6426 C   0  0  0  0  0  0  0  0  0  0  0  0
  -23.8519  -10.4290   20.9193 C   0  0  0  0  0  0  0  0  0  0  0  0
  -24.1409  -12.9617   21.0165 C   0  0  0  0  0  0  0  0  0  0  0  0
  -28.3249  -35.0876   15.4161 C   0  0  0  0  0  0  0  0  0  0  0  0
  -27.4583  -28.5452   18.6296 C   0  0  0  0  0  0  0  0  0  0  0  0
  -28.7639  -33.9129   16.0561 C   0  0  0  0  0  0  0  0  0  0  0  0
  -27.4197  -28.5980   20.0303 C   0  0  0  0  0  0  0  0  0  0  0  0
  -30.1874  -19.1553   23.0734 C   0  0  0  0  0  0  0  0  0  0  0  0
  -30.0417  -17.7722   22.9663 C   0  0  0  0  0  0  0  0  0  0  0  0
  -30.4630  -19.9176   21.9382 C   0  0  0  0  0  0  0  0  0  0  0  0
  -30.1715  -17.1514   21.7239 C   0  0  0  0  0  0  0  0  0  0  0  0
  -22.4346   -8.0531   21.2784 C   0  0  0  0  0  0  0  0  0  0  0  0
  -29.0277  -26.7775   20.1309 C   0  0  0  0  0  0  0  0  0  0  0  0
  -20.4236   -6.8618   21.0349 C   0  0  0  0  0  0  0  0  0  0  0  0
  -17.7644   -6.7986   20.1939 C   0  0  0  0  0  0  0  0  0  0  0  0
  -30.4470  -17.9136   20.5887 C   0  0  0  0  0  0  0  0  0  0  0  0
  -20.0211   -5.9458   20.0631 C   0  0  0  0  0  0  0  0  0  0  0  0
  -24.5845  -11.6558   20.7343 C   0  0  0  0  0  0  0  0  0  0  0  0
  -25.1986  -13.7662   20.6692 C   0  0  0  0  0  0  0  0  0  0  0  0
  -22.8851  -13.4077   21.5453 C   0  0  0  0  0  0  0  0  0  0  0  0
  -27.3328  -31.7211   18.6641 C   0  0  0  0  0  0  0  0  0  0  0  0
  -30.2111  -23.5928   21.3812 C   0  0  0  0  0  0  0  0  0  0  0  0
  -24.6500  -31.2076   20.4137 C   0  0  0  0  0  0  0  0  0  0  0  0
  -22.8804  -29.1287   22.4615 C   0  0  0  0  0  0  0  0  0  0  0  0
  -30.6465  -14.9167   20.6624 C   0  0  0  0  0  0  0  0  0  0  0  0
  -27.5735  -36.1630   16.1602 C   0  0  0  0  0  0  0  0  0  0  0  0
  -26.5981  -29.4663   17.8087 C   0  0  0  0  0  0  0  0  0  0  0  0
  -26.5524  -29.5876   20.7630 C   0  0  0  0  0  0  0  0  0  0  0  0
  -26.9711  -35.6841   17.4786 C   0  0  0  0  0  0  0  0  0  0  0  0
  -29.4530  -12.7048   18.1404 C   0  0  0  0  0  0  0  0  0  0  0  0
  -28.7882  -19.6027   25.1985 C   0  0  0  0  0  0  0  0  0  0  0  0
  -29.0493  -20.9331   24.5642 C   0  0  0  0  0  0  0  0  0  0  0  0
  -27.9962  -34.8818   18.2737 C   0  0  0  0  0  0  0  0  0  0  0  0
  -28.0435  -12.3422   18.6136 C   0  0  0  0  0  0  0  0  0  0  0  0
  -30.4258  -12.8436   19.3101 C   0  0  0  0  0  0  0  0  0  0  0  0
  -28.5814  -13.3946   20.8475 C   0  0  0  0  0  0  0  0  0  0  0  0
  -30.0481  -19.8202   24.4073 C   0  0  0  0  0  0  0  0  0  0  0  0
  -28.4324  -33.6286   17.5051 C   0  0  1  0  0  0  0  0  0  0  0  0
  -26.2026  -30.7372   18.5542 C   0  0  1  0  0  0  0  0  0  0  0  0
  -27.5512  -13.3076   19.7095 C   0  0  2  0  0  0  0  0  0  0  0  0
  -29.7456  -16.9545   24.1854 C   0  0  0  0  0  0  0  0  0  0  0  0
  -20.7387  -29.0000   23.7630 C   0  0  0  0  0  0  0  0  0  0  0  0
  -25.8324  -33.0524   22.5371 C   0  0  0  0  0  0  0  0  0  0  0  0
  -24.1531  -32.1475   24.1586 C   0  0  0  0  0  0  0  0  0  0  0  0
  -23.3865  -33.3702   22.1240 C   0  0  0  0  0  0  0  0  0  0  0  0
  -21.9431  -26.7887   20.9107 C   0  0  0  0  0  0  0  0  0  0  0  0
  -30.4842  -22.1848   20.8966 C   0  0  0  0  0  0  0  0  0  0  0  0
  -30.0596  -24.6411   20.2962 C   0  0  0  0  0  0  0  0  0  1  0  0
  -24.3473  -31.0440   21.8836 C   0  0  1  0  0  0  0  0  0  0  0  0
  -21.4262  -28.6934   22.4416 C   0  0  2  0  0  0  0  0  0  0  0  0
  -24.4478  -32.3861   22.6623 C   0  0  0  0  0  0  0  0  0  0  0  0
  -25.8271  -11.6277   20.2453 N   0  0  0  0  0  0  0  0  0  0  0  0
  -26.1734  -12.9260   20.2174 N   0  0  0  0  0  0  0  0  0  0  0  0
  -25.7343  -30.4711   19.9159 N   0  0  0  0  0  0  0  0  0  0  0  0
  -29.8952  -13.7767   20.3064 N   0  0  0  0  0  0  0  0  0  0  0  0
  -25.3806  -15.1032   20.7092 N   0  0  0  0  0  0  0  0  0  0  0  0
  -21.9090  -12.4485   21.8478 N   0  0  0  0  0  0  0  0  0  0  0  0
  -30.0264  -15.7478   21.5948 N   0  0  0  0  0  0  0  0  0  0  0  0
  -30.6123  -21.2945   22.0218 N   0  0  0  0  0  0  0  0  0  0  0  0
  -27.4198  -32.5991   17.6006 N   0  0  0  0  0  0  0  0  0  0  0  0
  -23.0386  -30.4042   21.9622 N   0  0  0  0  0  0  0  0  0  0  0  0
  -21.3276  -27.2279   22.1895 N   0  3  0  0  0  0  0  0  0  0  0  0
  -22.6298  -14.6221   21.7283 O   0  0  0  0  0  0  0  0  0  0  0  0
  -28.0704  -31.6873   19.6421 O   0  0  0  0  0  0  0  0  0  0  0  0
  -30.1167  -23.8792   22.5741 O   0  0  0  0  0  0  0  0  0  0  0  0
  -23.9459  -31.9556   19.7309 O   0  0  0  0  0  0  0  0  0  0  0  0
  -23.7850  -28.4105   22.8816 O   0  0  0  0  0  0  0  0  0  0  0  0
  -31.7461  -15.1534   20.1557 O   0  0  0  0  0  0  0  0  0  0  0  0
  -21.7431   -6.8940   21.4540 O   0  0  0  0  0  0  0  0  0  0  0  0
  -29.7926  -25.9230   20.8635 O   0  0  0  0  0  0  0  0  0  1  0  0
  -16.4873   -6.7673   19.7914 F   0  0  0  0  0  0  0  0  0  0  0  0
  -30.5737  -17.3286   19.3891 F   0  0  0  0  0  0  0  0  0  0  0  0
  -20.9070   -5.0929   19.5305 F   0  0  0  0  0  0  0  0  0  0  0  0
  1  2  1  0  0  0  0
  1  5  2  0  0  0  0
  2  6  2  0  0  0  0
  3  8  2  0  0  0  0
  3 16  1  0  0  0  0
  4  9  1  0  0  0  0
  4 16  2  0  0  0  0
  5 18  1  0  0  0  0
  6 20  1  0  0  0  0
  7 10  2  0  0  0  0
  7 19  1  0  0  0  0
  8 26  1  0  0  0  0
  9 26  2  0  0  0  0
 10 27  1  0  0  0  0
 11 12  2  0  0  0  0
 11 28  1  0  0  0  0
 12 29  1  0  0  0  0
 13 21  1  0  0  0  0
 13 27  2  0  0  0  0
 14 24  1  0  0  0  0
 14 30  2  0  0  0  0
 15 29  2  0  0  0  0
 15 31  1  0  0  0  0
 16 32  1  0  0  0  0
 17 32  1  0  0  0  0
 17 33  2  0  0  0  0
 17 34  1  0  0  0  0
 18 20  2  0  0  0  0
 18 40  1  0  0  0  0
 19 21  2  0  0  0  0
 19 41  1  0  0  0  0
 20 52  1  0  0  0  0
 21 42  1  0  0  0  0
 22 23  1  0  0  0  0
 22 24  2  0  0  0  0
 22 51  1  0  0  0  0
 23 25  2  0  0  0  0
 23 55  1  0  0  0  0
 24 73  1  0  0  0  0
 25 30  1  0  0  0  0
 25 72  1  0  0  0  0
 26 83  1  0  0  0  0
 27 84  1  0  0  0  0
 28 31  2  0  0  0  0
 28 83  1  0  0  0  0
 29 85  1  0  0  0  0
 30 86  1  0  0  0  0
 31 87  1  0  0  0  0
 32 66  2  0  0  0  0
 33 67  1  0  0  0  0
 33 70  1  0  0  0  0
 34 71  1  0  0  0  0
 34 77  2  0  0  0  0
 35 53  1  0  0  0  0
 35 74  1  0  0  0  0
 35 78  2  0  0  0  0
 36 61  1  0  0  0  0
 36 62  1  0  0  0  0
 36 79  2  0  0  0  0
 37 63  1  0  0  0  0
 37 68  1  0  0  0  0
 37 80  2  0  0  0  0
 38 64  1  0  0  0  0
 38 75  1  0  0  0  0
 38 81  2  0  0  0  0
 39 69  1  0  0  0  0
 39 72  1  0  0  0  0
 39 82  2  0  0  0  0
 40 43  1  0  0  0  0
 41 53  1  0  0  0  0
 42 68  1  0  0  0  0
 43 47  1  0  0  0  0
 44 48  1  0  0  0  0
 44 49  1  0  0  0  0
 45 46  1  0  0  0  0
 45 51  1  0  0  0  0
 46 51  1  0  0  0  0
 47 52  1  0  0  0  0
 48 54  1  0  0  0  0
 49 69  1  0  0  0  0
 50 54  1  0  0  0  0
 50 69  1  0  0  0  0
 52 74  1  0  0  0  0
 53 68  1  0  0  0  0
 54 67  1  0  0  0  0
 56 64  1  0  0  0  0
 57 65  1  0  0  0  0
 58 65  1  0  0  0  0
 59 65  1  0  0  0  0
 60 76  1  0  0  0  0
 61 73  1  0  0  0  0
 62 84  1  0  0  0  0
 63 65  1  0  0  0  0
 63 75  1  0  0  0  0
 64 76  1  0  0  0  0
 66 67  1  0  0  0  0
M  CHG  1  76   1
M  ISO  4  39 100  62 101  72 100  84 101
M  END
> <Batch ID>
0165

> <Smiles>
CNC(C)C(=O)NC(C(=O)N1Cc2cc([101O:1][101CH2:1]C(=O)CNc3cc(F)c([100NH:0][100C:0](=O)N4CCCC(n5nc(-c6ccc(Oc7ccc(F)cc7F)cc6)c(C(N)=O)c5N)C4)c(C)c3C3CC3)ccc2CC1C(=O)NC1CCCc2ccccc21)C(C)(C)C

> <Shape>
0.297

> <Color>
0.199

> <Negative vol penalty>
0.000

$$$$

  -OEChem-04052304053D

 89 97  0     1  0  0  0  0  0999 V2000
  -30.7777  -31.6383   25.1684 C   0  0  0  0  0  0  0  0  0  0  0  0
  -30.2324  -30.5187   24.5483 C   0  0  0  0  0  0  0  0  0  0  0  0
  -23.9696  -10.7598   23.4265 C   0  0  0  0  0  0  0  0  0  0  0  0
  -24.0674  -13.0370   24.2276 C   0  0  0  0  0  0  0  0  0  0  0  0
  -29.9409  -32.5785   25.7680 C   0  0  0  0  0  0  0  0  0  0  0  0
  -28.8499  -30.3382   24.5283 C   0  0  0  0  0  0  0  0  0  0  0  0
  -27.1434  -28.9046   19.9810 C   0  0  0  0  0  0  0  0  0  0  0  0
  -23.4509  -10.3500   24.6548 C   0  0  0  0  0  0  0  0  0  0  0  0
  -23.5487  -12.6273   25.4559 C   0  0  0  0  0  0  0  0  0  0  0  0
  -27.3159  -27.5667   19.6290 C   0  0  0  0  0  0  0  0  0  0  0  0
  -20.4635  -10.3969   26.2377 C   0  0  0  0  0  0  0  0  0  0  0  0
  -19.3758   -9.5238   26.2233 C   0  0  0  0  0  0  0  0  0  0  0  0
  -25.0201  -27.1212   20.2207 C   0  0  0  0  0  0  0  0  0  0  0  0
  -29.6164  -19.2360   20.9762 C   0  0  0  0  0  0  0  0  0  0  0  0
  -28.7165  -20.2281   22.9869 C   0  0  0  0  0  0  0  0  0  0  0  0
  -20.6721   -7.8888   27.4413 C   0  0  0  0  0  0  0  0  0  0  0  0
  -24.2779  -12.1033   23.2129 C   0  0  0  0  0  0  0  0  0  0  0  0
  -24.0901  -12.9555   20.8158 C   0  0  0  0  0  0  0  0  0  0  0  0
  -28.5469  -32.4144   25.7470 C   0  0  0  0  0  0  0  0  0  0  0  0
  -25.9090  -29.3594   20.4667 C   0  0  0  0  0  0  0  0  0  0  0  0
  -27.9937  -31.2765   25.1293 C   0  0  0  0  0  0  0  0  0  0  0  0
  -24.8338  -28.4660   20.5758 C   0  0  0  0  0  0  0  0  0  0  0  0
  -30.2089  -18.2291   21.7381 C   0  0  0  0  0  0  0  0  0  0  0  0
  -30.0551  -18.2215   23.1245 C   0  0  0  0  0  0  0  0  0  0  0  0
  -28.8703  -20.2356   21.6005 C   0  0  0  0  0  0  0  0  0  0  0  0
  -29.3089  -19.2211   23.7489 C   0  0  0  0  0  0  0  0  0  0  0  0
  -23.2405  -11.2837   25.6695 C   0  0  0  0  0  0  0  0  0  0  0  0
  -26.2550  -26.6741   19.7515 C   0  0  0  0  0  0  0  0  0  0  0  0
  -21.6555  -10.0160   26.8539 C   0  0  0  0  0  0  0  0  0  0  0  0
  -19.4801   -8.2698   26.8251 C   0  0  0  0  0  0  0  0  0  0  0  0
  -21.7598   -8.7619   27.4557 C   0  0  0  0  0  0  0  0  0  0  0  0
  -24.8142  -12.5272   21.9445 C   0  0  0  0  0  0  0  0  0  0  0  0
  -25.0527  -13.2444   19.8796 C   0  0  0  0  0  0  0  0  0  0  0  0
  -26.8417  -24.4977   20.3757 C   0  0  0  0  0  0  0  0  0  1  0  0
  -22.6740  -13.0812   20.6302 C   0  0  0  0  0  0  0  0  0  0  0  0
  -27.0377  -23.1929   20.1504 C   0  0  0  0  0  0  0  0  0  0  0  0
  -27.4999  -22.3211   21.2793 C   0  0  0  0  0  0  0  0  0  0  0  0
  -24.9090  -30.6489   23.1945 C   0  0  0  0  0  0  0  0  0  0  0  0
  -22.1224  -30.9751   21.5663 C   0  0  0  0  0  0  0  0  0  0  0  0
  -20.1149  -29.9160   19.0177 C   0  0  0  0  0  0  0  0  0  0  0  0
  -30.8164  -14.8093   20.3069 C   0  0  0  0  0  0  0  0  0  0  0  0
  -27.6852  -33.4334   26.4496 C   0  0  0  0  0  0  0  0  0  0  0  0
  -25.7314  -30.8114   20.8168 C   0  0  0  0  0  0  0  0  0  0  0  0
  -23.4825  -28.9083   21.0727 C   0  0  0  0  0  0  0  0  0  0  0  0
  -26.2117  -33.3589   26.0581 C   0  0  0  0  0  0  0  0  0  0  0  0
  -29.4823  -12.0086   18.5595 C   0  0  0  0  0  0  0  0  0  0  0  0
  -25.7264  -31.9129   26.0782 C   0  0  0  0  0  0  0  0  0  0  0  0
  -28.0693  -11.8626   19.1271 C   0  0  0  0  0  0  0  0  0  0  0  0
  -30.4776  -12.4506   19.6301 C   0  0  0  0  0  0  0  0  0  0  0  0
  -28.6823  -13.5246   20.9328 C   0  0  0  0  0  0  0  0  0  0  0  0
  -26.4976  -31.0581   25.0652 C   0  0  1  0  0  0  0  0  0  0  0  0
  -24.5790  -31.0556   21.7862 C   0  0  1  0  0  0  0  0  0  0  0  0
  -27.6325  -13.1347   19.8782 C   0  0  2  0  0  0  0  0  0  0  0  0
  -31.9541  -17.6195   24.6468 C   0  0  0  0  0  0  0  0  0  0  0  0
  -28.3850  -19.9962   27.3063 C   0  0  0  0  0  0  0  0  0  0  0  0
  -17.8813  -30.3495   17.9591 C   0  0  0  0  0  0  0  0  0  0  0  0
  -20.7505  -29.5207   23.8711 C   0  0  0  0  0  0  0  0  0  0  0  0
  -18.7816  -29.1458   22.3708 C   0  0  0  0  0  0  0  0  0  0  0  0
  -19.4742  -31.4688   22.9597 C   0  0  0  0  0  0  0  0  0  0  0  0
  -21.3526  -30.6395   16.4286 C   0  0  0  0  0  0  0  0  0  0  0  0
  -30.6923  -17.1395   23.9386 C   0  0  0  0  0  0  0  0  0  0  0  0
  -31.0038  -17.1713   21.0450 C   0  0  0  0  0  0  0  0  0  0  0  0
  -28.3863  -20.2333   25.8345 C   0  0  0  0  0  0  0  0  0  0  0  0
  -20.8960  -30.1185   21.3637 C   0  0  1  0  0  0  0  0  0  0  0  0
  -19.3655  -30.6806   17.9415 C   0  0  2  0  0  0  0  0  0  0  0  0
  -20.0015  -30.0544   22.6338 C   0  0  0  0  0  0  0  0  0  0  0  0
  -26.1349  -12.5409   21.7456 N   0  0  0  0  0  0  0  0  0  0  0  0
  -26.2483  -12.9814   20.4810 N   0  0  0  0  0  0  0  0  0  0  0  0
  -23.3606  -30.3365   21.4084 N   0  0  0  0  0  0  0  0  0  0  0  0
  -30.0050  -13.6627   20.3034 N   0  0  0  0  0  0  0  0  0  0  0  0
  -24.9847  -13.6950   18.6089 N   0  0  0  0  0  0  0  0  0  0  0  0
  -21.8279  -12.7423   21.6949 N   0  0  0  0  0  0  0  0  0  0  0  0
  -28.2677  -21.2568   20.8269 N   0  0  0  0  0  0  0  0  0  0  0  0
  -29.1415  -19.2307   25.1513 N   0  0  0  0  0  0  0  0  0  0  0  0
  -26.0076  -31.2979   23.7248 N   0  0  0  0  0  0  0  0  0  0  0  0
  -20.2204  -30.6457   20.1830 N   0  0  0  0  0  0  0  0  0  0  0  0
  -30.2905  -15.9163   20.9616 N   0  0  0  0  0  0  0  0  0  0  0  0
  -19.9064  -30.3429   16.5944 N   0  3  0  0  0  0  0  0  0  0  0  0
  -22.1730  -13.4666   19.5466 O   0  0  0  0  0  0  0  0  0  0  0  0
  -27.1972  -22.5792   22.4393 O   0  0  0  0  0  0  0  0  0  0  0  0
  -24.2171  -29.8094   23.7587 O   0  0  0  0  0  0  0  0  0  0  0  0
  -21.9868  -32.1686   21.8470 O   0  0  0  0  0  0  0  0  0  0  0  0
  -20.5588  -28.7833   18.8435 O   0  0  0  0  0  0  0  0  0  0  0  0
  -31.9248  -14.8455   19.7619 O   0  0  0  0  0  0  0  0  0  0  0  0
  -26.8292  -22.6135   18.9152 O   0  0  0  0  0  0  0  0  0  0  0  0
  -22.7342  -10.8842   26.8680 O   0  0  0  0  0  0  0  0  0  0  0  0
  -26.4209  -25.3675   19.4092 O   0  0  0  0  0  0  0  0  0  1  0  0
  -18.4350   -7.4320   26.8125 F   0  0  0  0  0  0  0  0  0  0  0  0
  -22.9020   -8.3909   28.0503 F   0  0  0  0  0  0  0  0  0  0  0  0
  1  2  1  0  0  0  0
  1  5  2  0  0  0  0
  2  6  2  0  0  0  0
  3  8  2  0  0  0  0
  3 17  1  0  0  0  0
  4  9  1  0  0  0  0
  4 17  2  0  0  0  0
  5 19  1  0  0  0  0
  6 21  1  0  0  0  0
  7 10  2  0  0  0  0
  7 20  1  0  0  0  0
  8 27  1  0  0  0  0
  9 27  2  0  0  0  0
 10 28  1  0  0  0  0
 11 12  2  0  0  0  0
 11 29  1  0  0  0  0
 12 30  1  0  0  0  0
 13 22  1  0  0  0  0
 13 28  2  0  0  0  0
 14 23  2  0  0  0  0
 14 25  1  0  0  0  0
 15 25  2  0  0  0  0
 15 26  1  0  0  0  0
 16 30  2  0  0  0  0
 16 31  1  0  0  0  0
 17 32  1  0  0  0  0
 18 32  1  0  0  0  0
 18 33  2  0  0  0  0
 18 35  1  0  0  0  0
 19 21  2  0  0  0  0
 19 42  1  0  0  0  0
 20 22  2  0  0  0  0
 20 43  1  0  0  0  0
 21 51  1  0  0  0  0
 22 44  1  0  0  0  0
 23 24  1  0  0  0  0
 23 62  1  0  0  0  0
 24 26  2  0  0  0  0
 24 61  1  0  0  0  0
 25 73  1  0  0  0  0
 26 74  1  0  0  0  0
 27 86  1  0  0  0  0
 28 87  1  0  0  0  0
 29 31  2  0  0  0  0
 29 86  1  0  0  0  0
 30 88  1  0  0  0  0
 31 89  1  0  0  0  0
 32 67  2  0  0  0  0
 33 68  1  0  0  0  0
 33 71  1  0  0  0  0
 34 36  2  0  0  0  0
 34 87  1  0  0  0  0
 35 72  1  0  0  0  0
 35 79  2  0  0  0  0
 36 37  1  0  0  0  0
 36 85  1  0  0  0  0
 37 73  1  0  0  0  0
 37 80  2  0  0  0  0
 38 52  1  0  0  0  0
 38 75  1  0  0  0  0
 38 81  2  0  0  0  0
 39 64  1  0  0  0  0
 39 69  1  0  0  0  0
 39 82  2  0  0  0  0
 40 65  1  0  0  0  0
 40 76  1  0  0  0  0
 40 83  2  0  0  0  0
 41 70  1  0  0  0  0
 41 77  1  0  0  0  0
 41 84  2  0  0  0  0
 42 45  1  0  0  0  0
 43 52  1  0  0  0  0
 44 69  1  0  0  0  0
 45 47  1  0  0  0  0
 46 48  1  0  0  0  0
 46 49  1  0  0  0  0
 47 51  1  0  0  0  0
 48 53  1  0  0  0  0
 49 70  1  0  0  0  0
 50 53  1  0  0  0  0
 50 70  1  0  0  0  0
 51 75  1  0  0  0  0
 52 69  1  0  0  0  0
 53 68  1  0  0  0  0
 54 61  1  0  0  0  0
 55 63  1  0  0  0  0
 56 65  1  0  0  0  0
 57 66  1  0  0  0  0
 58 66  1  0  0  0  0
 59 66  1  0  0  0  0
 60 78  1  0  0  0  0
 62 77  1  0  0  0  0
 63 74  1  0  0  0  0
 64 66  1  0  0  0  0
 64 76  1  0  0  0  0
 65 78  1  0  0  0  0
 67 68  1  0  0  0  0
M  CHG  1  78   1
M  ISO  4  34 101  41 100  77 100  87 101
M  END
> <Batch ID>
0165

> <Smiles>
CCNc1cc(NC(=O)C(=O)[101CH2:1][101O:1]c2ccc3c(c2)CN(C(=O)C(NC(=O)C(C)NC)C(C)(C)C)C(C(=O)NC2CCCc4ccccc42)C3)cc(C[100NH:0][100C:0](=O)N2CCCC(n3nc(-c4ccc(Oc5ccc(F)cc5F)cc4)c(C(N)=O)c3N)C2)c1CC

> <Shape>
0.275

> <Color>
0.109

> <Negative vol penalty>
0.000

$$$$

  -OEChem-04052304052D

  0  0  0     0  0  0  0  0  0999 V2000
M  END
$$$$

  -OEChem-04052304053D

 86 94  0     1  0  0  0  0  0999 V2000
  -28.2464  -36.6248   23.9463 C   0  0  0  0  0  0  0  0  0  0  0  0
  -28.5554  -35.2684   23.9464 C   0  0  0  0  0  0  0  0  0  0  0  0
  -23.4035   -9.7330   21.2704 C   0  0  0  0  0  0  0  0  0  0  0  0
  -24.0579  -10.6551   23.4054 C   0  0  0  0  0  0  0  0  0  0  0  0
  -26.9140  -37.0351   23.9622 C   0  0  0  0  0  0  0  0  0  0  0  0
  -27.5320  -34.3214   23.9634 C   0  0  0  0  0  0  0  0  0  0  0  0
  -27.5312  -28.8519   21.2083 C   0  0  0  0  0  0  0  0  0  0  0  0
  -22.7632   -8.6789   21.9218 C   0  0  0  0  0  0  0  0  0  0  0  0
  -23.4175   -9.6010   24.0569 C   0  0  0  0  0  0  0  0  0  0  0  0
  -27.7935  -27.5654   21.6772 C   0  0  0  0  0  0  0  0  0  0  0  0
  -19.8438   -8.1607   23.5473 C   0  0  0  0  0  0  0  0  0  0  0  0
  -18.5699   -7.8037   23.1054 C   0  0  0  0  0  0  0  0  0  0  0  0
  -25.4291  -27.2045   21.9917 C   0  0  0  0  0  0  0  0  0  0  0  0
  -31.3636  -18.1413   20.0774 C   0  0  0  0  0  0  0  0  0  0  0  0
  -30.8687  -20.4697   20.4908 C   0  0  0  0  0  0  0  0  0  0  0  0
  -19.3705   -5.5828   22.5918 C   0  0  0  0  0  0  0  0  0  0  0  0
  -24.0509  -10.7211   22.0122 C   0  0  0  0  0  0  0  0  0  0  0  0
  -29.2318  -18.7740   21.0218 C   0  0  0  0  0  0  0  0  0  0  0  0
  -24.1544  -13.0497   20.9757 C   0  0  0  0  0  0  0  0  0  0  0  0
  -25.8737  -36.0926   23.9697 C   0  0  0  0  0  0  0  0  0  0  0  0
  -26.2145  -29.3291   21.1377 C   0  0  0  0  0  0  0  0  0  0  0  0
  -26.1845  -34.7194   23.9808 C   0  0  0  0  0  0  0  0  0  0  0  0
  -25.1526  -28.4966   21.5191 C   0  0  0  0  0  0  0  0  0  0  0  0
  -30.1074  -17.7870   20.5692 C   0  0  0  0  0  0  0  0  0  0  0  0
  -29.6124  -20.1154   20.9826 C   0  0  0  0  0  0  0  0  0  0  0  0
  -22.7701   -8.6129   23.3151 C   0  0  0  0  0  0  0  0  0  0  0  0
  -26.7426  -26.7425   22.0717 C   0  0  0  0  0  0  0  0  0  0  0  0
  -20.8811   -7.2288   23.5113 C   0  0  0  0  0  0  0  0  0  0  0  0
  -18.3332   -6.5148   22.6276 C   0  0  0  0  0  0  0  0  0  0  0  0
  -31.7443  -19.4827   20.0382 C   0  0  0  0  0  0  0  0  0  0  0  0
  -20.6445   -5.9399   23.0336 C   0  0  0  0  0  0  0  0  0  0  0  0
  -24.7131  -11.8099   21.3398 C   0  0  0  0  0  0  0  0  0  0  0  0
  -25.1847  -13.7256   20.3690 C   0  0  0  0  0  0  0  0  0  0  0  0
  -27.9155  -18.4036   21.5367 C   0  0  0  0  0  0  0  0  0  0  0  0
  -22.8233  -13.5461   21.1688 C   0  0  0  0  0  0  0  0  0  0  0  0
  -24.6194  -31.7202   22.4950 C   0  0  0  0  0  0  0  0  0  0  0  0
  -27.9339  -23.3257   21.9614 C   0  0  0  0  0  0  0  0  0  0  0  0
  -22.2593  -30.7726   20.4813 C   0  0  0  0  0  0  0  0  0  0  0  0
  -20.8795  -28.2779   18.6053 C   0  0  0  0  0  0  0  0  0  0  0  0
  -30.5128  -15.3314   20.1791 C   0  0  0  0  0  0  0  0  0  0  0  0
  -24.4493  -36.5842   24.0345 C   0  0  0  0  0  0  0  0  0  0  0  0
  -25.9464  -30.7097   20.6044 C   0  0  0  0  0  0  0  0  0  0  0  0
  -23.7196  -28.9540   21.4435 C   0  0  0  0  0  0  0  0  0  0  0  0
  -23.4196  -35.5167   23.6734 C   0  0  0  0  0  0  0  0  0  0  0  0
  -29.7396  -12.1178   18.8556 C   0  0  0  0  0  0  0  0  0  0  0  0
  -23.7320  -34.2085   24.3930 C   0  0  0  0  0  0  0  0  0  0  0  0
  -28.3170  -11.8532   19.3540 C   0  0  0  0  0  0  0  0  0  0  0  0
  -30.5749  -12.8636   19.8947 C   0  0  0  0  0  0  0  0  0  0  0  0
  -28.5486  -13.8368   20.9027 C   0  0  0  0  0  0  0  0  0  0  0  0
  -25.1020  -33.6619   23.9740 C   0  0  1  0  0  0  0  0  0  0  0  0
  -24.6049  -31.2760   21.0596 C   0  0  1  0  0  0  0  0  0  0  0  0
  -27.6495  -13.1450   19.8651 C   0  0  2  0  0  0  0  0  0  0  0  0
  -27.8070  -18.1203   23.0037 C   0  0  0  0  0  0  0  0  0  0  0  0
  -18.9311  -27.7927   17.1001 C   0  0  0  0  0  0  0  0  0  0  0  0
  -20.4281  -30.5884   22.9150 C   0  0  0  0  0  0  0  0  0  0  0  0
  -18.8454  -29.2260   21.5340 C   0  0  0  0  0  0  0  0  0  0  0  0
  -19.3624  -31.5771   20.8800 C   0  0  0  0  0  0  0  0  0  0  0  0
  -22.6515  -27.6810   16.3113 C   0  0  0  0  0  0  0  0  0  0  0  0
  -29.0902  -22.5170   21.4128 C   0  0  0  0  0  0  0  0  0  0  0  0
  -28.1493  -24.8259   22.0114 C   0  0  0  0  0  0  0  0  0  1  0  0
  -21.1187  -29.7868   20.5599 C   0  0  1  0  0  0  0  0  0  0  0  0
  -20.3782  -28.2546   17.1726 C   0  0  2  0  0  0  0  0  0  0  0  0
  -19.9657  -30.2864   21.4756 C   0  0  0  0  0  0  0  0  0  0  0  0
  -25.9984  -11.7017   20.9931 N   0  0  0  0  0  0  0  0  0  0  0  0
  -26.2560  -12.8823   20.4048 N   0  0  0  0  0  0  0  0  0  0  0  0
  -23.5093  -30.3144   20.9213 N   0  0  0  0  0  0  0  0  0  0  0  0
  -29.8819  -14.0784   20.3293 N   0  0  0  0  0  0  0  0  0  0  0  0
  -25.2698  -14.9531   19.8136 N   0  0  0  0  0  0  0  0  0  0  0  0
  -21.8892  -12.7214   21.8104 N   0  0  0  0  0  0  0  0  0  0  0  0
  -29.7446  -16.4175   20.5972 N   0  0  0  0  0  0  0  0  0  0  0  0
  -28.7589  -21.1151   21.4266 N   0  0  0  0  0  0  0  0  0  0  0  0
  -25.0184  -33.0309   22.6743 N   0  0  0  0  0  0  0  0  0  0  0  0
  -20.7153  -29.5188   19.1837 N   0  0  0  0  0  0  0  0  0  0  0  0
  -21.2082  -27.3311   16.3484 N   0  3  0  0  0  0  0  0  0  0  0  0
  -26.8992  -18.3044   20.8529 O   0  0  0  0  0  0  0  0  0  0  0  0
  -22.4680  -14.6808   20.7691 O   0  0  0  0  0  0  0  0  0  0  0  0
  -24.2912  -30.9325   23.3745 O   0  0  0  0  0  0  0  0  0  0  0  0
  -26.8843  -22.8106   22.3447 O   0  0  0  0  0  0  0  0  0  0  0  0
  -22.0506  -31.9050   20.0390 O   0  0  0  0  0  0  0  0  0  0  0  0
  -21.3645  -27.2928   19.1574 O   0  0  0  0  0  0  0  0  0  0  0  0
  -31.6400  -15.4358   19.6887 O   0  0  0  0  0  0  0  0  0  0  0  0
  -22.1451   -7.5846   23.9512 O   0  0  0  0  0  0  0  0  0  0  0  0
  -26.9958  -25.4866   22.5304 O   0  0  0  0  0  0  0  0  0  1  0  0
  -17.1095   -6.1716   22.2048 F   0  0  0  0  0  0  0  0  0  0  0  0
  -32.9503  -19.8234   19.5648 F   0  0  0  0  0  0  0  0  0  0  0  0
  -21.6367   -5.0399   22.9978 F   0  0  0  0  0  0  0  0  0  0  0  0
  1  2  1  0  0  0  0
  1  5  2  0  0  0  0
  2  6  2  0  0  0  0
  3  8  2  0  0  0  0
  3 17  1  0  0  0  0
  4  9  1  0  0  0  0
  4 17  2  0  0  0  0
  5 20  1  0  0  0  0
  6 22  1  0  0  0  0
  7 10  2  0  0  0  0
  7 21  1  0  0  0  0
  8 26  1  0  0  0  0
  9 26  2  0  0  0  0
 10 27  1  0  0  0  0
 11 12  2  0  0  0  0
 11 28  1  0  0  0  0
 12 29  1  0  0  0  0
 13 23  1  0  0  0  0
 13 27  2  0  0  0  0
 14 24  2  0  0  0  0
 14 30  1  0  0  0  0
 15 25  1  0  0  0  0
 15 30  2  0  0  0  0
 16 29  2  0  0  0  0
 16 31  1  0  0  0  0
 17 32  1  0  0  0  0
 18 24  1  0  0  0  0
 18 25  2  0  0  0  0
 18 34  1  0  0  0  0
 19 32  1  0  0  0  0
 19 33  2  0  0  0  0
 19 35  1  0  0  0  0
 20 22  2  0  0  0  0
 20 41  1  0  0  0  0
 21 23  2  0  0  0  0
 21 42  1  0  0  0  0
 22 50  1  0  0  0  0
 23 43  1  0  0  0  0
 24 70  1  0  0  0  0
 25 71  1  0  0  0  0
 26 82  1  0  0  0  0
 27 83  1  0  0  0  0
 28 31  2  0  0  0  0
 28 82  1  0  0  0  0
 29 84  1  0  0  0  0
 30 85  1  0  0  0  0
 31 86  1  0  0  0  0
 32 64  2  0  0  0  0
 33 65  1  0  0  0  0
 33 68  1  0  0  0  0
 34 53  1  0  0  0  0
 34 75  2  0  0  0  0
 35 69  1  0  0  0  0
 35 76  2  0  0  0  0
 36 51  1  0  0  0  0
 36 72  1  0  0  0  0
 36 77  2  0  0  0  0
 37 59  1  0  0  0  0
 37 60  1  0  0  0  0
 37 78  2  0  0  0  0
 38 61  1  0  0  0  0
 38 66  1  0  0  0  0
 38 79  2  0  0  0  0
 39 62  1  0  0  0  0
 39 73  1  0  0  0  0
 39 80  2  0  0  0  0
 40 67  1  0  0  0  0
 40 70  1  0  0  0  0
 40 81  2  0  0  0  0
 41 44  1  0  0  0  0
 42 51  1  0  0  0  0
 43 66  1  0  0  0  0
 44 46  1  0  0  0  0
 45 47  1  0  0  0  0
 45 48  1  0  0  0  0
 46 50  1  0  0  0  0
 47 52  1  0  0  0  0
 48 67  1  0  0  0  0
 49 52  1  0  0  0  0
 49 67  1  0  0  0  0
 50 72  1  0  0  0  0
 51 66  1  0  0  0  0
 52 65  1  0  0  0  0
 54 62  1  0  0  0  0
 55 63  1  0  0  0  0
 56 63  1  0  0  0  0
 57 63  1  0  0  0  0
 58 74  1  0  0  0  0
 59 71  1  0  0  0  0
 60 83  1  0  0  0  0
 61 63  1  0  0  0  0
 61 73  1  0  0  0  0
 62 74  1  0  0  0  0
 64 65  1  0  0  0  0
M  CHG  1  74   1
M  ISO  4  40 100  60 101  70 100  83 101
M  END
> <Batch ID>
0165

> <Smiles>
CNC(C)C(=O)NC(C(=O)N1Cc2cc([101O:1][101CH2:1]C(=O)CNc3cc(F)cc([100NH:0][100C:0](=O)N4CCCC(n5nc(-c6ccc(Oc7ccc(F)cc7F)cc6)c(C(N)=O)c5N)C4)c3C(C)=O)ccc2CC1C(=O)NC1CCCc2ccccc21)C(C)(C)C

> <Shape>
0.318

> <Color>
0.154

> <Negative vol penalty>
0.000

$$$$

  -OEChem-04052304053D

 87 96  0     1  0  0  0  0  0999 V2000
  -30.5803  -12.4504   25.4530 C   0  0  0  0  0  0  0  0  0  0  0  0
  -30.6942  -13.8367   25.4764 C   0  0  0  0  0  0  0  0  0  0  0  0
  -18.7128  -24.3731   21.3353 C   0  0  0  0  0  0  0  0  0  0  0  0
  -20.9284  -23.9771   22.2135 C   0  0  0  0  0  0  0  0  0  0  0  0
  -30.3342  -11.7925   24.2485 C   0  0  0  0  0  0  0  0  0  0  0  0
  -30.5633  -14.5659   24.2951 C   0  0  0  0  0  0  0  0  0  0  0  0
  -28.1936  -20.8729   21.8613 C   0  0  0  0  0  0  0  0  0  0  0  0
  -18.6066  -23.0246   20.9949 C   0  0  0  0  0  0  0  0  0  0  0  0
  -20.8222  -22.6285   21.8733 C   0  0  0  0  0  0  0  0  0  0  0  0
  -28.6137  -21.9574   21.0925 C   0  0  0  0  0  0  0  0  0  0  0  0
  -17.9503  -20.1033   22.5659 C   0  0  0  0  0  0  0  0  0  0  0  0
  -16.7590  -19.4480   22.8774 C   0  0  0  0  0  0  0  0  0  0  0  0
  -27.7788  -28.6252   22.1940 C   0  0  0  0  0  0  0  0  0  0  0  0
  -28.1107  -20.7203   19.0835 C   0  0  0  0  0  0  0  0  0  0  0  0
  -29.8927  -29.1372   23.2353 C   0  0  0  0  0  0  0  0  0  0  0  0
  -16.4165  -18.9580   20.5365 C   0  0  0  0  0  0  0  0  0  0  0  0
  -19.8737  -24.8494   21.9445 C   0  0  0  0  0  0  0  0  0  0  0  0
  -19.1544  -26.9664   23.1728 C   0  0  0  0  0  0  0  0  0  0  0  0
  -30.1906  -12.5148   23.0534 C   0  0  0  0  0  0  0  0  0  0  0  0
  -27.7383  -19.6979   21.2459 C   0  0  0  0  0  0  0  0  0  0  0  0
  -30.3164  -13.9170   23.0733 C   0  0  0  0  0  0  0  0  0  0  0  0
  -27.0935  -29.3609   23.1761 C   0  0  0  0  0  0  0  0  0  0  0  0
  -27.6830  -19.6233   19.8468 C   0  0  0  0  0  0  0  0  0  0  0  0
  -27.8295  -29.9968   24.1935 C   0  0  0  0  0  0  0  0  0  0  0  0
  -29.2273  -29.8693   24.2176 C   0  0  0  0  0  0  0  0  0  0  0  0
  -29.1686  -28.5156   22.2234 C   0  0  0  0  0  0  0  0  0  0  0  0
  -19.6613  -22.1523   21.2639 C   0  0  0  0  0  0  0  0  0  0  0  0
  -28.5750  -21.8802   19.7034 C   0  0  0  0  0  0  0  0  0  0  0  0
  -18.3746  -20.1860   21.2397 C   0  0  0  0  0  0  0  0  0  0  0  0
  -15.9921  -18.8753   21.8627 C   0  0  0  0  0  0  0  0  0  0  0  0
  -17.6078  -19.6134   20.2250 C   0  0  0  0  0  0  0  0  0  0  0  0
  -19.9842  -26.2424   22.2958 C   0  0  0  0  0  0  0  0  0  0  0  0
  -19.6740  -28.2378   23.1659 C   0  0  0  0  0  0  0  0  0  0  0  0
  -18.0159  -26.5287   23.9264 C   0  0  0  0  0  0  0  0  0  0  0  0
  -25.1735  -30.3186   21.9260 C   0  0  0  0  0  0  0  0  0  0  0  0
  -28.6965  -16.6674   21.2119 C   0  0  0  0  0  0  0  0  0  0  0  0
  -25.9533  -16.2260   19.5379 C   0  0  0  0  0  0  0  0  0  0  0  0
  -29.2767  -27.0893   20.1505 C   0  0  0  0  0  0  0  0  0  0  0  0
  -23.5300  -17.5644   17.5421 C   0  0  0  0  0  0  0  0  0  0  0  0
  -29.9723  -11.7561   21.7684 C   0  0  0  0  0  0  0  0  0  0  0  0
  -27.2635  -18.5468   22.0896 C   0  0  0  0  0  0  0  0  0  0  0  0
  -27.1503  -30.7578   25.3033 C   0  0  0  0  0  0  0  0  0  0  0  0
  -27.1836  -18.3920   19.1375 C   0  0  0  0  0  0  0  0  0  0  0  0
  -29.4738  -12.6314   20.6214 C   0  0  0  0  0  0  0  0  0  0  0  0
  -25.7268  -31.1828   24.9570 C   0  0  0  0  0  0  0  0  0  0  0  0
  -22.0839  -31.2915   20.3937 C   0  0  0  0  0  0  0  0  0  0  0  0
  -24.9413  -30.0089   24.3810 C   0  0  0  0  0  0  0  0  0  0  0  0
  -30.2931  -13.9152   20.5346 C   0  0  0  0  0  0  0  0  0  0  0  0
  -21.1273  -30.1587   20.7636 C   0  0  0  0  0  0  0  0  0  0  0  0
  -23.5001  -30.7737   20.1633 C   0  0  0  0  0  0  0  0  0  0  0  0
  -23.1020  -28.8622   21.6829 C   0  0  0  0  0  0  0  0  0  0  0  0
  -25.5867  -29.4669   23.0998 C   0  0  2  0  0  0  0  0  0  0  0  0
  -30.1558  -14.7450   21.8168 C   0  0  1  0  0  0  0  0  0  0  0  0
  -27.3029  -17.2108   21.3541 C   0  0  1  0  0  0  0  0  0  0  0  0
  -21.6666  -29.3465   21.9544 C   0  0  2  0  0  0  0  0  0  0  0  0
  -30.0529  -30.4975   25.2958 C   0  0  0  0  0  0  0  0  0  0  0  0
  -21.4380  -16.9483   16.3007 C   0  0  0  0  0  0  0  0  0  0  0  0
  -27.6346  -14.8733   17.3808 C   0  0  0  0  0  0  0  0  0  0  0  0
  -25.7057  -15.1415   15.8074 C   0  0  0  0  0  0  0  0  0  0  0  0
  -25.4533  -13.7486   17.8614 C   0  0  0  0  0  0  0  0  0  0  0  0
  -21.8960  -19.4611   19.1206 C   0  0  0  0  0  0  0  0  0  0  0  0
  -30.3592  -26.4185   19.3163 C   0  0  0  0  0  0  0  0  0  0  0  0
  -29.8712  -25.1444   18.6356 C   0  0  0  0  0  0  0  0  0  0  0  0
  -29.4431  -24.0937   19.6498 C   0  0  0  0  0  0  0  0  0  1  0  0
  -25.5743  -16.2648   18.0772 C   0  0  1  0  0  0  0  0  0  0  0  0
  -22.0155  -17.4810   17.6027 C   0  0  2  0  0  0  0  0  0  0  0  0
  -26.1033  -15.0297   17.2947 C   0  0  0  0  0  0  0  0  0  0  0  0
  -20.9569  -26.9916   21.7699 N   0  0  0  0  0  0  0  0  0  0  0  0
  -20.7416  -28.1997   22.3180 N   0  0  0  0  0  0  0  0  0  0  0  0
  -23.9675  -29.9887   21.3072 N   0  0  0  0  0  0  0  0  0  0  0  0
  -26.7363  -17.2907   20.0062 N   0  0  0  0  0  0  0  0  0  0  0  0
  -19.3171  -29.3735   23.8025 N   0  0  0  0  0  0  0  0  0  0  0  0
  -18.2224  -26.0287   25.2193 N   0  0  0  0  0  0  0  0  0  0  0  0
  -29.8408  -27.7709   21.2252 N   0  0  0  0  0  0  0  0  0  0  0  0
  -28.8905  -15.4474   21.8312 N   0  0  0  0  0  0  0  0  0  0  0  0
  -24.1245  -16.4223   18.0356 N   0  0  0  0  0  0  0  0  0  0  0  0
  -21.4324  -18.8284   17.8590 N   0  3  0  0  0  0  0  0  0  0  0  0
  -16.8517  -26.5642   23.4606 O   0  0  0  0  0  0  0  0  0  0  0  0
  -25.9007  -31.2507   21.5729 O   0  0  0  0  0  0  0  0  0  0  0  0
  -29.5334  -17.3068   20.5855 O   0  0  0  0  0  0  0  0  0  0  0  0
  -25.5629  -15.2895   20.2394 O   0  0  0  0  0  0  0  0  0  0  0  0
  -28.0872  -27.0040   19.8639 O   0  0  0  0  0  0  0  0  0  0  0  0
  -24.1260  -18.5430   17.0977 O   0  0  0  0  0  0  0  0  0  0  0  0
  -19.5580  -20.8363   20.9322 O   0  0  0  0  0  0  0  0  0  0  0  0
  -28.9851  -22.9371   18.9506 O   0  0  0  0  0  0  0  0  0  1  0  0
  -14.8490  -18.2447   22.1621 F   0  0  0  0  0  0  0  0  0  0  0  0
  -18.0110  -19.6886   18.9493 F   0  0  0  0  0  0  0  0  0  0  0  0
  1  2  1  0  0  0  0
  1  5  2  0  0  0  0
  2  6  2  0  0  0  0
  3  8  2  0  0  0  0
  3 17  1  0  0  0  0
  4  9  1  0  0  0  0
  4 17  2  0  0  0  0
  5 19  1  0  0  0  0
  6 21  1  0  0  0  0
  7 10  2  0  0  0  0
  7 20  1  0  0  0  0
  8 27  1  0  0  0  0
  9 27  2  0  0  0  0
 10 28  1  0  0  0  0
 11 12  2  0  0  0  0
 11 29  1  0  0  0  0
 12 30  1  0  0  0  0
 13 22  1  0  0  0  0
 13 26  2  0  0  0  0
 14 23  1  0  0  0  0
 14 28  2  0  0  0  0
 15 25  2  0  0  0  0
 15 26  1  0  0  0  0
 16 30  2  0  0  0  0
 16 31  1  0  0  0  0
 17 32  1  0  0  0  0
 18 32  1  0  0  0  0
 18 33  2  0  0  0  0
 18 34  1  0  0  0  0
 19 21  2  0  0  0  0
 19 40  1  0  0  0  0
 20 23  2  0  0  0  0
 20 41  1  0  0  0  0
 21 53  1  0  0  0  0
 22 24  2  0  0  0  0
 22 52  1  0  0  0  0
 23 43  1  0  0  0  0
 24 25  1  0  0  0  0
 24 42  1  0  0  0  0
 25 56  1  0  0  0  0
 26 74  1  0  0  0  0
 27 84  1  0  0  0  0
 28 85  1  0  0  0  0
 29 31  2  0  0  0  0
 29 84  1  0  0  0  0
 30 86  1  0  0  0  0
 31 87  1  0  0  0  0
 32 68  2  0  0  0  0
 33 69  1  0  0  0  0
 33 72  1  0  0  0  0
 34 73  1  0  0  0  0
 34 78  2  0  0  0  0
 35 52  1  0  0  0  0
 35 70  1  0  0  0  0
 35 79  2  0  0  0  0
 36 54  1  0  0  0  0
 36 75  1  0  0  0  0
 36 80  2  0  0  0  0
 37 65  1  0  0  0  0
 37 71  1  0  0  0  0
 37 81  2  0  0  0  0
 38 62  1  0  0  0  0
 38 74  1  0  0  0  0
 38 82  2  0  0  0  0
 39 66  1  0  0  0  0
 39 76  1  0  0  0  0
 39 83  2  0  0  0  0
 40 44  1  0  0  0  0
 41 54  1  0  0  0  0
 42 45  1  0  0  0  0
 43 71  1  0  0  0  0
 44 48  1  0  0  0  0
 45 47  1  0  0  0  0
 46 49  1  0  0  0  0
 46 50  1  0  0  0  0
 47 52  1  0  0  0  0
 48 53  1  0  0  0  0
 49 55  1  0  0  0  0
 50 70  1  0  0  0  0
 51 55  1  0  0  0  0
 51 70  1  0  0  0  0
 53 75  1  0  0  0  0
 54 71  1  0  0  0  0
 55 69  1  0  0  0  0
 57 66  1  0  0  0  0
 58 67  1  0  0  0  0
 59 67  1  0  0  0  0
 60 67  1  0  0  0  0
 61 77  1  0  0  0  0
 62 63  1  0  0  0  0
 63 64  1  0  0  0  0
 64 85  1  0  0  0  0
 65 67  1  0  0  0  0
 65 76  1  0  0  0  0
 66 77  1  0  0  0  0
 68 69  1  0  0  0  0
M  CHG  1  77   1
M  ISO  4  35 100  52 100  64 101  85 101
M  END
> <Batch ID>
0165

> <Smiles>
CNC(C)C(=O)NC(C(=O)N1Cc2cc([101O:1][101CH2:1]CCC(=O)Nc3cc(C)c4c(c3)[100CH:0]([100C:0](=O)N3CCCC(n5nc(-c6ccc(Oc7ccc(F)cc7F)cc6)c(C(N)=O)c5N)C3)CCC4)ccc2CC1C(=O)NC1CCCc2ccccc21)C(C)(C)C

> <Shape>
0.248

> <Color>
0.068

> <Negative vol penalty>
0.000

$$$$

  -OEChem-04052304053D

 85 93  0     1  0  0  0  0  0999 V2000
  -27.9608  -12.0893   23.2237 C   0  0  0  0  0  0  0  0  0  0  0  0
  -28.4072  -13.2432   22.5876 C   0  0  0  0  0  0  0  0  0  0  0  0
  -31.0592  -29.8433   20.3101 C   0  0  0  0  0  0  0  0  0  0  0  0
  -19.8235  -27.9497   23.7494 C   0  0  0  0  0  0  0  0  0  0  0  0
  -20.8693  -26.8666   21.8598 C   0  0  0  0  0  0  0  0  0  0  0  0
  -26.7662  -11.4919   22.8236 C   0  0  0  0  0  0  0  0  0  0  0  0
  -27.6599  -13.7997   21.5501 C   0  0  0  0  0  0  0  0  0  0  0  0
  -27.2258  -18.8293   21.9496 C   0  0  0  0  0  0  0  0  0  0  0  0
  -30.9675  -28.7947   19.3949 C   0  0  0  0  0  0  0  0  0  0  0  0
  -29.9007  -30.3940   20.8582 C   0  0  0  0  0  0  0  0  0  0  0  0
  -18.5721  -27.7694   23.1602 C   0  0  0  0  0  0  0  0  0  0  0  0
  -19.6179  -26.6864   21.2706 C   0  0  0  0  0  0  0  0  0  0  0  0
  -28.3234  -19.5960   21.5606 C   0  0  0  0  0  0  0  0  0  0  0  0
  -16.9939  -24.5815   21.5947 C   0  0  0  0  0  0  0  0  0  0  0  0
  -16.7147  -23.3329   21.0392 C   0  0  0  0  0  0  0  0  0  0  0  0
  -27.2539  -20.0427   19.4450 C   0  0  0  0  0  0  0  0  0  0  0  0
  -16.3879  -24.3666   18.8800 C   0  0  0  0  0  0  0  0  0  0  0  0
  -20.9721  -27.4983   23.0992 C   0  0  0  0  0  0  0  0  0  0  0  0
  -22.9292  -26.8023   24.5801 C   0  0  0  0  0  0  0  0  0  0  0  0
  -25.9990  -12.0468   21.7872 C   0  0  0  0  0  0  0  0  0  0  0  0
  -26.1370  -18.6543   21.0835 C   0  0  0  0  0  0  0  0  0  0  0  0
  -26.4547  -13.2083   21.1349 C   0  0  0  0  0  0  0  0  0  0  0  0
  -26.1426  -19.2754   19.8264 C   0  0  0  0  0  0  0  0  0  0  0  0
  -29.7173  -28.2968   19.0277 C   0  0  0  0  0  0  0  0  0  0  0  0
  -28.6505  -29.8961   20.4910 C   0  0  0  0  0  0  0  0  0  0  0  0
  -18.4693  -27.1378   21.9208 C   0  0  0  0  0  0  0  0  0  0  0  0
  -28.3388  -20.2004   20.3070 C   0  0  0  0  0  0  0  0  0  0  0  0
  -16.9701  -25.7227   20.7929 C   0  0  0  0  0  0  0  0  0  0  0  0
  -16.4117  -23.2254   19.6819 C   0  0  0  0  0  0  0  0  0  0  0  0
  -16.6672  -25.6152   19.4355 C   0  0  0  0  0  0  0  0  0  0  0  0
  -28.5588  -28.8475   19.5757 C   0  0  0  0  0  0  0  0  0  0  0  0
  -22.2651  -27.6847   23.7071 C   0  0  0  0  0  0  0  0  0  0  0  0
  -24.1131  -27.4344   24.8720 C   0  0  0  0  0  0  0  0  0  0  0  0
  -22.5130  -25.5255   25.0823 C   0  0  0  0  0  0  0  0  0  0  0  0
  -24.7768  -16.1549   19.6668 C   0  0  0  0  0  0  0  0  0  0  0  0
  -22.5908  -18.3645   18.7386 C   0  0  0  0  0  0  0  0  0  0  0  0
  -30.2877  -25.0733   19.1909 C   0  0  0  0  0  0  0  0  0  0  0  0
  -21.8712  -21.6398   18.1052 C   0  0  0  0  0  0  0  0  0  0  0  0
  -27.3932  -31.5004   21.9715 C   0  0  0  0  0  0  0  0  0  0  0  0
  -24.7385  -11.3387   21.3579 C   0  0  0  0  0  0  0  0  0  0  0  0
  -24.9490  -17.8462   21.5285 C   0  0  0  0  0  0  0  0  0  0  0  0
  -24.9897  -19.1352   18.8674 C   0  0  0  0  0  0  0  0  0  0  0  0
  -23.8163  -12.2023   20.5012 C   0  0  0  0  0  0  0  0  0  0  0  0
  -26.0308  -31.8066   25.2467 C   0  0  0  0  0  0  0  0  0  0  0  0
  -24.6121  -12.9160   19.4129 C   0  0  0  0  0  0  0  0  0  0  0  0
  -24.9752  -30.7001   25.3052 C   0  0  0  0  0  0  0  0  0  0  0  0
  -26.0973  -32.4546   23.8649 C   0  0  0  0  0  0  0  0  0  0  0  0
  -25.2177  -30.4114   22.8062 C   0  0  0  0  0  0  0  0  0  0  0  0
  -25.6595  -13.8559   20.0220 C   0  0  1  0  0  0  0  0  0  0  0  0
  -24.1198  -17.3121   20.3647 C   0  0  1  0  0  0  0  0  0  0  0  0
  -25.1588  -29.6851   24.1599 C   0  0  2  0  0  0  0  0  0  0  0  0
  -20.4807  -23.6518   17.5433 C   0  0  0  0  0  0  0  0  0  0  0  0
  -23.0467  -17.4278   15.8707 C   0  0  0  0  0  0  0  0  0  0  0  0
  -21.9305  -19.5255   15.0820 C   0  0  0  0  0  0  0  0  0  0  0  0
  -20.6566  -17.8770   16.4540 C   0  0  0  0  0  0  0  0  0  0  0  0
  -21.1752  -22.0961   20.9453 C   0  0  0  0  0  0  0  0  0  0  0  0
  -29.6224  -27.1678   18.0426 C   0  0  0  0  0  0  0  0  0  0  0  0
  -29.6880  -23.8258   19.8148 C   0  0  0  0  0  0  0  0  0  0  0  0
  -30.7496  -22.8868   20.3764 C   0  0  0  0  0  0  0  0  0  0  0  0
  -30.1325  -21.6215   20.9544 C   0  0  0  0  0  0  0  0  0  1  0  0
  -22.4417  -19.2891   17.5546 C   0  0  1  0  0  0  0  0  0  0  0  0
  -20.7052  -22.5150   18.5282 C   0  0  2  0  0  0  0  0  0  0  0  0
  -22.0416  -18.5311   16.2574 C   0  0  0  0  0  0  0  0  0  0  0  0
  -22.9687  -28.7930   23.4606 N   0  0  0  0  0  0  0  0  0  0  0  0
  -24.0871  -28.6113   24.1832 N   0  0  0  0  0  0  0  0  0  0  0  0
  -23.8540  -18.3299   19.3461 N   0  0  0  0  0  0  0  0  0  0  0  0
  -26.2763  -31.4330   22.8309 N   0  0  0  0  0  0  0  0  0  0  0  0
  -25.1635  -27.0928   25.6482 N   0  0  0  0  0  0  0  0  0  0  0  0
  -21.2673  -25.0236   24.6815 N   0  0  0  0  0  0  0  0  0  0  0  0
  -27.4755  -30.4570   21.0500 N   0  0  0  0  0  0  0  0  0  0  0  0
  -25.0342  -15.0746   20.4891 N   0  0  0  0  0  0  0  0  0  0  0  0
  -29.3069  -25.9145   18.6859 N   0  0  0  0  0  0  0  0  0  0  0  0
  -21.4939  -20.3216   17.9598 N   0  0  0  0  0  0  0  0  0  0  0  0
  -20.9600  -23.1025   19.8739 N   0  3  0  0  0  0  0  0  0  0  0  0
  -23.2176  -24.8570   25.8762 O   0  0  0  0  0  0  0  0  0  0  0  0
  -25.0300  -16.2356   18.4705 O   0  0  0  0  0  0  0  0  0  0  0  0
  -21.6202  -17.7028   19.1152 O   0  0  0  0  0  0  0  0  0  0  0  0
  -31.4952  -25.2930   19.1488 O   0  0  0  0  0  0  0  0  0  0  0  0
  -23.0026  -22.0820   17.9185 O   0  0  0  0  0  0  0  0  0  0  0  0
  -28.2308  -32.4014   22.0652 O   0  0  0  0  0  0  0  0  0  0  0  0
  -17.2484  -26.9615   21.3457 O   0  0  0  0  0  0  0  0  0  0  0  0
  -29.4091  -20.9488   19.9246 O   0  0  0  0  0  0  0  0  0  1  0  0
  -16.1451  -22.0261   19.1483 F   0  0  0  0  0  0  0  0  0  0  0  0
  -16.6439  -26.7078   18.6600 F   0  0  0  0  0  0  0  0  0  0  0  0
  -27.3569  -28.3670   19.2231 F   0  0  0  0  0  0  0  0  0  0  0  0
  1  2  1  0  0  0  0
  1  6  2  0  0  0  0
  2  7  2  0  0  0  0
  3  9  2  0  0  0  0
  3 10  1  0  0  0  0
  4 11  2  0  0  0  0
  4 18  1  0  0  0  0
  5 12  1  0  0  0  0
  5 18  2  0  0  0  0
  6 20  1  0  0  0  0
  7 22  1  0  0  0  0
  8 13  2  0  0  0  0
  8 21  1  0  0  0  0
  9 24  1  0  0  0  0
 10 25  2  0  0  0  0
 11 26  1  0  0  0  0
 12 26  2  0  0  0  0
 13 27  1  0  0  0  0
 14 15  2  0  0  0  0
 14 28  1  0  0  0  0
 15 29  1  0  0  0  0
 16 23  1  0  0  0  0
 16 27  2  0  0  0  0
 17 29  2  0  0  0  0
 17 30  1  0  0  0  0
 18 32  1  0  0  0  0
 19 32  1  0  0  0  0
 19 33  2  0  0  0  0
 19 34  1  0  0  0  0
 20 22  2  0  0  0  0
 20 40  1  0  0  0  0
 21 23  2  0  0  0  0
 21 41  1  0  0  0  0
 22 49  1  0  0  0  0
 23 42  1  0  0  0  0
 24 31  2  0  0  0  0
 24 57  1  0  0  0  0
 25 31  1  0  0  0  0
 25 70  1  0  0  0  0
 26 81  1  0  0  0  0
 27 82  1  0  0  0  0
 28 30  2  0  0  0  0
 28 81  1  0  0  0  0
 29 83  1  0  0  0  0
 30 84  1  0  0  0  0
 31 85  1  0  0  0  0
 32 64  2  0  0  0  0
 33 65  1  0  0  0  0
 33 68  1  0  0  0  0
 34 69  1  0  0  0  0
 34 75  2  0  0  0  0
 35 50  1  0  0  0  0
 35 71  1  0  0  0  0
 35 76  2  0  0  0  0
 36 61  1  0  0  0  0
 36 66  1  0  0  0  0
 36 77  2  0  0  0  0
 37 58  1  0  0  0  0
 37 72  1  0  0  0  0
 37 78  2  0  0  0  0
 38 62  1  0  0  0  0
 38 73  1  0  0  0  0
 38 79  2  0  0  0  0
 39 67  1  0  0  0  0
 39 70  1  0  0  0  0
 39 80  2  0  0  0  0
 40 43  1  0  0  0  0
 41 50  1  0  0  0  0
 42 66  1  0  0  0  0
 43 45  1  0  0  0  0
 44 46  1  0  0  0  0
 44 47  1  0  0  0  0
 45 49  1  0  0  0  0
 46 51  1  0  0  0  0
 47 67  1  0  0  0  0
 48 51  1  0  0  0  0
 48 67  1  0  0  0  0
 49 71  1  0  0  0  0
 50 66  1  0  0  0  0
 51 65  1  0  0  0  0
 52 62  1  0  0  0  0
 53 63  1  0  0  0  0
 54 63  1  0  0  0  0
 55 63  1  0  0  0  0
 56 74  1  0  0  0  0
 57 72  1  0  0  0  0
 58 59  1  0  0  0  0
 59 60  1  0  0  0  0
 60 82  1  0  0  0  0
 61 63  1  0  0  0  0
 61 73  1  0  0  0  0
 62 74  1  0  0  0  0
 64 65  1  0  0  0  0
M  CHG  1  74   1
M  ISO  4  39 100  60 101  70 100  82 101
M  END
> <Batch ID>
0165

> <Smiles>
CNC(C)C(=O)NC(C(=O)N1Cc2cc([101O:1][101CH2:1]CCC(=O)NCc3cccc([100NH:0][100C:0](=O)N4CCCC(n5nc(-c6ccc(Oc7ccc(F)cc7F)cc6)c(C(N)=O)c5N)C4)c3F)ccc2CC1C(=O)NC1CCCc2ccccc21)C(C)(C)C

> <Shape>
0.208

> <Color>
0.093

> <Negative vol penalty>
0.000

$$$$

  -OEChem-04052304053D

 87 95  0     1  0  0  0  0  0999 V2000
  -33.3119  -26.1008    9.3593 C   0  0  0  0  0  0  0  0  0  0  0  0
  -33.6875  -25.3026   10.4350 C   0  0  0  0  0  0  0  0  0  0  0  0
  -30.4019  -18.4154   23.9874 C   0  0  0  0  0  0  0  0  0  0  0  0
  -23.0897   -9.8412   19.9554 C   0  0  0  0  0  0  0  0  0  0  0  0
  -23.8328   -9.8859   22.2538 C   0  0  0  0  0  0  0  0  0  0  0  0
  -32.9861  -27.4404    9.5671 C   0  0  0  0  0  0  0  0  0  0  0  0
  -33.7384  -25.8438   11.7191 C   0  0  0  0  0  0  0  0  0  0  0  0
  -32.3937  -22.9952   16.9710 C   0  0  0  0  0  0  0  0  0  0  0  0
  -31.7862  -18.4434   24.1560 C   0  0  0  0  0  0  0  0  0  0  0  0
  -29.8265  -17.5151   23.0907 C   0  0  0  0  0  0  0  0  0  0  0  0
  -22.3505   -8.6876   20.2168 C   0  0  0  0  0  0  0  0  0  0  0  0
  -23.0935   -8.7323   22.5153 C   0  0  0  0  0  0  0  0  0  0  0  0
  -33.1917  -22.3896   17.9407 C   0  0  0  0  0  0  0  0  0  0  0  0
  -19.8656   -7.9250   23.1061 C   0  0  0  0  0  0  0  0  0  0  0  0
  -19.1003   -7.8978   24.2719 C   0  0  0  0  0  0  0  0  0  0  0  0
  -33.1426  -24.4208   19.2410 C   0  0  0  0  0  0  0  0  0  0  0  0
  -32.0199  -16.6707   22.5311 C   0  0  0  0  0  0  0  0  0  0  0  0
  -20.3471   -5.9784   25.0455 C   0  0  0  0  0  0  0  0  0  0  0  0
  -23.8310  -10.4403   20.9739 C   0  0  0  0  0  0  0  0  0  0  0  0
  -24.1596  -12.9654   20.8195 C   0  0  0  0  0  0  0  0  0  0  0  0
  -33.0237  -27.9959   10.8558 C   0  0  0  0  0  0  0  0  0  0  0  0
  -31.9724  -24.3239   17.1242 C   0  0  0  0  0  0  0  0  0  0  0  0
  -33.4141  -27.1925   11.9441 C   0  0  0  0  0  0  0  0  0  0  0  0
  -32.3371  -25.0401   18.2731 C   0  0  0  0  0  0  0  0  0  0  0  0
  -32.5952  -17.5711   23.4278 C   0  0  0  0  0  0  0  0  0  0  0  0
  -30.6355  -16.6428   22.3626 C   0  0  0  0  0  0  0  0  0  0  0  0
  -22.3524   -8.1332   21.4967 C   0  0  0  0  0  0  0  0  0  0  0  0
  -33.5687  -23.1033   19.0745 C   0  0  0  0  0  0  0  0  0  0  0  0
  -20.8715   -6.9789   22.9098 C   0  0  0  0  0  0  0  0  0  0  0  0
  -19.3411   -6.9246   25.2416 C   0  0  0  0  0  0  0  0  0  0  0  0
  -21.1123   -6.0056   23.8796 C   0  0  0  0  0  0  0  0  0  0  0  0
  -24.5953  -11.6317   20.7044 C   0  0  0  0  0  0  0  0  0  0  0  0
  -25.2502  -13.7157   20.4533 C   0  0  0  0  0  0  0  0  0  0  0  0
  -22.8833  -13.4800   21.2217 C   0  0  0  0  0  0  0  0  0  0  0  0
  -32.4132  -27.0185   15.4967 C   0  0  0  0  0  0  0  0  0  0  0  0
  -30.2806  -28.2013   17.6357 C   0  0  0  0  0  0  0  0  0  0  0  0
  -28.8228  -27.9558   20.7117 C   0  0  0  0  0  0  0  0  0  0  0  0
  -30.7091  -14.7947   20.6522 C   0  0  0  0  0  0  0  0  0  0  0  0
  -32.7086  -29.4612   11.0242 C   0  0  0  0  0  0  0  0  0  0  0  0
  -31.0898  -24.9541   16.0819 C   0  0  0  0  0  0  0  0  0  0  0  0
  -31.8944  -26.4626   18.4948 C   0  0  0  0  0  0  0  0  0  0  0  0
  -32.4257  -29.8611   12.4699 C   0  0  0  0  0  0  0  0  0  0  0  0
  -29.6254  -12.3404   18.3114 C   0  0  0  0  0  0  0  0  0  0  0  0
  -33.4774  -29.2693   13.4030 C   0  0  0  0  0  0  0  0  0  0  0  0
  -28.1843  -12.0469   18.7347 C   0  0  0  0  0  0  0  0  0  0  0  0
  -30.5305  -12.5918   19.5161 C   0  0  0  0  0  0  0  0  0  0  0  0
  -28.6095  -13.3255   20.8729 C   0  0  0  0  0  0  0  0  0  0  0  0
  -33.4574  -27.7368   13.3555 C   0  0  1  0  0  0  0  0  0  0  0  0
  -31.1449  -26.4786   16.0947 C   0  0  1  0  0  0  0  0  0  0  0  0
  -27.6463  -13.1296   19.6907 C   0  0  2  0  0  0  0  0  0  0  0  0
  -27.1424  -29.0890   22.1913 C   0  0  0  0  0  0  0  0  0  0  0  0
  -32.3107  -30.3922   18.2593 C   0  0  0  0  0  0  0  0  0  0  0  0
  -31.0221  -30.8957   20.3459 C   0  0  0  0  0  0  0  0  0  0  0  0
  -29.9403  -31.1765   18.1158 C   0  0  0  0  0  0  0  0  0  0  0  0
  -27.0987  -25.5516   20.7910 C   0  0  0  0  0  0  0  0  0  0  0  0
  -34.5403  -20.7445   21.6266 C   0  0  0  0  0  0  0  0  0  0  0  0
  -34.2196  -21.1028   20.1836 C   0  0  0  0  0  0  0  0  0  1  0  0
  -34.1065  -17.6020   23.6122 C   0  0  1  0  0  0  0  0  0  0  0  0
  -30.3778  -28.8474   18.9966 C   0  0  1  0  0  0  0  0  0  0  0  0
  -27.3687  -28.0094   21.1444 C   0  0  2  0  0  0  0  0  0  0  0  0
  -34.7289  -18.9796   23.2422 C   0  0  1  0  0  0  0  0  0  0  0  0
  -30.9228  -30.3018   18.9246 C   0  0  0  0  0  0  0  0  0  0  0  0
  -36.2477  -19.0210   23.4029 C   0  0  0  0  0  0  0  0  0  0  0  0
  -25.8637  -11.5369   20.2967 N   0  0  0  0  0  0  0  0  0  0  0  0
  -26.2344  -12.8206   20.1524 N   0  0  0  0  0  0  0  0  0  0  0  0
  -31.0377  -27.0368   17.4442 N   0  0  0  0  0  0  0  0  0  0  0  0
  -29.9594  -13.6321   20.3743 N   0  0  0  0  0  0  0  0  0  0  0  0
  -25.4537  -15.0471   20.3624 N   0  0  0  0  0  0  0  0  0  0  0  0
  -21.8740  -12.5701   21.5649 N   0  0  0  0  0  0  0  0  0  0  0  0
  -34.4424  -17.2116   24.9883 N   0  0  0  0  0  0  0  0  0  0  0  0
  -30.0506  -15.7278   21.4523 N   0  0  0  0  0  0  0  0  0  0  0  0
  -32.3497  -27.2215   14.1314 N   0  0  0  0  0  0  0  0  0  0  0  0
  -29.0532  -28.7348   19.5975 N   0  0  0  0  0  0  0  0  0  0  0  0
  -34.4099  -19.3132   21.8605 N   0  0  0  0  0  0  0  0  0  0  0  0
  -26.9514  -26.7003   21.7214 N   0  3  0  0  0  0  0  0  0  0  0  0
  -22.6398  -14.7100   21.2594 O   0  0  0  0  0  0  0  0  0  0  0  0
  -33.3776  -27.2364   16.2208 O   0  0  0  0  0  0  0  0  0  0  0  0
  -29.5540  -28.7070   16.7767 O   0  0  0  0  0  0  0  0  0  0  0  0
  -29.6703  -27.2923   21.3050 O   0  0  0  0  0  0  0  0  0  0  0  0
  -31.8406  -14.9630   20.1903 O   0  0  0  0  0  0  0  0  0  0  0  0
  -21.6309   -7.0077   21.7522 O   0  0  0  0  0  0  0  0  0  0  0  0
  -34.3481  -22.5149   20.0221 O   0  0  0  0  0  0  0  0  0  1  0  0
  -18.6072   -6.8995   26.3619 F   0  0  0  0  0  0  0  0  0  0  0  0
  -22.0782   -5.0947   23.6972 F   0  0  0  0  0  0  0  0  0  0  0  0
  -36.6051  -18.8046   24.6900 F   0  0  0  0  0  0  0  0  0  0  0  0
  -36.8515  -18.0654   22.6627 F   0  0  0  0  0  0  0  0  0  0  0  0
  -36.7580  -20.2146   23.0295 F   0  0  0  0  0  0  0  0  0  0  0  0
  1  2  1  0  0  0  0
  1  6  2  0  0  0  0
  2  7  2  0  0  0  0
  3  9  2  0  0  0  0
  3 10  1  0  0  0  0
  4 11  2  0  0  0  0
  4 19  1  0  0  0  0
  5 12  1  0  0  0  0
  5 19  2  0  0  0  0
  6 21  1  0  0  0  0
  7 23  1  0  0  0  0
  8 13  2  0  0  0  0
  8 22  1  0  0  0  0
  9 25  1  0  0  0  0
 10 26  2  0  0  0  0
 11 27  1  0  0  0  0
 12 27  2  0  0  0  0
 13 28  1  0  0  0  0
 14 15  2  0  0  0  0
 14 29  1  0  0  0  0
 15 30  1  0  0  0  0
 16 24  1  0  0  0  0
 16 28  2  0  0  0  0
 17 25  2  0  0  0  0
 17 26  1  0  0  0  0
 18 30  2  0  0  0  0
 18 31  1  0  0  0  0
 19 32  1  0  0  0  0
 20 32  1  0  0  0  0
 20 33  2  0  0  0  0
 20 34  1  0  0  0  0
 21 23  2  0  0  0  0
 21 39  1  0  0  0  0
 22 24  2  0  0  0  0
 22 40  1  0  0  0  0
 23 48  1  0  0  0  0
 24 41  1  0  0  0  0
 25 58  1  0  0  0  0
 26 71  1  0  0  0  0
 27 81  1  0  0  0  0
 28 82  1  0  0  0  0
 29 31  2  0  0  0  0
 29 81  1  0  0  0  0
 30 83  1  0  0  0  0
 31 84  1  0  0  0  0
 32 64  2  0  0  0  0
 33 65  1  0  0  0  0
 33 68  1  0  0  0  0
 34 69  1  0  0  0  0
 34 76  2  0  0  0  0
 35 49  1  0  0  0  0
 35 72  1  0  0  0  0
 35 77  2  0  0  0  0
 36 59  1  0  0  0  0
 36 66  1  0  0  0  0
 36 78  2  0  0  0  0
 37 60  1  0  0  0  0
 37 73  1  0  0  0  0
 37 79  2  0  0  0  0
 38 67  1  0  0  0  0
 38 71  1  0  0  0  0
 38 80  2  0  0  0  0
 39 42  1  0  0  0  0
 40 49  1  0  0  0  0
 41 66  1  0  0  0  0
 42 44  1  0  0  0  0
 43 45  1  0  0  0  0
 43 46  1  0  0  0  0
 44 48  1  0  0  0  0
 45 50  1  0  0  0  0
 46 67  1  0  0  0  0
 47 50  1  0  0  0  0
 47 67  1  0  0  0  0
 48 72  1  0  0  0  0
 49 66  1  0  0  0  0
 50 65  1  0  0  0  0
 51 60  1  0  0  0  0
 52 62  1  0  0  0  0
 53 62  1  0  0  0  0
 54 62  1  0  0  0  0
 55 75  1  0  0  0  0
 56 57  1  0  0  0  0
 56 74  1  0  0  0  0
 57 82  1  0  0  0  0
 58 61  1  0  0  0  0
 58 70  1  0  0  0  0
 59 62  1  0  0  0  0
 59 73  1  0  0  0  0
 60 75  1  0  0  0  0
 61 63  1  0  0  0  0
 61 74  1  0  0  0  0
 63 85  1  0  0  0  0
 63 86  1  0  0  0  0
 63 87  1  0  0  0  0
 64 65  1  0  0  0  0
M  CHG  1  75   1
M  ISO  4  38 100  57 101  71 100  82 101
M  END
> <Batch ID>
0165

> <Smiles>
CNC(C)C(=O)NC(C(=O)N1Cc2cc([101O:1][101CH2:1]CNC(C(N)c3cccc([100NH:0][100C:0](=O)N4CCCC(n5nc(-c6ccc(Oc7ccc(F)cc7F)cc6)c(C(N)=O)c5N)C4)c3)C(F)(F)F)ccc2CC1C(=O)NC1CCCc2ccccc21)C(C)(C)C

> <Shape>
0.210

> <Color>
0.184

> <Negative vol penalty>
0.000

$$$$

  -OEChem-04052304053D

 81 89  0     1  0  0  0  0  0999 V2000
  -24.1270  -17.5998   19.9205 C   0  0  0  0  0  0  0  0  0  0  0  0
  -24.7797  -18.7977   19.6473 C   0  0  0  0  0  0  0  0  0  0  0  0
  -26.4848  -12.8098   21.5318 C   0  0  0  0  0  0  0  0  0  0  0  0
  -26.1047  -13.6394   19.2948 C   0  0  0  0  0  0  0  0  0  0  0  0
  -22.7555  -17.5960   20.1709 C   0  0  0  0  0  0  0  0  0  0  0  0
  -24.0608  -19.9923   19.6232 C   0  0  0  0  0  0  0  0  0  0  0  0
  -26.4282  -23.7340   22.0809 C   0  0  0  0  0  0  0  0  0  0  0  0
  -25.2299  -12.2010   21.5193 C   0  0  0  0  0  0  0  0  0  0  0  0
  -24.8498  -13.0306   19.2822 C   0  0  0  0  0  0  0  0  0  0  0  0
  -27.4821  -24.3632   21.4198 C   0  0  0  0  0  0  0  0  0  0  0  0
  -23.8313   -9.4030   20.2354 C   0  0  0  0  0  0  0  0  0  0  0  0
  -23.7415   -8.0932   20.7065 C   0  0  0  0  0  0  0  0  0  0  0  0
  -26.0141  -26.1823   20.8237 C   0  0  0  0  0  0  0  0  0  0  0  0
  -22.1854   -8.8123   22.4090 C   0  0  0  0  0  0  0  0  0  0  0  0
  -29.4820  -22.2801   15.9116 C   0  0  0  0  0  0  0  0  0  0  0  0
  -26.9222  -13.5290   20.4196 C   0  0  0  0  0  0  0  0  0  0  0  0
  -29.4402  -13.5969   20.0160 C   0  0  0  0  0  0  0  0  0  0  0  0
  -22.0212  -18.7924   20.1594 C   0  0  0  0  0  0  0  0  0  0  0  0
  -25.1545  -24.3199   22.1092 C   0  0  0  0  0  0  0  0  0  0  0  0
  -22.6779  -20.0043   19.8724 C   0  0  0  0  0  0  0  0  0  0  0  0
  -24.9463  -25.5597   21.4880 C   0  0  0  0  0  0  0  0  0  0  0  0
  -24.4124  -12.3114   20.3945 C   0  0  0  0  0  0  0  0  0  0  0  0
  -27.2744  -25.5861   20.7885 C   0  0  0  0  0  0  0  0  0  0  0  0
  -23.0982  -10.4175   20.8512 C   0  0  0  0  0  0  0  0  0  0  0  0
  -22.9185   -7.7978   21.7933 C   0  0  0  0  0  0  0  0  0  0  0  0
  -22.2753  -10.1221   21.9380 C   0  0  0  0  0  0  0  0  0  0  0  0
  -28.2182  -14.1586   20.4321 C   0  0  0  0  0  0  0  0  0  0  0  0
  -30.0269  -23.0842   16.8907 C   0  0  0  0  0  0  0  0  0  0  0  0
  -30.3644  -14.5909   20.2267 C   0  0  0  0  0  0  0  0  0  0  0  0
  -29.6561  -21.2943   18.1026 C   0  0  0  0  0  0  0  0  0  0  0  0
  -29.7153  -12.2933   19.4863 C   0  0  0  0  0  0  0  0  0  0  0  0
  -22.2768  -23.4838   21.0492 C   0  0  0  0  0  0  0  0  0  0  0  0
  -29.9332  -26.0244   18.3591 C   0  0  0  0  0  0  0  0  0  0  0  0
  -21.3459  -26.1583   22.6311 C   0  0  0  0  0  0  0  0  0  0  0  0
  -22.1839  -29.2141   23.8987 C   0  0  0  0  0  0  0  0  0  0  0  0
  -29.9651  -20.5472   20.4885 C   0  0  0  0  0  0  0  0  0  0  0  0
  -20.5318  -18.7322   20.3893 C   0  0  0  0  0  0  0  0  0  0  0  0
  -24.0347  -23.6413   22.8494 C   0  0  0  0  0  0  0  0  0  0  0  0
  -23.6029  -26.2403   21.5066 C   0  0  0  0  0  0  0  0  0  0  0  0
  -19.9105  -20.0881   20.7145 C   0  0  0  0  0  0  0  0  0  0  0  0
  -31.2131  -18.3831   23.0255 C   0  0  0  0  0  0  0  0  0  0  0  0
  -20.4175  -21.1534   19.7476 C   0  0  0  0  0  0  0  0  0  0  0  0
  -30.7030  -17.0021   22.6072 C   0  0  0  0  0  0  0  0  0  0  0  0
  -30.1945  -19.4801   22.7209 C   0  0  0  0  0  0  0  0  0  0  0  0
  -29.2001  -18.1292   20.9167 C   0  0  0  0  0  0  0  0  0  0  0  0
  -21.9371  -21.3238   19.8617 C   0  0  1  0  0  0  0  0  0  0  0  0
  -22.6527  -24.0807   22.3759 C   0  0  1  0  0  0  0  0  0  0  0  0
  -30.2182  -16.9998   21.1442 C   0  0  2  0  0  0  0  0  0  0  0  0
  -21.2009  -31.1841   25.1031 C   0  0  0  0  0  0  0  0  0  0  0  0
  -20.0228  -27.0790   20.0404 C   0  0  0  0  0  0  0  0  0  0  0  0
  -19.9036  -29.3870   21.0032 C   0  0  0  0  0  0  0  0  0  0  0  0
  -18.6831  -27.5124   22.1072 C   0  0  0  0  0  0  0  0  0  0  0  0
  -23.9977  -28.8537   26.2094 C   0  0  0  0  0  0  0  0  0  0  0  0
  -31.0266  -25.2314   17.6753 C   0  0  0  0  0  0  0  0  0  0  0  0
  -29.3054  -25.3641   19.5713 C   0  0  0  0  0  0  0  0  0  1  0  0
  -21.2038  -27.6178   22.2722 C   0  0  1  0  0  0  0  0  0  0  0  0
  -21.9180  -29.8511   25.2508 C   0  0  2  0  0  0  0  0  0  0  0  0
  -19.9783  -27.8855   21.3536 C   0  0  0  0  0  0  0  0  0  0  0  0
  -28.3508  -15.4121   20.8739 N   0  0  0  0  0  0  0  0  0  0  0  0
  -30.1271  -22.5207   18.1478 N   0  0  0  0  0  0  0  0  0  0  0  0
  -29.6670  -15.6463   20.7367 N   0  0  0  0  0  0  0  0  0  0  0  0
  -22.5382  -25.5340   22.2380 N   0  0  0  0  0  0  0  0  0  0  0  0
  -29.7843  -19.4190   21.3163 N   0  0  0  0  0  0  0  0  0  0  0  0
  -31.6974  -14.6564   20.0237 N   0  0  0  0  0  0  0  0  0  0  0  0
  -28.6501  -11.3951   19.3350 N   0  0  0  0  0  0  0  0  0  0  0  0
  -30.4563  -24.3833   16.6602 N   0  0  0  0  0  0  0  0  0  0  0  0
  -29.5683  -20.3606   19.1648 N   0  0  0  0  0  0  0  0  0  0  0  0
  -22.2717  -22.1020   21.0352 N   0  0  0  0  0  0  0  0  0  0  0  0
  -21.1747  -28.3477   23.5350 N   0  0  0  0  0  0  0  0  0  0  0  0
  -23.1997  -30.0846   25.9744 N   0  3  0  0  0  0  0  0  0  0  0  0
  -30.8741  -11.9299   19.1723 O   0  0  0  0  0  0  0  0  0  0  0  0
  -22.0097  -24.2221   20.1084 O   0  0  0  0  0  0  0  0  0  0  0  0
  -29.5695  -27.1321   17.9660 O   0  0  0  0  0  0  0  0  0  0  0  0
  -20.4357  -25.5949   23.2442 O   0  0  0  0  0  0  0  0  0  0  0  0
  -23.1847  -29.4632   23.2303 O   0  0  0  0  0  0  0  0  0  0  0  0
  -30.4625  -21.5924   20.9155 O   0  0  0  0  0  0  0  0  0  0  0  0
  -23.1879  -11.7173   20.3819 O   0  0  0  0  0  0  0  0  0  0  0  0
  -28.3012  -26.2022   20.1419 O   0  0  0  0  0  0  0  0  0  1  0  0
  -22.8312   -6.5397   22.2446 F   0  0  0  0  0  0  0  0  0  0  0  0
  -21.5677  -11.0923   22.5329 F   0  0  0  0  0  0  0  0  0  0  0  0
  -29.0768  -20.7537   16.5804 S   0  0  0  0  0  0  0  0  0  0  0  0
  1  2  1  0  0  0  0
  1  5  2  0  0  0  0
  2  6  2  0  0  0  0
  3  8  2  0  0  0  0
  3 16  1  0  0  0  0
  4  9  1  0  0  0  0
  4 16  2  0  0  0  0
  5 18  1  0  0  0  0
  6 20  1  0  0  0  0
  7 10  2  0  0  0  0
  7 19  1  0  0  0  0
  8 22  1  0  0  0  0
  9 22  2  0  0  0  0
 10 23  1  0  0  0  0
 11 12  2  0  0  0  0
 11 24  1  0  0  0  0
 12 25  1  0  0  0  0
 13 21  1  0  0  0  0
 13 23  2  0  0  0  0
 14 25  2  0  0  0  0
 14 26  1  0  0  0  0
 15 28  2  0  0  0  0
 15 81  1  0  0  0  0
 16 27  1  0  0  0  0
 17 27  1  0  0  0  0
 17 29  2  0  0  0  0
 17 31  1  0  0  0  0
 18 20  2  0  0  0  0
 18 37  1  0  0  0  0
 19 21  2  0  0  0  0
 19 38  1  0  0  0  0
 20 46  1  0  0  0  0
 21 39  1  0  0  0  0
 22 77  1  0  0  0  0
 23 78  1  0  0  0  0
 24 26  2  0  0  0  0
 24 77  1  0  0  0  0
 25 79  1  0  0  0  0
 26 80  1  0  0  0  0
 27 59  2  0  0  0  0
 28 60  1  0  0  0  0
 28 66  1  0  0  0  0
 29 61  1  0  0  0  0
 29 64  1  0  0  0  0
 30 60  2  0  0  0  0
 30 67  1  0  0  0  0
 30 81  1  0  0  0  0
 31 65  1  0  0  0  0
 31 71  2  0  0  0  0
 32 47  1  0  0  0  0
 32 68  1  0  0  0  0
 32 72  2  0  0  0  0
 33 54  1  0  0  0  0
 33 55  1  0  0  0  0
 33 73  2  0  0  0  0
 34 56  1  0  0  0  0
 34 62  1  0  0  0  0
 34 74  2  0  0  0  0
 35 57  1  0  0  0  0
 35 69  1  0  0  0  0
 35 75  2  0  0  0  0
 36 63  1  0  0  0  0
 36 67  1  0  0  0  0
 36 76  2  0  0  0  0
 37 40  1  0  0  0  0
 38 47  1  0  0  0  0
 39 62  1  0  0  0  0
 40 42  1  0  0  0  0
 41 43  1  0  0  0  0
 41 44  1  0  0  0  0
 42 46  1  0  0  0  0
 43 48  1  0  0  0  0
 44 63  1  0  0  0  0
 45 48  1  0  0  0  0
 45 63  1  0  0  0  0
 46 68  1  0  0  0  0
 47 62  1  0  0  0  0
 48 61  1  0  0  0  0
 49 57  1  0  0  0  0
 50 58  1  0  0  0  0
 51 58  1  0  0  0  0
 52 58  1  0  0  0  0
 53 70  1  0  0  0  0
 54 66  1  0  0  0  0
 55 78  1  0  0  0  0
 56 58  1  0  0  0  0
 56 69  1  0  0  0  0
 57 70  1  0  0  0  0
 59 61  1  0  0  0  0
M  CHG  1  70   1
M  ISO  4  36 100  55 101  67 100  78 101
M  END
> <Batch ID>
0165

> <Smiles>
CNC(C)C(=O)NC(C(=O)N1Cc2cc([101O:1][101CH2:1]C(=O)CNc3csc([100NH:0][100C:0](=O)N4CCCC(n5nc(-c6ccc(Oc7ccc(F)cc7F)cc6)c(C(N)=O)c5N)C4)n3)ccc2CC1C(=O)NC1CCCc2ccccc21)C(C)(C)C

> <Shape>
0.247

> <Color>
0.081

> <Negative vol penalty>
0.000

$$$$

  -OEChem-04052304053D

 84 93  0     1  0  0  0  0  0999 V2000
  -36.6225  -30.4450   22.3523 C   0  0  0  0  0  0  0  0  0  0  0  0
  -35.4680  -29.7303   22.0494 C   0  0  0  0  0  0  0  0  0  0  0  0
  -23.7034   -9.5717   20.5328 C   0  0  0  0  0  0  0  0  0  0  0  0
  -24.0654  -10.2299   22.8291 C   0  0  0  0  0  0  0  0  0  0  0  0
  -36.6444  -31.2966   23.4560 C   0  0  0  0  0  0  0  0  0  0  0  0
  -34.3350  -29.8658   22.8509 C   0  0  0  0  0  0  0  0  0  0  0  0
  -30.0883  -30.3806   20.1407 C   0  0  0  0  0  0  0  0  0  0  0  0
  -23.1483   -8.3675   20.9654 C   0  0  0  0  0  0  0  0  0  0  0  0
  -23.5102   -9.0256   23.2617 C   0  0  0  0  0  0  0  0  0  0  0  0
  -29.5456  -29.2244   19.5816 C   0  0  0  0  0  0  0  0  0  0  0  0
  -20.1947   -7.2912   22.2108 C   0  0  0  0  0  0  0  0  0  0  0  0
  -19.0144   -6.8656   21.6016 C   0  0  0  0  0  0  0  0  0  0  0  0
  -28.1328  -19.1246   21.6694 C   0  0  0  0  0  0  0  0  0  0  0  0
  -27.9438  -29.1130   21.3819 C   0  0  0  0  0  0  0  0  0  0  0  0
  -20.1222   -4.8494   20.8635 C   0  0  0  0  0  0  0  0  0  0  0  0
  -29.9986  -18.9141   20.2276 C   0  0  0  0  0  0  0  0  0  0  0  0
  -24.1620  -10.5029   21.4646 C   0  0  0  0  0  0  0  0  0  0  0  0
  -24.0593  -12.9577   20.7782 C   0  0  0  0  0  0  0  0  0  0  0  0
  -35.5080  -31.4500   24.2658 C   0  0  0  0  0  0  0  0  0  0  0  0
  -29.5689  -30.9064   21.3324 C   0  0  0  0  0  0  0  0  0  0  0  0
  -34.3422  -30.7192   23.9674 C   0  0  0  0  0  0  0  0  0  0  0  0
  -28.0713  -20.4842   21.3476 C   0  0  0  0  0  0  0  0  0  0  0  0
  -28.4800  -30.2774   21.9527 C   0  0  0  0  0  0  0  0  0  0  0  0
  -29.1132  -18.3216   21.1059 C   0  0  0  0  0  0  0  0  0  0  0  0
  -23.0517   -8.0944   22.3298 C   0  0  0  0  0  0  0  0  0  0  0  0
  -28.4751  -28.5888   20.2038 C   0  0  0  0  0  0  0  0  0  0  0  0
  -21.3389   -6.4959   22.1463 C   0  0  0  0  0  0  0  0  0  0  0  0
  -18.9781   -5.6447   20.9279 C   0  0  0  0  0  0  0  0  0  0  0  0
  -21.3026   -5.2750   21.4727 C   0  0  0  0  0  0  0  0  0  0  0  0
  -24.7361  -11.7469   21.0183 C   0  0  0  0  0  0  0  0  0  0  0  0
  -28.9987  -21.0033   20.4325 C   0  0  0  0  0  0  0  0  0  0  0  0
  -25.0433  -13.8269   20.3748 C   0  0  0  0  0  0  0  0  0  0  0  0
  -22.6658  -13.2689   20.9081 C   0  0  0  0  0  0  0  0  0  0  0  0
  -30.7262  -31.4261   24.2469 C   0  0  0  0  0  0  0  0  0  0  0  0
  -27.8486  -32.8492   24.7123 C   0  0  0  0  0  0  0  0  0  0  0  0
  -24.5722  -33.1267   23.7988 C   0  0  0  0  0  0  0  0  0  0  0  0
  -30.1296  -16.0233   20.9302 C   0  0  0  0  0  0  0  0  0  0  0  0
  -35.5946  -32.3461   25.4759 C   0  0  0  0  0  0  0  0  0  0  0  0
  -30.1483  -32.1694   21.9083 C   0  0  0  0  0  0  0  0  0  0  0  0
  -26.9931  -21.3526   21.9377 C   0  0  0  0  0  0  0  0  0  0  0  0
  -27.8729  -30.8131   23.2226 C   0  0  0  0  0  0  0  0  0  0  0  0
  -34.2328  -32.7190   26.0563 C   0  0  0  0  0  0  0  0  0  0  0  0
  -27.3746  -22.8304   21.8769 C   0  0  0  0  0  0  0  0  0  0  0  0
  -29.8686  -12.9788   19.1025 C   0  0  0  0  0  0  0  0  0  0  0  0
  -33.3462  -31.4833   26.1742 C   0  0  0  0  0  0  0  0  0  0  0  0
  -28.4544  -12.4865   19.4182 C   0  0  0  0  0  0  0  0  0  0  0  0
  -30.5193  -13.6482   20.3117 C   0  0  0  0  0  0  0  0  0  0  0  0
  -28.3139  -14.2287   21.2436 C   0  0  0  0  0  0  0  0  0  0  0  0
  -33.0851  -30.8584   24.7984 C   0  0  1  0  0  0  0  0  0  0  0  0
  -29.8724  -32.3272   23.4004 C   0  0  1  0  0  0  0  0  0  0  0  0
  -27.5933  -13.6051   20.0372 C   0  0  2  0  0  0  0  0  0  0  0  0
  -27.8529  -23.2030   20.4704 C   0  0  1  0  0  0  0  0  0  0  0  0
  -22.4594  -34.3461   24.3876 C   0  0  0  0  0  0  0  0  0  0  0  0
  -27.4975  -31.0560   27.1559 C   0  0  0  0  0  0  0  0  0  0  0  0
  -25.0576  -31.6167   27.1302 C   0  0  0  0  0  0  0  0  0  0  0  0
  -26.7462  -33.4193   27.4796 C   0  0  0  0  0  0  0  0  0  0  0  0
  -24.4032  -34.3669   21.1170 C   0  0  0  0  0  0  0  0  0  0  0  0
  -28.2962  -24.6610   20.4145 C   0  0  0  0  0  0  0  0  0  0  0  0
  -28.3416  -25.1774   18.9792 C   0  0  0  0  0  0  0  0  0  0  0  0
  -28.8258  -26.6200   18.9166 C   0  0  0  0  0  0  0  0  0  1  0  0
  -26.4916  -32.3873   25.1857 C   0  0  1  0  0  0  0  0  0  0  0  0
  -23.7049  -34.3398   23.5149 C   0  0  2  0  0  0  0  0  0  0  0  0
  -26.4607  -32.1084   26.7150 C   0  0  0  0  0  0  0  0  0  0  0  0
  -29.9635  -20.2213   19.8830 N   0  0  0  0  0  0  0  0  0  0  0  0
  -26.0485  -11.8350   20.7867 N   0  0  0  0  0  0  0  0  0  0  0  0
  -26.2044  -13.1116   20.3967 N   0  0  0  0  0  0  0  0  0  0  0  0
  -28.9607  -22.3460   20.0791 N   0  0  0  0  0  0  0  0  0  0  0  0
  -28.4784  -32.0470   23.7502 N   0  0  0  0  0  0  0  0  0  0  0  0
  -29.6486  -14.6998   20.8420 N   0  0  0  0  0  0  0  0  0  0  0  0
  -25.0200  -15.1256   20.0071 N   0  0  0  0  0  0  0  0  0  0  0  0
  -21.7925  -12.2590   21.3345 N   0  0  0  0  0  0  0  0  0  0  0  0
  -29.2019  -16.9425   21.4189 N   0  0  0  0  0  0  0  0  0  0  0  0
  -32.0844  -31.6180   24.0800 N   0  0  0  0  0  0  0  0  0  0  0  0
  -25.5387  -33.3996   24.7436 N   0  0  0  0  0  0  0  0  0  0  0  0
  -23.2782  -34.3489   22.0871 N   0  3  0  0  0  0  0  0  0  0  0  0
  -22.2060  -14.4044   20.6380 O   0  0  0  0  0  0  0  0  0  0  0  0
  -30.1922  -30.6176   24.9972 O   0  0  0  0  0  0  0  0  0  0  0  0
  -28.3290  -33.8874   25.1739 O   0  0  0  0  0  0  0  0  0  0  0  0
  -24.4063  -32.0441   23.2412 O   0  0  0  0  0  0  0  0  0  0  0  0
  -31.2709  -16.3243   20.5712 O   0  0  0  0  0  0  0  0  0  0  0  0
  -22.5098   -6.9195   22.7524 O   0  0  0  0  0  0  0  0  0  0  0  0
  -27.9440  -27.4598   19.6606 O   0  0  0  0  0  0  0  0  0  1  0  0
  -17.8441   -5.2355   20.3443 F   0  0  0  0  0  0  0  0  0  0  0  0
  -22.3983   -4.5061   21.4085 F   0  0  0  0  0  0  0  0  0  0  0  0
  1  2  1  0  0  0  0
  1  5  2  0  0  0  0
  2  6  2  0  0  0  0
  3  8  2  0  0  0  0
  3 17  1  0  0  0  0
  4  9  1  0  0  0  0
  4 17  2  0  0  0  0
  5 19  1  0  0  0  0
  6 21  1  0  0  0  0
  7 10  2  0  0  0  0
  7 20  1  0  0  0  0
  8 25  1  0  0  0  0
  9 25  2  0  0  0  0
 10 26  1  0  0  0  0
 11 12  2  0  0  0  0
 11 27  1  0  0  0  0
 12 28  1  0  0  0  0
 13 22  1  0  0  0  0
 13 24  2  0  0  0  0
 14 23  1  0  0  0  0
 14 26  2  0  0  0  0
 15 28  2  0  0  0  0
 15 29  1  0  0  0  0
 16 24  1  0  0  0  0
 16 64  2  0  0  0  0
 17 30  1  0  0  0  0
 18 30  1  0  0  0  0
 18 32  2  0  0  0  0
 18 33  1  0  0  0  0
 19 21  2  0  0  0  0
 19 38  1  0  0  0  0
 20 23  2  0  0  0  0
 20 39  1  0  0  0  0
 21 49  1  0  0  0  0
 22 31  2  0  0  0  0
 22 40  1  0  0  0  0
 23 41  1  0  0  0  0
 24 72  1  0  0  0  0
 25 81  1  0  0  0  0
 26 82  1  0  0  0  0
 27 29  2  0  0  0  0
 27 81  1  0  0  0  0
 28 83  1  0  0  0  0
 29 84  1  0  0  0  0
 30 65  2  0  0  0  0
 31 64  1  0  0  0  0
 31 67  1  0  0  0  0
 32 66  1  0  0  0  0
 32 70  1  0  0  0  0
 33 71  1  0  0  0  0
 33 76  2  0  0  0  0
 34 50  1  0  0  0  0
 34 73  1  0  0  0  0
 34 77  2  0  0  0  0
 35 61  1  0  0  0  0
 35 68  1  0  0  0  0
 35 78  2  0  0  0  0
 36 62  1  0  0  0  0
 36 74  1  0  0  0  0
 36 79  2  0  0  0  0
 37 69  1  0  0  0  0
 37 72  1  0  0  0  0
 37 80  2  0  0  0  0
 38 42  1  0  0  0  0
 39 50  1  0  0  0  0
 40 43  1  0  0  0  0
 41 68  1  0  0  0  0
 42 45  1  0  0  0  0
 43 52  1  0  0  0  0
 44 46  1  0  0  0  0
 44 47  1  0  0  0  0
 45 49  1  0  0  0  0
 46 51  1  0  0  0  0
 47 69  1  0  0  0  0
 48 51  1  0  0  0  0
 48 69  1  0  0  0  0
 49 73  1  0  0  0  0
 50 68  1  0  0  0  0
 51 66  1  0  0  0  0
 52 58  1  0  0  0  0
 52 67  1  0  0  0  0
 53 62  1  0  0  0  0
 54 63  1  0  0  0  0
 55 63  1  0  0  0  0
 56 63  1  0  0  0  0
 57 75  1  0  0  0  0
 58 59  1  0  0  0  0
 59 60  1  0  0  0  0
 60 82  1  0  0  0  0
 61 63  1  0  0  0  0
 61 74  1  0  0  0  0
 62 75  1  0  0  0  0
 65 66  1  0  0  0  0
M  CHG  1  75   1
M  ISO  4  37 100  60 101  72 100  82 101
M  END
> <Batch ID>
0165

> <Smiles>
CNC(C)C(=O)NC(C(=O)N1Cc2cc([101O:1][101CH2:1]CCC3CCc4cc([100NH:0][100C:0](=O)N5CCCC(n6nc(-c7ccc(Oc8ccc(F)cc8F)cc7)c(C(N)=O)c6N)C5)cnc4N3)ccc2CC1C(=O)NC1CCCc2ccccc21)C(C)(C)C

> <Shape>
0.286

> <Color>
0.160

> <Negative vol penalty>
0.000

$$$$

  -OEChem-04052304053D

 86 94  0     1  0  0  0  0  0999 V2000
  -27.1191  -34.8519   22.4871 C   0  0  0  0  0  0  0  0  0  0  0  0
  -27.4240  -33.4962   22.4193 C   0  0  0  0  0  0  0  0  0  0  0  0
  -32.0201  -18.9699   20.9179 C   0  0  0  0  0  0  0  0  0  0  0  0
  -23.2772   -9.7141   20.2817 C   0  0  0  0  0  0  0  0  0  0  0  0
  -23.8954  -10.1415   22.5778 C   0  0  0  0  0  0  0  0  0  0  0  0
  -25.8866  -35.2636   22.9925 C   0  0  0  0  0  0  0  0  0  0  0  0
  -26.4969  -32.5514   22.8579 C   0  0  0  0  0  0  0  0  0  0  0  0
  -25.5281  -26.9787   20.5102 C   0  0  0  0  0  0  0  0  0  0  0  0
  -32.1332  -17.6874   21.4547 C   0  0  0  0  0  0  0  0  0  0  0  0
  -30.8748  -19.7286   21.1597 C   0  0  0  0  0  0  0  0  0  0  0  0
  -22.5904   -8.5673   20.6801 C   0  0  0  0  0  0  0  0  0  0  0  0
  -23.2086   -8.9947   22.9762 C   0  0  0  0  0  0  0  0  0  0  0  0
  -25.9666  -25.7112   20.8910 C   0  0  0  0  0  0  0  0  0  0  0  0
  -20.0039   -8.0823   23.5400 C   0  0  0  0  0  0  0  0  0  0  0  0
  -19.1814   -8.1784   24.6624 C   0  0  0  0  0  0  0  0  0  0  0  0
  -23.9034  -25.3649   22.0920 C   0  0  0  0  0  0  0  0  0  0  0  0
  -20.4905   -6.4748   25.7675 C   0  0  0  0  0  0  0  0  0  0  0  0
  -23.9298  -10.5012   21.2306 C   0  0  0  0  0  0  0  0  0  0  0  0
  -29.9558  -17.9223   22.4748 C   0  0  0  0  0  0  0  0  0  0  0  0
  -24.1255  -12.9920   20.7152 C   0  0  0  0  0  0  0  0  0  0  0  0
  -24.9401  -34.3229   23.4285 C   0  0  0  0  0  0  0  0  0  0  0  0
  -24.2764  -27.4539   20.9272 C   0  0  0  0  0  0  0  0  0  0  0  0
  -25.2511  -32.9510   23.3708 C   0  0  0  0  0  0  0  0  0  0  0  0
  -23.4503  -26.6377   21.7130 C   0  0  0  0  0  0  0  0  0  0  0  0
  -31.1011  -17.1636   22.2331 C   0  0  0  0  0  0  0  0  0  0  0  0
  -29.8427  -19.2048   21.9381 C   0  0  0  0  0  0  0  0  0  0  0  0
  -22.5561   -8.2076   22.0273 C   0  0  0  0  0  0  0  0  0  0  0  0
  -25.1555  -24.9052   21.6844 C   0  0  0  0  0  0  0  0  0  0  0  0
  -21.0697   -7.1824   23.5312 C   0  0  0  0  0  0  0  0  0  0  0  0
  -19.4247   -7.3747   25.7762 C   0  0  0  0  0  0  0  0  0  0  0  0
  -21.3130   -6.3787   24.6450 C   0  0  0  0  0  0  0  0  0  0  0  0
  -24.6399  -11.6857   20.8196 C   0  0  0  0  0  0  0  0  0  0  0  0
  -25.1904  -13.7473   20.2888 C   0  0  0  0  0  0  0  0  0  0  0  0
  -28.8779  -17.3693   23.2897 C   0  0  0  0  0  0  0  0  0  0  0  0
  -22.8033  -13.4791   20.9801 C   0  0  0  0  0  0  0  0  0  0  0  0
  -23.2817  -29.8973   22.7002 C   0  0  0  0  0  0  0  0  0  0  0  0
  -27.1907  -21.8561   22.0785 C   0  0  0  0  0  0  0  0  0  0  0  0
  -20.3479  -28.8739   21.7687 C   0  0  0  0  0  0  0  0  0  0  0  0
  -18.3949  -26.3091   20.6487 C   0  0  0  0  0  0  0  0  0  0  0  0
  -30.9270  -14.1591   20.9493 C   0  0  0  0  0  0  0  0  0  0  0  0
  -23.6399  -34.8178   24.0110 C   0  0  0  0  0  0  0  0  0  0  0  0
  -23.8068  -28.8129   20.4857 C   0  0  0  0  0  0  0  0  0  0  0  0
  -22.0894  -27.0931   22.1702 C   0  0  0  0  0  0  0  0  0  0  0  0
  -22.5653  -33.7379   24.1068 C   0  0  0  0  0  0  0  0  0  0  0  0
  -29.4693  -12.7661   18.0148 C   0  0  0  0  0  0  0  0  0  0  0  0
  -23.1456  -32.4585   24.7012 C   0  0  0  0  0  0  0  0  0  0  0  0
  -28.0275  -12.4669   18.4292 C   0  0  0  0  0  0  0  0  0  0  0  0
  -30.4491  -12.5151   19.1590 C   0  0  0  0  0  0  0  0  0  0  0  0
  -28.6831  -12.9152   20.8309 C   0  0  0  0  0  0  0  0  0  0  0  0
  -24.2619  -31.8948   23.8138 C   0  0  1  0  0  0  0  0  0  0  0  0
  -22.7303  -29.3975   21.3949 C   0  0  1  0  0  0  0  0  0  0  0  0
  -27.6521  -13.2070   19.7272 C   0  0  2  0  0  0  0  0  0  0  0  0
  -28.9366  -17.6156   24.7667 C   0  0  0  0  0  0  0  0  0  0  0  0
  -16.0283  -25.7672   20.0141 C   0  0  0  0  0  0  0  0  0  0  0  0
  -19.5791  -28.7863   24.7201 C   0  0  0  0  0  0  0  0  0  0  0  0
  -17.6102  -27.3724   24.0936 C   0  0  0  0  0  0  0  0  0  0  0  0
  -17.8076  -29.6958   23.2072 C   0  0  0  0  0  0  0  0  0  0  0  0
  -19.1729  -25.6217   17.8772 C   0  0  0  0  0  0  0  0  0  0  0  0
  -31.2519  -15.7869   22.7942 C   0  0  0  0  0  0  0  0  0  0  0  0
  -28.5326  -21.3076   21.6420 C   0  0  0  0  0  0  0  0  0  0  0  0
  -26.8701  -23.2593   21.6014 C   0  0  0  0  0  0  0  0  0  1  0  0
  -19.3362  -27.8929   22.3100 C   0  0  1  0  0  0  0  0  0  0  0  0
  -17.3882  -26.2304   19.5152 C   0  0  2  0  0  0  0  0  0  0  0  0
  -18.6097  -28.4287   23.5759 C   0  0  0  0  0  0  0  0  0  0  0  0
  -25.9311  -11.6118   20.4862 N   0  0  0  0  0  0  0  0  0  0  0  0
  -26.2371  -12.8812   20.1680 N   0  0  0  0  0  0  0  0  0  0  0  0
  -21.6776  -28.4322   21.7178 N   0  0  0  0  0  0  0  0  0  0  0  0
  -30.0369  -13.2466   20.3594 N   0  0  0  0  0  0  0  0  0  0  0  0
  -25.3243  -15.0611   20.0089 N   0  0  0  0  0  0  0  0  0  0  0  0
  -21.8294  -12.5679   21.4111 N   0  0  0  0  0  0  0  0  0  0  0  0
  -28.7130  -19.9777   22.1655 N   0  0  0  0  0  0  0  0  0  0  0  0
  -23.7006  -31.2137   22.6668 N   0  0  0  0  0  0  0  0  0  0  0  0
  -18.4449  -27.5717   21.2005 N   0  0  0  0  0  0  0  0  0  0  0  0
  -30.4551  -14.8145   22.0800 N   0  0  0  0  0  0  0  0  0  0  0  0
  -17.8565  -25.2748   18.4719 N   0  3  0  0  0  0  0  0  0  0  0  0
  -27.9333  -16.7152   22.8519 O   0  0  0  0  0  0  0  0  0  0  0  0
  -22.4903  -14.6836   20.8230 O   0  0  0  0  0  0  0  0  0  0  0  0
  -23.3227  -29.1448   23.6665 O   0  0  0  0  0  0  0  0  0  0  0  0
  -26.4044  -21.2150   22.7747 O   0  0  0  0  0  0  0  0  0  0  0  0
  -19.9712  -29.9884   21.3978 O   0  0  0  0  0  0  0  0  0  0  0  0
  -19.0668  -25.3459   21.0109 O   0  0  0  0  0  0  0  0  0  0  0  0
  -32.0565  -14.3778   20.4984 O   0  0  0  0  0  0  0  0  0  0  0  0
  -21.8858   -7.0887   22.4164 O   0  0  0  0  0  0  0  0  0  0  0  0
  -25.5814  -23.6679   22.0580 O   0  0  0  0  0  0  0  0  0  1  0  0
  -18.6358   -7.4682   26.8546 F   0  0  0  0  0  0  0  0  0  0  0  0
  -22.3361   -5.5132   24.6430 F   0  0  0  0  0  0  0  0  0  0  0  0
  1  2  1  0  0  0  0
  1  6  2  0  0  0  0
  2  7  2  0  0  0  0
  3  9  1  0  0  0  0
  3 10  2  0  0  0  0
  4 11  2  0  0  0  0
  4 18  1  0  0  0  0
  5 12  1  0  0  0  0
  5 18  2  0  0  0  0
  6 21  1  0  0  0  0
  7 23  1  0  0  0  0
  8 13  2  0  0  0  0
  8 22  1  0  0  0  0
  9 25  2  0  0  0  0
 10 26  1  0  0  0  0
 11 27  1  0  0  0  0
 12 27  2  0  0  0  0
 13 28  1  0  0  0  0
 14 15  2  0  0  0  0
 14 29  1  0  0  0  0
 15 30  1  0  0  0  0
 16 24  1  0  0  0  0
 16 28  2  0  0  0  0
 17 30  2  0  0  0  0
 17 31  1  0  0  0  0
 18 32  1  0  0  0  0
 19 25  1  0  0  0  0
 19 26  2  0  0  0  0
 19 34  1  0  0  0  0
 20 32  1  0  0  0  0
 20 33  2  0  0  0  0
 20 35  1  0  0  0  0
 21 23  2  0  0  0  0
 21 41  1  0  0  0  0
 22 24  2  0  0  0  0
 22 42  1  0  0  0  0
 23 50  1  0  0  0  0
 24 43  1  0  0  0  0
 25 59  1  0  0  0  0
 26 71  1  0  0  0  0
 27 83  1  0  0  0  0
 28 84  1  0  0  0  0
 29 31  2  0  0  0  0
 29 83  1  0  0  0  0
 30 85  1  0  0  0  0
 31 86  1  0  0  0  0
 32 65  2  0  0  0  0
 33 66  1  0  0  0  0
 33 69  1  0  0  0  0
 34 53  1  0  0  0  0
 34 76  2  0  0  0  0
 35 70  1  0  0  0  0
 35 77  2  0  0  0  0
 36 51  1  0  0  0  0
 36 72  1  0  0  0  0
 36 78  2  0  0  0  0
 37 60  1  0  0  0  0
 37 61  1  0  0  0  0
 37 79  2  0  0  0  0
 38 62  1  0  0  0  0
 38 67  1  0  0  0  0
 38 80  2  0  0  0  0
 39 63  1  0  0  0  0
 39 73  1  0  0  0  0
 39 81  2  0  0  0  0
 40 68  1  0  0  0  0
 40 74  1  0  0  0  0
 40 82  2  0  0  0  0
 41 44  1  0  0  0  0
 42 51  1  0  0  0  0
 43 67  1  0  0  0  0
 44 46  1  0  0  0  0
 45 47  1  0  0  0  0
 45 48  1  0  0  0  0
 46 50  1  0  0  0  0
 47 52  1  0  0  0  0
 48 68  1  0  0  0  0
 49 52  1  0  0  0  0
 49 68  1  0  0  0  0
 50 72  1  0  0  0  0
 51 67  1  0  0  0  0
 52 66  1  0  0  0  0
 54 63  1  0  0  0  0
 55 64  1  0  0  0  0
 56 64  1  0  0  0  0
 57 64  1  0  0  0  0
 58 75  1  0  0  0  0
 59 74  1  0  0  0  0
 60 71  1  0  0  0  0
 61 84  1  0  0  0  0
 62 64  1  0  0  0  0
 62 73  1  0  0  0  0
 63 75  1  0  0  0  0
 65 66  1  0  0  0  0
M  CHG  1  75   1
M  ISO  4  40 100  61 101  74 100  84 101
M  END
> <Batch ID>
0165

> <Smiles>
CNC(C)C(=O)NC(C(=O)N1Cc2cc([101O:1][101CH2:1]C(=O)CNc3cccc(C[100NH:0][100C:0](=O)N4CCCC(n5nc(-c6ccc(Oc7ccc(F)cc7F)cc6)c(C(N)=O)c5N)C4)c3C(C)=O)ccc2CC1C(=O)NC1CCCc2ccccc21)C(C)(C)C

> <Shape>
0.341

> <Color>
0.183

> <Negative vol penalty>
0.000

$$$$

  -OEChem-04052304053D

 85 93  0     1  0  0  0  0  0999 V2000
  -30.0010  -35.3982   26.4816 C   0  0  0  0  0  0  0  0  0  0  0  0
  -29.7144  -34.0433   26.6139 C   0  0  0  0  0  0  0  0  0  0  0  0
  -23.4000   -9.7004   19.9150 C   0  0  0  0  0  0  0  0  0  0  0  0
  -23.8830   -9.9244   22.2716 C   0  0  0  0  0  0  0  0  0  0  0  0
  -29.1367  -19.6926   23.2467 C   0  0  0  0  0  0  0  0  0  0  0  0
  -29.0745  -36.2502   25.8819 C   0  0  0  0  0  0  0  0  0  0  0  0
  -28.5006  -33.5398   26.1474 C   0  0  0  0  0  0  0  0  0  0  0  0
  -29.0536  -29.2182   23.5661 C   0  0  0  0  0  0  0  0  0  0  0  0
  -22.7573   -8.4874   20.1620 C   0  0  0  0  0  0  0  0  0  0  0  0
  -23.2403   -8.7113   22.5186 C   0  0  0  0  0  0  0  0  0  0  0  0
  -29.2434  -28.0532   24.3081 C   0  0  0  0  0  0  0  0  0  0  0  0
  -20.0658   -7.5921   22.8188 C   0  0  0  0  0  0  0  0  0  0  0  0
  -19.1862   -7.5348   23.8998 C   0  0  0  0  0  0  0  0  0  0  0  0
  -28.8475  -18.3904   22.8545 C   0  0  0  0  0  0  0  0  0  0  0  0
  -26.9142  -27.4964   24.0186 C   0  0  0  0  0  0  0  0  0  0  0  0
  -20.5301   -5.7945   24.9010 C   0  0  0  0  0  0  0  0  0  0  0  0
  -23.9629  -10.4190   20.9698 C   0  0  0  0  0  0  0  0  0  0  0  0
  -30.3848  -20.2368   22.9644 C   0  0  0  0  0  0  0  0  0  0  0  0
  -24.0492  -12.9554   20.7119 C   0  0  0  0  0  0  0  0  0  0  0  0
  -27.8528  -35.7552   25.3991 C   0  0  0  0  0  0  0  0  0  0  0  0
  -27.7880  -29.5370   23.0532 C   0  0  0  0  0  0  0  0  0  0  0  0
  -27.5564  -34.3862   25.5419 C   0  0  0  0  0  0  0  0  0  0  0  0
  -26.7115  -28.6647   23.2683 C   0  0  0  0  0  0  0  0  0  0  0  0
  -22.6775   -7.9928   21.4638 C   0  0  0  0  0  0  0  0  0  0  0  0
  -28.1731  -27.1935   24.5369 C   0  0  0  0  0  0  0  0  0  0  0  0
  -21.1775   -6.7506   22.7788 C   0  0  0  0  0  0  0  0  0  0  0  0
  -19.4184   -6.6360   24.9409 C   0  0  0  0  0  0  0  0  0  0  0  0
  -21.4097   -5.8518   23.8199 C   0  0  0  0  0  0  0  0  0  0  0  0
  -24.6274  -11.6719   20.7152 C   0  0  0  0  0  0  0  0  0  0  0  0
  -29.8327  -17.6798   22.1882 C   0  0  0  0  0  0  0  0  0  0  0  0
  -31.3013  -19.4434   22.2933 C   0  0  0  0  0  0  0  0  0  0  0  0
  -25.0914  -13.8007   20.4188 C   0  0  0  0  0  0  0  0  0  0  0  0
  -30.6843  -21.6289   23.3879 C   0  0  0  0  0  0  0  0  0  0  0  0
  -22.6915  -13.3486   20.9524 C   0  0  0  0  0  0  0  0  0  0  0  0
  -25.7327  -31.9246   23.4760 C   0  0  0  0  0  0  0  0  0  0  0  0
  -29.5425  -23.9474   25.3748 C   0  0  0  0  0  0  0  0  0  0  0  0
  -24.1143  -30.4370   21.0906 C   0  0  0  0  0  0  0  0  0  0  0  0
  -23.4826  -27.5538   19.3775 C   0  0  0  0  0  0  0  0  0  0  0  0
  -30.3600  -15.4615   21.1167 C   0  0  0  0  0  0  0  0  0  0  0  0
  -26.8629  -36.7231   24.8008 C   0  0  0  0  0  0  0  0  0  0  0  0
  -27.6056  -30.7841   22.2322 C   0  0  0  0  0  0  0  0  0  0  0  0
  -25.3374  -28.9511   22.7221 C   0  0  0  0  0  0  0  0  0  0  0  0
  -25.7581  -36.0443   23.9953 C   0  0  0  0  0  0  0  0  0  0  0  0
  -29.7883  -12.8058   18.8151 C   0  0  0  0  0  0  0  0  0  0  0  0
  -25.1854  -34.8598   24.7672 C   0  0  0  0  0  0  0  0  0  0  0  0
  -28.3471  -12.3797   19.1040 C   0  0  0  0  0  0  0  0  0  0  0  0
  -30.5283  -13.2046   20.0907 C   0  0  0  0  0  0  0  0  0  0  0  0
  -28.4082  -13.7885   21.2012 C   0  0  0  0  0  0  0  0  0  0  0  0
  -26.2610  -33.7979   25.0260 C   0  0  1  0  0  0  0  0  0  0  0  0
  -26.1593  -31.2679   22.1937 C   0  0  1  0  0  0  0  0  0  0  0  0
  -27.6025  -13.4398   19.9391 C   0  0  2  0  0  0  0  0  0  0  0  0
  -22.0839  -26.6415   17.5043 C   0  0  0  0  0  0  0  0  0  0  0  0
  -21.6720  -30.4331   22.9196 C   0  0  0  0  0  0  0  0  0  0  0  0
  -20.6377  -28.7165   21.4190 C   0  0  0  0  0  0  0  0  0  0  0  0
  -21.1841  -30.9818   20.5289 C   0  0  0  0  0  0  0  0  0  0  0  0
  -25.8734  -26.8052   17.8018 C   0  0  0  0  0  0  0  0  0  0  0  0
  -30.8485  -23.1844   25.3139 C   0  0  0  0  0  0  0  0  0  0  0  0
  -29.6460  -25.4498   25.2044 C   0  0  0  0  0  0  0  0  0  1  0  0
  -23.0588  -29.3596   21.0248 C   0  0  1  0  0  0  0  0  0  0  0  0
  -23.4189  -27.2595   17.8896 C   0  0  2  0  0  0  0  0  0  0  0  0
  -21.6635  -29.8680   21.4852 C   0  0  0  0  0  0  0  0  0  0  0  0
  -25.9353  -11.6947   20.4455 N   0  0  0  0  0  0  0  0  0  0  0  0
  -31.0566  -18.1745   21.8964 N   0  0  0  0  0  0  0  0  0  0  0  0
  -26.1877  -13.0030   20.2698 N   0  0  0  0  0  0  0  0  0  0  0  0
  -25.2082  -30.1860   21.9310 N   0  0  0  0  0  0  0  0  0  0  0  0
  -29.7659  -14.2148   20.8276 N   0  0  0  0  0  0  0  0  0  0  0  0
  -32.5760  -19.9909   22.0025 N   0  0  0  0  0  0  0  0  0  0  0  0
  -25.1679  -15.1409   20.2765 N   0  0  0  0  0  0  0  0  0  0  0  0
  -21.7484  -12.3524   21.2396 N   0  0  0  0  0  0  0  0  0  0  0  0
  -29.5282  -16.3536   21.7929 N   0  0  0  0  0  0  0  0  0  0  0  0
  -30.6109  -21.8872   24.7544 N   0  0  0  0  0  0  0  0  0  0  0  0
  -26.4995  -33.0182   23.8303 N   0  0  0  0  0  0  0  0  0  0  0  0
  -23.0866  -28.8439   19.6604 N   0  0  0  0  0  0  0  0  0  0  0  0
  -24.5038  -26.3143   17.5016 N   0  3  0  0  0  0  0  0  0  0  0  0
  -30.9554  -22.4703   22.5352 O   0  0  0  0  0  0  0  0  0  0  0  0
  -22.3223  -14.5461   20.8975 O   0  0  0  0  0  0  0  0  0  0  0  0
  -24.7775  -31.4735   24.0972 O   0  0  0  0  0  0  0  0  0  0  0  0
  -28.4672  -23.3932   25.6015 O   0  0  0  0  0  0  0  0  0  0  0  0
  -23.9768  -31.4603   20.4157 O   0  0  0  0  0  0  0  0  0  0  0  0
  -23.8438  -26.7212   20.2062 O   0  0  0  0  0  0  0  0  0  0  0  0
  -31.5118  -15.7288   20.7648 O   0  0  0  0  0  0  0  0  0  0  0  0
  -22.0502   -6.8092   21.7052 O   0  0  0  0  0  0  0  0  0  0  0  0
  -28.3555  -26.0561   25.2613 O   0  0  0  0  0  0  0  0  0  1  0  0
  -18.5745   -6.5821   25.9797 F   0  0  0  0  0  0  0  0  0  0  0  0
  -22.4766   -5.0416   23.7876 F   0  0  0  0  0  0  0  0  0  0  0  0
  1  2  1  0  0  0  0
  1  6  2  0  0  0  0
  2  7  2  0  0  0  0
  3  9  2  0  0  0  0
  3 17  1  0  0  0  0
  4 10  1  0  0  0  0
  4 17  2  0  0  0  0
  5 14  2  0  0  0  0
  5 18  1  0  0  0  0
  6 20  1  0  0  0  0
  7 22  1  0  0  0  0
  8 11  2  0  0  0  0
  8 21  1  0  0  0  0
  9 24  1  0  0  0  0
 10 24  2  0  0  0  0
 11 25  1  0  0  0  0
 12 13  2  0  0  0  0
 12 26  1  0  0  0  0
 13 27  1  0  0  0  0
 14 30  1  0  0  0  0
 15 23  1  0  0  0  0
 15 25  2  0  0  0  0
 16 27  2  0  0  0  0
 16 28  1  0  0  0  0
 17 29  1  0  0  0  0
 18 31  2  0  0  0  0
 18 33  1  0  0  0  0
 19 29  1  0  0  0  0
 19 32  2  0  0  0  0
 19 34  1  0  0  0  0
 20 22  2  0  0  0  0
 20 40  1  0  0  0  0
 21 23  2  0  0  0  0
 21 41  1  0  0  0  0
 22 49  1  0  0  0  0
 23 42  1  0  0  0  0
 24 82  1  0  0  0  0
 25 83  1  0  0  0  0
 26 28  2  0  0  0  0
 26 82  1  0  0  0  0
 27 84  1  0  0  0  0
 28 85  1  0  0  0  0
 29 62  2  0  0  0  0
 30 63  2  0  0  0  0
 30 70  1  0  0  0  0
 31 63  1  0  0  0  0
 31 67  1  0  0  0  0
 32 64  1  0  0  0  0
 32 68  1  0  0  0  0
 33 71  1  0  0  0  0
 33 75  2  0  0  0  0
 34 69  1  0  0  0  0
 34 76  2  0  0  0  0
 35 50  1  0  0  0  0
 35 72  1  0  0  0  0
 35 77  2  0  0  0  0
 36 57  1  0  0  0  0
 36 58  1  0  0  0  0
 36 78  2  0  0  0  0
 37 59  1  0  0  0  0
 37 65  1  0  0  0  0
 37 79  2  0  0  0  0
 38 60  1  0  0  0  0
 38 73  1  0  0  0  0
 38 80  2  0  0  0  0
 39 66  1  0  0  0  0
 39 70  1  0  0  0  0
 39 81  2  0  0  0  0
 40 43  1  0  0  0  0
 41 50  1  0  0  0  0
 42 65  1  0  0  0  0
 43 45  1  0  0  0  0
 44 46  1  0  0  0  0
 44 47  1  0  0  0  0
 45 49  1  0  0  0  0
 46 51  1  0  0  0  0
 47 66  1  0  0  0  0
 48 51  1  0  0  0  0
 48 66  1  0  0  0  0
 49 72  1  0  0  0  0
 50 65  1  0  0  0  0
 51 64  1  0  0  0  0
 52 60  1  0  0  0  0
 53 61  1  0  0  0  0
 54 61  1  0  0  0  0
 55 61  1  0  0  0  0
 56 74  1  0  0  0  0
 57 71  1  0  0  0  0
 58 83  1  0  0  0  0
 59 61  1  0  0  0  0
 59 73  1  0  0  0  0
 60 74  1  0  0  0  0
 62 64  1  0  0  0  0
M  CHG  1  74   1
M  ISO  4  39 100  58 101  70 100  83 101
M  END
> <Batch ID>
0165

> <Smiles>
CNC(C)C(=O)NC(C(=O)N1Cc2cc([101O:1][101CH2:1]C(=O)CNC(=O)c3ccc([100NH:0][100C:0](=O)N4CCCC(n5nc(-c6ccc(Oc7ccc(F)cc7F)cc6)c(C(N)=O)c5N)C4)nc3N)ccc2CC1C(=O)NC1CCCc2ccccc21)C(C)(C)C

> <Shape>
0.320

> <Color>
0.156

> <Negative vol penalty>
0.000

$$$$

  -OEChem-04052304053D

 87 95  0     1  0  0  0  0  0999 V2000
  -27.6128  -32.8014   27.6231 C   0  0  0  0  0  0  0  0  0  0  0  0
  -27.7795  -31.7359   26.7443 C   0  0  0  0  0  0  0  0  0  0  0  0
  -24.1214   -8.5589   21.2838 C   0  0  0  0  0  0  0  0  0  0  0  0
  -24.9273   -9.5395   23.3395 C   0  0  0  0  0  0  0  0  0  0  0  0
  -26.3488  -33.3602   27.8075 C   0  0  0  0  0  0  0  0  0  0  0  0
  -26.6821  -31.2278   26.0502 C   0  0  0  0  0  0  0  0  0  0  0  0
  -27.6936  -30.3941   21.1587 C   0  0  0  0  0  0  0  0  0  0  0  0
  -24.0596   -7.3107   21.9033 C   0  0  0  0  0  0  0  0  0  0  0  0
  -24.8654   -8.2913   23.9591 C   0  0  0  0  0  0  0  0  0  0  0  0
  -28.4156  -29.2435   20.8449 C   0  0  0  0  0  0  0  0  0  0  0  0
  -21.9872   -5.6804   24.0200 C   0  0  0  0  0  0  0  0  0  0  0  0
  -20.8438   -4.9091   23.8115 C   0  0  0  0  0  0  0  0  0  0  0  0
  -26.3651  -28.1321   20.2289 C   0  0  0  0  0  0  0  0  0  0  0  0
  -28.6361  -18.8727   22.7214 C   0  0  0  0  0  0  0  0  0  0  0  0
  -30.1785  -19.4969   20.9697 C   0  0  0  0  0  0  0  0  0  0  0  0
  -22.1997   -3.1621   22.8384 C   0  0  0  0  0  0  0  0  0  0  0  0
  -24.5553   -9.6733   22.0018 C   0  0  0  0  0  0  0  0  0  0  0  0
  -23.6013  -11.9325   21.2992 C   0  0  0  0  0  0  0  0  0  0  0  0
  -25.2370  -32.8650   27.1080 C   0  0  0  0  0  0  0  0  0  0  0  0
  -26.2984  -30.4189   21.0200 C   0  0  0  0  0  0  0  0  0  0  0  0
  -25.4018  -31.7797   26.2264 C   0  0  0  0  0  0  0  0  0  0  0  0
  -25.6280  -29.2851   20.5391 C   0  0  0  0  0  0  0  0  0  0  0  0
  -29.1282  -17.5679   22.6898 C   0  0  0  0  0  0  0  0  0  0  0  0
  -30.1454  -17.2276   21.7981 C   0  0  0  0  0  0  0  0  0  0  0  0
  -29.1612  -19.8372   21.8613 C   0  0  0  0  0  0  0  0  0  0  0  0
  -24.4315   -7.1769   23.2410 C   0  0  0  0  0  0  0  0  0  0  0  0
  -27.7511  -28.1113   20.3827 C   0  0  0  0  0  0  0  0  0  0  0  0
  -23.2368   -5.1926   23.6376 C   0  0  0  0  0  0  0  0  0  0  0  0
  -20.9501   -3.6500   23.2208 C   0  0  0  0  0  0  0  0  0  0  0  0
  -30.6706  -18.1921   20.9380 C   0  0  0  0  0  0  0  0  0  0  0  0
  -23.3431   -3.9335   23.0469 C   0  0  0  0  0  0  0  0  0  0  0  0
  -24.6199  -10.9628   21.3622 C   0  0  0  0  0  0  0  0  0  0  0  0
  -24.1567  -12.9682   20.5885 C   0  0  0  0  0  0  0  0  0  0  0  0
  -28.1628  -25.8401   20.7611 C   0  0  0  0  0  0  0  0  0  1  0  0
  -22.2720  -11.8999   21.8354 C   0  0  0  0  0  0  0  0  0  0  0  0
  -28.7901  -24.6788   20.5416 C   0  0  0  0  0  0  0  0  0  0  0  0
  -28.4036  -23.4751   21.3427 C   0  0  0  0  0  0  0  0  0  0  0  0
  -23.8533  -30.8259   23.0099 C   0  0  0  0  0  0  0  0  0  0  0  0
  -22.1200  -30.7848   20.2684 C   0  0  0  0  0  0  0  0  0  0  0  0
  -21.8832  -29.8160   17.0046 C   0  0  0  0  0  0  0  0  0  0  0  0
  -29.8081  -14.7373   19.7035 C   0  0  0  0  0  0  0  0  0  0  0  0
  -23.8820  -33.4709   27.3758 C   0  0  0  0  0  0  0  0  0  0  0  0
  -25.5369  -31.6766   21.3373 C   0  0  0  0  0  0  0  0  0  0  0  0
  -24.1334  -29.2669   20.3533 C   0  0  0  0  0  0  0  0  0  0  0  0
  -22.8375  -33.1178   26.3201 C   0  0  0  0  0  0  0  0  0  0  0  0
  -27.4230  -13.8628   17.2088 C   0  0  0  0  0  0  0  0  0  0  0  0
  -22.8770  -31.6251   26.0083 C   0  0  0  0  0  0  0  0  0  0  0  0
  -26.3423  -13.1079   17.9847 C   0  0  0  0  0  0  0  0  0  0  0  0
  -28.8186  -13.5701   17.7554 C   0  0  0  0  0  0  0  0  0  0  0  0
  -27.8964  -13.0445   19.9796 C   0  0  0  0  0  0  0  0  0  0  0  0
  -24.2401  -31.2168   25.4365 C   0  0  1  0  0  0  0  0  0  0  0  0
  -24.0649  -31.4219   21.6470 C   0  0  1  0  0  0  0  0  0  0  0  0
  -26.4671  -13.3512   19.5008 C   0  0  2  0  0  0  0  0  0  0  0  0
  -28.5501  -16.5524   23.6198 C   0  0  0  0  0  0  0  0  0  0  0  0
  -20.3315  -29.8947   15.0340 C   0  0  0  0  0  0  0  0  0  0  0  0
  -20.4139  -28.5907   21.5273 C   0  0  0  0  0  0  0  0  0  0  0  0
  -19.5338  -28.0613   19.2440 C   0  0  0  0  0  0  0  0  0  0  0  0
  -19.1248  -30.3087   20.2463 C   0  0  0  0  0  0  0  0  0  0  0  0
  -23.8318  -31.3443   15.3839 C   0  0  0  0  0  0  0  0  0  0  0  0
  -30.6855  -15.8360   21.7485 C   0  0  0  0  0  0  0  0  0  0  0  0
  -29.1552  -22.1938   21.0416 C   0  0  0  0  0  0  0  0  0  0  0  0
  -21.4475  -29.7133   19.4447 C   0  0  1  0  0  0  0  0  0  0  0  0
  -21.4834  -30.5782   15.7541 C   0  0  2  0  0  0  0  0  0  0  0  0
  -20.1580  -29.1679   20.1208 C   0  0  0  0  0  0  0  0  0  0  0  0
  -25.7377  -11.3480   20.7408 N   0  0  0  0  0  0  0  0  0  0  0  0
  -25.4247  -12.5713   20.2806 N   0  0  0  0  0  0  0  0  0  0  0  0
  -23.4326  -30.5189   20.6832 N   0  0  0  0  0  0  0  0  0  0  0  0
  -28.8701  -13.8224   19.1975 N   0  0  0  0  0  0  0  0  0  0  0  0
  -23.6793  -14.1706   20.2029 N   0  0  0  0  0  0  0  0  0  0  0  0
  -21.8631  -10.7589   22.5391 N   0  0  0  0  0  0  0  0  0  0  0  0
  -28.6726  -21.1346   21.8927 N   0  0  0  0  0  0  0  0  0  0  0  0
  -24.3401  -31.6013   24.0449 N   0  0  0  0  0  0  0  0  0  0  0  0
  -21.2305  -30.2907   18.1226 N   0  0  0  0  0  0  0  0  0  0  0  0
  -29.7855  -14.9225   21.0804 N   0  0  0  0  0  0  0  0  0  0  0  0
  -22.6360  -30.6719   14.8139 N   0  3  0  0  0  0  0  0  0  0  0  0
  -21.4649  -12.8477   21.6805 O   0  0  0  0  0  0  0  0  0  0  0  0
  -27.5209  -23.5368   22.1969 O   0  0  0  0  0  0  0  0  0  0  0  0
  -23.2888  -29.7433   23.1149 O   0  0  0  0  0  0  0  0  0  0  0  0
  -21.5059  -31.8227   20.5279 O   0  0  0  0  0  0  0  0  0  0  0  0
  -22.6908  -28.8897   16.9904 O   0  0  0  0  0  0  0  0  0  0  0  0
  -30.6031  -15.3481   18.9810 O   0  0  0  0  0  0  0  0  0  0  0  0
  -29.7881  -24.5353   19.6020 O   0  0  0  0  0  0  0  0  0  0  0  0
  -24.3711   -5.9592   23.8460 O   0  0  0  0  0  0  0  0  0  0  0  0
  -28.4534  -26.9866   20.0763 O   0  0  0  0  0  0  0  0  0  1  0  0
  -19.8522   -2.9088   23.0220 F   0  0  0  0  0  0  0  0  0  0  0  0
  -31.6481  -17.8753   20.0773 F   0  0  0  0  0  0  0  0  0  0  0  0
  -24.5410   -3.4590   22.6785 F   0  0  0  0  0  0  0  0  0  0  0  0
  1  2  1  0  0  0  0
  1  5  2  0  0  0  0
  2  6  2  0  0  0  0
  3  8  2  0  0  0  0
  3 17  1  0  0  0  0
  4  9  1  0  0  0  0
  4 17  2  0  0  0  0
  5 19  1  0  0  0  0
  6 21  1  0  0  0  0
  7 10  2  0  0  0  0
  7 20  1  0  0  0  0
  8 26  1  0  0  0  0
  9 26  2  0  0  0  0
 10 27  1  0  0  0  0
 11 12  2  0  0  0  0
 11 28  1  0  0  0  0
 12 29  1  0  0  0  0
 13 22  1  0  0  0  0
 13 27  2  0  0  0  0
 14 23  2  0  0  0  0
 14 25  1  0  0  0  0
 15 25  2  0  0  0  0
 15 30  1  0  0  0  0
 16 29  2  0  0  0  0
 16 31  1  0  0  0  0
 17 32  1  0  0  0  0
 18 32  1  0  0  0  0
 18 33  2  0  0  0  0
 18 35  1  0  0  0  0
 19 21  2  0  0  0  0
 19 42  1  0  0  0  0
 20 22  2  0  0  0  0
 20 43  1  0  0  0  0
 21 51  1  0  0  0  0
 22 44  1  0  0  0  0
 23 24  1  0  0  0  0
 23 54  1  0  0  0  0
 24 30  2  0  0  0  0
 24 60  1  0  0  0  0
 25 71  1  0  0  0  0
 26 83  1  0  0  0  0
 27 84  1  0  0  0  0
 28 31  2  0  0  0  0
 28 83  1  0  0  0  0
 29 85  1  0  0  0  0
 30 86  1  0  0  0  0
 31 87  1  0  0  0  0
 32 65  2  0  0  0  0
 33 66  1  0  0  0  0
 33 69  1  0  0  0  0
 34 36  2  0  0  0  0
 34 84  1  0  0  0  0
 35 70  1  0  0  0  0
 35 76  2  0  0  0  0
 36 37  1  0  0  0  0
 36 82  1  0  0  0  0
 37 61  1  0  0  0  0
 37 77  2  0  0  0  0
 38 52  1  0  0  0  0
 38 72  1  0  0  0  0
 38 78  2  0  0  0  0
 39 62  1  0  0  0  0
 39 67  1  0  0  0  0
 39 79  2  0  0  0  0
 40 63  1  0  0  0  0
 40 73  1  0  0  0  0
 40 80  2  0  0  0  0
 41 68  1  0  0  0  0
 41 74  1  0  0  0  0
 41 81  2  0  0  0  0
 42 45  1  0  0  0  0
 43 52  1  0  0  0  0
 44 67  1  0  0  0  0
 45 47  1  0  0  0  0
 46 48  1  0  0  0  0
 46 49  1  0  0  0  0
 47 51  1  0  0  0  0
 48 53  1  0  0  0  0
 49 68  1  0  0  0  0
 50 53  1  0  0  0  0
 50 68  1  0  0  0  0
 51 72  1  0  0  0  0
 52 67  1  0  0  0  0
 53 66  1  0  0  0  0
 55 63  1  0  0  0  0
 56 64  1  0  0  0  0
 57 64  1  0  0  0  0
 58 64  1  0  0  0  0
 59 75  1  0  0  0  0
 60 74  1  0  0  0  0
 61 71  1  0  0  0  0
 62 64  1  0  0  0  0
 62 73  1  0  0  0  0
 63 75  1  0  0  0  0
 65 66  1  0  0  0  0
M  CHG  1  75   1
M  ISO  4  34 101  41 100  74 100  84 101
M  END
> <Batch ID>
0165

> <Smiles>
CNC(C)C(=O)NC(C(=O)N1Cc2cc([101O:1][101CH2:1]C(=O)C(=O)CNc3cc(C)c(C[100NH:0][100C:0](=O)N4CCCC(n5nc(-c6ccc(Oc7ccc(F)cc7F)cc6)c(C(N)=O)c5N)C4)c(F)c3)ccc2CC1C(=O)NC1CCCc2ccccc21)C(C)(C)C

> <Shape>
0.321

> <Color>
0.082

> <Negative vol penalty>
0.000

$$$$

  -OEChem-04052304053D

 90 98  0     1  0  0  0  0  0999 V2000
  -23.6985  -31.7145   13.1730 C   0  0  0  0  0  0  0  0  0  0  0  0
  -23.5468  -30.6298   14.0308 C   0  0  0  0  0  0  0  0  0  0  0  0
  -23.1885   -9.7753   21.4184 C   0  0  0  0  0  0  0  0  0  0  0  0
  -23.8411  -10.7188   23.5447 C   0  0  0  0  0  0  0  0  0  0  0  0
  -24.6678  -32.6810   13.4378 C   0  0  0  0  0  0  0  0  0  0  0  0
  -24.3652  -30.5105   15.1535 C   0  0  0  0  0  0  0  0  0  0  0  0
  -22.8150  -28.2038   20.6108 C   0  0  0  0  0  0  0  0  0  0  0  0
  -22.4913   -8.7649   22.0807 C   0  0  0  0  0  0  0  0  0  0  0  0
  -23.1438   -9.7085   24.2070 C   0  0  0  0  0  0  0  0  0  0  0  0
  -23.0098  -26.9501   21.1888 C   0  0  0  0  0  0  0  0  0  0  0  0
  -23.2115   -5.8621   23.6553 C   0  0  0  0  0  0  0  0  0  0  0  0
  -23.3717   -4.5555   23.1940 C   0  0  0  0  0  0  0  0  0  0  0  0
  -24.9837  -27.7769   22.3022 C   0  0  0  0  0  0  0  0  0  0  0  0
  -28.0104  -20.3640   20.5688 C   0  0  0  0  0  0  0  0  0  0  0  0
  -28.3906  -19.7370   22.8708 C   0  0  0  0  0  0  0  0  0  0  0  0
  -21.0005   -4.4215   22.7502 C   0  0  0  0  0  0  0  0  0  0  0  0
  -23.8634  -10.7522   22.1504 C   0  0  0  0  0  0  0  0  0  0  0  0
  -24.0864  -13.0494   21.0636 C   0  0  0  0  0  0  0  0  0  0  0  0
  -25.4920  -32.5785   14.5696 C   0  0  0  0  0  0  0  0  0  0  0  0
  -23.7107  -29.2522   20.8659 C   0  0  0  0  0  0  0  0  0  0  0  0
  -25.3473  -31.4758   15.4330 C   0  0  0  0  0  0  0  0  0  0  0  0
  -24.7966  -29.0436   21.7282 C   0  0  0  0  0  0  0  0  0  0  0  0
  -28.8933  -19.3680   20.1516 C   0  0  0  0  0  0  0  0  0  0  0  0
  -29.5248  -18.5564   21.0941 C   0  0  0  0  0  0  0  0  0  0  0  0
  -27.7591  -20.5486   21.9284 C   0  0  0  0  0  0  0  0  0  0  0  0
  -22.4689   -8.7315   23.4750 C   0  0  0  0  0  0  0  0  0  0  0  0
  -24.0959  -26.7357   22.0324 C   0  0  0  0  0  0  0  0  0  0  0  0
  -21.9458   -6.4484   23.6641 C   0  0  0  0  0  0  0  0  0  0  0  0
  -22.2662   -3.8352   22.7415 C   0  0  0  0  0  0  0  0  0  0  0  0
  -29.2735  -18.7409   22.4537 C   0  0  0  0  0  0  0  0  0  0  0  0
  -20.8403   -5.7281   23.2115 C   0  0  0  0  0  0  0  0  0  0  0  0
  -24.5843  -11.7959   21.4668 C   0  0  0  0  0  0  0  0  0  0  0  0
  -25.1560  -13.6665   20.4625 C   0  0  0  0  0  0  0  0  0  0  0  0
  -25.0494  -24.6030   21.9182 C   0  0  0  0  0  0  0  0  0  1  0  0
  -22.7743  -13.6062   21.2188 C   0  0  0  0  0  0  0  0  0  0  0  0
  -25.3036  -23.3724   22.3795 C   0  0  0  0  0  0  0  0  0  0  0  0
  -26.1516  -22.4483   21.5578 C   0  0  0  0  0  0  0  0  0  0  0  0
  -25.6668  -31.0147   19.0852 C   0  0  0  0  0  0  0  0  0  0  0  0
  -26.1013  -32.6364   21.8607 C   0  0  0  0  0  0  0  0  0  0  0  0
  -25.9931  -32.6227   25.2717 C   0  0  0  0  0  0  0  0  0  0  0  0
  -30.5689  -15.0220   20.3660 C   0  0  0  0  0  0  0  0  0  0  0  0
  -26.5574  -33.6233   14.7887 C   0  0  0  0  0  0  0  0  0  0  0  0
  -23.4716  -30.6061   20.2558 C   0  0  0  0  0  0  0  0  0  0  0  0
  -25.7757  -30.1418   22.0504 C   0  0  0  0  0  0  0  0  0  0  0  0
  -27.1324  -33.6196   16.2028 C   0  0  0  0  0  0  0  0  0  0  0  0
  -29.6602  -11.8321   19.0717 C   0  0  0  0  0  0  0  0  0  0  0  0
  -27.4604  -32.1961   16.6420 C   0  0  0  0  0  0  0  0  0  0  0  0
  -28.2205  -11.6393   19.5514 C   0  0  0  0  0  0  0  0  0  0  0  0
  -30.5093  -12.5586   20.1125 C   0  0  0  0  0  0  0  0  0  0  0  0
  -28.5124  -13.6488   21.0599 C   0  0  0  0  0  0  0  0  0  0  0  0
  -26.1993  -31.3244   16.6745 C   0  0  1  0  0  0  0  0  0  0  0  0
  -24.7350  -31.4577   20.1775 C   0  0  1  0  0  0  0  0  0  0  0  0
  -27.6030  -12.9702   20.0212 C   0  0  2  0  0  0  0  0  0  0  0  0
  -26.4411  -34.0830   27.2627 C   0  0  0  0  0  0  0  0  0  0  0  0
  -29.4869  -21.6160   18.1128 C   0  0  0  0  0  0  0  0  0  0  0  0
  -31.4782  -20.2539   18.7473 C   0  0  0  0  0  0  0  0  0  0  0  0
  -30.3521  -19.8858   16.5375 C   0  0  0  0  0  0  0  0  0  0  0  0
  -29.1007  -32.2159   21.4911 C   0  0  0  0  0  0  0  0  0  0  0  0
  -29.4122  -32.8244   23.8997 C   0  0  0  0  0  0  0  0  0  0  0  0
  -28.4591  -34.4912   22.3072 C   0  0  0  0  0  0  0  0  0  0  0  0
  -23.1750  -32.4706   26.1631 C   0  0  0  0  0  0  0  0  0  0  0  0
  -29.1464  -19.1885   18.6907 C   0  0  0  0  0  0  0  0  0  0  0  0
  -30.4725  -17.4835   20.6681 C   0  0  0  0  0  0  0  0  0  0  0  0
  -27.0497  -32.5204   23.0295 C   0  0  1  0  0  0  0  0  0  0  0  0
  -25.3981  -33.6049   26.2646 C   0  0  2  0  0  0  0  0  0  0  0  0
  -30.1213  -20.2119   18.0233 C   0  0  0  0  0  0  0  0  0  0  0  0
  -28.4882  -32.9915   22.6745 C   0  0  0  0  0  0  0  0  0  0  0  0
  -25.8702  -11.6252   21.1485 N   0  0  0  0  0  0  0  0  0  0  0  0
  -26.1893  -12.7796   20.5388 N   0  0  0  0  0  0  0  0  0  0  0  0
  -25.5026  -31.4460   21.4244 N   0  0  0  0  0  0  0  0  0  0  0  0
  -29.8689  -13.8133   20.5145 N   0  0  0  0  0  0  0  0  0  0  0  0
  -25.3041  -14.8759   19.8812 N   0  0  0  0  0  0  0  0  0  0  0  0
  -21.7937  -12.8371   21.8601 N   0  0  0  0  0  0  0  0  0  0  0  0
  -26.8629  -21.5594   22.3520 N   0  0  0  0  0  0  0  0  0  0  0  0
  -25.4203  -31.6065   17.8611 N   0  0  0  0  0  0  0  0  0  0  0  0
  -26.4344  -33.2558   24.1290 N   0  0  0  0  0  0  0  0  0  0  0  0
  -29.8869  -16.1650   20.7653 N   0  0  0  0  0  0  0  0  0  0  0  0
  -24.2829  -32.9667   27.0196 N   0  3  0  0  0  0  0  0  0  0  0  0
  -22.4756  -14.7452   20.7864 O   0  0  0  0  0  0  0  0  0  0  0  0
  -26.1650  -22.5265   20.3340 O   0  0  0  0  0  0  0  0  0  0  0  0
  -26.5453  -30.1977   19.3348 O   0  0  0  0  0  0  0  0  0  0  0  0
  -25.8937  -33.7436   21.3580 O   0  0  0  0  0  0  0  0  0  0  0  0
  -26.0630  -31.4152   25.4897 O   0  0  0  0  0  0  0  0  0  0  0  0
  -31.7145  -15.0790   19.9064 O   0  0  0  0  0  0  0  0  0  0  0  0
  -24.8158  -22.9172   23.5876 O   0  0  0  0  0  0  0  0  0  0  0  0
  -21.7885   -7.7459   24.1216 O   0  0  0  0  0  0  0  0  0  0  0  0
  -24.2887  -25.5128   22.5974 O   0  0  0  0  0  0  0  0  0  1  0  0
  -22.4205   -2.5810   22.2971 F   0  0  0  0  0  0  0  0  0  0  0  0
  -29.8732  -17.9647   23.3673 F   0  0  0  0  0  0  0  0  0  0  0  0
  -19.6221   -6.2864   23.2165 F   0  0  0  0  0  0  0  0  0  0  0  0
  1  2  1  0  0  0  0
  1  5  2  0  0  0  0
  2  6  2  0  0  0  0
  3  8  2  0  0  0  0
  3 17  1  0  0  0  0
  4  9  1  0  0  0  0
  4 17  2  0  0  0  0
  5 19  1  0  0  0  0
  6 21  1  0  0  0  0
  7 10  2  0  0  0  0
  7 20  1  0  0  0  0
  8 26  1  0  0  0  0
  9 26  2  0  0  0  0
 10 27  1  0  0  0  0
 11 12  2  0  0  0  0
 11 28  1  0  0  0  0
 12 29  1  0  0  0  0
 13 22  1  0  0  0  0
 13 27  2  0  0  0  0
 14 23  1  0  0  0  0
 14 25  2  0  0  0  0
 15 25  1  0  0  0  0
 15 30  2  0  0  0  0
 16 29  2  0  0  0  0
 16 31  1  0  0  0  0
 17 32  1  0  0  0  0
 18 32  1  0  0  0  0
 18 33  2  0  0  0  0
 18 35  1  0  0  0  0
 19 21  2  0  0  0  0
 19 42  1  0  0  0  0
 20 22  2  0  0  0  0
 20 43  1  0  0  0  0
 21 51  1  0  0  0  0
 22 44  1  0  0  0  0
 23 24  2  0  0  0  0
 23 62  1  0  0  0  0
 24 30  1  0  0  0  0
 24 63  1  0  0  0  0
 25 74  1  0  0  0  0
 26 86  1  0  0  0  0
 27 87  1  0  0  0  0
 28 31  2  0  0  0  0
 28 86  1  0  0  0  0
 29 88  1  0  0  0  0
 30 89  1  0  0  0  0
 31 90  1  0  0  0  0
 32 68  2  0  0  0  0
 33 69  1  0  0  0  0
 33 72  1  0  0  0  0
 34 36  2  0  0  0  0
 34 87  1  0  0  0  0
 35 73  1  0  0  0  0
 35 79  2  0  0  0  0
 36 37  1  0  0  0  0
 36 85  1  0  0  0  0
 37 74  1  0  0  0  0
 37 80  2  0  0  0  0
 38 52  1  0  0  0  0
 38 75  1  0  0  0  0
 38 81  2  0  0  0  0
 39 64  1  0  0  0  0
 39 70  1  0  0  0  0
 39 82  2  0  0  0  0
 40 65  1  0  0  0  0
 40 76  1  0  0  0  0
 40 83  2  0  0  0  0
 41 71  1  0  0  0  0
 41 77  1  0  0  0  0
 41 84  2  0  0  0  0
 42 45  1  0  0  0  0
 43 52  1  0  0  0  0
 44 70  1  0  0  0  0
 45 47  1  0  0  0  0
 46 48  1  0  0  0  0
 46 49  1  0  0  0  0
 47 51  1  0  0  0  0
 48 53  1  0  0  0  0
 49 71  1  0  0  0  0
 50 53  1  0  0  0  0
 50 71  1  0  0  0  0
 51 75  1  0  0  0  0
 52 70  1  0  0  0  0
 53 69  1  0  0  0  0
 54 65  1  0  0  0  0
 55 66  1  0  0  0  0
 56 66  1  0  0  0  0
 57 66  1  0  0  0  0
 58 67  1  0  0  0  0
 59 67  1  0  0  0  0
 60 67  1  0  0  0  0
 61 78  1  0  0  0  0
 62 66  1  0  0  0  0
 63 77  1  0  0  0  0
 64 67  1  0  0  0  0
 64 76  1  0  0  0  0
 65 78  1  0  0  0  0
 68 69  1  0  0  0  0
M  CHG  1  78   1
M  ISO  4  34 101  41 100  77 100  87 101
M  END
> <Batch ID>
0165

> <Smiles>
CNC(C)C(=O)NC(C(=O)N1Cc2cc([101O:1][101CH2:1]C(=O)C(=O)Nc3cc(F)c(C[100NH:0][100C:0](=O)N4CCCC(n5nc(-c6ccc(Oc7ccc(F)cc7F)cc6)c(C(N)=O)c5N)C4)c(CC(C)(C)C)c3)ccc2CC1C(=O)NC1CCCc2ccccc21)C(C)(C)C

> <Shape>
0.280

> <Color>
0.173

> <Negative vol penalty>
0.000

$$$$

  -OEChem-04052304053D

 86 94  0     1  0  0  0  0  0999 V2000
  -27.1874  -34.8203   24.6961 C   0  0  0  0  0  0  0  0  0  0  0  0
  -27.5343  -33.5515   24.2430 C   0  0  0  0  0  0  0  0  0  0  0  0
  -23.1036  -10.2732   19.8447 C   0  0  0  0  0  0  0  0  0  0  0  0
  -24.1310  -11.1004   17.8205 C   0  0  0  0  0  0  0  0  0  0  0  0
  -25.8852  -35.0744   25.1246 C   0  0  0  0  0  0  0  0  0  0  0  0
  -26.5794  -32.5357   24.2193 C   0  0  0  0  0  0  0  0  0  0  0  0
  -26.6748  -29.8800   19.9084 C   0  0  0  0  0  0  0  0  0  0  0  0
  -22.3129   -9.4071   19.0894 C   0  0  0  0  0  0  0  0  0  0  0  0
  -23.3403  -10.2343   17.0653 C   0  0  0  0  0  0  0  0  0  0  0  0
  -27.6823  -28.9263   19.7703 C   0  0  0  0  0  0  0  0  0  0  0  0
  -23.3217   -6.9554   16.2477 C   0  0  0  0  0  0  0  0  0  0  0  0
  -23.9437   -6.2362   15.2272 C   0  0  0  0  0  0  0  0  0  0  0  0
  -31.5642  -18.7377   20.1457 C   0  0  0  0  0  0  0  0  0  0  0  0
  -26.1154  -27.1931   20.3706 C   0  0  0  0  0  0  0  0  0  0  0  0
  -29.1482  -20.0682   20.5647 C   0  0  0  0  0  0  0  0  0  0  0  0
  -22.4746   -7.2638   13.6076 C   0  0  0  0  0  0  0  0  0  0  0  0
  -24.0126  -11.1199   19.2102 C   0  0  0  0  0  0  0  0  0  0  0  0
  -31.4908  -20.1202   19.9756 C   0  0  0  0  0  0  0  0  0  0  0  0
  -26.1029  -11.7523   20.5286 C   0  0  0  0  0  0  0  0  0  0  0  0
  -24.9113  -34.0638   25.0970 C   0  0  0  0  0  0  0  0  0  0  0  0
  -25.3806  -29.4981   20.2899 C   0  0  0  0  0  0  0  0  0  0  0  0
  -25.2632  -32.7762   24.6491 C   0  0  0  0  0  0  0  0  0  0  0  0
  -25.0927  -28.1436   20.5103 C   0  0  0  0  0  0  0  0  0  0  0  0
  -30.2828  -20.7854   20.1851 C   0  0  0  0  0  0  0  0  0  0  0  0
  -29.2217  -18.6856   20.7347 C   0  0  0  0  0  0  0  0  0  0  0  0
  -22.4313   -9.3877   17.6997 C   0  0  0  0  0  0  0  0  0  0  0  0
  -27.4034  -27.5829   20.0042 C   0  0  0  0  0  0  0  0  0  0  0  0
  -22.2761   -7.8287   15.9482 C   0  0  0  0  0  0  0  0  0  0  0  0
  -23.5202   -6.3904   13.9071 C   0  0  0  0  0  0  0  0  0  0  0  0
  -30.4297  -18.0204   20.5251 C   0  0  0  0  0  0  0  0  0  0  0  0
  -21.8526   -7.9829   14.6282 C   0  0  0  0  0  0  0  0  0  0  0  0
  -24.8292  -12.0151   19.9898 C   0  0  0  0  0  0  0  0  0  0  0  0
  -26.4477  -12.9130   21.1770 C   0  0  0  0  0  0  0  0  0  0  0  0
  -32.6936  -20.8400   19.5766 C   0  0  0  0  0  0  0  0  0  0  0  0
  -26.9029  -10.5651   20.4501 C   0  0  0  0  0  0  0  0  0  0  0  0
  -23.4899  -30.1394   22.7633 C   0  0  0  0  0  0  0  0  0  0  0  0
  -29.2296  -24.3801   19.9592 C   0  0  0  0  0  0  0  0  0  0  0  0
  -21.3178  -28.4552   21.0407 C   0  0  0  0  0  0  0  0  0  0  0  0
  -20.7173  -26.1052   18.6399 C   0  0  0  0  0  0  0  0  0  0  0  0
  -26.7934  -18.4670   21.3687 C   0  0  0  0  0  0  0  0  0  0  0  0
  -23.5290  -34.3734   25.6146 C   0  0  0  0  0  0  0  0  0  0  0  0
  -24.2983  -30.5360   20.4085 C   0  0  0  0  0  0  0  0  0  0  0  0
  -23.7145  -27.6794   20.9022 C   0  0  0  0  0  0  0  0  0  0  0  0
  -22.4803  -33.3423   25.2055 C   0  0  0  0  0  0  0  0  0  0  0  0
  -23.6853  -17.0025   22.3025 C   0  0  0  0  0  0  0  0  0  0  0  0
  -23.0034  -31.9282   25.4365 C   0  0  0  0  0  0  0  0  0  0  0  0
  -23.8106  -15.5528   21.8284 C   0  0  0  0  0  0  0  0  0  0  0  0
  -24.3578  -17.9755   21.3357 C   0  0  0  0  0  0  0  0  0  0  0  0
  -25.8800  -16.2114   20.5358 C   0  0  0  0  0  0  0  0  0  0  0  0
  -24.2491  -31.6548   24.5849 C   0  0  1  0  0  0  0  0  0  0  0  0
  -23.1431  -30.0951   21.3020 C   0  0  1  0  0  0  0  0  0  0  0  0
  -25.2740  -15.1884   21.5104 C   0  0  2  0  0  0  0  0  0  0  0  0
  -34.0125  -20.2771   20.0156 C   0  0  0  0  0  0  0  0  0  0  0  0
  -18.8407  -24.9129   17.4762 C   0  0  0  0  0  0  0  0  0  0  0  0
  -20.8974  -26.7123   23.5097 C   0  0  0  0  0  0  0  0  0  0  0  0
  -19.7800  -25.0213   22.0399 C   0  0  0  0  0  0  0  0  0  0  0  0
  -18.8011  -27.3030   22.2805 C   0  0  0  0  0  0  0  0  0  0  0  0
  -21.5218  -27.1728   15.9994 C   0  0  0  0  0  0  0  0  0  0  0  0
  -28.9755  -22.9104   20.2189 C   0  0  0  0  0  0  0  0  0  0  0  0
  -28.0294  -25.2918   20.1258 C   0  0  0  0  0  0  0  0  0  1  0  0
  -20.9258  -27.0005   20.9441 C   0  0  1  0  0  0  0  0  0  0  0  0
  -19.7849  -26.1046   17.4419 C   0  0  2  0  0  0  0  0  0  0  0  0
  -20.1276  -26.5179   22.1881 C   0  0  0  0  0  0  0  0  0  0  0  0
  -24.3942  -13.2462   20.2715 N   0  0  0  0  0  0  0  0  0  0  0  0
  -25.4001  -13.7671   20.9945 N   0  0  0  0  0  0  0  0  0  0  0  0
  -22.6918  -28.7327   21.0114 N   0  0  0  0  0  0  0  0  0  0  0  0
  -25.7424  -17.5695   21.0848 N   0  0  0  0  0  0  0  0  0  0  0  0
  -27.5416  -13.2761   21.8798 N   0  0  0  0  0  0  0  0  0  0  0  0
  -26.3977   -9.4644   19.7447 N   0  0  0  0  0  0  0  0  0  0  0  0
  -28.0682  -17.9589   21.1207 N   0  0  0  0  0  0  0  0  0  0  0  0
  -30.1890  -22.1600   20.0205 N   0  0  0  0  0  0  0  0  0  0  0  0
  -23.8746  -31.3883   23.2126 N   0  0  0  0  0  0  0  0  0  0  0  0
  -20.2104  -26.8536   19.6812 N   0  0  0  0  0  0  0  0  0  0  0  0
  -20.5685  -26.0470   16.1756 N   0  3  0  0  0  0  0  0  0  0  0  0
  -32.7054  -21.8759   18.9116 O   0  0  0  0  0  0  0  0  0  0  0  0
  -28.0253  -10.4771   21.0033 O   0  0  0  0  0  0  0  0  0  0  0  0
  -23.4127  -29.1167   23.4339 O   0  0  0  0  0  0  0  0  0  0  0  0
  -30.3326  -24.8173   19.6336 O   0  0  0  0  0  0  0  0  0  0  0  0
  -20.4370  -29.3140   21.1315 O   0  0  0  0  0  0  0  0  0  0  0  0
  -21.7865  -25.4993   18.6521 O   0  0  0  0  0  0  0  0  0  0  0  0
  -26.5799  -19.5928   21.8258 O   0  0  0  0  0  0  0  0  0  0  0  0
  -21.6601   -8.5425   16.9625 O   0  0  0  0  0  0  0  0  0  0  0  0
  -28.3851  -26.6500   19.8708 O   0  0  0  0  0  0  0  0  0  1  0  0
  -24.1186   -5.7009   12.9270 F   0  0  0  0  0  0  0  0  0  0  0  0
  -30.5118  -16.6918   20.6850 F   0  0  0  0  0  0  0  0  0  0  0  0
  -20.8493   -8.8213   14.3342 F   0  0  0  0  0  0  0  0  0  0  0  0
  1  2  1  0  0  0  0
  1  5  2  0  0  0  0
  2  6  2  0  0  0  0
  3  8  2  0  0  0  0
  3 17  1  0  0  0  0
  4  9  1  0  0  0  0
  4 17  2  0  0  0  0
  5 20  1  0  0  0  0
  6 22  1  0  0  0  0
  7 10  2  0  0  0  0
  7 21  1  0  0  0  0
  8 26  1  0  0  0  0
  9 26  2  0  0  0  0
 10 27  1  0  0  0  0
 11 12  2  0  0  0  0
 11 28  1  0  0  0  0
 12 29  1  0  0  0  0
 13 18  1  0  0  0  0
 13 30  2  0  0  0  0
 14 23  1  0  0  0  0
 14 27  2  0  0  0  0
 15 24  1  0  0  0  0
 15 25  2  0  0  0  0
 16 29  2  0  0  0  0
 16 31  1  0  0  0  0
 17 32  1  0  0  0  0
 18 24  2  0  0  0  0
 18 34  1  0  0  0  0
 19 32  1  0  0  0  0
 19 33  2  0  0  0  0
 19 35  1  0  0  0  0
 20 22  2  0  0  0  0
 20 41  1  0  0  0  0
 21 23  2  0  0  0  0
 21 42  1  0  0  0  0
 22 50  1  0  0  0  0
 23 43  1  0  0  0  0
 24 71  1  0  0  0  0
 25 30  1  0  0  0  0
 25 70  1  0  0  0  0
 26 82  1  0  0  0  0
 27 83  1  0  0  0  0
 28 31  2  0  0  0  0
 28 82  1  0  0  0  0
 29 84  1  0  0  0  0
 30 85  1  0  0  0  0
 31 86  1  0  0  0  0
 32 64  2  0  0  0  0
 33 65  1  0  0  0  0
 33 68  1  0  0  0  0
 34 53  1  0  0  0  0
 34 75  2  0  0  0  0
 35 69  1  0  0  0  0
 35 76  2  0  0  0  0
 36 51  1  0  0  0  0
 36 72  1  0  0  0  0
 36 77  2  0  0  0  0
 37 59  1  0  0  0  0
 37 60  1  0  0  0  0
 37 78  2  0  0  0  0
 38 61  1  0  0  0  0
 38 66  1  0  0  0  0
 38 79  2  0  0  0  0
 39 62  1  0  0  0  0
 39 73  1  0  0  0  0
 39 80  2  0  0  0  0
 40 67  1  0  0  0  0
 40 70  1  0  0  0  0
 40 81  2  0  0  0  0
 41 44  1  0  0  0  0
 42 51  1  0  0  0  0
 43 66  1  0  0  0  0
 44 46  1  0  0  0  0
 45 47  1  0  0  0  0
 45 48  1  0  0  0  0
 46 50  1  0  0  0  0
 47 52  1  0  0  0  0
 48 67  1  0  0  0  0
 49 52  1  0  0  0  0
 49 67  1  0  0  0  0
 50 72  1  0  0  0  0
 51 66  1  0  0  0  0
 52 65  1  0  0  0  0
 54 62  1  0  0  0  0
 55 63  1  0  0  0  0
 56 63  1  0  0  0  0
 57 63  1  0  0  0  0
 58 74  1  0  0  0  0
 59 71  1  0  0  0  0
 60 83  1  0  0  0  0
 61 63  1  0  0  0  0
 61 73  1  0  0  0  0
 62 74  1  0  0  0  0
 64 65  1  0  0  0  0
M  CHG  1  74   1
M  ISO  4  40 100  60 101  70 100  83 101
M  END
> <Batch ID>
0165

> <Smiles>
CNC(C)C(=O)NC(C(=O)N1Cc2cc([101O:1][101CH2:1]C(=O)CNc3cc([100NH:0][100C:0](=O)N4CCCC(n5nc(-c6ccc(Oc7ccc(F)cc7F)cc6)c(C(N)=O)c5N)C4)c(F)cc3C(C)=O)ccc2CC1C(=O)NC1CCCc2ccccc21)C(C)(C)C

> <Shape>
0.257

> <Color>
0.086

> <Negative vol penalty>
0.000

$$$$

  -OEChem-04052304053D

 82 90  0     1  0  0  0  0  0999 V2000
  -19.2140  -23.6299   23.1431 C   0  0  0  0  0  0  0  0  0  0  0  0
  -20.5517  -23.7392   22.7770 C   0  0  0  0  0  0  0  0  0  0  0  0
  -24.3245   -9.2836   20.5353 C   0  0  0  0  0  0  0  0  0  0  0  0
  -22.6908  -10.9352   21.1991 C   0  0  0  0  0  0  0  0  0  0  0  0
  -18.3888  -24.7531   23.1077 C   0  0  0  0  0  0  0  0  0  0  0  0
  -21.0648  -24.9716   22.3743 C   0  0  0  0  0  0  0  0  0  0  0  0
  -25.5602  -25.9846   24.4742 C   0  0  0  0  0  0  0  0  0  0  0  0
  -23.4749   -8.2675   20.9725 C   0  0  0  0  0  0  0  0  0  0  0  0
  -21.8412   -9.9190   21.6363 C   0  0  0  0  0  0  0  0  0  0  0  0
  -26.6753  -25.3502   23.9284 C   0  0  0  0  0  0  0  0  0  0  0  0
  -22.5847   -6.8583   23.9129 C   0  0  0  0  0  0  0  0  0  0  0  0
  -23.1430   -5.8290   24.6708 C   0  0  0  0  0  0  0  0  0  0  0  0
  -27.2104  -27.3581   22.7031 C   0  0  0  0  0  0  0  0  0  0  0  0
  -22.4458   -4.2242   23.0047 C   0  0  0  0  0  0  0  0  0  0  0  0
  -27.0369  -19.6489   18.9268 C   0  0  0  0  0  0  0  0  0  0  0  0
  -23.9325  -10.6175   20.6487 C   0  0  0  0  0  0  0  0  0  0  0  0
  -24.8631  -12.2375   18.9116 C   0  0  0  0  0  0  0  0  0  0  0  0
  -18.8943  -26.0020   22.7136 C   0  0  0  0  0  0  0  0  0  0  0  0
  -25.2551  -27.3092   24.1294 C   0  0  0  0  0  0  0  0  0  0  0  0
  -20.2452  -26.1124   22.3323 C   0  0  0  0  0  0  0  0  0  0  0  0
  -26.0922  -28.0078   23.2478 C   0  0  0  0  0  0  0  0  0  0  0  0
  -22.2332   -8.5851   21.5229 C   0  0  0  0  0  0  0  0  0  0  0  0
  -27.4990  -26.0360   23.0405 C   0  0  0  0  0  0  0  0  0  0  0  0
  -21.9569   -6.5706   22.7010 C   0  0  0  0  0  0  0  0  0  0  0  0
  -23.0736   -4.5119   24.2166 C   0  0  0  0  0  0  0  0  0  0  0  0
  -21.8875   -5.2536   22.2468 C   0  0  0  0  0  0  0  0  0  0  0  0
  -24.8100  -11.6677   20.1978 C   0  0  0  0  0  0  0  0  0  0  0  0
  -27.5576  -20.8894   18.6500 C   0  0  0  0  0  0  0  0  0  0  0  0
  -27.8213  -19.1677   19.9922 C   0  0  0  0  0  0  0  0  0  0  0  0
  -25.8540  -13.1848   18.9964 C   0  0  0  0  0  0  0  0  0  0  0  0
  -24.0861  -11.9373   17.7446 C   0  0  0  0  0  0  0  0  0  0  0  0
  -22.8094  -28.7477   22.6968 C   0  0  0  0  0  0  0  0  0  0  0  0
  -28.8182  -23.4584   20.3254 C   0  0  0  0  0  0  0  0  0  0  0  0
  -24.4272  -31.4417   23.5014 C   0  0  0  0  0  0  0  0  0  0  0  0
  -27.4086  -32.9055   24.2860 C   0  0  0  0  0  0  0  0  0  0  0  0
  -28.3769  -17.3691   21.6664 C   0  0  0  0  0  0  0  0  0  0  0  0
  -17.9524  -27.1779   22.6459 C   0  0  0  0  0  0  0  0  0  0  0  0
  -24.0637  -27.9880   24.7475 C   0  0  0  0  0  0  0  0  0  0  0  0
  -25.8199  -29.4378   22.8611 C   0  0  0  0  0  0  0  0  0  0  0  0
  -18.6651  -28.5255   22.5663 C   0  0  0  0  0  0  0  0  0  0  0  0
  -29.2733  -14.0593   22.6248 C   0  0  0  0  0  0  0  0  0  0  0  0
  -19.7845  -28.4770   21.5312 C   0  0  0  0  0  0  0  0  0  0  0  0
  -28.1964  -13.1889   21.9730 C   0  0  0  0  0  0  0  0  0  0  0  0
  -28.7040  -15.3852   23.1265 C   0  0  0  0  0  0  0  0  0  0  0  0
  -26.8788  -15.2872   21.4748 C   0  0  0  0  0  0  0  0  0  0  0  0
  -20.8447  -27.4372   21.9135 C   0  0  1  0  0  0  0  0  0  0  0  0
  -23.5587  -29.1717   23.9282 C   0  0  1  0  0  0  0  0  0  0  0  0
  -27.4173  -13.9687   20.8958 C   0  0  2  0  0  0  0  0  0  0  0  0
  -27.1762  -21.8975   17.6441 C   0  0  0  0  0  0  0  0  0  0  0  0
  -28.4215  -35.1295   24.8563 C   0  0  0  0  0  0  0  0  0  0  0  0
  -24.2651  -32.2652   20.5679 C   0  0  0  0  0  0  0  0  0  0  0  0
  -26.0614  -33.9511   21.0141 C   0  0  0  0  0  0  0  0  0  0  0  0
  -23.8713  -34.1222   22.1960 C   0  0  0  0  0  0  0  0  0  0  0  0
  -28.3033  -31.9479   26.9396 C   0  0  0  0  0  0  0  0  0  0  0  0
  -29.7034  -24.6852   20.5036 C   0  0  0  0  0  0  0  0  0  0  0  0
  -29.4799  -22.2728   19.6437 C   0  0  0  0  0  0  0  0  0  0  0  0
  -28.9960  -25.8354   21.2035 C   0  0  0  0  0  0  0  0  0  1  0  0
  -25.4882  -32.2889   22.8415 C   0  0  1  0  0  0  0  0  0  0  0  0
  -27.8018  -33.8535   25.4046 C   0  0  2  0  0  0  0  0  0  0  0  0
  -24.9258  -33.1293   21.6604 C   0  0  0  0  0  0  0  0  0  0  0  0
  -25.6967  -12.2078   21.0381 N   0  0  0  0  0  0  0  0  0  0  0  0
  -28.7684  -20.0319   20.3666 N   0  0  0  0  0  0  0  0  0  0  0  0
  -28.5825  -21.0686   19.5318 N   0  0  0  0  0  0  0  0  0  0  0  0
  -26.3164  -13.1269   20.2782 N   0  0  0  0  0  0  0  0  0  0  0  0
  -24.6394  -30.0559   23.4872 N   0  0  0  0  0  0  0  0  0  0  0  0
  -27.9833  -16.0700   22.0510 N   0  0  0  0  0  0  0  0  0  0  0  0
  -26.3662  -14.0533   18.0988 N   0  0  0  0  0  0  0  0  0  0  0  0
  -23.1097  -10.9356   17.8314 N   0  0  0  0  0  0  0  0  0  0  0  0
  -27.6397  -17.9063   20.6116 N   0  0  0  0  0  0  0  0  0  0  0  0
  -21.7076  -27.9543   22.9539 N   0  0  0  0  0  0  0  0  0  0  0  0
  -26.0956  -33.0831   23.9039 N   0  0  0  0  0  0  0  0  0  0  0  0
  -28.7897  -33.2032   26.3113 N   0  3  0  0  0  0  0  0  0  0  0  0
  -24.2639  -12.5283   16.6525 O   0  0  0  0  0  0  0  0  0  0  0  0
  -23.2009  -29.1146   21.5950 O   0  0  0  0  0  0  0  0  0  0  0  0
  -27.6500  -23.4310   20.7102 O   0  0  0  0  0  0  0  0  0  0  0  0
  -23.4498  -31.9898   24.0170 O   0  0  0  0  0  0  0  0  0  0  0  0
  -28.1892  -32.0916   23.7973 O   0  0  0  0  0  0  0  0  0  0  0  0
  -29.3175  -17.9508   22.2130 O   0  0  0  0  0  0  0  0  0  0  0  0
  -21.4038   -7.5938   21.9494 O   0  0  0  0  0  0  0  0  0  0  0  0
  -28.5877  -25.4189   22.5059 O   0  0  0  0  0  0  0  0  0  1  0  0
  -23.6111   -3.5237   24.9437 F   0  0  0  0  0  0  0  0  0  0  0  0
  -21.2867   -4.9712   21.0827 F   0  0  0  0  0  0  0  0  0  0  0  0
  1  2  1  0  0  0  0
  1  5  2  0  0  0  0
  2  6  2  0  0  0  0
  3  8  2  0  0  0  0
  3 16  1  0  0  0  0
  4  9  1  0  0  0  0
  4 16  2  0  0  0  0
  5 18  1  0  0  0  0
  6 20  1  0  0  0  0
  7 10  2  0  0  0  0
  7 19  1  0  0  0  0
  8 22  1  0  0  0  0
  9 22  2  0  0  0  0
 10 23  1  0  0  0  0
 11 12  2  0  0  0  0
 11 24  1  0  0  0  0
 12 25  1  0  0  0  0
 13 21  1  0  0  0  0
 13 23  2  0  0  0  0
 14 25  2  0  0  0  0
 14 26  1  0  0  0  0
 15 28  2  0  0  0  0
 15 29  1  0  0  0  0
 16 27  1  0  0  0  0
 17 27  1  0  0  0  0
 17 30  2  0  0  0  0
 17 31  1  0  0  0  0
 18 20  2  0  0  0  0
 18 37  1  0  0  0  0
 19 21  2  0  0  0  0
 19 38  1  0  0  0  0
 20 46  1  0  0  0  0
 21 39  1  0  0  0  0
 22 79  1  0  0  0  0
 23 80  1  0  0  0  0
 24 26  2  0  0  0  0
 24 79  1  0  0  0  0
 25 81  1  0  0  0  0
 26 82  1  0  0  0  0
 27 61  2  0  0  0  0
 28 49  1  0  0  0  0
 28 63  1  0  0  0  0
 29 62  2  0  0  0  0
 29 69  1  0  0  0  0
 30 64  1  0  0  0  0
 30 67  1  0  0  0  0
 31 68  1  0  0  0  0
 31 73  2  0  0  0  0
 32 47  1  0  0  0  0
 32 70  1  0  0  0  0
 32 74  2  0  0  0  0
 33 55  1  0  0  0  0
 33 56  1  0  0  0  0
 33 75  2  0  0  0  0
 34 58  1  0  0  0  0
 34 65  1  0  0  0  0
 34 76  2  0  0  0  0
 35 59  1  0  0  0  0
 35 71  1  0  0  0  0
 35 77  2  0  0  0  0
 36 66  1  0  0  0  0
 36 69  1  0  0  0  0
 36 78  2  0  0  0  0
 37 40  1  0  0  0  0
 38 47  1  0  0  0  0
 39 65  1  0  0  0  0
 40 42  1  0  0  0  0
 41 43  1  0  0  0  0
 41 44  1  0  0  0  0
 42 46  1  0  0  0  0
 43 48  1  0  0  0  0
 44 66  1  0  0  0  0
 45 48  1  0  0  0  0
 45 66  1  0  0  0  0
 46 70  1  0  0  0  0
 47 65  1  0  0  0  0
 48 64  1  0  0  0  0
 50 59  1  0  0  0  0
 51 60  1  0  0  0  0
 52 60  1  0  0  0  0
 53 60  1  0  0  0  0
 54 72  1  0  0  0  0
 55 57  1  0  0  0  0
 56 63  1  0  0  0  0
 57 80  1  0  0  0  0
 58 60  1  0  0  0  0
 58 71  1  0  0  0  0
 59 72  1  0  0  0  0
 61 64  1  0  0  0  0
 62 63  1  0  0  0  0
M  CHG  1  72   1
M  ISO  4  36 100  57 101  69 100  80 101
M  END
> <Batch ID>
0165

> <Smiles>
CNC(C)C(=O)NC(C(=O)N1Cc2cc([101O:1][101CH2:1]CC(=O)Cn3nc([100NH:0][100C:0](=O)N4CCCC(n5nc(-c6ccc(Oc7ccc(F)cc7F)cc6)c(C(N)=O)c5N)C4)cc3C)ccc2CC1C(=O)NC1CCCc2ccccc21)C(C)(C)C

> <Shape>
0.288

> <Color>
0.110

> <Negative vol penalty>
0.000

$$$$

  -OEChem-04052304053D

 82 90  0     1  0  0  0  0  0999 V2000
  -30.5178  -36.4987   23.0018 C   0  0  0  0  0  0  0  0  0  0  0  0
  -30.7047  -35.3239   22.2805 C   0  0  0  0  0  0  0  0  0  0  0  0
  -23.0596   -9.8366   20.0724 C   0  0  0  0  0  0  0  0  0  0  0  0
  -24.3772   -9.2521   22.0113 C   0  0  0  0  0  0  0  0  0  0  0  0
  -29.5147  -36.5705   23.9674 C   0  0  0  0  0  0  0  0  0  0  0  0
  -29.8892  -34.2196   22.5253 C   0  0  0  0  0  0  0  0  0  0  0  0
  -26.9011  -28.6349   19.1789 C   0  0  0  0  0  0  0  0  0  0  0  0
  -22.4614   -8.5768   20.0991 C   0  0  0  0  0  0  0  0  0  0  0  0
  -23.7789   -7.9923   22.0381 C   0  0  0  0  0  0  0  0  0  0  0  0
  -26.7932  -27.2487   19.2828 C   0  0  0  0  0  0  0  0  0  0  0  0
  -20.8538   -6.6470   23.0650 C   0  0  0  0  0  0  0  0  0  0  0  0
  -20.4229   -6.1620   24.2997 C   0  0  0  0  0  0  0  0  0  0  0  0
  -25.0408  -27.5140   20.9193 C   0  0  0  0  0  0  0  0  0  0  0  0
  -21.9045   -4.2671   24.0723 C   0  0  0  0  0  0  0  0  0  0  0  0
  -30.0899  -20.0785   20.8098 C   0  0  0  0  0  0  0  0  0  0  0  0
  -24.0175  -10.1743   21.0285 C   0  0  0  0  0  0  0  0  0  0  0  0
  -24.1932  -12.6412   21.6539 C   0  0  0  0  0  0  0  0  0  0  0  0
  -28.6801  -35.4697   24.2173 C   0  0  0  0  0  0  0  0  0  0  0  0
  -26.0858  -29.4724   19.9537 C   0  0  0  0  0  0  0  0  0  0  0  0
  -28.8748  -34.2762   23.4961 C   0  0  0  0  0  0  0  0  0  0  0  0
  -25.1385  -28.9104   20.8214 C   0  0  0  0  0  0  0  0  0  0  0  0
  -22.8210   -7.6547   21.0820 C   0  0  0  0  0  0  0  0  0  0  0  0
  -25.8650  -26.6881   20.1553 C   0  0  0  0  0  0  0  0  0  0  0  0
  -21.8100   -5.9421   22.3338 C   0  0  0  0  0  0  0  0  0  0  0  0
  -20.9483   -4.9720   24.8034 C   0  0  0  0  0  0  0  0  0  0  0  0
  -22.3353   -4.7522   22.8375 C   0  0  0  0  0  0  0  0  0  0  0  0
  -24.6362  -11.4752   21.0011 C   0  0  0  0  0  0  0  0  0  0  0  0
  -25.1187  -13.5975   21.3143 C   0  0  0  0  0  0  0  0  0  0  0  0
  -28.8927  -20.1631   21.4893 C   0  0  0  0  0  0  0  0  0  0  0  0
  -30.1936  -18.1773   21.8981 C   0  0  0  0  0  0  0  0  0  0  0  0
  -23.0476  -12.8418   22.4923 C   0  0  0  0  0  0  0  0  0  0  0  0
  -26.6094  -31.6618   22.1977 C   0  0  0  0  0  0  0  0  0  0  0  0
  -26.9101  -23.2769   20.8144 C   0  0  0  0  0  0  0  0  0  0  0  0
  -23.4121  -32.1388   21.9284 C   0  0  0  0  0  0  0  0  0  0  0  0
  -20.3608  -30.8904   21.0463 C   0  0  0  0  0  0  0  0  0  0  0  0
  -30.4128  -15.2015   20.5758 C   0  0  0  0  0  0  0  0  0  0  0  0
  -27.6401  -35.5792   25.3041 C   0  0  0  0  0  0  0  0  0  0  0  0
  -26.1961  -30.9656   19.8102 C   0  0  0  0  0  0  0  0  0  0  0  0
  -24.2257  -29.7657   21.6602 C   0  0  0  0  0  0  0  0  0  0  0  0
  -26.5752  -34.4874   25.2402 C   0  0  0  0  0  0  0  0  0  0  0  0
  -28.8232  -13.5181   17.8710 C   0  0  0  0  0  0  0  0  0  0  0  0
  -27.2229  -33.1210   25.0396 C   0  0  0  0  0  0  0  0  0  0  0  0
  -27.5596  -12.9279   18.4994 C   0  0  0  0  0  0  0  0  0  0  0  0
  -30.0040  -13.4834   18.8388 C   0  0  0  0  0  0  0  0  0  0  0  0
  -28.4846  -13.5171   20.7789 C   0  0  0  0  0  0  0  0  0  0  0  0
  -27.9943  -33.0652   23.7155 C   0  0  1  0  0  0  0  0  0  0  0  0
  -25.6709  -31.7230   21.0259 C   0  0  1  0  0  0  0  0  0  0  0  0
  -27.2524  -13.5813   19.8602 C   0  0  2  0  0  0  0  0  0  0  0  0
  -17.9281  -31.5020   20.9748 C   0  0  0  0  0  0  0  0  0  0  0  0
  -23.2237  -31.7321   24.9465 C   0  0  0  0  0  0  0  0  0  0  0  0
  -20.7559  -31.4062   24.6783 C   0  0  0  0  0  0  0  0  0  0  0  0
  -21.7999  -33.5836   24.0524 C   0  0  0  0  0  0  0  0  0  0  0  0
  -20.2463  -30.5656   18.1069 C   0  0  0  0  0  0  0  0  0  0  0  0
  -30.6858  -16.8723   22.3905 C   0  0  0  0  0  0  0  0  0  0  0  0
  -28.1105  -22.3723   20.6332 C   0  0  0  0  0  0  0  0  0  0  0  0
  -26.9395  -24.5705   20.0238 C   0  0  0  0  0  0  0  0  0  1  0  0
  -22.1852  -31.5582   22.5891 C   0  0  1  0  0  0  0  0  0  0  0  0
  -19.2393  -31.4725   20.2050 C   0  0  2  0  0  0  0  0  0  0  0  0
  -22.0096  -32.0536   24.0523 C   0  0  0  0  0  0  0  0  0  0  0  0
  -30.8373  -18.9408   21.0433 N   0  0  0  0  0  0  0  0  0  0  0  0
  -25.7560  -11.6708   20.2997 N   0  0  0  0  0  0  0  0  0  0  0  0
  -26.0243  -12.9708   20.5098 N   0  0  0  0  0  0  0  0  0  0  0  0
  -24.3760  -31.2202   21.4891 N   0  0  0  0  0  0  0  0  0  0  0  0
  -29.6474  -14.1202   20.1089 N   0  0  0  0  0  0  0  0  0  0  0  0
  -25.2380  -14.9050   21.6283 N   0  0  0  0  0  0  0  0  0  0  0  0
  -22.2008  -11.7524   22.7384 N   0  0  0  0  0  0  0  0  0  0  0  0
  -27.9593  -21.1885   21.4400 N   0  0  0  0  0  0  0  0  0  0  0  0
  -27.0813  -32.8949   22.6056 N   0  0  0  0  0  0  0  0  0  0  0  0
  -21.0621  -31.8729   21.7128 N   0  0  0  0  0  0  0  0  0  0  0  0
  -30.0030  -15.7511   21.7845 N   0  0  0  0  0  0  0  0  0  0  0  0
  -19.0419  -30.6600   18.9714 N   0  3  0  0  0  0  0  0  0  0  0  0
  -22.7736  -13.9581   22.9947 O   0  0  0  0  0  0  0  0  0  0  0  0
  -26.8838  -30.5764   22.6960 O   0  0  0  0  0  0  0  0  0  0  0  0
  -25.9675  -22.9917   21.5519 O   0  0  0  0  0  0  0  0  0  0  0  0
  -23.5084  -33.3618   21.8001 O   0  0  0  0  0  0  0  0  0  0  0  0
  -20.5894  -29.6845   21.1091 O   0  0  0  0  0  0  0  0  0  0  0  0
  -31.3857  -15.6478   19.9584 O   0  0  0  0  0  0  0  0  0  0  0  0
  -22.2373   -6.4254   21.1085 O   0  0  0  0  0  0  0  0  0  0  0  0
  -25.7581  -25.3354   20.2592 O   0  0  0  0  0  0  0  0  0  1  0  0
  -20.5355   -4.5072   25.9899 F   0  0  0  0  0  0  0  0  0  0  0  0
  -23.2550   -4.0712   22.1403 F   0  0  0  0  0  0  0  0  0  0  0  0
  -28.6832  -18.7659   22.4616 S   0  0  0  0  0  0  0  0  0  0  0  0
  1  2  1  0  0  0  0
  1  5  2  0  0  0  0
  2  6  2  0  0  0  0
  3  8  2  0  0  0  0
  3 16  1  0  0  0  0
  4  9  1  0  0  0  0
  4 16  2  0  0  0  0
  5 18  1  0  0  0  0
  6 20  1  0  0  0  0
  7 10  2  0  0  0  0
  7 19  1  0  0  0  0
  8 22  1  0  0  0  0
  9 22  2  0  0  0  0
 10 23  1  0  0  0  0
 11 12  2  0  0  0  0
 11 24  1  0  0  0  0
 12 25  1  0  0  0  0
 13 21  1  0  0  0  0
 13 23  2  0  0  0  0
 14 25  2  0  0  0  0
 14 26  1  0  0  0  0
 15 29  2  0  0  0  0
 15 60  1  0  0  0  0
 16 27  1  0  0  0  0
 17 27  1  0  0  0  0
 17 28  2  0  0  0  0
 17 31  1  0  0  0  0
 18 20  2  0  0  0  0
 18 37  1  0  0  0  0
 19 21  2  0  0  0  0
 19 38  1  0  0  0  0
 20 46  1  0  0  0  0
 21 39  1  0  0  0  0
 22 78  1  0  0  0  0
 23 79  1  0  0  0  0
 24 26  2  0  0  0  0
 24 78  1  0  0  0  0
 25 80  1  0  0  0  0
 26 81  1  0  0  0  0
 27 61  2  0  0  0  0
 28 62  1  0  0  0  0
 28 65  1  0  0  0  0
 29 67  1  0  0  0  0
 29 82  1  0  0  0  0
 30 54  1  0  0  0  0
 30 60  2  0  0  0  0
 30 82  1  0  0  0  0
 31 66  1  0  0  0  0
 31 72  2  0  0  0  0
 32 47  1  0  0  0  0
 32 68  1  0  0  0  0
 32 73  2  0  0  0  0
 33 55  1  0  0  0  0
 33 56  1  0  0  0  0
 33 74  2  0  0  0  0
 34 57  1  0  0  0  0
 34 63  1  0  0  0  0
 34 75  2  0  0  0  0
 35 58  1  0  0  0  0
 35 69  1  0  0  0  0
 35 76  2  0  0  0  0
 36 64  1  0  0  0  0
 36 70  1  0  0  0  0
 36 77  2  0  0  0  0
 37 40  1  0  0  0  0
 38 47  1  0  0  0  0
 39 63  1  0  0  0  0
 40 42  1  0  0  0  0
 41 43  1  0  0  0  0
 41 44  1  0  0  0  0
 42 46  1  0  0  0  0
 43 48  1  0  0  0  0
 44 64  1  0  0  0  0
 45 48  1  0  0  0  0
 45 64  1  0  0  0  0
 46 68  1  0  0  0  0
 47 63  1  0  0  0  0
 48 62  1  0  0  0  0
 49 58  1  0  0  0  0
 50 59  1  0  0  0  0
 51 59  1  0  0  0  0
 52 59  1  0  0  0  0
 53 71  1  0  0  0  0
 54 70  1  0  0  0  0
 55 67  1  0  0  0  0
 56 79  1  0  0  0  0
 57 59  1  0  0  0  0
 57 69  1  0  0  0  0
 58 71  1  0  0  0  0
 61 62  1  0  0  0  0
M  CHG  1  71   1
M  ISO  4  36 100  56 101  70 100  79 101
M  END
> <Batch ID>
0165

> <Smiles>
CNC(C)C(=O)NC(C(=O)N1Cc2cc([101O:1][101CH2:1]C(=O)CNc3cnc(C[100NH:0][100C:0](=O)N4CCCC(n5nc(-c6ccc(Oc7ccc(F)cc7F)cc6)c(C(N)=O)c5N)C4)s3)ccc2CC1C(=O)NC1CCCc2ccccc21)C(C)(C)C

> <Shape>
0.319

> <Color>
0.142

> <Negative vol penalty>
0.000

$$$$

  -OEChem-04052304053D

 85 93  0     1  0  0  0  0  0999 V2000
  -16.9294  -30.0775   24.7356 C   0  0  0  0  0  0  0  0  0  0  0  0
  -17.9679  -29.1537   24.7957 C   0  0  0  0  0  0  0  0  0  0  0  0
  -23.2798   -9.5903   19.9806 C   0  0  0  0  0  0  0  0  0  0  0  0
  -23.8226   -9.8813   22.3168 C   0  0  0  0  0  0  0  0  0  0  0  0
  -16.9149  -31.0440   23.7308 C   0  0  0  0  0  0  0  0  0  0  0  0
  -18.9920  -29.1952   23.8502 C   0  0  0  0  0  0  0  0  0  0  0  0
  -24.9002  -27.8656   24.7618 C   0  0  0  0  0  0  0  0  0  0  0  0
  -31.6029  -17.1284   22.6119 C   0  0  0  0  0  0  0  0  0  0  0  0
  -22.5805   -8.4234   20.2885 C   0  0  0  0  0  0  0  0  0  0  0  0
  -23.1233   -8.7143   22.6247 C   0  0  0  0  0  0  0  0  0  0  0  0
  -25.6527  -26.7186   24.5133 C   0  0  0  0  0  0  0  0  0  0  0  0
  -19.9020   -7.7763   23.0291 C   0  0  0  0  0  0  0  0  0  0  0  0
  -32.0547  -18.1358   23.4642 C   0  0  0  0  0  0  0  0  0  0  0  0
  -19.0433   -7.8079   24.1278 C   0  0  0  0  0  0  0  0  0  0  0  0
  -29.3303  -17.8896   22.9166 C   0  0  0  0  0  0  0  0  0  0  0  0
  -26.3756  -27.6555   22.4112 C   0  0  0  0  0  0  0  0  0  0  0  0
  -20.3158   -6.0401   25.1733 C   0  0  0  0  0  0  0  0  0  0  0  0
  -23.9009  -10.3193   20.9948 C   0  0  0  0  0  0  0  0  0  0  0  0
  -29.7821  -18.8971   23.7690 C   0  0  0  0  0  0  0  0  0  0  0  0
  -24.1131  -12.8356   20.6330 C   0  0  0  0  0  0  0  0  0  0  0  0
  -17.9444  -31.1034   22.7783 C   0  0  0  0  0  0  0  0  0  0  0  0
  -24.8711  -28.9134   23.8303 C   0  0  0  0  0  0  0  0  0  0  0  0
  -18.9906  -30.1625   22.8309 C   0  0  0  0  0  0  0  0  0  0  0  0
  -25.6240  -28.8159   22.6514 C   0  0  0  0  0  0  0  0  0  0  0  0
  -30.2407  -17.0053   22.3380 C   0  0  0  0  0  0  0  0  0  0  0  0
  -22.5022   -7.9854   21.6105 C   0  0  0  0  0  0  0  0  0  0  0  0
  -26.3883  -26.6121   23.3366 C   0  0  0  0  0  0  0  0  0  0  0  0
  -20.9676   -6.8765   23.0024 C   0  0  0  0  0  0  0  0  0  0  0  0
  -19.2502   -6.9399   25.1999 C   0  0  0  0  0  0  0  0  0  0  0  0
  -31.1443  -19.0202   24.0428 C   0  0  0  0  0  0  0  0  0  0  0  0
  -21.1744   -6.0085   24.0745 C   0  0  0  0  0  0  0  0  0  0  0  0
  -24.6240  -11.5245   20.6774 C   0  0  0  0  0  0  0  0  0  0  0  0
  -25.1914  -13.6126   20.2866 C   0  0  0  0  0  0  0  0  0  0  0  0
  -28.8162  -19.8315   24.3809 C   0  0  0  0  0  0  0  0  0  0  0  0
  -22.7829  -13.3087   20.8827 C   0  0  0  0  0  0  0  0  0  0  0  0
  -22.6063  -30.2981   22.0818 C   0  0  0  0  0  0  0  0  0  0  0  0
  -27.9763  -23.3028   23.6774 C   0  0  0  0  0  0  0  0  0  0  0  0
  -25.0029  -32.3395   21.3000 C   0  0  0  0  0  0  0  0  0  0  0  0
  -28.3575  -32.8898   20.9994 C   0  0  0  0  0  0  0  0  0  0  0  0
  -30.5522  -15.0205   20.8181 C   0  0  0  0  0  0  0  0  0  0  0  0
  -17.8609  -32.1364   21.6826 C   0  0  0  0  0  0  0  0  0  0  0  0
  -24.0757  -30.1554   24.1255 C   0  0  0  0  0  0  0  0  0  0  0  0
  -25.6426  -29.9212   21.6285 C   0  0  0  0  0  0  0  0  0  0  0  0
  -19.1793  -32.3474   20.9426 C   0  0  0  0  0  0  0  0  0  0  0  0
  -29.7960  -12.3099   18.6368 C   0  0  0  0  0  0  0  0  0  0  0  0
  -19.8087  -31.0059   20.5803 C   0  0  0  0  0  0  0  0  0  0  0  0
  -28.3410  -11.9718   18.9696 C   0  0  0  0  0  0  0  0  0  0  0  0
  -30.5821  -12.7191   19.8812 C   0  0  0  0  0  0  0  0  0  0  0  0
  -28.5186  -13.4570   21.0066 C   0  0  0  0  0  0  0  0  0  0  0  0
  -20.1324  -30.1908   21.8382 C   0  0  1  0  0  0  0  0  0  0  0  0
  -23.7102  -30.9431   22.8711 C   0  0  1  0  0  0  0  0  0  0  0  0
  -27.6699  -13.1017   19.7749 C   0  0  2  0  0  0  0  0  0  0  0  0
  -30.0113  -34.6428   20.2999 C   0  0  0  0  0  0  0  0  0  0  0  0
  -24.3628  -31.7714   18.3713 C   0  0  0  0  0  0  0  0  0  0  0  0
  -26.5833  -32.7573   17.7670 C   0  0  0  0  0  0  0  0  0  0  0  0
  -24.8567  -34.1685   18.8851 C   0  0  0  0  0  0  0  0  0  0  0  0
  -29.5830  -32.9735   23.6920 C   0  0  0  0  0  0  0  0  0  0  0  0
  -28.0388  -22.1590   24.6555 C   0  0  0  0  0  0  0  0  0  0  0  0
  -27.0948  -24.4673   24.0827 C   0  0  0  0  0  0  0  0  0  1  0  0
  -26.0565  -32.3878   20.2199 C   0  0  1  0  0  0  0  0  0  0  0  0
  -29.2349  -34.0396   21.4602 C   0  0  2  0  0  0  0  0  0  0  0  0
  -25.4631  -32.7494   18.8290 C   0  0  0  0  0  0  0  0  0  0  0  0
  -25.9254  -11.4680   20.3825 N   0  0  0  0  0  0  0  0  0  0  0  0
  -26.2415  -12.7532   20.1495 N   0  0  0  0  0  0  0  0  0  0  0  0
  -24.8438  -31.1127   21.9599 N   0  0  0  0  0  0  0  0  0  0  0  0
  -29.8885  -13.7963   20.5908 N   0  0  0  0  0  0  0  0  0  0  0  0
  -25.3341  -14.9404   20.0888 N   0  0  0  0  0  0  0  0  0  0  0  0
  -21.7956  -12.3756   21.2276 N   0  0  0  0  0  0  0  0  0  0  0  0
  -29.7820  -15.9809   21.4731 N   0  0  0  0  0  0  0  0  0  0  0  0
  -28.9372  -21.1466   24.1267 N   0  0  0  0  0  0  0  0  0  0  0  0
  -21.3376  -30.6881   22.4664 N   0  0  0  0  0  0  0  0  0  0  0  0
  -27.0818  -33.3125   20.6909 N   0  0  0  0  0  0  0  0  0  0  0  0
  -27.8634  -19.3263   25.1646 N   0  3  0  0  0  0  0  0  0  0  0  0
  -30.2102  -33.5690   22.4841 N   0  3  0  0  0  0  0  0  0  0  0  0
  -22.4751  -14.5209   20.7864 O   0  0  0  0  0  0  0  0  0  0  0  0
  -22.8850  -29.5064   21.1889 O   0  0  0  0  0  0  0  0  0  0  0  0
  -28.5976  -23.2995   22.6156 O   0  0  0  0  0  0  0  0  0  0  0  0
  -24.3501  -33.3550   21.5539 O   0  0  0  0  0  0  0  0  0  0  0  0
  -28.7643  -31.7329   20.9174 O   0  0  0  0  0  0  0  0  0  0  0  0
  -31.7087  -15.2128   20.4341 O   0  0  0  0  0  0  0  0  0  0  0  0
  -21.8197   -6.8468   21.9112 O   0  0  0  0  0  0  0  0  0  0  0  0
  -27.1231  -25.4933   23.0912 O   0  0  0  0  0  0  0  0  0  1  0  0
  -18.4264   -6.9714   26.2556 F   0  0  0  0  0  0  0  0  0  0  0  0
  -31.5878  -19.9849   24.8608 F   0  0  0  0  0  0  0  0  0  0  0  0
  -22.1971   -5.1427   24.0551 F   0  0  0  0  0  0  0  0  0  0  0  0
  1  2  1  0  0  0  0
  1  5  2  0  0  0  0
  2  6  2  0  0  0  0
  3  9  2  0  0  0  0
  3 18  1  0  0  0  0
  4 10  1  0  0  0  0
  4 18  2  0  0  0  0
  5 21  1  0  0  0  0
  6 23  1  0  0  0  0
  7 11  2  0  0  0  0
  7 22  1  0  0  0  0
  8 13  2  0  0  0  0
  8 25  1  0  0  0  0
  9 26  1  0  0  0  0
 10 26  2  0  0  0  0
 11 27  1  0  0  0  0
 12 14  2  0  0  0  0
 12 28  1  0  0  0  0
 13 30  1  0  0  0  0
 14 29  1  0  0  0  0
 15 19  1  0  0  0  0
 15 25  2  0  0  0  0
 16 24  1  0  0  0  0
 16 27  2  0  0  0  0
 17 29  2  0  0  0  0
 17 31  1  0  0  0  0
 18 32  1  0  0  0  0
 19 30  2  0  0  0  0
 19 34  1  0  0  0  0
 20 32  1  0  0  0  0
 20 33  2  0  0  0  0
 20 35  1  0  0  0  0
 21 23  2  0  0  0  0
 21 41  1  0  0  0  0
 22 24  2  0  0  0  0
 22 42  1  0  0  0  0
 23 50  1  0  0  0  0
 24 43  1  0  0  0  0
 25 69  1  0  0  0  0
 26 81  1  0  0  0  0
 27 82  1  0  0  0  0
 28 31  2  0  0  0  0
 28 81  1  0  0  0  0
 29 83  1  0  0  0  0
 30 84  1  0  0  0  0
 31 85  1  0  0  0  0
 32 63  2  0  0  0  0
 33 64  1  0  0  0  0
 33 67  1  0  0  0  0
 34 70  1  0  0  0  0
 34 73  2  0  0  0  0
 35 68  1  0  0  0  0
 35 75  2  0  0  0  0
 36 51  1  0  0  0  0
 36 71  1  0  0  0  0
 36 76  2  0  0  0  0
 37 58  1  0  0  0  0
 37 59  1  0  0  0  0
 37 77  2  0  0  0  0
 38 60  1  0  0  0  0
 38 65  1  0  0  0  0
 38 78  2  0  0  0  0
 39 61  1  0  0  0  0
 39 72  1  0  0  0  0
 39 79  2  0  0  0  0
 40 66  1  0  0  0  0
 40 69  1  0  0  0  0
 40 80  2  0  0  0  0
 41 44  1  0  0  0  0
 42 51  1  0  0  0  0
 43 65  1  0  0  0  0
 44 46  1  0  0  0  0
 45 47  1  0  0  0  0
 45 48  1  0  0  0  0
 46 50  1  0  0  0  0
 47 52  1  0  0  0  0
 48 66  1  0  0  0  0
 49 52  1  0  0  0  0
 49 66  1  0  0  0  0
 50 71  1  0  0  0  0
 51 65  1  0  0  0  0
 52 64  1  0  0  0  0
 53 61  1  0  0  0  0
 54 62  1  0  0  0  0
 55 62  1  0  0  0  0
 56 62  1  0  0  0  0
 57 74  1  0  0  0  0
 58 70  1  0  0  0  0
 59 82  1  0  0  0  0
 60 62  1  0  0  0  0
 60 72  1  0  0  0  0
 61 74  1  0  0  0  0
 63 64  1  0  0  0  0
M  CHG  2  73   1  74   1
M  ISO  4  40 100  59 101  69 100  82 101
M  END
> <Batch ID>
0165

> <Smiles>
CNC(C)C(=O)NC(C(=O)N1Cc2cc([101O:1][101CH2:1]C(=O)CNC(=N)c3cc([100NH:0][100C:0](=O)N4CCCC(n5nc(-c6ccc(Oc7ccc(F)cc7F)cc6)c(C(N)=O)c5N)C4)ccc3F)ccc2CC1C(=O)NC1CCCc2ccccc21)C(C)(C)C

> <Shape>
0.260

> <Color>
0.183

> <Negative vol penalty>
0.000

$$$$

  -OEChem-04052304053D

 87 96  0     1  0  0  0  0  0999 V2000
  -24.4304  -38.0912   17.4987 C   0  0  0  0  0  0  0  0  0  0  0  0
  -25.4997  -37.2029   17.5524 C   0  0  0  0  0  0  0  0  0  0  0  0
  -24.7516   -8.4445   20.7917 C   0  0  0  0  0  0  0  0  0  0  0  0
  -23.0755  -10.1595   20.4975 C   0  0  0  0  0  0  0  0  0  0  0  0
  -23.6611  -38.3241   18.6379 C   0  0  0  0  0  0  0  0  0  0  0  0
  -25.8011  -36.5478   18.7459 C   0  0  0  0  0  0  0  0  0  0  0  0
  -25.8389  -29.3541   19.1204 C   0  0  0  0  0  0  0  0  0  0  0  0
  -23.7617   -7.5449   21.1871 C   0  0  0  0  0  0  0  0  0  0  0  0
  -22.0856   -9.2598   20.8929 C   0  0  0  0  0  0  0  0  0  0  0  0
  -26.0730  -27.9824   19.2199 C   0  0  0  0  0  0  0  0  0  0  0  0
  -21.9595   -6.8900   23.9705 C   0  0  0  0  0  0  0  0  0  0  0  0
  -22.2129   -6.1003   25.0920 C   0  0  0  0  0  0  0  0  0  0  0  0
  -26.5479  -28.2237   21.5788 C   0  0  0  0  0  0  0  0  0  0  0  0
  -21.9741   -4.1094   23.7441 C   0  0  0  0  0  0  0  0  0  0  0  0
  -23.5770  -18.0285   18.7308 C   0  0  0  0  0  0  0  0  0  0  0  0
  -24.4085   -9.7519   20.4470 C   0  0  0  0  0  0  0  0  0  0  0  0
  -26.3043  -10.5576   18.9423 C   0  0  0  0  0  0  0  0  0  0  0  0
  -23.9473  -37.6642   19.8435 C   0  0  0  0  0  0  0  0  0  0  0  0
  -25.9435  -30.1644   20.2543 C   0  0  0  0  0  0  0  0  0  0  0  0
  -25.0358  -36.7731   19.9028 C   0  0  0  0  0  0  0  0  0  0  0  0
  -26.3024  -29.5964   21.4878 C   0  0  0  0  0  0  0  0  0  0  0  0
  -22.4287   -7.9525   21.2376 C   0  0  0  0  0  0  0  0  0  0  0  0
  -26.4268  -27.4187   20.4460 C   0  0  0  0  0  0  0  0  0  0  0  0
  -21.7132   -6.2894   22.7358 C   0  0  0  0  0  0  0  0  0  0  0  0
  -22.2203   -4.7100   24.9788 C   0  0  0  0  0  0  0  0  0  0  0  0
  -21.7206   -4.8991   22.6226 C   0  0  0  0  0  0  0  0  0  0  0  0
  -25.4306  -10.6819   20.0391 C   0  0  0  0  0  0  0  0  0  0  0  0
  -23.0235  -19.1502   18.1479 C   0  0  0  0  0  0  0  0  0  0  0  0
  -24.5686  -18.2665   19.6605 C   0  0  0  0  0  0  0  0  0  0  0  0
  -27.0756  -11.6932   18.9873 C   0  0  0  0  0  0  0  0  0  0  0  0
  -24.3769  -20.5121   19.3647 C   0  0  0  0  0  0  0  0  0  0  0  0
  -26.4093   -9.5094   17.9697 C   0  0  0  0  0  0  0  0  0  0  0  0
  -25.6717  -33.6125   21.7080 C   0  0  0  0  0  0  0  0  0  0  0  0
  -24.4594  -31.6819   23.7608 C   0  0  0  0  0  0  0  0  0  0  0  0
  -22.6382  -30.2043   26.2381 C   0  0  0  0  0  0  0  0  0  0  0  0
  -26.1769  -17.1514   21.2467 C   0  0  0  0  0  0  0  0  0  0  0  0
  -23.1167  -37.9841   21.0610 C   0  0  0  0  0  0  0  0  0  0  0  0
  -25.7604  -31.6560   20.1811 C   0  0  0  0  0  0  0  0  0  0  0  0
  -26.4369  -30.5121   22.6737 C   0  0  0  0  0  0  0  0  0  0  0  0
  -23.2711  -36.9663   22.1882 C   0  0  0  0  0  0  0  0  0  0  0  0
  -28.8215  -14.9144   22.0711 C   0  0  0  0  0  0  0  0  0  0  0  0
  -24.7444  -36.6477   22.4217 C   0  0  0  0  0  0  0  0  0  0  0  0
  -26.3253  -21.9604   20.0786 C   0  0  0  0  0  0  0  0  0  0  0  0
  -23.9768  -22.5236   20.8473 C   0  0  0  0  0  0  0  0  0  0  0  0
  -28.3342  -13.5650   21.5383 C   0  0  0  0  0  0  0  0  0  0  0  0
  -26.7772  -23.3821   20.4239 C   0  0  0  0  0  0  0  0  0  0  0  0
  -24.4312  -23.9451   21.1884 C   0  0  0  0  0  0  0  0  0  0  0  0
  -27.6749  -15.7453   22.6445 C   0  0  0  0  0  0  0  0  0  0  0  0
  -26.0446  -14.5830   21.2091 C   0  0  0  0  0  0  0  0  0  0  0  0
  -25.3789  -36.0246   21.1724 C   0  0  1  0  0  0  0  0  0  0  0  0
  -24.8303  -21.9161   19.7217 C   0  0  0  0  0  0  0  0  0  0  0  0
  -25.1088  -32.2468   21.4443 C   0  0  1  0  0  0  0  0  0  0  0  0
  -27.1538  -13.7375   20.5623 C   0  0  2  0  0  0  0  0  0  0  0  0
  -25.9265  -24.0107   21.5376 C   0  0  0  0  0  0  0  0  0  0  0  0
  -22.0069  -30.4804   28.6511 C   0  0  0  0  0  0  0  0  0  0  0  0
  -27.2351  -30.7288   24.5921 C   0  0  0  0  0  0  0  0  0  0  0  0
  -26.2799  -30.1209   26.8251 C   0  0  0  0  0  0  0  0  0  0  0  0
  -26.2543  -32.4965   26.0644 C   0  0  0  0  0  0  0  0  0  0  0  0
  -19.7579  -30.3902   25.5835 C   0  0  0  0  0  0  0  0  0  0  0  0
  -25.4014  -23.7967   23.8184 C   0  0  0  0  0  0  0  0  0  0  0  0
  -26.3601  -25.4562   21.7883 C   0  0  0  0  0  0  0  0  0  1  0  0
  -24.6856  -30.8328   24.9860 C   0  0  1  0  0  0  0  0  0  0  0  0
  -21.6162  -30.7667   27.2095 C   0  0  2  0  0  0  0  0  0  0  0  0
  -26.1028  -31.0338   25.5930 C   0  0  0  0  0  0  0  0  0  0  0  0
  -25.6279  -11.8076   20.7304 N   0  0  0  0  0  0  0  0  0  0  0  0
  -23.4008  -20.4116   18.4424 N   0  0  0  0  0  0  0  0  0  0  0  0
  -24.9949  -19.5000   20.0028 N   0  0  0  0  0  0  0  0  0  0  0  0
  -26.6345  -12.4009   20.0665 N   0  0  0  0  0  0  0  0  0  0  0  0
  -25.3335  -31.4852   22.6847 N   0  0  0  0  0  0  0  0  0  0  0  0
  -26.5951  -15.8698   21.6630 N   0  0  0  0  0  0  0  0  0  0  0  0
  -22.0004  -18.9494   17.1890 N   0  0  0  0  0  0  0  0  0  0  0  0
  -28.0815  -12.1453   18.2086 N   0  0  0  0  0  0  0  0  0  0  0  0
  -25.6422   -9.6036   16.8004 N   0  0  0  0  0  0  0  0  0  0  0  0
  -25.1659  -17.1443   20.2864 N   0  0  0  0  0  0  0  0  0  0  0  0
  -25.0037  -34.6316   21.0564 N   0  0  0  0  0  0  0  0  0  0  0  0
  -23.5935  -31.1405   25.9031 N   0  0  0  0  0  0  0  0  0  0  0  0
  -20.2762  -30.1651   26.9574 N   0  3  0  0  0  0  0  0  0  0  0  0
  -27.1486   -8.5104   18.1401 O   0  0  0  0  0  0  0  0  0  0  0  0
  -26.6399  -33.7341   22.4492 O   0  0  0  0  0  0  0  0  0  0  0  0
  -23.5372  -32.5022   23.7572 O   0  0  0  0  0  0  0  0  0  0  0  0
  -22.5956  -29.0490   25.8211 O   0  0  0  0  0  0  0  0  0  0  0  0
  -26.6976  -18.1791   21.6881 O   0  0  0  0  0  0  0  0  0  0  0  0
  -21.4625   -7.0748   21.6231 O   0  0  0  0  0  0  0  0  0  0  0  0
  -26.6496  -26.0783   20.5370 O   0  0  0  0  0  0  0  0  0  1  0  0
  -26.1576  -23.2711   22.7404 O   0  0  0  0  0  0  0  0  0  0  0  0
  -22.4652   -3.9519   26.0555 F   0  0  0  0  0  0  0  0  0  0  0  0
  -21.4859   -4.3165   21.4389 F   0  0  0  0  0  0  0  0  0  0  0  0
  1  2  1  0  0  0  0
  1  5  2  0  0  0  0
  2  6  2  0  0  0  0
  3  8  2  0  0  0  0
  3 16  1  0  0  0  0
  4  9  1  0  0  0  0
  4 16  2  0  0  0  0
  5 18  1  0  0  0  0
  6 20  1  0  0  0  0
  7 10  2  0  0  0  0
  7 19  1  0  0  0  0
  8 22  1  0  0  0  0
  9 22  2  0  0  0  0
 10 23  1  0  0  0  0
 11 12  2  0  0  0  0
 11 24  1  0  0  0  0
 12 25  1  0  0  0  0
 13 21  1  0  0  0  0
 13 23  2  0  0  0  0
 14 25  2  0  0  0  0
 14 26  1  0  0  0  0
 15 28  1  0  0  0  0
 15 29  2  0  0  0  0
 16 27  1  0  0  0  0
 17 27  1  0  0  0  0
 17 30  2  0  0  0  0
 17 32  1  0  0  0  0
 18 20  2  0  0  0  0
 18 37  1  0  0  0  0
 19 21  2  0  0  0  0
 19 38  1  0  0  0  0
 20 50  1  0  0  0  0
 21 39  1  0  0  0  0
 22 83  1  0  0  0  0
 23 84  1  0  0  0  0
 24 26  2  0  0  0  0
 24 83  1  0  0  0  0
 25 86  1  0  0  0  0
 26 87  1  0  0  0  0
 27 65  2  0  0  0  0
 28 66  2  0  0  0  0
 28 71  1  0  0  0  0
 29 67  1  0  0  0  0
 29 74  1  0  0  0  0
 30 68  1  0  0  0  0
 30 72  1  0  0  0  0
 31 51  1  0  0  0  0
 31 66  1  0  0  0  0
 31 67  2  0  0  0  0
 32 73  1  0  0  0  0
 32 78  2  0  0  0  0
 33 52  1  0  0  0  0
 33 75  1  0  0  0  0
 33 79  2  0  0  0  0
 34 62  1  0  0  0  0
 34 69  1  0  0  0  0
 34 80  2  0  0  0  0
 35 63  1  0  0  0  0
 35 76  1  0  0  0  0
 35 81  2  0  0  0  0
 36 70  1  0  0  0  0
 36 74  1  0  0  0  0
 36 82  2  0  0  0  0
 37 40  1  0  0  0  0
 38 52  1  0  0  0  0
 39 69  1  0  0  0  0
 40 42  1  0  0  0  0
 41 45  1  0  0  0  0
 41 48  1  0  0  0  0
 42 50  1  0  0  0  0
 43 46  1  0  0  0  0
 43 51  1  0  0  0  0
 44 47  1  0  0  0  0
 44 51  1  0  0  0  0
 45 53  1  0  0  0  0
 46 54  1  0  0  0  0
 47 54  1  0  0  0  0
 48 70  1  0  0  0  0
 49 53  1  0  0  0  0
 49 70  1  0  0  0  0
 50 75  1  0  0  0  0
 52 69  1  0  0  0  0
 53 68  1  0  0  0  0
 54 61  1  0  0  0  0
 54 85  1  0  0  0  0
 55 63  1  0  0  0  0
 56 64  1  0  0  0  0
 57 64  1  0  0  0  0
 58 64  1  0  0  0  0
 59 77  1  0  0  0  0
 60 85  1  0  0  0  0
 61 84  1  0  0  0  0
 62 64  1  0  0  0  0
 62 76  1  0  0  0  0
 63 77  1  0  0  0  0
 65 68  1  0  0  0  0
M  CHG  1  77   1
M  ISO  4  36 100  61 101  74 100  84 101
M  END
> <Batch ID>
0165

> <Smiles>
CNC(C)C(=O)NC(C(=O)N1Cc2cc([101O:1][101CH2:1]C3(OC)CCC(c4nc(N)cc([100NH:0][100C:0](=O)N5CCCC(n6nc(-c7ccc(Oc8ccc(F)cc8F)cc7)c(C(N)=O)c6N)C5)n4)CC3)ccc2CC1C(=O)NC1CCCc2ccccc21)C(C)(C)C

> <Shape>
0.230

> <Color>
0.112

> <Negative vol penalty>
0.000

$$$$

  -OEChem-04052304053D

 86 94  0     1  0  0  0  0  0999 V2000
  -17.4713  -25.4166   21.8637 C   0  0  0  0  0  0  0  0  0  0  0  0
  -18.8172  -25.1496   21.6343 C   0  0  0  0  0  0  0  0  0  0  0  0
  -24.7600   -8.8619   21.7004 C   0  0  0  0  0  0  0  0  0  0  0  0
  -23.1899  -10.2021   20.4452 C   0  0  0  0  0  0  0  0  0  0  0  0
  -17.0132  -26.7334   21.8637 C   0  0  0  0  0  0  0  0  0  0  0  0
  -19.7057  -26.1993   21.4035 C   0  0  0  0  0  0  0  0  0  0  0  0
  -24.0264  -25.6930   23.9959 C   0  0  0  0  0  0  0  0  0  0  0  0
  -25.7441  -19.8355   16.5324 C   0  0  0  0  0  0  0  0  0  0  0  0
  -23.7186   -8.3901   22.4994 C   0  0  0  0  0  0  0  0  0  0  0  0
  -22.1484   -9.7303   21.2441 C   0  0  0  0  0  0  0  0  0  0  0  0
  -24.9681  -24.7954   23.4948 C   0  0  0  0  0  0  0  0  0  0  0  0
  -21.4218   -6.5557   24.6383 C   0  0  0  0  0  0  0  0  0  0  0  0
  -24.9450  -18.6934   16.5818 C   0  0  0  0  0  0  0  0  0  0  0  0
  -21.3819   -5.1884   24.9111 C   0  0  0  0  0  0  0  0  0  0  0  0
  -26.1957  -26.6328   22.5272 C   0  0  0  0  0  0  0  0  0  0  0  0
  -27.4204  -18.7205   17.8679 C   0  0  0  0  0  0  0  0  0  0  0  0
  -21.2103   -4.7217   22.5468 C   0  0  0  0  0  0  0  0  0  0  0  0
  -24.4957   -9.7680   20.6733 C   0  0  0  0  0  0  0  0  0  0  0  0
  -26.0468   -9.6912   18.6495 C   0  0  0  0  0  0  0  0  0  0  0  0
  -17.8982  -27.8004   21.6424 C   0  0  0  0  0  0  0  0  0  0  0  0
  -24.1566  -27.0686   23.7567 C   0  0  0  0  0  0  0  0  0  0  0  0
  -19.2587  -27.5315   21.3992 C   0  0  0  0  0  0  0  0  0  0  0  0
  -25.2557  -27.5460   23.0286 C   0  0  0  0  0  0  0  0  0  0  0  0
  -26.9819  -19.8491   17.1754 C   0  0  0  0  0  0  0  0  0  0  0  0
  -26.6213  -17.5783   17.9174 C   0  0  0  0  0  0  0  0  0  0  0  0
  -22.4128   -8.8242   22.2712 C   0  0  0  0  0  0  0  0  0  0  0  0
  -26.0514  -25.2649   22.7579 C   0  0  0  0  0  0  0  0  0  0  0  0
  -21.3558   -7.0061   23.3197 C   0  0  0  0  0  0  0  0  0  0  0  0
  -21.2762   -4.2714   23.8654 C   0  0  0  0  0  0  0  0  0  0  0  0
  -25.3835  -17.5648   17.2743 C   0  0  0  0  0  0  0  0  0  0  0  0
  -21.2501   -6.0891   22.2740 C   0  0  0  0  0  0  0  0  0  0  0  0
  -25.5712  -10.2562   19.8480 C   0  0  0  0  0  0  0  0  0  0  0  0
  -27.0677  -10.5231   18.2592 C   0  0  0  0  0  0  0  0  0  0  0  0
  -26.7637  -23.8699   21.0208 C   0  0  0  0  0  0  0  0  0  1  0  0
  -25.6053   -8.5193   17.9514 C   0  0  0  0  0  0  0  0  0  0  0  0
  -27.5536  -22.9996   20.3727 C   0  0  0  0  0  0  0  0  0  0  0  0
  -27.1354  -22.5566   19.0041 C   0  0  0  0  0  0  0  0  0  0  0  0
  -22.4107  -29.2594   22.2547 C   0  0  0  0  0  0  0  0  0  0  0  0
  -24.6285  -31.2936   23.4655 C   0  0  0  0  0  0  0  0  0  0  0  0
  -27.7921  -31.7535   24.6601 C   0  0  0  0  0  0  0  0  0  0  0  0
  -28.2703  -16.2808   19.3115 C   0  0  0  0  0  0  0  0  0  0  0  0
  -17.3479  -29.2041   21.6048 C   0  0  0  0  0  0  0  0  0  0  0  0
  -23.1465  -28.0263   24.3269 C   0  0  0  0  0  0  0  0  0  0  0  0
  -25.4521  -29.0152   22.7612 C   0  0  0  0  0  0  0  0  0  0  0  0
  -18.4216  -30.2826   21.7239 C   0  0  0  0  0  0  0  0  0  0  0  0
  -30.3658  -13.4984   20.0492 C   0  0  0  0  0  0  0  0  0  0  0  0
  -19.5925  -29.9750   20.7959 C   0  0  0  0  0  0  0  0  0  0  0  0
  -29.4186  -12.2992   19.9663 C   0  0  0  0  0  0  0  0  0  0  0  0
  -29.6768  -14.7252   20.6443 C   0  0  0  0  0  0  0  0  0  0  0  0
  -27.4719  -13.9097   19.9079 C   0  0  0  0  0  0  0  0  0  0  0  0
  -20.2577  -28.6448   21.1695 C   0  0  1  0  0  0  0  0  0  0  0  0
  -23.1015  -29.3588   23.5853 C   0  0  1  0  0  0  0  0  0  0  0  0
  -28.1023  -12.6689   19.2548 C   0  0  2  0  0  0  0  0  0  0  0  0
  -29.2004  -20.8289   16.4611 C   0  0  0  0  0  0  0  0  0  0  0  0
  -29.3271  -33.5345   25.5371 C   0  0  0  0  0  0  0  0  0  0  0  0
  -25.0522  -32.3237   20.6248 C   0  0  0  0  0  0  0  0  0  0  0  0
  -27.1921  -33.3686   21.3975 C   0  0  0  0  0  0  0  0  0  0  0  0
  -25.0213  -34.1001   22.3849 C   0  0  0  0  0  0  0  0  0  0  0  0
  -28.0590  -30.3976   27.2773 C   0  0  0  0  0  0  0  0  0  0  0  0
  -27.8482  -21.0890   17.1219 C   0  0  2  0  0  0  0  0  0  0  0  0
  -25.9573  -31.8314   22.9922 C   0  0  1  0  0  0  0  0  0  0  0  0
  -28.3078  -32.4651   25.8979 C   0  0  2  0  0  0  0  0  0  0  0  0
  -25.8013  -32.8780   21.8530 C   0  0  0  0  0  0  0  0  0  0  0  0
  -26.2354  -11.3614   20.1963 N   0  0  0  0  0  0  0  0  0  0  0  0
  -27.1389  -11.4976   19.2108 N   0  0  0  0  0  0  0  0  0  0  0  0
  -24.4342  -29.9112   23.3343 N   0  0  0  0  0  0  0  0  0  0  0  0
  -28.4397  -15.0179   19.9172 N   0  0  0  0  0  0  0  0  0  0  0  0
  -27.9024  -10.5087   17.1984 N   0  0  0  0  0  0  0  0  0  0  0  0
  -24.5439   -7.7802   18.4913 N   0  0  0  0  0  0  0  0  0  0  0  0
  -27.0685  -16.4324   18.6206 N   0  0  0  0  0  0  0  0  0  0  0  0
  -28.0265  -21.6616   18.4373 N   0  0  0  0  0  0  0  0  0  0  0  0
  -21.1055  -28.8121   22.3304 N   0  0  0  0  0  0  0  0  0  0  0  0
  -26.6392  -32.3368   24.1788 N   0  0  0  0  0  0  0  0  0  0  0  0
  -28.9550  -31.4921   26.8229 N   0  3  0  0  0  0  0  0  0  0  0  0
  -26.1470   -8.1297   16.8892 O   0  0  0  0  0  0  0  0  0  0  0  0
  -26.1076  -22.9640   18.4700 O   0  0  0  0  0  0  0  0  0  0  0  0
  -23.0165  -29.5673   21.2349 O   0  0  0  0  0  0  0  0  0  0  0  0
  -23.7964  -32.0704   23.9408 O   0  0  0  0  0  0  0  0  0  0  0  0
  -28.3576  -30.7799   24.1672 O   0  0  0  0  0  0  0  0  0  0  0  0
  -29.1399  -17.1535   19.3762 O   0  0  0  0  0  0  0  0  0  0  0  0
  -28.7260  -22.4866   20.8828 O   0  0  0  0  0  0  0  0  0  0  0  0
  -21.3962   -8.3639   23.0505 O   0  0  0  0  0  0  0  0  0  0  0  0
  -26.9717  -24.3909   22.2670 O   0  0  0  0  0  0  0  0  0  1  0  0
  -21.2395   -2.9583   24.1274 F   0  0  0  0  0  0  0  0  0  0  0  0
  -24.6067  -16.4729   17.3156 F   0  0  0  0  0  0  0  0  0  0  0  0
  -21.1875   -6.5157   21.0052 F   0  0  0  0  0  0  0  0  0  0  0  0
  1  2  1  0  0  0  0
  1  5  2  0  0  0  0
  2  6  2  0  0  0  0
  3  9  2  0  0  0  0
  3 18  1  0  0  0  0
  4 10  1  0  0  0  0
  4 18  2  0  0  0  0
  5 20  1  0  0  0  0
  6 22  1  0  0  0  0
  7 11  2  0  0  0  0
  7 21  1  0  0  0  0
  8 13  2  0  0  0  0
  8 24  1  0  0  0  0
  9 26  1  0  0  0  0
 10 26  2  0  0  0  0
 11 27  1  0  0  0  0
 12 14  2  0  0  0  0
 12 28  1  0  0  0  0
 13 30  1  0  0  0  0
 14 29  1  0  0  0  0
 15 23  1  0  0  0  0
 15 27  2  0  0  0  0
 16 24  2  0  0  0  0
 16 25  1  0  0  0  0
 17 29  2  0  0  0  0
 17 31  1  0  0  0  0
 18 32  1  0  0  0  0
 19 32  1  0  0  0  0
 19 33  2  0  0  0  0
 19 35  1  0  0  0  0
 20 22  2  0  0  0  0
 20 42  1  0  0  0  0
 21 23  2  0  0  0  0
 21 43  1  0  0  0  0
 22 51  1  0  0  0  0
 23 44  1  0  0  0  0
 24 60  1  0  0  0  0
 25 30  2  0  0  0  0
 25 70  1  0  0  0  0
 26 82  1  0  0  0  0
 27 83  1  0  0  0  0
 28 31  2  0  0  0  0
 28 82  1  0  0  0  0
 29 84  1  0  0  0  0
 30 85  1  0  0  0  0
 31 86  1  0  0  0  0
 32 64  2  0  0  0  0
 33 65  1  0  0  0  0
 33 68  1  0  0  0  0
 34 36  2  0  0  0  0
 34 83  1  0  0  0  0
 35 69  1  0  0  0  0
 35 75  2  0  0  0  0
 36 37  1  0  0  0  0
 36 81  1  0  0  0  0
 37 71  1  0  0  0  0
 37 76  2  0  0  0  0
 38 52  1  0  0  0  0
 38 72  1  0  0  0  0
 38 77  2  0  0  0  0
 39 61  1  0  0  0  0
 39 66  1  0  0  0  0
 39 78  2  0  0  0  0
 40 62  1  0  0  0  0
 40 73  1  0  0  0  0
 40 79  2  0  0  0  0
 41 67  1  0  0  0  0
 41 70  1  0  0  0  0
 41 80  2  0  0  0  0
 42 45  1  0  0  0  0
 43 52  1  0  0  0  0
 44 66  1  0  0  0  0
 45 47  1  0  0  0  0
 46 48  1  0  0  0  0
 46 49  1  0  0  0  0
 47 51  1  0  0  0  0
 48 53  1  0  0  0  0
 49 67  1  0  0  0  0
 50 53  1  0  0  0  0
 50 67  1  0  0  0  0
 51 72  1  0  0  0  0
 52 66  1  0  0  0  0
 53 65  1  0  0  0  0
 54 60  1  0  0  0  0
 55 62  1  0  0  0  0
 56 63  1  0  0  0  0
 57 63  1  0  0  0  0
 58 63  1  0  0  0  0
 59 74  1  0  0  0  0
 60 71  1  0  0  0  0
 61 63  1  0  0  0  0
 61 73  1  0  0  0  0
 62 74  1  0  0  0  0
 64 65  1  0  0  0  0
M  CHG  1  74   1
M  ISO  4  34 101  41 100  70 100  83 101
M  END
> <Batch ID>
0165

> <Smiles>
CNC(C)C(=O)NC(C(=O)N1Cc2cc([101O:1][101CH2:1]C(=O)C(=O)NC(C)c3ccc(F)c([100NH:0][100C:0](=O)N4CCCC(n5nc(-c6ccc(Oc7ccc(F)cc7F)cc6)c(C(N)=O)c5N)C4)c3)ccc2CC1C(=O)NC1CCCc2ccccc21)C(C)(C)C

> <Shape>
0.272

> <Color>
0.086

> <Negative vol penalty>
0.000

$$$$

  -OEChem-04052304053D

 86 94  0     1  0  0  0  0  0999 V2000
  -20.3885  -30.9846   26.8097 C   0  0  0  0  0  0  0  0  0  0  0  0
  -21.6270  -30.4946   26.4081 C   0  0  0  0  0  0  0  0  0  0  0  0
  -24.2320   -8.9115   20.0266 C   0  0  0  0  0  0  0  0  0  0  0  0
  -23.1839  -10.3570   21.6541 C   0  0  0  0  0  0  0  0  0  0  0  0
  -19.2491  -30.6947   26.0603 C   0  0  0  0  0  0  0  0  0  0  0  0
  -21.7267  -29.7134   25.2574 C   0  0  0  0  0  0  0  0  0  0  0  0
  -26.3804  -29.5979   21.2779 C   0  0  0  0  0  0  0  0  0  0  0  0
  -23.6550   -7.8006   20.6416 C   0  0  0  0  0  0  0  0  0  0  0  0
  -22.6067   -9.2460   22.2692 C   0  0  0  0  0  0  0  0  0  0  0  0
  -27.4635  -28.7333   21.1262 C   0  0  0  0  0  0  0  0  0  0  0  0
  -19.9759   -7.1928   21.7369 C   0  0  0  0  0  0  0  0  0  0  0  0
  -18.6296   -7.2767   22.0916 C   0  0  0  0  0  0  0  0  0  0  0  0
  -26.2390  -27.5028   19.4512 C   0  0  0  0  0  0  0  0  0  0  0  0
  -19.2163   -6.9078   24.4061 C   0  0  0  0  0  0  0  0  0  0  0  0
  -26.2605  -19.5099   19.0593 C   0  0  0  0  0  0  0  0  0  0  0  0
  -23.9965  -10.1898   20.5328 C   0  0  0  0  0  0  0  0  0  0  0  0
  -24.0467  -12.1134   18.8581 C   0  0  0  0  0  0  0  0  0  0  0  0
  -19.3363  -29.9176   24.8945 C   0  0  0  0  0  0  0  0  0  0  0  0
  -25.2123  -29.4145   20.5240 C   0  0  0  0  0  0  0  0  0  0  0  0
  -20.5872  -29.4117   24.4924 C   0  0  0  0  0  0  0  0  0  0  0  0
  -25.1434  -28.3679   19.5934 C   0  0  0  0  0  0  0  0  0  0  0  0
  -22.8423   -7.9678   21.7629 C   0  0  0  0  0  0  0  0  0  0  0  0
  -27.3919  -27.6839   20.2149 C   0  0  0  0  0  0  0  0  0  0  0  0
  -20.9425   -6.9662   22.7168 C   0  0  0  0  0  0  0  0  0  0  0  0
  -18.2497   -7.1343   23.4261 C   0  0  0  0  0  0  0  0  0  0  0  0
  -20.5627   -6.8238   24.0513 C   0  0  0  0  0  0  0  0  0  0  0  0
  -24.5928  -11.3378   19.8983 C   0  0  0  0  0  0  0  0  0  0  0  0
  -26.6345  -20.8009   18.7767 C   0  0  0  0  0  0  0  0  0  0  0  0
  -27.4391  -18.8955   19.5231 C   0  0  0  0  0  0  0  0  0  0  0  0
  -24.9947  -13.0769   18.6141 C   0  0  0  0  0  0  0  0  0  0  0  0
  -28.2494  -25.5103   20.3210 C   0  0  0  0  0  0  0  0  0  1  0  0
  -22.7945  -11.9754   18.1736 C   0  0  0  0  0  0  0  0  0  0  0  0
  -25.8345  -21.8720   18.2728 C   0  0  0  0  0  0  0  0  0  0  0  0
  -28.9302  -24.5375   19.7040 C   0  0  0  0  0  0  0  0  0  0  0  0
  -28.6423  -23.1098   20.0501 C   0  0  0  0  0  0  0  0  0  0  0  0
  -22.1725  -28.7909   21.2130 C   0  0  0  0  0  0  0  0  0  0  0  0
  -21.7646  -29.2371   18.0260 C   0  0  0  0  0  0  0  0  0  0  0  0
  -23.1343  -29.2255   14.9002 C   0  0  0  0  0  0  0  0  0  0  0  0
  -28.6550  -16.8722   20.4032 C   0  0  0  0  0  0  0  0  0  0  0  0
  -18.0699  -29.5912   24.1432 C   0  0  0  0  0  0  0  0  0  0  0  0
  -24.0627  -30.3718   20.6802 C   0  0  0  0  0  0  0  0  0  0  0  0
  -23.9198  -28.1401   18.7453 C   0  0  0  0  0  0  0  0  0  0  0  0
  -18.3174  -29.0688   22.7303 C   0  0  0  0  0  0  0  0  0  0  0  0
  -29.7659  -13.4929   20.2526 C   0  0  0  0  0  0  0  0  0  0  0  0
  -19.4093  -28.0038   22.7385 C   0  0  0  0  0  0  0  0  0  0  0  0
  -28.4742  -12.6947   20.0614 C   0  0  0  0  0  0  0  0  0  0  0  0
  -29.5605  -14.6914   21.1772 C   0  0  0  0  0  0  0  0  0  0  0  0
  -27.1650  -14.7858   20.6096 C   0  0  0  0  0  0  0  0  0  0  0  0
  -20.7397  -28.5815   23.2364 C   0  0  1  0  0  0  0  0  0  0  0  0
  -22.7292  -29.7826   20.2309 C   0  0  1  0  0  0  0  0  0  0  0  0
  -27.3068  -13.6059   19.6342 C   0  0  2  0  0  0  0  0  0  0  0  0
  -23.5914  -22.8527   17.4699 C   0  0  0  0  0  0  0  0  0  0  0  0
  -22.5435  -29.5939   12.4893 C   0  0  0  0  0  0  0  0  0  0  0  0
  -20.4035  -26.5075   17.9450 C   0  0  0  0  0  0  0  0  0  0  0  0
  -20.6965  -26.5127   15.4586 C   0  0  0  0  0  0  0  0  0  0  0  0
  -19.2986  -28.2659   16.5517 C   0  0  0  0  0  0  0  0  0  0  0  0
  -25.0411  -31.4757   14.6565 C   0  0  0  0  0  0  0  0  0  0  0  0
  -24.3346  -21.6277   17.9794 C   0  0  0  0  0  0  0  0  0  0  0  0
  -28.8520  -22.0886   18.9444 C   0  0  0  0  0  0  0  0  0  0  0  0
  -21.8125  -28.3476   16.8072 C   0  0  1  0  0  0  0  0  0  0  0  0
  -23.0656  -30.2329   13.7667 C   0  0  2  0  0  0  0  0  0  0  0  0
  -20.5752  -27.4113   16.7079 C   0  0  0  0  0  0  0  0  0  0  0  0
  -25.7946  -11.7710   20.2882 N   0  0  0  0  0  0  0  0  0  0  0  0
  -28.4838  -19.7277   19.5358 N   0  0  0  0  0  0  0  0  0  0  0  0
  -27.9628  -20.8782   19.0764 N   0  0  0  0  0  0  0  0  0  0  0  0
  -26.0115  -12.8292   19.4888 N   0  0  0  0  0  0  0  0  0  0  0  0
  -22.8197  -29.0992   18.9390 N   0  0  0  0  0  0  0  0  0  0  0  0
  -28.4413  -15.5112   20.7079 N   0  0  0  0  0  0  0  0  0  0  0  0
  -25.0494  -14.1032   17.7389 N   0  0  0  0  0  0  0  0  0  0  0  0
  -21.9392  -10.9306   18.5495 N   0  0  0  0  0  0  0  0  0  0  0  0
  -27.5252  -17.5425   19.9351 N   0  0  0  0  0  0  0  0  0  0  0  0
  -21.3772  -29.3547   22.1923 N   0  0  0  0  0  0  0  0  0  0  0  0
  -21.9846  -29.2341   15.6614 N   0  0  0  0  0  0  0  0  0  0  0  0
  -24.4177  -30.7962   13.4918 N   0  3  0  0  0  0  0  0  0  0  0  0
  -22.4516  -12.7454   17.2446 O   0  0  0  0  0  0  0  0  0  0  0  0
  -26.2730  -23.0275   18.0442 O   0  0  0  0  0  0  0  0  0  0  0  0
  -28.2563  -22.7953   21.1747 O   0  0  0  0  0  0  0  0  0  0  0  0
  -22.4433  -27.6021   21.0905 O   0  0  0  0  0  0  0  0  0  0  0  0
  -20.8293  -30.0302   18.1595 O   0  0  0  0  0  0  0  0  0  0  0  0
  -24.1087  -28.5007   15.0891 O   0  0  0  0  0  0  0  0  0  0  0  0
  -29.7652  -17.3971   20.5210 O   0  0  0  0  0  0  0  0  0  0  0  0
  -29.8952  -24.7894   18.7528 O   0  0  0  0  0  0  0  0  0  0  0  0
  -22.2789   -6.8839   22.3632 O   0  0  0  0  0  0  0  0  0  0  0  0
  -28.4475  -26.8381   20.0653 O   0  0  0  0  0  0  0  0  0  1  0  0
  -16.9569   -7.2164   23.7668 F   0  0  0  0  0  0  0  0  0  0  0  0
  -21.4868   -6.6072   24.9973 F   0  0  0  0  0  0  0  0  0  0  0  0
  1  2  1  0  0  0  0
  1  5  2  0  0  0  0
  2  6  2  0  0  0  0
  3  8  2  0  0  0  0
  3 16  1  0  0  0  0
  4  9  1  0  0  0  0
  4 16  2  0  0  0  0
  5 18  1  0  0  0  0
  6 20  1  0  0  0  0
  7 10  2  0  0  0  0
  7 19  1  0  0  0  0
  8 22  1  0  0  0  0
  9 22  2  0  0  0  0
 10 23  1  0  0  0  0
 11 12  2  0  0  0  0
 11 24  1  0  0  0  0
 12 25  1  0  0  0  0
 13 21  1  0  0  0  0
 13 23  2  0  0  0  0
 14 25  2  0  0  0  0
 14 26  1  0  0  0  0
 15 28  2  0  0  0  0
 15 29  1  0  0  0  0
 16 27  1  0  0  0  0
 17 27  1  0  0  0  0
 17 30  2  0  0  0  0
 17 32  1  0  0  0  0
 18 20  2  0  0  0  0
 18 40  1  0  0  0  0
 19 21  2  0  0  0  0
 19 41  1  0  0  0  0
 20 49  1  0  0  0  0
 21 42  1  0  0  0  0
 22 83  1  0  0  0  0
 23 84  1  0  0  0  0
 24 26  2  0  0  0  0
 24 83  1  0  0  0  0
 25 85  1  0  0  0  0
 26 86  1  0  0  0  0
 27 63  2  0  0  0  0
 28 33  1  0  0  0  0
 28 65  1  0  0  0  0
 29 64  2  0  0  0  0
 29 71  1  0  0  0  0
 30 66  1  0  0  0  0
 30 69  1  0  0  0  0
 31 34  2  0  0  0  0
 31 84  1  0  0  0  0
 32 70  1  0  0  0  0
 32 75  2  0  0  0  0
 33 58  1  0  0  0  0
 33 76  2  0  0  0  0
 34 35  1  0  0  0  0
 34 82  1  0  0  0  0
 35 59  1  0  0  0  0
 35 77  2  0  0  0  0
 36 50  1  0  0  0  0
 36 72  1  0  0  0  0
 36 78  2  0  0  0  0
 37 60  1  0  0  0  0
 37 67  1  0  0  0  0
 37 79  2  0  0  0  0
 38 61  1  0  0  0  0
 38 73  1  0  0  0  0
 38 80  2  0  0  0  0
 39 68  1  0  0  0  0
 39 71  1  0  0  0  0
 39 81  2  0  0  0  0
 40 43  1  0  0  0  0
 41 50  1  0  0  0  0
 42 67  1  0  0  0  0
 43 45  1  0  0  0  0
 44 46  1  0  0  0  0
 44 47  1  0  0  0  0
 45 49  1  0  0  0  0
 46 51  1  0  0  0  0
 47 68  1  0  0  0  0
 48 51  1  0  0  0  0
 48 68  1  0  0  0  0
 49 72  1  0  0  0  0
 50 67  1  0  0  0  0
 51 66  1  0  0  0  0
 52 58  1  0  0  0  0
 53 61  1  0  0  0  0
 54 62  1  0  0  0  0
 55 62  1  0  0  0  0
 56 62  1  0  0  0  0
 57 74  1  0  0  0  0
 59 65  1  0  0  0  0
 60 62  1  0  0  0  0
 60 73  1  0  0  0  0
 61 74  1  0  0  0  0
 63 66  1  0  0  0  0
 64 65  1  0  0  0  0
M  CHG  1  74   1
M  ISO  4  31 101  39 100  71 100  84 101
M  END
> <Batch ID>
0165

> <Smiles>
CCC(=O)c1cc([100NH:0][100C:0](=O)N2CCCC(n3nc(-c4ccc(Oc5ccc(F)cc5F)cc4)c(C(N)=O)c3N)C2)nn1CC(=O)C(=O)[101CH2:1][101O:1]c1ccc2c(c1)CN(C(=O)C(NC(=O)C(C)NC)C(C)(C)C)C(C(=O)NC1CCCc3ccccc31)C2

> <Shape>
0.265

> <Color>
0.113

> <Negative vol penalty>
0.000

$$$$

  -OEChem-04052304053D

 85 93  0     1  0  0  0  0  0999 V2000
  -15.9810  -25.6800   27.7141 C   0  0  0  0  0  0  0  0  0  0  0  0
  -17.2632  -25.1424   27.6663 C   0  0  0  0  0  0  0  0  0  0  0  0
  -23.0766   -9.8642   19.9428 C   0  0  0  0  0  0  0  0  0  0  0  0
  -23.8319   -9.8796   22.2377 C   0  0  0  0  0  0  0  0  0  0  0  0
  -15.4739  -26.3694   26.6134 C   0  0  0  0  0  0  0  0  0  0  0  0
  -18.0388  -25.2930   26.5172 C   0  0  0  0  0  0  0  0  0  0  0  0
  -24.1148  -26.0096   26.2444 C   0  0  0  0  0  0  0  0  0  0  0  0
  -22.3326   -8.7117   20.1953 C   0  0  0  0  0  0  0  0  0  0  0  0
  -23.0878   -8.7271   22.4902 C   0  0  0  0  0  0  0  0  0  0  0  0
  -25.1545  -25.1149   25.9952 C   0  0  0  0  0  0  0  0  0  0  0  0
  -19.8587   -7.9303   23.0891 C   0  0  0  0  0  0  0  0  0  0  0  0
  -19.0994   -7.8942   24.2586 C   0  0  0  0  0  0  0  0  0  0  0  0
  -25.1554  -25.7716   23.6741 C   0  0  0  0  0  0  0  0  0  0  0  0
  -20.3400   -5.9598   25.0044 C   0  0  0  0  0  0  0  0  0  0  0  0
  -29.7515  -17.7194   22.7057 C   0  0  0  0  0  0  0  0  0  0  0  0
  -23.8263  -10.4481   20.9639 C   0  0  0  0  0  0  0  0  0  0  0  0
  -24.1675  -12.9730   20.8357 C   0  0  0  0  0  0  0  0  0  0  0  0
  -16.2473  -26.5368   25.4538 C   0  0  0  0  0  0  0  0  0  0  0  0
  -23.5793  -26.7855   25.2063 C   0  0  0  0  0  0  0  0  0  0  0  0
  -17.5411  -25.9841   25.3995 C   0  0  0  0  0  0  0  0  0  0  0  0
  -24.1106  -26.6773   23.9132 C   0  0  0  0  0  0  0  0  0  0  0  0
  -22.3382   -8.1431   21.4690 C   0  0  0  0  0  0  0  0  0  0  0  0
  -25.6731  -24.9937   24.7094 C   0  0  0  0  0  0  0  0  0  0  0  0
  -20.8586   -6.9811   22.8772 C   0  0  0  0  0  0  0  0  0  0  0  0
  -19.3401   -6.9091   25.2162 C   0  0  0  0  0  0  0  0  0  0  0  0
  -21.0993   -5.9959   23.8348 C   0  0  0  0  0  0  0  0  0  0  0  0
  -24.5955  -11.6384   20.7035 C   0  0  0  0  0  0  0  0  0  0  0  0
  -30.5678  -16.9551   21.8970 C   0  0  0  0  0  0  0  0  0  0  0  0
  -30.2710  -18.9357   23.0992 C   0  0  0  0  0  0  0  0  0  0  0  0
  -25.2601  -13.7215   20.4719 C   0  0  0  0  0  0  0  0  0  0  0  0
  -32.1913  -18.5453   21.9472 C   0  0  0  0  0  0  0  0  0  0  0  0
  -27.2063  -20.2920   26.4586 C   0  0  0  0  0  0  0  0  0  0  0  0
  -22.8960  -13.4898   21.2502 C   0  0  0  0  0  0  0  0  0  0  0  0
  -27.5738  -20.4776   25.1822 C   0  0  0  0  0  0  0  0  0  0  0  0
  -27.3757  -21.8049   24.5025 C   0  0  0  0  0  0  0  0  0  0  0  0
  -20.7205  -27.0382   23.8397 C   0  0  0  0  0  0  0  0  0  0  0  0
  -22.1259  -29.4965   22.2574 C   0  0  0  0  0  0  0  0  0  0  0  0
  -25.0002  -30.9511   21.1308 C   0  0  0  0  0  0  0  0  0  0  0  0
  -30.7256  -14.7696   20.6540 C   0  0  0  0  0  0  0  0  0  0  0  0
  -15.6385  -27.2489   24.2718 C   0  0  0  0  0  0  0  0  0  0  0  0
  -22.4758  -27.7654   25.4969 C   0  0  0  0  0  0  0  0  0  0  0  0
  -23.5845  -27.5023   22.7681 C   0  0  0  0  0  0  0  0  0  0  0  0
  -16.6648  -27.6877   23.2304 C   0  0  0  0  0  0  0  0  0  0  0  0
  -29.6168  -12.3471   18.2920 C   0  0  0  0  0  0  0  0  0  0  0  0
  -17.6364  -26.5516   22.9267 C   0  0  0  0  0  0  0  0  0  0  0  0
  -28.1764  -12.0565   18.7197 C   0  0  0  0  0  0  0  0  0  0  0  0
  -30.5294  -12.5804   19.4947 C   0  0  0  0  0  0  0  0  0  0  0  0
  -28.6194  -13.3091   20.8695 C   0  0  0  0  0  0  0  0  0  0  0  0
  -18.4222  -26.1478   24.1801 C   0  0  1  0  0  0  0  0  0  0  0  0
  -21.6611  -28.1319   24.2602 C   0  0  1  0  0  0  0  0  0  0  0  0
  -27.6490  -13.1314   19.6904 C   0  0  2  0  0  0  0  0  0  0  0  0
  -25.8276  -32.9354   19.8364 C   0  0  0  0  0  0  0  0  0  0  0  0
  -21.2278  -28.1729   19.6590 C   0  0  0  0  0  0  0  0  0  0  0  0
  -22.8536  -29.6317   18.4355 C   0  0  0  0  0  0  0  0  0  0  0  0
  -20.9695  -30.6600   19.7064 C   0  0  0  0  0  0  0  0  0  0  0  0
  -26.5633  -31.9499   23.4370 C   0  0  0  0  0  0  0  0  0  0  0  0
  -28.1618  -19.3611   24.3626 C   0  0  0  0  0  0  0  0  0  0  0  0
  -26.7491  -22.9503   25.2775 C   0  0  0  0  0  0  0  0  0  1  0  0
  -22.9037  -29.6345   20.9709 C   0  0  1  0  0  0  0  0  0  0  0  0
  -25.5062  -32.3799   21.2152 C   0  0  2  0  0  0  0  0  0  0  0  0
  -21.9975  -29.5077   19.7139 C   0  0  0  0  0  0  0  0  0  0  0  0
  -25.8612  -11.5415   20.2881 N   0  0  0  0  0  0  0  0  0  0  0  0
  -31.7979  -17.3386   21.4970 N   0  0  0  0  0  0  0  0  0  0  0  0
  -31.4918  -19.3819   22.7374 N   0  0  0  0  0  0  0  0  0  0  0  0
  -26.2379  -12.8247   20.1560 N   0  0  0  0  0  0  0  0  0  0  0  0
  -22.5010  -28.4416   23.1014 N   0  0  0  0  0  0  0  0  0  0  0  0
  -29.9683  -13.6142   20.3673 N   0  0  0  0  0  0  0  0  0  0  0  0
  -25.4702  -15.0528   20.3946 N   0  0  0  0  0  0  0  0  0  0  0  0
  -21.8837  -12.5815   21.5886 N   0  0  0  0  0  0  0  0  0  0  0  0
  -30.0763  -15.6973   21.4678 N   0  0  0  0  0  0  0  0  0  0  0  0
  -29.4821  -19.7335   23.9125 N   0  0  0  0  0  0  0  0  0  0  0  0
  -19.4789  -27.1010   24.4430 N   0  0  0  0  0  0  0  0  0  0  0  0
  -23.6240  -30.8998   21.0631 N   0  0  0  0  0  0  0  0  0  0  0  0
  -26.7409  -32.4439   22.0472 N   0  3  0  0  0  0  0  0  0  0  0  0
  -22.6592  -14.7206   21.3027 O   0  0  0  0  0  0  0  0  0  0  0  0
  -27.7229  -21.9481   23.3290 O   0  0  0  0  0  0  0  0  0  0  0  0
  -21.0931  -26.2002   23.0270 O   0  0  0  0  0  0  0  0  0  0  0  0
  -21.2236  -30.2995   22.5076 O   0  0  0  0  0  0  0  0  0  0  0  0
  -25.7510  -29.9780   21.1219 O   0  0  0  0  0  0  0  0  0  0  0  0
  -31.8556  -14.9371   20.1880 O   0  0  0  0  0  0  0  0  0  0  0  0
  -21.6121   -7.0187   21.7159 O   0  0  0  0  0  0  0  0  0  0  0  0
  -26.6875  -24.1206   24.4633 O   0  0  0  0  0  0  0  0  0  1  0  0
  -18.6119   -6.8755   26.3400 F   0  0  0  0  0  0  0  0  0  0  0  0
  -22.0593   -5.0820   23.6374 F   0  0  0  0  0  0  0  0  0  0  0  0
  -33.4120  -18.9586   21.5676 F   0  0  0  0  0  0  0  0  0  0  0  0
  1  2  1  0  0  0  0
  1  5  2  0  0  0  0
  2  6  2  0  0  0  0
  3  8  2  0  0  0  0
  3 16  1  0  0  0  0
  4  9  1  0  0  0  0
  4 16  2  0  0  0  0
  5 18  1  0  0  0  0
  6 20  1  0  0  0  0
  7 10  2  0  0  0  0
  7 19  1  0  0  0  0
  8 22  1  0  0  0  0
  9 22  2  0  0  0  0
 10 23  1  0  0  0  0
 11 12  2  0  0  0  0
 11 24  1  0  0  0  0
 12 25  1  0  0  0  0
 13 21  1  0  0  0  0
 13 23  2  0  0  0  0
 14 25  2  0  0  0  0
 14 26  1  0  0  0  0
 15 28  2  0  0  0  0
 15 29  1  0  0  0  0
 16 27  1  0  0  0  0
 17 27  1  0  0  0  0
 17 30  2  0  0  0  0
 17 33  1  0  0  0  0
 18 20  2  0  0  0  0
 18 40  1  0  0  0  0
 19 21  2  0  0  0  0
 19 41  1  0  0  0  0
 20 49  1  0  0  0  0
 21 42  1  0  0  0  0
 22 81  1  0  0  0  0
 23 82  1  0  0  0  0
 24 26  2  0  0  0  0
 24 81  1  0  0  0  0
 25 83  1  0  0  0  0
 26 84  1  0  0  0  0
 27 62  2  0  0  0  0
 28 63  1  0  0  0  0
 28 70  1  0  0  0  0
 29 64  2  0  0  0  0
 29 71  1  0  0  0  0
 30 65  1  0  0  0  0
 30 68  1  0  0  0  0
 31 63  2  0  0  0  0
 31 64  1  0  0  0  0
 31 85  1  0  0  0  0
 32 34  2  0  0  0  0
 33 69  1  0  0  0  0
 33 75  2  0  0  0  0
 34 35  1  0  0  0  0
 34 57  1  0  0  0  0
 35 58  1  0  0  0  0
 35 76  2  0  0  0  0
 36 50  1  0  0  0  0
 36 72  1  0  0  0  0
 36 77  2  0  0  0  0
 37 59  1  0  0  0  0
 37 66  1  0  0  0  0
 37 78  2  0  0  0  0
 38 60  1  0  0  0  0
 38 73  1  0  0  0  0
 38 79  2  0  0  0  0
 39 67  1  0  0  0  0
 39 70  1  0  0  0  0
 39 80  2  0  0  0  0
 40 43  1  0  0  0  0
 41 50  1  0  0  0  0
 42 66  1  0  0  0  0
 43 45  1  0  0  0  0
 44 46  1  0  0  0  0
 44 47  1  0  0  0  0
 45 49  1  0  0  0  0
 46 51  1  0  0  0  0
 47 67  1  0  0  0  0
 48 51  1  0  0  0  0
 48 67  1  0  0  0  0
 49 72  1  0  0  0  0
 50 66  1  0  0  0  0
 51 65  1  0  0  0  0
 52 60  1  0  0  0  0
 53 61  1  0  0  0  0
 54 61  1  0  0  0  0
 55 61  1  0  0  0  0
 56 74  1  0  0  0  0
 57 71  1  0  0  0  0
 58 82  1  0  0  0  0
 59 61  1  0  0  0  0
 59 73  1  0  0  0  0
 60 74  1  0  0  0  0
 62 65  1  0  0  0  0
M  CHG  1  74   1
M  ISO  4  39 100  58 101  70 100  82 101
M  END
> <Batch ID>
0165

> <Smiles>
C=C(CNc1cc([100NH:0][100C:0](=O)N2CCCC(n3nc(-c4ccc(Oc5ccc(F)cc5F)cc4)c(C(N)=O)c3N)C2)nc(F)n1)C(=O)[101CH2:1][101O:1]c1ccc2c(c1)CN(C(=O)C(NC(=O)C(C)NC)C(C)(C)C)C(C(=O)NC1CCCc3ccccc31)C2

> <Shape>
0.283

> <Color>
0.180

> <Negative vol penalty>
0.000

$$$$

  -OEChem-04052304053D

 83 91  0     1  0  0  0  0  0999 V2000
  -31.3262  -17.5917   22.6484 C   0  0  0  0  0  0  0  0  0  0  0  0
  -30.2072  -18.2529   22.1522 C   0  0  0  0  0  0  0  0  0  0  0  0
  -27.6389  -24.1082   18.9540 C   0  0  0  0  0  0  0  0  0  0  0  0
  -26.6455  -23.3990   21.0390 C   0  0  0  0  0  0  0  0  0  0  0  0
  -31.3962  -16.2005   22.5879 C   0  0  0  0  0  0  0  0  0  0  0  0
  -29.1581  -17.5233   21.5941 C   0  0  0  0  0  0  0  0  0  0  0  0
  -24.6212  -19.1284   23.1705 C   0  0  0  0  0  0  0  0  0  0  0  0
  -28.6318  -23.1392   19.0974 C   0  0  0  0  0  0  0  0  0  0  0  0
  -27.6384  -22.4298   21.1824 C   0  0  0  0  0  0  0  0  0  0  0  0
  -24.1170  -20.2883   22.5838 C   0  0  0  0  0  0  0  0  0  0  0  0
  -28.9442  -19.8048   18.6311 C   0  0  0  0  0  0  0  0  0  0  0  0
  -29.2659  -19.0360   17.5126 C   0  0  0  0  0  0  0  0  0  0  0  0
  -18.7254  -28.5118   22.8071 C   0  0  0  0  0  0  0  0  0  0  0  0
  -18.6663  -27.4262   21.9008 C   0  0  0  0  0  0  0  0  0  0  0  0
  -22.7286  -18.9464   21.1380 C   0  0  0  0  0  0  0  0  0  0  0  0
  -31.5416  -19.8411   17.6139 C   0  0  0  0  0  0  0  0  0  0  0  0
  -26.6458  -24.2382   19.9248 C   0  0  0  0  0  0  0  0  0  0  0  0
  -24.3759  -25.0937   19.1353 C   0  0  0  0  0  0  0  0  0  0  0  0
  -30.3432  -15.4529   22.0376 C   0  0  0  0  0  0  0  0  0  0  0  0
  -24.1902  -17.8664   22.7371 C   0  0  0  0  0  0  0  0  0  0  0  0
  -29.2147  -16.1208   21.5250 C   0  0  0  0  0  0  0  0  0  0  0  0
  -23.2269  -17.7720   21.7225 C   0  0  0  0  0  0  0  0  0  0  0  0
  -28.6316  -22.2999   20.2116 C   0  0  0  0  0  0  0  0  0  0  0  0
  -23.1728  -20.1974   21.5654 C   0  0  0  0  0  0  0  0  0  0  0  0
  -29.9210  -20.5919   19.2409 C   0  0  0  0  0  0  0  0  0  0  0  0
  -30.5647  -19.0541   17.0041 C   0  0  0  0  0  0  0  0  0  0  0  0
  -31.2198  -20.6100   18.7323 C   0  0  0  0  0  0  0  0  0  0  0  0
  -25.6201  -25.2394   19.7775 C   0  0  0  0  0  0  0  0  0  0  0  0
  -19.7952  -28.2608   23.6345 C   0  0  0  0  0  0  0  0  0  0  0  0
  -23.7752  -26.3218   19.2679 C   0  0  0  0  0  0  0  0  0  0  0  0
  -19.7044  -26.5895   22.2389 C   0  0  0  0  0  0  0  0  0  0  0  0
  -23.8133  -23.9505   18.4779 C   0  0  0  0  0  0  0  0  0  0  0  0
  -25.6035  -15.3464   21.4119 C   0  0  0  0  0  0  0  0  0  0  0  0
  -21.4459  -23.3746   21.3940 C   0  0  0  0  0  0  0  0  0  0  0  0
  -22.6864  -13.9869   21.8173 C   0  0  0  0  0  0  0  0  0  0  0  0
  -19.3201  -14.4078   22.1882 C   0  0  0  0  0  0  0  0  0  0  0  0
  -23.3101  -30.6855   23.0436 C   0  0  0  0  0  0  0  0  0  0  0  0
  -30.4849  -13.9538   21.9511 C   0  0  0  0  0  0  0  0  0  0  0  0
  -24.7239  -16.6254   23.3985 C   0  0  0  0  0  0  0  0  0  0  0  0
  -22.7164  -16.4416   21.2350 C   0  0  0  0  0  0  0  0  0  0  0  0
  -29.1666  -13.2317   21.6847 C   0  0  0  0  0  0  0  0  0  0  0  0
  -25.3858  -30.9102   20.1596 C   0  0  0  0  0  0  0  0  0  0  0  0
  -28.3995  -13.9188   20.5594 C   0  0  0  0  0  0  0  0  0  0  0  0
  -25.5422  -29.4572   19.7074 C   0  0  0  0  0  0  0  0  0  0  0  0
  -25.3511  -31.0268   21.6818 C   0  0  0  0  0  0  0  0  0  0  0  0
  -24.5021  -28.7228   21.8931 C   0  0  0  0  0  0  0  0  0  0  0  0
  -28.0454  -15.3629   20.9347 C   0  0  1  0  0  0  0  0  0  0  0  0
  -24.5956  -15.3808   22.5257 C   0  0  1  0  0  0  0  0  0  0  0  0
  -24.4861  -28.5486   20.3648 C   0  0  2  0  0  0  0  0  0  0  0  0
  -17.1905  -13.1085   22.4595 C   0  0  0  0  0  0  0  0  0  0  0  0
  -22.7406  -13.2831   18.8488 C   0  0  0  0  0  0  0  0  0  0  0  0
  -20.2745  -12.8691   18.9734 C   0  0  0  0  0  0  0  0  0  0  0  0
  -21.8405  -11.4817   20.3318 C   0  0  0  0  0  0  0  0  0  0  0  0
  -18.7697  -15.6369   24.8236 C   0  0  0  0  0  0  0  0  0  0  0  0
  -20.3824  -28.9903   24.7670 C   0  0  0  0  0  0  0  0  0  0  0  0
  -21.2623  -24.6408   22.2034 C   0  0  0  0  0  0  0  0  0  0  0  0
  -22.6094  -22.4951   21.8087 C   0  0  0  0  0  0  0  0  0  1  0  0
  -21.2680  -30.1865   24.3627 C   0  0  0  0  0  0  0  0  0  0  0  0
  -21.4285  -13.8881   20.9886 C   0  0  1  0  0  0  0  0  0  0  0  0
  -18.3331  -13.8115   23.1755 C   0  0  2  0  0  0  0  0  0  0  0  0
  -21.5819  -12.9057   19.7933 C   0  0  0  0  0  0  0  0  0  0  0  0
  -25.8006  -26.4635   20.2805 N   0  0  0  0  0  0  0  0  0  0  0  0
  -24.6618  -27.0983   19.9543 N   0  0  0  0  0  0  0  0  0  0  0  0
  -23.2733  -15.2569   21.9088 N   0  0  0  0  0  0  0  0  0  0  0  0
  -24.3277  -30.1413   22.2427 N   0  0  0  0  0  0  0  0  0  0  0  0
  -22.5805  -26.8024   18.8629 N   0  0  0  0  0  0  0  0  0  0  0  0
  -24.5650  -22.7685   18.4330 N   0  0  0  0  0  0  0  0  0  0  0  0
  -20.1331  -25.3830   21.7042 N   0  0  0  0  0  0  0  0  0  0  0  0
  -26.9167  -15.3875   21.8401 N   0  0  0  0  0  0  0  0  0  0  0  0
  -20.3560  -13.5400   21.9143 N   0  0  0  0  0  0  0  0  0  0  0  0
  -22.3772  -29.7778   23.5299 N   0  0  0  0  0  0  0  0  0  0  0  0
  -17.7587  -14.8790   24.0423 N   0  3  0  0  0  0  0  0  0  0  0  0
  -22.6845  -23.9813   17.9316 O   0  0  0  0  0  0  0  0  0  0  0  0
  -25.2185  -15.2856   20.2502 O   0  0  0  0  0  0  0  0  0  0  0  0
  -20.7064  -23.0694   20.4593 O   0  0  0  0  0  0  0  0  0  0  0  0
  -23.1280  -12.9759   22.3691 O   0  0  0  0  0  0  0  0  0  0  0  0
  -19.1836  -15.5297   21.7051 O   0  0  0  0  0  0  0  0  0  0  0  0
  -23.2353  -31.8917   23.3015 O   0  0  0  0  0  0  0  0  0  0  0  0
  -20.3974  -27.0910   23.2947 O   0  0  0  0  0  0  0  0  0  0  0  0
  -29.6002  -21.3540   20.3517 O   0  0  0  0  0  0  0  0  0  0  0  0
  -22.6795  -21.3279   20.9907 O   0  0  0  0  0  0  0  0  0  1  0  0
  -30.8739  -18.3145   15.9309 F   0  0  0  0  0  0  0  0  0  0  0  0
  -32.1628  -21.3633   19.3146 F   0  0  0  0  0  0  0  0  0  0  0  0
  1  2  1  0  0  0  0
  1  5  2  0  0  0  0
  2  6  2  0  0  0  0
  3  8  2  0  0  0  0
  3 17  1  0  0  0  0
  4  9  1  0  0  0  0
  4 17  2  0  0  0  0
  5 19  1  0  0  0  0
  6 21  1  0  0  0  0
  7 10  2  0  0  0  0
  7 20  1  0  0  0  0
  8 23  1  0  0  0  0
  9 23  2  0  0  0  0
 10 24  1  0  0  0  0
 11 12  2  0  0  0  0
 11 25  1  0  0  0  0
 12 26  1  0  0  0  0
 13 14  1  0  0  0  0
 13 29  2  0  0  0  0
 14 31  2  0  0  0  0
 15 22  1  0  0  0  0
 15 24  2  0  0  0  0
 16 26  2  0  0  0  0
 16 27  1  0  0  0  0
 17 28  1  0  0  0  0
 18 28  1  0  0  0  0
 18 30  2  0  0  0  0
 18 32  1  0  0  0  0
 19 21  2  0  0  0  0
 19 38  1  0  0  0  0
 20 22  2  0  0  0  0
 20 39  1  0  0  0  0
 21 47  1  0  0  0  0
 22 40  1  0  0  0  0
 23 80  1  0  0  0  0
 24 81  1  0  0  0  0
 25 27  2  0  0  0  0
 25 80  1  0  0  0  0
 26 82  1  0  0  0  0
 27 83  1  0  0  0  0
 28 62  2  0  0  0  0
 29 55  1  0  0  0  0
 29 79  1  0  0  0  0
 30 63  1  0  0  0  0
 30 66  1  0  0  0  0
 31 68  1  0  0  0  0
 31 79  1  0  0  0  0
 32 67  1  0  0  0  0
 32 73  2  0  0  0  0
 33 48  1  0  0  0  0
 33 69  1  0  0  0  0
 33 74  2  0  0  0  0
 34 56  1  0  0  0  0
 34 57  1  0  0  0  0
 34 75  2  0  0  0  0
 35 59  1  0  0  0  0
 35 64  1  0  0  0  0
 35 76  2  0  0  0  0
 36 60  1  0  0  0  0
 36 70  1  0  0  0  0
 36 77  2  0  0  0  0
 37 65  1  0  0  0  0
 37 71  1  0  0  0  0
 37 78  2  0  0  0  0
 38 41  1  0  0  0  0
 39 48  1  0  0  0  0
 40 64  1  0  0  0  0
 41 43  1  0  0  0  0
 42 44  1  0  0  0  0
 42 45  1  0  0  0  0
 43 47  1  0  0  0  0
 44 49  1  0  0  0  0
 45 65  1  0  0  0  0
 46 49  1  0  0  0  0
 46 65  1  0  0  0  0
 47 69  1  0  0  0  0
 48 64  1  0  0  0  0
 49 63  1  0  0  0  0
 50 60  1  0  0  0  0
 51 61  1  0  0  0  0
 52 61  1  0  0  0  0
 53 61  1  0  0  0  0
 54 72  1  0  0  0  0
 55 58  1  0  0  0  0
 56 68  1  0  0  0  0
 57 81  1  0  0  0  0
 58 71  1  0  0  0  0
 59 61  1  0  0  0  0
 59 70  1  0  0  0  0
 60 72  1  0  0  0  0
 62 63  1  0  0  0  0
M  CHG  1  72   1
M  ISO  4  37 100  57 101  71 100  81 101
M  END
> <Batch ID>
0165

> <Smiles>
CNC(C)C(=O)NC(C(=O)N1Cc2cc([101O:1][101CH2:1]C(=O)CNc3ccc(CC[100NH:0][100C:0](=O)N4CCCC(n5nc(-c6ccc(Oc7ccc(F)cc7F)cc6)c(C(N)=O)c5N)C4)o3)ccc2CC1C(=O)NC1CCCc2ccccc21)C(C)(C)C

> <Shape>
0.216

> <Color>
0.074

> <Negative vol penalty>
0.000

$$$$

  -OEChem-04052304053D

 88 97  0     1  0  0  0  0  0999 V2000
  -28.3078  -36.6735   18.1384 C   0  0  0  0  0  0  0  0  0  0  0  0
  -28.7777  -35.4674   18.6482 C   0  0  0  0  0  0  0  0  0  0  0  0
  -23.0765   -9.8759   20.9423 C   0  0  0  0  0  0  0  0  0  0  0  0
  -23.8582  -10.4730   23.1490 C   0  0  0  0  0  0  0  0  0  0  0  0
  -27.1225  -37.2211   18.6273 C   0  0  0  0  0  0  0  0  0  0  0  0
  -28.0630  -34.8087   19.6481 C   0  0  0  0  0  0  0  0  0  0  0  0
  -27.5042  -28.7560   20.3952 C   0  0  0  0  0  0  0  0  0  0  0  0
  -22.3384   -8.8257   21.4879 C   0  0  0  0  0  0  0  0  0  0  0  0
  -23.1201   -9.4227   23.6946 C   0  0  0  0  0  0  0  0  0  0  0  0
  -28.1612  -27.8488   21.2253 C   0  0  0  0  0  0  0  0  0  0  0  0
  -22.9230   -5.6939   22.6170 C   0  0  0  0  0  0  0  0  0  0  0  0
  -22.9839   -4.4575   21.9742 C   0  0  0  0  0  0  0  0  0  0  0  0
  -26.3695  -28.0291   22.8305 C   0  0  0  0  0  0  0  0  0  0  0  0
  -31.8760  -19.1768   22.7873 C   0  0  0  0  0  0  0  0  0  0  0  0
  -32.0690  -17.0610   21.6371 C   0  0  0  0  0  0  0  0  0  0  0  0
  -20.5957   -4.5265   21.6155 C   0  0  0  0  0  0  0  0  0  0  0  0
  -23.8365  -10.6996   21.7728 C   0  0  0  0  0  0  0  0  0  0  0  0
  -24.1699  -13.1089   21.0038 C   0  0  0  0  0  0  0  0  0  0  0  0
  -26.3878  -36.5639   19.6268 C   0  0  0  0  0  0  0  0  0  0  0  0
  -26.2781  -29.3159   20.7822 C   0  0  0  0  0  0  0  0  0  0  0  0
  -26.8674  -35.3487   20.1517 C   0  0  0  0  0  0  0  0  0  0  0  0
  -25.6977  -28.9412   22.0024 C   0  0  0  0  0  0  0  0  0  0  0  0
  -30.4885  -19.1222   22.6551 C   0  0  0  0  0  0  0  0  0  0  0  0
  -30.6815  -17.0063   21.5049 C   0  0  0  0  0  0  0  0  0  0  0  0
  -22.3601   -8.5990   22.8640 C   0  0  0  0  0  0  0  0  0  0  0  0
  -27.5953  -27.4873   22.4444 C   0  0  0  0  0  0  0  0  0  0  0  0
  -21.6985   -6.3466   22.7591 C   0  0  0  0  0  0  0  0  0  0  0  0
  -21.8203   -3.8738   21.4734 C   0  0  0  0  0  0  0  0  0  0  0  0
  -32.6663  -18.1462   22.2782 C   0  0  0  0  0  0  0  0  0  0  0  0
  -20.5348   -5.7629   22.2583 C   0  0  0  0  0  0  0  0  0  0  0  0
  -29.8912  -18.0369   22.0140 C   0  0  0  0  0  0  0  0  0  0  0  0
  -24.5997  -11.7843   21.2097 C   0  0  0  0  0  0  0  0  0  0  0  0
  -25.2564  -13.7401   20.4491 C   0  0  0  0  0  0  0  0  0  0  0  0
  -28.7268  -23.1594   23.1263 C   0  0  0  0  0  0  0  0  0  0  0  0
  -29.1103  -24.3947   23.4703 C   0  0  0  0  0  0  0  0  0  0  0  0
  -22.9020  -13.7147   21.2885 C   0  0  0  0  0  0  0  0  0  0  0  0
  -30.1191  -21.3131   23.8331 C   0  0  0  0  0  0  0  0  0  0  0  0
  -25.2459  -32.2628   21.3770 C   0  0  0  0  0  0  0  0  0  0  0  0
  -22.3685  -30.7860   21.6259 C   0  0  0  0  0  0  0  0  0  0  0  0
  -20.6294  -27.9132   22.2331 C   0  0  0  0  0  0  0  0  0  0  0  0
  -30.7209  -14.7973   20.2945 C   0  0  0  0  0  0  0  0  0  0  0  0
  -25.1367  -37.2184   20.1571 C   0  0  0  0  0  0  0  0  0  0  0  0
  -25.5691  -30.2727   19.8634 C   0  0  0  0  0  0  0  0  0  0  0  0
  -24.3735  -29.4981   22.4548 C   0  0  0  0  0  0  0  0  0  0  0  0
  -29.6687  -24.4341   24.8575 C   0  0  0  0  0  0  0  0  0  0  0  0
  -24.2435  -36.2699   20.9526 C   0  0  0  0  0  0  0  0  0  0  0  0
  -29.2822  -23.0652   25.4267 C   0  0  0  0  0  0  0  0  0  0  0  0
  -29.5910  -11.8550   18.6381 C   0  0  0  0  0  0  0  0  0  0  0  0
  -25.0734  -35.4613   21.9447 C   0  0  0  0  0  0  0  0  0  0  0  0
  -28.1563  -11.6833   19.1426 C   0  0  0  0  0  0  0  0  0  0  0  0
  -30.5168  -12.3856   19.7313 C   0  0  0  0  0  0  0  0  0  0  0  0
  -28.6210  -13.4404   20.8986 C   0  0  0  0  0  0  0  0  0  0  0  0
  -26.1074  -34.5918   21.2192 C   0  0  1  0  0  0  0  0  0  0  0  0
  -28.9615  -22.1769   24.2239 C   0  0  1  0  0  0  0  0  0  0  0  0
  -24.5747  -31.1730   20.5901 C   0  0  1  0  0  0  0  0  0  0  0  0
  -27.6375  -12.9696   19.8147 C   0  0  2  0  0  0  0  0  0  0  0  0
  -18.2880  -27.0265   22.4033 C   0  0  0  0  0  0  0  0  0  0  0  0
  -22.0756  -32.0927   24.3676 C   0  0  0  0  0  0  0  0  0  0  0  0
  -20.2417  -30.4641   24.8705 C   0  0  0  0  0  0  0  0  0  0  0  0
  -19.9892  -32.0821   22.9887 C   0  0  0  0  0  0  0  0  0  0  0  0
  -21.0624  -26.0147   20.0044 C   0  0  0  0  0  0  0  0  0  0  0  0
  -29.0517  -25.6162   22.6274 C   0  0  0  0  0  0  0  0  0  1  0  0
  -21.5914  -30.1412   22.7480 C   0  0  1  0  0  0  0  0  0  0  0  0
  -19.4819  -27.2540   21.4893 C   0  0  2  0  0  0  0  0  0  0  0  0
  -21.0004  -31.1858   23.7364 C   0  0  0  0  0  0  0  0  0  0  0  0
  -25.8607  -11.5845   20.8176 N   0  0  0  0  0  0  0  0  0  0  0  0
  -26.2327  -12.7920   20.3596 N   0  0  0  0  0  0  0  0  0  0  0  0
  -23.7221  -30.4349   21.5243 N   0  0  0  0  0  0  0  0  0  0  0  0
  -29.9633  -13.6073   20.3195 N   0  0  0  0  0  0  0  0  0  0  0  0
  -25.4622  -15.0080   20.0339 N   0  0  0  0  0  0  0  0  0  0  0  0
  -21.8959  -12.9226   21.8584 N   0  0  0  0  0  0  0  0  0  0  0  0
  -29.6894  -20.1691   23.1727 N   0  0  0  0  0  0  0  0  0  0  0  0
  -30.0787  -15.9015   20.8538 N   0  0  0  0  0  0  0  0  0  0  0  0
  -25.4747  -33.4187   20.6551 N   0  0  0  0  0  0  0  0  0  0  0  0
  -20.5931  -29.2864   22.1145 N   0  0  0  0  0  0  0  0  0  0  0  0
  -19.9101  -25.9370   20.9388 N   0  3  0  0  0  0  0  0  0  0  0  0
  -22.6627  -14.9186   21.0297 O   0  0  0  0  0  0  0  0  0  0  0  0
  -31.2696  -21.6475   24.0969 O   0  0  0  0  0  0  0  0  0  0  0  0
  -25.5336  -32.0699   22.5525 O   0  0  0  0  0  0  0  0  0  0  0  0
  -21.7940  -31.5669   20.8631 O   0  0  0  0  0  0  0  0  0  0  0  0
  -21.4714  -27.2740   22.8600 O   0  0  0  0  0  0  0  0  0  0  0  0
  -31.8450  -14.8404   19.7880 O   0  0  0  0  0  0  0  0  0  0  0  0
  -21.6398   -7.5744   23.3968 O   0  0  0  0  0  0  0  0  0  0  0  0
  -28.2348  -26.6025   23.2568 O   0  0  0  0  0  0  0  0  0  1  0  0
  -21.8791   -2.6872   20.8548 F   0  0  0  0  0  0  0  0  0  0  0  0
  -33.9987  -18.1985   22.4055 F   0  0  0  0  0  0  0  0  0  0  0  0
  -19.3557   -6.3857   22.3907 F   0  0  0  0  0  0  0  0  0  0  0  0
  -28.5561  -17.9833   21.8878 F   0  0  0  0  0  0  0  0  0  0  0  0
  1  2  1  0  0  0  0
  1  5  2  0  0  0  0
  2  6  2  0  0  0  0
  3  8  2  0  0  0  0
  3 17  1  0  0  0  0
  4  9  1  0  0  0  0
  4 17  2  0  0  0  0
  5 19  1  0  0  0  0
  6 21  1  0  0  0  0
  7 10  2  0  0  0  0
  7 20  1  0  0  0  0
  8 25  1  0  0  0  0
  9 25  2  0  0  0  0
 10 26  1  0  0  0  0
 11 12  2  0  0  0  0
 11 27  1  0  0  0  0
 12 28  1  0  0  0  0
 13 22  1  0  0  0  0
 13 26  2  0  0  0  0
 14 23  1  0  0  0  0
 14 29  2  0  0  0  0
 15 24  2  0  0  0  0
 15 29  1  0  0  0  0
 16 28  2  0  0  0  0
 16 30  1  0  0  0  0
 17 32  1  0  0  0  0
 18 32  1  0  0  0  0
 18 33  2  0  0  0  0
 18 36  1  0  0  0  0
 19 21  2  0  0  0  0
 19 42  1  0  0  0  0
 20 22  2  0  0  0  0
 20 43  1  0  0  0  0
 21 53  1  0  0  0  0
 22 44  1  0  0  0  0
 23 31  2  0  0  0  0
 23 72  1  0  0  0  0
 24 31  1  0  0  0  0
 24 73  1  0  0  0  0
 25 83  1  0  0  0  0
 26 84  1  0  0  0  0
 27 30  2  0  0  0  0
 27 83  1  0  0  0  0
 28 85  1  0  0  0  0
 29 86  1  0  0  0  0
 30 87  1  0  0  0  0
 31 88  1  0  0  0  0
 32 66  2  0  0  0  0
 33 67  1  0  0  0  0
 33 70  1  0  0  0  0
 34 35  2  0  0  0  0
 34 54  1  0  0  0  0
 35 45  1  0  0  0  0
 35 62  1  0  0  0  0
 36 71  1  0  0  0  0
 36 77  2  0  0  0  0
 37 54  1  0  0  0  0
 37 72  1  0  0  0  0
 37 78  2  0  0  0  0
 38 55  1  0  0  0  0
 38 74  1  0  0  0  0
 38 79  2  0  0  0  0
 39 63  1  0  0  0  0
 39 68  1  0  0  0  0
 39 80  2  0  0  0  0
 40 64  1  0  0  0  0
 40 75  1  0  0  0  0
 40 81  2  0  0  0  0
 41 69  1  0  0  0  0
 41 73  1  0  0  0  0
 41 82  2  0  0  0  0
 42 46  1  0  0  0  0
 43 55  1  0  0  0  0
 44 68  1  0  0  0  0
 45 47  1  0  0  0  0
 46 49  1  0  0  0  0
 47 54  1  0  0  0  0
 48 50  1  0  0  0  0
 48 51  1  0  0  0  0
 49 53  1  0  0  0  0
 50 56  1  0  0  0  0
 51 69  1  0  0  0  0
 52 56  1  0  0  0  0
 52 69  1  0  0  0  0
 53 74  1  0  0  0  0
 55 68  1  0  0  0  0
 56 67  1  0  0  0  0
 57 64  1  0  0  0  0
 58 65  1  0  0  0  0
 59 65  1  0  0  0  0
 60 65  1  0  0  0  0
 61 76  1  0  0  0  0
 62 84  1  0  0  0  0
 63 65  1  0  0  0  0
 63 75  1  0  0  0  0
 64 76  1  0  0  0  0
 66 67  1  0  0  0  0
M  CHG  1  76   1
M  ISO  4  41 100  62 101  73 100  84 101
M  END
> <Batch ID>
0165

> <Smiles>
CNC(C)C(=O)NC(C(=O)N1Cc2cc([101O:1][101CH2:1]C3=CC(C(=O)Nc4cc(F)cc([100NH:0][100C:0](=O)N5CCCC(n6nc(-c7ccc(Oc8ccc(F)cc8F)cc7)c(C(N)=O)c6N)C5)c4F)CC3)ccc2CC1C(=O)NC1CCCc2ccccc21)C(C)(C)C

> <Shape>
0.304

> <Color>
0.184

> <Negative vol penalty>
0.000

$$$$

  -OEChem-04052304053D

 85 93  0     1  0  0  0  0  0999 V2000
  -30.3858  -12.4500   19.3133 C   0  0  0  0  0  0  0  0  0  0  0  0
  -30.0554  -13.7890   19.4964 C   0  0  0  0  0  0  0  0  0  0  0  0
  -28.9408  -25.8133   20.3217 C   0  0  0  0  0  0  0  0  0  0  0  0
  -26.8988  -24.5283   20.4480 C   0  0  0  0  0  0  0  0  0  0  0  0
  -29.3872  -11.4773   19.3367 C   0  0  0  0  0  0  0  0  0  0  0  0
  -28.7259  -14.1561   19.7018 C   0  0  0  0  0  0  0  0  0  0  0  0
  -24.7417  -18.9823   23.1876 C   0  0  0  0  0  0  0  0  0  0  0  0
  -29.6656  -24.7044   20.7585 C   0  0  0  0  0  0  0  0  0  0  0  0
  -27.6235  -23.4194   20.8847 C   0  0  0  0  0  0  0  0  0  0  0  0
  -23.7251  -19.9081   22.9572 C   0  0  0  0  0  0  0  0  0  0  0  0
  -28.9813  -20.1437   21.6876 C   0  0  0  0  0  0  0  0  0  0  0  0
  -28.6891  -18.9084   21.1095 C   0  0  0  0  0  0  0  0  0  0  0  0
  -22.0944  -18.1332   23.0569 C   0  0  0  0  0  0  0  0  0  0  0  0
  -29.2815  -19.7847   18.9373 C   0  0  0  0  0  0  0  0  0  0  0  0
  -27.5574  -25.7253   20.1665 C   0  0  0  0  0  0  0  0  0  0  0  0
  -26.5062  -27.2192   18.3859 C   0  0  0  0  0  0  0  0  0  0  0  0
  -28.0461  -11.8316   19.5522 C   0  0  0  0  0  0  0  0  0  0  0  0
  -24.4428  -17.6211   23.3438 C   0  0  0  0  0  0  0  0  0  0  0  0
  -27.7083  -13.1873   19.7268 C   0  0  0  0  0  0  0  0  0  0  0  0
  -23.1088  -17.1925   23.2918 C   0  0  0  0  0  0  0  0  0  0  0  0
  -29.0070  -23.5075   21.0400 C   0  0  0  0  0  0  0  0  0  0  0  0
  -22.4015  -19.4833   22.8889 C   0  0  0  0  0  0  0  0  0  0  0  0
  -29.4235  -21.1996   20.8905 C   0  0  0  0  0  0  0  0  0  0  0  0
  -28.8392  -18.7288   19.7344 C   0  0  0  0  0  0  0  0  0  0  0  0
  -29.5736  -21.0201   19.5154 C   0  0  0  0  0  0  0  0  0  0  0  0
  -26.8081  -26.8705   19.7160 C   0  0  0  0  0  0  0  0  0  0  0  0
  -18.3096  -27.9763   22.2406 C   0  0  0  0  0  0  0  0  0  0  0  0
  -19.6117  -28.2169   22.6029 C   0  0  0  0  0  0  0  0  0  0  0  0
  -25.7809  -28.3808   18.4916 C   0  0  0  0  0  0  0  0  0  0  0  0
  -19.4470  -26.1661   22.1666 C   0  0  0  0  0  0  0  0  0  0  0  0
  -26.8506  -26.5527   17.1641 C   0  0  0  0  0  0  0  0  0  0  0  0
  -17.1621  -28.8055   22.1224 C   0  0  0  0  0  0  0  0  0  0  0  0
  -25.1923  -14.9647   21.7673 C   0  0  0  0  0  0  0  0  0  0  0  0
  -20.5781  -22.6273   22.2737 C   0  0  0  0  0  0  0  0  0  0  0  0
  -23.6627  -13.5293   24.2416 C   0  0  0  0  0  0  0  0  0  0  0  0
  -21.3704  -13.7640   26.7589 C   0  0  0  0  0  0  0  0  0  0  0  0
  -22.4051  -30.6963   22.8612 C   0  0  0  0  0  0  0  0  0  0  0  0
  -26.9956  -10.7499   19.5220 C   0  0  0  0  0  0  0  0  0  0  0  0
  -25.5484  -16.6388   23.6183 C   0  0  0  0  0  0  0  0  0  0  0  0
  -22.7332  -15.7453   23.4731 C   0  0  0  0  0  0  0  0  0  0  0  0
  -25.6588  -11.1822   20.1190 C   0  0  0  0  0  0  0  0  0  0  0  0
  -25.2304  -32.2082   21.3092 C   0  0  0  0  0  0  0  0  0  0  0  0
  -25.2541  -12.5527   19.5854 C   0  0  0  0  0  0  0  0  0  0  0  0
  -25.9278  -31.0431   20.6049 C   0  0  0  0  0  0  0  0  0  0  0  0
  -24.6224  -31.7790   22.6427 C   0  0  0  0  0  0  0  0  0  0  0  0
  -24.4163  -29.4508   21.8613 C   0  0  0  0  0  0  0  0  0  0  0  0
  -26.2807  -13.6224   19.9772 C   0  0  1  0  0  0  0  0  0  0  0  0
  -25.1788  -15.2052   23.2504 C   0  0  1  0  0  0  0  0  0  0  0  0
  -24.9968  -29.8215   20.4858 C   0  0  2  0  0  0  0  0  0  0  0  0
  -15.8530  -28.1770   21.6835 C   0  0  0  0  0  0  0  0  0  0  0  0
  -20.3093  -12.4143   28.5892 C   0  0  0  0  0  0  0  0  0  0  0  0
  -21.9373  -12.0905   22.1770 C   0  0  0  0  0  0  0  0  0  0  0  0
  -20.3309  -11.5290   24.0134 C   0  0  0  0  0  0  0  0  0  0  0  0
  -22.6702  -10.6670   24.0982 C   0  0  0  0  0  0  0  0  0  0  0  0
  -22.3979  -15.5835   28.8548 C   0  0  0  0  0  0  0  0  0  0  0  0
  -20.2449  -29.4824   23.0010 C   0  0  0  0  0  0  0  0  0  0  0  0
  -20.8545  -24.1066   22.1099 C   0  0  0  0  0  0  0  0  0  0  0  0
  -21.7919  -21.7499   22.5061 C   0  0  0  0  0  0  0  0  0  1  0  0
  -22.2373  -13.1211   24.5252 C   0  0  1  0  0  0  0  0  0  0  0  0
  -21.4371  -13.3663   28.2224 C   0  0  2  0  0  0  0  0  0  0  0  0
  -21.8008  -11.8790   23.6981 C   0  0  0  0  0  0  0  0  0  0  0  0
  -26.3150  -27.7402   20.6016 N   0  0  0  0  0  0  0  0  0  0  0  0
  -20.3356  -27.0531   22.5538 N   0  0  0  0  0  0  0  0  0  0  0  0
  -25.6960  -28.6470   19.8266 N   0  0  0  0  0  0  0  0  0  0  0  0
  -23.8504  -14.8223   23.7330 N   0  0  0  0  0  0  0  0  0  0  0  0
  -23.7489  -30.6173   22.4601 N   0  0  0  0  0  0  0  0  0  0  0  0
  -25.2138  -29.1902   17.5720 N   0  0  0  0  0  0  0  0  0  0  0  0
  -27.5998  -25.3705   17.2361 N   0  0  0  0  0  0  0  0  0  0  0  0
  -19.6133  -24.8023   21.9432 N   0  0  0  0  0  0  0  0  0  0  0  0
  -26.1042  -14.0096   21.3604 N   0  0  0  0  0  0  0  0  0  0  0  0
  -22.1443  -12.9397   25.9698 N   0  0  0  0  0  0  0  0  0  0  0  0
  -21.6451  -29.5530   22.6468 N   0  0  0  0  0  0  0  0  0  0  0  0
  -21.3357  -14.5723   29.0921 N   0  3  0  0  0  0  0  0  0  0  0  0
  -26.5181  -27.0014   16.0408 O   0  0  0  0  0  0  0  0  0  0  0  0
  -17.1131  -30.0373   22.3433 O   0  0  0  0  0  0  0  0  0  0  0  0
  -24.4306  -15.5977   21.0456 O   0  0  0  0  0  0  0  0  0  0  0  0
  -19.4463  -22.1545   22.1722 O   0  0  0  0  0  0  0  0  0  0  0  0
  -24.5767  -12.7329   24.4700 O   0  0  0  0  0  0  0  0  0  0  0  0
  -20.6959  -14.7090   26.3556 O   0  0  0  0  0  0  0  0  0  0  0  0
  -21.9172  -31.7125   23.3676 O   0  0  0  0  0  0  0  0  0  0  0  0
  -18.1922  -26.6495   21.9557 O   0  0  0  0  0  0  0  0  0  0  0  0
  -29.7139  -22.4252   21.4660 O   0  0  0  0  0  0  0  0  0  0  0  0
  -21.4073  -20.3847   22.6635 O   0  0  0  0  0  0  0  0  0  1  0  0
  -28.5601  -17.5420   19.1797 F   0  0  0  0  0  0  0  0  0  0  0  0
  -29.9992  -22.0303   18.7447 F   0  0  0  0  0  0  0  0  0  0  0  0
  1  2  1  0  0  0  0
  1  5  2  0  0  0  0
  2  6  2  0  0  0  0
  3  8  2  0  0  0  0
  3 15  1  0  0  0  0
  4  9  1  0  0  0  0
  4 15  2  0  0  0  0
  5 17  1  0  0  0  0
  6 19  1  0  0  0  0
  7 10  2  0  0  0  0
  7 18  1  0  0  0  0
  8 21  1  0  0  0  0
  9 21  2  0  0  0  0
 10 22  1  0  0  0  0
 11 12  2  0  0  0  0
 11 23  1  0  0  0  0
 12 24  1  0  0  0  0
 13 20  1  0  0  0  0
 13 22  2  0  0  0  0
 14 24  2  0  0  0  0
 14 25  1  0  0  0  0
 15 26  1  0  0  0  0
 16 26  1  0  0  0  0
 16 29  2  0  0  0  0
 16 31  1  0  0  0  0
 17 19  2  0  0  0  0
 17 38  1  0  0  0  0
 18 20  2  0  0  0  0
 18 39  1  0  0  0  0
 19 47  1  0  0  0  0
 20 40  1  0  0  0  0
 21 82  1  0  0  0  0
 22 83  1  0  0  0  0
 23 25  2  0  0  0  0
 23 82  1  0  0  0  0
 24 84  1  0  0  0  0
 25 85  1  0  0  0  0
 26 62  2  0  0  0  0
 27 28  2  0  0  0  0
 27 32  1  0  0  0  0
 27 81  1  0  0  0  0
 28 56  1  0  0  0  0
 28 63  1  0  0  0  0
 29 64  1  0  0  0  0
 29 67  1  0  0  0  0
 30 63  2  0  0  0  0
 30 69  1  0  0  0  0
 30 81  1  0  0  0  0
 31 68  1  0  0  0  0
 31 74  2  0  0  0  0
 32 50  1  0  0  0  0
 32 75  2  0  0  0  0
 33 48  1  0  0  0  0
 33 70  1  0  0  0  0
 33 76  2  0  0  0  0
 34 57  1  0  0  0  0
 34 58  1  0  0  0  0
 34 77  2  0  0  0  0
 35 59  1  0  0  0  0
 35 65  1  0  0  0  0
 35 78  2  0  0  0  0
 36 60  1  0  0  0  0
 36 71  1  0  0  0  0
 36 79  2  0  0  0  0
 37 66  1  0  0  0  0
 37 72  1  0  0  0  0
 37 80  2  0  0  0  0
 38 41  1  0  0  0  0
 39 48  1  0  0  0  0
 40 65  1  0  0  0  0
 41 43  1  0  0  0  0
 42 44  1  0  0  0  0
 42 45  1  0  0  0  0
 43 47  1  0  0  0  0
 44 49  1  0  0  0  0
 45 66  1  0  0  0  0
 46 49  1  0  0  0  0
 46 66  1  0  0  0  0
 47 70  1  0  0  0  0
 48 65  1  0  0  0  0
 49 64  1  0  0  0  0
 51 60  1  0  0  0  0
 52 61  1  0  0  0  0
 53 61  1  0  0  0  0
 54 61  1  0  0  0  0
 55 73  1  0  0  0  0
 56 72  1  0  0  0  0
 57 69  1  0  0  0  0
 58 83  1  0  0  0  0
 59 61  1  0  0  0  0
 59 71  1  0  0  0  0
 60 73  1  0  0  0  0
 62 64  1  0  0  0  0
M  CHG  1  73   1
M  ISO  4  37 100  58 101  72 100  83 101
M  END
> <Batch ID>
0165

> <Smiles>
CNC(C)C(=O)NC(C(=O)N1Cc2cc([101O:1][101CH2:1]C(=O)CNc3nc(C[100NH:0][100C:0](=O)N4CCCC(n5nc(-c6ccc(Oc7ccc(F)cc7F)cc6)c(C(N)=O)c5N)C4)c(C(C)=O)o3)ccc2CC1C(=O)NC1CCCc2ccccc21)C(C)(C)C

> <Shape>
0.258

> <Color>
0.072

> <Negative vol penalty>
0.000

$$$$

  -OEChem-04052304053D

 90 99  0     1  0  0  0  0  0999 V2000
  -25.9288  -20.0014   25.2131 C   0  0  0  0  0  0  0  0  0  0  0  0
  -26.6696  -20.7073   24.2706 C   0  0  0  0  0  0  0  0  0  0  0  0
  -26.4883  -12.5134   21.7046 C   0  0  0  0  0  0  0  0  0  0  0  0
  -25.8670  -13.7433   19.7201 C   0  0  0  0  0  0  0  0  0  0  0  0
  -24.6003  -20.3481   25.4557 C   0  0  0  0  0  0  0  0  0  0  0  0
  -26.0820  -21.7595   23.5693 C   0  0  0  0  0  0  0  0  0  0  0  0
  -29.0852  -25.8277   23.2942 C   0  0  0  0  0  0  0  0  0  0  0  0
  -25.2487  -11.8739   21.6965 C   0  0  0  0  0  0  0  0  0  0  0  0
  -24.6273  -13.1038   19.7119 C   0  0  0  0  0  0  0  0  0  0  0  0
  -30.1202  -25.7931   22.3608 C   0  0  0  0  0  0  0  0  0  0  0  0
  -23.7708   -9.3267   20.0351 C   0  0  0  0  0  0  0  0  0  0  0  0
  -23.7510   -7.9484   20.2484 C   0  0  0  0  0  0  0  0  0  0  0  0
  -28.9574  -21.2632   18.2693 C   0  0  0  0  0  0  0  0  0  0  0  0
  -28.7948  -27.1280   20.8506 C   0  0  0  0  0  0  0  0  0  0  0  0
  -30.6342  -22.2438   19.7042 C   0  0  0  0  0  0  0  0  0  0  0  0
  -22.3667   -8.2707   22.2022 C   0  0  0  0  0  0  0  0  0  0  0  0
  -26.7974  -13.4481   20.7165 C   0  0  0  0  0  0  0  0  0  0  0  0
  -30.4001  -23.0060   17.4203 C   0  0  0  0  0  0  0  0  0  0  0  0
  -29.2591  -13.6823   20.0898 C   0  0  0  0  0  0  0  0  0  0  0  0
  -23.9990  -21.4113   24.7639 C   0  0  0  0  0  0  0  0  0  0  0  0
  -27.8909  -26.5047   23.0080 C   0  0  0  0  0  0  0  0  0  0  0  0
  -24.7438  -22.1198   23.8018 C   0  0  0  0  0  0  0  0  0  0  0  0
  -29.3430  -22.1053   17.2169 C   0  0  0  0  0  0  0  0  0  0  0  0
  -27.7472  -27.1719   21.7831 C   0  0  0  0  0  0  0  0  0  0  0  0
  -29.5966  -21.3356   19.5073 C   0  0  0  0  0  0  0  0  0  0  0  0
  -31.0401  -23.0783   18.6633 C   0  0  0  0  0  0  0  0  0  0  0  0
  -24.3182  -12.1691   20.7001 C   0  0  0  0  0  0  0  0  0  0  0  0
  -29.9740  -26.4409   21.1377 C   0  0  0  0  0  0  0  0  0  0  0  0
  -23.0886  -10.1770   20.9053 C   0  0  0  0  0  0  0  0  0  0  0  0
  -23.0489   -7.4204   21.3319 C   0  0  0  0  0  0  0  0  0  0  0  0
  -22.3866   -9.6491   21.9888 C   0  0  0  0  0  0  0  0  0  0  0  0
  -28.0775  -14.1094   20.7247 C   0  0  0  0  0  0  0  0  0  0  0  0
  -30.1839  -14.6497   20.3988 C   0  0  0  0  0  0  0  0  0  0  0  0
  -30.8569  -23.8839   16.3119 C   0  0  0  0  0  0  0  0  0  0  0  0
  -29.4993  -12.5155   19.2920 C   0  0  0  0  0  0  0  0  0  0  0  0
  -24.8423  -25.6518   22.7210 C   0  0  0  0  0  0  0  0  0  0  0  0
  -24.3772  -28.8511   22.4552 C   0  0  0  0  0  0  0  0  0  0  0  0
  -25.6658  -31.9102   21.6626 C   0  0  0  0  0  0  0  0  0  0  0  0
  -29.7179  -20.4265   21.8536 C   0  0  0  0  0  0  0  0  0  0  0  0
  -22.5459  -21.7186   25.0262 C   0  0  0  0  0  0  0  0  0  0  0  0
  -26.7943  -26.5552   24.0362 C   0  0  0  0  0  0  0  0  0  0  0  0
  -28.6511  -21.9924   15.8854 C   0  0  0  0  0  0  0  0  0  0  0  0
  -26.4929  -27.9298   21.4354 C   0  0  0  0  0  0  0  0  0  0  0  0
  -30.1654  -23.7627   14.9717 C   0  0  0  0  0  0  0  0  0  0  0  0
  -22.1100  -23.0875   24.5100 C   0  0  0  0  0  0  0  0  0  0  0  0
  -28.7234  -23.3055   15.1171 C   0  0  0  0  0  0  0  0  0  0  0  0
  -31.2546  -17.8611   23.7862 C   0  0  0  0  0  0  0  0  0  0  0  0
  -22.6166  -23.3080   23.0882 C   0  0  0  0  0  0  0  0  0  0  0  0
  -30.7266  -16.5690   23.1587 C   0  0  0  0  0  0  0  0  0  0  0  0
  -30.1926  -18.9591   23.8021 C   0  0  0  0  0  0  0  0  0  0  0  0
  -29.0399  -17.9455   21.8751 C   0  0  0  0  0  0  0  0  0  0  0  0
  -24.1491  -23.2834   23.0386 C   0  0  1  0  0  0  0  0  0  0  0  0
  -25.4224  -26.8410   23.4331 C   0  0  1  0  0  0  0  0  0  0  0  0
  -30.0941  -16.8306   21.7778 C   0  0  2  0  0  0  0  0  0  0  0  0
  -25.0337  -34.3337   21.5067 C   0  0  0  0  0  0  0  0  0  0  0  0
  -22.8813  -28.2912   19.8554 C   0  0  0  0  0  0  0  0  0  0  0  0
  -23.1118  -30.7174   19.2818 C   0  0  0  0  0  0  0  0  0  0  0  0
  -21.8300  -30.0333   21.3095 C   0  0  0  0  0  0  0  0  0  0  0  0
  -34.4721  -25.1647   21.6325 C   0  0  0  0  0  0  0  0  0  0  0  0
  -34.9520  -24.7905   19.2148 C   0  0  0  0  0  0  0  0  0  0  0  0
  -32.0232  -28.4459   20.6237 C   0  0  0  0  0  0  0  0  0  0  0  0
  -27.6747  -32.6844   23.6933 C   0  0  0  0  0  0  0  0  0  0  0  0
  -32.7469  -24.0386   20.2093 C   0  0  0  0  0  0  0  0  0  0  0  0
  -33.2730  -26.5391   19.8617 C   0  0  0  0  0  0  0  0  0  0  0  0
  -24.3505  -29.8362   21.3116 C   0  0  1  0  0  0  0  0  0  0  0  0
  -25.6186  -33.2421   22.3893 C   0  0  2  0  0  0  0  0  0  0  0  0
  -23.0664  -29.7037   20.4450 C   0  0  0  0  0  0  0  0  0  0  0  0
  -33.8380  -25.1382   20.2253 C   0  0  0  0  0  0  0  0  0  0  0  0
  -28.2346  -15.2586   21.3872 N   0  0  0  0  0  0  0  0  0  0  0  0
  -29.5257  -15.5617   21.1702 N   0  0  0  0  0  0  0  0  0  0  0  0
  -25.4467  -27.9447   22.4711 N   0  0  0  0  0  0  0  0  0  0  0  0
  -29.6413  -19.1545   22.4594 N   0  0  0  0  0  0  0  0  0  0  0  0
  -31.4878  -14.8005   20.0832 N   0  0  0  0  0  0  0  0  0  0  0  0
  -28.4388  -11.6256   19.0735 N   0  0  0  0  0  0  0  0  0  0  0  0
  -29.1903  -20.4836   20.5640 N   0  0  0  0  0  0  0  0  0  0  0  0
  -32.0797  -23.9536   18.9303 N   0  0  0  0  0  0  0  0  0  0  0  0
  -24.6906  -24.5357   23.5214 N   0  0  0  0  0  0  0  0  0  0  0  0
  -24.5374  -31.1558   21.9051 N   0  0  0  0  0  0  0  0  0  0  0  0
  -32.2129  -27.0029   20.7544 N   0  0  2  0  0  0  0  0  0  1  0  0
  -26.9895  -33.6558   22.8022 N   0  3  0  0  0  0  0  0  0  0  0  0
  -31.8055  -24.6467   16.4721 O   0  0  0  0  0  0  0  0  0  0  0  0
  -30.6254  -12.2608   18.8015 O   0  0  0  0  0  0  0  0  0  0  0  0
  -24.5524  -25.7408   21.5337 O   0  0  0  0  0  0  0  0  0  0  0  0
  -23.4858  -28.8892   23.3071 O   0  0  0  0  0  0  0  0  0  0  0  0
  -26.6077  -31.5742   20.9480 O   0  0  0  0  0  0  0  0  0  0  0  0
  -30.2396  -21.3872   22.4253 O   0  0  0  0  0  0  0  0  0  0  0  0
  -23.1086  -11.5451   20.6917 O   0  0  0  0  0  0  0  0  0  0  0  0
  -30.9825  -26.4081   20.2245 O   0  0  0  0  0  0  0  0  0  1  0  0
  -23.0287   -6.0967   21.5358 F   0  0  0  0  0  0  0  0  0  0  0  0
  -21.7284  -10.4609   22.8275 F   0  0  0  0  0  0  0  0  0  0  0  0
  1  2  1  0  0  0  0
  1  5  2  0  0  0  0
  2  6  2  0  0  0  0
  3  8  2  0  0  0  0
  3 17  1  0  0  0  0
  4  9  1  0  0  0  0
  4 17  2  0  0  0  0
  5 20  1  0  0  0  0
  6 22  1  0  0  0  0
  7 10  2  0  0  0  0
  7 21  1  0  0  0  0
  8 27  1  0  0  0  0
  9 27  2  0  0  0  0
 10 28  1  0  0  0  0
 11 12  2  0  0  0  0
 11 29  1  0  0  0  0
 12 30  1  0  0  0  0
 13 23  2  0  0  0  0
 13 25  1  0  0  0  0
 14 24  1  0  0  0  0
 14 28  2  0  0  0  0
 15 25  2  0  0  0  0
 15 26  1  0  0  0  0
 16 30  2  0  0  0  0
 16 31  1  0  0  0  0
 17 32  1  0  0  0  0
 18 23  1  0  0  0  0
 18 26  2  0  0  0  0
 18 34  1  0  0  0  0
 19 32  1  0  0  0  0
 19 33  2  0  0  0  0
 19 35  1  0  0  0  0
 20 22  2  0  0  0  0
 20 40  1  0  0  0  0
 21 24  2  0  0  0  0
 21 41  1  0  0  0  0
 22 52  1  0  0  0  0
 23 42  1  0  0  0  0
 24 43  1  0  0  0  0
 25 75  1  0  0  0  0
 26 76  1  0  0  0  0
 27 87  1  0  0  0  0
 28 88  1  0  0  0  0
 29 31  2  0  0  0  0
 29 87  1  0  0  0  0
 30 89  1  0  0  0  0
 31 90  1  0  0  0  0
 32 69  2  0  0  0  0
 33 70  1  0  0  0  0
 33 73  1  0  0  0  0
 34 44  1  0  0  0  0
 34 81  2  0  0  0  0
 35 74  1  0  0  0  0
 35 82  2  0  0  0  0
 36 53  1  0  0  0  0
 36 77  1  0  0  0  0
 36 83  2  0  0  0  0
 37 65  1  0  0  0  0
 37 71  1  0  0  0  0
 37 84  2  0  0  0  0
 38 66  1  0  0  0  0
 38 78  1  0  0  0  0
 38 85  2  0  0  0  0
 39 72  1  0  0  0  0
 39 75  1  0  0  0  0
 39 86  2  0  0  0  0
 40 45  1  0  0  0  0
 41 53  1  0  0  0  0
 42 46  1  0  0  0  0
 43 71  1  0  0  0  0
 44 46  1  0  0  0  0
 45 48  1  0  0  0  0
 47 49  1  0  0  0  0
 47 50  1  0  0  0  0
 48 52  1  0  0  0  0
 49 54  1  0  0  0  0
 50 72  1  0  0  0  0
 51 54  1  0  0  0  0
 51 72  1  0  0  0  0
 52 77  1  0  0  0  0
 53 71  1  0  0  0  0
 54 70  1  0  0  0  0
 55 66  1  0  0  0  0
 56 67  1  0  0  0  0
 57 67  1  0  0  0  0
 58 67  1  0  0  0  0
 59 68  1  0  0  0  0
 60 68  1  0  0  0  0
 61 79  1  0  0  0  0
 62 80  1  0  0  0  0
 63 68  1  0  0  0  0
 63 76  1  0  0  0  0
 64 68  1  0  0  0  0
 64 79  1  0  0  0  0
 65 67  1  0  0  0  0
 65 78  1  0  0  0  0
 66 80  1  0  0  0  0
 69 70  1  0  0  0  0
 79 88  1  0  0  0  0
M  CHG  1  80   1
M  ISO  4  39 100  75 100  79 101  88 101
M  END
> <Batch ID>
0165

> <Smiles>
CNC(C)C(=O)NC(C(=O)N1Cc2cc([101O:1][101N:1](C)CC(C)(C)CNc3cc([100NH:0][100C:0](=O)N4CCCC(n5nc(-c6ccc(Oc7ccc(F)cc7F)cc6)c(C(N)=O)c5N)C4)cc4c3C(=O)CCC4)ccc2CC1C(=O)NC1CCCc2ccccc21)C(C)(C)C

> <Shape>
0.264

> <Color>
0.068

> <Negative vol penalty>
0.000

$$$$

  -OEChem-04052304053D

 83 91  0     1  0  0  0  0  0999 V2000
  -18.3187  -25.6117   19.7176 C   0  0  0  0  0  0  0  0  0  0  0  0
  -19.2518  -24.7285   20.2512 C   0  0  0  0  0  0  0  0  0  0  0  0
  -23.1319   -9.8125   19.8860 C   0  0  0  0  0  0  0  0  0  0  0  0
  -23.9667   -9.7126   22.1510 C   0  0  0  0  0  0  0  0  0  0  0  0
  -18.2229  -26.9093   20.2185 C   0  0  0  0  0  0  0  0  0  0  0  0
  -20.0904  -25.1428   21.2854 C   0  0  0  0  0  0  0  0  0  0  0  0
  -22.1579  -21.7380   25.9370 C   0  0  0  0  0  0  0  0  0  0  0  0
  -22.4488   -8.6128   20.0848 C   0  0  0  0  0  0  0  0  0  0  0  0
  -23.2835   -8.5129   22.3499 C   0  0  0  0  0  0  0  0  0  0  0  0
  -23.3657  -21.0748   26.1497 C   0  0  0  0  0  0  0  0  0  0  0  0
  -20.1158   -7.5304   22.9986 C   0  0  0  0  0  0  0  0  0  0  0  0
  -19.4008   -7.3829   24.1871 C   0  0  0  0  0  0  0  0  0  0  0  0
  -24.1743  -22.9647   27.4121 C   0  0  0  0  0  0  0  0  0  0  0  0
  -29.6992  -17.4960   23.3487 C   0  0  0  0  0  0  0  0  0  0  0  0
  -31.8880  -16.7895   22.6453 C   0  0  0  0  0  0  0  0  0  0  0  0
  -20.7508   -5.4632   24.7611 C   0  0  0  0  0  0  0  0  0  0  0  0
  -23.8910  -10.3624   20.9190 C   0  0  0  0  0  0  0  0  0  0  0  0
  -24.1162  -12.9033   20.9490 C   0  0  0  0  0  0  0  0  0  0  0  0
  -19.0541  -27.3368   21.2658 C   0  0  0  0  0  0  0  0  0  0  0  0
  -21.9530  -23.0261   26.4520 C   0  0  0  0  0  0  0  0  0  0  0  0
  -20.0065  -26.4478   21.7998 C   0  0  0  0  0  0  0  0  0  0  0  0
  -22.9621  -23.6410   27.2068 C   0  0  0  0  0  0  0  0  0  0  0  0
  -30.5046  -16.7168   22.5255 C   0  0  0  0  0  0  0  0  0  0  0  0
  -22.5245   -7.9630   21.3168 C   0  0  0  0  0  0  0  0  0  0  0  0
  -24.3752  -21.6893   26.8848 C   0  0  0  0  0  0  0  0  0  0  0  0
  -21.1483   -6.6442   22.6912 C   0  0  0  0  0  0  0  0  0  0  0  0
  -19.7183   -6.3493   25.0683 C   0  0  0  0  0  0  0  0  0  0  0  0
  -21.4658   -5.6107   23.5725 C   0  0  0  0  0  0  0  0  0  0  0  0
  -24.5974  -11.6014   20.7140 C   0  0  0  0  0  0  0  0  0  0  0  0
  -30.3214  -18.3250   24.2682 C   0  0  0  0  0  0  0  0  0  0  0  0
  -32.4122  -17.6503   23.5961 C   0  0  0  0  0  0  0  0  0  0  0  0
  -25.1613  -13.7237   20.6009 C   0  0  0  0  0  0  0  0  0  0  0  0
  -22.8387  -13.3326   21.4383 C   0  0  0  0  0  0  0  0  0  0  0  0
  -21.3791  -25.8837   25.1837 C   0  0  0  0  0  0  0  0  0  0  0  0
  -27.4949  -20.0385   26.0449 C   0  0  0  0  0  0  0  0  0  0  0  0
  -21.0283  -26.7589   28.2874 C   0  0  0  0  0  0  0  0  0  0  0  0
  -21.7462  -26.1509   31.5680 C   0  0  0  0  0  0  0  0  0  0  0  0
  -30.5784  -15.0090   20.6751 C   0  0  0  0  0  0  0  0  0  0  0  0
  -18.9461  -28.7637   21.7422 C   0  0  0  0  0  0  0  0  0  0  0  0
  -20.6346  -23.7173   26.2364 C   0  0  0  0  0  0  0  0  0  0  0  0
  -22.7844  -25.0147   27.7983 C   0  0  0  0  0  0  0  0  0  0  0  0
  -19.6155  -29.0074   23.0922 C   0  0  0  0  0  0  0  0  0  0  0  0
  -29.4941  -12.6974   18.1935 C   0  0  0  0  0  0  0  0  0  0  0  0
  -21.0021  -28.3724   23.1230 C   0  0  0  0  0  0  0  0  0  0  0  0
  -28.0839  -12.3133   18.6474 C   0  0  0  0  0  0  0  0  0  0  0  0
  -30.4376  -12.8936   19.3789 C   0  0  0  0  0  0  0  0  0  0  0  0
  -28.5474  -13.4418   20.8607 C   0  0  0  0  0  0  0  0  0  0  0  0
  -20.9169  -26.8524   22.9389 C   0  0  1  0  0  0  0  0  0  0  0  0
  -20.7261  -25.2342   26.3709 C   0  0  1  0  0  0  0  0  0  0  0  0
  -27.5446  -13.2969   19.7044 C   0  0  2  0  0  0  0  0  0  0  0  0
  -21.3494  -27.0608   33.8727 C   0  0  0  0  0  0  0  0  0  0  0  0
  -23.0735  -28.9626   27.7669 C   0  0  0  0  0  0  0  0  0  0  0  0
  -23.3409  -29.2036   30.2445 C   0  0  0  0  0  0  0  0  0  0  0  0
  -21.1304  -29.6555   29.1806 C   0  0  0  0  0  0  0  0  0  0  0  0
  -20.3668  -23.6792   32.4322 C   0  0  0  0  0  0  0  0  0  0  0  0
  -28.0658  -19.0825   25.0192 C   0  0  0  0  0  0  0  0  0  0  0  0
  -25.9817  -20.1284   26.0856 C   0  0  0  0  0  0  0  0  0  1  0  0
  -21.9532  -27.2720   29.3646 C   0  0  1  0  0  0  0  0  0  0  0  0
  -20.8609  -26.0998   32.8001 C   0  0  2  0  0  0  0  0  0  0  0  0
  -22.3789  -28.7483   29.1265 C   0  0  0  0  0  0  0  0  0  0  0  0
  -25.8507  -11.5904   20.2522 N   0  0  0  0  0  0  0  0  0  0  0  0
  -31.6619  -18.4226   24.4136 N   0  0  0  0  0  0  0  0  0  0  0  0
  -26.1657  -12.8956   20.1941 N   0  0  0  0  0  0  0  0  0  0  0  0
  -21.4799  -25.6522   27.5546 N   0  0  0  0  0  0  0  0  0  0  0  0
  -29.8629  -13.8410   20.3365 N   0  0  0  0  0  0  0  0  0  0  0  0
  -25.3098  -15.0655   20.6061 N   0  0  0  0  0  0  0  0  0  0  0  0
  -21.8799  -12.3583   21.7479 N   0  0  0  0  0  0  0  0  0  0  0  0
  -29.9182  -15.8505   21.5698 N   0  0  0  0  0  0  0  0  0  0  0  0
  -29.5049  -19.0979   25.0813 N   0  0  0  0  0  0  0  0  0  0  0  0
  -20.5004  -26.2167   24.1705 N   0  0  0  0  0  0  0  0  0  0  0  0
  -21.2687  -27.0446   30.6327 N   0  0  0  0  0  0  0  0  0  0  0  0
  -20.8485  -24.7238   33.3723 N   0  3  0  0  0  0  0  0  0  0  0  0
  -22.5501  -14.5450   21.5807 O   0  0  0  0  0  0  0  0  0  0  0  0
  -22.5902  -26.0704   25.1873 O   0  0  0  0  0  0  0  0  0  0  0  0
  -28.2022  -20.7038   26.8005 O   0  0  0  0  0  0  0  0  0  0  0  0
  -19.9420  -27.3150   28.1078 O   0  0  0  0  0  0  0  0  0  0  0  0
  -22.7619  -25.4692   31.4487 O   0  0  0  0  0  0  0  0  0  0  0  0
  -31.6827  -15.2586   20.1849 O   0  0  0  0  0  0  0  0  0  0  0  0
  -21.8578   -6.7925   21.5113 O   0  0  0  0  0  0  0  0  0  0  0  0
  -25.5553  -21.0444   27.0933 O   0  0  0  0  0  0  0  0  0  1  0  0
  -19.0326   -6.2088   26.2104 F   0  0  0  0  0  0  0  0  0  0  0  0
  -22.4575   -4.7570   23.2833 F   0  0  0  0  0  0  0  0  0  0  0  0
  -33.7459  -17.7307   23.7217 F   0  0  0  0  0  0  0  0  0  0  0  0
  1  2  1  0  0  0  0
  1  5  2  0  0  0  0
  2  6  2  0  0  0  0
  3  8  2  0  0  0  0
  3 17  1  0  0  0  0
  4  9  1  0  0  0  0
  4 17  2  0  0  0  0
  5 19  1  0  0  0  0
  6 21  1  0  0  0  0
  7 10  2  0  0  0  0
  7 20  1  0  0  0  0
  8 24  1  0  0  0  0
  9 24  2  0  0  0  0
 10 25  1  0  0  0  0
 11 12  2  0  0  0  0
 11 26  1  0  0  0  0
 12 27  1  0  0  0  0
 13 22  1  0  0  0  0
 13 25  2  0  0  0  0
 14 23  2  0  0  0  0
 14 30  1  0  0  0  0
 15 23  1  0  0  0  0
 15 31  2  0  0  0  0
 16 27  2  0  0  0  0
 16 28  1  0  0  0  0
 17 29  1  0  0  0  0
 18 29  1  0  0  0  0
 18 32  2  0  0  0  0
 18 33  1  0  0  0  0
 19 21  2  0  0  0  0
 19 39  1  0  0  0  0
 20 22  2  0  0  0  0
 20 40  1  0  0  0  0
 21 48  1  0  0  0  0
 22 41  1  0  0  0  0
 23 68  1  0  0  0  0
 24 79  1  0  0  0  0
 25 80  1  0  0  0  0
 26 28  2  0  0  0  0
 26 79  1  0  0  0  0
 27 81  1  0  0  0  0
 28 82  1  0  0  0  0
 29 61  2  0  0  0  0
 30 62  2  0  0  0  0
 30 69  1  0  0  0  0
 31 62  1  0  0  0  0
 31 83  1  0  0  0  0
 32 63  1  0  0  0  0
 32 66  1  0  0  0  0
 33 67  1  0  0  0  0
 33 73  2  0  0  0  0
 34 49  1  0  0  0  0
 34 70  1  0  0  0  0
 34 74  2  0  0  0  0
 35 56  1  0  0  0  0
 35 57  1  0  0  0  0
 35 75  2  0  0  0  0
 36 58  1  0  0  0  0
 36 64  1  0  0  0  0
 36 76  2  0  0  0  0
 37 59  1  0  0  0  0
 37 71  1  0  0  0  0
 37 77  2  0  0  0  0
 38 65  1  0  0  0  0
 38 68  1  0  0  0  0
 38 78  2  0  0  0  0
 39 42  1  0  0  0  0
 40 49  1  0  0  0  0
 41 64  1  0  0  0  0
 42 44  1  0  0  0  0
 43 45  1  0  0  0  0
 43 46  1  0  0  0  0
 44 48  1  0  0  0  0
 45 50  1  0  0  0  0
 46 65  1  0  0  0  0
 47 50  1  0  0  0  0
 47 65  1  0  0  0  0
 48 70  1  0  0  0  0
 49 64  1  0  0  0  0
 50 63  1  0  0  0  0
 51 59  1  0  0  0  0
 52 60  1  0  0  0  0
 53 60  1  0  0  0  0
 54 60  1  0  0  0  0
 55 72  1  0  0  0  0
 56 69  1  0  0  0  0
 57 80  1  0  0  0  0
 58 60  1  0  0  0  0
 58 71  1  0  0  0  0
 59 72  1  0  0  0  0
 61 63  1  0  0  0  0
M  CHG  1  72   1
M  ISO  4  38 100  57 101  68 100  80 101
M  END
> <Batch ID>
0165

> <Smiles>
CNC(C)C(=O)NC(C(=O)N1Cc2cc([101O:1][101CH2:1]C(=O)CNc3cc([100NH:0][100C:0](=O)N4CCCC(n5nc(-c6ccc(Oc7ccc(F)cc7F)cc6)c(C(N)=O)c5N)C4)cc(F)n3)ccc2CC1C(=O)NC1CCCc2ccccc21)C(C)(C)C

> <Shape>
0.224

> <Color>
0.191

> <Negative vol penalty>
0.000

$$$$

  -OEChem-04052304053D

 86 94  0     1  0  0  0  0  0999 V2000
  -32.0294  -15.3894   16.7082 C   0  0  0  0  0  0  0  0  0  0  0  0
  -31.4798  -16.2624   17.6416 C   0  0  0  0  0  0  0  0  0  0  0  0
  -23.0013   -9.8928   19.9810 C   0  0  0  0  0  0  0  0  0  0  0  0
  -23.7268   -9.9442   22.2850 C   0  0  0  0  0  0  0  0  0  0  0  0
  -33.3048  -15.6286   16.1982 C   0  0  0  0  0  0  0  0  0  0  0  0
  -32.2057  -17.3746   18.0663 C   0  0  0  0  0  0  0  0  0  0  0  0
  -29.3987  -21.5871   18.2110 C   0  0  0  0  0  0  0  0  0  0  0  0
  -22.2353   -8.7580   20.2475 C   0  0  0  0  0  0  0  0  0  0  0  0
  -22.9606   -8.8094   22.5515 C   0  0  0  0  0  0  0  0  0  0  0  0
  -28.5390  -21.7423   19.2976 C   0  0  0  0  0  0  0  0  0  0  0  0
  -23.2061   -5.4706   22.0798 C   0  0  0  0  0  0  0  0  0  0  0  0
  -23.7941   -4.4536   22.8320 C   0  0  0  0  0  0  0  0  0  0  0  0
  -30.1377  -23.2146   20.3444 C   0  0  0  0  0  0  0  0  0  0  0  0
  -22.0703   -4.6961   24.5074 C   0  0  0  0  0  0  0  0  0  0  0  0
  -32.3931  -17.1378   23.9188 C   0  0  0  0  0  0  0  0  0  0  0  0
  -23.7472  -10.4858   20.9997 C   0  0  0  0  0  0  0  0  0  0  0  0
  -24.1315  -13.0016   20.8235 C   0  0  0  0  0  0  0  0  0  0  0  0
  -34.0429  -16.7496   16.6096 C   0  0  0  0  0  0  0  0  0  0  0  0
  -30.6412  -22.2369   18.1879 C   0  0  0  0  0  0  0  0  0  0  0  0
  -33.4927  -17.6283   17.5623 C   0  0  0  0  0  0  0  0  0  0  0  0
  -31.0103  -23.0680   19.2552 C   0  0  0  0  0  0  0  0  0  0  0  0
  -30.6727  -16.5538   22.3839 C   0  0  0  0  0  0  0  0  0  0  0  0
  -22.2149   -8.2163   21.5327 C   0  0  0  0  0  0  0  0  0  0  0  0
  -28.9097  -22.5539   20.3658 C   0  0  0  0  0  0  0  0  0  0  0  0
  -22.0503   -6.1003   22.5415 C   0  0  0  0  0  0  0  0  0  0  0  0
  -23.2262   -4.0664   24.0457 C   0  0  0  0  0  0  0  0  0  0  0  0
  -21.4824   -5.7130   23.7552 C   0  0  0  0  0  0  0  0  0  0  0  0
  -31.8489  -16.2128   23.0424 C   0  0  0  0  0  0  0  0  0  0  0  0
  -30.0850  -17.7918   22.6185 C   0  0  0  0  0  0  0  0  0  0  0  0
  -24.5392  -11.6577   20.7249 C   0  0  0  0  0  0  0  0  0  0  0  0
  -30.7080  -18.6461   23.5141 C   0  0  0  0  0  0  0  0  0  0  0  0
  -25.2410  -13.7245   20.4589 C   0  0  0  0  0  0  0  0  0  0  0  0
  -22.8634  -13.5475   21.2101 C   0  0  0  0  0  0  0  0  0  0  0  0
  -30.1265  -19.9857   23.8074 C   0  0  0  0  0  0  0  0  0  0  0  0
  -33.6711  -21.2809   18.0914 C   0  0  0  0  0  0  0  0  0  0  0  0
  -34.2560  -24.4567   17.7838 C   0  0  0  0  0  0  0  0  0  0  0  0
  -33.2008  -27.6605   18.3022 C   0  0  0  0  0  0  0  0  0  0  0  0
  -30.7201  -14.6877   20.6922 C   0  0  0  0  0  0  0  0  0  0  0  0
  -35.4365  -16.9407   16.0657 C   0  0  0  0  0  0  0  0  0  0  0  0
  -31.5456  -22.0803   16.9963 C   0  0  0  0  0  0  0  0  0  0  0  0
  -32.3244  -23.8037   19.2697 C   0  0  0  0  0  0  0  0  0  0  0  0
  -35.9892  -18.3463   16.2868 C   0  0  0  0  0  0  0  0  0  0  0  0
  -29.6025  -12.2342   18.3666 C   0  0  0  0  0  0  0  0  0  0  0  0
  -35.7403  -18.7981   17.7223 C   0  0  0  0  0  0  0  0  0  0  0  0
  -28.1520  -11.9760   18.7809 C   0  0  0  0  0  0  0  0  0  0  0  0
  -30.5030  -12.4780   19.5763 C   0  0  0  0  0  0  0  0  0  0  0  0
  -28.5875  -13.2663   20.9099 C   0  0  0  0  0  0  0  0  0  0  0  0
  -34.2391  -18.8592   18.0290 C   0  0  1  0  0  0  0  0  0  0  0  0
  -33.0075  -22.3810   17.3122 C   0  0  1  0  0  0  0  0  0  0  0  0
  -27.6298  -13.0795   19.7218 C   0  0  2  0  0  0  0  0  0  0  0  0
  -31.0781  -21.1044   24.1812 C   0  0  0  0  0  0  0  0  0  0  0  0
  -33.9115  -30.0453   17.9784 C   0  0  0  0  0  0  0  0  0  0  0  0
  -27.9823  -21.4646   25.5488 C   0  0  0  0  0  0  0  0  0  0  0  0
  -36.1619  -24.2079   20.1535 C   0  0  0  0  0  0  0  0  0  0  0  0
  -36.0950  -26.7004   20.3796 C   0  0  0  0  0  0  0  0  0  0  0  0
  -36.9914  -25.6624   18.2959 C   0  0  0  0  0  0  0  0  0  0  0  0
  -30.8930  -28.2306   16.5393 C   0  0  0  0  0  0  0  0  0  0  0  0
  -26.9685  -21.5944   23.2460 C   0  0  0  0  0  0  0  0  0  0  0  0
  -27.2141  -21.6107   21.7410 C   0  0  0  0  0  0  0  0  0  1  0  0
  -34.5038  -25.5959   18.7428 C   0  0  1  0  0  0  0  0  0  0  0  0
  -33.1561  -28.8675   17.3827 C   0  0  2  0  0  0  0  0  0  0  0  0
  -28.2570  -21.4195   24.0511 C   0  0  2  0  0  0  0  0  0  0  0  0
  -35.9140  -25.5264   19.3938 C   0  0  0  0  0  0  0  0  0  0  0  0
  -31.8510  -18.3499   24.1725 N   0  0  0  0  0  0  0  0  0  0  0  0
  -25.8084  -11.5316   20.3286 N   0  0  0  0  0  0  0  0  0  0  0  0
  -28.8498  -20.1147   23.7364 N   0  0  0  0  0  0  0  0  0  0  0  0
  -26.2079  -12.8056   20.1749 N   0  0  0  0  0  0  0  0  0  0  0  0
  -33.1770  -23.6134   18.0846 N   0  0  0  0  0  0  0  0  0  0  0  0
  -29.9477  -13.5388   20.4195 N   0  0  0  0  0  0  0  0  0  0  0  0
  -25.4739  -15.0503   20.3567 N   0  0  0  0  0  0  0  0  0  0  0  0
  -21.8320  -12.6630   21.5538 N   0  0  0  0  0  0  0  0  0  0  0  0
  -30.0756  -15.6427   21.4778 N   0  0  0  0  0  0  0  0  0  0  0  0
  -33.6546  -20.0533   17.4571 N   0  0  0  0  0  0  0  0  0  0  0  0
  -34.2512  -26.8222   17.9938 N   0  0  0  0  0  0  0  0  0  0  0  0
  -31.7455  -29.2857   17.1450 N   0  3  0  0  0  0  0  0  0  0  0  0
  -22.6462  -14.7828   21.2337 O   0  0  0  0  0  0  0  0  0  0  0  0
  -34.1630  -21.5278   19.1863 O   0  0  0  0  0  0  0  0  0  0  0  0
  -34.9883  -24.3242   16.8000 O   0  0  0  0  0  0  0  0  0  0  0  0
  -32.3876  -27.4813   19.2062 O   0  0  0  0  0  0  0  0  0  0  0  0
  -31.8587  -14.8270   20.2380 O   0  0  0  0  0  0  0  0  0  0  0  0
  -21.4673   -7.1092   21.7932 O   0  0  0  0  0  0  0  0  0  0  0  0
  -28.0728  -22.7066   21.4279 O   0  0  0  0  0  0  0  0  0  1  0  0
  -23.7901   -3.0887   24.7671 F   0  0  0  0  0  0  0  0  0  0  0  0
  -20.3713   -6.3135   24.2033 F   0  0  0  0  0  0  0  0  0  0  0  0
  -32.4441  -15.0301   22.8438 F   0  0  0  0  0  0  0  0  0  0  0  0
  -28.9518  -18.1470   21.9980 F   0  0  0  0  0  0  0  0  0  0  0  0
  1  2  1  0  0  0  0
  1  5  2  0  0  0  0
  2  6  2  0  0  0  0
  3  8  2  0  0  0  0
  3 16  1  0  0  0  0
  4  9  1  0  0  0  0
  4 16  2  0  0  0  0
  5 18  1  0  0  0  0
  6 20  1  0  0  0  0
  7 10  2  0  0  0  0
  7 19  1  0  0  0  0
  8 23  1  0  0  0  0
  9 23  2  0  0  0  0
 10 24  1  0  0  0  0
 11 12  2  0  0  0  0
 11 25  1  0  0  0  0
 12 26  1  0  0  0  0
 13 21  1  0  0  0  0
 13 24  2  0  0  0  0
 14 26  2  0  0  0  0
 14 27  1  0  0  0  0
 15 28  1  0  0  0  0
 15 64  2  0  0  0  0
 16 30  1  0  0  0  0
 17 30  1  0  0  0  0
 17 32  2  0  0  0  0
 17 33  1  0  0  0  0
 18 20  2  0  0  0  0
 18 39  1  0  0  0  0
 19 21  2  0  0  0  0
 19 40  1  0  0  0  0
 20 48  1  0  0  0  0
 21 41  1  0  0  0  0
 22 28  2  0  0  0  0
 22 29  1  0  0  0  0
 22 72  1  0  0  0  0
 23 81  1  0  0  0  0
 24 82  1  0  0  0  0
 25 27  2  0  0  0  0
 25 81  1  0  0  0  0
 26 83  1  0  0  0  0
 27 84  1  0  0  0  0
 28 85  1  0  0  0  0
 29 31  2  0  0  0  0
 29 86  1  0  0  0  0
 30 65  2  0  0  0  0
 31 34  1  0  0  0  0
 31 64  1  0  0  0  0
 32 67  1  0  0  0  0
 32 70  1  0  0  0  0
 33 71  1  0  0  0  0
 33 76  2  0  0  0  0
 34 51  1  0  0  0  0
 34 66  2  0  0  0  0
 35 49  1  0  0  0  0
 35 73  1  0  0  0  0
 35 77  2  0  0  0  0
 36 60  1  0  0  0  0
 36 68  1  0  0  0  0
 36 78  2  0  0  0  0
 37 61  1  0  0  0  0
 37 74  1  0  0  0  0
 37 79  2  0  0  0  0
 38 69  1  0  0  0  0
 38 72  1  0  0  0  0
 38 80  2  0  0  0  0
 39 42  1  0  0  0  0
 40 49  1  0  0  0  0
 41 68  1  0  0  0  0
 42 44  1  0  0  0  0
 43 45  1  0  0  0  0
 43 46  1  0  0  0  0
 44 48  1  0  0  0  0
 45 50  1  0  0  0  0
 46 69  1  0  0  0  0
 47 50  1  0  0  0  0
 47 69  1  0  0  0  0
 48 73  1  0  0  0  0
 49 68  1  0  0  0  0
 50 67  1  0  0  0  0
 52 61  1  0  0  0  0
 53 62  1  0  0  0  0
 54 63  1  0  0  0  0
 55 63  1  0  0  0  0
 56 63  1  0  0  0  0
 57 75  1  0  0  0  0
 58 59  1  0  0  0  0
 58 62  1  0  0  0  0
 59 82  1  0  0  0  0
 60 63  1  0  0  0  0
 60 74  1  0  0  0  0
 61 75  1  0  0  0  0
 62 66  1  0  0  0  0
 65 67  1  0  0  0  0
M  CHG  1  75   1
M  ISO  4  38 100  59 101  72 100  82 101
M  END
> <Batch ID>
0165

> <Smiles>
CNC(C)C(=O)NC(C(=O)N1Cc2cc([101O:1][101CH2:1]C=C(C)NC(C)c3ncc(F)c([100NH:0][100C:0](=O)N4CCCC(n5nc(-c6ccc(Oc7ccc(F)cc7F)cc6)c(C(N)=O)c5N)C4)c3F)ccc2CC1C(=O)NC1CCCc2ccccc21)C(C)(C)C

> <Shape>
0.224

> <Color>
0.198

> <Negative vol penalty>
0.000

$$$$

  -OEChem-04052304053D

 84 92  0     1  0  0  0  0  0999 V2000
  -17.7665  -26.6282   22.2579 C   0  0  0  0  0  0  0  0  0  0  0  0
  -18.7580  -26.5948   21.2826 C   0  0  0  0  0  0  0  0  0  0  0  0
  -24.7561  -14.0605   21.6797 C   0  0  0  0  0  0  0  0  0  0  0  0
  -26.8163  -13.7951   20.4458 C   0  0  0  0  0  0  0  0  0  0  0  0
  -17.9016  -27.4727   23.3591 C   0  0  0  0  0  0  0  0  0  0  0  0
  -19.8847  -27.4068   21.4073 C   0  0  0  0  0  0  0  0  0  0  0  0
  -25.5985  -26.0694   19.6553 C   0  0  0  0  0  0  0  0  0  0  0  0
  -24.2422  -12.9174   21.0675 C   0  0  0  0  0  0  0  0  0  0  0  0
  -26.3024  -12.6519   19.8337 C   0  0  0  0  0  0  0  0  0  0  0  0
  -26.3336  -26.4036   18.5188 C   0  0  0  0  0  0  0  0  0  0  0  0
  -24.5367   -9.5658   21.4031 C   0  0  0  0  0  0  0  0  0  0  0  0
  -23.8785   -8.6383   22.2106 C   0  0  0  0  0  0  0  0  0  0  0  0
  -29.6713  -22.1956   17.1192 C   0  0  0  0  0  0  0  0  0  0  0  0
  -31.4829  -21.5278   15.6670 C   0  0  0  0  0  0  0  0  0  0  0  0
  -27.3258  -28.2510   19.7112 C   0  0  0  0  0  0  0  0  0  0  0  0
  -30.9462  -20.2044   17.6158 C   0  0  0  0  0  0  0  0  0  0  0  0
  -21.8648   -8.9341   20.9087 C   0  0  0  0  0  0  0  0  0  0  0  0
  -26.0432  -14.4994   21.3688 C   0  0  0  0  0  0  0  0  0  0  0  0
  -30.4540  -22.4141   15.9856 C   0  0  0  0  0  0  0  0  0  0  0  0
  -27.3033  -15.7466   23.2030 C   0  0  0  0  0  0  0  0  0  0  0  0
  -19.0351  -28.2884   23.5022 C   0  0  0  0  0  0  0  0  0  0  0  0
  -25.7136  -26.8313   20.8269 C   0  0  0  0  0  0  0  0  0  0  0  0
  -20.0345  -28.2640   22.5107 C   0  0  0  0  0  0  0  0  0  0  0  0
  -26.5930  -27.9228   20.8621 C   0  0  0  0  0  0  0  0  0  0  0  0
  -29.9174  -21.0908   17.9344 C   0  0  0  0  0  0  0  0  0  0  0  0
  -25.0153  -12.2131   20.1445 C   0  0  0  0  0  0  0  0  0  0  0  0
  -27.1953  -27.4963   18.5457 C   0  0  0  0  0  0  0  0  0  0  0  0
  -23.8590  -10.1775   20.3484 C   0  0  0  0  0  0  0  0  0  0  0  0
  -22.5425   -8.3224   21.9634 C   0  0  0  0  0  0  0  0  0  0  0  0
  -31.7290  -20.4229   16.4821 C   0  0  0  0  0  0  0  0  0  0  0  0
  -22.5231   -9.8616   20.1012 C   0  0  0  0  0  0  0  0  0  0  0  0
  -26.5744  -15.6805   22.0004 C   0  0  0  0  0  0  0  0  0  0  0  0
  -27.5747  -17.0830   23.3669 C   0  0  0  0  0  0  0  0  0  0  0  0
  -30.1948  -23.5843   15.1229 C   0  0  0  0  0  0  0  0  0  0  0  0
  -27.6998  -14.6941   24.0922 C   0  0  0  0  0  0  0  0  0  0  0  0
  -23.7148  -28.5880   22.5655 C   0  0  0  0  0  0  0  0  0  0  0  0
  -26.2559  -28.7912   24.5716 C   0  0  0  0  0  0  0  0  0  0  0  0
  -29.6401  -28.6407   24.9849 C   0  0  0  0  0  0  0  0  0  0  0  0
  -28.0609  -21.6489   19.5431 C   0  0  0  0  0  0  0  0  0  0  0  0
  -19.1145  -29.2197   24.6858 C   0  0  0  0  0  0  0  0  0  0  0  0
  -24.9338  -26.4416   22.0527 C   0  0  0  0  0  0  0  0  0  0  0  0
  -26.7679  -28.7607   22.1013 C   0  0  0  0  0  0  0  0  0  0  0  0
  -20.5158  -29.7725   24.9330 C   0  0  0  0  0  0  0  0  0  0  0  0
  -25.8306  -21.4157   22.3087 C   0  0  0  0  0  0  0  0  0  0  0  0
  -21.1350  -30.2610   23.6273 C   0  0  0  0  0  0  0  0  0  0  0  0
  -25.8392  -19.9255   22.6568 C   0  0  0  0  0  0  0  0  0  0  0  0
  -25.9179  -21.6465   20.8011 C   0  0  0  0  0  0  0  0  0  0  0  0
  -27.0459  -19.4798   20.4814 C   0  0  0  0  0  0  0  0  0  0  0  0
  -21.2831  -29.1116   22.6230 C   0  0  1  0  0  0  0  0  0  0  0  0
  -24.7428  -27.5961   23.0315 C   0  0  1  0  0  0  0  0  0  0  0  0
  -27.0250  -19.1985   21.9927 C   0  0  2  0  0  0  0  0  0  0  0  0
  -31.4241  -28.8866   26.7325 C   0  0  0  0  0  0  0  0  0  0  0  0
  -25.9367  -31.8239   24.4671 C   0  0  0  0  0  0  0  0  0  0  0  0
  -28.2454  -32.0296   25.4137 C   0  0  0  0  0  0  0  0  0  0  0  0
  -26.4527  -30.9067   26.7358 C   0  0  0  0  0  0  0  0  0  0  0  0
  -30.5504  -25.8491   24.6145 C   0  0  0  0  0  0  0  0  0  0  0  0
  -29.5788  -27.1269   15.8573 C   0  0  0  0  0  0  0  0  0  0  0  0
  -30.0580  -26.0403   14.9092 C   0  0  0  0  0  0  0  0  0  0  0  0
  -28.2778  -26.7604   16.5602 C   0  0  0  0  0  0  0  0  0  1  0  0
  -27.4276  -29.7312   24.7209 C   0  0  1  0  0  0  0  0  0  0  0  0
  -30.4988  -27.9207   26.0089 C   0  0  2  0  0  0  0  0  0  0  0  0
  -27.0111  -31.1084   25.3103 C   0  0  0  0  0  0  0  0  0  0  0  0
  -26.3940  -16.8795   21.4402 N   0  0  0  0  0  0  0  0  0  0  0  0
  -27.0134  -17.7117   22.2946 N   0  0  0  0  0  0  0  0  0  0  0  0
  -25.9789  -28.3434   23.2721 N   0  0  0  0  0  0  0  0  0  0  0  0
  -27.0670  -20.9313   20.2417 N   0  0  0  0  0  0  0  0  0  0  0  0
  -28.2363  -17.7700   24.3224 N   0  0  0  0  0  0  0  0  0  0  0  0
  -29.8755  -23.3658   13.8473 N   0  0  0  0  0  0  0  0  0  0  0  0
  -27.3382  -13.3782   23.7731 N   0  0  0  0  0  0  0  0  0  0  0  0
  -29.1215  -20.8678   19.0852 N   0  0  0  0  0  0  0  0  0  0  0  0
  -22.4250  -28.2892   22.9610 N   0  0  0  0  0  0  0  0  0  0  0  0
  -28.4240  -29.0189   25.5134 N   0  0  0  0  0  0  0  0  0  0  0  0
  -30.2946  -24.8071   15.6602 N   0  3  0  0  0  0  0  0  0  0  0  0
  -31.3328  -26.8791   25.3452 N   0  3  0  0  0  0  0  0  0  0  0  0
  -28.3411  -14.9160   25.1472 O   0  0  0  0  0  0  0  0  0  0  0  0
  -24.0661  -29.5537   21.8980 O   0  0  0  0  0  0  0  0  0  0  0  0
  -25.6145  -28.4605   25.5721 O   0  0  0  0  0  0  0  0  0  0  0  0
  -30.0125  -28.8502   23.8325 O   0  0  0  0  0  0  0  0  0  0  0  0
  -27.9908  -22.8708   19.3879 O   0  0  0  0  0  0  0  0  0  0  0  0
  -24.5142  -11.0975   19.5472 O   0  0  0  0  0  0  0  0  0  0  0  0
  -27.9135  -27.8252   17.4376 O   0  0  0  0  0  0  0  0  0  1  0  0
  -21.9109   -7.4306   22.7379 F   0  0  0  0  0  0  0  0  0  0  0  0
  -32.7170  -19.5718   16.1762 F   0  0  0  0  0  0  0  0  0  0  0  0
  -21.8672  -10.4451   19.0887 F   0  0  0  0  0  0  0  0  0  0  0  0
  1  2  1  0  0  0  0
  1  5  2  0  0  0  0
  2  6  2  0  0  0  0
  3  8  2  0  0  0  0
  3 18  1  0  0  0  0
  4  9  1  0  0  0  0
  4 18  2  0  0  0  0
  5 21  1  0  0  0  0
  6 23  1  0  0  0  0
  7 10  2  0  0  0  0
  7 22  1  0  0  0  0
  8 26  1  0  0  0  0
  9 26  2  0  0  0  0
 10 27  1  0  0  0  0
 11 12  2  0  0  0  0
 11 28  1  0  0  0  0
 12 29  1  0  0  0  0
 13 19  2  0  0  0  0
 13 25  1  0  0  0  0
 14 19  1  0  0  0  0
 14 30  2  0  0  0  0
 15 24  1  0  0  0  0
 15 27  2  0  0  0  0
 16 25  2  0  0  0  0
 16 30  1  0  0  0  0
 17 29  2  0  0  0  0
 17 31  1  0  0  0  0
 18 32  1  0  0  0  0
 19 34  1  0  0  0  0
 20 32  1  0  0  0  0
 20 33  2  0  0  0  0
 20 35  1  0  0  0  0
 21 23  2  0  0  0  0
 21 40  1  0  0  0  0
 22 24  2  0  0  0  0
 22 41  1  0  0  0  0
 23 49  1  0  0  0  0
 24 42  1  0  0  0  0
 25 70  1  0  0  0  0
 26 80  1  0  0  0  0
 27 81  1  0  0  0  0
 28 31  2  0  0  0  0
 28 80  1  0  0  0  0
 29 82  1  0  0  0  0
 30 83  1  0  0  0  0
 31 84  1  0  0  0  0
 32 63  2  0  0  0  0
 33 64  1  0  0  0  0
 33 67  1  0  0  0  0
 34 68  1  0  0  0  0
 34 73  2  0  0  0  0
 35 69  1  0  0  0  0
 35 75  2  0  0  0  0
 36 50  1  0  0  0  0
 36 71  1  0  0  0  0
 36 76  2  0  0  0  0
 37 60  1  0  0  0  0
 37 65  1  0  0  0  0
 37 77  2  0  0  0  0
 38 61  1  0  0  0  0
 38 72  1  0  0  0  0
 38 78  2  0  0  0  0
 39 66  1  0  0  0  0
 39 70  1  0  0  0  0
 39 79  2  0  0  0  0
 40 43  1  0  0  0  0
 41 50  1  0  0  0  0
 42 65  1  0  0  0  0
 43 45  1  0  0  0  0
 44 46  1  0  0  0  0
 44 47  1  0  0  0  0
 45 49  1  0  0  0  0
 46 51  1  0  0  0  0
 47 66  1  0  0  0  0
 48 51  1  0  0  0  0
 48 66  1  0  0  0  0
 49 71  1  0  0  0  0
 50 65  1  0  0  0  0
 51 64  1  0  0  0  0
 52 61  1  0  0  0  0
 53 62  1  0  0  0  0
 54 62  1  0  0  0  0
 55 62  1  0  0  0  0
 56 74  1  0  0  0  0
 57 58  1  0  0  0  0
 57 59  1  0  0  0  0
 58 73  1  0  0  0  0
 59 81  1  0  0  0  0
 60 62  1  0  0  0  0
 60 72  1  0  0  0  0
 61 74  1  0  0  0  0
 63 64  1  0  0  0  0
M  CHG  2  73   1  74   1
M  ISO  4  39 100  59 101  70 100  81 101
M  END
> <Batch ID>
0165

> <Smiles>
CNC(C)C(=O)NC(C(=O)N1Cc2cc([101O:1][101CH2:1]CCNC(=N)c3cc(F)cc([100NH:0][100C:0](=O)N4CCCC(n5nc(-c6ccc(Oc7ccc(F)cc7F)cc6)c(C(N)=O)c5N)C4)c3)ccc2CC1C(=O)NC1CCCc2ccccc21)C(C)(C)C

> <Shape>
0.240

> <Color>
0.074

> <Negative vol penalty>
0.000

$$$$

  -OEChem-04052304053D

 87 95  0     1  0  0  0  0  0999 V2000
  -18.7703  -25.4759   24.9080 C   0  0  0  0  0  0  0  0  0  0  0  0
  -20.1594  -25.4746   24.9836 C   0  0  0  0  0  0  0  0  0  0  0  0
  -26.4225  -13.4319   18.9676 C   0  0  0  0  0  0  0  0  0  0  0  0
  -24.8312  -14.0821   20.6652 C   0  0  0  0  0  0  0  0  0  0  0  0
  -18.1246  -26.2922   23.9803 C   0  0  0  0  0  0  0  0  0  0  0  0
  -20.9037  -26.2888   24.1307 C   0  0  0  0  0  0  0  0  0  0  0  0
  -26.1768  -29.1240   25.4201 C   0  0  0  0  0  0  0  0  0  0  0  0
  -26.3788  -12.1168   19.4303 C   0  0  0  0  0  0  0  0  0  0  0  0
  -24.7874  -12.7670   21.1279 C   0  0  0  0  0  0  0  0  0  0  0  0
  -27.5058  -28.8016   25.1490 C   0  0  0  0  0  0  0  0  0  0  0  0
  -23.3174   -9.8598   20.2292 C   0  0  0  0  0  0  0  0  0  0  0  0
  -22.0644   -9.3134   20.5067 C   0  0  0  0  0  0  0  0  0  0  0  0
  -32.0036  -24.2768   19.8510 C   0  0  0  0  0  0  0  0  0  0  0  0
  -27.4404  -30.2061   23.1889 C   0  0  0  0  0  0  0  0  0  0  0  0
  -33.9001  -25.6974   19.3797 C   0  0  0  0  0  0  0  0  0  0  0  0
  -22.7260   -8.9629   22.8038 C   0  0  0  0  0  0  0  0  0  0  0  0
  -25.6488  -14.4146   19.5851 C   0  0  0  0  0  0  0  0  0  0  0  0
  -32.4767  -23.3402   18.9320 C   0  0  0  0  0  0  0  0  0  0  0  0
  -24.8773  -16.3551   18.1199 C   0  0  0  0  0  0  0  0  0  0  0  0
  -18.8610  -27.1241   23.1222 C   0  0  0  0  0  0  0  0  0  0  0  0
  -25.4650  -29.9827   24.5702 C   0  0  0  0  0  0  0  0  0  0  0  0
  -20.2673  -27.1160   23.1897 C   0  0  0  0  0  0  0  0  0  0  0  0
  -26.1032  -30.5398   23.4528 C   0  0  0  0  0  0  0  0  0  0  0  0
  -33.6616  -23.5822   18.2369 C   0  0  0  0  0  0  0  0  0  0  0  0
  -32.7153  -25.4554   20.0748 C   0  0  0  0  0  0  0  0  0  0  0  0
  -34.3733  -24.7608   18.4607 C   0  0  0  0  0  0  0  0  0  0  0  0
  -25.5612  -11.7843   20.5104 C   0  0  0  0  0  0  0  0  0  0  0  0
  -28.1369  -29.3403   24.0317 C   0  0  0  0  0  0  0  0  0  0  0  0
  -24.2748   -9.9576   21.2389 C   0  0  0  0  0  0  0  0  0  0  0  0
  -21.7687   -8.8650   21.7940 C   0  0  0  0  0  0  0  0  0  0  0  0
  -23.9791   -9.5092   22.5262 C   0  0  0  0  0  0  0  0  0  0  0  0
  -25.6940  -15.7734   19.1080 C   0  0  0  0  0  0  0  0  0  0  0  0
  -25.3149  -17.6542   18.0337 C   0  0  0  0  0  0  0  0  0  0  0  0
  -31.7086  -22.1196   18.7227 C   0  0  0  0  0  0  0  0  0  0  0  0
  -31.4029  -21.2167   19.6764 C   0  0  0  0  0  0  0  0  0  0  0  0
  -29.6835  -27.9369   22.9786 C   0  0  0  0  0  0  0  0  0  1  0  0
  -23.8177  -15.7732   17.3489 C   0  0  0  0  0  0  0  0  0  0  0  0
  -30.9188  -27.5378   22.6524 C   0  0  0  0  0  0  0  0  0  0  0  0
  -30.6049  -20.0301   19.3077 C   0  0  0  0  0  0  0  0  0  0  0  0
  -31.0865  -26.3280   21.7825 C   0  0  0  0  0  0  0  0  0  0  0  0
  -22.8743  -29.6975   22.7507 C   0  0  0  0  0  0  0  0  0  0  0  0
  -23.3010  -32.8844   22.3219 C   0  0  0  0  0  0  0  0  0  0  0  0
  -25.4317  -35.5503   22.3383 C   0  0  0  0  0  0  0  0  0  0  0  0
  -18.1205  -27.9539   22.1035 C   0  0  0  0  0  0  0  0  0  0  0  0
  -24.0401  -30.3417   24.8913 C   0  0  0  0  0  0  0  0  0  0  0  0
  -25.3894  -31.4828   22.5202 C   0  0  0  0  0  0  0  0  0  0  0  0
  -18.9682  -29.0661   21.4915 C   0  0  0  0  0  0  0  0  0  0  0  0
  -27.3552  -21.1078   20.6153 C   0  0  0  0  0  0  0  0  0  0  0  0
  -20.3368  -28.5308   21.0827 C   0  0  0  0  0  0  0  0  0  0  0  0
  -26.4984  -19.8793   20.3213 C   0  0  0  0  0  0  0  0  0  0  0  0
  -28.7941  -20.7309   20.9648 C   0  0  0  0  0  0  0  0  0  0  0  0
  -28.5949  -18.6444   19.6429 C   0  0  0  0  0  0  0  0  0  0  0  0
  -21.1086  -28.0038   22.2985 C   0  0  1  0  0  0  0  0  0  0  0  0
  -23.2556  -30.8203   23.6736 C   0  0  1  0  0  0  0  0  0  0  0  0
  -27.1551  -19.0030   19.2429 C   0  0  1  0  0  0  0  0  0  0  0  0
  -33.9108  -23.0052   15.8096 C   0  0  0  0  0  0  0  0  0  0  0  0
  -25.4977  -38.0219   21.9090 C   0  0  0  0  0  0  0  0  0  0  0  0
  -23.2367  -32.3617   19.3165 C   0  0  0  0  0  0  0  0  0  0  0  0
  -24.2359  -34.6312   18.9709 C   0  0  0  0  0  0  0  0  0  0  0  0
  -21.9964  -34.4070   20.0464 C   0  0  0  0  0  0  0  0  0  0  0  0
  -26.2577  -36.1288   25.1207 C   0  0  0  0  0  0  0  0  0  0  0  0
  -34.1775  -22.5810   17.2488 C   0  0  0  0  0  0  0  0  0  0  0  0
  -24.0642  -33.7380   21.3381 C   0  0  1  0  0  0  0  0  0  0  0  0
  -25.3107  -36.9327   22.9537 C   0  0  2  0  0  0  0  0  0  0  0  0
  -23.3964  -33.7652   19.9343 C   0  0  0  0  0  0  0  0  0  0  0  0
  -26.5833  -16.6325   19.6132 N   0  0  0  0  0  0  0  0  0  0  0  0
  -26.3279  -17.7671   18.9399 N   0  0  0  0  0  0  0  0  0  0  0  0
  -29.3808  -19.8453   19.9478 N   0  0  0  0  0  0  0  0  0  0  0  0
  -23.9954  -31.7983   22.8732 N   0  0  0  0  0  0  0  0  0  0  0  0
  -35.5754  -25.0245   17.7674 N   0  0  0  0  0  0  0  0  0  0  0  0
  -24.9282  -18.6994   17.2718 N   0  0  0  0  0  0  0  0  0  0  0  0
  -23.4974  -14.4258   17.5637 N   0  0  0  0  0  0  0  0  0  0  0  0
  -32.2356  -26.4063   21.0077 N   0  0  0  0  0  0  0  0  0  0  0  0
  -21.6658  -29.1022   23.0584 N   0  0  0  0  0  0  0  0  0  0  0  0
  -24.2036  -35.0508   21.9590 N   0  0  0  0  0  0  0  0  0  0  0  0
  -26.3394  -37.1186   24.0159 N   0  3  0  0  0  0  0  0  0  0  0  0
  -23.1850  -16.4242   16.4832 O   0  0  0  0  0  0  0  0  0  0  0  0
  -31.0740  -19.2712   18.4575 O   0  0  0  0  0  0  0  0  0  0  0  0
  -30.2662  -25.4168   21.8057 O   0  0  0  0  0  0  0  0  0  0  0  0
  -23.6204  -29.3948   21.8270 O   0  0  0  0  0  0  0  0  0  0  0  0
  -22.1341  -33.1750   22.5967 O   0  0  0  0  0  0  0  0  0  0  0  0
  -26.5083  -34.9729   22.2037 O   0  0  0  0  0  0  0  0  0  0  0  0
  -32.0507  -28.1984   23.0850 O   0  0  0  0  0  0  0  0  0  0  0  0
  -25.5180  -10.5010   20.9620 O   0  0  0  0  0  0  0  0  0  0  0  0
  -29.4339  -29.0268   23.7644 O   0  0  0  0  0  0  0  0  0  1  0  0
  -20.5648   -8.3418   22.0607 F   0  0  0  0  0  0  0  0  0  0  0  0
  -24.8943   -9.6017   23.5006 F   0  0  0  0  0  0  0  0  0  0  0  0
  1  2  1  0  0  0  0
  1  5  2  0  0  0  0
  2  6  2  0  0  0  0
  3  8  2  0  0  0  0
  3 17  1  0  0  0  0
  4  9  1  0  0  0  0
  4 17  2  0  0  0  0
  5 20  1  0  0  0  0
  6 22  1  0  0  0  0
  7 10  2  0  0  0  0
  7 21  1  0  0  0  0
  8 27  1  0  0  0  0
  9 27  2  0  0  0  0
 10 28  1  0  0  0  0
 11 12  2  0  0  0  0
 11 29  1  0  0  0  0
 12 30  1  0  0  0  0
 13 18  1  0  0  0  0
 13 25  2  0  0  0  0
 14 23  1  0  0  0  0
 14 28  2  0  0  0  0
 15 25  1  0  0  0  0
 15 26  2  0  0  0  0
 16 30  2  0  0  0  0
 16 31  1  0  0  0  0
 17 32  1  0  0  0  0
 18 24  2  0  0  0  0
 18 34  1  0  0  0  0
 19 32  1  0  0  0  0
 19 33  2  0  0  0  0
 19 37  1  0  0  0  0
 20 22  2  0  0  0  0
 20 44  1  0  0  0  0
 21 23  2  0  0  0  0
 21 45  1  0  0  0  0
 22 53  1  0  0  0  0
 23 46  1  0  0  0  0
 24 26  1  0  0  0  0
 24 62  1  0  0  0  0
 25 73  1  0  0  0  0
 26 70  1  0  0  0  0
 27 84  1  0  0  0  0
 28 85  1  0  0  0  0
 29 31  2  0  0  0  0
 29 84  1  0  0  0  0
 30 86  1  0  0  0  0
 31 87  1  0  0  0  0
 32 66  2  0  0  0  0
 33 67  1  0  0  0  0
 33 71  1  0  0  0  0
 34 35  2  0  0  0  0
 35 39  1  0  0  0  0
 36 38  2  0  0  0  0
 36 85  1  0  0  0  0
 37 72  1  0  0  0  0
 37 77  2  0  0  0  0
 38 40  1  0  0  0  0
 38 83  1  0  0  0  0
 39 68  1  0  0  0  0
 39 78  2  0  0  0  0
 40 73  1  0  0  0  0
 40 79  2  0  0  0  0
 41 54  1  0  0  0  0
 41 74  1  0  0  0  0
 41 80  2  0  0  0  0
 42 63  1  0  0  0  0
 42 69  1  0  0  0  0
 42 81  2  0  0  0  0
 43 64  1  0  0  0  0
 43 75  1  0  0  0  0
 43 82  2  0  0  0  0
 44 47  1  0  0  0  0
 45 54  1  0  0  0  0
 46 69  1  0  0  0  0
 47 49  1  0  0  0  0
 48 50  1  0  0  0  0
 48 51  1  0  0  0  0
 49 53  1  0  0  0  0
 50 55  1  0  0  0  0
 51 68  1  0  0  0  0
 52 55  1  0  0  0  0
 52 68  1  0  0  0  0
 53 74  1  0  0  0  0
 54 69  1  0  0  0  0
 55 67  1  0  0  0  0
 56 62  1  0  0  0  0
 57 64  1  0  0  0  0
 58 65  1  0  0  0  0
 59 65  1  0  0  0  0
 60 65  1  0  0  0  0
 61 76  1  0  0  0  0
 63 65  1  0  0  0  0
 63 75  1  0  0  0  0
 64 76  1  0  0  0  0
 66 67  1  0  0  0  0
M  CHG  1  76   1
M  ISO  4  35 100  36 101  39 100  85 101
M  END
> <Batch ID>
0165

> <Smiles>
CCc1c(N)cc(NC(=O)C(=O)[101CH2:1][101O:1]c2ccc3c(c2)CN(C(=O)C(NC(=O)C(C)NC)C(C)(C)C)C(C(=O)NC2CCCc4ccccc42)C3)cc1C=[100CH:0][100C:0](=O)N1CCCC(n2nc(-c3ccc(Oc4ccc(F)cc4F)cc3)c(C(N)=O)c2N)C1

> <Shape>
0.248

> <Color>
0.107

> <Negative vol penalty>
0.000

$$$$

  -OEChem-04052304053D

 87 95  0     1  0  0  0  0  0999 V2000
  -20.0982  -14.9798   16.6978 C   0  0  0  0  0  0  0  0  0  0  0  0
  -21.0364  -15.4998   17.5838 C   0  0  0  0  0  0  0  0  0  0  0  0
  -23.0732   -9.8717   19.9395 C   0  0  0  0  0  0  0  0  0  0  0  0
  -23.8370   -9.8718   22.2316 C   0  0  0  0  0  0  0  0  0  0  0  0
  -19.5871  -15.7799   15.6767 C   0  0  0  0  0  0  0  0  0  0  0  0
  -21.4648  -16.8198   17.4485 C   0  0  0  0  0  0  0  0  0  0  0  0
  -22.9759  -20.6804   21.9561 C   0  0  0  0  0  0  0  0  0  0  0  0
  -22.3287   -8.7185   20.1876 C   0  0  0  0  0  0  0  0  0  0  0  0
  -23.0925   -8.7186   22.4798 C   0  0  0  0  0  0  0  0  0  0  0  0
  -24.2053  -21.0619   22.4915 C   0  0  0  0  0  0  0  0  0  0  0  0
  -19.8646   -7.9220   23.0856 C   0  0  0  0  0  0  0  0  0  0  0  0
  -19.1096   -7.8796   24.2577 C   0  0  0  0  0  0  0  0  0  0  0  0
  -31.9057  -18.3277   24.1966 C   0  0  0  0  0  0  0  0  0  0  0  0
  -24.2146  -23.0088   21.0671 C   0  0  0  0  0  0  0  0  0  0  0  0
  -32.0724  -16.5816   22.5352 C   0  0  0  0  0  0  0  0  0  0  0  0
  -20.3506   -5.9391   24.9868 C   0  0  0  0  0  0  0  0  0  0  0  0
  -23.8274  -10.4483   20.9615 C   0  0  0  0  0  0  0  0  0  0  0  0
  -30.5179  -18.3282   24.0568 C   0  0  0  0  0  0  0  0  0  0  0  0
  -24.1712  -12.9735   20.8477 C   0  0  0  0  0  0  0  0  0  0  0  0
  -20.0023  -17.1133   15.5347 C   0  0  0  0  0  0  0  0  0  0  0  0
  -22.3608  -21.4557   20.9627 C   0  0  0  0  0  0  0  0  0  0  0  0
  -20.9597  -17.6381   16.4237 C   0  0  0  0  0  0  0  0  0  0  0  0
  -22.9762  -22.6362   20.5225 C   0  0  0  0  0  0  0  0  0  0  0  0
  -29.9073  -17.4553   23.1563 C   0  0  0  0  0  0  0  0  0  0  0  0
  -30.6846  -16.5820   22.3955 C   0  0  0  0  0  0  0  0  0  0  0  0
  -22.3383   -8.1420   21.4577 C   0  0  0  0  0  0  0  0  0  0  0  0
  -24.8263  -22.2248   22.0450 C   0  0  0  0  0  0  0  0  0  0  0  0
  -20.8626   -6.9729   22.8640 C   0  0  0  0  0  0  0  0  0  0  0  0
  -19.3526   -6.8882   25.2083 C   0  0  0  0  0  0  0  0  0  0  0  0
  -32.6830  -17.4545   23.4357 C   0  0  0  0  0  0  0  0  0  0  0  0
  -21.1056   -5.9815   23.8147 C   0  0  0  0  0  0  0  0  0  0  0  0
  -24.5970  -11.6392   20.7057 C   0  0  0  0  0  0  0  0  0  0  0  0
  -25.2634  -13.7230   20.4846 C   0  0  0  0  0  0  0  0  0  0  0  0
  -29.7163  -19.2624   24.8727 C   0  0  0  0  0  0  0  0  0  0  0  0
  -22.9019  -13.4893   21.2702 C   0  0  0  0  0  0  0  0  0  0  0  0
  -21.5049  -20.9625   17.9414 C   0  0  0  0  0  0  0  0  0  0  0  0
  -27.9301  -22.2983   24.0322 C   0  0  0  0  0  0  0  0  0  0  0  0
  -20.1789  -23.9074   18.2448 C   0  0  0  0  0  0  0  0  0  0  0  0
  -20.1454  -26.9181   19.8514 C   0  0  0  0  0  0  0  0  0  0  0  0
  -30.7308  -14.7633   20.6529 C   0  0  0  0  0  0  0  0  0  0  0  0
  -19.4568  -17.9251   14.3866 C   0  0  0  0  0  0  0  0  0  0  0  0
  -21.0218  -21.0446   20.4144 C   0  0  0  0  0  0  0  0  0  0  0  0
  -22.3477  -23.5143   19.4726 C   0  0  0  0  0  0  0  0  0  0  0  0
  -19.6833  -19.4268   14.5406 C   0  0  0  0  0  0  0  0  0  0  0  0
  -29.6102  -12.3569   18.2800 C   0  0  0  0  0  0  0  0  0  0  0  0
  -21.1213  -19.7092   14.9642 C   0  0  0  0  0  0  0  0  0  0  0  0
  -28.1711  -12.0654   18.7112 C   0  0  0  0  0  0  0  0  0  0  0  0
  -30.5276  -12.5817   19.4807 C   0  0  0  0  0  0  0  0  0  0  0  0
  -28.6236  -13.3041   20.8671 C   0  0  0  0  0  0  0  0  0  0  0  0
  -21.4308  -19.0728   16.3246 C   0  0  1  0  0  0  0  0  0  0  0  0
  -20.7318  -21.6373   19.0389 C   0  0  1  0  0  0  0  0  0  0  0  0
  -27.6486  -13.1348   19.6905 C   0  0  2  0  0  0  0  0  0  0  0  0
  -28.4178  -17.4592   23.0088 C   0  0  0  0  0  0  0  0  0  0  0  0
  -29.5902  -22.3410   25.9165 C   0  0  0  0  0  0  0  0  0  0  0  0
  -18.9741  -29.1374   19.8525 C   0  0  0  0  0  0  0  0  0  0  0  0
  -21.7388  -24.7290   15.7545 C   0  0  0  0  0  0  0  0  0  0  0  0
  -21.2977  -27.1199   16.3521 C   0  0  0  0  0  0  0  0  0  0  0  0
  -19.3928  -25.5905   15.8475 C   0  0  0  0  0  0  0  0  0  0  0  0
  -19.1830  -26.5396   22.6244 C   0  0  0  0  0  0  0  0  0  0  0  0
  -26.5929  -21.7537   23.5659 C   0  0  0  0  0  0  0  0  0  1  0  0
  -28.6589  -21.4838   25.0825 C   0  0  2  0  0  0  0  0  0  0  0  0
  -20.6551  -25.3224   18.0216 C   0  0  1  0  0  0  0  0  0  0  0  0
  -19.0077  -27.7343   20.4379 C   0  0  2  0  0  0  0  0  0  0  0  0
  -20.7841  -25.6731   16.5123 C   0  0  0  0  0  0  0  0  0  0  0  0
  -25.8611  -11.5434   20.2850 N   0  0  0  0  0  0  0  0  0  0  0  0
  -26.2389  -12.8270   20.1595 N   0  0  0  0  0  0  0  0  0  0  0  0
  -21.0411  -23.0665   18.9627 N   0  0  0  0  0  0  0  0  0  0  0  0
  -29.9710  -13.6106   20.3618 N   0  0  0  0  0  0  0  0  0  0  0  0
  -25.4748  -15.0545   20.4148 N   0  0  0  0  0  0  0  0  0  0  0  0
  -21.8897  -12.5801   21.6067 N   0  0  0  0  0  0  0  0  0  0  0  0
  -30.0856  -15.6867   21.4749 N   0  0  0  0  0  0  0  0  0  0  0  0
  -29.4539  -20.4818   24.3794 N   0  0  0  0  0  0  0  0  0  0  0  0
  -20.8652  -19.8667   17.3943 N   0  0  0  0  0  0  0  0  0  0  0  0
  -19.7365  -26.1833   18.7587 N   0  0  0  0  0  0  0  0  0  0  0  0
  -29.2920  -18.8485   26.0668 N   0  3  0  0  0  0  0  0  0  0  0  0
  -19.1584  -27.8454   21.9164 N   0  3  0  0  0  0  0  0  0  0  0  0
  -22.6668  -14.7199   21.3313 O   0  0  0  0  0  0  0  0  0  0  0  0
  -22.6001  -21.4044   17.6141 O   0  0  0  0  0  0  0  0  0  0  0  0
  -28.3915  -23.3453   23.5776 O   0  0  0  0  0  0  0  0  0  0  0  0
  -19.0792  -23.5629   17.8048 O   0  0  0  0  0  0  0  0  0  0  0  0
  -21.2840  -26.9339   20.3140 O   0  0  0  0  0  0  0  0  0  0  0  0
  -31.8592  -14.9323   20.1838 O   0  0  0  0  0  0  0  0  0  0  0  0
  -21.6118   -7.0169   21.7003 O   0  0  0  0  0  0  0  0  0  0  0  0
  -26.0266  -22.5992   22.5654 O   0  0  0  0  0  0  0  0  0  1  0  0
  -18.6285   -6.8485   26.3345 F   0  0  0  0  0  0  0  0  0  0  0  0
  -34.0157  -17.4535   23.5704 F   0  0  0  0  0  0  0  0  0  0  0  0
  -22.0637   -5.0677   23.6079 F   0  0  0  0  0  0  0  0  0  0  0  0
  1  2  1  0  0  0  0
  1  5  2  0  0  0  0
  2  6  2  0  0  0  0
  3  8  2  0  0  0  0
  3 17  1  0  0  0  0
  4  9  1  0  0  0  0
  4 17  2  0  0  0  0
  5 20  1  0  0  0  0
  6 22  1  0  0  0  0
  7 10  2  0  0  0  0
  7 21  1  0  0  0  0
  8 26  1  0  0  0  0
  9 26  2  0  0  0  0
 10 27  1  0  0  0  0
 11 12  2  0  0  0  0
 11 28  1  0  0  0  0
 12 29  1  0  0  0  0
 13 18  1  0  0  0  0
 13 30  2  0  0  0  0
 14 23  1  0  0  0  0
 14 27  2  0  0  0  0
 15 25  2  0  0  0  0
 15 30  1  0  0  0  0
 16 29  2  0  0  0  0
 16 31  1  0  0  0  0
 17 32  1  0  0  0  0
 18 24  2  0  0  0  0
 18 34  1  0  0  0  0
 19 32  1  0  0  0  0
 19 33  2  0  0  0  0
 19 35  1  0  0  0  0
 20 22  2  0  0  0  0
 20 41  1  0  0  0  0
 21 23  2  0  0  0  0
 21 42  1  0  0  0  0
 22 50  1  0  0  0  0
 23 43  1  0  0  0  0
 24 25  1  0  0  0  0
 24 53  1  0  0  0  0
 25 71  1  0  0  0  0
 26 83  1  0  0  0  0
 27 84  1  0  0  0  0
 28 31  2  0  0  0  0
 28 83  1  0  0  0  0
 29 85  1  0  0  0  0
 30 86  1  0  0  0  0
 31 87  1  0  0  0  0
 32 65  2  0  0  0  0
 33 66  1  0  0  0  0
 33 69  1  0  0  0  0
 34 72  1  0  0  0  0
 34 75  2  0  0  0  0
 35 70  1  0  0  0  0
 35 77  2  0  0  0  0
 36 51  1  0  0  0  0
 36 73  1  0  0  0  0
 36 78  2  0  0  0  0
 37 60  1  0  0  0  0
 37 61  1  0  0  0  0
 37 79  2  0  0  0  0
 38 62  1  0  0  0  0
 38 67  1  0  0  0  0
 38 80  2  0  0  0  0
 39 63  1  0  0  0  0
 39 74  1  0  0  0  0
 39 81  2  0  0  0  0
 40 68  1  0  0  0  0
 40 71  1  0  0  0  0
 40 82  2  0  0  0  0
 41 44  1  0  0  0  0
 42 51  1  0  0  0  0
 43 67  1  0  0  0  0
 44 46  1  0  0  0  0
 45 47  1  0  0  0  0
 45 48  1  0  0  0  0
 46 50  1  0  0  0  0
 47 52  1  0  0  0  0
 48 68  1  0  0  0  0
 49 52  1  0  0  0  0
 49 68  1  0  0  0  0
 50 73  1  0  0  0  0
 51 67  1  0  0  0  0
 52 66  1  0  0  0  0
 54 61  1  0  0  0  0
 55 63  1  0  0  0  0
 56 64  1  0  0  0  0
 57 64  1  0  0  0  0
 58 64  1  0  0  0  0
 59 76  1  0  0  0  0
 60 84  1  0  0  0  0
 61 72  1  0  0  0  0
 62 64  1  0  0  0  0
 62 74  1  0  0  0  0
 63 76  1  0  0  0  0
 65 66  1  0  0  0  0
M  CHG  2  75   1  76   1
M  ISO  4  40 100  60 101  71 100  84 101
M  END
> <Batch ID>
0165

> <Smiles>
CNC(C)C(=O)NC(C(=O)N1Cc2cc([101O:1][101CH2:1]C(=O)C(C)NC(=N)c3cc(F)cc([100NH:0][100C:0](=O)N4CCCC(n5nc(-c6ccc(Oc7ccc(F)cc7F)cc6)c(C(N)=O)c5N)C4)c3C)ccc2CC1C(=O)NC1CCCc2ccccc21)C(C)(C)C

> <Shape>
0.190

> <Color>
0.184

> <Negative vol penalty>
0.000

$$$$

  -OEChem-04052304053D

 86 95  0     1  0  0  0  0  0999 V2000
  -15.9339  -26.7617   24.1289 C   0  0  0  0  0  0  0  0  0  0  0  0
  -16.4732  -25.4942   23.9341 C   0  0  0  0  0  0  0  0  0  0  0  0
  -30.0435  -23.5173   20.1206 C   0  0  0  0  0  0  0  0  0  0  0  0
  -30.3571  -22.6618   17.8830 C   0  0  0  0  0  0  0  0  0  0  0  0
  -16.6605  -27.8919   23.7567 C   0  0  0  0  0  0  0  0  0  0  0  0
  -17.7391  -25.3561   23.3659 C   0  0  0  0  0  0  0  0  0  0  0  0
  -21.9197  -21.0795   24.6843 C   0  0  0  0  0  0  0  0  0  0  0  0
  -30.8627  -24.6053   19.8195 C   0  0  0  0  0  0  0  0  0  0  0  0
  -31.1763  -23.7499   17.5819 C   0  0  0  0  0  0  0  0  0  0  0  0
  -22.2656  -19.8819   24.0599 C   0  0  0  0  0  0  0  0  0  0  0  0
  -32.5802  -27.7959   19.5274 C   0  0  0  0  0  0  0  0  0  0  0  0
  -32.1508  -29.0613   19.9274 C   0  0  0  0  0  0  0  0  0  0  0  0
  -24.0526  -21.0110   22.8976 C   0  0  0  0  0  0  0  0  0  0  0  0
  -30.1634  -28.8143   18.5760 C   0  0  0  0  0  0  0  0  0  0  0  0
  -25.4829  -11.3460   21.3721 C   0  0  0  0  0  0  0  0  0  0  0  0
  -29.7907  -22.5455   19.1524 C   0  0  0  0  0  0  0  0  0  0  0  0
  -27.5493  -21.3363   19.2996 C   0  0  0  0  0  0  0  0  0  0  0  0
  -17.9399  -27.7680   23.1926 C   0  0  0  0  0  0  0  0  0  0  0  0
  -22.6320  -22.2561   24.4113 C   0  0  0  0  0  0  0  0  0  0  0  0
  -18.4829  -26.4857   22.9846 C   0  0  0  0  0  0  0  0  0  0  0  0
  -23.7153  -22.2217   23.5218 C   0  0  0  0  0  0  0  0  0  0  0  0
  -31.4291  -24.7216   18.5501 C   0  0  0  0  0  0  0  0  0  0  0  0
  -23.3303  -19.8481   23.1642 C   0  0  0  0  0  0  0  0  0  0  0  0
  -31.8011  -27.0397   18.6515 C   0  0  0  0  0  0  0  0  0  0  0  0
  -30.9425  -29.5705   19.4518 C   0  0  0  0  0  0  0  0  0  0  0  0
  -30.5928  -27.5489   18.1759 C   0  0  0  0  0  0  0  0  0  0  0  0
  -28.9450  -21.4211   19.4630 C   0  0  0  0  0  0  0  0  0  0  0  0
  -24.5863  -13.7200   20.5429 C   0  0  0  0  0  0  0  0  0  0  0  0
  -25.6143  -13.0796   19.8866 C   0  0  0  0  0  0  0  0  0  0  0  0
  -24.4554  -11.9866   22.0289 C   0  0  0  0  0  0  0  0  0  0  0  0
  -27.2285  -20.0742   19.7362 C   0  0  0  0  0  0  0  0  0  0  0  0
  -26.6255  -22.3113   18.7978 C   0  0  0  0  0  0  0  0  0  0  0  0
  -21.8971  -25.0836   23.1586 C   0  0  0  0  0  0  0  0  0  0  0  0
  -24.9440  -25.8119   24.0004 C   0  0  0  0  0  0  0  0  0  0  0  0
  -28.0967  -24.7119   24.7052 C   0  0  0  0  0  0  0  0  0  0  0  0
  -28.2266  -14.5863   19.9158 C   0  0  0  0  0  0  0  0  0  0  0  0
  -18.6678  -29.0170   22.7626 C   0  0  0  0  0  0  0  0  0  0  0  0
  -22.2632  -23.5342   25.1135 C   0  0  0  0  0  0  0  0  0  0  0  0
  -24.5248  -23.4529   23.2100 C   0  0  0  0  0  0  0  0  0  0  0  0
  -20.1576  -28.7981   22.5120 C   0  0  0  0  0  0  0  0  0  0  0  0
  -29.9989  -16.6454   22.2170 C   0  0  0  0  0  0  0  0  0  0  0  0
  -20.3789  -27.5455   21.6700 C   0  0  0  0  0  0  0  0  0  0  0  0
  -22.5790  -14.9975   19.7255 C   0  0  0  0  0  0  0  0  0  0  0  0
  -21.8801  -15.9073   20.7308 C   0  0  0  0  0  0  0  0  0  0  0  0
  -29.7728  -18.0630   21.6887 C   0  0  0  0  0  0  0  0  0  0  0  0
  -24.2062  -16.1052   21.1972 C   0  0  0  0  0  0  0  0  0  0  0  0
  -30.1445  -15.6360   21.0803 C   0  0  0  0  0  0  0  0  0  0  0  0
  -28.8167  -17.0621   19.5714 C   0  0  0  0  0  0  0  0  0  0  0  0
  -19.8633  -26.2959   22.3940 C   0  0  1  0  0  0  0  0  0  0  0  0
  -24.0786  -15.0460   20.0864 C   0  0  1  0  0  0  0  0  0  0  0  0
  -22.7326  -24.7811   24.3703 C   0  0  1  0  0  0  0  0  0  0  0  0
  -22.9405  -16.9502   21.0666 C   0  0  2  0  0  0  0  0  0  0  0  0
  -28.6082  -18.1068   20.6811 C   0  0  2  0  0  0  0  0  0  0  0  0
  -30.3821  -25.5453   25.3216 C   0  0  0  0  0  0  0  0  0  0  0  0
  -25.3966  -26.6971   21.1157 C   0  0  0  0  0  0  0  0  0  0  0  0
  -27.8610  -26.6071   21.5482 C   0  0  0  0  0  0  0  0  0  0  0  0
  -26.4270  -28.1887   22.8385 C   0  0  0  0  0  0  0  0  0  0  0  0
  -22.8164  -11.9342   23.9095 C   0  0  0  0  0  0  0  0  0  0  0  0
  -28.0701  -23.2357   27.2701 C   0  0  0  0  0  0  0  0  0  0  0  0
  -26.2672  -13.6823   18.6900 C   0  0  0  0  0  0  0  0  0  0  0  0
  -22.6205  -17.7427   22.3160 C   0  0  0  0  0  0  0  0  0  1  0  0
  -26.2918  -25.7119   23.3280 C   0  0  1  0  0  0  0  0  0  0  0  0
  -29.0466  -25.0384   25.8434 C   0  0  2  0  0  0  0  0  0  0  0  0
  -26.4778  -26.7782   22.2118 C   0  0  0  0  0  0  0  0  0  0  0  0
  -26.0808  -11.8810   20.2892 N   0  0  0  0  0  0  0  0  0  0  0  0
  -29.4743  -20.3020   19.9645 N   0  0  0  0  0  0  0  0  0  0  0  0
  -23.9887  -13.1851   21.6261 N   0  0  0  0  0  0  0  0  0  0  0  0
  -28.4056  -19.5021   20.1200 N   0  0  0  0  0  0  0  0  0  0  0  0
  -24.1213  -24.6797   23.9169 N   0  0  0  0  0  0  0  0  0  0  0  0
  -29.0073  -15.7279   20.1615 N   0  0  0  0  0  0  0  0  0  0  0  0
  -26.0571  -19.4091   19.8256 N   0  0  0  0  0  0  0  0  0  0  0  0
  -27.1235  -23.5570   18.3922 N   0  0  0  0  0  0  0  0  0  0  0  0
  -23.8842  -11.3557   23.1564 N   0  0  0  0  0  0  0  0  0  0  0  0
  -20.7995  -25.8822   23.4172 N   0  0  0  0  0  0  0  0  0  0  0  0
  -27.2858  -25.7827   24.3935 N   0  0  0  0  0  0  0  0  0  0  0  0
  -27.1643  -14.7617   19.0373 N   0  0  0  0  0  0  0  0  0  0  0  0
  -29.2959  -23.8263   26.6739 N   0  3  0  0  0  0  0  0  0  0  0  0
  -25.3927  -22.0903   18.7271 O   0  0  0  0  0  0  0  0  0  0  0  0
  -22.2249  -24.6274   22.0695 O   0  0  0  0  0  0  0  0  0  0  0  0
  -24.6353  -26.8537   24.5845 O   0  0  0  0  0  0  0  0  0  0  0  0
  -28.0787  -23.6177   24.1458 O   0  0  0  0  0  0  0  0  0  0  0  0
  -28.4558  -13.4932   20.4444 O   0  0  0  0  0  0  0  0  0  0  0  0
  -32.2284  -25.7833   18.2559 O   0  0  0  0  0  0  0  0  0  0  0  0
  -23.6696  -18.6806   22.5528 O   0  0  0  0  0  0  0  0  0  1  0  0
  -30.5296  -30.7850   19.8373 F   0  0  0  0  0  0  0  0  0  0  0  0
  -29.8395  -26.8266   17.3353 F   0  0  0  0  0  0  0  0  0  0  0  0
  1  2  1  0  0  0  0
  1  5  2  0  0  0  0
  2  6  2  0  0  0  0
  3  8  2  0  0  0  0
  3 16  1  0  0  0  0
  4  9  1  0  0  0  0
  4 16  2  0  0  0  0
  5 18  1  0  0  0  0
  6 20  1  0  0  0  0
  7 10  2  0  0  0  0
  7 19  1  0  0  0  0
  8 22  1  0  0  0  0
  9 22  2  0  0  0  0
 10 23  1  0  0  0  0
 11 12  2  0  0  0  0
 11 24  1  0  0  0  0
 12 25  1  0  0  0  0
 13 21  1  0  0  0  0
 13 23  2  0  0  0  0
 14 25  2  0  0  0  0
 14 26  1  0  0  0  0
 15 30  1  0  0  0  0
 15 65  2  0  0  0  0
 16 27  1  0  0  0  0
 17 27  1  0  0  0  0
 17 31  2  0  0  0  0
 17 32  1  0  0  0  0
 18 20  2  0  0  0  0
 18 37  1  0  0  0  0
 19 21  2  0  0  0  0
 19 38  1  0  0  0  0
 20 49  1  0  0  0  0
 21 39  1  0  0  0  0
 22 83  1  0  0  0  0
 23 84  1  0  0  0  0
 24 26  2  0  0  0  0
 24 83  1  0  0  0  0
 25 85  1  0  0  0  0
 26 86  1  0  0  0  0
 27 66  2  0  0  0  0
 28 29  2  0  0  0  0
 28 50  1  0  0  0  0
 28 67  1  0  0  0  0
 29 60  1  0  0  0  0
 29 65  1  0  0  0  0
 30 67  2  0  0  0  0
 30 73  1  0  0  0  0
 31 68  1  0  0  0  0
 31 71  1  0  0  0  0
 32 72  1  0  0  0  0
 32 78  2  0  0  0  0
 33 51  1  0  0  0  0
 33 74  1  0  0  0  0
 33 79  2  0  0  0  0
 34 62  1  0  0  0  0
 34 69  1  0  0  0  0
 34 80  2  0  0  0  0
 35 63  1  0  0  0  0
 35 75  1  0  0  0  0
 35 81  2  0  0  0  0
 36 70  1  0  0  0  0
 36 76  1  0  0  0  0
 36 82  2  0  0  0  0
 37 40  1  0  0  0  0
 38 51  1  0  0  0  0
 39 69  1  0  0  0  0
 40 42  1  0  0  0  0
 41 45  1  0  0  0  0
 41 47  1  0  0  0  0
 42 49  1  0  0  0  0
 43 44  1  0  0  0  0
 43 50  1  0  0  0  0
 44 52  1  0  0  0  0
 45 53  1  0  0  0  0
 46 50  1  0  0  0  0
 46 52  1  0  0  0  0
 47 70  1  0  0  0  0
 48 53  1  0  0  0  0
 48 70  1  0  0  0  0
 49 74  1  0  0  0  0
 51 69  1  0  0  0  0
 52 61  1  0  0  0  0
 53 68  1  0  0  0  0
 54 63  1  0  0  0  0
 55 64  1  0  0  0  0
 56 64  1  0  0  0  0
 57 64  1  0  0  0  0
 58 73  1  0  0  0  0
 59 77  1  0  0  0  0
 60 76  1  0  0  0  0
 61 84  1  0  0  0  0
 62 64  1  0  0  0  0
 62 75  1  0  0  0  0
 63 77  1  0  0  0  0
 66 68  1  0  0  0  0
M  CHG  1  77   1
M  ISO  4  36 100  61 101  76 100  84 101
M  END
> <Batch ID>
0165

> <Smiles>
CNc1cnc(C[100NH:0][100C:0](=O)N2CCCC(n3nc(-c4ccc(Oc5ccc(F)cc5F)cc4)c(C(N)=O)c3N)C2)c(C2CCC([101CH2:1][101O:1]c3ccc4c(c3)CN(C(=O)C(NC(=O)C(C)NC)C(C)(C)C)C(C(=O)NC3CCCc5ccccc53)C4)C2)n1

> <Shape>
0.209

> <Color>
0.069

> <Negative vol penalty>
0.000

$$$$

  -OEChem-04052304053D

 85 94  0     1  0  0  0  0  0999 V2000
  -31.9421  -32.1294   23.6427 C   0  0  0  0  0  0  0  0  0  0  0  0
  -32.5375  -31.4213   22.6036 C   0  0  0  0  0  0  0  0  0  0  0  0
  -30.2079  -18.9729   23.1065 C   0  0  0  0  0  0  0  0  0  0  0  0
  -23.0775   -9.8593   19.9519 C   0  0  0  0  0  0  0  0  0  0  0  0
  -23.8306   -9.8871   22.2474 C   0  0  0  0  0  0  0  0  0  0  0  0
  -31.2533  -31.4471   24.6447 C   0  0  0  0  0  0  0  0  0  0  0  0
  -32.4453  -30.0304   22.5666 C   0  0  0  0  0  0  0  0  0  0  0  0
  -32.0172  -24.5852   17.9316 C   0  0  0  0  0  0  0  0  0  0  0  0
  -22.3345   -8.7074   20.2096 C   0  0  0  0  0  0  0  0  0  0  0  0
  -23.0875   -8.7352   22.5051 C   0  0  0  0  0  0  0  0  0  0  0  0
  -32.6343  -23.3701   17.6375 C   0  0  0  0  0  0  0  0  0  0  0  0
  -19.3830   -7.9193   21.6590 C   0  0  0  0  0  0  0  0  0  0  0  0
  -18.0776   -7.8671   21.1703 C   0  0  0  0  0  0  0  0  0  0  0  0
  -31.4721  -19.3990   22.7144 C   0  0  0  0  0  0  0  0  0  0  0  0
  -29.7356  -17.7352   22.6842 C   0  0  0  0  0  0  0  0  0  0  0  0
  -31.3516  -22.3037   19.3801 C   0  0  0  0  0  0  0  0  0  0  0  0
  -18.6439   -5.9134   19.8666 C   0  0  0  0  0  0  0  0  0  0  0  0
  -23.8257  -10.4492   20.9708 C   0  0  0  0  0  0  0  0  0  0  0  0
  -24.1644  -12.9737   20.8300 C   0  0  0  0  0  0  0  0  0  0  0  0
  -31.1444  -30.0479   24.6147 C   0  0  0  0  0  0  0  0  0  0  0  0
  -31.0690  -24.6711   18.9612 C   0  0  0  0  0  0  0  0  0  0  0  0
  -31.7556  -29.3287   23.5699 C   0  0  0  0  0  0  0  0  0  0  0  0
  -30.7220  -23.5205   19.6836 C   0  0  0  0  0  0  0  0  0  0  0  0
  -22.3394   -8.1453   21.4862 C   0  0  0  0  0  0  0  0  0  0  0  0
  -32.3037  -22.2298   18.3637 C   0  0  0  0  0  0  0  0  0  0  0  0
  -20.3189   -6.9686   21.2515 C   0  0  0  0  0  0  0  0  0  0  0  0
  -17.7080   -6.8641   20.2741 C   0  0  0  0  0  0  0  0  0  0  0  0
  -19.9493   -5.9657   20.3553 C   0  0  0  0  0  0  0  0  0  0  0  0
  -24.5939  -11.6389   20.7051 C   0  0  0  0  0  0  0  0  0  0  0  0
  -32.2185  -18.5569   21.9061 C   0  0  0  0  0  0  0  0  0  0  0  0
  -30.5597  -16.9676   21.8771 C   0  0  0  0  0  0  0  0  0  0  0  0
  -25.2567  -13.7215   20.4635 C   0  0  0  0  0  0  0  0  0  0  0  0
  -22.8920  -13.4914   21.2407 C   0  0  0  0  0  0  0  0  0  0  0  0
  -30.8770  -26.2611   21.7069 C   0  0  0  0  0  0  0  0  0  0  0  0
  -27.8854  -25.0088   21.7734 C   0  0  0  0  0  0  0  0  0  0  0  0
  -25.7493  -22.5527   20.7481 C   0  0  0  0  0  0  0  0  0  0  0  0
  -30.7209  -14.7760   20.6453 C   0  0  0  0  0  0  0  0  0  0  0  0
  -30.4301  -29.3510   25.7455 C   0  0  0  0  0  0  0  0  0  0  0  0
  -30.3929  -25.9837   19.2483 C   0  0  0  0  0  0  0  0  0  0  0  0
  -29.6955  -23.5554   20.7852 C   0  0  0  0  0  0  0  0  0  0  0  0
  -30.0591  -27.9038   25.4317 C   0  0  0  0  0  0  0  0  0  0  0  0
  -36.0752  -18.4472   21.4346 C   0  0  0  0  0  0  0  0  0  0  0  0
  -29.6168  -12.3404   18.2947 C   0  0  0  0  0  0  0  0  0  0  0  0
  -31.2435  -27.1723   24.8081 C   0  0  0  0  0  0  0  0  0  0  0  0
  -34.6903  -18.0016   21.8993 C   0  0  0  0  0  0  0  0  0  0  0  0
  -28.1762  -12.0505   18.7225 C   0  0  0  0  0  0  0  0  0  0  0  0
  -36.1103  -18.6901   19.9282 C   0  0  0  0  0  0  0  0  0  0  0  0
  -30.5280  -12.5808   19.4970 C   0  0  0  0  0  0  0  0  0  0  0  0
  -28.6160  -13.3145   20.8663 C   0  0  0  0  0  0  0  0  0  0  0  0
  -31.6564  -27.8213   23.4815 C   0  0  1  0  0  0  0  0  0  0  0  0
  -33.5991  -18.9877   21.4600 C   0  0  1  0  0  0  0  0  0  0  0  0
  -29.8182  -26.0637   20.6593 C   0  0  1  0  0  0  0  0  0  0  0  0
  -27.6469  -13.1298   19.6872 C   0  0  2  0  0  0  0  0  0  0  0  0
  -35.0288  -19.6765   19.4906 C   0  0  1  0  0  0  0  0  0  0  0  0
  -23.3766  -21.7749   20.9979 C   0  0  0  0  0  0  0  0  0  0  0  0
  -28.5350  -23.9273   24.5515 C   0  0  0  0  0  0  0  0  0  0  0  0
  -26.5579  -22.4053   24.3451 C   0  0  0  0  0  0  0  0  0  0  0  0
  -26.2343  -24.8785   24.3141 C   0  0  0  0  0  0  0  0  0  0  0  0
  -25.2224  -22.8569   17.8518 C   0  0  0  0  0  0  0  0  0  0  0  0
  -34.9722  -19.8303   17.9776 C   0  0  0  0  0  0  0  0  0  0  0  0
  -34.2350  -21.0951   17.5647 C   0  0  0  0  0  0  0  0  0  1  0  0
  -27.2698  -23.7387   22.3089 C   0  0  1  0  0  0  0  0  0  0  0  0
  -24.3440  -22.6135   20.1773 C   0  0  2  0  0  0  0  0  0  0  0  0
  -27.1700  -23.7369   23.8605 C   0  0  0  0  0  0  0  0  0  0  0  0
  -25.8601  -11.5411   20.2914 N   0  0  0  0  0  0  0  0  0  0  0  0
  -31.7934  -17.3478   21.4758 N   0  0  0  0  0  0  0  0  0  0  0  0
  -26.2357  -12.8241   20.1531 N   0  0  0  0  0  0  0  0  0  0  0  0
  -29.0668  -24.8635   21.0324 N   0  0  0  0  0  0  0  0  0  0  0  0
  -29.9650  -13.6184   20.3638 N   0  0  0  0  0  0  0  0  0  0  0  0
  -25.4655  -15.0526   20.3796 N   0  0  0  0  0  0  0  0  0  0  0  0
  -21.8803  -12.5837   21.5828 N   0  0  0  0  0  0  0  0  0  0  0  0
  -30.0699  -15.7072   21.4538 N   0  0  0  0  0  0  0  0  0  0  0  0
  -30.7463  -27.4345   22.4248 N   0  0  0  0  0  0  0  0  0  0  0  0
  -25.9886  -23.5873   21.6276 N   0  0  0  0  0  0  0  0  0  0  0  0
  -33.6962  -19.1711   19.9646 N   0  3  0  0  0  0  0  0  0  0  0  0
  -24.3320  -22.1079   18.7755 N   0  3  0  0  0  0  0  0  0  0  0  0
  -22.6540  -14.7221   21.2867 O   0  0  0  0  0  0  0  0  0  0  0  0
  -31.7473  -25.4110   21.8540 O   0  0  0  0  0  0  0  0  0  0  0  0
  -27.3344  -26.0894   21.9979 O   0  0  0  0  0  0  0  0  0  0  0  0
  -26.5531  -21.6730   20.4470 O   0  0  0  0  0  0  0  0  0  0  0  0
  -31.8512  -14.9423   20.1796 O   0  0  0  0  0  0  0  0  0  0  0  0
  -21.6143   -7.0213   21.7381 O   0  0  0  0  0  0  0  0  0  0  0  0
  -32.9050  -21.0426   18.0791 O   0  0  0  0  0  0  0  0  0  1  0  0
  -16.4540   -6.8132   19.8061 F   0  0  0  0  0  0  0  0  0  0  0  0
  -20.8437   -5.0489   19.9610 F   0  0  0  0  0  0  0  0  0  0  0  0
  1  2  1  0  0  0  0
  1  6  2  0  0  0  0
  2  7  2  0  0  0  0
  3 14  2  0  0  0  0
  3 15  1  0  0  0  0
  4  9  2  0  0  0  0
  4 18  1  0  0  0  0
  5 10  1  0  0  0  0
  5 18  2  0  0  0  0
  6 20  1  0  0  0  0
  7 22  1  0  0  0  0
  8 11  2  0  0  0  0
  8 21  1  0  0  0  0
  9 24  1  0  0  0  0
 10 24  2  0  0  0  0
 11 25  1  0  0  0  0
 12 13  2  0  0  0  0
 12 26  1  0  0  0  0
 13 27  1  0  0  0  0
 14 30  1  0  0  0  0
 15 31  2  0  0  0  0
 16 23  1  0  0  0  0
 16 25  2  0  0  0  0
 17 27  2  0  0  0  0
 17 28  1  0  0  0  0
 18 29  1  0  0  0  0
 19 29  1  0  0  0  0
 19 32  2  0  0  0  0
 19 33  1  0  0  0  0
 20 22  2  0  0  0  0
 20 38  1  0  0  0  0
 21 23  2  0  0  0  0
 21 39  1  0  0  0  0
 22 50  1  0  0  0  0
 23 40  1  0  0  0  0
 24 82  1  0  0  0  0
 25 83  1  0  0  0  0
 26 28  2  0  0  0  0
 26 82  1  0  0  0  0
 27 84  1  0  0  0  0
 28 85  1  0  0  0  0
 29 65  2  0  0  0  0
 30 51  1  0  0  0  0
 30 66  2  0  0  0  0
 31 66  1  0  0  0  0
 31 72  1  0  0  0  0
 32 67  1  0  0  0  0
 32 70  1  0  0  0  0
 33 71  1  0  0  0  0
 33 77  2  0  0  0  0
 34 52  1  0  0  0  0
 34 73  1  0  0  0  0
 34 78  2  0  0  0  0
 35 62  1  0  0  0  0
 35 68  1  0  0  0  0
 35 79  2  0  0  0  0
 36 63  1  0  0  0  0
 36 74  1  0  0  0  0
 36 80  2  0  0  0  0
 37 69  1  0  0  0  0
 37 72  1  0  0  0  0
 37 81  2  0  0  0  0
 38 41  1  0  0  0  0
 39 52  1  0  0  0  0
 40 68  1  0  0  0  0
 41 44  1  0  0  0  0
 42 45  1  0  0  0  0
 42 47  1  0  0  0  0
 43 46  1  0  0  0  0
 43 48  1  0  0  0  0
 44 50  1  0  0  0  0
 45 51  1  0  0  0  0
 46 53  1  0  0  0  0
 47 54  1  0  0  0  0
 48 69  1  0  0  0  0
 49 53  1  0  0  0  0
 49 69  1  0  0  0  0
 50 73  1  0  0  0  0
 51 75  1  0  0  0  0
 52 68  1  0  0  0  0
 53 67  1  0  0  0  0
 54 60  1  0  0  0  0
 54 75  1  0  0  0  0
 55 63  1  0  0  0  0
 56 64  1  0  0  0  0
 57 64  1  0  0  0  0
 58 64  1  0  0  0  0
 59 76  1  0  0  0  0
 60 61  1  0  0  0  0
 61 83  1  0  0  0  0
 62 64  1  0  0  0  0
 62 74  1  0  0  0  0
 63 76  1  0  0  0  0
 65 67  1  0  0  0  0
M  CHG  2  75   1  76   1
M  ISO  4  37 100  61 101  72 100  83 101
M  END
> <Batch ID>
0165

> <Smiles>
CNC(C)C(=O)NC(C(=O)N1Cc2cc([101O:1][101CH2:1]CC3CCCC(c4cccc([100NH:0][100C:0](=O)N5CCCC(n6nc(-c7ccc(Oc8ccc(F)cc8F)cc7)c(C(N)=O)c6N)C5)n4)N3)ccc2CC1C(=O)NC1CCCc2ccccc21)C(C)(C)C

> <Shape>
0.201

> <Color>
0.184

> <Negative vol penalty>
0.000

$$$$

  -OEChem-04052304053D

 85 93  0     1  0  0  0  0  0999 V2000
  -27.4373  -32.7883   27.4413 C   0  0  0  0  0  0  0  0  0  0  0  0
  -27.6278  -31.6654   26.6423 C   0  0  0  0  0  0  0  0  0  0  0  0
  -32.2830  -18.7928   21.5000 C   0  0  0  0  0  0  0  0  0  0  0  0
  -23.3371   -9.7310   21.3533 C   0  0  0  0  0  0  0  0  0  0  0  0
  -24.0926  -10.6489   23.4565 C   0  0  0  0  0  0  0  0  0  0  0  0
  -31.4193  -19.8149   21.8935 C   0  0  0  0  0  0  0  0  0  0  0  0
  -26.1616  -33.3325   27.5841 C   0  0  0  0  0  0  0  0  0  0  0  0
  -26.5424  -31.0854   25.9866 C   0  0  0  0  0  0  0  0  0  0  0  0
  -27.5801  -29.9197   21.1690 C   0  0  0  0  0  0  0  0  0  0  0  0
  -31.7665  -17.5947   21.0065 C   0  0  0  0  0  0  0  0  0  0  0  0
  -22.6858   -8.7035   22.0356 C   0  0  0  0  0  0  0  0  0  0  0  0
  -23.4413   -9.6214   24.1389 C   0  0  0  0  0  0  0  0  0  0  0  0
  -28.3265  -28.7646   20.9400 C   0  0  0  0  0  0  0  0  0  0  0  0
  -19.8081   -8.2933   23.7630 C   0  0  0  0  0  0  0  0  0  0  0  0
  -18.5092   -7.9741   23.3675 C   0  0  0  0  0  0  0  0  0  0  0  0
  -29.5227  -18.4409   21.3003 C   0  0  0  0  0  0  0  0  0  0  0  0
  -26.3007  -27.5688   20.4057 C   0  0  0  0  0  0  0  0  0  0  0  0
  -19.2204   -5.7243   22.8479 C   0  0  0  0  0  0  0  0  0  0  0  0
  -24.0406  -10.7037   22.0637 C   0  0  0  0  0  0  0  0  0  0  0  0
  -30.0392  -19.6390   21.7937 C   0  0  0  0  0  0  0  0  0  0  0  0
  -24.1835  -13.0192   21.0028 C   0  0  0  0  0  0  0  0  0  0  0  0
  -25.0616  -32.7647   26.9220 C   0  0  0  0  0  0  0  0  0  0  0  0
  -26.1850  -29.9052   21.0284 C   0  0  0  0  0  0  0  0  0  0  0  0
  -25.2506  -31.6218   26.1217 C   0  0  0  0  0  0  0  0  0  0  0  0
  -25.5392  -28.7257   20.6310 C   0  0  0  0  0  0  0  0  0  0  0  0
  -30.3864  -17.4187   20.9067 C   0  0  0  0  0  0  0  0  0  0  0  0
  -22.7378   -8.6487   23.4285 C   0  0  0  0  0  0  0  0  0  0  0  0
  -27.6866  -27.5882   20.5611 C   0  0  0  0  0  0  0  0  0  0  0  0
  -20.8132   -7.3281   23.7009 C   0  0  0  0  0  0  0  0  0  0  0  0
  -18.2153   -6.6896   22.9100 C   0  0  0  0  0  0  0  0  0  0  0  0
  -20.5193   -6.0436   23.2434 C   0  0  0  0  0  0  0  0  0  0  0  0
  -24.7141  -11.7650   21.3594 C   0  0  0  0  0  0  0  0  0  0  0  0
  -25.2137  -13.6564   20.3556 C   0  0  0  0  0  0  0  0  0  0  0  0
  -28.1447  -25.3596   21.1037 C   0  0  0  0  0  0  0  0  0  1  0  0
  -29.1238  -20.7211   22.2097 C   0  0  0  0  0  0  0  0  0  0  0  0
  -22.8762  -13.5599   21.2359 C   0  0  0  0  0  0  0  0  0  0  0  0
  -28.7957  -24.1988   20.9702 C   0  0  0  0  0  0  0  0  0  0  0  0
  -28.4207  -23.0730   21.8581 C   0  0  0  0  0  0  0  0  0  0  0  0
  -23.7283  -30.4046   22.9826 C   0  0  0  0  0  0  0  0  0  0  0  0
  -22.0013  -30.1283   20.2507 C   0  0  0  0  0  0  0  0  0  0  0  0
  -21.7909  -28.9201   17.0659 C   0  0  0  0  0  0  0  0  0  0  0  0
  -30.5810  -15.0875   19.9718 C   0  0  0  0  0  0  0  0  0  0  0  0
  -23.6939  -33.3600   27.1446 C   0  0  0  0  0  0  0  0  0  0  0  0
  -25.3970  -31.1665   21.2532 C   0  0  0  0  0  0  0  0  0  0  0  0
  -24.0457  -28.6628   20.4465 C   0  0  0  0  0  0  0  0  0  0  0  0
  -22.6589  -32.9093   26.1170 C   0  0  0  0  0  0  0  0  0  0  0  0
  -29.6608  -11.8898   18.7049 C   0  0  0  0  0  0  0  0  0  0  0  0
  -22.7300  -31.3991   25.9146 C   0  0  0  0  0  0  0  0  0  0  0  0
  -28.2482  -11.6754   19.2532 C   0  0  0  0  0  0  0  0  0  0  0  0
  -30.5544  -12.6167   19.7083 C   0  0  0  0  0  0  0  0  0  0  0  0
  -28.5956  -13.6632   20.7748 C   0  0  0  0  0  0  0  0  0  0  0  0
  -24.1023  -30.9789   25.3745 C   0  0  1  0  0  0  0  0  0  0  0  0
  -23.9301  -30.9043   21.5800 C   0  0  1  0  0  0  0  0  0  0  0  0
  -27.6401  -12.9923   19.7745 C   0  0  2  0  0  0  0  0  0  0  0  0
  -20.2415  -28.8229   15.0942 C   0  0  0  0  0  0  0  0  0  0  0  0
  -20.3389  -27.9963   21.6652 C   0  0  0  0  0  0  0  0  0  0  0  0
  -19.4743  -27.2842   19.4261 C   0  0  0  0  0  0  0  0  0  0  0  0
  -19.0167  -29.5894   20.2623 C   0  0  0  0  0  0  0  0  0  0  0  0
  -23.7103  -30.3668   15.3391 C   0  0  0  0  0  0  0  0  0  0  0  0
  -21.3528  -28.9859   19.5068 C   0  0  1  0  0  0  0  0  0  0  0  0
  -21.3777  -29.5808   15.7631 C   0  0  2  0  0  0  0  0  0  0  0  0
  -20.0736  -28.4643   20.2204 C   0  0  0  0  0  0  0  0  0  0  0  0
  -25.9829  -11.6125   20.9707 N   0  0  0  0  0  0  0  0  0  0  0  0
  -26.2581  -12.7792   20.3631 N   0  0  0  0  0  0  0  0  0  0  0  0
  -23.3184  -29.9206   20.6842 N   0  0  0  0  0  0  0  0  0  0  0  0
  -29.9158  -13.8568   20.1547 N   0  0  0  0  0  0  0  0  0  0  0  0
  -25.3192  -14.8760   19.7863 N   0  0  0  0  0  0  0  0  0  0  0  0
  -21.9385  -12.7711   21.9162 N   0  0  0  0  0  0  0  0  0  0  0  0
  -29.8626  -16.2013   20.4053 N   0  0  0  0  0  0  0  0  0  0  0  0
  -29.2162  -21.9025   21.5830 N   0  0  0  0  0  0  0  0  0  0  0  0
  -24.1969  -31.2632   23.9586 N   0  0  0  0  0  0  0  0  0  0  0  0
  -21.1263  -29.4610   18.1462 N   0  0  0  0  0  0  0  0  0  0  0  0
  -28.2553  -20.4583   23.1856 N   0  3  0  0  0  0  0  0  0  0  0  0
  -22.5297  -29.6300   14.8191 N   0  3  0  0  0  0  0  0  0  0  0  0
  -22.5442  -14.7022   20.8379 O   0  0  0  0  0  0  0  0  0  0  0  0
  -27.5574  -23.0958   22.7200 O   0  0  0  0  0  0  0  0  0  0  0  0
  -23.1862  -29.3210   23.1658 O   0  0  0  0  0  0  0  0  0  0  0  0
  -21.3653  -31.1692   20.4339 O   0  0  0  0  0  0  0  0  0  0  0  0
  -22.6175  -28.0122   17.1194 O   0  0  0  0  0  0  0  0  0  0  0  0
  -31.6937  -15.1514   19.4428 O   0  0  0  0  0  0  0  0  0  0  0  0
  -29.7984  -24.0011   20.0464 O   0  0  0  0  0  0  0  0  0  0  0  0
  -22.1021   -7.6464   24.0947 O   0  0  0  0  0  0  0  0  0  0  0  0
  -28.4126  -26.4592   20.3375 O   0  0  0  0  0  0  0  0  0  1  0  0
  -16.9675   -6.3827   22.5317 F   0  0  0  0  0  0  0  0  0  0  0  0
  -21.4805   -5.1118   23.1826 F   0  0  0  0  0  0  0  0  0  0  0  0
  1  2  1  0  0  0  0
  1  7  2  0  0  0  0
  2  8  2  0  0  0  0
  3  6  2  0  0  0  0
  3 10  1  0  0  0  0
  4 11  2  0  0  0  0
  4 19  1  0  0  0  0
  5 12  1  0  0  0  0
  5 19  2  0  0  0  0
  6 20  1  0  0  0  0
  7 22  1  0  0  0  0
  8 24  1  0  0  0  0
  9 13  2  0  0  0  0
  9 23  1  0  0  0  0
 10 26  2  0  0  0  0
 11 27  1  0  0  0  0
 12 27  2  0  0  0  0
 13 28  1  0  0  0  0
 14 15  2  0  0  0  0
 14 29  1  0  0  0  0
 15 30  1  0  0  0  0
 16 20  2  0  0  0  0
 16 26  1  0  0  0  0
 17 25  1  0  0  0  0
 17 28  2  0  0  0  0
 18 30  2  0  0  0  0
 18 31  1  0  0  0  0
 19 32  1  0  0  0  0
 20 35  1  0  0  0  0
 21 32  1  0  0  0  0
 21 33  2  0  0  0  0
 21 36  1  0  0  0  0
 22 24  2  0  0  0  0
 22 43  1  0  0  0  0
 23 25  2  0  0  0  0
 23 44  1  0  0  0  0
 24 52  1  0  0  0  0
 25 45  1  0  0  0  0
 26 69  1  0  0  0  0
 27 82  1  0  0  0  0
 28 83  1  0  0  0  0
 29 31  2  0  0  0  0
 29 82  1  0  0  0  0
 30 84  1  0  0  0  0
 31 85  1  0  0  0  0
 32 63  2  0  0  0  0
 33 64  1  0  0  0  0
 33 67  1  0  0  0  0
 34 37  2  0  0  0  0
 34 83  1  0  0  0  0
 35 70  1  0  0  0  0
 35 73  2  0  0  0  0
 36 68  1  0  0  0  0
 36 75  2  0  0  0  0
 37 38  1  0  0  0  0
 37 81  1  0  0  0  0
 38 70  1  0  0  0  0
 38 76  2  0  0  0  0
 39 53  1  0  0  0  0
 39 71  1  0  0  0  0
 39 77  2  0  0  0  0
 40 60  1  0  0  0  0
 40 65  1  0  0  0  0
 40 78  2  0  0  0  0
 41 61  1  0  0  0  0
 41 72  1  0  0  0  0
 41 79  2  0  0  0  0
 42 66  1  0  0  0  0
 42 69  1  0  0  0  0
 42 80  2  0  0  0  0
 43 46  1  0  0  0  0
 44 53  1  0  0  0  0
 45 65  1  0  0  0  0
 46 48  1  0  0  0  0
 47 49  1  0  0  0  0
 47 50  1  0  0  0  0
 48 52  1  0  0  0  0
 49 54  1  0  0  0  0
 50 66  1  0  0  0  0
 51 54  1  0  0  0  0
 51 66  1  0  0  0  0
 52 71  1  0  0  0  0
 53 65  1  0  0  0  0
 54 64  1  0  0  0  0
 55 61  1  0  0  0  0
 56 62  1  0  0  0  0
 57 62  1  0  0  0  0
 58 62  1  0  0  0  0
 59 74  1  0  0  0  0
 60 62  1  0  0  0  0
 60 72  1  0  0  0  0
 61 74  1  0  0  0  0
 63 64  1  0  0  0  0
M  CHG  2  73   1  74   1
M  ISO  4  34 101  42 100  69 100  83 101
M  END
> <Batch ID>
0165

> <Smiles>
CNC(C)C(=O)NC(C(=O)N1Cc2cc([101O:1][101CH2:1]C(=O)C(=O)NC(=N)c3cccc([100NH:0][100C:0](=O)N4CCCC(n5nc(-c6ccc(Oc7ccc(F)cc7F)cc6)c(C(N)=O)c5N)C4)c3)ccc2CC1C(=O)NC1CCCc2ccccc21)C(C)(C)C

> <Shape>
0.321

> <Color>
0.190

> <Negative vol penalty>
0.000

$$$$

  -OEChem-04052304053D

 88 97  0     1  0  0  0  0  0999 V2000
  -28.6563  -32.7979   26.0929 C   0  0  0  0  0  0  0  0  0  0  0  0
  -28.6571  -31.6679   25.2813 C   0  0  0  0  0  0  0  0  0  0  0  0
  -23.0128  -10.1042   21.6208 C   0  0  0  0  0  0  0  0  0  0  0  0
  -24.1841  -10.8007   23.6158 C   0  0  0  0  0  0  0  0  0  0  0  0
  -27.4739  -33.2166   26.7017 C   0  0  0  0  0  0  0  0  0  0  0  0
  -27.4756  -30.9555   25.0789 C   0  0  0  0  0  0  0  0  0  0  0  0
  -26.7698  -29.7030   20.2232 C   0  0  0  0  0  0  0  0  0  0  0  0
  -22.3495   -9.1202   22.3538 C   0  0  0  0  0  0  0  0  0  0  0  0
  -23.5208   -9.8167   24.3488 C   0  0  0  0  0  0  0  0  0  0  0  0
  -27.4984  -28.6203   19.7325 C   0  0  0  0  0  0  0  0  0  0  0  0
  -23.0268   -6.0410   23.5719 C   0  0  0  0  0  0  0  0  0  0  0  0
  -22.9376   -4.7665   23.0121 C   0  0  0  0  0  0  0  0  0  0  0  0
  -25.5616  -27.2062   19.9945 C   0  0  0  0  0  0  0  0  0  0  0  0
  -20.5265   -4.9122   23.0648 C   0  0  0  0  0  0  0  0  0  0  0  0
  -30.7271  -18.8688   20.1355 C   0  0  0  0  0  0  0  0  0  0  0  0
  -23.9302  -10.9445   22.2518 C   0  0  0  0  0  0  0  0  0  0  0  0
  -24.0359  -13.0282   20.7839 C   0  0  0  0  0  0  0  0  0  0  0  0
  -26.2754  -32.5145   26.4989 C   0  0  0  0  0  0  0  0  0  0  0  0
  -25.4327  -29.5427   20.6141 C   0  0  0  0  0  0  0  0  0  0  0  0
  -26.2764  -31.3645   25.6867 C   0  0  0  0  0  0  0  0  0  0  0  0
  -24.8176  -28.2890   20.4874 C   0  0  0  0  0  0  0  0  0  0  0  0
  -28.5873  -19.3892   20.4915 C   0  0  0  0  0  0  0  0  0  0  0  0
  -29.5105  -18.3168   20.4627 C   0  0  0  0  0  0  0  0  0  0  0  0
  -22.6034   -8.9764   23.7178 C   0  0  0  0  0  0  0  0  0  0  0  0
  -26.8952  -27.3710   19.6208 C   0  0  0  0  0  0  0  0  0  0  0  0
  -21.8659   -6.7510   23.8783 C   0  0  0  0  0  0  0  0  0  0  0  0
  -21.6875   -4.2021   22.7585 C   0  0  0  0  0  0  0  0  0  0  0  0
  -20.6158   -6.1866   23.6247 C   0  0  0  0  0  0  0  0  0  0  0  0
  -24.6162  -11.9608   21.4951 C   0  0  0  0  0  0  0  0  0  0  0  0
  -29.3057  -20.5201   20.1801 C   0  0  0  0  0  0  0  0  0  0  0  0
  -25.1039  -13.7015   20.2433 C   0  0  0  0  0  0  0  0  0  0  0  0
  -22.6548  -13.3797   20.6263 C   0  0  0  0  0  0  0  0  0  0  0  0
  -23.8389  -29.8727   23.3444 C   0  0  0  0  0  0  0  0  0  0  0  0
  -21.2618  -29.3124   21.4557 C   0  0  0  0  0  0  0  0  0  0  0  0
  -20.4244  -27.0991   18.7322 C   0  0  0  0  0  0  0  0  0  0  0  0
  -30.1996  -15.9032   20.6779 C   0  0  0  0  0  0  0  0  0  0  0  0
  -25.0322  -32.9780   27.2161 C   0  0  0  0  0  0  0  0  0  0  0  0
  -24.6527  -30.7267   21.1163 C   0  0  0  0  0  0  0  0  0  0  0  0
  -23.3787  -28.0690   20.8743 C   0  0  0  0  0  0  0  0  0  0  0  0
  -23.7451  -32.3840   26.6499 C   0  0  0  0  0  0  0  0  0  0  0  0
  -29.9931  -12.4252   19.9445 C   0  0  0  0  0  0  0  0  0  0  0  0
  -23.8994  -30.8815   26.4364 C   0  0  0  0  0  0  0  0  0  0  0  0
  -29.1707  -22.5000   18.6100 C   0  0  0  0  0  0  0  0  0  0  0  0
  -29.6680  -22.8618   21.0687 C   0  0  0  0  0  0  0  0  0  0  0  0
  -28.5281  -12.0822   20.2240 C   0  0  0  0  0  0  0  0  0  0  0  0
  -28.7813  -23.9746   18.4738 C   0  0  0  0  0  0  0  0  0  0  0  0
  -29.2750  -24.3348   20.9297 C   0  0  0  0  0  0  0  0  0  0  0  0
  -30.5336  -13.4544   20.9356 C   0  0  0  0  0  0  0  0  0  0  0  0
  -28.2686  -14.3368   21.3359 C   0  0  0  0  0  0  0  0  0  0  0  0
  -25.0098  -30.5794   25.4229 C   0  0  1  0  0  0  0  0  0  0  0  0
  -28.9349  -21.9854   20.0396 C   0  0  0  0  0  0  0  0  0  0  0  0
  -23.4499  -30.3321   21.9677 C   0  0  1  0  0  0  0  0  0  0  0  0
  -27.6608  -13.3524   20.3233 C   0  0  2  0  0  0  0  0  0  0  0  0
  -29.4939  -24.8641   19.5036 C   0  0  0  0  0  0  0  0  0  0  0  0
  -18.7734  -27.3663   16.8614 C   0  0  0  0  0  0  0  0  0  0  0  0
  -19.3621  -27.8002   23.3035 C   0  0  0  0  0  0  0  0  0  0  0  0
  -18.4682  -26.6062   21.2927 C   0  0  0  0  0  0  0  0  0  0  0  0
  -18.2377  -29.0834   21.4750 C   0  0  0  0  0  0  0  0  0  0  0  0
  -22.5012  -26.6280   16.6770 C   0  0  0  0  0  0  0  0  0  0  0  0
  -31.6203  -25.6497   20.1234 C   0  0  0  0  0  0  0  0  0  0  0  0
  -29.0107  -26.3106   19.3838 C   0  0  0  0  0  0  0  0  0  1  0  0
  -27.1449  -19.3159   20.7943 C   0  0  0  0  0  0  0  0  0  0  0  0
  -20.5115  -28.0811   21.0087 C   0  0  1  0  0  0  0  0  0  0  0  0
  -20.2319  -27.4825   17.2760 C   0  0  2  0  0  0  0  0  0  0  0  0
  -19.1726  -27.8918   21.7762 C   0  0  0  0  0  0  0  0  0  0  0  0
  -25.9494  -11.9524   21.4152 N   0  0  0  0  0  0  0  0  0  0  0  0
  -26.2157  -13.0227   20.6474 N   0  0  0  0  0  0  0  0  0  0  0  0
  -22.6599  -29.2561   21.3658 N   0  0  0  0  0  0  0  0  0  0  0  0
  -29.6637  -14.6319   20.9731 N   0  0  0  0  0  0  0  0  0  0  0  0
  -25.1912  -14.8020   19.4663 N   0  0  0  0  0  0  0  0  0  0  0  0
  -22.0760  -14.2498   21.5602 N   0  0  0  0  0  0  0  0  0  0  0  0
  -29.2709  -16.9428   20.7130 N   0  0  0  0  0  0  0  0  0  0  0  0
  -24.5403  -30.8134   24.0741 N   0  0  0  0  0  0  0  0  0  0  0  0
  -20.3598  -28.1981   19.5625 N   0  0  0  0  0  0  0  0  0  0  0  0
  -21.0430  -26.5951   16.3952 N   0  3  0  0  0  0  0  0  0  0  0  0
  -21.9504  -12.9223   19.6945 O   0  0  0  0  0  0  0  0  0  0  0  0
  -23.5246  -28.7486   23.7175 O   0  0  0  0  0  0  0  0  0  0  0  0
  -20.6304  -30.2908   21.8627 O   0  0  0  0  0  0  0  0  0  0  0  0
  -20.6097  -25.9402   19.0970 O   0  0  0  0  0  0  0  0  0  0  0  0
  -31.3889  -16.0545   20.3867 O   0  0  0  0  0  0  0  0  0  0  0  0
  -30.6109  -20.2115   19.9617 O   0  0  0  0  0  0  0  0  0  0  0  0
  -21.9561   -8.0165   24.4334 O   0  0  0  0  0  0  0  0  0  0  0  0
  -27.6041  -26.3124   19.1428 O   0  0  0  0  0  0  0  0  0  1  0  0
  -30.8938  -24.8460   19.2089 O   0  0  0  0  0  0  0  0  0  0  0  0
  -21.6019   -2.9789   22.2195 F   0  0  0  0  0  0  0  0  0  0  0  0
  -19.4970   -6.8644   23.9158 F   0  0  0  0  0  0  0  0  0  0  0  0
  -26.3923  -19.7824   19.7559 F   0  0  0  0  0  0  0  0  0  0  0  0
  -26.8205  -20.0934   21.8678 F   0  0  0  0  0  0  0  0  0  0  0  0
  1  2  1  0  0  0  0
  1  5  2  0  0  0  0
  2  6  2  0  0  0  0
  3  8  2  0  0  0  0
  3 16  1  0  0  0  0
  4  9  1  0  0  0  0
  4 16  2  0  0  0  0
  5 18  1  0  0  0  0
  6 20  1  0  0  0  0
  7 10  2  0  0  0  0
  7 19  1  0  0  0  0
  8 24  1  0  0  0  0
  9 24  2  0  0  0  0
 10 25  1  0  0  0  0
 11 12  2  0  0  0  0
 11 26  1  0  0  0  0
 12 27  1  0  0  0  0
 13 21  1  0  0  0  0
 13 25  2  0  0  0  0
 14 27  2  0  0  0  0
 14 28  1  0  0  0  0
 15 23  2  0  0  0  0
 15 81  1  0  0  0  0
 16 29  1  0  0  0  0
 17 29  1  0  0  0  0
 17 31  2  0  0  0  0
 17 32  1  0  0  0  0
 18 20  2  0  0  0  0
 18 37  1  0  0  0  0
 19 21  2  0  0  0  0
 19 38  1  0  0  0  0
 20 50  1  0  0  0  0
 21 39  1  0  0  0  0
 22 23  1  0  0  0  0
 22 30  2  0  0  0  0
 22 62  1  0  0  0  0
 23 72  1  0  0  0  0
 24 82  1  0  0  0  0
 25 83  1  0  0  0  0
 26 28  2  0  0  0  0
 26 82  1  0  0  0  0
 27 85  1  0  0  0  0
 28 86  1  0  0  0  0
 29 66  2  0  0  0  0
 30 51  1  0  0  0  0
 30 81  1  0  0  0  0
 31 67  1  0  0  0  0
 31 70  1  0  0  0  0
 32 71  1  0  0  0  0
 32 76  2  0  0  0  0
 33 52  1  0  0  0  0
 33 73  1  0  0  0  0
 33 77  2  0  0  0  0
 34 63  1  0  0  0  0
 34 68  1  0  0  0  0
 34 78  2  0  0  0  0
 35 64  1  0  0  0  0
 35 74  1  0  0  0  0
 35 79  2  0  0  0  0
 36 69  1  0  0  0  0
 36 72  1  0  0  0  0
 36 80  2  0  0  0  0
 37 40  1  0  0  0  0
 38 52  1  0  0  0  0
 39 68  1  0  0  0  0
 40 42  1  0  0  0  0
 41 45  1  0  0  0  0
 41 48  1  0  0  0  0
 42 50  1  0  0  0  0
 43 46  1  0  0  0  0
 43 51  1  0  0  0  0
 44 47  1  0  0  0  0
 44 51  1  0  0  0  0
 45 53  1  0  0  0  0
 46 54  1  0  0  0  0
 47 54  1  0  0  0  0
 48 69  1  0  0  0  0
 49 53  1  0  0  0  0
 49 69  1  0  0  0  0
 50 73  1  0  0  0  0
 52 68  1  0  0  0  0
 53 67  1  0  0  0  0
 54 61  1  0  0  0  0
 54 84  1  0  0  0  0
 55 64  1  0  0  0  0
 56 65  1  0  0  0  0
 57 65  1  0  0  0  0
 58 65  1  0  0  0  0
 59 75  1  0  0  0  0
 60 84  1  0  0  0  0
 61 83  1  0  0  0  0
 62 87  1  0  0  0  0
 62 88  1  0  0  0  0
 63 65  1  0  0  0  0
 63 74  1  0  0  0  0
 64 75  1  0  0  0  0
 66 67  1  0  0  0  0
M  CHG  1  75   1
M  ISO  4  36 100  61 101  72 100  83 101
M  END
> <Batch ID>
0165

> <Smiles>
CNC(C)C(=O)NC(C(=O)N1Cc2cc([101O:1][101CH2:1]C3(OC)CCC(c4occ([100NH:0][100C:0](=O)N5CCCC(n6nc(-c7ccc(Oc8ccc(F)cc8F)cc7)c(C(N)=O)c6N)C5)c4C(F)F)CC3)ccc2CC1C(=O)NC1CCCc2ccccc21)C(C)(C)C

> <Shape>
0.397

> <Color>
0.133

> <Negative vol penalty>
0.000

$$$$

  -OEChem-04052304053D

 85 94  0     1  0  0  0  0  0999 V2000
  -31.2904  -33.9090   24.7075 C   0  0  0  0  0  0  0  0  0  0  0  0
  -31.0283  -32.7031   24.0651 C   0  0  0  0  0  0  0  0  0  0  0  0
  -25.0468   -8.0314   21.1255 C   0  0  0  0  0  0  0  0  0  0  0  0
  -23.5289   -9.5749   20.0528 C   0  0  0  0  0  0  0  0  0  0  0  0
  -30.2749  -34.5602   25.4065 C   0  0  0  0  0  0  0  0  0  0  0  0
  -29.7508  -32.1472   24.1223 C   0  0  0  0  0  0  0  0  0  0  0  0
  -26.9272  -28.9497   19.7281 C   0  0  0  0  0  0  0  0  0  0  0  0
  -23.9781   -7.1845   21.4192 C   0  0  0  0  0  0  0  0  0  0  0  0
  -22.4602   -8.7280   20.3464 C   0  0  0  0  0  0  0  0  0  0  0  0
  -26.7639  -27.5805   19.5221 C   0  0  0  0  0  0  0  0  0  0  0  0
  -21.4867   -7.0167   23.6972 C   0  0  0  0  0  0  0  0  0  0  0  0
  -21.4211   -6.4791   24.9826 C   0  0  0  0  0  0  0  0  0  0  0  0
  -24.6004  -27.6848   20.5839 C   0  0  0  0  0  0  0  0  0  0  0  0
  -21.5339   -4.2506   24.0563 C   0  0  0  0  0  0  0  0  0  0  0  0
  -24.5666  -16.9683   16.9068 C   0  0  0  0  0  0  0  0  0  0  0  0
  -24.8222   -9.2266   20.4423 C   0  0  0  0  0  0  0  0  0  0  0  0
  -27.0611   -9.8015   19.3631 C   0  0  0  0  0  0  0  0  0  0  0  0
  -28.9818  -34.0168   25.4642 C   0  0  0  0  0  0  0  0  0  0  0  0
  -25.9313  -29.6959   20.3744 C   0  0  0  0  0  0  0  0  0  0  0  0
  -28.7174  -32.7911   24.8239 C   0  0  0  0  0  0  0  0  0  0  0  0
  -24.7524  -29.0638   20.7946 C   0  0  0  0  0  0  0  0  0  0  0  0
  -22.6848   -7.5328   21.0296 C   0  0  0  0  0  0  0  0  0  0  0  0
  -25.6017  -26.9473   19.9526 C   0  0  0  0  0  0  0  0  0  0  0  0
  -21.5759   -6.1713   22.5913 C   0  0  0  0  0  0  0  0  0  0  0  0
  -21.4447   -5.0961   25.1621 C   0  0  0  0  0  0  0  0  0  0  0  0
  -21.5995   -4.7882   22.7708 C   0  0  0  0  0  0  0  0  0  0  0  0
  -25.9257  -10.1021   20.1392 C   0  0  0  0  0  0  0  0  0  0  0  0
  -25.1855  -19.5491   17.1954 C   0  0  0  0  0  0  0  0  0  0  0  0
  -25.2732  -17.4114   18.0031 C   0  0  0  0  0  0  0  0  0  0  0  0
  -24.4795  -19.1058   16.0988 C   0  0  0  0  0  0  0  0  0  0  0  0
  -27.8031  -10.9571   19.3780 C   0  0  0  0  0  0  0  0  0  0  0  0
  -27.4134   -8.5862   18.6888 C   0  0  0  0  0  0  0  0  0  0  0  0
  -25.7877  -31.3970   23.0557 C   0  0  0  0  0  0  0  0  0  0  0  0
  -22.8372  -32.1667   21.9490 C   0  0  0  0  0  0  0  0  0  0  0  0
  -20.1775  -31.3437   19.9753 C   0  0  0  0  0  0  0  0  0  0  0  0
  -26.3841  -16.7097   20.1525 C   0  0  0  0  0  0  0  0  0  0  0  0
  -27.9286  -34.7334   26.2716 C   0  0  0  0  0  0  0  0  0  0  0  0
  -26.1112  -31.1771   20.5651 C   0  0  0  0  0  0  0  0  0  0  0  0
  -23.6444  -29.8238   21.4753 C   0  0  0  0  0  0  0  0  0  0  0  0
  -26.5070  -34.2663   25.9697 C   0  0  0  0  0  0  0  0  0  0  0  0
  -28.6867  -14.8052   22.0885 C   0  0  0  0  0  0  0  0  0  0  0  0
  -26.4398  -32.7426   25.9447 C   0  0  0  0  0  0  0  0  0  0  0  0
  -26.8894  -21.1848   18.1056 C   0  0  0  0  0  0  0  0  0  0  0  0
  -24.4298  -21.7927   18.0906 C   0  0  0  0  0  0  0  0  0  0  0  0
  -27.2499  -22.6608   18.2717 C   0  0  0  0  0  0  0  0  0  0  0  0
  -24.7965  -23.2672   18.2567 C   0  0  0  0  0  0  0  0  0  0  0  0
  -28.3473  -13.3558   21.7330 C   0  0  0  0  0  0  0  0  0  0  0  0
  -27.4365  -15.6805   22.1546 C   0  0  0  0  0  0  0  0  0  0  0  0
  -26.2411  -14.1821   20.6070 C   0  0  0  0  0  0  0  0  0  0  0  0
  -27.3380  -32.1688   24.8422 C   0  0  1  0  0  0  0  0  0  0  0  0
  -25.5462  -21.0124   17.3766 C   0  0  0  0  0  0  0  0  0  0  0  0
  -25.2547  -31.7425   21.6940 C   0  0  1  0  0  0  0  0  0  0  0  0
  -26.1364  -23.4400   18.9838 C   0  0  0  0  0  0  0  0  0  0  0  0
  -27.4750  -13.2760   20.4649 C   0  0  2  0  0  0  0  0  0  0  0  0
  -17.8969  -32.1491   19.3066 C   0  0  0  0  0  0  0  0  0  0  0  0
  -21.7250  -31.2395   24.6347 C   0  0  0  0  0  0  0  0  0  0  0  0
  -19.4517  -31.1640   23.5884 C   0  0  0  0  0  0  0  0  0  0  0  0
  -20.6822  -33.3287   23.7390 C   0  0  0  0  0  0  0  0  0  0  0  0
  -20.9622  -31.5635   17.1301 C   0  0  0  0  0  0  0  0  0  0  0  0
  -26.5013  -24.9191   19.0966 C   0  0  0  0  0  0  0  0  0  1  0  0
  -21.4551  -31.5758   22.0891 C   0  0  1  0  0  0  0  0  0  0  0  0
  -19.3799  -32.1548   18.9702 C   0  0  2  0  0  0  0  0  0  0  0  0
  -20.8500  -31.8121   23.5018 C   0  0  0  0  0  0  0  0  0  0  0  0
  -24.1570  -17.8075   15.9350 N   0  0  0  0  0  0  0  0  0  0  0  0
  -25.9409  -11.3509   20.6128 N   0  0  0  0  0  0  0  0  0  0  0  0
  -25.5953  -18.7098   18.1671 N   0  0  0  0  0  0  0  0  0  0  0  0
  -27.0949  -11.8451   20.1331 N   0  0  0  0  0  0  0  0  0  0  0  0
  -23.8701  -31.2687   21.6446 N   0  0  0  0  0  0  0  0  0  0  0  0
  -26.6620  -15.5573   20.9177 N   0  0  0  0  0  0  0  0  0  0  0  0
  -24.0781  -20.0356   15.1136 N   0  0  0  0  0  0  0  0  0  0  0  0
  -28.9859  -11.2902   18.8190 N   0  0  0  0  0  0  0  0  0  0  0  0
  -26.9903   -8.4101   17.3643 N   0  0  0  0  0  0  0  0  0  0  0  0
  -25.6688  -16.4650   18.9807 N   0  0  0  0  0  0  0  0  0  0  0  0
  -26.7025  -32.3074   23.5494 N   0  0  0  0  0  0  0  0  0  0  0  0
  -20.6612  -32.1313   20.9985 N   0  0  0  0  0  0  0  0  0  0  0  0
  -19.5531  -31.5960   17.5995 N   0  3  0  0  0  0  0  0  0  0  0  0
  -28.0695   -7.6761   19.2499 O   0  0  0  0  0  0  0  0  0  0  0  0
  -25.3966  -30.3806   23.6176 O   0  0  0  0  0  0  0  0  0  0  0  0
  -22.9935  -33.3814   22.0970 O   0  0  0  0  0  0  0  0  0  0  0  0
  -20.3508  -30.1318   19.8659 O   0  0  0  0  0  0  0  0  0  0  0  0
  -26.7770  -17.8274   20.4964 O   0  0  0  0  0  0  0  0  0  0  0  0
  -21.6417   -6.7066   21.3158 O   0  0  0  0  0  0  0  0  0  0  0  0
  -25.4400  -25.6109   19.7533 O   0  0  0  0  0  0  0  0  0  1  0  0
  -21.3832   -4.5800   26.3967 F   0  0  0  0  0  0  0  0  0  0  0  0
  -21.6862   -3.9710   21.7123 F   0  0  0  0  0  0  0  0  0  0  0  0
  1  2  1  0  0  0  0
  1  5  2  0  0  0  0
  2  6  2  0  0  0  0
  3  8  2  0  0  0  0
  3 16  1  0  0  0  0
  4  9  1  0  0  0  0
  4 16  2  0  0  0  0
  5 18  1  0  0  0  0
  6 20  1  0  0  0  0
  7 10  2  0  0  0  0
  7 19  1  0  0  0  0
  8 22  1  0  0  0  0
  9 22  2  0  0  0  0
 10 23  1  0  0  0  0
 11 12  2  0  0  0  0
 11 24  1  0  0  0  0
 12 25  1  0  0  0  0
 13 21  1  0  0  0  0
 13 23  2  0  0  0  0
 14 25  2  0  0  0  0
 14 26  1  0  0  0  0
 15 29  1  0  0  0  0
 15 64  2  0  0  0  0
 16 27  1  0  0  0  0
 17 27  1  0  0  0  0
 17 31  2  0  0  0  0
 17 32  1  0  0  0  0
 18 20  2  0  0  0  0
 18 37  1  0  0  0  0
 19 21  2  0  0  0  0
 19 38  1  0  0  0  0
 20 50  1  0  0  0  0
 21 39  1  0  0  0  0
 22 82  1  0  0  0  0
 23 83  1  0  0  0  0
 24 26  2  0  0  0  0
 24 82  1  0  0  0  0
 25 84  1  0  0  0  0
 26 85  1  0  0  0  0
 27 65  2  0  0  0  0
 28 30  2  0  0  0  0
 28 51  1  0  0  0  0
 28 66  1  0  0  0  0
 29 66  2  0  0  0  0
 29 73  1  0  0  0  0
 30 64  1  0  0  0  0
 30 70  1  0  0  0  0
 31 67  1  0  0  0  0
 31 71  1  0  0  0  0
 32 72  1  0  0  0  0
 32 77  2  0  0  0  0
 33 52  1  0  0  0  0
 33 74  1  0  0  0  0
 33 78  2  0  0  0  0
 34 61  1  0  0  0  0
 34 68  1  0  0  0  0
 34 79  2  0  0  0  0
 35 62  1  0  0  0  0
 35 75  1  0  0  0  0
 35 80  2  0  0  0  0
 36 69  1  0  0  0  0
 36 73  1  0  0  0  0
 36 81  2  0  0  0  0
 37 40  1  0  0  0  0
 38 52  1  0  0  0  0
 39 68  1  0  0  0  0
 40 42  1  0  0  0  0
 41 47  1  0  0  0  0
 41 48  1  0  0  0  0
 42 50  1  0  0  0  0
 43 45  1  0  0  0  0
 43 51  1  0  0  0  0
 44 46  1  0  0  0  0
 44 51  1  0  0  0  0
 45 53  1  0  0  0  0
 46 53  1  0  0  0  0
 47 54  1  0  0  0  0
 48 69  1  0  0  0  0
 49 54  1  0  0  0  0
 49 69  1  0  0  0  0
 50 74  1  0  0  0  0
 52 68  1  0  0  0  0
 53 60  1  0  0  0  0
 54 67  1  0  0  0  0
 55 62  1  0  0  0  0
 56 63  1  0  0  0  0
 57 63  1  0  0  0  0
 58 63  1  0  0  0  0
 59 76  1  0  0  0  0
 60 83  1  0  0  0  0
 61 63  1  0  0  0  0
 61 75  1  0  0  0  0
 62 76  1  0  0  0  0
 65 67  1  0  0  0  0
M  CHG  1  76   1
M  ISO  4  36 100  60 101  73 100  83 101
M  END
> <Batch ID>
0165

> <Smiles>
CNC(C)C(=O)NC(C(=O)N1Cc2cc([101O:1][101CH2:1]C3CCC(c4nc([100NH:0][100C:0](=O)N5CCCC(n6nc(-c7ccc(Oc8ccc(F)cc8F)cc7)c(C(N)=O)c6N)C5)cnc4N)CC3)ccc2CC1C(=O)NC1CCCc2ccccc21)C(C)(C)C

> <Shape>
0.229

> <Color>
0.087

> <Negative vol penalty>
0.000

$$$$

  -OEChem-04052304053D

 85 93  0     1  0  0  0  0  0999 V2000
  -17.9762  -25.4314   22.6168 C   0  0  0  0  0  0  0  0  0  0  0  0
  -19.3620  -25.3119   22.6423 C   0  0  0  0  0  0  0  0  0  0  0  0
  -26.3871  -10.7280   20.7868 C   0  0  0  0  0  0  0  0  0  0  0  0
  -25.5040  -12.2835   19.1627 C   0  0  0  0  0  0  0  0  0  0  0  0
  -17.3883  -26.6317   22.2197 C   0  0  0  0  0  0  0  0  0  0  0  0
  -20.1608  -26.3923   22.2695 C   0  0  0  0  0  0  0  0  0  0  0  0
  -24.0311  -27.1353   25.4497 C   0  0  0  0  0  0  0  0  0  0  0  0
  -25.1220  -10.1583   20.9293 C   0  0  0  0  0  0  0  0  0  0  0  0
  -24.2387  -11.7137   19.3051 C   0  0  0  0  0  0  0  0  0  0  0  0
  -25.1309  -26.2879   25.3232 C   0  0  0  0  0  0  0  0  0  0  0  0
  -23.1670   -7.9785   19.2383 C   0  0  0  0  0  0  0  0  0  0  0  0
  -23.0804   -6.5864   19.2490 C   0  0  0  0  0  0  0  0  0  0  0  0
  -28.5222  -19.9416   18.5227 C   0  0  0  0  0  0  0  0  0  0  0  0
  -26.2996  -27.9988   24.0879 C   0  0  0  0  0  0  0  0  0  0  0  0
  -22.1141   -6.6636   21.4620 C   0  0  0  0  0  0  0  0  0  0  0  0
  -28.4427  -21.1738   17.9065 C   0  0  0  0  0  0  0  0  0  0  0  0
  -26.5782  -11.7907   19.9036 C   0  0  0  0  0  0  0  0  0  0  0  0
  -28.8904  -12.0016   18.8469 C   0  0  0  0  0  0  0  0  0  0  0  0
  -18.1804  -27.7305   21.8512 C   0  0  0  0  0  0  0  0  0  0  0  0
  -24.0532  -28.4191   24.8859 C   0  0  0  0  0  0  0  0  0  0  0  0
  -19.5830  -27.6080   21.8658 C   0  0  0  0  0  0  0  0  0  0  0  0
  -25.1997  -28.8616   24.2109 C   0  0  0  0  0  0  0  0  0  0  0  0
  -24.0478  -10.6511   20.1884 C   0  0  0  0  0  0  0  0  0  0  0  0
  -26.2642  -26.7185   24.6397 C   0  0  0  0  0  0  0  0  0  0  0  0
  -22.7272   -8.7132   20.3395 C   0  0  0  0  0  0  0  0  0  0  0  0
  -22.5539   -5.9290   20.3609 C   0  0  0  0  0  0  0  0  0  0  0  0
  -22.2007   -8.0557   21.4513 C   0  0  0  0  0  0  0  0  0  0  0  0
  -27.8847  -12.3800   19.7565 C   0  0  0  0  0  0  0  0  0  0  0  0
  -29.3294  -19.8841   19.6405 C   0  0  0  0  0  0  0  0  0  0  0  0
  -29.9288  -12.8626   19.1055 C   0  0  0  0  0  0  0  0  0  0  0  0
  -29.8512  -22.0874   19.4390 C   0  0  0  0  0  0  0  0  0  0  0  0
  -27.7449  -25.5526   23.2545 C   0  0  0  0  0  0  0  0  0  1  0  0
  -28.8863  -10.9647   17.8568 C   0  0  0  0  0  0  0  0  0  0  0  0
  -28.7757  -24.7560   22.9314 C   0  0  0  0  0  0  0  0  0  0  0  0
  -29.0485  -24.5155   21.4782 C   0  0  0  0  0  0  0  0  0  0  0  0
  -22.3545  -29.9199   22.6575 C   0  0  0  0  0  0  0  0  0  0  0  0
  -24.1195  -32.4774   23.5883 C   0  0  0  0  0  0  0  0  0  0  0  0
  -26.9805  -33.6527   25.0306 C   0  0  0  0  0  0  0  0  0  0  0  0
  -30.1922  -18.3541   21.4463 C   0  0  0  0  0  0  0  0  0  0  0  0
  -17.4991  -28.9922   21.3837 C   0  0  0  0  0  0  0  0  0  0  0  0
  -22.8688  -29.3310   25.0543 C   0  0  0  0  0  0  0  0  0  0  0  0
  -25.2816  -30.2380   23.6049 C   0  0  0  0  0  0  0  0  0  0  0  0
  -18.4198  -30.2097   21.3630 C   0  0  0  0  0  0  0  0  0  0  0  0
  -31.8585  -15.4455   22.6466 C   0  0  0  0  0  0  0  0  0  0  0  0
  -19.7519  -29.8606   20.7069 C   0  0  0  0  0  0  0  0  0  0  0  0
  -31.1240  -14.2952   21.9542 C   0  0  0  0  0  0  0  0  0  0  0  0
  -30.9065  -16.5772   23.0298 C   0  0  0  0  0  0  0  0  0  0  0  0
  -29.3396  -15.9362   21.2401 C   0  0  0  0  0  0  0  0  0  0  0  0
  -20.4835  -28.7655   21.4924 C   0  0  1  0  0  0  0  0  0  0  0  0
  -22.8053  -30.4292   23.9973 C   0  0  1  0  0  0  0  0  0  0  0  0
  -30.2673  -14.8010   20.7770 C   0  0  2  0  0  0  0  0  0  0  0  0
  -32.1122  -23.0907   19.9617 C   0  0  0  0  0  0  0  0  0  0  0  0
  -28.1565  -35.7907   25.6167 C   0  0  0  0  0  0  0  0  0  0  0  0
  -24.8891  -32.8539   20.6598 C   0  0  0  0  0  0  0  0  0  0  0  0
  -26.7530  -34.3458   21.4138 C   0  0  0  0  0  0  0  0  0  0  0  0
  -24.3857  -34.9740   21.8870 C   0  0  0  0  0  0  0  0  0  0  0  0
  -26.9590  -33.0084   27.9191 C   0  0  0  0  0  0  0  0  0  0  0  0
  -30.5989  -23.2974   19.9559 C   0  0  2  0  0  0  0  0  0  0  0  0
  -25.4437  -33.0710   23.1720 C   0  0  1  0  0  0  0  0  0  0  0  0
  -27.2103  -34.7035   26.1018 C   0  0  2  0  0  0  0  0  0  0  0  0
  -25.3659  -33.7845   21.7928 C   0  0  0  0  0  0  0  0  0  0  0  0
  -29.0961  -22.2719   18.3393 N   0  0  0  0  0  0  0  0  0  0  0  0
  -28.2513  -13.4016   20.5349 N   0  0  0  0  0  0  0  0  0  0  0  0
  -30.0111  -20.9414   20.1281 N   0  0  0  0  0  0  0  0  0  0  0  0
  -29.4989  -13.6725   20.1152 N   0  0  0  0  0  0  0  0  0  0  0  0
  -24.0955  -31.0902   23.7907 N   0  0  0  0  0  0  0  0  0  0  0  0
  -30.1314  -17.0078   21.8642 N   0  0  0  0  0  0  0  0  0  0  0  0
  -31.1587  -12.9982   18.5656 N   0  0  0  0  0  0  0  0  0  0  0  0
  -27.7378  -10.1725   17.7237 N   0  0  0  0  0  0  0  0  0  0  0  0
  -29.4393  -18.6389   20.3076 N   0  0  0  0  0  0  0  0  0  0  0  0
  -30.1328  -23.6805   21.2697 N   0  0  0  0  0  0  0  0  0  0  0  0
  -21.1087  -29.3222   22.6729 N   0  0  0  0  0  0  0  0  0  0  0  0
  -25.8664  -33.9351   24.2688 N   0  0  0  0  0  0  0  0  0  0  0  0
  -27.7969  -34.0799   27.3217 N   0  3  0  0  0  0  0  0  0  0  0  0
  -29.8779  -10.7364   17.1232 O   0  0  0  0  0  0  0  0  0  0  0  0
  -28.3658  -25.0213   20.5917 O   0  0  0  0  0  0  0  0  0  0  0  0
  -23.0824  -30.0601   21.6817 O   0  0  0  0  0  0  0  0  0  0  0  0
  -23.1442  -33.2182   23.7354 O   0  0  0  0  0  0  0  0  0  0  0  0
  -27.7178  -32.6807   24.8819 O   0  0  0  0  0  0  0  0  0  0  0  0
  -30.8843  -19.1866   22.0378 O   0  0  0  0  0  0  0  0  0  0  0  0
  -29.6018  -24.1448   23.8490 O   0  0  0  0  0  0  0  0  0  0  0  0
  -22.8131  -10.0953   20.3270 O   0  0  0  0  0  0  0  0  0  0  0  0
  -27.3388  -25.8930   24.5142 O   0  0  0  0  0  0  0  0  0  1  0  0
  -22.4694   -4.5922   20.3704 F   0  0  0  0  0  0  0  0  0  0  0  0
  -21.7755   -8.7562   22.5117 F   0  0  0  0  0  0  0  0  0  0  0  0
  1  2  1  0  0  0  0
  1  5  2  0  0  0  0
  2  6  2  0  0  0  0
  3  8  2  0  0  0  0
  3 17  1  0  0  0  0
  4  9  1  0  0  0  0
  4 17  2  0  0  0  0
  5 19  1  0  0  0  0
  6 21  1  0  0  0  0
  7 10  2  0  0  0  0
  7 20  1  0  0  0  0
  8 23  1  0  0  0  0
  9 23  2  0  0  0  0
 10 24  1  0  0  0  0
 11 12  2  0  0  0  0
 11 25  1  0  0  0  0
 12 26  1  0  0  0  0
 13 16  1  0  0  0  0
 13 29  2  0  0  0  0
 14 22  1  0  0  0  0
 14 24  2  0  0  0  0
 15 26  2  0  0  0  0
 15 27  1  0  0  0  0
 16 62  2  0  0  0  0
 17 28  1  0  0  0  0
 18 28  1  0  0  0  0
 18 30  2  0  0  0  0
 18 33  1  0  0  0  0
 19 21  2  0  0  0  0
 19 40  1  0  0  0  0
 20 22  2  0  0  0  0
 20 41  1  0  0  0  0
 21 49  1  0  0  0  0
 22 42  1  0  0  0  0
 23 82  1  0  0  0  0
 24 83  1  0  0  0  0
 25 27  2  0  0  0  0
 25 82  1  0  0  0  0
 26 84  1  0  0  0  0
 27 85  1  0  0  0  0
 28 63  2  0  0  0  0
 29 64  1  0  0  0  0
 29 70  1  0  0  0  0
 30 65  1  0  0  0  0
 30 68  1  0  0  0  0
 31 58  1  0  0  0  0
 31 62  1  0  0  0  0
 31 64  2  0  0  0  0
 32 34  2  0  0  0  0
 32 83  1  0  0  0  0
 33 69  1  0  0  0  0
 33 75  2  0  0  0  0
 34 35  1  0  0  0  0
 34 81  1  0  0  0  0
 35 71  1  0  0  0  0
 35 76  2  0  0  0  0
 36 50  1  0  0  0  0
 36 72  1  0  0  0  0
 36 77  2  0  0  0  0
 37 59  1  0  0  0  0
 37 66  1  0  0  0  0
 37 78  2  0  0  0  0
 38 60  1  0  0  0  0
 38 73  1  0  0  0  0
 38 79  2  0  0  0  0
 39 67  1  0  0  0  0
 39 70  1  0  0  0  0
 39 80  2  0  0  0  0
 40 43  1  0  0  0  0
 41 50  1  0  0  0  0
 42 66  1  0  0  0  0
 43 45  1  0  0  0  0
 44 46  1  0  0  0  0
 44 47  1  0  0  0  0
 45 49  1  0  0  0  0
 46 51  1  0  0  0  0
 47 67  1  0  0  0  0
 48 51  1  0  0  0  0
 48 67  1  0  0  0  0
 49 72  1  0  0  0  0
 50 66  1  0  0  0  0
 51 65  1  0  0  0  0
 52 58  1  0  0  0  0
 53 60  1  0  0  0  0
 54 61  1  0  0  0  0
 55 61  1  0  0  0  0
 56 61  1  0  0  0  0
 57 74  1  0  0  0  0
 58 71  1  0  0  0  0
 59 61  1  0  0  0  0
 59 73  1  0  0  0  0
 60 74  1  0  0  0  0
 63 65  1  0  0  0  0
M  CHG  1  74   1
M  ISO  4  32 101  39 100  70 100  83 101
M  END
> <Batch ID>
0165

> <Smiles>
CNC(C)C(=O)NC(C(=O)N1Cc2cc([101O:1][101CH2:1]C(=O)C(=O)NC(C)c3nccc([100NH:0][100C:0](=O)N4CCCC(n5nc(-c6ccc(Oc7ccc(F)cc7F)cc6)c(C(N)=O)c5N)C4)n3)ccc2CC1C(=O)NC1CCCc2ccccc21)C(C)(C)C

> <Shape>
0.312

> <Color>
0.079

> <Negative vol penalty>
0.000

$$$$

  -OEChem-04052304053D

 85 93  0     1  0  0  0  0  0999 V2000
  -23.4705  -16.6338   23.0881 C   0  0  0  0  0  0  0  0  0  0  0  0
  -23.6719  -17.6869   22.2016 C   0  0  0  0  0  0  0  0  0  0  0  0
  -28.8363  -21.8677   15.6450 C   0  0  0  0  0  0  0  0  0  0  0  0
  -26.4326  -12.8716   21.5345 C   0  0  0  0  0  0  0  0  0  0  0  0
  -26.0738  -13.6150   19.2639 C   0  0  0  0  0  0  0  0  0  0  0  0
  -22.5062  -16.7415   24.0893 C   0  0  0  0  0  0  0  0  0  0  0  0
  -22.9082  -18.8481   22.3153 C   0  0  0  0  0  0  0  0  0  0  0  0
  -25.6971  -23.0551   21.9054 C   0  0  0  0  0  0  0  0  0  0  0  0
  -25.2198  -12.1834   21.5009 C   0  0  0  0  0  0  0  0  0  0  0  0
  -24.8610  -12.9268   19.2302 C   0  0  0  0  0  0  0  0  0  0  0  0
  -26.0812  -23.4419   20.6222 C   0  0  0  0  0  0  0  0  0  0  0  0
  -24.0437   -9.2682   20.2556 C   0  0  0  0  0  0  0  0  0  0  0  0
  -24.0217   -7.9684   20.7611 C   0  0  0  0  0  0  0  0  0  0  0  0
  -29.2756  -23.1710   15.8493 C   0  0  0  0  0  0  0  0  0  0  0  0
  -28.7798  -20.9831   16.7163 C   0  0  0  0  0  0  0  0  0  0  0  0
  -24.2967  -25.0646   20.5837 C   0  0  0  0  0  0  0  0  0  0  0  0
  -22.3686   -8.6313   22.3935 C   0  0  0  0  0  0  0  0  0  0  0  0
  -26.8596  -13.5874   20.4160 C   0  0  0  0  0  0  0  0  0  0  0  0
  -29.3800  -13.8060   20.0884 C   0  0  0  0  0  0  0  0  0  0  0  0
  -21.7370  -17.9084   24.2212 C   0  0  0  0  0  0  0  0  0  0  0  0
  -24.6013  -23.6637   22.5341 C   0  0  0  0  0  0  0  0  0  0  0  0
  -21.9318  -18.9711   23.3183 C   0  0  0  0  0  0  0  0  0  0  0  0
  -23.9023  -24.6855   21.8759 C   0  0  0  0  0  0  0  0  0  0  0  0
  -24.4340  -12.2110   20.3488 C   0  0  0  0  0  0  0  0  0  0  0  0
  -25.3792  -24.4448   19.9600 C   0  0  0  0  0  0  0  0  0  0  0  0
  -23.2282  -10.2496   20.8190 C   0  0  0  0  0  0  0  0  0  0  0  0
  -23.1841   -7.6499   21.8301 C   0  0  0  0  0  0  0  0  0  0  0  0
  -22.3906   -9.9312   21.8880 C   0  0  0  0  0  0  0  0  0  0  0  0
  -28.1121  -14.2990   20.4504 C   0  0  0  0  0  0  0  0  0  0  0  0
  -29.6442  -23.5374   17.1337 C   0  0  0  0  0  0  0  0  0  0  0  0
  -29.1707  -21.4474   17.9619 C   0  0  0  0  0  0  0  0  0  0  0  0
  -30.2321  -14.8625   20.2988 C   0  0  0  0  0  0  0  0  0  0  0  0
  -29.7542  -12.5090   19.6051 C   0  0  0  0  0  0  0  0  0  0  0  0
  -21.7884  -22.6514   23.6143 C   0  0  0  0  0  0  0  0  0  0  0  0
  -21.5627  -25.6888   24.7304 C   0  0  0  0  0  0  0  0  0  0  0  0
  -28.6065  -26.0088   19.1263 C   0  0  0  0  0  0  0  0  0  0  0  0
  -22.5323  -28.9505   24.4702 C   0  0  0  0  0  0  0  0  0  0  0  0
  -29.4484  -20.7858   20.3767 C   0  0  0  0  0  0  0  0  0  0  0  0
  -20.6738  -17.9601   25.2897 C   0  0  0  0  0  0  0  0  0  0  0  0
  -24.2162  -23.2536   23.9291 C   0  0  0  0  0  0  0  0  0  0  0  0
  -22.7312  -25.3844   22.5151 C   0  0  0  0  0  0  0  0  0  0  0  0
  -20.1660  -19.3709   25.5759 C   0  0  0  0  0  0  0  0  0  0  0  0
  -30.7474  -18.7748   23.0122 C   0  0  0  0  0  0  0  0  0  0  0  0
  -19.8715  -20.1070   24.2727 C   0  0  0  0  0  0  0  0  0  0  0  0
  -30.3397  -17.3533   22.6183 C   0  0  0  0  0  0  0  0  0  0  0  0
  -29.6719  -19.7957   22.6449 C   0  0  0  0  0  0  0  0  0  0  0  0
  -28.8244  -18.3360   20.8505 C   0  0  0  0  0  0  0  0  0  0  0  0
  -21.1405  -20.2566   23.4248 C   0  0  1  0  0  0  0  0  0  0  0  0
  -22.7666  -23.5843   24.2704 C   0  0  1  0  0  0  0  0  0  0  0  0
  -29.9039  -17.2808   21.1417 C   0  0  2  0  0  0  0  0  0  0  0  0
  -22.1483  -31.2077   25.4974 C   0  0  0  0  0  0  0  0  0  0  0  0
  -25.1817  -26.8286   17.5261 C   0  0  0  0  0  0  0  0  0  0  0  0
  -18.8814  -25.8865   23.2877 C   0  0  0  0  0  0  0  0  0  0  0  0
  -19.0091  -28.3743   23.5380 C   0  0  0  0  0  0  0  0  0  0  0  0
  -18.9201  -26.9216   25.5640 C   0  0  0  0  0  0  0  0  0  0  0  0
  -30.8338  -25.1406   19.7415 C   0  0  0  0  0  0  0  0  0  0  0  0
  -25.3705  -29.1971   25.2718 C   0  0  0  0  0  0  0  0  0  0  0  0
  -30.1233  -24.9368   17.3912 C   0  0  0  0  0  0  0  0  0  0  0  0
  -27.5777  -26.2273   18.0203 C   0  0  0  0  0  0  0  0  0  0  0  0
  -21.0359  -26.9929   24.1819 C   0  0  1  0  0  0  0  0  0  0  0  0
  -23.0008  -29.9484   25.5139 C   0  0  2  0  0  0  0  0  0  0  0  0
  -26.1334  -26.1870   18.5275 C   0  0  2  0  0  0  0  0  0  1  0  0
  -19.4824  -27.0295   24.1298 C   0  0  0  0  0  0  0  0  0  0  0  0
  -28.1505  -15.5698   20.8598 N   0  0  0  0  0  0  0  0  0  0  0  0
  -29.6029  -22.7062   18.1991 N   0  0  0  0  0  0  0  0  0  0  0  0
  -29.4531  -15.8842   20.7565 N   0  0  0  0  0  0  0  0  0  0  0  0
  -22.3894  -24.9437   23.8776 N   0  0  0  0  0  0  0  0  0  0  0  0
  -29.3124  -19.6709   21.2307 N   0  0  0  0  0  0  0  0  0  0  0  0
  -31.5642  -15.0080   20.1351 N   0  0  0  0  0  0  0  0  0  0  0  0
  -28.7535  -11.5406   19.4470 N   0  0  0  0  0  0  0  0  0  0  0  0
  -29.1076  -20.5388   19.0473 N   0  0  0  0  0  0  0  0  0  0  0  0
  -21.9719  -21.3218   23.9430 N   0  0  0  0  0  0  0  0  0  0  0  0
  -21.6316  -28.0478   24.9948 N   0  0  0  0  0  0  0  0  0  0  0  0
  -29.7995  -25.3854   18.7437 N   0  0  0  0  0  0  0  0  0  0  0  0
  -24.4172  -30.3364   25.2605 N   0  3  0  0  0  0  0  0  0  0  0  0
  -30.9433  -12.2124   19.3375 O   0  0  0  0  0  0  0  0  0  0  0  0
  -20.9299  -23.1044   22.8664 O   0  0  0  0  0  0  0  0  0  0  0  0
  -21.2578  -25.3473   25.8758 O   0  0  0  0  0  0  0  0  0  0  0  0
  -28.3724  -26.3714   20.2821 O   0  0  0  0  0  0  0  0  0  0  0  0
  -22.9231  -28.9721   23.3052 O   0  0  0  0  0  0  0  0  0  0  0  0
  -29.8644  -21.8718   20.7886 O   0  0  0  0  0  0  0  0  0  0  0  0
  -23.2506  -11.5394   20.3155 O   0  0  0  0  0  0  0  0  0  0  0  0
  -25.7516  -24.8238   18.7071 O   0  0  0  0  0  0  0  0  0  1  0  0
  -23.1619   -6.4013   22.3145 F   0  0  0  0  0  0  0  0  0  0  0  0
  -21.6041  -10.8695   22.4327 F   0  0  0  0  0  0  0  0  0  0  0  0
  1  2  1  0  0  0  0
  1  6  2  0  0  0  0
  2  7  2  0  0  0  0
  3 14  2  0  0  0  0
  3 15  1  0  0  0  0
  4  9  2  0  0  0  0
  4 18  1  0  0  0  0
  5 10  1  0  0  0  0
  5 18  2  0  0  0  0
  6 20  1  0  0  0  0
  7 22  1  0  0  0  0
  8 11  2  0  0  0  0
  8 21  1  0  0  0  0
  9 24  1  0  0  0  0
 10 24  2  0  0  0  0
 11 25  1  0  0  0  0
 12 13  2  0  0  0  0
 12 26  1  0  0  0  0
 13 27  1  0  0  0  0
 14 30  1  0  0  0  0
 15 31  2  0  0  0  0
 16 23  1  0  0  0  0
 16 25  2  0  0  0  0
 17 27  2  0  0  0  0
 17 28  1  0  0  0  0
 18 29  1  0  0  0  0
 19 29  1  0  0  0  0
 19 32  2  0  0  0  0
 19 33  1  0  0  0  0
 20 22  2  0  0  0  0
 20 39  1  0  0  0  0
 21 23  2  0  0  0  0
 21 40  1  0  0  0  0
 22 48  1  0  0  0  0
 23 41  1  0  0  0  0
 24 82  1  0  0  0  0
 25 83  1  0  0  0  0
 26 28  2  0  0  0  0
 26 82  1  0  0  0  0
 27 84  1  0  0  0  0
 28 85  1  0  0  0  0
 29 64  2  0  0  0  0
 30 58  1  0  0  0  0
 30 65  2  0  0  0  0
 31 65  1  0  0  0  0
 31 71  1  0  0  0  0
 32 66  1  0  0  0  0
 32 69  1  0  0  0  0
 33 70  1  0  0  0  0
 33 76  2  0  0  0  0
 34 49  1  0  0  0  0
 34 72  1  0  0  0  0
 34 77  2  0  0  0  0
 35 60  1  0  0  0  0
 35 67  1  0  0  0  0
 35 78  2  0  0  0  0
 36 59  1  0  0  0  0
 36 74  1  0  0  0  0
 36 79  2  0  0  0  0
 37 61  1  0  0  0  0
 37 73  1  0  0  0  0
 37 80  2  0  0  0  0
 38 68  1  0  0  0  0
 38 71  1  0  0  0  0
 38 81  2  0  0  0  0
 39 42  1  0  0  0  0
 40 49  1  0  0  0  0
 41 67  1  0  0  0  0
 42 44  1  0  0  0  0
 43 45  1  0  0  0  0
 43 46  1  0  0  0  0
 44 48  1  0  0  0  0
 45 50  1  0  0  0  0
 46 68  1  0  0  0  0
 47 50  1  0  0  0  0
 47 68  1  0  0  0  0
 48 72  1  0  0  0  0
 49 67  1  0  0  0  0
 50 66  1  0  0  0  0
 51 61  1  0  0  0  0
 52 62  1  0  0  0  0
 53 63  1  0  0  0  0
 54 63  1  0  0  0  0
 55 63  1  0  0  0  0
 56 74  1  0  0  0  0
 57 75  1  0  0  0  0
 58 74  1  0  0  0  0
 59 62  1  0  0  0  0
 60 63  1  0  0  0  0
 60 73  1  0  0  0  0
 61 75  1  0  0  0  0
 62 83  1  0  0  0  0
 64 66  1  0  0  0  0
M  CHG  1  75   1
M  ISO  4  38 100  62 101  71 100  83 101
M  END
> <Batch ID>
0165

> <Smiles>
CNC(C)C(=O)NC(C(=O)N1Cc2cc([101O:1][101CH:1](C)CC(=O)N(C)Cc3cccc([100NH:0][100C:0](=O)N4CCCC(n5nc(-c6ccc(Oc7ccc(F)cc7F)cc6)c(C(N)=O)c5N)C4)n3)ccc2CC1C(=O)NC1CCCc2ccccc21)C(C)(C)C

> <Shape>
0.230

> <Color>
0.088

> <Negative vol penalty>
0.000

$$$$

  -OEChem-04052304053D

 84 92  0     1  0  0  0  0  0999 V2000
  -28.6037  -36.6647   27.4643 C   0  0  0  0  0  0  0  0  0  0  0  0
  -28.8557  -35.3847   26.9810 C   0  0  0  0  0  0  0  0  0  0  0  0
  -23.6411   -9.3860   21.0436 C   0  0  0  0  0  0  0  0  0  0  0  0
  -24.2038  -10.2875   23.2134 C   0  0  0  0  0  0  0  0  0  0  0  0
  -28.8092  -20.2081   21.1345 C   0  0  0  0  0  0  0  0  0  0  0  0
  -27.3179  -37.1979   27.3847 C   0  0  0  0  0  0  0  0  0  0  0  0
  -27.8218  -34.6368   26.4187 C   0  0  0  0  0  0  0  0  0  0  0  0
  -28.2492  -30.6839   21.7606 C   0  0  0  0  0  0  0  0  0  0  0  0
  -23.0939   -8.2576   21.6544 C   0  0  0  0  0  0  0  0  0  0  0  0
  -23.6566   -9.1591   23.8241 C   0  0  0  0  0  0  0  0  0  0  0  0
  -28.3521  -29.2942   21.7162 C   0  0  0  0  0  0  0  0  0  0  0  0
  -20.2259   -7.4283   23.2416 C   0  0  0  0  0  0  0  0  0  0  0  0
  -18.9901   -6.9760   22.7793 C   0  0  0  0  0  0  0  0  0  0  0  0
  -28.5946  -18.8343   21.1356 C   0  0  0  0  0  0  0  0  0  0  0  0
  -25.9666  -29.1339   21.3952 C   0  0  0  0  0  0  0  0  0  0  0  0
  -19.9854   -4.8534   22.1952 C   0  0  0  0  0  0  0  0  0  0  0  0
  -30.9453  -19.8210   20.1630 C   0  0  0  0  0  0  0  0  0  0  0  0
  -24.1961  -10.4009   21.8232 C   0  0  0  0  0  0  0  0  0  0  0  0
  -30.0043  -20.7189   20.6406 C   0  0  0  0  0  0  0  0  0  0  0  0
  -24.0975  -12.7642   20.8678 C   0  0  0  0  0  0  0  0  0  0  0  0
  -26.2698  -36.4599   26.8124 C   0  0  0  0  0  0  0  0  0  0  0  0
  -27.0007  -31.3096   21.6335 C   0  0  0  0  0  0  0  0  0  0  0  0
  -26.5205  -35.1602   26.3326 C   0  0  0  0  0  0  0  0  0  0  0  0
  -25.8509  -30.5318   21.4359 C   0  0  0  0  0  0  0  0  0  0  0  0
  -23.1017   -8.1442   23.0446 C   0  0  0  0  0  0  0  0  0  0  0  0
  -27.2103  -28.5189   21.5363 C   0  0  0  0  0  0  0  0  0  0  0  0
  -21.3415   -6.5932   23.1807 C   0  0  0  0  0  0  0  0  0  0  0  0
  -18.8698   -5.6886   22.2561 C   0  0  0  0  0  0  0  0  0  0  0  0
  -21.2212   -5.3057   22.6576 C   0  0  0  0  0  0  0  0  0  0  0  0
  -24.7620  -11.5665   21.1929 C   0  0  0  0  0  0  0  0  0  0  0  0
  -29.5986  -18.0208   20.6357 C   0  0  0  0  0  0  0  0  0  0  0  0
  -25.0663  -13.5489   20.2914 C   0  0  0  0  0  0  0  0  0  0  0  0
  -30.2623  -22.1729   20.6257 C   0  0  0  0  0  0  0  0  0  0  0  0
  -22.7270  -13.1344   21.0689 C   0  0  0  0  0  0  0  0  0  0  0  0
  -25.2263  -33.1752   23.4976 C   0  0  0  0  0  0  0  0  0  0  0  0
  -28.5587  -25.0872   21.5463 C   0  0  0  0  0  0  0  0  0  0  0  0
  -23.3515  -33.3685   20.8575 C   0  0  0  0  0  0  0  0  0  0  0  0
  -22.3440  -31.9722   17.9109 C   0  0  0  0  0  0  0  0  0  0  0  0
  -30.2325  -15.6233   20.1921 C   0  0  0  0  0  0  0  0  0  0  0  0
  -24.8864  -37.0601   26.7914 C   0  0  0  0  0  0  0  0  0  0  0  0
  -26.9100  -32.8108   21.6568 C   0  0  0  0  0  0  0  0  0  0  0  0
  -24.4896  -31.1556   21.2738 C   0  0  0  0  0  0  0  0  0  0  0  0
  -23.9276  -36.3475   25.8410 C   0  0  0  0  0  0  0  0  0  0  0  0
  -29.7506  -12.4019   18.7542 C   0  0  0  0  0  0  0  0  0  0  0  0
  -24.0217  -34.8358   26.0221 C   0  0  0  0  0  0  0  0  0  0  0  0
  -28.3551  -11.9959   19.2337 C   0  0  0  0  0  0  0  0  0  0  0  0
  -30.5132  -13.1819   19.8237 C   0  0  0  0  0  0  0  0  0  0  0  0
  -28.4053  -13.9373   20.8510 C   0  0  0  0  0  0  0  0  0  0  0  0
  -25.4306  -34.3275   25.6933 C   0  0  1  0  0  0  0  0  0  0  0  0
  -25.5215  -33.3198   22.0314 C   0  0  1  0  0  0  0  0  0  0  0  0
  -27.5744  -13.2054   19.7844 C   0  0  2  0  0  0  0  0  0  0  0  0
  -20.7713  -32.3436   15.9911 C   0  0  0  0  0  0  0  0  0  0  0  0
  -21.0111  -32.4931   22.6086 C   0  0  0  0  0  0  0  0  0  0  0  0
  -19.7346  -31.9688   20.5195 C   0  0  0  0  0  0  0  0  0  0  0  0
  -20.4703  -34.3084   20.9756 C   0  0  0  0  0  0  0  0  0  0  0  0
  -24.5672  -32.0862   15.9607 C   0  0  0  0  0  0  0  0  0  0  0  0
  -29.8900  -24.3776   21.6734 C   0  0  0  0  0  0  0  0  0  0  0  0
  -28.6112  -26.5998   21.6390 C   0  0  0  0  0  0  0  0  0  1  0  0
  -22.1881  -32.5760   20.3121 C   0  0  1  0  0  0  0  0  0  0  0  0
  -22.1799  -32.5609   16.5214 C   0  0  2  0  0  0  0  0  0  0  0  0
  -20.8763  -32.8244   21.1089 C   0  0  0  0  0  0  0  0  0  0  0  0
  -30.7726  -18.4803   20.1477 N   0  0  0  0  0  0  0  0  0  0  0  0
  -26.0531  -11.5841   20.8513 N   0  0  0  0  0  0  0  0  0  0  0  0
  -26.2077  -12.8024   20.3055 N   0  0  0  0  0  0  0  0  0  0  0  0
  -24.4519  -32.6270   21.3101 N   0  0  0  0  0  0  0  0  0  0  0  0
  -29.7141  -14.3151   20.2951 N   0  0  0  0  0  0  0  0  0  0  0  0
  -25.0446  -14.7976   19.7790 N   0  0  0  0  0  0  0  0  0  0  0  0
  -21.8670  -12.2089   21.6757 N   0  0  0  0  0  0  0  0  0  0  0  0
  -29.3699  -16.6224   20.6420 N   0  0  0  0  0  0  0  0  0  0  0  0
  -29.6984  -22.9533   21.5748 N   0  0  0  0  0  0  0  0  0  0  0  0
  -25.6211  -34.2576   24.2604 N   0  0  0  0  0  0  0  0  0  0  0  0
  -22.0977  -32.9070   18.8941 N   0  0  0  0  0  0  0  0  0  0  0  0
  -31.0469  -22.6619   19.6653 N   0  3  0  0  0  0  0  0  0  0  0  0
  -23.1414  -31.9290   15.5742 N   0  3  0  0  0  0  0  0  0  0  0  0
  -22.2744  -14.2466   20.7060 O   0  0  0  0  0  0  0  0  0  0  0  0
  -24.6794  -32.1576   23.9063 O   0  0  0  0  0  0  0  0  0  0  0  0
  -27.4980  -24.4866   21.3789 O   0  0  0  0  0  0  0  0  0  0  0  0
  -23.2891  -34.6003   20.8745 O   0  0  0  0  0  0  0  0  0  0  0  0
  -22.6557  -30.7992   18.1048 O   0  0  0  0  0  0  0  0  0  0  0  0
  -31.3478  -15.8436   19.7130 O   0  0  0  0  0  0  0  0  0  0  0  0
  -22.5676   -7.0434   23.6408 O   0  0  0  0  0  0  0  0  0  0  0  0
  -27.3079  -27.1622   21.4932 O   0  0  0  0  0  0  0  0  0  1  0  0
  -17.6826   -5.2539   21.8136 F   0  0  0  0  0  0  0  0  0  0  0  0
  -22.2892   -4.4984   22.5975 F   0  0  0  0  0  0  0  0  0  0  0  0
  1  2  1  0  0  0  0
  1  6  2  0  0  0  0
  2  7  2  0  0  0  0
  3  9  2  0  0  0  0
  3 18  1  0  0  0  0
  4 10  1  0  0  0  0
  4 18  2  0  0  0  0
  5 14  2  0  0  0  0
  5 19  1  0  0  0  0
  6 21  1  0  0  0  0
  7 23  1  0  0  0  0
  8 11  2  0  0  0  0
  8 22  1  0  0  0  0
  9 25  1  0  0  0  0
 10 25  2  0  0  0  0
 11 26  1  0  0  0  0
 12 13  2  0  0  0  0
 12 27  1  0  0  0  0
 13 28  1  0  0  0  0
 14 31  1  0  0  0  0
 15 24  1  0  0  0  0
 15 26  2  0  0  0  0
 16 28  2  0  0  0  0
 16 29  1  0  0  0  0
 17 19  2  0  0  0  0
 17 62  1  0  0  0  0
 18 30  1  0  0  0  0
 19 33  1  0  0  0  0
 20 30  1  0  0  0  0
 20 32  2  0  0  0  0
 20 34  1  0  0  0  0
 21 23  2  0  0  0  0
 21 40  1  0  0  0  0
 22 24  2  0  0  0  0
 22 41  1  0  0  0  0
 23 49  1  0  0  0  0
 24 42  1  0  0  0  0
 25 81  1  0  0  0  0
 26 82  1  0  0  0  0
 27 29  2  0  0  0  0
 27 81  1  0  0  0  0
 28 83  1  0  0  0  0
 29 84  1  0  0  0  0
 30 63  2  0  0  0  0
 31 62  2  0  0  0  0
 31 69  1  0  0  0  0
 32 64  1  0  0  0  0
 32 67  1  0  0  0  0
 33 70  1  0  0  0  0
 33 73  2  0  0  0  0
 34 68  1  0  0  0  0
 34 75  2  0  0  0  0
 35 50  1  0  0  0  0
 35 71  1  0  0  0  0
 35 76  2  0  0  0  0
 36 57  1  0  0  0  0
 36 58  1  0  0  0  0
 36 77  2  0  0  0  0
 37 59  1  0  0  0  0
 37 65  1  0  0  0  0
 37 78  2  0  0  0  0
 38 60  1  0  0  0  0
 38 72  1  0  0  0  0
 38 79  2  0  0  0  0
 39 66  1  0  0  0  0
 39 69  1  0  0  0  0
 39 80  2  0  0  0  0
 40 43  1  0  0  0  0
 41 50  1  0  0  0  0
 42 65  1  0  0  0  0
 43 45  1  0  0  0  0
 44 46  1  0  0  0  0
 44 47  1  0  0  0  0
 45 49  1  0  0  0  0
 46 51  1  0  0  0  0
 47 66  1  0  0  0  0
 48 51  1  0  0  0  0
 48 66  1  0  0  0  0
 49 71  1  0  0  0  0
 50 65  1  0  0  0  0
 51 64  1  0  0  0  0
 52 60  1  0  0  0  0
 53 61  1  0  0  0  0
 54 61  1  0  0  0  0
 55 61  1  0  0  0  0
 56 74  1  0  0  0  0
 57 70  1  0  0  0  0
 58 82  1  0  0  0  0
 59 61  1  0  0  0  0
 59 72  1  0  0  0  0
 60 74  1  0  0  0  0
 63 64  1  0  0  0  0
M  CHG  2  73   1  74   1
M  ISO  4  39 100  58 101  69 100  82 101
M  END
> <Batch ID>
0165

> <Smiles>
CNC(C)C(=O)NC(C(=O)N1Cc2cc([101O:1][101CH2:1]C(=O)CNC(=N)c3ccc([100NH:0][100C:0](=O)N4CCCC(n5nc(-c6ccc(Oc7ccc(F)cc7F)cc6)c(C(N)=O)c5N)C4)nc3)ccc2CC1C(=O)NC1CCCc2ccccc21)C(C)(C)C

> <Shape>
0.279

> <Color>
0.139

> <Negative vol penalty>
0.000

$$$$

  -OEChem-04052304053D

 85 94  0     1  0  0  0  0  0999 V2000
  -30.1397  -36.3105   21.9110 C   0  0  0  0  0  0  0  0  0  0  0  0
  -29.8697  -35.4417   20.8586 C   0  0  0  0  0  0  0  0  0  0  0  0
  -24.2226   -9.0068   19.8927 C   0  0  0  0  0  0  0  0  0  0  0  0
  -23.9311   -9.5888   22.2194 C   0  0  0  0  0  0  0  0  0  0  0  0
  -29.8955  -35.9103   23.2241 C   0  0  0  0  0  0  0  0  0  0  0  0
  -29.3562  -34.1716   21.1188 C   0  0  0  0  0  0  0  0  0  0  0  0
  -24.9846  -29.2359   18.3181 C   0  0  0  0  0  0  0  0  0  0  0  0
  -23.2153   -8.0487   20.0061 C   0  0  0  0  0  0  0  0  0  0  0  0
  -22.9237   -8.6307   22.3328 C   0  0  0  0  0  0  0  0  0  0  0  0
  -24.9615  -27.8824   17.9845 C   0  0  0  0  0  0  0  0  0  0  0  0
  -22.7050   -5.2748   22.6805 C   0  0  0  0  0  0  0  0  0  0  0  0
  -22.7274   -4.4400   23.7977 C   0  0  0  0  0  0  0  0  0  0  0  0
  -24.5050  -27.3286   20.2876 C   0  0  0  0  0  0  0  0  0  0  0  0
  -20.5470   -5.2522   24.4482 C   0  0  0  0  0  0  0  0  0  0  0  0
  -24.5061  -18.9625   15.1556 C   0  0  0  0  0  0  0  0  0  0  0  0
  -24.5712  -16.8559   16.3142 C   0  0  0  0  0  0  0  0  0  0  0  0
  -24.5806   -9.7768   20.9994 C   0  0  0  0  0  0  0  0  0  0  0  0
  -26.9651  -10.5485   20.5239 C   0  0  0  0  0  0  0  0  0  0  0  0
  -29.3698  -34.6382   23.4998 C   0  0  0  0  0  0  0  0  0  0  0  0
  -24.7785  -29.6459   19.6432 C   0  0  0  0  0  0  0  0  0  0  0  0
  -29.1060  -33.7535   22.4368 C   0  0  0  0  0  0  0  0  0  0  0  0
  -24.5234  -28.6880   20.6350 C   0  0  0  0  0  0  0  0  0  0  0  0
  -22.5658   -7.8607   21.2261 C   0  0  0  0  0  0  0  0  0  0  0  0
  -24.7246  -26.9283   18.9697 C   0  0  0  0  0  0  0  0  0  0  0  0
  -21.6036   -6.0984   22.4471 C   0  0  0  0  0  0  0  0  0  0  0  0
  -21.6484   -4.4287   24.6816 C   0  0  0  0  0  0  0  0  0  0  0  0
  -20.5246   -6.0871   23.3310 C   0  0  0  0  0  0  0  0  0  0  0  0
  -24.3934  -17.5768   15.1386 C   0  0  0  0  0  0  0  0  0  0  0  0
  -25.6215  -10.7663   20.8830 C   0  0  0  0  0  0  0  0  0  0  0  0
  -24.7956  -19.5749   16.3644 C   0  0  0  0  0  0  0  0  0  0  0  0
  -24.8579  -17.5625   17.4711 C   0  0  0  0  0  0  0  0  0  0  0  0
  -27.5365  -11.7970   20.5585 C   0  0  0  0  0  0  0  0  0  0  0  0
  -24.8611  -23.7663   17.1688 C   0  0  0  0  0  0  0  0  0  0  0  0
  -27.6367   -9.3268   20.1889 C   0  0  0  0  0  0  0  0  0  0  0  0
  -26.5160  -31.1942   21.8082 C   0  0  0  0  0  0  0  0  0  0  0  0
  -23.7700  -31.0706   23.5305 C   0  0  0  0  0  0  0  0  0  0  0  0
  -20.7858  -29.5227   24.1180 C   0  0  0  0  0  0  0  0  0  0  0  0
  -25.3301  -17.3148   19.9332 C   0  0  0  0  0  0  0  0  0  0  0  0
  -29.1668  -34.2329   24.9383 C   0  0  0  0  0  0  0  0  0  0  0  0
  -24.7799  -31.1114   19.9820 C   0  0  0  0  0  0  0  0  0  0  0  0
  -24.2760  -29.0775   22.0687 C   0  0  0  0  0  0  0  0  0  0  0  0
  -26.1513  -23.0141   17.3537 C   0  0  0  0  0  0  0  0  0  0  0  0
  -28.2703  -33.0088   25.1055 C   0  0  0  0  0  0  0  0  0  0  0  0
  -27.1261  -16.0442   22.7327 C   0  0  0  0  0  0  0  0  0  0  0  0
  -28.6795  -31.9101   24.1297 C   0  0  0  0  0  0  0  0  0  0  0  0
  -27.0716  -14.5270   22.5401 C   0  0  0  0  0  0  0  0  0  0  0  0
  -23.6109  -21.7721   16.7766 C   0  0  0  0  0  0  0  0  0  0  0  0
  -25.8276  -16.7187   22.2937 C   0  0  0  0  0  0  0  0  0  0  0  0
  -25.3321  -14.8724   20.7396 C   0  0  0  0  0  0  0  0  0  0  0  0
  -28.5254  -32.3768   22.6771 C   0  0  1  0  0  0  0  0  0  0  0  0
  -24.9263  -21.0807   16.4208 C   0  0  1  0  0  0  0  0  0  0  0  0
  -25.0679  -31.3838   21.4552 C   0  0  1  0  0  0  0  0  0  0  0  0
  -26.6416  -14.1558   21.1073 C   0  0  2  0  0  0  0  0  0  0  0  0
  -18.7742  -29.6258   25.6148 C   0  0  0  0  0  0  0  0  0  0  0  0
  -25.3924  -29.8220   25.7929 C   0  0  0  0  0  0  0  0  0  0  0  0
  -23.2390  -29.0907   26.8399 C   0  0  0  0  0  0  0  0  0  0  0  0
  -23.7109  -31.5204   26.5292 C   0  0  0  0  0  0  0  0  0  0  0  0
  -18.9662  -30.0009   21.8334 C   0  0  0  0  0  0  0  0  0  0  0  0
  -24.9293  -25.2680   17.2794 C   0  0  0  0  0  0  0  0  0  1  0  0
  -23.1671  -30.0956   24.5127 C   0  0  1  0  0  0  0  0  0  0  0  0
  -19.3826  -30.0743   24.2951 C   0  0  2  0  0  0  0  0  0  0  0  0
  -23.8839  -30.1244   25.8921 C   0  0  0  0  0  0  0  0  0  0  0  0
  -25.3552  -12.0520   21.1279 N   0  0  0  0  0  0  0  0  0  0  0  0
  -24.9751  -18.9082   17.5267 N   0  0  0  0  0  0  0  0  0  0  0  0
  -23.7268  -23.2283   16.8835 N   0  0  0  0  0  0  0  0  0  0  0  0
  -26.5393  -12.6534   20.9224 N   0  0  0  0  0  0  0  0  0  0  0  0
  -24.2937  -30.5223   22.3511 N   0  0  0  0  0  0  0  0  0  0  0  0
  -25.4854  -16.3239   20.9255 N   0  0  0  0  0  0  0  0  0  0  0  0
  -28.7897  -12.2349   20.3129 N   0  0  0  0  0  0  0  0  0  0  0  0
  -28.2398   -8.5918   21.2187 N   0  0  0  0  0  0  0  0  0  0  0  0
  -25.0374  -16.8183   18.6634 N   0  0  0  0  0  0  0  0  0  0  0  0
  -27.1348  -32.3369   22.2783 N   0  0  0  0  0  0  0  0  0  0  0  0
  -21.7426  -30.4051   24.5730 N   0  0  0  0  0  0  0  0  0  0  0  0
  -25.9366  -21.5472   17.4258 N   0  3  0  0  0  0  0  0  0  0  0  0
  -18.4997  -29.6090   23.1884 N   0  3  0  0  0  0  0  0  0  0  0  0
  -27.7142   -8.9080   19.0090 O   0  0  0  0  0  0  0  0  0  0  0  0
  -27.0334  -30.0925   21.6661 O   0  0  0  0  0  0  0  0  0  0  0  0
  -23.7697  -32.2752   23.7965 O   0  0  0  0  0  0  0  0  0  0  0  0
  -21.0104  -28.4179   23.6287 O   0  0  0  0  0  0  0  0  0  0  0  0
  -25.4750  -18.5138   20.1850 O   0  0  0  0  0  0  0  0  0  0  0  0
  -21.5826   -6.9260   21.3371 O   0  0  0  0  0  0  0  0  0  0  0  0
  -24.7022  -25.6065   18.6469 O   0  0  0  0  0  0  0  0  0  1  0  0
  -21.6693   -3.6259   25.7536 F   0  0  0  0  0  0  0  0  0  0  0  0
  -19.4633   -6.8752   23.1115 F   0  0  0  0  0  0  0  0  0  0  0  0
  -24.1141  -16.9396   13.9943 F   0  0  0  0  0  0  0  0  0  0  0  0
  1  2  1  0  0  0  0
  1  5  2  0  0  0  0
  2  6  2  0  0  0  0
  3  8  2  0  0  0  0
  3 17  1  0  0  0  0
  4  9  1  0  0  0  0
  4 17  2  0  0  0  0
  5 19  1  0  0  0  0
  6 21  1  0  0  0  0
  7 10  2  0  0  0  0
  7 20  1  0  0  0  0
  8 23  1  0  0  0  0
  9 23  2  0  0  0  0
 10 24  1  0  0  0  0
 11 12  2  0  0  0  0
 11 25  1  0  0  0  0
 12 26  1  0  0  0  0
 13 22  1  0  0  0  0
 13 24  2  0  0  0  0
 14 26  2  0  0  0  0
 14 27  1  0  0  0  0
 15 28  2  0  0  0  0
 15 30  1  0  0  0  0
 16 28  1  0  0  0  0
 16 31  2  0  0  0  0
 17 29  1  0  0  0  0
 18 29  1  0  0  0  0
 18 32  2  0  0  0  0
 18 34  1  0  0  0  0
 19 21  2  0  0  0  0
 19 39  1  0  0  0  0
 20 22  2  0  0  0  0
 20 40  1  0  0  0  0
 21 50  1  0  0  0  0
 22 41  1  0  0  0  0
 23 81  1  0  0  0  0
 24 82  1  0  0  0  0
 25 27  2  0  0  0  0
 25 81  1  0  0  0  0
 26 83  1  0  0  0  0
 27 84  1  0  0  0  0
 28 85  1  0  0  0  0
 29 63  2  0  0  0  0
 30 51  1  0  0  0  0
 30 64  2  0  0  0  0
 31 64  1  0  0  0  0
 31 71  1  0  0  0  0
 32 66  1  0  0  0  0
 32 69  1  0  0  0  0
 33 42  1  0  0  0  0
 33 59  1  0  0  0  0
 33 65  2  0  0  0  0
 34 70  1  0  0  0  0
 34 76  2  0  0  0  0
 35 52  1  0  0  0  0
 35 72  1  0  0  0  0
 35 77  2  0  0  0  0
 36 60  1  0  0  0  0
 36 67  1  0  0  0  0
 36 78  2  0  0  0  0
 37 61  1  0  0  0  0
 37 73  1  0  0  0  0
 37 79  2  0  0  0  0
 38 68  1  0  0  0  0
 38 71  1  0  0  0  0
 38 80  2  0  0  0  0
 39 43  1  0  0  0  0
 40 52  1  0  0  0  0
 41 67  1  0  0  0  0
 42 74  1  0  0  0  0
 43 45  1  0  0  0  0
 44 46  1  0  0  0  0
 44 48  1  0  0  0  0
 45 50  1  0  0  0  0
 46 53  1  0  0  0  0
 47 51  1  0  0  0  0
 47 65  1  0  0  0  0
 48 68  1  0  0  0  0
 49 53  1  0  0  0  0
 49 68  1  0  0  0  0
 50 72  1  0  0  0  0
 51 74  1  0  0  0  0
 52 67  1  0  0  0  0
 53 66  1  0  0  0  0
 54 61  1  0  0  0  0
 55 62  1  0  0  0  0
 56 62  1  0  0  0  0
 57 62  1  0  0  0  0
 58 75  1  0  0  0  0
 59 82  1  0  0  0  0
 60 62  1  0  0  0  0
 60 73  1  0  0  0  0
 61 75  1  0  0  0  0
 63 66  1  0  0  0  0
M  CHG  2  74   1  75   1
M  ISO  4  38 100  59 101  71 100  82 101
M  END
> <Batch ID>
0165

> <Smiles>
CNC(C)C(=O)NC(C(=O)N1Cc2cc([101O:1][101CH2:1]C3=NCC(c4cc(F)cc([100NH:0][100C:0](=O)N5CCCC(n6nc(-c7ccc(Oc8ccc(F)cc8F)cc7)c(C(N)=O)c6N)C5)n4)NC3)ccc2CC1C(=O)NC1CCCc2ccccc21)C(C)(C)C

> <Shape>
0.221

> <Color>
0.098

> <Negative vol penalty>
0.000

$$$$

  -OEChem-04052304053D

 88 96  0     1  0  0  0  0  0999 V2000
  -13.6635  -29.1332   16.7638 C   0  0  0  0  0  0  0  0  0  0  0  0
  -14.4996  -28.0427   16.9807 C   0  0  0  0  0  0  0  0  0  0  0  0
  -23.0714   -9.9256   21.5100 C   0  0  0  0  0  0  0  0  0  0  0  0
  -23.7649  -10.9168   23.6013 C   0  0  0  0  0  0  0  0  0  0  0  0
  -14.0291  -30.3945   17.2322 C   0  0  0  0  0  0  0  0  0  0  0  0
  -15.7024  -28.2130   17.6652 C   0  0  0  0  0  0  0  0  0  0  0  0
  -20.1200  -24.7706   22.1319 C   0  0  0  0  0  0  0  0  0  0  0  0
  -22.3215   -8.9786   22.2075 C   0  0  0  0  0  0  0  0  0  0  0  0
  -23.0150   -9.9698   24.2988 C   0  0  0  0  0  0  0  0  0  0  0  0
  -21.4632  -24.4200   22.2606 C   0  0  0  0  0  0  0  0  0  0  0  0
  -22.8878   -6.1064   23.8969 C   0  0  0  0  0  0  0  0  0  0  0  0
  -22.9825   -4.7764   23.4874 C   0  0  0  0  0  0  0  0  0  0  0  0
  -21.9541  -26.6302   23.0932 C   0  0  0  0  0  0  0  0  0  0  0  0
  -29.7734  -18.2422   21.3492 C   0  0  0  0  0  0  0  0  0  0  0  0
  -31.9743  -17.2526   21.2335 C   0  0  0  0  0  0  0  0  0  0  0  0
  -20.6090   -4.7460   23.0374 C   0  0  0  0  0  0  0  0  0  0  0  0
  -23.7931  -10.8947   22.2069 C   0  0  0  0  0  0  0  0  0  0  0  0
  -24.1363  -13.1334   21.0330 C   0  0  0  0  0  0  0  0  0  0  0  0
  -15.2325  -30.5786   17.9312 C   0  0  0  0  0  0  0  0  0  0  0  0
  -19.6849  -26.0593   22.4732 C   0  0  0  0  0  0  0  0  0  0  0  0
  -16.0851  -29.4782   18.1422 C   0  0  0  0  0  0  0  0  0  0  0  0
  -20.6043  -26.9939   22.9704 C   0  0  0  0  0  0  0  0  0  0  0  0
  -31.7143  -19.5364   21.9776 C   0  0  0  0  0  0  0  0  0  0  0  0
  -30.5937  -17.1511   21.0626 C   0  0  0  0  0  0  0  0  0  0  0  0
  -30.3337  -19.4349   21.8067 C   0  0  0  0  0  0  0  0  0  0  0  0
  -22.2933   -9.0007   23.6019 C   0  0  0  0  0  0  0  0  0  0  0  0
  -22.3810  -25.3507   22.7386 C   0  0  0  0  0  0  0  0  0  0  0  0
  -21.6537   -6.7562   23.8767 C   0  0  0  0  0  0  0  0  0  0  0  0
  -21.8431   -4.0962   23.0577 C   0  0  0  0  0  0  0  0  0  0  0  0
  -32.5346  -18.4453   21.6910 C   0  0  0  0  0  0  0  0  0  0  0  0
  -20.5143   -6.0760   23.4470 C   0  0  0  0  0  0  0  0  0  0  0  0
  -24.5684  -11.8728   21.4869 C   0  0  0  0  0  0  0  0  0  0  0  0
  -25.2378  -13.6714   20.4137 C   0  0  0  0  0  0  0  0  0  0  0  0
  -22.8538  -13.7619   21.1599 C   0  0  0  0  0  0  0  0  0  0  0  0
  -18.3363  -28.4638   20.8911 C   0  0  0  0  0  0  0  0  0  0  0  0
  -25.5499  -23.4679   22.6634 C   0  0  0  0  0  0  0  0  0  0  0  0
  -18.1422  -29.7864   23.8467 C   0  0  0  0  0  0  0  0  0  0  0  0
  -28.0989  -20.5837   21.9735 C   0  0  0  0  0  0  0  0  0  0  0  0
  -19.3399  -29.9343   27.0389 C   0  0  0  0  0  0  0  0  0  0  0  0
  -30.6959  -14.7628   20.2675 C   0  0  0  0  0  0  0  0  0  0  0  0
  -15.6075  -31.9697   18.3771 C   0  0  0  0  0  0  0  0  0  0  0  0
  -18.2279  -26.4133   22.3538 C   0  0  0  0  0  0  0  0  0  0  0  0
  -20.1846  -28.3841   23.3698 C   0  0  0  0  0  0  0  0  0  0  0  0
  -16.7215  -31.9953   19.4204 C   0  0  0  0  0  0  0  0  0  0  0  0
  -29.6520  -11.5569   19.1231 C   0  0  0  0  0  0  0  0  0  0  0  0
  -17.8627  -31.0721   19.0056 C   0  0  0  0  0  0  0  0  0  0  0  0
  -28.2008  -11.4570   19.5987 C   0  0  0  0  0  0  0  0  0  0  0  0
  -30.5320  -12.2867   20.1364 C   0  0  0  0  0  0  0  0  0  0  0  0
  -28.5855  -13.5049   21.0288 C   0  0  0  0  0  0  0  0  0  0  0  0
  -17.3863  -29.6182   18.9022 C   0  0  1  0  0  0  0  0  0  0  0  0
  -17.9850  -27.9155   22.2452 C   0  0  1  0  0  0  0  0  0  0  0  0
  -27.6471  -12.8348   20.0119 C   0  0  2  0  0  0  0  0  0  0  0  0
  -32.4207  -21.8660   21.3772 C   0  0  0  0  0  0  0  0  0  0  0  0
  -19.0045  -31.1383   29.2149 C   0  0  0  0  0  0  0  0  0  0  0  0
  -19.5593  -32.2363   22.7067 C   0  0  0  0  0  0  0  0  0  0  0  0
  -20.0383  -32.9649   25.0536 C   0  0  0  0  0  0  0  0  0  0  0  0
  -17.6788  -32.7533   24.2722 C   0  0  0  0  0  0  0  0  0  0  0  0
  -18.6661  -27.4253   28.4567 C   0  0  0  0  0  0  0  0  0  0  0  0
  -32.3385  -20.8027   22.4678 C   0  0  0  0  0  0  0  0  0  0  0  0
  -26.0635  -22.0879   22.2794 C   0  0  0  0  0  0  0  0  0  0  0  0
  -24.0594  -23.6845   22.4887 C   0  0  0  0  0  0  0  0  0  1  0  0
  -27.5799  -21.9571   22.3843 C   0  0  0  0  0  0  0  0  0  0  0  0
  -19.0393  -30.6630   24.6867 C   0  0  1  0  0  0  0  0  0  0  0  0
  -18.6323  -29.9217   28.3819 C   0  0  2  0  0  0  0  0  0  0  0  0
  -19.0875  -32.1289   24.1705 C   0  0  0  0  0  0  0  0  0  0  0  0
  -25.8448  -11.6247   21.1818 N   0  0  0  0  0  0  0  0  0  0  0  0
  -26.2242  -12.7367   20.5295 N   0  0  0  0  0  0  0  0  0  0  0  0
  -18.7502  -28.6844   23.2288 N   0  0  0  0  0  0  0  0  0  0  0  0
  -29.9472  -13.5854   20.4773 N   0  0  0  0  0  0  0  0  0  0  0  0
  -25.4492  -14.8481   19.7867 N   0  0  0  0  0  0  0  0  0  0  0  0
  -21.8334  -13.0693   21.8257 N   0  0  0  0  0  0  0  0  0  0  0  0
  -29.4850  -20.5308   22.0919 N   0  0  0  0  0  0  0  0  0  0  0  0
  -30.0245  -15.9396   20.5978 N   0  0  0  0  0  0  0  0  0  0  0  0
  -17.2696  -29.0296   20.2191 N   0  0  0  0  0  0  0  0  0  0  0  0
  -18.5701  -30.5287   26.0615 N   0  0  0  0  0  0  0  0  0  0  0  0
  -18.9980  -28.6973   29.1487 N   0  3  0  0  0  0  0  0  0  0  0  0
  -22.6151  -14.8969   20.6823 O   0  0  0  0  0  0  0  0  0  0  0  0
  -19.4901  -28.3811   20.4865 O   0  0  0  0  0  0  0  0  0  0  0  0
  -26.2868  -24.3547   23.0917 O   0  0  0  0  0  0  0  0  0  0  0  0
  -16.9445  -30.0649   23.7483 O   0  0  0  0  0  0  0  0  0  0  0  0
  -27.3492  -19.6870   21.6022 O   0  0  0  0  0  0  0  0  0  0  0  0
  -20.4647  -29.4671   26.8743 O   0  0  0  0  0  0  0  0  0  0  0  0
  -31.8378  -14.7313   19.8018 O   0  0  0  0  0  0  0  0  0  0  0  0
  -21.5615   -8.0769   24.2828 O   0  0  0  0  0  0  0  0  0  0  0  0
  -23.6928  -25.0114   22.8646 O   0  0  0  0  0  0  0  0  0  1  0  0
  -21.9344   -2.8194   22.6630 F   0  0  0  0  0  0  0  0  0  0  0  0
  -33.8624  -18.5319   21.8534 F   0  0  0  0  0  0  0  0  0  0  0  0
  -19.3262   -6.6954   23.4242 F   0  0  0  0  0  0  0  0  0  0  0  0
  1  2  1  0  0  0  0
  1  5  2  0  0  0  0
  2  6  2  0  0  0  0
  3  8  2  0  0  0  0
  3 17  1  0  0  0  0
  4  9  1  0  0  0  0
  4 17  2  0  0  0  0
  5 19  1  0  0  0  0
  6 21  1  0  0  0  0
  7 10  2  0  0  0  0
  7 20  1  0  0  0  0
  8 26  1  0  0  0  0
  9 26  2  0  0  0  0
 10 27  1  0  0  0  0
 11 12  2  0  0  0  0
 11 28  1  0  0  0  0
 12 29  1  0  0  0  0
 13 22  1  0  0  0  0
 13 27  2  0  0  0  0
 14 24  2  0  0  0  0
 14 25  1  0  0  0  0
 15 24  1  0  0  0  0
 15 30  2  0  0  0  0
 16 29  2  0  0  0  0
 16 31  1  0  0  0  0
 17 32  1  0  0  0  0
 18 32  1  0  0  0  0
 18 33  2  0  0  0  0
 18 34  1  0  0  0  0
 19 21  2  0  0  0  0
 19 41  1  0  0  0  0
 20 22  2  0  0  0  0
 20 42  1  0  0  0  0
 21 50  1  0  0  0  0
 22 43  1  0  0  0  0
 23 25  2  0  0  0  0
 23 30  1  0  0  0  0
 23 59  1  0  0  0  0
 24 73  1  0  0  0  0
 25 72  1  0  0  0  0
 26 84  1  0  0  0  0
 27 85  1  0  0  0  0
 28 31  2  0  0  0  0
 28 84  1  0  0  0  0
 29 86  1  0  0  0  0
 30 87  1  0  0  0  0
 31 88  1  0  0  0  0
 32 66  2  0  0  0  0
 33 67  1  0  0  0  0
 33 70  1  0  0  0  0
 34 71  1  0  0  0  0
 34 77  2  0  0  0  0
 35 51  1  0  0  0  0
 35 74  1  0  0  0  0
 35 78  2  0  0  0  0
 36 60  1  0  0  0  0
 36 61  1  0  0  0  0
 36 79  2  0  0  0  0
 37 63  1  0  0  0  0
 37 68  1  0  0  0  0
 37 80  2  0  0  0  0
 38 62  1  0  0  0  0
 38 72  1  0  0  0  0
 38 81  2  0  0  0  0
 39 64  1  0  0  0  0
 39 75  1  0  0  0  0
 39 82  2  0  0  0  0
 40 69  1  0  0  0  0
 40 73  1  0  0  0  0
 40 83  2  0  0  0  0
 41 44  1  0  0  0  0
 42 51  1  0  0  0  0
 43 68  1  0  0  0  0
 44 46  1  0  0  0  0
 45 47  1  0  0  0  0
 45 48  1  0  0  0  0
 46 50  1  0  0  0  0
 47 52  1  0  0  0  0
 48 69  1  0  0  0  0
 49 52  1  0  0  0  0
 49 69  1  0  0  0  0
 50 74  1  0  0  0  0
 51 68  1  0  0  0  0
 52 67  1  0  0  0  0
 53 59  1  0  0  0  0
 54 64  1  0  0  0  0
 55 65  1  0  0  0  0
 56 65  1  0  0  0  0
 57 65  1  0  0  0  0
 58 76  1  0  0  0  0
 60 62  1  0  0  0  0
 61 85  1  0  0  0  0
 63 65  1  0  0  0  0
 63 75  1  0  0  0  0
 64 76  1  0  0  0  0
 66 67  1  0  0  0  0
M  CHG  1  76   1
M  ISO  4  40 100  61 101  73 100  85 101
M  END
> <Batch ID>
0165

> <Smiles>
CCc1c(F)cc([100NH:0][100C:0](=O)N2CCCC(n3nc(-c4ccc(Oc5ccc(F)cc5F)cc4)c(C(N)=O)c3N)C2)cc1NC(=O)CCC(=O)[101CH2:1][101O:1]c1ccc2c(c1)CN(C(=O)C(NC(=O)C(C)NC)C(C)(C)C)C(C(=O)NC1CCCc3ccccc31)C2

> <Shape>
0.243

> <Color>
0.162

> <Negative vol penalty>
0.000

$$$$

  -OEChem-04052304053D

 89 98  0     1  0  0  0  0  0999 V2000
  -26.6202  -37.0399   27.6489 C   0  0  0  0  0  0  0  0  0  0  0  0
  -27.5594  -36.4267   26.8260 C   0  0  0  0  0  0  0  0  0  0  0  0
  -24.3895   -9.5966   21.5828 C   0  0  0  0  0  0  0  0  0  0  0  0
  -24.7905  -10.7902   23.6448 C   0  0  0  0  0  0  0  0  0  0  0  0
  -25.3772  -36.4420   27.8524 C   0  0  0  0  0  0  0  0  0  0  0  0
  -27.2566  -35.2145   26.2069 C   0  0  0  0  0  0  0  0  0  0  0  0
  -29.7372  -21.1610   19.6021 C   0  0  0  0  0  0  0  0  0  0  0  0
  -27.5234  -21.2062   20.5685 C   0  0  0  0  0  0  0  0  0  0  0  0
  -28.5512  -31.5390   20.1960 C   0  0  0  0  0  0  0  0  0  0  0  0
  -29.7582  -19.7709   19.7152 C   0  0  0  0  0  0  0  0  0  0  0  0
  -27.5443  -19.8161   20.6816 C   0  0  0  0  0  0  0  0  0  0  0  0
  -24.0639   -8.4512   22.3091 C   0  0  0  0  0  0  0  0  0  0  0  0
  -24.4648   -9.6448   24.3711 C   0  0  0  0  0  0  0  0  0  0  0  0
  -28.9965  -30.2871   19.7738 C   0  0  0  0  0  0  0  0  0  0  0  0
  -21.4084   -7.2676   24.0356 C   0  0  0  0  0  0  0  0  0  0  0  0
  -20.2742   -6.5545   23.6475 C   0  0  0  0  0  0  0  0  0  0  0  0
  -26.7881  -29.3864   20.1353 C   0  0  0  0  0  0  0  0  0  0  0  0
  -21.6401   -4.6037   23.2401 C   0  0  0  0  0  0  0  0  0  0  0  0
  -24.7529  -10.7661   22.2506 C   0  0  0  0  0  0  0  0  0  0  0  0
  -24.2138  -12.9685   21.0816 C   0  0  0  0  0  0  0  0  0  0  0  0
  -28.6198  -21.8787   20.0288 C   0  0  0  0  0  0  0  0  0  0  0  0
  -25.0554  -35.2267   27.2278 C   0  0  0  0  0  0  0  0  0  0  0  0
  -27.2215  -31.7217   20.6020 C   0  0  0  0  0  0  0  0  0  0  0  0
  -26.0087  -34.5991   26.4033 C   0  0  0  0  0  0  0  0  0  0  0  0
  -26.3277  -30.6421   20.5597 C   0  0  0  0  0  0  0  0  0  0  0  0
  -28.6618  -19.0985   20.2549 C   0  0  0  0  0  0  0  0  0  0  0  0
  -24.1015   -8.4753   23.7033 C   0  0  0  0  0  0  0  0  0  0  0  0
  -28.1156  -29.2099   19.7461 C   0  0  0  0  0  0  0  0  0  0  0  0
  -22.6585   -6.6488   24.0260 C   0  0  0  0  0  0  0  0  0  0  0  0
  -20.3900   -5.2226   23.2498 C   0  0  0  0  0  0  0  0  0  0  0  0
  -22.7743   -5.3169   23.6283 C   0  0  0  0  0  0  0  0  0  0  0  0
  -25.0900  -11.9495   21.5009 C   0  0  0  0  0  0  0  0  0  0  0  0
  -25.0175  -13.8581   20.4114 C   0  0  0  0  0  0  0  0  0  0  0  0
  -22.7999  -13.0993   21.2803 C   0  0  0  0  0  0  0  0  0  0  0  0
  -25.8021  -32.5861   23.3117 C   0  0  0  0  0  0  0  0  0  0  0  0
  -23.1295  -32.5299   21.4742 C   0  0  0  0  0  0  0  0  0  0  0  0
  -21.5465  -31.3310   18.6987 C   0  0  0  0  0  0  0  0  0  0  0  0
  -29.7118  -16.8234   19.9943 C   0  0  0  0  0  0  0  0  0  0  0  0
  -23.7166  -34.5947   27.5156 C   0  0  0  0  0  0  0  0  0  0  0  0
  -26.7500  -33.0847   21.0294 C   0  0  0  0  0  0  0  0  0  0  0  0
  -24.8851  -30.7906   20.9661 C   0  0  0  0  0  0  0  0  0  0  0  0
  -23.3352  -33.4978   26.5249 C   0  0  0  0  0  0  0  0  0  0  0  0
  -29.8229  -13.4451   18.8752 C   0  0  0  0  0  0  0  0  0  0  0  0
  -24.5103  -32.5522   26.2970 C   0  0  0  0  0  0  0  0  0  0  0  0
  -28.5294  -12.8387   19.4241 C   0  0  0  0  0  0  0  0  0  0  0  0
  -29.4595  -23.9070   18.6783 C   0  0  0  0  0  0  0  0  0  0  0  0
  -29.5279  -25.4255   18.4907 C   0  0  0  0  0  0  0  0  0  0  0  0
  -29.2590  -25.6946   21.0001 C   0  0  0  0  0  0  0  0  0  0  0  0
  -30.4355  -14.4506   19.8486 C   0  0  0  0  0  0  0  0  0  0  0  0
  -28.2312  -14.9028   20.8515 C   0  0  0  0  0  0  0  0  0  0  0  0
  -25.7082  -33.2962   25.6945 C   0  0  1  0  0  0  0  0  0  0  0  0
  -25.5049  -33.0373   21.9096 C   0  0  1  0  0  0  0  0  0  0  0  0
  -27.5426  -13.9322   19.8782 C   0  0  2  0  0  0  0  0  0  0  0  0
  -28.5965  -23.4332   19.9024 C   0  0  2  0  0  0  0  0  0  0  0  0
  -29.1440  -24.1494   21.2220 C   0  0  0  0  0  0  0  0  0  0  0  0
  -30.0288  -26.1433   19.7460 C   0  0  2  0  0  0  0  0  0  0  0  0
  -27.1329  -23.8747   19.5777 C   0  0  0  0  0  0  0  0  0  0  0  0
  -28.2133  -23.9641   22.4493 C   0  0  0  0  0  0  0  0  0  0  0  0
  -30.5242  -23.5872   21.6537 C   0  0  0  0  0  0  0  0  0  0  0  0
  -19.3542  -31.4348   17.4821 C   0  0  0  0  0  0  0  0  0  0  0  0
  -21.8908  -30.6712   23.5527 C   0  0  0  0  0  0  0  0  0  0  0  0
  -20.1413  -30.0661   21.8671 C   0  0  0  0  0  0  0  0  0  0  0  0
  -20.3417  -32.4216   22.6635 C   0  0  0  0  0  0  0  0  0  0  0  0
  -22.8113  -32.4717   16.2784 C   0  0  0  0  0  0  0  0  0  0  0  0
  -32.0568  -26.8035   20.7331 C   0  0  0  0  0  0  0  0  0  0  0  0
  -29.9106  -27.6605   19.5635 C   0  0  0  0  0  0  0  0  0  1  0  0
  -22.1034  -31.4838   21.1114 C   0  0  1  0  0  0  0  0  0  0  0  0
  -20.7473  -32.0302   17.6139 C   0  0  2  0  0  0  0  0  0  0  0  0
  -21.1469  -31.1571   22.2928 C   0  0  0  0  0  0  0  0  0  0  0  0
  -26.3535  -12.1701   21.1280 N   0  0  0  0  0  0  0  0  0  0  0  0
  -26.2771  -13.3379   20.4674 N   0  0  0  0  0  0  0  0  0  0  0  0
  -24.4736  -32.1415   21.3823 N   0  0  0  0  0  0  0  0  0  0  0  0
  -29.4442  -15.4585   20.2313 N   0  0  0  0  0  0  0  0  0  0  0  0
  -24.7626  -15.0266   19.7854 N   0  0  0  0  0  0  0  0  0  0  0  0
  -22.1294  -12.0947   21.9914 N   0  0  0  0  0  0  0  0  0  0  0  0
  -28.6827  -17.6863   20.3697 N   0  0  0  0  0  0  0  0  0  0  0  0
  -25.5020  -33.5247   24.2804 N   0  0  0  0  0  0  0  0  0  0  0  0
  -21.4285  -31.9722   19.9137 N   0  0  0  0  0  0  0  0  0  0  0  0
  -21.4382  -31.9051   16.2994 N   0  3  0  0  0  0  0  0  0  0  0  0
  -22.1477  -14.0698   20.8263 O   0  0  0  0  0  0  0  0  0  0  0  0
  -26.2678  -31.4684   23.5007 O   0  0  0  0  0  0  0  0  0  0  0  0
  -22.7526  -33.6526   21.8193 O   0  0  0  0  0  0  0  0  0  0  0  0
  -22.2063  -30.3152   18.4900 O   0  0  0  0  0  0  0  0  0  0  0  0
  -30.7642  -17.1969   19.4700 O   0  0  0  0  0  0  0  0  0  0  0  0
  -23.7835   -7.3578   24.4124 O   0  0  0  0  0  0  0  0  0  0  0  0
  -28.5521  -27.9748   19.3311 O   0  0  0  0  0  0  0  0  0  1  0  0
  -31.4193  -25.8502   19.8987 O   0  0  0  0  0  0  0  0  0  0  0  0
  -19.3005   -4.5375   22.8785 F   0  0  0  0  0  0  0  0  0  0  0  0
  -23.9724   -4.7166   23.6181 F   0  0  0  0  0  0  0  0  0  0  0  0
  1  2  1  0  0  0  0
  1  5  2  0  0  0  0
  2  6  2  0  0  0  0
  3 12  2  0  0  0  0
  3 19  1  0  0  0  0
  4 13  1  0  0  0  0
  4 19  2  0  0  0  0
  5 22  1  0  0  0  0
  6 24  1  0  0  0  0
  7 10  2  0  0  0  0
  7 21  1  0  0  0  0
  8 11  1  0  0  0  0
  8 21  2  0  0  0  0
  9 14  2  0  0  0  0
  9 23  1  0  0  0  0
 10 26  1  0  0  0  0
 11 26  2  0  0  0  0
 12 27  1  0  0  0  0
 13 27  2  0  0  0  0
 14 28  1  0  0  0  0
 15 16  2  0  0  0  0
 15 29  1  0  0  0  0
 16 30  1  0  0  0  0
 17 25  1  0  0  0  0
 17 28  2  0  0  0  0
 18 30  2  0  0  0  0
 18 31  1  0  0  0  0
 19 32  1  0  0  0  0
 20 32  1  0  0  0  0
 20 33  2  0  0  0  0
 20 34  1  0  0  0  0
 21 54  1  0  0  0  0
 22 24  2  0  0  0  0
 22 39  1  0  0  0  0
 23 25  2  0  0  0  0
 23 40  1  0  0  0  0
 24 51  1  0  0  0  0
 25 41  1  0  0  0  0
 26 76  1  0  0  0  0
 27 85  1  0  0  0  0
 28 86  1  0  0  0  0
 29 31  2  0  0  0  0
 29 85  1  0  0  0  0
 30 88  1  0  0  0  0
 31 89  1  0  0  0  0
 32 70  2  0  0  0  0
 33 71  1  0  0  0  0
 33 74  1  0  0  0  0
 34 75  1  0  0  0  0
 34 80  2  0  0  0  0
 35 52  1  0  0  0  0
 35 77  1  0  0  0  0
 35 81  2  0  0  0  0
 36 67  1  0  0  0  0
 36 72  1  0  0  0  0
 36 82  2  0  0  0  0
 37 68  1  0  0  0  0
 37 78  1  0  0  0  0
 37 83  2  0  0  0  0
 38 73  1  0  0  0  0
 38 76  1  0  0  0  0
 38 84  2  0  0  0  0
 39 42  1  0  0  0  0
 40 52  1  0  0  0  0
 41 72  1  0  0  0  0
 42 44  1  0  0  0  0
 43 45  1  0  0  0  0
 43 49  1  0  0  0  0
 44 51  1  0  0  0  0
 45 53  1  0  0  0  0
 46 47  1  0  0  0  0
 46 54  1  0  0  0  0
 47 56  1  0  0  0  0
 48 55  1  0  0  0  0
 48 56  1  0  0  0  0
 49 73  1  0  0  0  0
 50 53  1  0  0  0  0
 50 73  1  0  0  0  0
 51 77  1  0  0  0  0
 52 72  1  0  0  0  0
 53 71  1  0  0  0  0
 54 55  1  0  0  0  0
 54 57  1  0  0  0  0
 55 58  1  0  0  0  0
 55 59  1  0  0  0  0
 56 66  1  0  0  0  0
 56 87  1  0  0  0  0
 60 68  1  0  0  0  0
 61 69  1  0  0  0  0
 62 69  1  0  0  0  0
 63 69  1  0  0  0  0
 64 79  1  0  0  0  0
 65 87  1  0  0  0  0
 66 86  1  0  0  0  0
 67 69  1  0  0  0  0
 67 78  1  0  0  0  0
 68 79  1  0  0  0  0
 70 71  1  0  0  0  0
M  CHG  1  79   1
M  ISO  4  38 100  66 101  76 100  86 101
M  END
> <Batch ID>
0165

> <Smiles>
CNC(C)C(=O)NC(C(=O)N1Cc2cc([101O:1][101CH2:1]C3(OC)CCC(C)(c4ccc([100NH:0][100C:0](=O)N5CCCC(n6nc(-c7ccc(Oc8ccc(F)cc8F)cc7)c(C(N)=O)c6N)C5)cc4)C(C)(C)C3)ccc2CC1C(=O)NC1CCCc2ccccc21)C(C)(C)C

> <Shape>
0.318

> <Color>
0.122

> <Negative vol penalty>
0.000

$$$$

  -OEChem-04052304053D

 90 98  0     1  0  0  0  0  0999 V2000
  -30.0961  -32.3356   24.8308 C   0  0  0  0  0  0  0  0  0  0  0  0
  -29.7975  -31.1422   24.1812 C   0  0  0  0  0  0  0  0  0  0  0  0
  -18.7016  -16.3458   25.2684 C   0  0  0  0  0  0  0  0  0  0  0  0
  -20.3212  -18.0710   24.7810 C   0  0  0  0  0  0  0  0  0  0  0  0
  -29.0882  -33.0434   25.4844 C   0  0  0  0  0  0  0  0  0  0  0  0
  -28.4909  -30.6552   24.1858 C   0  0  0  0  0  0  0  0  0  0  0  0
  -27.0116  -29.0189   19.6274 C   0  0  0  0  0  0  0  0  0  0  0  0
  -18.4896  -16.9013   26.5302 C   0  0  0  0  0  0  0  0  0  0  0  0
  -20.1092  -18.6266   26.0427 C   0  0  0  0  0  0  0  0  0  0  0  0
  -27.4693  -27.7663   19.2211 C   0  0  0  0  0  0  0  0  0  0  0  0
  -17.8039  -20.5904   27.5425 C   0  0  0  0  0  0  0  0  0  0  0  0
  -17.6558  -21.9750   27.6228 C   0  0  0  0  0  0  0  0  0  0  0  0
  -25.3515  -26.7958   19.8475 C   0  0  0  0  0  0  0  0  0  0  0  0
  -27.9068  -14.2560   20.5752 C   0  0  0  0  0  0  0  0  0  0  0  0
  -29.4311  -16.1303   20.5742 C   0  0  0  0  0  0  0  0  0  0  0  0
  -27.0473  -16.5120   20.4798 C   0  0  0  0  0  0  0  0  0  0  0  0
  -19.5811  -22.0966   29.0774 C   0  0  0  0  0  0  0  0  0  0  0  0
  -19.6174  -16.9306   24.3938 C   0  0  0  0  0  0  0  0  0  0  0  0
  -19.1519  -16.6642   21.8998 C   0  0  0  0  0  0  0  0  0  0  0  0
  -27.7667  -32.5697   25.4888 C   0  0  0  0  0  0  0  0  0  0  0  0
  -25.7220  -29.1678   20.1578 C   0  0  0  0  0  0  0  0  0  0  0  0
  -27.4646  -31.3566   24.8412 C   0  0  0  0  0  0  0  0  0  0  0  0
  -24.8788  -28.0519   20.2574 C   0  0  0  0  0  0  0  0  0  0  0  0
  -29.2095  -14.7536   20.6063 C   0  0  0  0  0  0  0  0  0  0  0  0
  -26.8257  -15.1352   20.5120 C   0  0  0  0  0  0  0  0  0  0  0  0
  -28.3500  -17.0096   20.5109 C   0  0  0  0  0  0  0  0  0  0  0  0
  -19.1934  -18.0417   26.9174 C   0  0  0  0  0  0  0  0  0  0  0  0
  -26.6404  -26.6540   19.3338 C   0  0  0  0  0  0  0  0  0  0  0  0
  -18.8405  -19.9588   28.2298 C   0  0  0  0  0  0  0  0  0  0  0  0
  -18.5444  -22.7281   28.3902 C   0  0  0  0  0  0  0  0  0  0  0  0
  -19.7291  -20.7119   28.9971 C   0  0  0  0  0  0  0  0  0  0  0  0
  -19.8372  -16.3569   23.0905 C   0  0  0  0  0  0  0  0  0  0  0  0
  -19.7298  -15.8551   20.9524 C   0  0  0  0  0  0  0  0  0  0  0  0
  -18.0879  -17.5977   21.6708 C   0  0  0  0  0  0  0  0  0  0  0  0
  -24.5419  -30.1111   22.9545 C   0  0  0  0  0  0  0  0  0  0  0  0
  -28.1105  -20.7543   20.3915 C   0  0  0  0  0  0  0  0  0  0  0  0
  -27.5622  -23.1607   19.6423 C   0  0  0  0  0  0  0  0  0  0  0  0
  -21.7048  -29.8520   21.4034 C   0  0  0  0  0  0  0  0  0  0  0  0
  -31.4241  -14.5343   18.5246 C   0  0  0  0  0  0  0  0  0  0  0  0
  -19.9094  -28.4489   18.8628 C   0  0  0  0  0  0  0  0  0  0  0  0
  -25.1088  -13.2916   20.5052 C   0  0  0  0  0  0  0  0  0  0  0  0
  -26.7201  -33.3453   26.2489 C   0  0  0  0  0  0  0  0  0  0  0  0
  -25.2336  -30.5304   20.5666 C   0  0  0  0  0  0  0  0  0  0  0  0
  -23.4786  -28.1619   20.8012 C   0  0  0  0  0  0  0  0  0  0  0  0
  -25.2896  -32.9527   25.8884 C   0  0  0  0  0  0  0  0  0  0  0  0
  -21.9544  -11.6405   20.4801 C   0  0  0  0  0  0  0  0  0  0  0  0
  -25.1425  -31.4346   25.8647 C   0  0  0  0  0  0  0  0  0  0  0  0
  -20.9901  -12.6926   21.0326 C   0  0  0  0  0  0  0  0  0  0  0  0
  -23.3169  -11.7029   21.1683 C   0  0  0  0  0  0  0  0  0  0  0  0
  -22.9860  -14.0799   21.7249 C   0  0  0  0  0  0  0  0  0  0  0  0
  -26.0546  -30.8085   24.8028 C   0  0  1  0  0  0  0  0  0  0  0  0
  -24.0860  -30.4775   21.5704 C   0  0  1  0  0  0  0  0  0  0  0  0
  -21.6212  -14.0987   21.0174 C   0  0  2  0  0  0  0  0  0  0  0  0
  -17.6042  -28.4007   17.8724 C   0  0  0  0  0  0  0  0  0  0  0  0
  -20.7659  -28.0531   23.6821 C   0  0  0  0  0  0  0  0  0  0  0  0
  -18.8865  -27.2916   22.2137 C   0  0  0  0  0  0  0  0  0  0  0  0
  -19.0573  -29.6910   22.8743 C   0  0  0  0  0  0  0  0  0  0  0  0
  -20.8730  -29.5148   16.2755 C   0  0  0  0  0  0  0  0  0  0  0  0
  -30.3654  -13.8136   20.6738 C   0  0  0  0  0  0  0  0  0  0  0  0
  -27.1054  -21.8887   20.3284 C   0  0  0  0  0  0  0  0  0  0  0  0
  -27.5176  -19.3597   20.4142 C   0  0  0  0  0  0  0  0  0  0  0  0
  -26.5558  -24.2949   19.6226 C   0  0  0  0  0  0  0  0  0  1  0  0
  -30.8938  -13.3830   19.2953 C   0  0  0  0  0  0  0  0  0  0  0  0
  -20.6965  -28.7476   21.1964 C   0  0  1  0  0  0  0  0  0  0  0  0
  -18.9748  -29.0584   17.8336 C   0  0  2  0  0  0  0  0  0  0  0  0
  -19.8786  -28.4431   22.4831 C   0  0  0  0  0  0  0  0  0  0  0  0
  -20.7785  -15.4252   22.9179 N   0  0  0  0  0  0  0  0  0  0  0  0
  -20.6887  -15.1399   21.6076 N   0  0  0  0  0  0  0  0  0  0  0  0
  -23.0493  -29.5145   21.1934 N   0  0  0  0  0  0  0  0  0  0  0  0
  -23.8551  -13.0637   21.1109 N   0  0  0  0  0  0  0  0  0  0  0  0
  -19.5063  -15.6926   19.6310 N   0  0  0  0  0  0  0  0  0  0  0  0
  -17.6131  -18.3487   22.7546 N   0  0  0  0  0  0  0  0  0  0  0  0
  -30.5994  -15.1555   17.6940 N   0  0  0  0  0  0  0  0  0  0  0  0
  -25.5026  -14.6291   20.4803 N   0  0  0  0  0  0  0  0  0  0  0  0
  -28.5709  -18.3790   20.4794 N   0  0  0  0  0  0  0  0  0  0  0  0
  -25.4824  -30.9741   23.4839 N   0  0  0  0  0  0  0  0  0  0  0  0
  -19.8839  -29.1461   20.0522 N   0  0  0  0  0  0  0  0  0  0  0  0
  -32.6925  -14.8681   18.7137 N   0  3  0  0  0  0  0  0  0  0  0  0
  -19.5361  -28.8945   16.4628 N   0  3  0  0  0  0  0  0  0  0  0  0
  -17.5625  -17.7491   20.5418 O   0  0  0  0  0  0  0  0  0  0  0  0
  -24.0740  -29.1198   23.5021 O   0  0  0  0  0  0  0  0  0  0  0  0
  -29.3224  -20.9543   20.4603 O   0  0  0  0  0  0  0  0  0  0  0  0
  -28.6614  -23.2644   19.1004 O   0  0  0  0  0  0  0  0  0  0  0  0
  -21.3132  -30.9746   21.7322 O   0  0  0  0  0  0  0  0  0  0  0  0
  -20.5909  -27.4516   18.6358 O   0  0  0  0  0  0  0  0  0  0  0  0
  -25.7712  -12.3717   20.0184 O   0  0  0  0  0  0  0  0  0  0  0  0
  -18.9866  -18.5842   28.1484 O   0  0  0  0  0  0  0  0  0  0  0  0
  -27.0849  -25.4300   18.9386 O   0  0  0  0  0  0  0  0  0  1  0  0
  -18.4031  -24.0580   28.4659 F   0  0  0  0  0  0  0  0  0  0  0  0
  -20.7276  -20.1109   29.6586 F   0  0  0  0  0  0  0  0  0  0  0  0
  1  2  1  0  0  0  0
  1  5  2  0  0  0  0
  2  6  2  0  0  0  0
  3  8  2  0  0  0  0
  3 18  1  0  0  0  0
  4  9  1  0  0  0  0
  4 18  2  0  0  0  0
  5 20  1  0  0  0  0
  6 22  1  0  0  0  0
  7 10  2  0  0  0  0
  7 21  1  0  0  0  0
  8 27  1  0  0  0  0
  9 27  2  0  0  0  0
 10 28  1  0  0  0  0
 11 12  2  0  0  0  0
 11 29  1  0  0  0  0
 12 30  1  0  0  0  0
 13 23  1  0  0  0  0
 13 28  2  0  0  0  0
 14 24  1  0  0  0  0
 14 25  2  0  0  0  0
 15 24  2  0  0  0  0
 15 26  1  0  0  0  0
 16 25  1  0  0  0  0
 16 26  2  0  0  0  0
 17 30  2  0  0  0  0
 17 31  1  0  0  0  0
 18 32  1  0  0  0  0
 19 32  1  0  0  0  0
 19 33  2  0  0  0  0
 19 34  1  0  0  0  0
 20 22  2  0  0  0  0
 20 42  1  0  0  0  0
 21 23  2  0  0  0  0
 21 43  1  0  0  0  0
 22 51  1  0  0  0  0
 23 44  1  0  0  0  0
 24 59  1  0  0  0  0
 25 74  1  0  0  0  0
 26 75  1  0  0  0  0
 27 87  1  0  0  0  0
 28 88  1  0  0  0  0
 29 31  2  0  0  0  0
 29 87  1  0  0  0  0
 30 89  1  0  0  0  0
 31 90  1  0  0  0  0
 32 67  2  0  0  0  0
 33 68  1  0  0  0  0
 33 71  1  0  0  0  0
 34 72  1  0  0  0  0
 34 80  2  0  0  0  0
 35 52  1  0  0  0  0
 35 76  1  0  0  0  0
 35 81  2  0  0  0  0
 36 60  1  0  0  0  0
 36 61  1  0  0  0  0
 36 82  2  0  0  0  0
 37 60  1  0  0  0  0
 37 62  1  0  0  0  0
 37 83  2  0  0  0  0
 38 64  1  0  0  0  0
 38 69  1  0  0  0  0
 38 84  2  0  0  0  0
 39 63  1  0  0  0  0
 39 73  1  0  0  0  0
 39 78  2  0  0  0  0
 40 65  1  0  0  0  0
 40 77  1  0  0  0  0
 40 85  2  0  0  0  0
 41 70  1  0  0  0  0
 41 74  1  0  0  0  0
 41 86  2  0  0  0  0
 42 45  1  0  0  0  0
 43 52  1  0  0  0  0
 44 69  1  0  0  0  0
 45 47  1  0  0  0  0
 46 48  1  0  0  0  0
 46 49  1  0  0  0  0
 47 51  1  0  0  0  0
 48 53  1  0  0  0  0
 49 70  1  0  0  0  0
 50 53  1  0  0  0  0
 50 70  1  0  0  0  0
 51 76  1  0  0  0  0
 52 69  1  0  0  0  0
 53 68  1  0  0  0  0
 54 65  1  0  0  0  0
 55 66  1  0  0  0  0
 56 66  1  0  0  0  0
 57 66  1  0  0  0  0
 58 79  1  0  0  0  0
 59 63  1  0  0  0  0
 61 75  1  0  0  0  0
 62 88  1  0  0  0  0
 64 66  1  0  0  0  0
 64 77  1  0  0  0  0
 65 79  1  0  0  0  0
 67 68  1  0  0  0  0
M  CHG  2  78   1  79   1
M  ISO  4  41 100  62 101  74 100  88 101
M  END
> <Batch ID>
0165

> <Smiles>
CNC(C)C(=O)NC(C(=O)N1Cc2cc([101O:1][101CH2:1]C(=O)CC(=O)CNc3cc(CCC(=N)N)cc([100NH:0][100C:0](=O)N4CCCC(n5nc(-c6ccc(Oc7ccc(F)cc7F)cc6)c(C(N)=O)c5N)C4)c3)ccc2CC1C(=O)NC1CCCc2ccccc21)C(C)(C)C

> <Shape>
0.265

> <Color>
0.077

> <Negative vol penalty>
0.000

$$$$

  -OEChem-04052304053D

 88 96  0     1  0  0  0  0  0999 V2000
  -32.1957  -13.6033   21.4260 C   0  0  0  0  0  0  0  0  0  0  0  0
  -31.5903  -14.8486   21.5611 C   0  0  0  0  0  0  0  0  0  0  0  0
  -26.6247  -25.2662   21.6201 C   0  0  0  0  0  0  0  0  0  0  0  0
  -27.0014  -27.0118   19.9927 C   0  0  0  0  0  0  0  0  0  0  0  0
  -31.5297  -12.5740   20.7621 C   0  0  0  0  0  0  0  0  0  0  0  0
  -30.3189  -15.0655   21.0313 C   0  0  0  0  0  0  0  0  0  0  0  0
  -24.3138  -18.7709   22.2666 C   0  0  0  0  0  0  0  0  0  0  0  0
  -26.4245  -24.3483   20.5891 C   0  0  0  0  0  0  0  0  0  0  0  0
  -26.8012  -26.0938   18.9618 C   0  0  0  0  0  0  0  0  0  0  0  0
  -23.4368  -19.6453   21.6263 C   0  0  0  0  0  0  0  0  0  0  0  0
  -26.1703  -21.4682   18.3856 C   0  0  0  0  0  0  0  0  0  0  0  0
  -26.7931  -20.2249   18.4942 C   0  0  0  0  0  0  0  0  0  0  0  0
  -19.6679  -25.2542   22.5169 C   0  0  0  0  0  0  0  0  0  0  0  0
  -22.3487  -17.7700   20.5688 C   0  0  0  0  0  0  0  0  0  0  0  0
  -28.9505  -21.3109   18.5534 C   0  0  0  0  0  0  0  0  0  0  0  0
  -21.2518  -25.2617   20.7427 C   0  0  0  0  0  0  0  0  0  0  0  0
  -26.9132  -26.5980   21.3219 C   0  0  0  0  0  0  0  0  0  0  0  0
  -19.7321  -26.6430   22.5394 C   0  0  0  0  0  0  0  0  0  0  0  0
  -28.3380  -27.8690   23.0137 C   0  0  0  0  0  0  0  0  0  0  0  0
  -30.2454  -12.7756   20.2323 C   0  0  0  0  0  0  0  0  0  0  0  0
  -24.2217  -17.3879   22.0540 C   0  0  0  0  0  0  0  0  0  0  0  0
  -29.6355  -14.0383   20.3585 C   0  0  0  0  0  0  0  0  0  0  0  0
  -23.2241  -16.8800   21.2096 C   0  0  0  0  0  0  0  0  0  0  0  0
  -20.4390  -24.5429   21.6044 C   0  0  0  0  0  0  0  0  0  0  0  0
  -26.5127  -24.7621   19.2600 C   0  0  0  0  0  0  0  0  0  0  0  0
  -22.4559  -19.1451   20.7750 C   0  0  0  0  0  0  0  0  0  0  0  0
  -26.9375  -22.6329   18.3608 C   0  0  0  0  0  0  0  0  0  0  0  0
  -28.1832  -20.1463   18.5781 C   0  0  0  0  0  0  0  0  0  0  0  0
  -28.3276  -22.5542   18.4448 C   0  0  0  0  0  0  0  0  0  0  0  0
  -27.1196  -27.5468   22.3864 C   0  0  0  0  0  0  0  0  0  0  0  0
  -20.5767  -27.2678   21.6360 C   0  0  0  0  0  0  0  0  0  0  0  0
  -28.0022  -28.8158   23.9503 C   0  0  0  0  0  0  0  0  0  0  0  0
  -18.9274  -27.3923   23.4921 C   0  0  0  0  0  0  0  0  0  0  0  0
  -29.6555  -27.3581   22.7713 C   0  0  0  0  0  0  0  0  0  0  0  0
  -20.7111  -28.7309   21.5852 C   0  0  0  0  0  0  0  0  0  0  0  0
  -26.1522  -15.1707   20.8454 C   0  0  0  0  0  0  0  0  0  0  0  0
  -23.8121  -13.1523   21.8315 C   0  0  0  0  0  0  0  0  0  0  0  0
  -20.5272  -12.6985   22.6379 C   0  0  0  0  0  0  0  0  0  0  0  0
  -21.1091  -22.2861   20.7118 C   0  0  0  0  0  0  0  0  0  0  0  0
  -22.5993  -28.8221   23.2469 C   0  0  0  0  0  0  0  0  0  0  0  0
  -29.5844  -11.6468   19.4816 C   0  0  0  0  0  0  0  0  0  0  0  0
  -25.1582  -16.4561   22.7730 C   0  0  0  0  0  0  0  0  0  0  0  0
  -23.0702  -15.4021   20.9636 C   0  0  0  0  0  0  0  0  0  0  0  0
  -28.0851  -11.8474   19.2764 C   0  0  0  0  0  0  0  0  0  0  0  0
  -24.4166  -32.0419   24.2498 C   0  0  0  0  0  0  0  0  0  0  0  0
  -27.7980  -13.2634   18.7873 C   0  0  0  0  0  0  0  0  0  0  0  0
  -25.7618  -31.3580   24.0347 C   0  0  0  0  0  0  0  0  0  0  0  0
  -23.2985  -31.2270   23.6047 C   0  0  0  0  0  0  0  0  0  0  0  0
  -24.3674  -29.3672   24.8792 C   0  0  0  0  0  0  0  0  0  0  0  0
  -28.2471  -14.3052   19.8190 C   0  0  1  0  0  0  0  0  0  0  0  0
  -25.3020  -15.1033   22.0825 C   0  0  1  0  0  0  0  0  0  0  0  0
  -25.7797  -29.9391   24.6398 C   0  0  1  0  0  0  0  0  0  0  0  0
  -17.6188  -26.7924   23.9168 C   0  0  0  0  0  0  0  0  0  0  0  0
  -18.9048  -10.9296   23.3700 C   0  0  0  0  0  0  0  0  0  0  0  0
  -19.3148  -20.5140   20.6978 C   0  0  0  0  0  0  0  0  0  0  0  0
  -23.7500  -12.0374   18.9920 C   0  0  0  0  0  0  0  0  0  0  0  0
  -21.5363  -10.9958   19.5240 C   0  0  0  0  0  0  0  0  0  0  0  0
  -23.5716  -10.3125   20.7941 C   0  0  0  0  0  0  0  0  0  0  0  0
  -19.8517  -30.8052   20.5350 C   0  0  0  0  0  0  0  0  0  0  0  0
  -19.9301  -14.1263   25.1605 C   0  0  0  0  0  0  0  0  0  0  0  0
  -22.5553  -12.5892   21.2133 C   0  0  1  0  0  0  0  0  0  0  0  0
  -19.8656  -12.0181   23.8226 C   0  0  2  0  0  0  0  0  0  0  0  0
  -20.7790  -20.8195   20.9770 C   0  0  1  0  0  0  0  0  0  1  0  0
  -22.8572  -11.5118   20.1337 C   0  0  0  0  0  0  0  0  0  0  0  0
  -21.3408  -26.6107   20.7349 N   0  0  0  0  0  0  0  0  0  0  0  0
  -26.0868  -28.2332   22.8828 N   0  0  0  0  0  0  0  0  0  0  0  0
  -26.6555  -28.9959   23.8320 N   0  0  0  0  0  0  0  0  0  0  0  0
  -24.0138  -14.5320   21.6847 N   0  0  0  0  0  0  0  0  0  0  0  0
  -23.4013  -29.7864   23.8637 N   0  0  0  0  0  0  0  0  0  0  0  0
  -28.7305  -29.5034   24.8554 N   0  0  0  0  0  0  0  0  0  0  0  0
  -29.8233  -26.3895   21.7723 N   0  0  0  0  0  0  0  0  0  0  0  0
  -20.3952  -23.1292   21.5571 N   0  0  0  0  0  0  0  0  0  0  0  0
  -21.6283  -29.3770   22.3224 N   0  0  0  0  0  0  0  0  0  0  0  0
  -27.2904  -14.3892   20.9018 N   0  0  0  0  0  0  0  0  0  0  0  0
  -21.7341  -12.1119   22.3206 N   0  0  0  0  0  0  0  0  0  0  0  0
  -19.8756  -29.3550   20.7423 N   0  3  0  0  0  0  0  0  0  0  0  0
  -19.1034  -13.0113   24.6311 N   0  3  0  0  0  0  0  0  0  0  0  0
  -19.2369  -28.4842   23.9729 O   0  0  0  0  0  0  0  0  0  0  0  0
  -30.6519  -27.7369   23.4326 O   0  0  0  0  0  0  0  0  0  0  0  0
  -25.8007  -15.8781   19.9085 O   0  0  0  0  0  0  0  0  0  0  0  0
  -24.5829  -12.3970   22.4291 O   0  0  0  0  0  0  0  0  0  0  0  0
  -20.0221  -13.6524   22.0501 O   0  0  0  0  0  0  0  0  0  0  0  0
  -21.9260  -22.6096   19.8544 O   0  0  0  0  0  0  0  0  0  0  0  0
  -22.6607  -27.6138   23.4415 O   0  0  0  0  0  0  0  0  0  0  0  0
  -26.3176  -23.8666   18.2537 O   0  0  0  0  0  0  0  0  0  0  0  0
  -21.5990  -19.9965   20.1483 O   0  0  0  0  0  0  0  0  0  1  0  0
  -28.7812  -18.9523   18.6840 F   0  0  0  0  0  0  0  0  0  0  0  0
  -29.0699  -23.6697   18.4227 F   0  0  0  0  0  0  0  0  0  0  0  0
  1  2  1  0  0  0  0
  1  5  2  0  0  0  0
  2  6  2  0  0  0  0
  3  8  2  0  0  0  0
  3 17  1  0  0  0  0
  4  9  1  0  0  0  0
  4 17  2  0  0  0  0
  5 20  1  0  0  0  0
  6 22  1  0  0  0  0
  7 10  2  0  0  0  0
  7 21  1  0  0  0  0
  8 25  1  0  0  0  0
  9 25  2  0  0  0  0
 10 26  1  0  0  0  0
 11 12  2  0  0  0  0
 11 27  1  0  0  0  0
 12 28  1  0  0  0  0
 13 18  1  0  0  0  0
 13 24  2  0  0  0  0
 14 23  1  0  0  0  0
 14 26  2  0  0  0  0
 15 28  2  0  0  0  0
 15 29  1  0  0  0  0
 16 24  1  0  0  0  0
 16 65  2  0  0  0  0
 17 30  1  0  0  0  0
 18 31  2  0  0  0  0
 18 33  1  0  0  0  0
 19 30  1  0  0  0  0
 19 32  2  0  0  0  0
 19 34  1  0  0  0  0
 20 22  2  0  0  0  0
 20 41  1  0  0  0  0
 21 23  2  0  0  0  0
 21 42  1  0  0  0  0
 22 50  1  0  0  0  0
 23 43  1  0  0  0  0
 24 72  1  0  0  0  0
 25 85  1  0  0  0  0
 26 86  1  0  0  0  0
 27 29  2  0  0  0  0
 27 85  1  0  0  0  0
 28 87  1  0  0  0  0
 29 88  1  0  0  0  0
 30 66  2  0  0  0  0
 31 35  1  0  0  0  0
 31 65  1  0  0  0  0
 32 67  1  0  0  0  0
 32 70  1  0  0  0  0
 33 53  1  0  0  0  0
 33 78  2  0  0  0  0
 34 71  1  0  0  0  0
 34 79  2  0  0  0  0
 35 73  1  0  0  0  0
 35 76  2  0  0  0  0
 36 51  1  0  0  0  0
 36 74  1  0  0  0  0
 36 80  2  0  0  0  0
 37 61  1  0  0  0  0
 37 68  1  0  0  0  0
 37 81  2  0  0  0  0
 38 62  1  0  0  0  0
 38 75  1  0  0  0  0
 38 82  2  0  0  0  0
 39 63  1  0  0  0  0
 39 72  1  0  0  0  0
 39 83  2  0  0  0  0
 40 69  1  0  0  0  0
 40 73  1  0  0  0  0
 40 84  2  0  0  0  0
 41 44  1  0  0  0  0
 42 51  1  0  0  0  0
 43 68  1  0  0  0  0
 44 46  1  0  0  0  0
 45 47  1  0  0  0  0
 45 48  1  0  0  0  0
 46 50  1  0  0  0  0
 47 52  1  0  0  0  0
 48 69  1  0  0  0  0
 49 52  1  0  0  0  0
 49 69  1  0  0  0  0
 50 74  1  0  0  0  0
 51 68  1  0  0  0  0
 52 67  1  0  0  0  0
 54 62  1  0  0  0  0
 55 63  1  0  0  0  0
 56 64  1  0  0  0  0
 57 64  1  0  0  0  0
 58 64  1  0  0  0  0
 59 76  1  0  0  0  0
 60 77  1  0  0  0  0
 61 64  1  0  0  0  0
 61 75  1  0  0  0  0
 62 77  1  0  0  0  0
 63 86  1  0  0  0  0
 66 67  1  0  0  0  0
M  CHG  2  76   1  77   1
M  ISO  4  40 100  63 101  73 100  86 101
M  END
> <Batch ID>
0165

> <Smiles>
CN=C([100NH:0][100C:0](=O)N1CCCC(n2nc(-c3ccc(Oc4ccc(F)cc4F)cc3)c(C(N)=O)c2N)C1)c1ncc(NC(=O)[101CH:1](C)[101O:1]c2ccc3c(c2)CN(C(=O)C(NC(=O)C(C)NC)C(C)(C)C)C(C(=O)NC2CCCc4ccccc42)C3)cc1C(C)=O

> <Shape>
0.243

> <Color>
0.053

> <Negative vol penalty>
0.000

$$$$

  -OEChem-04052304053D

 90 99  0     1  0  0  0  0  0999 V2000
  -23.8469  -34.4821   13.9500 C   0  0  0  0  0  0  0  0  0  0  0  0
  -25.0818  -34.1060   14.4685 C   0  0  0  0  0  0  0  0  0  0  0  0
  -23.3632  -10.1241   22.2294 C   0  0  0  0  0  0  0  0  0  0  0  0
  -23.6863   -9.4514   19.9315 C   0  0  0  0  0  0  0  0  0  0  0  0
  -22.7761  -34.7253   14.8093 C   0  0  0  0  0  0  0  0  0  0  0  0
  -25.2471  -33.9740   15.8468 C   0  0  0  0  0  0  0  0  0  0  0  0
  -32.0948  -18.8163   22.0274 C   0  0  0  0  0  0  0  0  0  0  0  0
  -30.0130  -19.1389   23.2102 C   0  0  0  0  0  0  0  0  0  0  0  0
  -27.7152  -27.8519   20.0247 C   0  0  0  0  0  0  0  0  0  0  0  0
  -31.6462  -17.5751   21.5762 C   0  0  0  0  0  0  0  0  0  0  0  0
  -29.5643  -17.8976   22.7589 C   0  0  0  0  0  0  0  0  0  0  0  0
  -22.6616   -8.9441   22.4762 C   0  0  0  0  0  0  0  0  0  0  0  0
  -22.9847   -8.2714   20.1783 C   0  0  0  0  0  0  0  0  0  0  0  0
  -27.9870  -26.7869   20.8838 C   0  0  0  0  0  0  0  0  0  0  0  0
  -19.5549   -7.7321   21.9245 C   0  0  0  0  0  0  0  0  0  0  0  0
  -18.3660   -7.8251   22.6479 C   0  0  0  0  0  0  0  0  0  0  0  0
  -26.6456  -27.8222   22.6091 C   0  0  0  0  0  0  0  0  0  0  0  0
  -19.2830   -6.3676   24.3426 C   0  0  0  0  0  0  0  0  0  0  0  0
  -23.8755  -10.3778   20.9570 C   0  0  0  0  0  0  0  0  0  0  0  0
  -24.1222  -12.9141   20.8378 C   0  0  0  0  0  0  0  0  0  0  0  0
  -31.2782  -19.5982   22.8445 C   0  0  0  0  0  0  0  0  0  0  0  0
  -22.9257  -34.5868   16.1982 C   0  0  0  0  0  0  0  0  0  0  0  0
  -26.8940  -28.8999   20.4498 C   0  0  0  0  0  0  0  0  0  0  0  0
  -24.1777  -34.2169   16.7256 C   0  0  0  0  0  0  0  0  0  0  0  0
  -26.3597  -28.8856   21.7487 C   0  0  0  0  0  0  0  0  0  0  0  0
  -30.3809  -17.1157   21.9419 C   0  0  0  0  0  0  0  0  0  0  0  0
  -22.4724   -8.0177   21.4507 C   0  0  0  0  0  0  0  0  0  0  0  0
  -27.4537  -26.7722   22.1728 C   0  0  0  0  0  0  0  0  0  0  0  0
  -20.6080   -6.9567   22.4101 C   0  0  0  0  0  0  0  0  0  0  0  0
  -18.2300   -7.1429   23.8569 C   0  0  0  0  0  0  0  0  0  0  0  0
  -20.4720   -6.2746   23.6192 C   0  0  0  0  0  0  0  0  0  0  0  0
  -24.5998  -11.5968   20.7013 C   0  0  0  0  0  0  0  0  0  0  0  0
  -25.1863  -13.7042   20.4775 C   0  0  0  0  0  0  0  0  0  0  0  0
  -29.0243  -25.4741   23.3220 C   0  0  0  0  0  0  0  0  0  1  0  0
  -22.8321  -13.3816   21.2533 C   0  0  0  0  0  0  0  0  0  0  0  0
  -29.4031  -24.4782   24.1265 C   0  0  0  0  0  0  0  0  0  0  0  0
  -30.8463  -24.3115   24.3907 C   0  0  0  0  0  0  0  0  0  0  0  0
  -25.2458  -32.1628   19.6052 C   0  0  0  0  0  0  0  0  0  0  0  0
  -23.2073  -30.5231   21.2072 C   0  0  0  0  0  0  0  0  0  0  0  0
  -21.1146  -28.2372   22.6330 C   0  0  0  0  0  0  0  0  0  0  0  0
  -30.6087  -14.9550   20.6668 C   0  0  0  0  0  0  0  0  0  0  0  0
  -21.7523  -34.9064   17.0901 C   0  0  0  0  0  0  0  0  0  0  0  0
  -26.6245  -30.0975   19.5798 C   0  0  0  0  0  0  0  0  0  0  0  0
  -25.5098  -30.0514   22.1749 C   0  0  0  0  0  0  0  0  0  0  0  0
  -21.9089  -34.3802   18.5145 C   0  0  0  0  0  0  0  0  0  0  0  0
  -29.5925  -12.5011   18.2956 C   0  0  0  0  0  0  0  0  0  0  0  0
  -33.5778  -22.0882   24.7749 C   0  0  0  0  0  0  0  0  0  0  0  0
  -23.2969  -34.7086   19.0554 C   0  0  0  0  0  0  0  0  0  0  0  0
  -28.1637  -12.1555   18.7213 C   0  0  0  0  0  0  0  0  0  0  0  0
  -33.0615  -20.7772   24.1735 C   0  0  0  0  0  0  0  0  0  0  0  0
  -32.4806  -22.8475   25.5116 C   0  0  0  0  0  0  0  0  0  0  0  0
  -30.4951  -12.7642   19.4997 C   0  0  0  0  0  0  0  0  0  0  0  0
  -28.5585  -13.4161   20.8758 C   0  0  0  0  0  0  0  0  0  0  0  0
  -30.7336  -21.7653   24.1531 C   0  0  0  0  0  0  0  0  0  0  0  0
  -24.3897  -34.0391   18.2134 C   0  0  1  0  0  0  0  0  0  0  0  0
  -25.2082  -30.6713   19.7647 C   0  0  1  0  0  0  0  0  0  0  0  0
  -27.5960  -13.2064   19.6954 C   0  0  2  0  0  0  0  0  0  0  0  0
  -31.7701  -20.9586   23.3391 C   0  0  2  0  0  0  0  0  0  0  0  0
  -18.7594  -27.9672   23.4562 C   0  0  0  0  0  0  0  0  0  0  0  0
  -23.8969  -32.1407   23.6995 C   0  0  0  0  0  0  0  0  0  0  0  0
  -21.9492  -31.0668   24.8490 C   0  0  0  0  0  0  0  0  0  0  0  0
  -21.5763  -32.4924   22.8362 C   0  0  0  0  0  0  0  0  0  0  0  0
  -20.5630  -26.0687   20.6960 C   0  0  0  0  0  0  0  0  0  0  0  0
  -30.9259  -21.8926   21.3420 C   0  0  0  0  0  0  0  0  0  0  0  0
  -22.6212  -30.2068   22.5599 C   0  0  1  0  0  0  0  0  0  0  0  0
  -19.7047  -27.8020   22.2764 C   0  0  2  0  0  0  0  0  0  0  0  0
  -22.5316  -31.4608   23.4748 C   0  0  0  0  0  0  0  0  0  0  0  0
  -25.8685  -11.5488   20.2864 N   0  0  0  0  0  0  0  0  0  0  0  0
  -26.1971  -12.8457   20.1591 N   0  0  0  0  0  0  0  0  0  0  0  0
  -31.3145  -23.0255   24.6472 N   0  0  0  0  0  0  0  0  0  0  0  0
  -24.5992  -30.4344   21.0846 N   0  0  0  0  0  0  0  0  0  0  0  0
  -29.8953  -13.7731   20.3756 N   0  0  0  0  0  0  0  0  0  0  0  0
  -25.3466  -15.0426   20.4050 N   0  0  0  0  0  0  0  0  0  0  0  0
  -21.8543  -12.4349   21.5879 N   0  0  0  0  0  0  0  0  0  0  0  0
  -29.9248  -15.8550   21.4835 N   0  0  0  0  0  0  0  0  0  0  0  0
  -24.4944  -32.6345   18.5458 N   0  0  0  0  0  0  0  0  0  0  0  0
  -21.3389  -29.5583   22.3077 N   0  0  0  0  0  0  0  0  0  0  0  0
  -19.6937  -26.3704   21.8622 N   0  3  0  0  0  0  0  0  0  0  0  0
  -22.5495  -14.6024   21.3100 O   0  0  0  0  0  0  0  0  0  0  0  0
  -31.5513  -25.3217   24.3615 O   0  0  0  0  0  0  0  0  0  0  0  0
  -25.9064  -32.8374   20.3864 O   0  0  0  0  0  0  0  0  0  0  0  0
  -22.4542  -30.8458   20.2841 O   0  0  0  0  0  0  0  0  0  0  0  0
  -21.9337  -27.4820   23.1518 O   0  0  0  0  0  0  0  0  0  0  0  0
  -31.7319  -15.1662   20.2022 O   0  0  0  0  0  0  0  0  0  0  0  0
  -28.5058  -23.6153   24.7095 O   0  0  0  0  0  0  0  0  0  0  0  0
  -21.7880   -6.8660   21.6912 O   0  0  0  0  0  0  0  0  0  0  0  0
  -27.7193  -25.7272   23.0047 O   0  0  0  0  0  0  0  0  0  1  0  0
  -32.0720  -21.7285   22.1648 O   0  0  0  0  0  0  0  0  0  0  0  0
  -17.0888   -7.2336   24.5523 F   0  0  0  0  0  0  0  0  0  0  0  0
  -21.4806   -5.5291   24.0914 F   0  0  0  0  0  0  0  0  0  0  0  0
  1  2  1  0  0  0  0
  1  5  2  0  0  0  0
  2  6  2  0  0  0  0
  3 12  2  0  0  0  0
  3 19  1  0  0  0  0
  4 13  1  0  0  0  0
  4 19  2  0  0  0  0
  5 22  1  0  0  0  0
  6 24  1  0  0  0  0
  7 10  2  0  0  0  0
  7 21  1  0  0  0  0
  8 11  1  0  0  0  0
  8 21  2  0  0  0  0
  9 14  2  0  0  0  0
  9 23  1  0  0  0  0
 10 26  1  0  0  0  0
 11 26  2  0  0  0  0
 12 27  1  0  0  0  0
 13 27  2  0  0  0  0
 14 28  1  0  0  0  0
 15 16  2  0  0  0  0
 15 29  1  0  0  0  0
 16 30  1  0  0  0  0
 17 25  1  0  0  0  0
 17 28  2  0  0  0  0
 18 30  2  0  0  0  0
 18 31  1  0  0  0  0
 19 32  1  0  0  0  0
 20 32  1  0  0  0  0
 20 33  2  0  0  0  0
 20 35  1  0  0  0  0
 21 58  1  0  0  0  0
 22 24  2  0  0  0  0
 22 42  1  0  0  0  0
 23 25  2  0  0  0  0
 23 43  1  0  0  0  0
 24 55  1  0  0  0  0
 25 44  1  0  0  0  0
 26 75  1  0  0  0  0
 27 86  1  0  0  0  0
 28 87  1  0  0  0  0
 29 31  2  0  0  0  0
 29 86  1  0  0  0  0
 30 89  1  0  0  0  0
 31 90  1  0  0  0  0
 32 68  2  0  0  0  0
 33 69  1  0  0  0  0
 33 73  1  0  0  0  0
 34 36  2  0  0  0  0
 34 87  1  0  0  0  0
 35 74  1  0  0  0  0
 35 79  2  0  0  0  0
 36 37  1  0  0  0  0
 36 85  1  0  0  0  0
 37 70  1  0  0  0  0
 37 80  2  0  0  0  0
 38 56  1  0  0  0  0
 38 76  1  0  0  0  0
 38 81  2  0  0  0  0
 39 65  1  0  0  0  0
 39 71  1  0  0  0  0
 39 82  2  0  0  0  0
 40 66  1  0  0  0  0
 40 77  1  0  0  0  0
 40 83  2  0  0  0  0
 41 72  1  0  0  0  0
 41 75  1  0  0  0  0
 41 84  2  0  0  0  0
 42 45  1  0  0  0  0
 43 56  1  0  0  0  0
 44 71  1  0  0  0  0
 45 48  1  0  0  0  0
 46 49  1  0  0  0  0
 46 52  1  0  0  0  0
 47 50  1  0  0  0  0
 47 51  1  0  0  0  0
 48 55  1  0  0  0  0
 49 57  1  0  0  0  0
 50 58  1  0  0  0  0
 51 70  1  0  0  0  0
 52 72  1  0  0  0  0
 53 57  1  0  0  0  0
 53 72  1  0  0  0  0
 54 58  1  0  0  0  0
 54 70  1  0  0  0  0
 55 76  1  0  0  0  0
 56 71  1  0  0  0  0
 57 69  1  0  0  0  0
 58 88  1  0  0  0  0
 59 66  1  0  0  0  0
 60 67  1  0  0  0  0
 61 67  1  0  0  0  0
 62 67  1  0  0  0  0
 63 78  1  0  0  0  0
 64 88  1  0  0  0  0
 65 67  1  0  0  0  0
 65 77  1  0  0  0  0
 66 78  1  0  0  0  0
 68 69  1  0  0  0  0
M  CHG  1  78   1
M  ISO  4  34 101  41 100  75 100  87 101
M  END
> <Batch ID>
0165

> <Smiles>
CNC(C)C(=O)NC(C(=O)N1Cc2cc([101O:1][101CH2:1]C(=O)C(=O)N3CCCC(OC)(c4ccc([100NH:0][100C:0](=O)N5CCCC(n6nc(-c7ccc(Oc8ccc(F)cc8F)cc7)c(C(N)=O)c6N)C5)cc4)C3)ccc2CC1C(=O)NC1CCCc2ccccc21)C(C)(C)C

> <Shape>
0.283

> <Color>
0.211

> <Negative vol penalty>
0.000

$$$$

  -OEChem-04052304053D

 84 92  0     1  0  0  0  0  0999 V2000
  -31.8715  -27.6945   14.9982 C   0  0  0  0  0  0  0  0  0  0  0  0
  -31.1696  -26.8677   15.8695 C   0  0  0  0  0  0  0  0  0  0  0  0
  -23.7667   -9.1616   20.6750 C   0  0  0  0  0  0  0  0  0  0  0  0
  -23.3340  -11.0968   22.0553 C   0  0  0  0  0  0  0  0  0  0  0  0
  -32.1822  -29.0001   15.3762 C   0  0  0  0  0  0  0  0  0  0  0  0
  -30.7788  -27.3457   17.1198 C   0  0  0  0  0  0  0  0  0  0  0  0
  -25.9971  -26.1270   18.2578 C   0  0  0  0  0  0  0  0  0  0  0  0
  -23.0303   -8.3690   21.5553 C   0  0  0  0  0  0  0  0  0  0  0  0
  -22.5975  -10.3041   22.9356 C   0  0  0  0  0  0  0  0  0  0  0  0
  -25.7579  -24.8231   18.6895 C   0  0  0  0  0  0  0  0  0  0  0  0
  -19.7735   -7.7353   22.2070 C   0  0  0  0  0  0  0  0  0  0  0  0
  -18.8611   -6.8337   21.6590 C   0  0  0  0  0  0  0  0  0  0  0  0
  -30.4694  -18.8950   23.2898 C   0  0  0  0  0  0  0  0  0  0  0  0
  -25.7150  -25.5941   20.9749 C   0  0  0  0  0  0  0  0  0  0  0  0
  -28.8980  -17.1502   22.7694 C   0  0  0  0  0  0  0  0  0  0  0  0
  -20.0461   -5.0028   22.6987 C   0  0  0  0  0  0  0  0  0  0  0  0
  -31.4225  -18.1705   22.5924 C   0  0  0  0  0  0  0  0  0  0  0  0
  -23.9187  -10.5255   20.9250 C   0  0  0  0  0  0  0  0  0  0  0  0
  -24.1976  -12.0398   18.8911 C   0  0  0  0  0  0  0  0  0  0  0  0
  -31.7865  -29.4975   16.6279 C   0  0  0  0  0  0  0  0  0  0  0  0
  -26.1082  -27.1743   19.1837 C   0  0  0  0  0  0  0  0  0  0  0  0
  -31.0856  -28.6588   17.5154 C   0  0  0  0  0  0  0  0  0  0  0  0
  -25.9532  -26.9108   20.5521 C   0  0  0  0  0  0  0  0  0  0  0  0
  -29.1855  -18.3682   23.3753 C   0  0  0  0  0  0  0  0  0  0  0  0
  -22.4456   -8.9403   22.6856 C   0  0  0  0  0  0  0  0  0  0  0  0
  -25.6197  -24.5560   20.0484 C   0  0  0  0  0  0  0  0  0  0  0  0
  -20.8222   -7.2707   23.0008 C   0  0  0  0  0  0  0  0  0  0  0  0
  -18.9974   -5.4674   21.9049 C   0  0  0  0  0  0  0  0  0  0  0  0
  -20.9585   -5.9045   23.2467 C   0  0  0  0  0  0  0  0  0  0  0  0
  -24.6798  -11.3447   20.0163 C   0  0  0  0  0  0  0  0  0  0  0  0
  -29.9215  -16.5038   22.0952 C   0  0  0  0  0  0  0  0  0  0  0  0
  -25.3064  -12.6605   18.3698 C   0  0  0  0  0  0  0  0  0  0  0  0
  -26.2958  -22.7108   21.3168 C   0  0  0  0  0  0  0  0  0  1  0  0
  -22.8664  -12.1174   18.3641 C   0  0  0  0  0  0  0  0  0  0  0  0
  -26.2391  -21.4753   21.8380 C   0  0  0  0  0  0  0  0  0  0  0  0
  -27.3483  -21.0458   22.7486 C   0  0  0  0  0  0  0  0  0  0  0  0
  -28.4058  -29.2143   19.9979 C   0  0  0  0  0  0  0  0  0  0  0  0
  -26.0654  -30.5141   21.8297 C   0  0  0  0  0  0  0  0  0  0  0  0
  -23.1076  -30.0939   23.4794 C   0  0  0  0  0  0  0  0  0  0  0  0
  -30.4855  -14.4458   20.7563 C   0  0  0  0  0  0  0  0  0  0  0  0
  -32.1864  -30.9004   17.0110 C   0  0  0  0  0  0  0  0  0  0  0  0
  -26.3398  -28.5795   18.6999 C   0  0  0  0  0  0  0  0  0  0  0  0
  -26.0436  -28.0031   21.5852 C   0  0  0  0  0  0  0  0  0  0  0  0
  -31.4095  -31.4508   18.2042 C   0  0  0  0  0  0  0  0  0  0  0  0
  -30.0600  -12.1805   18.0425 C   0  0  0  0  0  0  0  0  0  0  0  0
  -31.3520  -30.4186   19.3259 C   0  0  0  0  0  0  0  0  0  0  0  0
  -28.5866  -11.7771   18.1346 C   0  0  0  0  0  0  0  0  0  0  0  0
  -30.6870  -12.3577   19.4242 C   0  0  0  0  0  0  0  0  0  0  0  0
  -28.4885  -12.8610   20.4155 C   0  0  0  0  0  0  0  0  0  0  0  0
  -30.6227  -29.1489   18.8703 C   0  0  1  0  0  0  0  0  0  0  0  0
  -26.9463  -29.4862   19.7664 C   0  0  1  0  0  0  0  0  0  0  0  0
  -27.7964  -12.7340   19.0486 C   0  0  2  0  0  0  0  0  0  0  0  0
  -21.4618  -31.3267   24.9178 C   0  0  0  0  0  0  0  0  0  0  0  0
  -27.9610  -30.2651   24.2076 C   0  0  0  0  0  0  0  0  0  0  0  0
  -25.9945  -30.5978   25.7210 C   0  0  0  0  0  0  0  0  0  0  0  0
  -26.6602  -32.3997   24.1295 C   0  0  0  0  0  0  0  0  0  0  0  0
  -20.9303  -29.7208   21.5098 C   0  0  0  0  0  0  0  0  0  0  0  0
  -28.1142  -19.1120   24.1191 C   0  0  0  0  0  0  0  0  0  0  0  0
  -25.5680  -30.3006   23.2389 C   0  0  1  0  0  0  0  0  0  0  0  0
  -21.8384  -30.9266   23.4998 C   0  0  2  0  0  0  0  0  0  0  0  0
  -26.5461  -30.8697   24.3052 C   0  0  0  0  0  0  0  0  0  0  0  0
  -31.1808  -16.9842   21.9907 N   0  0  0  0  0  0  0  0  0  0  0  0
  -25.9927  -11.5081   20.1997 N   0  0  0  0  0  0  0  0  0  0  0  0
  -26.3449  -12.3128   19.1827 N   0  0  0  0  0  0  0  0  0  0  0  0
  -26.2775  -29.3596   21.0629 N   0  0  0  0  0  0  0  0  0  0  0  0
  -29.8868  -13.2804   20.2325 N   0  0  0  0  0  0  0  0  0  0  0  0
  -25.4846  -13.4644   17.3000 N   0  0  0  0  0  0  0  0  0  0  0  0
  -21.8454  -11.4185   19.0225 N   0  0  0  0  0  0  0  0  0  0  0  0
  -29.6188  -15.2633   21.4809 N   0  0  0  0  0  0  0  0  0  0  0  0
  -27.1807  -19.7561   23.2226 N   0  0  0  0  0  0  0  0  0  0  0  0
  -29.1911  -29.3607   18.8704 N   0  0  0  0  0  0  0  0  0  0  0  0
  -24.2280  -30.8750   23.2903 N   0  0  0  0  0  0  0  0  0  0  0  0
  -20.7052  -30.1580   22.9116 N   0  3  0  0  0  0  0  0  0  0  0  0
  -22.5935  -12.7733   17.3303 O   0  0  0  0  0  0  0  0  0  0  0  0
  -28.2899  -21.7835   23.0260 O   0  0  0  0  0  0  0  0  0  0  0  0
  -28.7911  -28.8966   21.1170 O   0  0  0  0  0  0  0  0  0  0  0  0
  -26.2518  -31.6632   21.4218 O   0  0  0  0  0  0  0  0  0  0  0  0
  -23.1056  -28.8730   23.6210 O   0  0  0  0  0  0  0  0  0  0  0  0
  -31.6724  -14.7134   20.5525 O   0  0  0  0  0  0  0  0  0  0  0  0
  -25.2261  -20.5747   21.5917 O   0  0  0  0  0  0  0  0  0  0  0  0
  -21.7267   -8.1672   23.5447 O   0  0  0  0  0  0  0  0  0  0  0  0
  -25.3868  -23.2841   20.4726 O   0  0  0  0  0  0  0  0  0  1  0  0
  -18.1203   -4.6018   21.3799 F   0  0  0  0  0  0  0  0  0  0  0  0
  -21.9632   -5.4522   24.0094 F   0  0  0  0  0  0  0  0  0  0  0  0
  1  2  1  0  0  0  0
  1  5  2  0  0  0  0
  2  6  2  0  0  0  0
  3  8  2  0  0  0  0
  3 18  1  0  0  0  0
  4  9  1  0  0  0  0
  4 18  2  0  0  0  0
  5 20  1  0  0  0  0
  6 22  1  0  0  0  0
  7 10  2  0  0  0  0
  7 21  1  0  0  0  0
  8 25  1  0  0  0  0
  9 25  2  0  0  0  0
 10 26  1  0  0  0  0
 11 12  2  0  0  0  0
 11 27  1  0  0  0  0
 12 28  1  0  0  0  0
 13 17  2  0  0  0  0
 13 24  1  0  0  0  0
 14 23  1  0  0  0  0
 14 26  2  0  0  0  0
 15 24  2  0  0  0  0
 15 31  1  0  0  0  0
 16 28  2  0  0  0  0
 16 29  1  0  0  0  0
 17 62  1  0  0  0  0
 18 30  1  0  0  0  0
 19 30  1  0  0  0  0
 19 32  2  0  0  0  0
 19 34  1  0  0  0  0
 20 22  2  0  0  0  0
 20 41  1  0  0  0  0
 21 23  2  0  0  0  0
 21 42  1  0  0  0  0
 22 50  1  0  0  0  0
 23 43  1  0  0  0  0
 24 58  1  0  0  0  0
 25 81  1  0  0  0  0
 26 82  1  0  0  0  0
 27 29  2  0  0  0  0
 27 81  1  0  0  0  0
 28 83  1  0  0  0  0
 29 84  1  0  0  0  0
 30 63  2  0  0  0  0
 31 62  2  0  0  0  0
 31 69  1  0  0  0  0
 32 64  1  0  0  0  0
 32 67  1  0  0  0  0
 33 35  2  0  0  0  0
 33 82  1  0  0  0  0
 34 68  1  0  0  0  0
 34 74  2  0  0  0  0
 35 36  1  0  0  0  0
 35 80  1  0  0  0  0
 36 70  1  0  0  0  0
 36 75  2  0  0  0  0
 37 51  1  0  0  0  0
 37 71  1  0  0  0  0
 37 76  2  0  0  0  0
 38 59  1  0  0  0  0
 38 65  1  0  0  0  0
 38 77  2  0  0  0  0
 39 60  1  0  0  0  0
 39 72  1  0  0  0  0
 39 78  2  0  0  0  0
 40 66  1  0  0  0  0
 40 69  1  0  0  0  0
 40 79  2  0  0  0  0
 41 44  1  0  0  0  0
 42 51  1  0  0  0  0
 43 65  1  0  0  0  0
 44 46  1  0  0  0  0
 45 47  1  0  0  0  0
 45 48  1  0  0  0  0
 46 50  1  0  0  0  0
 47 52  1  0  0  0  0
 48 66  1  0  0  0  0
 49 52  1  0  0  0  0
 49 66  1  0  0  0  0
 50 71  1  0  0  0  0
 51 65  1  0  0  0  0
 52 64  1  0  0  0  0
 53 60  1  0  0  0  0
 54 61  1  0  0  0  0
 55 61  1  0  0  0  0
 56 61  1  0  0  0  0
 57 73  1  0  0  0  0
 58 70  1  0  0  0  0
 59 61  1  0  0  0  0
 59 72  1  0  0  0  0
 60 73  1  0  0  0  0
 63 64  1  0  0  0  0
M  CHG  1  73   1
M  ISO  4  33 101  40 100  69 100  82 101
M  END
> <Batch ID>
0165

> <Smiles>
CNC(C)C(=O)NC(C(=O)N1Cc2cc([101O:1][101CH2:1]C(=O)C(=O)NCc3ccnc([100NH:0][100C:0](=O)N4CCCC(n5nc(-c6ccc(Oc7ccc(F)cc7F)cc6)c(C(N)=O)c5N)C4)c3)ccc2CC1C(=O)NC1CCCc2ccccc21)C(C)(C)C

> <Shape>
0.253

> <Color>
0.104

> <Negative vol penalty>
0.000

$$$$

  -OEChem-04052304053D

 83 92  0     1  0  0  0  0  0999 V2000
  -29.0687  -36.5281   23.5296 C   0  0  0  0  0  0  0  0  0  0  0  0
  -29.2636  -35.1676   23.3137 C   0  0  0  0  0  0  0  0  0  0  0  0
  -24.5205   -7.6876   19.8829 C   0  0  0  0  0  0  0  0  0  0  0  0
  -22.8794   -9.4359   19.5871 C   0  0  0  0  0  0  0  0  0  0  0  0
  -27.8041  -37.0040   23.8733 C   0  0  0  0  0  0  0  0  0  0  0  0
  -28.1941  -34.2822   23.4425 C   0  0  0  0  0  0  0  0  0  0  0  0
  -27.2006  -29.2076   20.1611 C   0  0  0  0  0  0  0  0  0  0  0  0
  -23.5708   -6.9078   20.5430 C   0  0  0  0  0  0  0  0  0  0  0  0
  -21.9297   -8.6560   20.2471 C   0  0  0  0  0  0  0  0  0  0  0  0
  -27.4512  -27.8604   20.4180 C   0  0  0  0  0  0  0  0  0  0  0  0
  -22.1859   -6.7460   23.6220 C   0  0  0  0  0  0  0  0  0  0  0  0
  -22.5777   -6.1064   24.7980 C   0  0  0  0  0  0  0  0  0  0  0  0
  -25.1801  -27.5904   21.1851 C   0  0  0  0  0  0  0  0  0  0  0  0
  -27.0927  -18.3756   20.3361 C   0  0  0  0  0  0  0  0  0  0  0  0
  -22.0704   -3.9645   23.8021 C   0  0  0  0  0  0  0  0  0  0  0  0
  -25.1165  -17.5827   19.6712 C   0  0  0  0  0  0  0  0  0  0  0  0
  -24.1748   -8.9517   19.4050 C   0  0  0  0  0  0  0  0  0  0  0  0
  -25.4271   -9.7795   17.3425 C   0  0  0  0  0  0  0  0  0  0  0  0
  -26.7164  -36.1251   23.9969 C   0  0  0  0  0  0  0  0  0  0  0  0
  -25.9389  -29.7598   20.4249 C   0  0  0  0  0  0  0  0  0  0  0  0
  -26.9140  -34.7466   23.7894 C   0  0  0  0  0  0  0  0  0  0  0  0
  -24.9153  -28.9443   20.9282 C   0  0  0  0  0  0  0  0  0  0  0  0
  -26.3820  -17.1884   20.0384 C   0  0  0  0  0  0  0  0  0  0  0  0
  -22.2754   -7.3920   20.7251 C   0  0  0  0  0  0  0  0  0  0  0  0
  -26.4417  -27.0522   20.9328 C   0  0  0  0  0  0  0  0  0  0  0  0
  -21.7363   -5.9948   22.5360 C   0  0  0  0  0  0  0  0  0  0  0  0
  -22.5200   -4.7156   24.8880 C   0  0  0  0  0  0  0  0  0  0  0  0
  -21.6786   -4.6041   22.6260 C   0  0  0  0  0  0  0  0  0  0  0  0
  -25.1555   -9.7579   18.7236 C   0  0  0  0  0  0  0  0  0  0  0  0
  -26.2108  -19.4108   20.1293 C   0  0  0  0  0  0  0  0  0  0  0  0
  -26.4344  -10.7030   17.2050 C   0  0  0  0  0  0  0  0  0  0  0  0
  -27.0924  -23.0288   19.0802 C   0  0  0  0  0  0  0  0  0  0  0  0
  -27.3339  -23.6227   20.2617 C   0  0  0  0  0  0  0  0  0  0  0  0
  -24.8228   -9.0316   16.2789 C   0  0  0  0  0  0  0  0  0  0  0  0
  -24.8476  -32.0447   22.3464 C   0  0  0  0  0  0  0  0  0  0  0  0
  -22.0590  -31.4840   20.7871 C   0  0  0  0  0  0  0  0  0  0  0  0
  -20.1333  -29.3208   18.9818 C   0  0  0  0  0  0  0  0  0  0  0  0
  -28.1227  -15.4179   20.4645 C   0  0  0  0  0  0  0  0  0  0  0  0
  -25.3784  -36.6804   24.4166 C   0  0  0  0  0  0  0  0  0  0  0  0
  -25.6768  -31.2086   20.1172 C   0  0  0  0  0  0  0  0  0  0  0  0
  -23.5376  -29.4838   21.2097 C   0  0  0  0  0  0  0  0  0  0  0  0
  -26.7349  -21.5779   18.9320 C   0  0  0  0  0  0  0  0  0  0  0  0
  -27.2982  -22.8597   21.5624 C   0  0  0  0  0  0  0  0  0  0  0  0
  -24.2160  -35.7232   24.1661 C   0  0  0  0  0  0  0  0  0  0  0  0
  -27.2940  -21.3377   21.3830 C   0  0  0  0  0  0  0  0  0  0  0  0
  -30.1235  -12.6040   19.5948 C   0  0  0  0  0  0  0  0  0  0  0  0
  -24.5651  -34.3205   24.6535 C   0  0  0  0  0  0  0  0  0  0  0  0
  -29.1017  -11.5589   19.1412 C   0  0  0  0  0  0  0  0  0  0  0  0
  -29.5994  -13.4412   20.7602 C   0  0  0  0  0  0  0  0  0  0  0  0
  -27.2684  -13.0222   20.0819 C   0  0  0  0  0  0  0  0  0  0  0  0
  -25.7734  -33.7578   23.8953 C   0  0  1  0  0  0  0  0  0  0  0  0
  -26.3289  -20.9175   20.2636 C   0  0  2  0  0  0  0  0  0  0  0  0
  -24.5054  -31.7847   20.9066 C   0  0  1  0  0  0  0  0  0  0  0  0
  -27.7259  -12.1976   18.8676 C   0  0  2  0  0  0  0  0  0  0  0  0
  -17.8865  -29.1326   17.8800 C   0  0  0  0  0  0  0  0  0  0  0  0
  -20.7549  -31.0958   23.5182 C   0  0  0  0  0  0  0  0  0  0  0  0
  -18.8214  -30.0034   22.3621 C   0  0  0  0  0  0  0  0  0  0  0  0
  -19.3770  -32.3867   21.8782 C   0  0  0  0  0  0  0  0  0  0  0  0
  -21.3468  -28.9208   16.3123 C   0  0  0  0  0  0  0  0  0  0  0  0
  -27.6513  -25.0854   20.3631 C   0  0  0  0  0  0  0  0  0  1  0  0
  -20.8846  -30.5587   20.9961 C   0  0  1  0  0  0  0  0  0  0  0  0
  -19.3496  -29.5035   17.6946 C   0  0  2  0  0  0  0  0  0  0  0  0
  -19.9859  -31.0012   22.1853 C   0  0  0  0  0  0  0  0  0  0  0  0
  -25.9280  -10.6007   19.4143 N   0  0  0  0  0  0  0  0  0  0  0  0
  -26.6950  -11.1604   18.4632 N   0  0  0  0  0  0  0  0  0  0  0  0
  -23.3325  -30.9080   20.8981 N   0  0  0  0  0  0  0  0  0  0  0  0
  -28.2950  -14.0180   20.4273 N   0  0  0  0  0  0  0  0  0  0  0  0
  -27.1139  -11.1602   16.1319 N   0  0  0  0  0  0  0  0  0  0  0  0
  -23.8016   -8.1255   16.5955 N   0  0  0  0  0  0  0  0  0  0  0  0
  -26.8495  -15.8521   20.0971 N   0  0  0  0  0  0  0  0  0  0  0  0
  -25.3767  -33.2995   22.5811 N   0  0  0  0  0  0  0  0  0  0  0  0
  -20.1888  -30.4867   19.7158 N   0  0  0  0  0  0  0  0  0  0  0  0
  -19.9185  -28.6470   16.6158 N   0  3  0  0  0  0  0  0  0  0  0  0
  -25.1893   -9.1510   15.0851 O   0  0  0  0  0  0  0  0  0  0  0  0
  -24.6453  -31.1721   23.1826 O   0  0  0  0  0  0  0  0  0  0  0  0
  -21.8539  -32.6723   20.5275 O   0  0  0  0  0  0  0  0  0  0  0  0
  -20.6419  -28.2498   19.3057 O   0  0  0  0  0  0  0  0  0  0  0  0
  -29.0452  -16.1773   20.7714 O   0  0  0  0  0  0  0  0  0  0  0  0
  -25.0039  -18.9358   19.7239 O   0  0  0  0  0  0  0  0  0  0  0  0
  -21.3484   -6.6313   21.3689 O   0  0  0  0  0  0  0  0  0  0  0  0
  -26.6839  -25.7371   21.1851 O   0  0  0  0  0  0  0  0  0  1  0  0
  -22.8977   -4.1015   26.0169 F   0  0  0  0  0  0  0  0  0  0  0  0
  -21.2486   -3.8770   21.5857 F   0  0  0  0  0  0  0  0  0  0  0  0
  1  2  1  0  0  0  0
  1  5  2  0  0  0  0
  2  6  2  0  0  0  0
  3  8  2  0  0  0  0
  3 17  1  0  0  0  0
  4  9  1  0  0  0  0
  4 17  2  0  0  0  0
  5 19  1  0  0  0  0
  6 21  1  0  0  0  0
  7 10  2  0  0  0  0
  7 20  1  0  0  0  0
  8 24  1  0  0  0  0
  9 24  2  0  0  0  0
 10 25  1  0  0  0  0
 11 12  2  0  0  0  0
 11 26  1  0  0  0  0
 12 27  1  0  0  0  0
 13 22  1  0  0  0  0
 13 25  2  0  0  0  0
 14 23  1  0  0  0  0
 14 30  2  0  0  0  0
 15 27  2  0  0  0  0
 15 28  1  0  0  0  0
 16 23  2  0  0  0  0
 16 79  1  0  0  0  0
 17 29  1  0  0  0  0
 18 29  1  0  0  0  0
 18 31  2  0  0  0  0
 18 34  1  0  0  0  0
 19 21  2  0  0  0  0
 19 39  1  0  0  0  0
 20 22  2  0  0  0  0
 20 40  1  0  0  0  0
 21 51  1  0  0  0  0
 22 41  1  0  0  0  0
 23 70  1  0  0  0  0
 24 80  1  0  0  0  0
 25 81  1  0  0  0  0
 26 28  2  0  0  0  0
 26 80  1  0  0  0  0
 27 82  1  0  0  0  0
 28 83  1  0  0  0  0
 29 64  2  0  0  0  0
 30 52  1  0  0  0  0
 30 79  1  0  0  0  0
 31 65  1  0  0  0  0
 31 68  1  0  0  0  0
 32 33  2  0  0  0  0
 32 42  1  0  0  0  0
 33 43  1  0  0  0  0
 33 60  1  0  0  0  0
 34 69  1  0  0  0  0
 34 74  2  0  0  0  0
 35 53  1  0  0  0  0
 35 71  1  0  0  0  0
 35 75  2  0  0  0  0
 36 61  1  0  0  0  0
 36 66  1  0  0  0  0
 36 76  2  0  0  0  0
 37 62  1  0  0  0  0
 37 72  1  0  0  0  0
 37 77  2  0  0  0  0
 38 67  1  0  0  0  0
 38 70  1  0  0  0  0
 38 78  2  0  0  0  0
 39 44  1  0  0  0  0
 40 53  1  0  0  0  0
 41 66  1  0  0  0  0
 42 52  1  0  0  0  0
 43 45  1  0  0  0  0
 44 47  1  0  0  0  0
 45 52  1  0  0  0  0
 46 48  1  0  0  0  0
 46 49  1  0  0  0  0
 47 51  1  0  0  0  0
 48 54  1  0  0  0  0
 49 67  1  0  0  0  0
 50 54  1  0  0  0  0
 50 67  1  0  0  0  0
 51 71  1  0  0  0  0
 53 66  1  0  0  0  0
 54 65  1  0  0  0  0
 55 62  1  0  0  0  0
 56 63  1  0  0  0  0
 57 63  1  0  0  0  0
 58 63  1  0  0  0  0
 59 73  1  0  0  0  0
 60 81  1  0  0  0  0
 61 63  1  0  0  0  0
 61 72  1  0  0  0  0
 62 73  1  0  0  0  0
 64 65  1  0  0  0  0
M  CHG  1  73   1
M  ISO  4  38 100  60 101  70 100  81 101
M  END
> <Batch ID>
0165

> <Smiles>
CNC(C)C(=O)NC(C(=O)N1Cc2cc([101O:1][101CH2:1]C3=CCC(c4cc([100NH:0][100C:0](=O)N5CCCC(n6nc(-c7ccc(Oc8ccc(F)cc8F)cc7)c(C(N)=O)c6N)C5)co4)CC3)ccc2CC1C(=O)NC1CCCc2ccccc21)C(C)(C)C

> <Shape>
0.252

> <Color>
0.086

> <Negative vol penalty>
0.000

$$$$

  -OEChem-04052304053D

 86 95  0     1  0  0  0  0  0999 V2000
  -24.4419  -38.0873   17.7896 C   0  0  0  0  0  0  0  0  0  0  0  0
  -25.4448  -37.3689   18.4328 C   0  0  0  0  0  0  0  0  0  0  0  0
  -23.3675   -9.2942   19.7244 C   0  0  0  0  0  0  0  0  0  0  0  0
  -24.4502   -9.0756   21.8731 C   0  0  0  0  0  0  0  0  0  0  0  0
  -23.1105  -37.9122   18.1646 C   0  0  0  0  0  0  0  0  0  0  0  0
  -25.1168  -36.4756   19.4521 C   0  0  0  0  0  0  0  0  0  0  0  0
  -26.8596  -29.5023   18.9749 C   0  0  0  0  0  0  0  0  0  0  0  0
  -22.2780   -8.5639   20.1991 C   0  0  0  0  0  0  0  0  0  0  0  0
  -23.3607   -8.3454   22.3478 C   0  0  0  0  0  0  0  0  0  0  0  0
  -27.3436  -28.1963   19.0534 C   0  0  0  0  0  0  0  0  0  0  0  0
  -22.1892   -5.1825   22.1137 C   0  0  0  0  0  0  0  0  0  0  0  0
  -22.4542   -4.0234   22.8429 C   0  0  0  0  0  0  0  0  0  0  0  0
  -26.1905  -27.8840   21.1560 C   0  0  0  0  0  0  0  0  0  0  0  0
  -21.2897   -4.9535   24.7445 C   0  0  0  0  0  0  0  0  0  0  0  0
  -24.6637  -17.8282   18.1099 C   0  0  0  0  0  0  0  0  0  0  0  0
  -24.4537   -9.5500   20.5614 C   0  0  0  0  0  0  0  0  0  0  0  0
  -26.4151   -9.9759   18.9869 C   0  0  0  0  0  0  0  0  0  0  0  0
  -22.7652  -37.0092   19.1824 C   0  0  0  0  0  0  0  0  0  0  0  0
  -26.0257  -29.9996   19.9802 C   0  0  0  0  0  0  0  0  0  0  0  0
  -23.7796  -36.2892   19.8419 C   0  0  0  0  0  0  0  0  0  0  0  0
  -25.6925  -29.1872   21.0765 C   0  0  0  0  0  0  0  0  0  0  0  0
  -22.2746   -8.0895   21.5108 C   0  0  0  0  0  0  0  0  0  0  0  0
  -27.0100  -27.3892   20.1414 C   0  0  0  0  0  0  0  0  0  0  0  0
  -21.4745   -6.2272   22.6999 C   0  0  0  0  0  0  0  0  0  0  0  0
  -22.0044   -3.9089   24.1583 C   0  0  0  0  0  0  0  0  0  0  0  0
  -21.0248   -6.1127   24.0153 C   0  0  0  0  0  0  0  0  0  0  0  0
  -25.5796  -10.3039   20.0715 C   0  0  0  0  0  0  0  0  0  0  0  0
  -25.6807  -17.8762   19.0402 C   0  0  0  0  0  0  0  0  0  0  0  0
  -27.3246  -11.0036   18.9312 C   0  0  0  0  0  0  0  0  0  0  0  0
  -25.6536  -19.9942   18.4718 C   0  0  0  0  0  0  0  0  0  0  0  0
  -26.3728   -8.8437   18.1084 C   0  0  0  0  0  0  0  0  0  0  0  0
  -28.5255  -23.5118   20.2176 C   0  0  0  0  0  0  0  0  0  0  0  0
  -24.0037  -32.8868   21.2654 C   0  0  0  0  0  0  0  0  0  0  0  0
  -22.3690  -30.3465   21.7992 C   0  0  0  0  0  0  0  0  0  0  0  0
  -19.8994  -28.0474   22.3016 C   0  0  0  0  0  0  0  0  0  0  0  0
  -27.1566  -16.7048   20.7123 C   0  0  0  0  0  0  0  0  0  0  0  0
  -21.3168  -36.8887   19.5853 C   0  0  0  0  0  0  0  0  0  0  0  0
  -25.5312  -31.4206   19.9679 C   0  0  0  0  0  0  0  0  0  0  0  0
  -24.8206  -29.7759   22.1518 C   0  0  0  0  0  0  0  0  0  0  0  0
  -21.0179  -35.6456   20.4193 C   0  0  0  0  0  0  0  0  0  0  0  0
  -29.5075  -14.2277   21.7195 C   0  0  0  0  0  0  0  0  0  0  0  0
  -22.0576  -35.4808   21.5232 C   0  0  0  0  0  0  0  0  0  0  0  0
  -25.7580  -22.1679   19.7622 C   0  0  0  0  0  0  0  0  0  0  0  0
  -27.4457  -21.6967   17.9358 C   0  0  0  0  0  0  0  0  0  0  0  0
  -28.8458  -12.9109   21.3070 C   0  0  0  0  0  0  0  0  0  0  0  0
  -26.0920  -23.6601   19.6919 C   0  0  0  0  0  0  0  0  0  0  0  0
  -27.7845  -23.1873   17.8581 C   0  0  0  0  0  0  0  0  0  0  0  0
  -28.4836  -15.2439   22.2222 C   0  0  0  0  0  0  0  0  0  0  0  0
  -26.6993  -14.1805   20.8975 C   0  0  0  0  0  0  0  0  0  0  0  0
  -23.4614  -35.2926   20.9353 C   0  0  1  0  0  0  0  0  0  0  0  0
  -26.0036  -21.4703   18.4154 C   0  0  0  0  0  0  0  0  0  0  0  0
  -24.1149  -31.5718   20.5514 C   0  0  1  0  0  0  0  0  0  0  0  0
  -27.6833  -13.1483   20.3232 C   0  0  2  0  0  0  0  0  0  0  0  0
  -27.5167  -23.9339   19.1773 C   0  0  0  0  0  0  0  0  0  0  0  0
  -29.9766  -23.7141   19.8743 C   0  0  0  0  0  0  0  0  0  0  0  0
  -17.8807  -27.6041   23.7249 C   0  0  0  0  0  0  0  0  0  0  0  0
  -24.1839  -29.5974   24.1335 C   0  0  0  0  0  0  0  0  0  0  0  0
  -22.2730  -28.3109   25.1141 C   0  0  0  0  0  0  0  0  0  0  0  0
  -22.0770  -30.7760   24.7862 C   0  0  0  0  0  0  0  0  0  0  0  0
  -18.1059  -28.0027   19.9478 C   0  0  0  0  0  0  0  0  0  0  0  0
  -27.7157  -25.4417   18.9724 C   0  0  0  0  0  0  0  0  0  1  0  0
  -22.0181  -29.2492   22.7719 C   0  0  1  0  0  0  0  0  0  0  0  0
  -18.3934  -28.1963   22.4214 C   0  0  2  0  0  0  0  0  0  0  0  0
  -22.6474  -29.4776   24.1752 C   0  0  0  0  0  0  0  0  0  0  0  0
  -25.9276  -11.4501   20.6623 N   0  0  0  0  0  0  0  0  0  0  0  0
  -26.2498  -19.1173   19.2488 N   0  0  0  0  0  0  0  0  0  0  0  0
  -26.9918  -11.8514   19.9464 N   0  0  0  0  0  0  0  0  0  0  0  0
  -23.7300  -30.5542   21.5441 N   0  0  0  0  0  0  0  0  0  0  0  0
  -27.4147  -15.4207   21.2368 N   0  0  0  0  0  0  0  0  0  0  0  0
  -28.3687  -11.2557   18.1134 N   0  0  0  0  0  0  0  0  0  0  0  0
  -27.0985   -7.6974   18.4603 N   0  0  0  0  0  0  0  0  0  0  0  0
  -26.1396  -16.7447   19.7591 N   0  0  0  0  0  0  0  0  0  0  0  0
  -23.6295  -33.9390   20.4516 N   0  0  0  0  0  0  0  0  0  0  0  0
  -20.5620  -29.1590   22.7776 N   0  0  0  0  0  0  0  0  0  0  0  0
  -17.7129  -27.5038   21.2908 N   0  3  0  0  0  0  0  0  0  0  0  0
  -25.7242   -8.8541   17.0347 O   0  0  0  0  0  0  0  0  0  0  0  0
  -28.1785  -23.0280   21.2939 O   0  0  0  0  0  0  0  0  0  0  0  0
  -24.2384  -32.9438   22.4668 O   0  0  0  0  0  0  0  0  0  0  0  0
  -21.4633  -31.0069   21.2825 O   0  0  0  0  0  0  0  0  0  0  0  0
  -20.4346  -27.0438   21.8360 O   0  0  0  0  0  0  0  0  0  0  0  0
  -27.8094  -17.6917   21.0615 O   0  0  0  0  0  0  0  0  0  0  0  0
  -21.2116   -7.3771   21.9744 O   0  0  0  0  0  0  0  0  0  0  0  0
  -27.4823  -26.1137   20.2094 O   0  0  0  0  0  0  0  0  0  1  0  0
  -22.2576   -2.7951   24.8579 F   0  0  0  0  0  0  0  0  0  0  0  0
  -20.3367   -7.1125   24.5834 F   0  0  0  0  0  0  0  0  0  0  0  0
  -24.3995  -19.3953   17.4650 S   0  0  0  0  0  0  0  0  0  0  0  0
  1  2  1  0  0  0  0
  1  5  2  0  0  0  0
  2  6  2  0  0  0  0
  3  8  2  0  0  0  0
  3 16  1  0  0  0  0
  4  9  1  0  0  0  0
  4 16  2  0  0  0  0
  5 18  1  0  0  0  0
  6 20  1  0  0  0  0
  7 10  2  0  0  0  0
  7 19  1  0  0  0  0
  8 22  1  0  0  0  0
  9 22  2  0  0  0  0
 10 23  1  0  0  0  0
 11 12  2  0  0  0  0
 11 24  1  0  0  0  0
 12 25  1  0  0  0  0
 13 21  1  0  0  0  0
 13 23  2  0  0  0  0
 14 25  2  0  0  0  0
 14 26  1  0  0  0  0
 15 28  2  0  0  0  0
 15 86  1  0  0  0  0
 16 27  1  0  0  0  0
 17 27  1  0  0  0  0
 17 29  2  0  0  0  0
 17 31  1  0  0  0  0
 18 20  2  0  0  0  0
 18 37  1  0  0  0  0
 19 21  2  0  0  0  0
 19 38  1  0  0  0  0
 20 50  1  0  0  0  0
 21 39  1  0  0  0  0
 22 82  1  0  0  0  0
 23 83  1  0  0  0  0
 24 26  2  0  0  0  0
 24 82  1  0  0  0  0
 25 84  1  0  0  0  0
 26 85  1  0  0  0  0
 27 65  2  0  0  0  0
 28 66  1  0  0  0  0
 28 72  1  0  0  0  0
 29 67  1  0  0  0  0
 29 70  1  0  0  0  0
 30 51  1  0  0  0  0
 30 66  2  0  0  0  0
 30 86  1  0  0  0  0
 31 71  1  0  0  0  0
 31 76  2  0  0  0  0
 32 54  1  0  0  0  0
 32 55  1  0  0  0  0
 32 77  2  0  0  0  0
 33 52  1  0  0  0  0
 33 73  1  0  0  0  0
 33 78  2  0  0  0  0
 34 62  1  0  0  0  0
 34 68  1  0  0  0  0
 34 79  2  0  0  0  0
 35 63  1  0  0  0  0
 35 74  1  0  0  0  0
 35 80  2  0  0  0  0
 36 69  1  0  0  0  0
 36 72  1  0  0  0  0
 36 81  2  0  0  0  0
 37 40  1  0  0  0  0
 38 52  1  0  0  0  0
 39 68  1  0  0  0  0
 40 42  1  0  0  0  0
 41 45  1  0  0  0  0
 41 48  1  0  0  0  0
 42 50  1  0  0  0  0
 43 46  1  0  0  0  0
 43 51  1  0  0  0  0
 44 47  1  0  0  0  0
 44 51  1  0  0  0  0
 45 53  1  0  0  0  0
 46 54  1  0  0  0  0
 47 54  1  0  0  0  0
 48 69  1  0  0  0  0
 49 53  1  0  0  0  0
 49 69  1  0  0  0  0
 50 73  1  0  0  0  0
 52 68  1  0  0  0  0
 53 67  1  0  0  0  0
 54 61  1  0  0  0  0
 56 63  1  0  0  0  0
 57 64  1  0  0  0  0
 58 64  1  0  0  0  0
 59 64  1  0  0  0  0
 60 75  1  0  0  0  0
 61 83  1  0  0  0  0
 62 64  1  0  0  0  0
 62 74  1  0  0  0  0
 63 75  1  0  0  0  0
 65 67  1  0  0  0  0
M  CHG  1  75   1
M  ISO  4  36 100  61 101  72 100  83 101
M  END
> <Batch ID>
0165

> <Smiles>
CNC(C)C(=O)NC(C(=O)N1Cc2cc([101O:1][101CH2:1]C3(C(C)=O)CCC(c4nc([100NH:0][100C:0](=O)N5CCCC(n6nc(-c7ccc(Oc8ccc(F)cc8F)cc7)c(C(N)=O)c6N)C5)cs4)CC3)ccc2CC1C(=O)NC1CCCc2ccccc21)C(C)(C)C

> <Shape>
0.264

> <Color>
0.106

> <Negative vol penalty>
0.000

$$$$

  -OEChem-04052304053D

 86 95  0     1  0  0  0  0  0999 V2000
  -14.8094  -27.2732   23.2395 C   0  0  0  0  0  0  0  0  0  0  0  0
  -15.4087  -27.0655   22.0013 C   0  0  0  0  0  0  0  0  0  0  0  0
  -32.2505  -18.2708   19.1641 C   0  0  0  0  0  0  0  0  0  0  0  0
  -22.8018  -10.9754   22.1231 C   0  0  0  0  0  0  0  0  0  0  0  0
  -23.5752  -13.2052   22.6396 C   0  0  0  0  0  0  0  0  0  0  0  0
  -15.3903  -28.1489   24.1558 C   0  0  0  0  0  0  0  0  0  0  0  0
  -16.5889  -27.7343   21.6783 C   0  0  0  0  0  0  0  0  0  0  0  0
  -31.3516  -19.3355   19.1021 C   0  0  0  0  0  0  0  0  0  0  0  0
  -22.5665  -24.0943   19.9725 C   0  0  0  0  0  0  0  0  0  0  0  0
  -31.7884  -16.9827   19.4344 C   0  0  0  0  0  0  0  0  0  0  0  0
  -21.9219  -11.0301   23.2040 C   0  0  0  0  0  0  0  0  0  0  0  0
  -22.6953  -13.2599   23.7206 C   0  0  0  0  0  0  0  0  0  0  0  0
  -23.6921  -23.4731   19.4310 C   0  0  0  0  0  0  0  0  0  0  0  0
  -22.5651  -12.0866   26.8888 C   0  0  0  0  0  0  0  0  0  0  0  0
  -23.0537  -12.5821   28.0976 C   0  0  0  0  0  0  0  0  0  0  0  0
  -29.5284  -17.8241   19.5807 C   0  0  0  0  0  0  0  0  0  0  0  0
  -24.8099  -25.6118   19.2739 C   0  0  0  0  0  0  0  0  0  0  0  0
  -21.4011  -14.3437   28.0436 C   0  0  0  0  0  0  0  0  0  0  0  0
  -23.6284  -12.0629   21.8409 C   0  0  0  0  0  0  0  0  0  0  0  0
  -24.2084  -11.8277   19.3679 C   0  0  0  0  0  0  0  0  0  0  0  0
  -29.9906  -19.1122   19.3104 C   0  0  0  0  0  0  0  0  0  0  0  0
  -16.5833  -28.8214   23.8476 C   0  0  0  0  0  0  0  0  0  0  0  0
  -22.5641  -25.4762   20.1813 C   0  0  0  0  0  0  0  0  0  0  0  0
  -17.1856  -28.6209   22.5908 C   0  0  0  0  0  0  0  0  0  0  0  0
  -23.6900  -26.2378   19.8276 C   0  0  0  0  0  0  0  0  0  0  0  0
  -30.4274  -16.7594   19.6427 C   0  0  0  0  0  0  0  0  0  0  0  0
  -21.8687  -12.1723   24.0028 C   0  0  0  0  0  0  0  0  0  0  0  0
  -24.8109  -24.2300   19.0824 C   0  0  0  0  0  0  0  0  0  0  0  0
  -21.4945  -12.7197   26.2573 C   0  0  0  0  0  0  0  0  0  0  0  0
  -22.4717  -13.7106   28.6751 C   0  0  0  0  0  0  0  0  0  0  0  0
  -20.9125  -13.8482   26.8347 C   0  0  0  0  0  0  0  0  0  0  0  0
  -24.5379  -12.0068   20.7248 C   0  0  0  0  0  0  0  0  0  0  0  0
  -25.4170  -11.8473   18.7156 C   0  0  0  0  0  0  0  0  0  0  0  0
  -22.9247  -11.6589   18.7521 C   0  0  0  0  0  0  0  0  0  0  0  0
  -20.6851  -28.4809   21.4131 C   0  0  0  0  0  0  0  0  0  0  0  0
  -23.5917  -28.8067   22.3382 C   0  0  0  0  0  0  0  0  0  0  0  0
  -26.4647  -29.5885   24.0030 C   0  0  0  0  0  0  0  0  0  0  0  0
  -30.7165  -14.2843   20.0122 C   0  0  0  0  0  0  0  0  0  0  0  0
  -17.1485  -29.7944   24.8519 C   0  0  0  0  0  0  0  0  0  0  0  0
  -21.3508  -26.1958   20.7048 C   0  0  0  0  0  0  0  0  0  0  0  0
  -23.6295  -27.7261   20.0379 C   0  0  0  0  0  0  0  0  0  0  0  0
  -18.6004  -30.1781   24.5778 C   0  0  0  0  0  0  0  0  0  0  0  0
  -30.0511  -10.8429   19.3864 C   0  0  0  0  0  0  0  0  0  0  0  0
  -28.9842  -20.9142   17.8464 C   0  0  0  0  0  0  0  0  0  0  0  0
  -29.2968  -21.3230   20.3280 C   0  0  0  0  0  0  0  0  0  0  0  0
  -18.7936  -30.5175   23.1033 C   0  0  0  0  0  0  0  0  0  0  0  0
  -28.5312  -10.7358   19.5291 C   0  0  0  0  0  0  0  0  0  0  0  0
  -27.9855  -22.0732   17.7832 C   0  0  0  0  0  0  0  0  0  0  0  0
  -28.2955  -22.4791   20.2620 C   0  0  0  0  0  0  0  0  0  0  0  0
  -30.6468  -11.8291   20.3895 C   0  0  0  0  0  0  0  0  0  0  0  0
  -28.5157  -13.0572   20.5280 C   0  0  0  0  0  0  0  0  0  0  0  0
  -29.0127  -20.2713   19.2428 C   0  0  0  0  0  0  0  0  0  0  0  0
  -18.4794  -29.3090   22.2132 C   0  0  1  0  0  0  0  0  0  0  0  0
  -21.7014  -27.3939   21.6052 C   0  0  1  0  0  0  0  0  0  0  0  0
  -27.8627  -12.1241   19.4952 C   0  0  2  0  0  0  0  0  0  0  0  0
  -28.2454  -23.1276   18.8695 C   0  0  0  0  0  0  0  0  0  0  0  0
  -27.7351  -31.5450   24.9282 C   0  0  0  0  0  0  0  0  0  0  0  0
  -24.4668  -29.5679   19.5171 C   0  0  0  0  0  0  0  0  0  0  0  0
  -26.3841  -30.8222   20.5266 C   0  0  0  0  0  0  0  0  0  0  0  0
  -24.0405  -31.5079   21.0366 C   0  0  0  0  0  0  0  0  0  0  0  0
  -26.3216  -28.5254   26.7613 C   0  0  0  0  0  0  0  0  0  0  0  0
  -29.8171  -24.7318   19.5620 C   0  0  0  0  0  0  0  0  0  0  0  0
  -27.1750  -24.2193   18.8199 C   0  0  0  0  0  0  0  0  0  1  0  0
  -24.9559  -29.3779   22.0450 C   0  0  1  0  0  0  0  0  0  0  0  0
  -26.7179  -30.4539   25.2243 C   0  0  2  0  0  0  0  0  0  0  0  0
  -24.9582  -30.2913   20.7868 C   0  0  0  0  0  0  0  0  0  0  0  0
  -25.8528  -12.1308   20.9240 N   0  0  0  0  0  0  0  0  0  0  0  0
  -26.3602  -12.0295   19.6837 N   0  0  0  0  0  0  0  0  0  0  0  0
  -23.0045  -28.0251   21.3358 N   0  0  0  0  0  0  0  0  0  0  0  0
  -29.9673  -13.1231   20.2971 N   0  0  0  0  0  0  0  0  0  0  0  0
  -25.7542  -11.7263   17.4140 N   0  0  0  0  0  0  0  0  0  0  0  0
  -21.7859  -11.6634   19.5692 N   0  0  0  0  0  0  0  0  0  0  0  0
  -29.9583  -15.4507   19.9165 N   0  0  0  0  0  0  0  0  0  0  0  0
  -19.5784  -28.3675   22.2328 N   0  0  0  0  0  0  0  0  0  0  0  0
  -25.3909  -30.0442   23.2679 N   0  0  0  0  0  0  0  0  0  0  0  0
  -27.2332  -29.6238   26.3496 N   0  3  0  0  0  0  0  0  0  0  0  0
  -22.7926  -11.4920   17.5159 O   0  0  0  0  0  0  0  0  0  0  0  0
  -20.8894  -29.3594   20.5836 O   0  0  0  0  0  0  0  0  0  0  0  0
  -23.0564  -29.0501   23.4233 O   0  0  0  0  0  0  0  0  0  0  0  0
  -27.1532  -28.6087   23.7266 O   0  0  0  0  0  0  0  0  0  0  0  0
  -31.9370  -14.2423   19.8370 O   0  0  0  0  0  0  0  0  0  0  0  0
  -21.0101  -12.2262   25.0575 O   0  0  0  0  0  0  0  0  0  0  0  0
  -25.9082  -23.6166   18.5584 O   0  0  0  0  0  0  0  0  0  1  0  0
  -29.5081  -23.7419   18.5952 O   0  0  0  0  0  0  0  0  0  0  0  0
  -22.9400  -14.1853   29.8368 F   0  0  0  0  0  0  0  0  0  0  0  0
  -19.8830  -14.4600   26.2333 F   0  0  0  0  0  0  0  0  0  0  0  0
  1  2  1  0  0  0  0
  1  6  2  0  0  0  0
  2  7  2  0  0  0  0
  3  8  2  0  0  0  0
  3 10  1  0  0  0  0
  4 11  2  0  0  0  0
  4 19  1  0  0  0  0
  5 12  1  0  0  0  0
  5 19  2  0  0  0  0
  6 22  1  0  0  0  0
  7 24  1  0  0  0  0
  8 21  1  0  0  0  0
  9 13  2  0  0  0  0
  9 23  1  0  0  0  0
 10 26  2  0  0  0  0
 11 27  1  0  0  0  0
 12 27  2  0  0  0  0
 13 28  1  0  0  0  0
 14 15  2  0  0  0  0
 14 29  1  0  0  0  0
 15 30  1  0  0  0  0
 16 21  2  0  0  0  0
 16 26  1  0  0  0  0
 17 25  1  0  0  0  0
 17 28  2  0  0  0  0
 18 30  2  0  0  0  0
 18 31  1  0  0  0  0
 19 32  1  0  0  0  0
 20 32  1  0  0  0  0
 20 33  2  0  0  0  0
 20 34  1  0  0  0  0
 21 52  1  0  0  0  0
 22 24  2  0  0  0  0
 22 39  1  0  0  0  0
 23 25  2  0  0  0  0
 23 40  1  0  0  0  0
 24 53  1  0  0  0  0
 25 41  1  0  0  0  0
 26 73  1  0  0  0  0
 27 82  1  0  0  0  0
 28 83  1  0  0  0  0
 29 31  2  0  0  0  0
 29 82  1  0  0  0  0
 30 85  1  0  0  0  0
 31 86  1  0  0  0  0
 32 67  2  0  0  0  0
 33 68  1  0  0  0  0
 33 71  1  0  0  0  0
 34 72  1  0  0  0  0
 34 77  2  0  0  0  0
 35 54  1  0  0  0  0
 35 74  1  0  0  0  0
 35 78  2  0  0  0  0
 36 64  1  0  0  0  0
 36 69  1  0  0  0  0
 36 79  2  0  0  0  0
 37 65  1  0  0  0  0
 37 75  1  0  0  0  0
 37 80  2  0  0  0  0
 38 70  1  0  0  0  0
 38 73  1  0  0  0  0
 38 81  2  0  0  0  0
 39 42  1  0  0  0  0
 40 54  1  0  0  0  0
 41 69  1  0  0  0  0
 42 46  1  0  0  0  0
 43 47  1  0  0  0  0
 43 50  1  0  0  0  0
 44 48  1  0  0  0  0
 44 52  1  0  0  0  0
 45 49  1  0  0  0  0
 45 52  1  0  0  0  0
 46 53  1  0  0  0  0
 47 55  1  0  0  0  0
 48 56  1  0  0  0  0
 49 56  1  0  0  0  0
 50 70  1  0  0  0  0
 51 55  1  0  0  0  0
 51 70  1  0  0  0  0
 53 74  1  0  0  0  0
 54 69  1  0  0  0  0
 55 68  1  0  0  0  0
 56 63  1  0  0  0  0
 56 84  1  0  0  0  0
 57 65  1  0  0  0  0
 58 66  1  0  0  0  0
 59 66  1  0  0  0  0
 60 66  1  0  0  0  0
 61 76  1  0  0  0  0
 62 84  1  0  0  0  0
 63 83  1  0  0  0  0
 64 66  1  0  0  0  0
 64 75  1  0  0  0  0
 65 76  1  0  0  0  0
 67 68  1  0  0  0  0
M  CHG  1  76   1
M  ISO  4  38 100  63 101  73 100  83 101
M  END
> <Batch ID>
0165

> <Smiles>
CNC(C)C(=O)NC(C(=O)N1Cc2cc([101O:1][101CH2:1]C3(OC)CCC(c4cccc([100NH:0][100C:0](=O)N5CCCC(n6nc(-c7ccc(Oc8ccc(F)cc8F)cc7)c(C(N)=O)c6N)C5)c4)CC3)ccc2CC1C(=O)NC1CCCc2ccccc21)C(C)(C)C

> <Shape>
0.273

> <Color>
0.087

> <Negative vol penalty>
0.000

$$$$

  -OEChem-04052304053D

 89 97  0     1  0  0  0  0  0999 V2000
  -35.8070  -32.2983   19.8468 C   0  0  0  0  0  0  0  0  0  0  0  0
  -34.8539  -31.3625   19.4579 C   0  0  0  0  0  0  0  0  0  0  0  0
  -24.6605   -9.0773   22.0701 C   0  0  0  0  0  0  0  0  0  0  0  0
  -23.3004  -10.0347   20.3178 C   0  0  0  0  0  0  0  0  0  0  0  0
  -35.7204  -32.8994   21.1019 C   0  0  0  0  0  0  0  0  0  0  0  0
  -33.8142  -31.0264   20.3243 C   0  0  0  0  0  0  0  0  0  0  0  0
  -28.0602  -29.5969   18.7903 C   0  0  0  0  0  0  0  0  0  0  0  0
  -24.5284  -18.5032   16.3667 C   0  0  0  0  0  0  0  0  0  0  0  0
  -23.5387   -8.4292   22.5868 C   0  0  0  0  0  0  0  0  0  0  0  0
  -22.1785   -9.3866   20.8345 C   0  0  0  0  0  0  0  0  0  0  0  0
  -27.4062  -28.3752   18.6373 C   0  0  0  0  0  0  0  0  0  0  0  0
  -21.7094   -5.6738   21.8835 C   0  0  0  0  0  0  0  0  0  0  0  0
  -21.8452   -4.3344   22.2483 C   0  0  0  0  0  0  0  0  0  0  0  0
  -24.9366  -17.5263   17.2680 C   0  0  0  0  0  0  0  0  0  0  0  0
  -26.5692  -28.5476   20.8932 C   0  0  0  0  0  0  0  0  0  0  0  0
  -21.2380   -4.8914   24.5194 C   0  0  0  0  0  0  0  0  0  0  0  0
  -24.5414   -9.8801   20.9356 C   0  0  0  0  0  0  0  0  0  0  0  0
  -26.5971  -10.0572   19.4355 C   0  0  0  0  0  0  0  0  0  0  0  0
  -34.6738  -32.5777   21.9803 C   0  0  0  0  0  0  0  0  0  0  0  0
  -27.9824  -30.2991   20.0017 C   0  0  0  0  0  0  0  0  0  0  0  0
  -33.7144  -31.6228   21.5928 C   0  0  0  0  0  0  0  0  0  0  0  0
  -27.2210  -29.7792   21.0581 C   0  0  0  0  0  0  0  0  0  0  0  0
  -25.1000  -19.7697   16.4167 C   0  0  0  0  0  0  0  0  0  0  0  0
  -22.2977   -8.5838   21.9690 C   0  0  0  0  0  0  0  0  0  0  0  0
  -26.6629  -27.8489   19.6898 C   0  0  0  0  0  0  0  0  0  0  0  0
  -21.3380   -6.6221   22.8367 C   0  0  0  0  0  0  0  0  0  0  0  0
  -21.6095   -3.9432   23.5662 C   0  0  0  0  0  0  0  0  0  0  0  0
  -21.1022   -6.2309   24.1546 C   0  0  0  0  0  0  0  0  0  0  0  0
  -25.6998  -10.5503   20.4017 C   0  0  0  0  0  0  0  0  0  0  0  0
  -26.0681  -20.0068   17.3792 C   0  0  0  0  0  0  0  0  0  0  0  0
  -25.9121  -17.8637   18.1923 C   0  0  0  0  0  0  0  0  0  0  0  0
  -27.5150  -11.0659   19.2730 C   0  0  0  0  0  0  0  0  0  0  0  0
  -26.7788  -25.5526   19.2603 C   0  0  0  0  0  0  0  0  0  1  0  0
  -26.5391  -21.8637   18.6149 C   0  0  0  0  0  0  0  0  0  0  0  0
  -26.6006   -8.7998   18.7465 C   0  0  0  0  0  0  0  0  0  0  0  0
  -26.2568  -24.3320   19.0960 C   0  0  0  0  0  0  0  0  0  0  0  0
  -27.1679  -23.2046   18.7893 C   0  0  0  0  0  0  0  0  0  0  0  0
  -30.0885  -31.2369   22.1899 C   0  0  0  0  0  0  0  0  0  0  0  0
  -27.5107  -32.7390   23.4631 C   0  0  0  0  0  0  0  0  0  0  0  0
  -24.1163  -32.9064   23.7747 C   0  0  0  0  0  0  0  0  0  0  0  0
  -27.2768  -16.9768   20.1151 C   0  0  0  0  0  0  0  0  0  0  0  0
  -34.6487  -33.2186   23.3453 C   0  0  0  0  0  0  0  0  0  0  0  0
  -28.6717  -31.6286   20.1417 C   0  0  0  0  0  0  0  0  0  0  0  0
  -27.0892  -30.5036   22.3721 C   0  0  0  0  0  0  0  0  0  0  0  0
  -33.3047  -33.0846   24.0565 C   0  0  0  0  0  0  0  0  0  0  0  0
  -29.5465  -14.6981   21.6425 C   0  0  0  0  0  0  0  0  0  0  0  0
  -32.7882  -31.6528   23.9565 C   0  0  0  0  0  0  0  0  0  0  0  0
  -28.9023  -13.3304   21.4044 C   0  0  0  0  0  0  0  0  0  0  0  0
  -28.5007  -15.7778   21.9150 C   0  0  0  0  0  0  0  0  0  0  0  0
  -26.7928  -14.5123   20.6697 C   0  0  0  0  0  0  0  0  0  0  0  0
  -32.5578  -31.2503   22.4948 C   0  0  1  0  0  0  0  0  0  0  0  0
  -28.9462  -32.0094   21.5932 C   0  0  1  0  0  0  0  0  0  0  0  0
  -27.8029  -13.4053   20.3268 C   0  0  2  0  0  0  0  0  0  0  0  0
  -22.3048  -34.2187   24.9121 C   0  0  0  0  0  0  0  0  0  0  0  0
  -24.3224  -19.9771   13.2368 C   0  0  0  0  0  0  0  0  0  0  0  0
  -28.1482  -31.3332   26.0951 C   0  0  0  0  0  0  0  0  0  0  0  0
  -25.8405  -31.9055   26.8793 C   0  0  0  0  0  0  0  0  0  0  0  0
  -27.4565  -33.7250   26.3308 C   0  0  0  0  0  0  0  0  0  0  0  0
  -22.9338  -33.7345   21.1911 C   0  0  0  0  0  0  0  0  0  0  0  0
  -22.4383  -22.6539   15.2081 C   0  0  0  0  0  0  0  0  0  0  0  0
  -26.4388  -32.3649   24.4582 C   0  0  1  0  0  0  0  0  0  0  0  0
  -23.1501  -34.0713   23.6565 C   0  0  2  0  0  0  0  0  0  0  0  0
  -23.6958  -20.5775   14.4899 C   0  0  1  0  0  0  0  0  0  0  0  0
  -26.9749  -32.3173   25.9169 C   0  0  0  0  0  0  0  0  0  0  0  0
  -26.0189  -11.7768   20.8234 N   0  0  0  0  0  0  0  0  0  0  0  0
  -26.4903  -19.0831   18.2715 N   0  0  0  0  0  0  0  0  0  0  0  0
  -26.6872  -21.2637   17.4853 N   0  0  0  0  0  0  0  0  0  0  0  0
  -27.1271  -12.0628   20.1190 N   0  0  0  0  0  0  0  0  0  0  0  0
  -27.7869  -31.7969   22.4622 N   0  0  0  0  0  0  0  0  0  0  0  0
  -27.4944  -15.7928   20.8510 N   0  0  0  0  0  0  0  0  0  0  0  0
  -28.6082  -11.1884   18.4904 N   0  0  0  0  0  0  0  0  0  0  0  0
  -25.5842   -7.8783   19.0329 N   0  0  0  0  0  0  0  0  0  0  0  0
  -24.6948  -20.7652   15.5094 N   0  0  0  0  0  0  0  0  0  0  0  0
  -26.3194  -16.8619   19.1078 N   0  0  0  0  0  0  0  0  0  0  0  0
  -31.3247  -31.8246   22.0008 N   0  0  0  0  0  0  0  0  0  0  0  0
  -25.3450  -33.3085   24.2540 N   0  0  0  0  0  0  0  0  0  0  0  0
  -22.2369  -33.8712   22.4960 N   0  3  0  0  0  0  0  0  0  0  0  0
  -23.1294  -21.9234   14.1085 N   0  3  0  0  0  0  0  0  0  0  0  0
  -27.4882   -8.4958   17.9139 O   0  0  0  0  0  0  0  0  0  0  0  0
  -28.3808  -23.2819   18.6750 O   0  0  0  0  0  0  0  0  0  0  0  0
  -29.8646  -30.1863   22.7797 O   0  0  0  0  0  0  0  0  0  0  0  0
  -28.0768  -33.8302   23.5658 O   0  0  0  0  0  0  0  0  0  0  0  0
  -23.8103  -31.7543   23.4754 O   0  0  0  0  0  0  0  0  0  0  0  0
  -27.9138  -18.0086   20.3426 O   0  0  0  0  0  0  0  0  0  0  0  0
  -24.9081  -24.0705   19.1950 O   0  0  0  0  0  0  0  0  0  0  0  0
  -21.2028   -7.9514   22.4728 O   0  0  0  0  0  0  0  0  0  0  0  0
  -26.0241  -26.6563   19.5433 O   0  0  0  0  0  0  0  0  0  1  0  0
  -21.7384   -2.6566   23.9160 F   0  0  0  0  0  0  0  0  0  0  0  0
  -20.7440   -7.1371   25.0745 F   0  0  0  0  0  0  0  0  0  0  0  0
  1  2  1  0  0  0  0
  1  5  2  0  0  0  0
  2  6  2  0  0  0  0
  3  9  2  0  0  0  0
  3 17  1  0  0  0  0
  4 10  1  0  0  0  0
  4 17  2  0  0  0  0
  5 19  1  0  0  0  0
  6 21  1  0  0  0  0
  7 11  2  0  0  0  0
  7 20  1  0  0  0  0
  8 14  2  0  0  0  0
  8 23  1  0  0  0  0
  9 24  1  0  0  0  0
 10 24  2  0  0  0  0
 11 25  1  0  0  0  0
 12 13  2  0  0  0  0
 12 26  1  0  0  0  0
 13 27  1  0  0  0  0
 14 31  1  0  0  0  0
 15 22  1  0  0  0  0
 15 25  2  0  0  0  0
 16 27  2  0  0  0  0
 16 28  1  0  0  0  0
 17 29  1  0  0  0  0
 18 29  1  0  0  0  0
 18 32  2  0  0  0  0
 18 35  1  0  0  0  0
 19 21  2  0  0  0  0
 19 42  1  0  0  0  0
 20 22  2  0  0  0  0
 20 43  1  0  0  0  0
 21 51  1  0  0  0  0
 22 44  1  0  0  0  0
 23 30  2  0  0  0  0
 23 73  1  0  0  0  0
 24 86  1  0  0  0  0
 25 87  1  0  0  0  0
 26 28  2  0  0  0  0
 26 86  1  0  0  0  0
 27 88  1  0  0  0  0
 28 89  1  0  0  0  0
 29 65  2  0  0  0  0
 30 66  1  0  0  0  0
 30 67  1  0  0  0  0
 31 66  2  0  0  0  0
 31 74  1  0  0  0  0
 32 68  1  0  0  0  0
 32 71  1  0  0  0  0
 33 36  2  0  0  0  0
 33 87  1  0  0  0  0
 34 37  1  0  0  0  0
 34 67  2  0  0  0  0
 35 72  1  0  0  0  0
 35 79  2  0  0  0  0
 36 37  1  0  0  0  0
 36 85  1  0  0  0  0
 37 80  2  0  0  0  0
 38 52  1  0  0  0  0
 38 75  1  0  0  0  0
 38 81  2  0  0  0  0
 39 61  1  0  0  0  0
 39 69  1  0  0  0  0
 39 82  2  0  0  0  0
 40 62  1  0  0  0  0
 40 76  1  0  0  0  0
 40 83  2  0  0  0  0
 41 70  1  0  0  0  0
 41 74  1  0  0  0  0
 41 84  2  0  0  0  0
 42 45  1  0  0  0  0
 43 52  1  0  0  0  0
 44 69  1  0  0  0  0
 45 47  1  0  0  0  0
 46 48  1  0  0  0  0
 46 49  1  0  0  0  0
 47 51  1  0  0  0  0
 48 53  1  0  0  0  0
 49 70  1  0  0  0  0
 50 53  1  0  0  0  0
 50 70  1  0  0  0  0
 51 75  1  0  0  0  0
 52 69  1  0  0  0  0
 53 68  1  0  0  0  0
 54 62  1  0  0  0  0
 55 63  1  0  0  0  0
 56 64  1  0  0  0  0
 57 64  1  0  0  0  0
 58 64  1  0  0  0  0
 59 77  1  0  0  0  0
 60 78  1  0  0  0  0
 61 64  1  0  0  0  0
 61 76  1  0  0  0  0
 62 77  1  0  0  0  0
 63 73  1  0  0  0  0
 63 78  1  0  0  0  0
 65 68  1  0  0  0  0
M  CHG  2  77   1  78   1
M  ISO  4  33 101  41 100  74 100  87 101
M  END
> <Batch ID>
0165

> <Smiles>
CN=C(C)Nc1ccc([100NH:0][100C:0](=O)N2CCCC(n3nc(-c4ccc(Oc5ccc(F)cc5F)cc4)c(C(N)=O)c3N)C2)nc1NCC(=O)C(=O)[101CH2:1][101O:1]c1ccc2c(c1)CN(C(=O)C(NC(=O)C(C)NC)C(C)(C)C)C(C(=O)NC1CCCc3ccccc31)C2

> <Shape>
0.223

> <Color>
0.090

> <Negative vol penalty>
0.000

$$$$

  -OEChem-04052304053D

 85 93  0     1  0  0  0  0  0999 V2000
  -29.5446  -30.0634   26.7612 C   0  0  0  0  0  0  0  0  0  0  0  0
  -29.1531  -29.1305   25.8063 C   0  0  0  0  0  0  0  0  0  0  0  0
  -23.2688  -11.9516   23.1990 C   0  0  0  0  0  0  0  0  0  0  0  0
  -23.0078  -14.2830   22.6218 C   0  0  0  0  0  0  0  0  0  0  0  0
  -28.6016  -30.9250   27.3200 C   0  0  0  0  0  0  0  0  0  0  0  0
  -27.8180  -29.0579   25.4105 C   0  0  0  0  0  0  0  0  0  0  0  0
  -27.2990  -28.6762   20.3876 C   0  0  0  0  0  0  0  0  0  0  0  0
  -22.4270  -12.1291   24.2969 C   0  0  0  0  0  0  0  0  0  0  0  0
  -22.1659  -14.4606   23.7197 C   0  0  0  0  0  0  0  0  0  0  0  0
  -27.5287  -27.4250   19.8170 C   0  0  0  0  0  0  0  0  0  0  0  0
  -19.6603  -15.4448   26.1633 C   0  0  0  0  0  0  0  0  0  0  0  0
  -18.4851  -16.1707   25.9697 C   0  0  0  0  0  0  0  0  0  0  0  0
  -31.4096  -17.9612   20.2411 C   0  0  0  0  0  0  0  0  0  0  0  0
  -30.8642  -20.3104   20.0983 C   0  0  0  0  0  0  0  0  0  0  0  0
  -25.1495  -27.0388   19.7207 C   0  0  0  0  0  0  0  0  0  0  0  0
  -29.1785  -18.6475   19.6180 C   0  0  0  0  0  0  0  0  0  0  0  0
  -17.7632  -14.5616   24.3184 C   0  0  0  0  0  0  0  0  0  0  0  0
  -23.5593  -13.0285   22.3615 C   0  0  0  0  0  0  0  0  0  0  0  0
  -31.7897  -19.2985   20.3536 C   0  0  0  0  0  0  0  0  0  0  0  0
  -24.0563  -12.4806   19.9201 C   0  0  0  0  0  0  0  0  0  0  0  0
  -27.2560  -30.8694   26.9238 C   0  0  0  0  0  0  0  0  0  0  0  0
  -25.9910  -29.1143   20.6395 C   0  0  0  0  0  0  0  0  0  0  0  0
  -26.8559  -29.9186   25.9655 C   0  0  0  0  0  0  0  0  0  0  0  0
  -24.9058  -28.2970   20.2922 C   0  0  0  0  0  0  0  0  0  0  0  0
  -30.1041  -17.6356   19.8732 C   0  0  0  0  0  0  0  0  0  0  0  0
  -29.5586  -19.9849   19.7305 C   0  0  0  0  0  0  0  0  0  0  0  0
  -21.8755  -13.3836   24.5573 C   0  0  0  0  0  0  0  0  0  0  0  0
  -26.4540  -26.6049   19.4861 C   0  0  0  0  0  0  0  0  0  0  0  0
  -19.8870  -14.2772   25.4344 C   0  0  0  0  0  0  0  0  0  0  0  0
  -17.5365  -15.7291   25.0472 C   0  0  0  0  0  0  0  0  0  0  0  0
  -18.9384  -13.8357   24.5120 C   0  0  0  0  0  0  0  0  0  0  0  0
  -24.4292  -12.8459   21.2275 C   0  0  0  0  0  0  0  0  0  0  0  0
  -25.2396  -12.4416   19.2238 C   0  0  0  0  0  0  0  0  0  0  0  0
  -33.1507  -19.6381   20.7376 C   0  0  0  0  0  0  0  0  0  0  0  0
  -22.7565  -12.2017   19.3830 C   0  0  0  0  0  0  0  0  0  0  0  0
  -24.3545  -29.9095   23.2459 C   0  0  0  0  0  0  0  0  0  0  0  0
  -27.7121  -23.2121   19.2230 C   0  0  0  0  0  0  0  0  0  0  0  0
  -22.0824  -30.7509   21.0891 C   0  0  0  0  0  0  0  0  0  0  0  0
  -20.7702  -30.3630   17.9627 C   0  0  0  0  0  0  0  0  0  0  0  0
  -30.5113  -15.1518   19.9781 C   0  0  0  0  0  0  0  0  0  0  0  0
  -26.2643  -31.7895   27.5905 C   0  0  0  0  0  0  0  0  0  0  0  0
  -25.7591  -30.4777   21.2309 C   0  0  0  0  0  0  0  0  0  0  0  0
  -23.4816  -28.7292   20.5235 C   0  0  0  0  0  0  0  0  0  0  0  0
  -24.9381  -31.9003   26.8428 C   0  0  0  0  0  0  0  0  0  0  0  0
  -29.9215  -11.6433   19.8381 C   0  0  0  0  0  0  0  0  0  0  0  0
  -24.4349  -30.5177   26.4405 C   0  0  0  0  0  0  0  0  0  0  0  0
  -28.4113  -11.5207   20.0534 C   0  0  0  0  0  0  0  0  0  0  0  0
  -30.5247  -12.7675   20.6782 C   0  0  0  0  0  0  0  0  0  0  0  0
  -28.3660  -13.9532   20.7375 C   0  0  0  0  0  0  0  0  0  0  0  0
  -25.4215  -29.8259   25.4921 C   0  0  1  0  0  0  0  0  0  0  0  0
  -24.4028  -30.6087   21.9168 C   0  0  1  0  0  0  0  0  0  0  0  0
  -27.7030  -12.8763   19.8632 C   0  0  2  0  0  0  0  0  0  0  0  0
  -33.8799  -18.6762   21.6300 C   0  0  0  0  0  0  0  0  0  0  0  0
  -18.8896  -31.1570   16.5032 C   0  0  0  0  0  0  0  0  0  0  0  0
  -20.1392  -28.9737   22.6304 C   0  0  0  0  0  0  0  0  0  0  0  0
  -18.6108  -29.0453   20.6487 C   0  0  0  0  0  0  0  0  0  0  0  0
  -19.1769  -31.1503   21.8617 C   0  0  0  0  0  0  0  0  0  0  0  0
  -22.6414  -31.4914   15.9666 C   0  0  0  0  0  0  0  0  0  0  0  0
  -28.9401  -22.3967   19.5681 C   0  0  0  0  0  0  0  0  0  0  0  0
  -27.8864  -24.7171   19.2853 C   0  0  0  0  0  0  0  0  0  1  0  0
  -20.9312  -30.0420   20.4174 C   0  0  1  0  0  0  0  0  0  0  0  0
  -20.3355  -31.3769   16.9198 C   0  0  2  0  0  0  0  0  0  0  0  0
  -19.7413  -29.7936   21.3868 C   0  0  0  0  0  0  0  0  0  0  0  0
  -25.7464  -13.0258   21.3568 N   0  0  0  0  0  0  0  0  0  0  0  0
  -26.2115  -12.7726   20.1216 N   0  0  0  0  0  0  0  0  0  0  0  0
  -23.3068  -30.0682   21.1100 N   0  0  0  0  0  0  0  0  0  0  0  0
  -29.8059  -14.0217   20.4429 N   0  0  0  0  0  0  0  0  0  0  0  0
  -25.5331  -12.1567   17.9373 N   0  0  0  0  0  0  0  0  0  0  0  0
  -21.6483  -12.2882   20.2366 N   0  0  0  0  0  0  0  0  0  0  0  0
  -29.7174  -16.2772   19.7595 N   0  0  0  0  0  0  0  0  0  0  0  0
  -28.6376  -20.9912   19.4768 N   0  0  0  0  0  0  0  0  0  0  0  0
  -25.2944  -30.3601   24.1531 N   0  0  0  0  0  0  0  0  0  0  0  0
  -20.5897  -30.8391   19.2441 N   0  0  0  0  0  0  0  0  0  0  0  0
  -21.1951  -31.2732   15.7068 N   0  3  0  0  0  0  0  0  0  0  0  0
  -33.7492  -20.6582   20.3897 O   0  0  0  0  0  0  0  0  0  0  0  0
  -22.5849  -11.8691   18.1857 O   0  0  0  0  0  0  0  0  0  0  0  0
  -23.5250  -29.0275   23.4349 O   0  0  0  0  0  0  0  0  0  0  0  0
  -26.6383  -22.6985   18.9116 O   0  0  0  0  0  0  0  0  0  0  0  0
  -21.9036  -31.8723   21.5711 O   0  0  0  0  0  0  0  0  0  0  0  0
  -21.2211  -29.2578   17.6699 O   0  0  0  0  0  0  0  0  0  0  0  0
  -31.7254  -15.1154   19.7621 O   0  0  0  0  0  0  0  0  0  0  0  0
  -21.0539  -13.5572   25.6284 O   0  0  0  0  0  0  0  0  0  0  0  0
  -26.6754  -25.3830   18.9297 O   0  0  0  0  0  0  0  0  0  1  0  0
  -16.4074  -16.4255   24.8625 F   0  0  0  0  0  0  0  0  0  0  0  0
  -19.1501  -12.7142   23.8097 F   0  0  0  0  0  0  0  0  0  0  0  0
  1  2  1  0  0  0  0
  1  5  2  0  0  0  0
  2  6  2  0  0  0  0
  3  8  2  0  0  0  0
  3 18  1  0  0  0  0
  4  9  1  0  0  0  0
  4 18  2  0  0  0  0
  5 21  1  0  0  0  0
  6 23  1  0  0  0  0
  7 10  2  0  0  0  0
  7 22  1  0  0  0  0
  8 27  1  0  0  0  0
  9 27  2  0  0  0  0
 10 28  1  0  0  0  0
 11 12  2  0  0  0  0
 11 29  1  0  0  0  0
 12 30  1  0  0  0  0
 13 19  2  0  0  0  0
 13 25  1  0  0  0  0
 14 19  1  0  0  0  0
 14 26  2  0  0  0  0
 15 24  1  0  0  0  0
 15 28  2  0  0  0  0
 16 25  2  0  0  0  0
 16 26  1  0  0  0  0
 17 30  2  0  0  0  0
 17 31  1  0  0  0  0
 18 32  1  0  0  0  0
 19 34  1  0  0  0  0
 20 32  1  0  0  0  0
 20 33  2  0  0  0  0
 20 35  1  0  0  0  0
 21 23  2  0  0  0  0
 21 41  1  0  0  0  0
 22 24  2  0  0  0  0
 22 42  1  0  0  0  0
 23 50  1  0  0  0  0
 24 43  1  0  0  0  0
 25 70  1  0  0  0  0
 26 71  1  0  0  0  0
 27 82  1  0  0  0  0
 28 83  1  0  0  0  0
 29 31  2  0  0  0  0
 29 82  1  0  0  0  0
 30 84  1  0  0  0  0
 31 85  1  0  0  0  0
 32 64  2  0  0  0  0
 33 65  1  0  0  0  0
 33 68  1  0  0  0  0
 34 53  1  0  0  0  0
 34 75  2  0  0  0  0
 35 69  1  0  0  0  0
 35 76  2  0  0  0  0
 36 51  1  0  0  0  0
 36 72  1  0  0  0  0
 36 77  2  0  0  0  0
 37 59  1  0  0  0  0
 37 60  1  0  0  0  0
 37 78  2  0  0  0  0
 38 61  1  0  0  0  0
 38 66  1  0  0  0  0
 38 79  2  0  0  0  0
 39 62  1  0  0  0  0
 39 73  1  0  0  0  0
 39 80  2  0  0  0  0
 40 67  1  0  0  0  0
 40 70  1  0  0  0  0
 40 81  2  0  0  0  0
 41 44  1  0  0  0  0
 42 51  1  0  0  0  0
 43 66  1  0  0  0  0
 44 46  1  0  0  0  0
 45 47  1  0  0  0  0
 45 48  1  0  0  0  0
 46 50  1  0  0  0  0
 47 52  1  0  0  0  0
 48 67  1  0  0  0  0
 49 52  1  0  0  0  0
 49 67  1  0  0  0  0
 50 72  1  0  0  0  0
 51 66  1  0  0  0  0
 52 65  1  0  0  0  0
 54 62  1  0  0  0  0
 55 63  1  0  0  0  0
 56 63  1  0  0  0  0
 57 63  1  0  0  0  0
 58 74  1  0  0  0  0
 59 71  1  0  0  0  0
 60 83  1  0  0  0  0
 61 63  1  0  0  0  0
 61 73  1  0  0  0  0
 62 74  1  0  0  0  0
 64 65  1  0  0  0  0
M  CHG  1  74   1
M  ISO  4  40 100  60 101  70 100  83 101
M  END
> <Batch ID>
0165

> <Smiles>
CNC(C)C(=O)NC(C(=O)N1Cc2cc([101O:1][101CH2:1]C(=O)CNc3cc([100NH:0][100C:0](=O)N4CCCC(n5nc(-c6ccc(Oc7ccc(F)cc7F)cc6)c(C(N)=O)c5N)C4)cc(C(C)=O)c3)ccc2CC1C(=O)NC1CCCc2ccccc21)C(C)(C)C

> <Shape>
0.248

> <Color>
0.094

> <Negative vol penalty>
0.000

$$$$

  -OEChem-04052304053D

 86 95  0     1  0  0  0  0  0999 V2000
  -19.7492  -35.2379   17.4709 C   0  0  0  0  0  0  0  0  0  0  0  0
  -21.0541  -34.8405   17.1974 C   0  0  0  0  0  0  0  0  0  0  0  0
  -22.7339  -13.3779   22.7500 C   0  0  0  0  0  0  0  0  0  0  0  0
  -24.2331  -11.6434   23.5120 C   0  0  0  0  0  0  0  0  0  0  0  0
  -19.3334  -35.3999   18.7918 C   0  0  0  0  0  0  0  0  0  0  0  0
  -21.9443  -34.6059   18.2448 C   0  0  0  0  0  0  0  0  0  0  0  0
  -25.1021  -28.1827   19.0590 C   0  0  0  0  0  0  0  0  0  0  0  0
  -30.7657  -19.0488   19.8291 C   0  0  0  0  0  0  0  0  0  0  0  0
  -21.9611  -13.2151   23.8998 C   0  0  0  0  0  0  0  0  0  0  0  0
  -23.4604  -11.4806   24.6618 C   0  0  0  0  0  0  0  0  0  0  0  0
  -25.9072  -27.0478   19.1592 C   0  0  0  0  0  0  0  0  0  0  0  0
  -20.5587   -9.9726   25.5204 C   0  0  0  0  0  0  0  0  0  0  0  0
  -20.2555   -8.6706   25.9185 C   0  0  0  0  0  0  0  0  0  0  0  0
  -30.9360  -20.4124   19.6170 C   0  0  0  0  0  0  0  0  0  0  0  0
  -26.9196  -27.9305   21.1702 C   0  0  0  0  0  0  0  0  0  0  0  0
  -21.3769   -9.0531   28.0240 C   0  0  0  0  0  0  0  0  0  0  0  0
  -28.4529  -19.4499   20.2115 C   0  0  0  0  0  0  0  0  0  0  0  0
  -23.8699  -12.5920   22.5561 C   0  0  0  0  0  0  0  0  0  0  0  0
  -24.2517  -12.5938   20.0338 C   0  0  0  0  0  0  0  0  0  0  0  0
  -20.2162  -35.1578   19.8561 C   0  0  0  0  0  0  0  0  0  0  0  0
  -25.1920  -29.1900   20.0237 C   0  0  0  0  0  0  0  0  0  0  0  0
  -21.5403  -34.7661   19.5811 C   0  0  0  0  0  0  0  0  0  0  0  0
  -26.1069  -29.0639   21.0819 C   0  0  0  0  0  0  0  0  0  0  0  0
  -29.5037  -18.5503   20.1325 C   0  0  0  0  0  0  0  0  0  0  0  0
  -22.3244  -12.2665   24.8556 C   0  0  0  0  0  0  0  0  0  0  0  0
  -26.8138  -26.9222   20.2121 C   0  0  0  0  0  0  0  0  0  0  0  0
  -21.2711  -10.8149   26.3741 C   0  0  0  0  0  0  0  0  0  0  0  0
  -20.6645   -8.2109   27.1702 C   0  0  0  0  0  0  0  0  0  0  0  0
  -21.6801  -10.3551   27.6259 C   0  0  0  0  0  0  0  0  0  0  0  0
  -24.6682  -12.7594   21.3683 C   0  0  0  0  0  0  0  0  0  0  0  0
  -29.8210  -21.2286   19.7190 C   0  0  0  0  0  0  0  0  0  0  0  0
  -25.3726  -12.8658   19.2881 C   0  0  0  0  0  0  0  0  0  0  0  0
  -22.9665  -12.2271   19.5147 C   0  0  0  0  0  0  0  0  0  0  0  0
  -23.9499  -32.5129   21.2453 C   0  0  0  0  0  0  0  0  0  0  0  0
  -24.3342  -30.7408   23.7196 C   0  0  0  0  0  0  0  0  0  0  0  0
  -24.1338  -29.2412   26.7772 C   0  0  0  0  0  0  0  0  0  0  0  0
  -30.2569  -16.1529   20.3098 C   0  0  0  0  0  0  0  0  0  0  0  0
  -19.7348  -35.3921   21.2661 C   0  0  0  0  0  0  0  0  0  0  0  0
  -24.3883  -30.4579   19.9218 C   0  0  0  0  0  0  0  0  0  0  0  0
  -26.1938  -30.1884   22.0773 C   0  0  0  0  0  0  0  0  0  0  0  0
  -20.6311  -34.7608   22.3285 C   0  0  0  0  0  0  0  0  0  0  0  0
  -30.1530  -12.6849   19.5102 C   0  0  0  0  0  0  0  0  0  0  0  0
  -31.2388  -24.3570   18.2971 C   0  0  0  0  0  0  0  0  0  0  0  0
  -22.0974  -35.0661   22.0398 C   0  0  0  0  0  0  0  0  0  0  0  0
  -28.6954  -12.2968   19.7687 C   0  0  0  0  0  0  0  0  0  0  0  0
  -30.3501  -25.4110   18.9499 C   0  0  0  0  0  0  0  0  0  0  0  0
  -30.5282  -23.0115   18.1942 C   0  0  0  0  0  0  0  0  0  0  0  0
  -30.6556  -13.7097   20.5256 C   0  0  0  0  0  0  0  0  0  0  0  0
  -28.3635  -14.5222   20.9194 C   0  0  0  0  0  0  0  0  0  0  0  0
  -29.1550  -23.5641   20.2131 C   0  0  0  0  0  0  0  0  0  0  0  0
  -22.5282  -34.4780   20.6907 C   0  0  1  0  0  0  0  0  0  0  0  0
  -23.9606  -31.0132   21.2921 C   0  0  1  0  0  0  0  0  0  0  0  0
  -27.7927  -13.5408   19.8828 C   0  0  2  0  0  0  0  0  0  0  0  0
  -29.8389  -24.9377   20.3160 C   0  0  2  0  0  0  0  0  0  0  0  0
  -24.1997  -29.7571   29.2322 C   0  0  0  0  0  0  0  0  0  0  0  0
  -27.3618  -31.0772   23.5640 C   0  0  0  0  0  0  0  0  0  0  0  0
  -27.4664  -30.6354   26.0261 C   0  0  0  0  0  0  0  0  0  0  0  0
  -26.2216  -32.6198   25.1686 C   0  0  0  0  0  0  0  0  0  0  0  0
  -21.3909  -28.2078   27.1861 C   0  0  0  0  0  0  0  0  0  0  0  0
  -31.6143  -26.0461   21.3847 C   0  0  0  0  0  0  0  0  0  0  0  0
  -28.8752  -25.9654   20.9142 C   0  0  0  0  0  0  0  0  0  1  0  0
  -25.2507  -30.3091   24.8364 C   0  0  1  0  0  0  0  0  0  0  0  0
  -23.3131  -29.5732   28.0103 C   0  0  2  0  0  0  0  0  0  0  0  0
  -26.5632  -31.1415   24.8811 C   0  0  0  0  0  0  0  0  0  0  0  0
  -28.5795  -20.7810   20.0119 N   0  0  0  0  0  0  0  0  0  0  0  0
  -25.9534  -13.1093   21.4678 N   0  0  0  0  0  0  0  0  0  0  0  0
  -26.3542  -13.1657   20.1863 N   0  0  0  0  0  0  0  0  0  0  0  0
  -30.0089  -22.5998   19.5041 N   0  0  1  0  0  0  0  0  0  0  0  0
  -24.8436  -30.6635   22.4177 N   0  0  0  0  0  0  0  0  0  0  0  0
  -29.7533  -14.8621   20.5761 N   0  0  0  0  0  0  0  0  0  0  0  0
  -25.6045  -12.8752   17.9582 N   0  0  0  0  0  0  0  0  0  0  0  0
  -21.9250  -11.9829   20.4203 N   0  0  0  0  0  0  0  0  0  0  0  0
  -29.2996  -17.1659   20.3549 N   0  0  0  0  0  0  0  0  0  0  0  0
  -22.7553  -33.0537   20.8096 N   0  0  0  0  0  0  0  0  0  0  0  0
  -24.4603  -30.3734   26.0610 N   0  0  0  0  0  0  0  0  0  0  0  0
  -22.3409  -28.4802   28.2952 N   0  3  0  0  0  0  0  0  0  0  0  0
  -22.7525  -12.1030   18.2849 O   0  0  0  0  0  0  0  0  0  0  0  0
  -24.9510  -33.1349   21.5810 O   0  0  0  0  0  0  0  0  0  0  0  0
  -23.1990  -31.1414   23.9918 O   0  0  0  0  0  0  0  0  0  0  0  0
  -24.4564  -28.0929   26.4810 O   0  0  0  0  0  0  0  0  0  0  0  0
  -31.4442  -16.3420   20.0334 O   0  0  0  0  0  0  0  0  0  0  0  0
  -21.5707  -12.1075   25.9778 O   0  0  0  0  0  0  0  0  0  0  0  0
  -27.5935  -25.8096   20.3064 O   0  0  0  0  0  0  0  0  0  1  0  0
  -30.9447  -24.8083   21.2159 O   0  0  0  0  0  0  0  0  0  0  0  0
  -20.3719   -6.9610   27.5530 F   0  0  0  0  0  0  0  0  0  0  0  0
  -22.3637  -11.1601   28.4509 F   0  0  0  0  0  0  0  0  0  0  0  0
  1  2  1  0  0  0  0
  1  5  2  0  0  0  0
  2  6  2  0  0  0  0
  3  9  2  0  0  0  0
  3 18  1  0  0  0  0
  4 10  1  0  0  0  0
  4 18  2  0  0  0  0
  5 20  1  0  0  0  0
  6 22  1  0  0  0  0
  7 11  2  0  0  0  0
  7 21  1  0  0  0  0
  8 14  2  0  0  0  0
  8 24  1  0  0  0  0
  9 25  1  0  0  0  0
 10 25  2  0  0  0  0
 11 26  1  0  0  0  0
 12 13  2  0  0  0  0
 12 27  1  0  0  0  0
 13 28  1  0  0  0  0
 14 31  1  0  0  0  0
 15 23  1  0  0  0  0
 15 26  2  0  0  0  0
 16 28  2  0  0  0  0
 16 29  1  0  0  0  0
 17 24  2  0  0  0  0
 17 65  1  0  0  0  0
 18 30  1  0  0  0  0
 19 30  1  0  0  0  0
 19 32  2  0  0  0  0
 19 33  1  0  0  0  0
 20 22  2  0  0  0  0
 20 38  1  0  0  0  0
 21 23  2  0  0  0  0
 21 39  1  0  0  0  0
 22 51  1  0  0  0  0
 23 40  1  0  0  0  0
 24 73  1  0  0  0  0
 25 82  1  0  0  0  0
 26 83  1  0  0  0  0
 27 29  2  0  0  0  0
 27 82  1  0  0  0  0
 28 85  1  0  0  0  0
 29 86  1  0  0  0  0
 30 66  2  0  0  0  0
 31 65  2  0  0  0  0
 31 68  1  0  0  0  0
 32 67  1  0  0  0  0
 32 71  1  0  0  0  0
 33 72  1  0  0  0  0
 33 77  2  0  0  0  0
 34 52  1  0  0  0  0
 34 74  1  0  0  0  0
 34 78  2  0  0  0  0
 35 62  1  0  0  0  0
 35 69  1  0  0  0  0
 35 79  2  0  0  0  0
 36 63  1  0  0  0  0
 36 75  1  0  0  0  0
 36 80  2  0  0  0  0
 37 70  1  0  0  0  0
 37 73  1  0  0  0  0
 37 81  2  0  0  0  0
 38 41  1  0  0  0  0
 39 52  1  0  0  0  0
 40 69  1  0  0  0  0
 41 44  1  0  0  0  0
 42 45  1  0  0  0  0
 42 48  1  0  0  0  0
 43 46  1  0  0  0  0
 43 47  1  0  0  0  0
 44 51  1  0  0  0  0
 45 53  1  0  0  0  0
 46 54  1  0  0  0  0
 47 68  1  0  0  0  0
 48 70  1  0  0  0  0
 49 53  1  0  0  0  0
 49 70  1  0  0  0  0
 50 54  1  0  0  0  0
 50 68  1  0  0  0  0
 51 74  1  0  0  0  0
 52 69  1  0  0  0  0
 53 67  1  0  0  0  0
 54 61  1  0  0  0  0
 54 84  1  0  0  0  0
 55 63  1  0  0  0  0
 56 64  1  0  0  0  0
 57 64  1  0  0  0  0
 58 64  1  0  0  0  0
 59 76  1  0  0  0  0
 60 84  1  0  0  0  0
 61 83  1  0  0  0  0
 62 64  1  0  0  0  0
 62 75  1  0  0  0  0
 63 76  1  0  0  0  0
 66 67  1  0  0  0  0
M  CHG  1  76   1
M  ISO  4  37 100  61 101  73 100  83 101
M  END
> <Batch ID>
0165

> <Smiles>
CNC(C)C(=O)NC(C(=O)N1Cc2cc([101O:1][101CH2:1]C3(OC)CCCN(c4ccc([100NH:0][100C:0](=O)N5CCCC(n6nc(-c7ccc(Oc8ccc(F)cc8F)cc7)c(C(N)=O)c6N)C5)cn4)C3)ccc2CC1C(=O)NC1CCCc2ccccc21)C(C)(C)C

> <Shape>
0.268

> <Color>
0.097

> <Negative vol penalty>
0.000

$$$$

  -OEChem-04052304053D

 88 96  0     1  0  0  0  0  0999 V2000
  -17.2472  -27.3438   20.9090 C   0  0  0  0  0  0  0  0  0  0  0  0
  -18.2768  -26.5928   21.4671 C   0  0  0  0  0  0  0  0  0  0  0  0
  -23.3390   -9.6464   19.9797 C   0  0  0  0  0  0  0  0  0  0  0  0
  -23.9165   -9.8799   22.3140 C   0  0  0  0  0  0  0  0  0  0  0  0
  -17.5213  -28.5884   20.3434 C   0  0  0  0  0  0  0  0  0  0  0  0
  -19.5812  -27.0855   21.4589 C   0  0  0  0  0  0  0  0  0  0  0  0
  -23.8527  -26.2672   25.7707 C   0  0  0  0  0  0  0  0  0  0  0  0
  -22.6935   -8.4420   20.2598 C   0  0  0  0  0  0  0  0  0  0  0  0
  -23.2710   -8.6756   22.5942 C   0  0  0  0  0  0  0  0  0  0  0  0
  -24.9229  -25.3797   25.8742 C   0  0  0  0  0  0  0  0  0  0  0  0
  -20.0988   -7.5932   23.0259 C   0  0  0  0  0  0  0  0  0  0  0  0
  -19.2618   -7.5523   24.1409 C   0  0  0  0  0  0  0  0  0  0  0  0
  -29.1082  -18.0830   23.0874 C   0  0  0  0  0  0  0  0  0  0  0  0
  -30.8974  -19.2490   24.2168 C   0  0  0  0  0  0  0  0  0  0  0  0
  -26.4007  -27.0679   24.9879 C   0  0  0  0  0  0  0  0  0  0  0  0
  -31.4029  -17.4254   22.7148 C   0  0  0  0  0  0  0  0  0  0  0  0
  -20.6252   -5.8037   25.1004 C   0  0  0  0  0  0  0  0  0  0  0  0
  -23.9505  -10.3654   21.0068 C   0  0  0  0  0  0  0  0  0  0  0  0
  -29.5361  -19.0795   23.9646 C   0  0  0  0  0  0  0  0  0  0  0  0
  -24.0539  -12.8990   20.7286 C   0  0  0  0  0  0  0  0  0  0  0  0
  -18.8281  -29.1009   20.3370 C   0  0  0  0  0  0  0  0  0  0  0  0
  -24.0467  -27.5602   25.2639 C   0  0  0  0  0  0  0  0  0  0  0  0
  -19.8732  -28.3375   20.8916 C   0  0  0  0  0  0  0  0  0  0  0  0
  -25.3317  -27.9707   24.8813 C   0  0  0  0  0  0  0  0  0  0  0  0
  -30.0415  -17.2559   22.4625 C   0  0  0  0  0  0  0  0  0  0  0  0
  -22.6595   -7.9566   21.5671 C   0  0  0  0  0  0  0  0  0  0  0  0
  -26.1966  -25.7790   25.4802 C   0  0  0  0  0  0  0  0  0  0  0  0
  -21.1991   -6.7392   22.9481 C   0  0  0  0  0  0  0  0  0  0  0  0
  -19.5249   -6.6576   25.1782 C   0  0  0  0  0  0  0  0  0  0  0  0
  -31.8309  -18.4220   23.5919 C   0  0  0  0  0  0  0  0  0  0  0  0
  -21.4622   -5.8445   23.9854 C   0  0  0  0  0  0  0  0  0  0  0  0
  -24.6179  -11.6093   20.7179 C   0  0  0  0  0  0  0  0  0  0  0  0
  -25.0928  -13.7309   20.3893 C   0  0  0  0  0  0  0  0  0  0  0  0
  -28.5423  -19.9589   24.6324 C   0  0  0  0  0  0  0  0  0  0  0  0
  -22.7109  -13.3086   21.0194 C   0  0  0  0  0  0  0  0  0  0  0  0
  -22.9557  -29.1716   22.7505 C   0  0  0  0  0  0  0  0  0  0  0  0
  -28.2211  -22.7649   26.1176 C   0  0  0  0  0  0  0  0  0  0  0  0
  -24.5457  -31.6381   24.1327 C   0  0  0  0  0  0  0  0  0  0  0  0
  -27.0379  -32.6703   26.2231 C   0  0  0  0  0  0  0  0  0  0  0  0
  -30.4021  -15.3382   20.8691 C   0  0  0  0  0  0  0  0  0  0  0  0
  -19.0833  -30.4302   19.6719 C   0  0  0  0  0  0  0  0  0  0  0  0
  -22.8868  -28.5145   25.1835 C   0  0  0  0  0  0  0  0  0  0  0  0
  -25.5967  -29.3548   24.3498 C   0  0  0  0  0  0  0  0  0  0  0  0
  -20.4311  -31.0460   20.0386 C   0  0  0  0  0  0  0  0  0  0  0  0
  -29.7121  -12.6745   18.6096 C   0  0  0  0  0  0  0  0  0  0  0  0
  -21.5390  -30.0019   19.9424 C   0  0  0  0  0  0  0  0  0  0  0  0
  -28.2789  -12.2660   18.9575 C   0  0  0  0  0  0  0  0  0  0  0  0
  -30.5058  -13.0731   19.8525 C   0  0  0  0  0  0  0  0  0  0  0  0
  -28.4373  -13.6873   21.0412 C   0  0  0  0  0  0  0  0  0  0  0  0
  -21.2971  -28.8489   20.9241 C   0  0  1  0  0  0  0  0  0  0  0  0
  -23.1043  -29.6355   24.1719 C   0  0  1  0  0  0  0  0  0  0  0  0
  -27.5791  -13.3395   19.8140 C   0  0  2  0  0  0  0  0  0  0  0  0
  -28.1199  -34.7479   27.1233 C   0  0  0  0  0  0  0  0  0  0  0  0
  -29.6996  -21.7200   28.5781 C   0  0  0  0  0  0  0  0  0  0  0  0
  -28.0736  -19.8149   28.6580 C   0  0  0  0  0  0  0  0  0  0  0  0
  -25.9782  -32.0432   21.4693 C   0  0  0  0  0  0  0  0  0  0  0  0
  -27.6689  -33.4448   22.6713 C   0  0  0  0  0  0  0  0  0  0  0  0
  -25.2788  -34.1562   22.6095 C   0  0  0  0  0  0  0  0  0  0  0  0
  -26.3334  -31.9690   29.0108 C   0  0  0  0  0  0  0  0  0  0  0  0
  -26.9640  -23.6140   26.0964 C   0  0  0  0  0  0  0  0  0  1  0  0
  -28.0618  -21.3388   26.6376 C   0  0  2  0  0  0  0  0  0  0  0  0
  -25.9492  -32.1874   24.0469 C   0  0  1  0  0  0  0  0  0  0  0  0
  -27.0515  -33.6893   27.3483 C   0  0  2  0  0  0  0  0  0  0  0  0
  -28.3065  -21.2431   28.1552 C   0  0  0  0  0  0  0  0  0  0  0  0
  -26.2138  -32.9311   22.7074 C   0  0  0  0  0  0  0  0  0  0  0  0
  -25.9144  -11.6161   20.3970 N   0  0  0  0  0  0  0  0  0  0  0  0
  -26.1737  -12.9204   20.2028 N   0  0  0  0  0  0  0  0  0  0  0  0
  -24.4291  -30.2491   24.2844 N   0  0  0  0  0  0  0  0  0  0  0  0
  -29.7838  -14.0963   20.6119 N   0  0  0  0  0  0  0  0  0  0  0  0
  -25.1779  -15.0693   20.2350 N   0  0  0  0  0  0  0  0  0  0  0  0
  -21.7692  -12.3247   21.3501 N   0  0  0  0  0  0  0  0  0  0  0  0
  -29.6072  -16.2436   21.5713 N   0  0  0  0  0  0  0  0  0  0  0  0
  -28.9241  -20.4891   25.8577 N   0  0  0  0  0  0  0  0  0  0  0  0
  -21.6630  -29.2438   22.2674 N   0  0  0  0  0  0  0  0  0  0  0  0
  -26.1383  -33.0118   25.2356 N   0  0  0  0  0  0  0  0  0  0  0  0
  -27.3215  -33.0185   28.6514 N   0  3  0  0  0  0  0  0  0  0  0  0
  -27.4551  -20.1523   24.0946 O   0  0  0  0  0  0  0  0  0  0  0  0
  -22.3527  -14.5098   20.9710 O   0  0  0  0  0  0  0  0  0  0  0  0
  -23.9410  -28.7787   22.1370 O   0  0  0  0  0  0  0  0  0  0  0  0
  -29.3103  -23.2164   25.7629 O   0  0  0  0  0  0  0  0  0  0  0  0
  -23.5882  -32.4137   24.0745 O   0  0  0  0  0  0  0  0  0  0  0  0
  -27.7565  -31.6732   26.2188 O   0  0  0  0  0  0  0  0  0  0  0  0
  -31.5420  -15.5906   20.4705 O   0  0  0  0  0  0  0  0  0  0  0  0
  -22.0296   -6.7815   21.8408 O   0  0  0  0  0  0  0  0  0  0  0  0
  -27.2429  -24.9146   25.5796 O   0  0  0  0  0  0  0  0  0  1  0  0
  -18.7219   -6.6196   26.2496 F   0  0  0  0  0  0  0  0  0  0  0  0
  -33.1379  -18.5827   23.8364 F   0  0  0  0  0  0  0  0  0  0  0  0
  -22.5184   -5.0225   23.9168 F   0  0  0  0  0  0  0  0  0  0  0  0
  1  2  1  0  0  0  0
  1  5  2  0  0  0  0
  2  6  2  0  0  0  0
  3  8  2  0  0  0  0
  3 18  1  0  0  0  0
  4  9  1  0  0  0  0
  4 18  2  0  0  0  0
  5 21  1  0  0  0  0
  6 23  1  0  0  0  0
  7 10  2  0  0  0  0
  7 22  1  0  0  0  0
  8 26  1  0  0  0  0
  9 26  2  0  0  0  0
 10 27  1  0  0  0  0
 11 12  2  0  0  0  0
 11 28  1  0  0  0  0
 12 29  1  0  0  0  0
 13 19  2  0  0  0  0
 13 25  1  0  0  0  0
 14 19  1  0  0  0  0
 14 30  2  0  0  0  0
 15 24  1  0  0  0  0
 15 27  2  0  0  0  0
 16 25  2  0  0  0  0
 16 30  1  0  0  0  0
 17 29  2  0  0  0  0
 17 31  1  0  0  0  0
 18 32  1  0  0  0  0
 19 34  1  0  0  0  0
 20 32  1  0  0  0  0
 20 33  2  0  0  0  0
 20 35  1  0  0  0  0
 21 23  2  0  0  0  0
 21 41  1  0  0  0  0
 22 24  2  0  0  0  0
 22 42  1  0  0  0  0
 23 50  1  0  0  0  0
 24 43  1  0  0  0  0
 25 72  1  0  0  0  0
 26 84  1  0  0  0  0
 27 85  1  0  0  0  0
 28 31  2  0  0  0  0
 28 84  1  0  0  0  0
 29 86  1  0  0  0  0
 30 87  1  0  0  0  0
 31 88  1  0  0  0  0
 32 66  2  0  0  0  0
 33 67  1  0  0  0  0
 33 70  1  0  0  0  0
 34 73  1  0  0  0  0
 34 77  2  0  0  0  0
 35 71  1  0  0  0  0
 35 78  2  0  0  0  0
 36 51  1  0  0  0  0
 36 74  1  0  0  0  0
 36 79  2  0  0  0  0
 37 60  1  0  0  0  0
 37 61  1  0  0  0  0
 37 80  2  0  0  0  0
 38 62  1  0  0  0  0
 38 68  1  0  0  0  0
 38 81  2  0  0  0  0
 39 63  1  0  0  0  0
 39 75  1  0  0  0  0
 39 82  2  0  0  0  0
 40 69  1  0  0  0  0
 40 72  1  0  0  0  0
 40 83  2  0  0  0  0
 41 44  1  0  0  0  0
 42 51  1  0  0  0  0
 43 68  1  0  0  0  0
 44 46  1  0  0  0  0
 45 47  1  0  0  0  0
 45 48  1  0  0  0  0
 46 50  1  0  0  0  0
 47 52  1  0  0  0  0
 48 69  1  0  0  0  0
 49 52  1  0  0  0  0
 49 69  1  0  0  0  0
 50 74  1  0  0  0  0
 51 68  1  0  0  0  0
 52 67  1  0  0  0  0
 53 63  1  0  0  0  0
 54 64  1  0  0  0  0
 55 64  1  0  0  0  0
 56 65  1  0  0  0  0
 57 65  1  0  0  0  0
 58 65  1  0  0  0  0
 59 76  1  0  0  0  0
 60 85  1  0  0  0  0
 61 64  1  0  0  0  0
 61 73  1  0  0  0  0
 62 65  1  0  0  0  0
 62 75  1  0  0  0  0
 63 76  1  0  0  0  0
 66 67  1  0  0  0  0
M  CHG  1  76   1
M  ISO  4  40 100  60 101  72 100  85 101
M  END
> <Batch ID>
0165

> <Smiles>
CNC(C)C(=O)NC(C(=O)N1Cc2cc([101O:1][101CH2:1]C(=O)C(NC(=O)c3cc(F)cc([100NH:0][100C:0](=O)N4CCCC(n5nc(-c6ccc(Oc7ccc(F)cc7F)cc6)c(C(N)=O)c5N)C4)c3)C(C)C)ccc2CC1C(=O)NC1CCCc2ccccc21)C(C)(C)C

> <Shape>
0.288

> <Color>
0.211

> <Negative vol penalty>
0.000

$$$$

  -OEChem-04052304053D

 85 93  0     1  0  0  0  0  0999 V2000
  -28.6122  -24.5323   16.6898 C   0  0  0  0  0  0  0  0  0  0  0  0
  -27.4049  -24.6730   17.3666 C   0  0  0  0  0  0  0  0  0  0  0  0
  -27.8056  -15.2817   19.7166 C   0  0  0  0  0  0  0  0  0  0  0  0
  -25.8541  -15.9032   20.9981 C   0  0  0  0  0  0  0  0  0  0  0  0
  -29.7753  -25.0907   17.2181 C   0  0  0  0  0  0  0  0  0  0  0  0
  -27.3603  -25.3714   18.5727 C   0  0  0  0  0  0  0  0  0  0  0  0
  -23.4379  -28.5645   18.8249 C   0  0  0  0  0  0  0  0  0  0  0  0
  -27.4585  -13.9365   19.8404 C   0  0  0  0  0  0  0  0  0  0  0  0
  -25.5069  -14.5579   21.1218 C   0  0  0  0  0  0  0  0  0  0  0  0
  -22.1871  -28.0158   19.1047 C   0  0  0  0  0  0  0  0  0  0  0  0
  -24.0494  -12.1778   19.2162 C   0  0  0  0  0  0  0  0  0  0  0  0
  -22.7158  -11.8316   18.9994 C   0  0  0  0  0  0  0  0  0  0  0  0
  -22.4117  -28.6940   21.4088 C   0  0  0  0  0  0  0  0  0  0  0  0
  -22.5752  -10.9638   21.2498 C   0  0  0  0  0  0  0  0  0  0  0  0
  -27.0034  -16.2651   20.2955 C   0  0  0  0  0  0  0  0  0  0  0  0
  -27.5074  -18.3898   18.9766 C   0  0  0  0  0  0  0  0  0  0  0  0
  -29.7432  -25.8045   18.4264 C   0  0  0  0  0  0  0  0  0  0  0  0
  -24.1909  -29.1735   19.8390 C   0  0  0  0  0  0  0  0  0  0  0  0
  -28.5244  -25.9387   19.1183 C   0  0  0  0  0  0  0  0  0  0  0  0
  -23.6706  -29.2520   21.1387 C   0  0  0  0  0  0  0  0  0  0  0  0
  -26.3092  -13.5745   20.5430 C   0  0  0  0  0  0  0  0  0  0  0  0
  -21.6751  -28.0779   20.3974 C   0  0  0  0  0  0  0  0  0  0  0  0
  -24.6461  -11.9169   20.4498 C   0  0  0  0  0  0  0  0  0  0  0  0
  -21.9786  -11.2247   20.0162 C   0  0  0  0  0  0  0  0  0  0  0  0
  -23.9089  -11.3100   21.4666 C   0  0  0  0  0  0  0  0  0  0  0  0
  -27.3618  -17.6549   20.1684 C   0  0  0  0  0  0  0  0  0  0  0  0
  -27.8535  -19.6524   19.3918 C   0  0  0  0  0  0  0  0  0  0  0  0
  -24.5881  -23.4029   24.9147 C   0  0  0  0  0  0  0  0  0  0  0  0
  -27.3444  -17.9687   17.6157 C   0  0  0  0  0  0  0  0  0  0  0  0
  -22.6382  -26.4653   22.5804 C   0  0  0  0  0  0  0  0  0  0  0  0
  -22.9228  -26.6879   24.0190 C   0  0  0  0  0  0  0  0  0  0  0  0
  -27.0203  -28.6143   21.1754 C   0  0  0  0  0  0  0  0  0  0  0  0
  -26.9130  -22.5765   24.5568 C   0  0  0  0  0  0  0  0  0  0  0  0
  -26.4125  -31.4081   22.7077 C   0  0  0  0  0  0  0  0  0  0  0  0
  -24.1010  -33.6584   23.8212 C   0  0  0  0  0  0  0  0  0  0  0  0
  -31.0350  -26.3498   18.9820 C   0  0  0  0  0  0  0  0  0  0  0  0
  -25.5268  -29.7843   19.5152 C   0  0  0  0  0  0  0  0  0  0  0  0
  -24.4305  -29.9129   22.2586 C   0  0  0  0  0  0  0  0  0  0  0  0
  -23.7610  -24.3329   24.0546 C   0  0  0  0  0  0  0  0  0  0  0  0
  -30.8343  -27.3954   20.0759 C   0  0  0  0  0  0  0  0  0  0  0  0
  -30.0548  -21.9616   22.9471 C   0  0  0  0  0  0  0  0  0  0  0  0
  -29.7951  -26.9189   21.0857 C   0  0  0  0  0  0  0  0  0  0  0  0
  -29.7400  -20.8348   21.9640 C   0  0  0  0  0  0  0  0  0  0  0  0
  -23.6582  -24.3733   26.8205 C   0  0  0  0  0  0  0  0  0  0  0  0
  -29.2457  -21.8230   24.2329 C   0  0  0  0  0  0  0  0  0  0  0  0
  -27.4525  -20.6122   23.0330 C   0  0  0  0  0  0  0  0  0  0  0  0
  -28.4310  -26.7104   20.4168 C   0  0  1  0  0  0  0  0  0  0  0  0
  -26.4312  -29.9248   20.7356 C   0  0  1  0  0  0  0  0  0  0  0  0
  -28.2260  -20.7315   21.7079 C   0  0  2  0  0  0  0  0  0  0  0  0
  -23.7552  -25.7340   26.1344 C   0  0  1  0  0  0  0  0  0  0  0  0
  -25.1182  -26.3965   26.3585 C   0  0  0  0  0  0  0  0  0  0  0  0
  -23.9044  -35.8247   25.0726 C   0  0  0  0  0  0  0  0  0  0  0  0
  -18.8238  -26.5144   22.0959 C   0  0  0  0  0  0  0  0  0  0  0  0
  -26.9269  -29.9367   25.3307 C   0  0  0  0  0  0  0  0  0  0  0  0
  -25.8128  -31.8306   26.5308 C   0  0  0  0  0  0  0  0  0  0  0  0
  -27.8949  -32.2400   25.2194 C   0  0  0  0  0  0  0  0  0  0  0  0
  -22.8604  -35.0185   21.5038 C   0  0  0  0  0  0  0  0  0  0  0  0
  -25.4569  -22.3960   24.2089 C   0  0  0  0  0  0  0  0  0  0  0  0
  -21.2661  -25.9250   22.2509 C   0  0  0  0  0  0  0  0  0  0  0  0
  -25.7275  -31.7935   23.9966 C   0  0  1  0  0  0  0  0  0  0  0  0
  -24.0300  -35.1704   23.7056 C   0  0  2  0  0  0  0  0  0  0  0  0
  -20.2503  -27.0376   21.9923 C   0  0  1  0  0  0  0  0  0  1  0  0
  -26.5768  -31.4360   25.2489 C   0  0  0  0  0  0  0  0  0  0  0  0
  -27.5963  -18.3895   21.2590 N   0  0  0  0  0  0  0  0  0  0  0  0
  -24.5520  -23.3932   26.2042 N   0  0  0  0  0  0  0  0  0  0  0  0
  -27.8929  -19.5991   20.7540 N   0  0  0  0  0  0  0  0  0  0  0  0
  -23.4700  -25.6073   24.7028 N   0  0  0  0  0  0  0  0  0  0  0  0
  -25.7348  -30.4898   21.8932 N   0  0  0  0  0  0  0  0  0  0  0  0
  -27.8150  -21.7052   23.9459 N   0  0  0  0  0  0  0  0  0  0  0  0
  -28.1250  -20.7920   18.7208 N   0  0  0  0  0  0  0  0  0  0  0  0
  -26.0773  -18.0838   17.0280 N   0  0  0  0  0  0  0  0  0  0  0  0
  -27.7727  -27.9816   20.2044 N   0  0  0  0  0  0  0  0  0  0  0  0
  -25.4040  -33.2112   23.8789 N   0  0  0  0  0  0  0  0  0  0  0  0
  -22.8546  -35.5723   22.8823 N   0  3  0  0  0  0  0  0  0  0  0  0
  -28.2905  -17.4888   16.9462 O   0  0  0  0  0  0  0  0  0  0  0  0
  -23.5246  -26.7349   21.7852 O   0  0  0  0  0  0  0  0  0  0  0  0
  -22.6393  -27.7951   24.4561 O   0  0  0  0  0  0  0  0  0  0  0  0
  -26.8091  -28.2081   22.3121 O   0  0  0  0  0  0  0  0  0  0  0  0
  -27.2375  -23.4677   25.3458 O   0  0  0  0  0  0  0  0  0  0  0  0
  -27.5051  -31.9090   22.4302 O   0  0  0  0  0  0  0  0  0  0  0  0
  -23.1005  -32.9457   23.8605 O   0  0  0  0  0  0  0  0  0  0  0  0
  -25.9700  -12.2619   20.6637 O   0  0  0  0  0  0  0  0  0  0  0  0
  -20.4548  -27.5425   20.6734 O   0  0  0  0  0  0  0  0  0  1  0  0
  -20.6974  -10.8937   19.8084 F   0  0  0  0  0  0  0  0  0  0  0  0
  -24.4763  -11.0579   22.6542 F   0  0  0  0  0  0  0  0  0  0  0  0
  1  2  1  0  0  0  0
  1  5  2  0  0  0  0
  2  6  2  0  0  0  0
  3  8  2  0  0  0  0
  3 15  1  0  0  0  0
  4  9  1  0  0  0  0
  4 15  2  0  0  0  0
  5 17  1  0  0  0  0
  6 19  1  0  0  0  0
  7 10  2  0  0  0  0
  7 18  1  0  0  0  0
  8 21  1  0  0  0  0
  9 21  2  0  0  0  0
 10 22  1  0  0  0  0
 11 12  2  0  0  0  0
 11 23  1  0  0  0  0
 12 24  1  0  0  0  0
 13 20  1  0  0  0  0
 13 22  2  0  0  0  0
 14 24  2  0  0  0  0
 14 25  1  0  0  0  0
 15 26  1  0  0  0  0
 16 26  1  0  0  0  0
 16 27  2  0  0  0  0
 16 29  1  0  0  0  0
 17 19  2  0  0  0  0
 17 36  1  0  0  0  0
 18 20  2  0  0  0  0
 18 37  1  0  0  0  0
 19 47  1  0  0  0  0
 20 38  1  0  0  0  0
 21 82  1  0  0  0  0
 22 83  1  0  0  0  0
 23 25  2  0  0  0  0
 23 82  1  0  0  0  0
 24 84  1  0  0  0  0
 25 85  1  0  0  0  0
 26 64  2  0  0  0  0
 27 66  1  0  0  0  0
 27 70  1  0  0  0  0
 28 39  1  0  0  0  0
 28 58  1  0  0  0  0
 28 65  2  0  0  0  0
 29 71  1  0  0  0  0
 29 75  2  0  0  0  0
 30 31  1  0  0  0  0
 30 59  1  0  0  0  0
 30 76  2  0  0  0  0
 31 67  1  0  0  0  0
 31 77  2  0  0  0  0
 32 48  1  0  0  0  0
 32 72  1  0  0  0  0
 32 78  2  0  0  0  0
 33 58  1  0  0  0  0
 33 69  1  0  0  0  0
 33 79  2  0  0  0  0
 34 60  1  0  0  0  0
 34 68  1  0  0  0  0
 34 80  2  0  0  0  0
 35 61  1  0  0  0  0
 35 73  1  0  0  0  0
 35 81  2  0  0  0  0
 36 40  1  0  0  0  0
 37 48  1  0  0  0  0
 38 68  1  0  0  0  0
 39 67  1  0  0  0  0
 40 42  1  0  0  0  0
 41 43  1  0  0  0  0
 41 45  1  0  0  0  0
 42 47  1  0  0  0  0
 43 49  1  0  0  0  0
 44 50  1  0  0  0  0
 44 65  1  0  0  0  0
 45 69  1  0  0  0  0
 46 49  1  0  0  0  0
 46 69  1  0  0  0  0
 47 72  1  0  0  0  0
 48 68  1  0  0  0  0
 49 66  1  0  0  0  0
 50 51  1  0  0  0  0
 50 67  1  0  0  0  0
 52 61  1  0  0  0  0
 53 62  1  0  0  0  0
 54 63  1  0  0  0  0
 55 63  1  0  0  0  0
 56 63  1  0  0  0  0
 57 74  1  0  0  0  0
 59 62  1  0  0  0  0
 60 63  1  0  0  0  0
 60 73  1  0  0  0  0
 61 74  1  0  0  0  0
 62 83  1  0  0  0  0
 64 66  1  0  0  0  0
M  CHG  1  74   1
M  ISO  4  33 100  58 100  62 101  83 101
M  END
> <Batch ID>
0165

> <Smiles>
CNC(C)C(=O)NC(C(=O)N1Cc2cc([101O:1][101CH:1](C)CC(=O)C(=O)N3CC([100CH2:0][100C:0](=O)N4CCCC(n5nc(-c6ccc(Oc7ccc(F)cc7F)cc6)c(C(N)=O)c5N)C4)=NCC3C)ccc2CC1C(=O)NC1CCCc2ccccc21)C(C)(C)C

> <Shape>
0.299

> <Color>
0.067

> <Negative vol penalty>
0.000

$$$$

  -OEChem-04052304053D

 88 97  0     1  0  0  0  0  0999 V2000
  -20.0000   -9.9196   23.0710 C   0  0  0  0  0  0  0  0  0  0  0  0
  -20.8710  -10.8551   23.6201 C   0  0  0  0  0  0  0  0  0  0  0  0
  -26.2070  -29.1602   19.4217 C   0  0  0  0  0  0  0  0  0  0  0  0
  -26.2599  -28.5210   21.7510 C   0  0  0  0  0  0  0  0  0  0  0  0
  -20.4206   -9.1133   22.0142 C   0  0  0  0  0  0  0  0  0  0  0  0
  -22.1637  -10.9841   23.1133 C   0  0  0  0  0  0  0  0  0  0  0  0
  -23.5247  -15.8192   22.4700 C   0  0  0  0  0  0  0  0  0  0  0  0
  -25.0225  -29.8632   19.6415 C   0  0  0  0  0  0  0  0  0  0  0  0
  -25.0754  -29.2241   21.9709 C   0  0  0  0  0  0  0  0  0  0  0  0
  -23.9073  -16.5297   23.6069 C   0  0  0  0  0  0  0  0  0  0  0  0
  -24.1348  -32.4398   22.4124 C   0  0  0  0  0  0  0  0  0  0  0  0
  -24.0663  -33.2537   23.5430 C   0  0  0  0  0  0  0  0  0  0  0  0
  -29.9177  -19.0507   24.2548 C   0  0  0  0  0  0  0  0  0  0  0  0
  -29.8406  -19.3820   22.8809 C   0  0  0  0  0  0  0  0  0  0  0  0
  -26.2253  -16.1868   23.0337 C   0  0  0  0  0  0  0  0  0  0  0  0
  -22.1909  -31.9659   24.3565 C   0  0  0  0  0  0  0  0  0  0  0  0
  -26.8257  -28.4890   20.4765 C   0  0  0  0  0  0  0  0  0  0  0  0
  -29.3631  -28.2556   20.3558 C   0  0  0  0  0  0  0  0  0  0  0  0
  -21.7159   -9.2391   21.4878 C   0  0  0  0  0  0  0  0  0  0  0  0
  -24.4912  -15.2770   21.6107 C   0  0  0  0  0  0  0  0  0  0  0  0
  -22.6025  -10.1778   22.0493 C   0  0  0  0  0  0  0  0  0  0  0  0
  -25.8524  -15.4721   21.8852 C   0  0  0  0  0  0  0  0  0  0  0  0
  -24.4567  -29.8952   20.9161 C   0  0  0  0  0  0  0  0  0  0  0  0
  -25.2578  -16.7111   23.8905 C   0  0  0  0  0  0  0  0  0  0  0  0
  -23.2313  -31.3890   22.2537 C   0  0  0  0  0  0  0  0  0  0  0  0
  -23.0944  -33.0168   24.5151 C   0  0  0  0  0  0  0  0  0  0  0  0
  -22.2594  -31.1520   23.2257 C   0  0  0  0  0  0  0  0  0  0  0  0
  -28.0489  -27.7621   20.2500 C   0  0  0  0  0  0  0  0  0  0  0  0
  -29.6019  -20.1990   24.9429 C   0  0  0  0  0  0  0  0  0  0  0  0
  -30.1596  -27.1811   20.0437 C   0  0  0  0  0  0  0  0  0  0  0  0
  -29.4829  -20.7091   22.8274 C   0  0  0  0  0  0  0  0  0  0  0  0
  -29.8228  -29.5680   20.7050 C   0  0  0  0  0  0  0  0  0  0  0  0
  -25.2636  -12.3399   20.6723 C   0  0  0  0  0  0  0  0  0  0  0  0
  -27.5386  -18.9693   26.9171 C   0  0  0  0  0  0  0  0  0  0  0  0
  -27.2912  -13.9244   18.6972 C   0  0  0  0  0  0  0  0  0  0  0  0
  -29.0919  -16.7515   18.0555 C   0  0  0  0  0  0  0  0  0  0  0  0
  -29.3533  -21.2696   20.3748 C   0  0  0  0  0  0  0  0  0  0  0  0
  -22.1409   -8.3127   20.3761 C   0  0  0  0  0  0  0  0  0  0  0  0
  -24.0620  -14.5361   20.3741 C   0  0  0  0  0  0  0  0  0  0  0  0
  -26.9291  -14.9275   20.9837 C   0  0  0  0  0  0  0  0  0  0  0  0
  -23.4031   -8.7713   19.6502 C   0  0  0  0  0  0  0  0  0  0  0  0
  -30.5492  -20.2269   28.7190 C   0  0  0  0  0  0  0  0  0  0  0  0
  -29.1712  -20.0268   29.3344 C   0  0  0  0  0  0  0  0  0  0  0  0
  -30.1644  -23.1482   17.4610 C   0  0  0  0  0  0  0  0  0  0  0  0
  -24.4757   -9.1838   20.6533 C   0  0  0  0  0  0  0  0  0  0  0  0
  -30.5765  -19.7972   27.2557 C   0  0  0  0  0  0  0  0  0  0  0  0
  -29.8393  -24.5902   17.8573 C   0  0  0  0  0  0  0  0  0  0  0  0
  -28.0833  -20.7472   28.5378 C   0  0  0  0  0  0  0  0  0  0  0  0
  -29.1688  -22.1570   18.0610 C   0  0  0  0  0  0  0  0  0  0  0  0
  -28.6631  -23.7035   19.9108 C   0  0  0  0  0  0  0  0  0  0  0  0
  -24.0043  -10.3646   21.5107 C   0  0  1  0  0  0  0  0  0  0  0  0
  -29.4993  -20.5309   26.4278 C   0  0  2  0  0  0  0  0  0  0  0  0
  -25.1326  -13.5870   19.8444 C   0  0  1  0  0  0  0  0  0  0  0  0
  -29.6765  -24.7323   19.3833 C   0  0  2  0  0  0  0  0  0  0  0  0
  -28.0686  -20.3804   27.0349 C   0  0  1  0  0  0  0  0  0  0  0  0
  -27.0610  -21.3037   26.3228 C   0  0  0  0  0  0  0  0  0  0  0  0
  -30.5531  -18.3414   16.7770 C   0  0  0  0  0  0  0  0  0  0  0  0
  -29.5376  -12.1887   19.8156 C   0  0  0  0  0  0  0  0  0  0  0  0
  -31.1794  -13.8156   18.8534 C   0  0  0  0  0  0  0  0  0  0  0  0
  -29.6388  -12.5614   17.3447 C   0  0  0  0  0  0  0  0  0  0  0  0
  -26.7640  -18.0011   16.7222 C   0  0  0  0  0  0  0  0  0  0  0  0
  -25.5623  -17.5395   27.3993 C   0  0  0  0  0  0  0  0  0  0  0  0
  -24.7579  -17.3530   26.1252 C   0  0  0  0  0  0  0  0  0  1  0  0
  -28.7157  -14.4140   18.7966 C   0  0  1  0  0  0  0  0  0  0  0  0
  -29.2274  -17.5965   16.8017 C   0  0  2  0  0  0  0  0  0  0  0  0
  -29.7479  -13.2537   18.7208 C   0  0  0  0  0  0  0  0  0  0  0  0
  -28.0086  -26.4743   19.8980 N   0  0  0  0  0  0  0  0  0  0  0  0
  -29.3073  -26.1495   19.7799 N   0  0  0  0  0  0  0  0  0  0  0  0
  -26.4590  -14.2049   19.7903 N   0  0  0  0  0  0  0  0  0  0  0  0
  -29.0700  -22.3476   19.5097 N   0  0  0  0  0  0  0  0  0  0  0  0
  -31.4989  -27.0274   19.9719 N   0  0  0  0  0  0  0  0  0  0  0  0
  -28.8703  -30.5540   20.9964 N   0  0  0  0  0  0  0  0  0  0  0  0
  -29.2580  -21.5784   21.7313 N   0  0  0  0  0  0  0  0  0  0  0  0
  -24.0997  -11.6009   20.7645 N   0  0  0  0  0  0  0  0  0  0  0  0
  -26.2565  -18.7998   27.4139 N   0  0  0  0  0  0  0  0  0  0  0  0
  -28.8740  -15.4235   17.7553 N   0  0  0  0  0  0  0  0  0  0  0  0
  -28.1250  -18.5967   16.7295 N   0  3  0  0  0  0  0  0  0  0  0  0
  -31.0417  -29.8622   20.7412 O   0  0  0  0  0  0  0  0  0  0  0  0
  -26.3414  -12.0675   21.1879 O   0  0  0  0  0  0  0  0  0  0  0  0
  -28.2400  -18.1006   26.4121 O   0  0  0  0  0  0  0  0  0  0  0  0
  -26.9281  -13.3218   17.6840 O   0  0  0  0  0  0  0  0  0  0  0  0
  -29.1751  -17.2218   19.1880 O   0  0  0  0  0  0  0  0  0  0  0  0
  -29.6845  -20.1619   19.9444 O   0  0  0  0  0  0  0  0  0  0  0  0
  -29.3354  -21.2145   24.0802 O   0  0  0  0  0  0  0  0  0  0  0  0
  -23.3010  -30.5813   21.1309 O   0  0  0  0  0  0  0  0  0  0  0  0
  -25.6340  -17.4036   24.9999 O   0  0  0  0  0  0  0  0  0  1  0  0
  -23.0298  -33.7975   25.6016 F   0  0  0  0  0  0  0  0  0  0  0  0
  -21.3894  -30.1433   23.0794 F   0  0  0  0  0  0  0  0  0  0  0  0
  1  2  1  0  0  0  0
  1  5  2  0  0  0  0
  2  6  2  0  0  0  0
  3  8  2  0  0  0  0
  3 17  1  0  0  0  0
  4  9  1  0  0  0  0
  4 17  2  0  0  0  0
  5 19  1  0  0  0  0
  6 21  1  0  0  0  0
  7 10  2  0  0  0  0
  7 20  1  0  0  0  0
  8 23  1  0  0  0  0
  9 23  2  0  0  0  0
 10 24  1  0  0  0  0
 11 12  2  0  0  0  0
 11 25  1  0  0  0  0
 12 26  1  0  0  0  0
 13 14  1  0  0  0  0
 13 29  2  0  0  0  0
 14 31  2  0  0  0  0
 15 22  1  0  0  0  0
 15 24  2  0  0  0  0
 16 26  2  0  0  0  0
 16 27  1  0  0  0  0
 17 28  1  0  0  0  0
 18 28  1  0  0  0  0
 18 30  2  0  0  0  0
 18 32  1  0  0  0  0
 19 21  2  0  0  0  0
 19 38  1  0  0  0  0
 20 22  2  0  0  0  0
 20 39  1  0  0  0  0
 21 51  1  0  0  0  0
 22 40  1  0  0  0  0
 23 85  1  0  0  0  0
 24 86  1  0  0  0  0
 25 27  2  0  0  0  0
 25 85  1  0  0  0  0
 26 87  1  0  0  0  0
 27 88  1  0  0  0  0
 28 67  2  0  0  0  0
 29 52  1  0  0  0  0
 29 84  1  0  0  0  0
 30 68  1  0  0  0  0
 30 71  1  0  0  0  0
 31 73  1  0  0  0  0
 31 84  1  0  0  0  0
 32 72  1  0  0  0  0
 32 78  2  0  0  0  0
 33 53  1  0  0  0  0
 33 74  1  0  0  0  0
 33 79  2  0  0  0  0
 34 55  1  0  0  0  0
 34 75  1  0  0  0  0
 34 80  2  0  0  0  0
 35 64  1  0  0  0  0
 35 69  1  0  0  0  0
 35 81  2  0  0  0  0
 36 65  1  0  0  0  0
 36 76  1  0  0  0  0
 36 82  2  0  0  0  0
 37 70  1  0  0  0  0
 37 73  1  0  0  0  0
 37 83  2  0  0  0  0
 38 41  1  0  0  0  0
 39 53  1  0  0  0  0
 40 69  1  0  0  0  0
 41 45  1  0  0  0  0
 42 43  1  0  0  0  0
 42 46  1  0  0  0  0
 43 48  1  0  0  0  0
 44 47  1  0  0  0  0
 44 49  1  0  0  0  0
 45 51  1  0  0  0  0
 46 52  1  0  0  0  0
 47 54  1  0  0  0  0
 48 55  1  0  0  0  0
 49 70  1  0  0  0  0
 50 54  1  0  0  0  0
 50 70  1  0  0  0  0
 51 74  1  0  0  0  0
 52 55  1  0  0  0  0
 53 69  1  0  0  0  0
 54 68  1  0  0  0  0
 55 56  1  0  0  0  0
 57 65  1  0  0  0  0
 58 66  1  0  0  0  0
 59 66  1  0  0  0  0
 60 66  1  0  0  0  0
 61 77  1  0  0  0  0
 62 63  1  0  0  0  0
 62 75  1  0  0  0  0
 63 86  1  0  0  0  0
 64 66  1  0  0  0  0
 64 76  1  0  0  0  0
 65 77  1  0  0  0  0
 67 68  1  0  0  0  0
M  CHG  1  77   1
M  ISO  4  37 100  63 101  73 100  86 101
M  END
> <Batch ID>
0165

> <Smiles>
CNC(C)C(=O)NC(C(=O)N1Cc2cc([101O:1][101CH2:1]CNC(=O)C3(C)CCCCC3c3ccc([100NH:0][100C:0](=O)N4CCCC(n5nc(-c6ccc(Oc7ccc(F)cc7F)cc6)c(C(N)=O)c5N)C4)o3)ccc2CC1C(=O)NC1CCCc2ccccc21)C(C)(C)C

> <Shape>
0.259

> <Color>
0.067

> <Negative vol penalty>
0.000

$$$$

  -OEChem-04052304053D

 86 94  0     1  0  0  0  0  0999 V2000
  -27.9106  -32.2866   20.8995 C   0  0  0  0  0  0  0  0  0  0  0  0
  -27.8056  -31.5675   22.0858 C   0  0  0  0  0  0  0  0  0  0  0  0
  -22.6036  -10.4311   21.0982 C   0  0  0  0  0  0  0  0  0  0  0  0
  -24.5265   -9.0987   21.7018 C   0  0  0  0  0  0  0  0  0  0  0  0
  -27.5714  -31.6849   19.6885 C   0  0  0  0  0  0  0  0  0  0  0  0
  -27.3601  -30.2463   22.0617 C   0  0  0  0  0  0  0  0  0  0  0  0
  -28.2445  -23.9941   25.4446 C   0  0  0  0  0  0  0  0  0  0  0  0
  -29.7730  -16.1899   23.8604 C   0  0  0  0  0  0  0  0  0  0  0  0
  -29.0015  -17.0962   24.5877 C   0  0  0  0  0  0  0  0  0  0  0  0
  -21.8174   -9.2796   21.0607 C   0  0  0  0  0  0  0  0  0  0  0  0
  -23.7402   -7.9471   21.6644 C   0  0  0  0  0  0  0  0  0  0  0  0
  -27.5013  -22.9890   26.0621 C   0  0  0  0  0  0  0  0  0  0  0  0
  -21.4868   -6.4057   23.6560 C   0  0  0  0  0  0  0  0  0  0  0  0
  -21.6240   -5.4948   24.7034 C   0  0  0  0  0  0  0  0  0  0  0  0
  -27.0187  -22.0277   23.9029 C   0  0  0  0  0  0  0  0  0  0  0  0
  -22.2970   -3.7884   23.1310 C   0  0  0  0  0  0  0  0  0  0  0  0
  -23.9582  -10.3407   21.4187 C   0  0  0  0  0  0  0  0  0  0  0  0
  -25.0026  -12.3658   22.5658 C   0  0  0  0  0  0  0  0  0  0  0  0
  -27.1307  -30.3526   19.6485 C   0  0  0  0  0  0  0  0  0  0  0  0
  -28.3715  -24.0298   24.0485 C   0  0  0  0  0  0  0  0  0  0  0  0
  -27.0134  -29.6266   20.8491 C   0  0  0  0  0  0  0  0  0  0  0  0
  -27.7662  -23.0328   23.2703 C   0  0  0  0  0  0  0  0  0  0  0  0
  -30.9611  -16.6086   23.2612 C   0  0  0  0  0  0  0  0  0  0  0  0
  -29.4180  -18.4212   24.7158 C   0  0  0  0  0  0  0  0  0  0  0  0
  -22.3857   -8.0376   21.3438 C   0  0  0  0  0  0  0  0  0  0  0  0
  -26.8859  -22.0073   25.2910 C   0  0  0  0  0  0  0  0  0  0  0  0
  -21.7546   -6.0080   22.3461 C   0  0  0  0  0  0  0  0  0  0  0  0
  -22.0291   -4.1861   24.4409 C   0  0  0  0  0  0  0  0  0  0  0  0
  -22.1598   -4.6993   22.0836 C   0  0  0  0  0  0  0  0  0  0  0  0
  -31.3775  -17.9336   23.3893 C   0  0  0  0  0  0  0  0  0  0  0  0
  -30.6060  -18.8400   24.1166 C   0  0  0  0  0  0  0  0  0  0  0  0
  -24.7710  -11.5298   21.4571 C   0  0  0  0  0  0  0  0  0  0  0  0
  -25.8346  -13.3482   22.0872 C   0  0  0  0  0  0  0  0  0  0  0  0
  -24.5097  -12.2635   23.9083 C   0  0  0  0  0  0  0  0  0  0  0  0
  -27.5426  -26.0882   21.7727 C   0  0  0  0  0  0  0  0  0  0  0  0
  -29.1874  -24.0432   19.8662 C   0  0  0  0  0  0  0  0  0  0  0  0
  -31.6639  -15.8001   20.9745 C   0  0  0  0  0  0  0  0  0  0  0  0
  -30.3791  -20.8871   19.3503 C   0  0  0  0  0  0  0  0  0  0  0  0
  -30.2558  -14.9621   19.1130 C   0  0  0  0  0  0  0  0  0  0  0  0
  -26.7303  -29.7599   18.3207 C   0  0  0  0  0  0  0  0  0  0  0  0
  -29.1988  -25.1054   23.3996 C   0  0  0  0  0  0  0  0  0  0  0  0
  -27.8889  -23.0147   21.7693 C   0  0  0  0  0  0  0  0  0  0  0  0
  -26.6240  -28.2373   18.3406 C   0  0  0  0  0  0  0  0  0  0  0  0
  -27.2056  -14.4857   17.3504 C   0  0  0  0  0  0  0  0  0  0  0  0
  -25.8453  -27.7725   19.5671 C   0  0  0  0  0  0  0  0  0  0  0  0
  -26.3196  -13.7411   18.3516 C   0  0  0  0  0  0  0  0  0  0  0  0
  -28.6647  -14.0449   17.4484 C   0  0  0  0  0  0  0  0  0  0  0  0
  -28.3595  -13.3706   19.7981 C   0  0  0  0  0  0  0  0  0  0  0  0
  -26.5577  -28.1835   20.8613 C   0  0  1  0  0  0  0  0  0  0  0  0
  -28.8344  -25.3386   21.9367 C   0  0  1  0  0  0  0  0  0  0  0  0
  -26.8910  -13.8263   19.7803 C   0  0  2  0  0  0  0  0  0  0  0  0
  -31.6490  -19.0307   18.2374 C   0  0  0  0  0  0  0  0  0  0  0  0
  -25.8462  -19.7720   27.8909 C   0  0  0  0  0  0  0  0  0  0  0  0
  -26.7067  -23.8964   18.0956 C   0  0  0  0  0  0  0  0  0  0  0  0
  -27.6713  -21.8444   17.0340 C   0  0  0  0  0  0  0  0  0  0  0  0
  -28.8716  -24.0234   16.8499 C   0  0  0  0  0  0  0  0  0  0  0  0
  -32.8436  -21.5076   20.8668 C   0  0  0  0  0  0  0  0  0  0  0  0
  -31.7916  -15.6275   22.4767 C   0  0  0  0  0  0  0  0  0  0  0  0
  -27.4082  -18.9687   26.0893 C   0  0  0  0  0  0  0  0  0  0  0  0
  -28.8378  -22.8105   19.0679 C   0  0  1  0  0  0  0  0  0  0  0  0
  -31.7465  -20.3839   18.9246 C   0  0  2  0  0  0  0  0  0  0  0  0
  -26.8445  -20.1856   26.8193 C   0  0  1  0  0  0  0  0  0  1  0  0
  -28.0177  -23.1448   17.7900 C   0  0  0  0  0  0  0  0  0  0  0  0
  -25.4047  -11.9449   20.3570 N   0  0  0  0  0  0  0  0  0  0  0  0
  -26.0425  -13.0526   20.7721 N   0  0  0  0  0  0  0  0  0  0  0  0
  -28.7031  -24.0912   21.1811 N   0  0  0  0  0  0  0  0  0  0  0  0
  -29.1402  -14.1552   18.8291 N   0  0  0  0  0  0  0  0  0  0  0  0
  -26.4014  -14.4275   22.6672 N   0  0  0  0  0  0  0  0  0  0  0  0
  -23.6653  -11.1922   24.2302 N   0  0  0  0  0  0  0  0  0  0  0  0
  -28.6501  -19.3191   25.4382 N   0  0  0  0  0  0  0  0  0  0  0  0
  -27.6746  -27.3019   21.1253 N   0  0  0  0  0  0  0  0  0  0  0  0
  -30.6117  -15.0331   20.4637 N   0  0  0  0  0  0  0  0  0  0  0  0
  -30.0975  -22.1226   18.8066 N   0  0  0  0  0  0  0  0  0  0  0  0
  -32.6397  -20.2459   20.1096 N   0  3  0  0  0  0  0  0  0  0  0  0
  -24.7959  -13.1065   24.7919 O   0  0  0  0  0  0  0  0  0  0  0  0
  -26.5028  -25.6009   22.2005 O   0  0  0  0  0  0  0  0  0  0  0  0
  -29.8711  -24.9276   19.3447 O   0  0  0  0  0  0  0  0  0  0  0  0
  -32.4129  -16.5107   20.3096 O   0  0  0  0  0  0  0  0  0  0  0  0
  -29.6336  -20.2466   20.0881 O   0  0  0  0  0  0  0  0  0  0  0  0
  -30.8643  -15.5922   18.2422 O   0  0  0  0  0  0  0  0  0  0  0  0
  -21.6187   -6.9138   21.3075 O   0  0  0  0  0  0  0  0  0  0  0  0
  -26.1593  -21.0255   25.8911 O   0  0  0  0  0  0  0  0  0  1  0  0
  -22.1623   -3.3119   25.4469 F   0  0  0  0  0  0  0  0  0  0  0  0
  -22.4197   -4.3117   20.8274 F   0  0  0  0  0  0  0  0  0  0  0  0
  -32.5176  -18.3451   22.8172 F   0  0  0  0  0  0  0  0  0  0  0  0
  -31.0159  -20.1110   24.2338 F   0  0  0  0  0  0  0  0  0  0  0  0
  1  2  1  0  0  0  0
  1  5  2  0  0  0  0
  2  6  2  0  0  0  0
  3 10  2  0  0  0  0
  3 17  1  0  0  0  0
  4 11  1  0  0  0  0
  4 17  2  0  0  0  0
  5 19  1  0  0  0  0
  6 21  1  0  0  0  0
  7 12  2  0  0  0  0
  7 20  1  0  0  0  0
  8  9  2  0  0  0  0
  8 23  1  0  0  0  0
  9 24  1  0  0  0  0
 10 25  1  0  0  0  0
 11 25  2  0  0  0  0
 12 26  1  0  0  0  0
 13 14  2  0  0  0  0
 13 27  1  0  0  0  0
 14 28  1  0  0  0  0
 15 22  1  0  0  0  0
 15 26  2  0  0  0  0
 16 28  2  0  0  0  0
 16 29  1  0  0  0  0
 17 32  1  0  0  0  0
 18 32  1  0  0  0  0
 18 33  2  0  0  0  0
 18 34  1  0  0  0  0
 19 21  2  0  0  0  0
 19 40  1  0  0  0  0
 20 22  2  0  0  0  0
 20 41  1  0  0  0  0
 21 49  1  0  0  0  0
 22 42  1  0  0  0  0
 23 30  2  0  0  0  0
 23 58  1  0  0  0  0
 24 31  2  0  0  0  0
 24 70  1  0  0  0  0
 25 81  1  0  0  0  0
 26 82  1  0  0  0  0
 27 29  2  0  0  0  0
 27 81  1  0  0  0  0
 28 83  1  0  0  0  0
 29 84  1  0  0  0  0
 30 31  1  0  0  0  0
 30 85  1  0  0  0  0
 31 86  1  0  0  0  0
 32 64  2  0  0  0  0
 33 65  1  0  0  0  0
 33 68  1  0  0  0  0
 34 69  1  0  0  0  0
 34 75  2  0  0  0  0
 35 50  1  0  0  0  0
 35 71  1  0  0  0  0
 35 76  2  0  0  0  0
 36 60  1  0  0  0  0
 36 66  1  0  0  0  0
 36 77  2  0  0  0  0
 37 58  1  0  0  0  0
 37 72  1  0  0  0  0
 37 78  2  0  0  0  0
 38 61  1  0  0  0  0
 38 73  1  0  0  0  0
 38 79  2  0  0  0  0
 39 67  1  0  0  0  0
 39 72  1  0  0  0  0
 39 80  2  0  0  0  0
 40 43  1  0  0  0  0
 41 50  1  0  0  0  0
 42 66  1  0  0  0  0
 43 45  1  0  0  0  0
 44 46  1  0  0  0  0
 44 47  1  0  0  0  0
 45 49  1  0  0  0  0
 46 51  1  0  0  0  0
 47 67  1  0  0  0  0
 48 51  1  0  0  0  0
 48 67  1  0  0  0  0
 49 71  1  0  0  0  0
 50 66  1  0  0  0  0
 51 65  1  0  0  0  0
 52 61  1  0  0  0  0
 53 62  1  0  0  0  0
 54 63  1  0  0  0  0
 55 63  1  0  0  0  0
 56 63  1  0  0  0  0
 57 74  1  0  0  0  0
 59 62  1  0  0  0  0
 59 70  1  0  0  0  0
 60 63  1  0  0  0  0
 60 73  1  0  0  0  0
 61 74  1  0  0  0  0
 62 82  1  0  0  0  0
 64 65  1  0  0  0  0
M  CHG  1  74   1
M  ISO  4  39 100  62 101  72 100  82 101
M  END
> <Batch ID>
0165

> <Smiles>
CNC(C)C(=O)NC(C(=O)N1Cc2cc([101O:1][101CH:1](C)CNc3ccc(CC(=O)[100NH:0][100C:0](=O)N4CCCC(n5nc(-c6ccc(Oc7ccc(F)cc7F)cc6)c(C(N)=O)c5N)C4)c(F)c3F)ccc2CC1C(=O)NC1CCCc2ccccc21)C(C)(C)C

> <Shape>
0.221

> <Color>
0.112

> <Negative vol penalty>
0.000

$$$$

  -OEChem-04052304053D

 84 92  0     1  0  0  0  0  0999 V2000
  -28.4810  -36.6174   23.7175 C   0  0  0  0  0  0  0  0  0  0  0  0
  -28.7713  -35.2570   23.7380 C   0  0  0  0  0  0  0  0  0  0  0  0
  -31.7615  -19.3749   20.0645 C   0  0  0  0  0  0  0  0  0  0  0  0
  -23.2729   -9.7658   21.3895 C   0  0  0  0  0  0  0  0  0  0  0  0
  -23.9303  -10.7081   23.5148 C   0  0  0  0  0  0  0  0  0  0  0  0
  -27.1543  -37.0460   23.7208 C   0  0  0  0  0  0  0  0  0  0  0  0
  -27.7349  -34.3244   23.7628 C   0  0  0  0  0  0  0  0  0  0  0  0
  -27.6726  -28.8176   21.0836 C   0  0  0  0  0  0  0  0  0  0  0  0
  -31.3613  -18.0398   20.1201 C   0  0  0  0  0  0  0  0  0  0  0  0
  -30.8981  -20.3805   20.4993 C   0  0  0  0  0  0  0  0  0  0  0  0
  -22.6140   -8.7304   22.0523 C   0  0  0  0  0  0  0  0  0  0  0  0
  -23.2713   -9.6727   24.1777 C   0  0  0  0  0  0  0  0  0  0  0  0
  -27.9148  -27.5343   21.5716 C   0  0  0  0  0  0  0  0  0  0  0  0
  -23.4379   -5.8348   23.5889 C   0  0  0  0  0  0  0  0  0  0  0  0
  -23.6276   -4.5374   23.1131 C   0  0  0  0  0  0  0  0  0  0  0  0
  -25.5442  -27.2103   21.8788 C   0  0  0  0  0  0  0  0  0  0  0  0
  -21.2549   -4.3410   22.7025 C   0  0  0  0  0  0  0  0  0  0  0  0
  -23.9311  -10.7546   22.1208 C   0  0  0  0  0  0  0  0  0  0  0  0
  -29.2342  -18.7161   21.0451 C   0  0  0  0  0  0  0  0  0  0  0  0
  -24.0739  -13.0668   21.0525 C   0  0  0  0  0  0  0  0  0  0  0  0
  -26.1011  -36.1181   23.7359 C   0  0  0  0  0  0  0  0  0  0  0  0
  -26.3630  -29.3118   20.9996 C   0  0  0  0  0  0  0  0  0  0  0  0
  -26.3929  -34.7410   23.7676 C   0  0  0  0  0  0  0  0  0  0  0  0
  -25.2878  -28.4992   21.3870 C   0  0  0  0  0  0  0  0  0  0  0  0
  -30.0976  -17.7104   20.6104 C   0  0  0  0  0  0  0  0  0  0  0  0
  -29.6345  -20.0511   20.9895 C   0  0  0  0  0  0  0  0  0  0  0  0
  -22.6131   -8.6838   23.4464 C   0  0  0  0  0  0  0  0  0  0  0  0
  -26.8507  -26.7315   21.9720 C   0  0  0  0  0  0  0  0  0  0  0  0
  -22.1566   -6.3853   23.6216 C   0  0  0  0  0  0  0  0  0  0  0  0
  -22.5361   -3.7905   22.6699 C   0  0  0  0  0  0  0  0  0  0  0  0
  -21.0651   -5.6384   23.1784 C   0  0  0  0  0  0  0  0  0  0  0  0
  -24.6124  -11.8241   21.4366 C   0  0  0  0  0  0  0  0  0  0  0  0
  -25.1169  -13.7190   20.4417 C   0  0  0  0  0  0  0  0  0  0  0  0
  -27.9099  -18.3715   21.5576 C   0  0  0  0  0  0  0  0  0  0  0  0
  -22.7492  -13.5852   21.2319 C   0  0  0  0  0  0  0  0  0  0  0  0
  -24.7941  -31.7431   22.3153 C   0  0  0  0  0  0  0  0  0  0  0  0
  -27.9954  -23.2975   21.9152 C   0  0  0  0  0  0  0  0  0  0  0  0
  -22.4314  -30.8000   20.3028 C   0  0  0  0  0  0  0  0  0  0  0  0
  -21.0267  -28.2986   18.4543 C   0  0  0  0  0  0  0  0  0  0  0  0
  -30.4689  -15.2440   20.2566 C   0  0  0  0  0  0  0  0  0  0  0  0
  -24.6833  -36.6299   23.7865 C   0  0  0  0  0  0  0  0  0  0  0  0
  -26.1165  -30.6884   20.4459 C   0  0  0  0  0  0  0  0  0  0  0  0
  -23.8617  -28.9752   21.2976 C   0  0  0  0  0  0  0  0  0  0  0  0
  -23.6408  -35.5717   23.4349 C   0  0  0  0  0  0  0  0  0  0  0  0
  -29.6550  -12.0237   18.9741 C   0  0  0  0  0  0  0  0  0  0  0  0
  -23.9316  -34.2695   24.1742 C   0  0  0  0  0  0  0  0  0  0  0  0
  -28.2263  -11.7869   19.4689 C   0  0  0  0  0  0  0  0  0  0  0  0
  -30.4962  -12.7718   20.0069 C   0  0  0  0  0  0  0  0  0  0  0  0
  -28.4795  -13.7885   20.9909 C   0  0  0  0  0  0  0  0  0  0  0  0
  -25.2961  -33.6984   23.7699 C   0  0  1  0  0  0  0  0  0  0  0  0
  -24.7807  -31.2792   20.8862 C   0  0  1  0  0  0  0  0  0  0  0  0
  -27.5753  -13.0954   19.9585 C   0  0  2  0  0  0  0  0  0  0  0  0
  -19.0794  -27.8193   16.9458 C   0  0  0  0  0  0  0  0  0  0  0  0
  -20.5857  -30.6748   22.7292 C   0  0  0  0  0  0  0  0  0  0  0  0
  -18.9913  -29.3151   21.3590 C   0  0  0  0  0  0  0  0  0  0  0  0
  -19.5439  -31.6496   20.6753 C   0  0  0  0  0  0  0  0  0  0  0  0
  -22.8018  -27.6457   16.1780 C   0  0  0  0  0  0  0  0  0  0  0  0
  -29.1432  -22.4654   21.3837 C   0  0  0  0  0  0  0  0  0  0  0  0
  -28.2312  -24.7951   21.9455 C   0  0  0  0  0  0  0  0  0  1  0  0
  -21.2769  -29.8312   20.3890 C   0  0  1  0  0  0  0  0  0  0  0  0
  -20.5324  -28.2623   17.0195 C   0  0  2  0  0  0  0  0  0  0  0  0
  -20.1263  -30.3591   21.2918 C   0  0  0  0  0  0  0  0  0  0  0  0
  -25.8978  -11.6924   21.0981 N   0  0  0  0  0  0  0  0  0  0  0  0
  -27.2422  -17.3348   21.1580 N   0  0  0  0  0  0  0  0  0  0  0  0
  -26.1755  -12.8607   20.4947 N   0  0  0  0  0  0  0  0  0  0  0  0
  -23.6727  -30.3309   20.7555 N   0  0  0  0  0  0  0  0  0  0  0  0
  -29.8189  -14.0025   20.4210 N   0  0  0  0  0  0  0  0  0  0  0  0
  -25.2227  -14.9372   19.8697 N   0  0  0  0  0  0  0  0  0  0  0  0
  -21.8000  -12.7833   21.8801 N   0  0  0  0  0  0  0  0  0  0  0  0
  -29.7146  -16.3470   20.6556 N   0  0  0  0  0  0  0  0  0  0  0  0
  -28.7926  -21.0685   21.4152 N   0  0  0  0  0  0  0  0  0  0  0  0
  -25.2103  -33.0506   22.4786 N   0  0  0  0  0  0  0  0  0  0  0  0
  -20.8767  -29.5496   19.0146 N   0  0  0  0  0  0  0  0  0  0  0  0
  -21.3536  -27.3161   16.2125 N   0  3  0  0  0  0  0  0  0  0  0  0
  -22.4126  -14.7193   20.8146 O   0  0  0  0  0  0  0  0  0  0  0  0
  -24.4508  -30.9723   23.2040 O   0  0  0  0  0  0  0  0  0  0  0  0
  -26.9370  -22.8021   22.3001 O   0  0  0  0  0  0  0  0  0  0  0  0
  -22.2404  -31.9290   19.8438 O   0  0  0  0  0  0  0  0  0  0  0  0
  -21.4954  -27.3147   19.0225 O   0  0  0  0  0  0  0  0  0  0  0  0
  -31.5999  -15.3250   19.7705 O   0  0  0  0  0  0  0  0  0  0  0  0
  -21.9700   -7.6738   24.0935 O   0  0  0  0  0  0  0  0  0  0  0  0
  -27.0844  -25.4787   22.4493 O   0  0  0  0  0  0  0  0  0  1  0  0
  -22.7186   -2.5452   22.2115 F   0  0  0  0  0  0  0  0  0  0  0  0
  -19.8320   -6.1624   23.2062 F   0  0  0  0  0  0  0  0  0  0  0  0
  1  2  1  0  0  0  0
  1  6  2  0  0  0  0
  2  7  2  0  0  0  0
  3  9  1  0  0  0  0
  3 10  2  0  0  0  0
  4 11  2  0  0  0  0
  4 18  1  0  0  0  0
  5 12  1  0  0  0  0
  5 18  2  0  0  0  0
  6 21  1  0  0  0  0
  7 23  1  0  0  0  0
  8 13  2  0  0  0  0
  8 22  1  0  0  0  0
  9 25  2  0  0  0  0
 10 26  1  0  0  0  0
 11 27  1  0  0  0  0
 12 27  2  0  0  0  0
 13 28  1  0  0  0  0
 14 15  2  0  0  0  0
 14 29  1  0  0  0  0
 15 30  1  0  0  0  0
 16 24  1  0  0  0  0
 16 28  2  0  0  0  0
 17 30  2  0  0  0  0
 17 31  1  0  0  0  0
 18 32  1  0  0  0  0
 19 25  1  0  0  0  0
 19 26  2  0  0  0  0
 19 34  1  0  0  0  0
 20 32  1  0  0  0  0
 20 33  2  0  0  0  0
 20 35  1  0  0  0  0
 21 23  2  0  0  0  0
 21 41  1  0  0  0  0
 22 24  2  0  0  0  0
 22 42  1  0  0  0  0
 23 50  1  0  0  0  0
 24 43  1  0  0  0  0
 25 70  1  0  0  0  0
 26 71  1  0  0  0  0
 27 81  1  0  0  0  0
 28 82  1  0  0  0  0
 29 31  2  0  0  0  0
 29 81  1  0  0  0  0
 30 83  1  0  0  0  0
 31 84  1  0  0  0  0
 32 63  2  0  0  0  0
 33 65  1  0  0  0  0
 33 68  1  0  0  0  0
 34 64  2  0  0  0  0
 35 69  1  0  0  0  0
 35 75  2  0  0  0  0
 36 51  1  0  0  0  0
 36 72  1  0  0  0  0
 36 76  2  0  0  0  0
 37 58  1  0  0  0  0
 37 59  1  0  0  0  0
 37 77  2  0  0  0  0
 38 60  1  0  0  0  0
 38 66  1  0  0  0  0
 38 78  2  0  0  0  0
 39 61  1  0  0  0  0
 39 73  1  0  0  0  0
 39 79  2  0  0  0  0
 40 67  1  0  0  0  0
 40 70  1  0  0  0  0
 40 80  2  0  0  0  0
 41 44  1  0  0  0  0
 42 51  1  0  0  0  0
 43 66  1  0  0  0  0
 44 46  1  0  0  0  0
 45 47  1  0  0  0  0
 45 48  1  0  0  0  0
 46 50  1  0  0  0  0
 47 52  1  0  0  0  0
 48 67  1  0  0  0  0
 49 52  1  0  0  0  0
 49 67  1  0  0  0  0
 50 72  1  0  0  0  0
 51 66  1  0  0  0  0
 52 65  1  0  0  0  0
 53 61  1  0  0  0  0
 54 62  1  0  0  0  0
 55 62  1  0  0  0  0
 56 62  1  0  0  0  0
 57 74  1  0  0  0  0
 58 71  1  0  0  0  0
 59 82  1  0  0  0  0
 60 62  1  0  0  0  0
 60 73  1  0  0  0  0
 61 74  1  0  0  0  0
 63 65  1  0  0  0  0
M  CHG  1  74   1
M  ISO  4  40 100  59 101  70 100  82 101
M  END
> <Batch ID>
0165

> <Smiles>
CNC(C)C(=O)NC(C(=O)N1Cc2cc([101O:1][101CH2:1]C(=O)CNc3cccc([100NH:0][100C:0](=O)N4CCCC(n5nc(-c6ccc(Oc7ccc(F)cc7F)cc6)c(C(N)=O)c5N)C4)c3C=N)ccc2CC1C(=O)NC1CCCc2ccccc21)C(C)(C)C

> <Shape>
0.331

> <Color>
0.160

> <Negative vol penalty>
0.000

$$$$

  -OEChem-04052304053D

 86 94  0     1  0  0  0  0  0999 V2000
  -32.4080  -14.2677   21.0772 C   0  0  0  0  0  0  0  0  0  0  0  0
  -31.6070  -15.4042   21.1228 C   0  0  0  0  0  0  0  0  0  0  0  0
  -29.2620  -25.6538   19.2903 C   0  0  0  0  0  0  0  0  0  0  0  0
  -27.3568  -24.1752   19.4349 C   0  0  0  0  0  0  0  0  0  0  0  0
  -31.8833  -13.0648   20.6064 C   0  0  0  0  0  0  0  0  0  0  0  0
  -30.2809  -15.3387   20.6966 C   0  0  0  0  0  0  0  0  0  0  0  0
  -25.5154  -18.4146   23.0062 C   0  0  0  0  0  0  0  0  0  0  0  0
  -30.1086  -24.5951   19.6190 C   0  0  0  0  0  0  0  0  0  0  0  0
  -28.2034  -23.1165   19.7636 C   0  0  0  0  0  0  0  0  0  0  0  0
  -24.8657  -19.5798   22.6011 C   0  0  0  0  0  0  0  0  0  0  0  0
  -29.8465  -21.9972   22.4982 C   0  0  0  0  0  0  0  0  0  0  0  0
  -29.4656  -21.1659   23.5515 C   0  0  0  0  0  0  0  0  0  0  0  0
  -19.9693  -26.9174   22.0728 C   0  0  0  0  0  0  0  0  0  0  0  0
  -17.8395  -27.4522   23.0801 C   0  0  0  0  0  0  0  0  0  0  0  0
  -23.2159  -18.2512   21.4468 C   0  0  0  0  0  0  0  0  0  0  0  0
  -19.6420  -29.0598   23.1404 C   0  0  0  0  0  0  0  0  0  0  0  0
  -29.4443  -19.2732   22.0499 C   0  0  0  0  0  0  0  0  0  0  0  0
  -27.8861  -25.4439   19.1983 C   0  0  0  0  0  0  0  0  0  0  0  0
  -18.6586  -26.5598   22.3885 C   0  0  0  0  0  0  0  0  0  0  0  0
  -26.6055  -26.9335   17.5707 C   0  0  0  0  0  0  0  0  0  0  0  0
  -30.5473  -12.9822   20.1833 C   0  0  0  0  0  0  0  0  0  0  0  0
  -25.0256  -17.1572   22.6249 C   0  0  0  0  0  0  0  0  0  0  0  0
  -29.7382  -14.1339   20.2184 C   0  0  0  0  0  0  0  0  0  0  0  0
  -23.8598  -17.0716   21.8505 C   0  0  0  0  0  0  0  0  0  0  0  0
  -20.4610  -28.1674   22.4488 C   0  0  0  0  0  0  0  0  0  0  0  0
  -29.5793  -23.3264   19.8557 C   0  0  0  0  0  0  0  0  0  0  0  0
  -23.7174  -19.4982   21.8189 C   0  0  0  0  0  0  0  0  0  0  0  0
  -30.0262  -21.4666   21.2207 C   0  0  0  0  0  0  0  0  0  0  0  0
  -29.2645  -19.8039   23.3273 C   0  0  0  0  0  0  0  0  0  0  0  0
  -18.3312  -28.7023   23.4561 C   0  0  0  0  0  0  0  0  0  0  0  0
  -29.8251  -20.1046   20.9966 C   0  0  0  0  0  0  0  0  0  0  0  0
  -27.0110  -26.5372   18.8593 C   0  0  0  0  0  0  0  0  0  0  0  0
  -25.7834  -28.0125   17.7861 C   0  0  0  0  0  0  0  0  0  0  0  0
  -18.7940  -22.9284   21.4769 C   0  0  0  0  0  0  0  0  0  0  0  0
  -26.9418  -26.3759   16.2933 C   0  0  0  0  0  0  0  0  0  0  0  0
  -18.1373  -25.2332   21.9923 C   0  0  0  0  0  0  0  0  0  0  0  0
  -26.1576  -14.7368   20.9033 C   0  0  0  0  0  0  0  0  0  0  0  0
  -23.4393  -13.2703   21.8946 C   0  0  0  0  0  0  0  0  0  0  0  0
  -21.0324  -21.8912   21.4965 C   0  0  0  0  0  0  0  0  0  0  0  0
  -20.2362  -13.5691   23.0336 C   0  0  0  0  0  0  0  0  0  0  0  0
  -22.4357  -29.7316   22.4275 C   0  0  0  0  0  0  0  0  0  0  0  0
  -30.0383  -11.6715   19.6379 C   0  0  0  0  0  0  0  0  0  0  0  0
  -25.7229  -15.9092   23.0925 C   0  0  0  0  0  0  0  0  0  0  0  0
  -23.2818  -15.7454   21.4314 C   0  0  0  0  0  0  0  0  0  0  0  0
  -28.5158  -11.5957   19.5565 C   0  0  0  0  0  0  0  0  0  0  0  0
  -25.0405  -31.5968   20.8740 C   0  0  0  0  0  0  0  0  0  0  0  0
  -27.9506  -12.8686   18.9343 C   0  0  0  0  0  0  0  0  0  0  0  0
  -25.8008  -30.5481   20.0590 C   0  0  0  0  0  0  0  0  0  0  0  0
  -24.5421  -31.0306   22.2025 C   0  0  0  0  0  0  0  0  0  0  0  0
  -24.5160  -28.7465   21.2798 C   0  0  0  0  0  0  0  0  0  0  0  0
  -28.2878  -14.0969   19.7881 C   0  0  1  0  0  0  0  0  0  0  0  0
  -25.4278  -14.6958   22.2161 C   0  0  1  0  0  0  0  0  0  0  0  0
  -24.9816  -29.2518   19.9044 C   0  0  2  0  0  0  0  0  0  0  0  0
  -18.2530  -12.1929   23.7195 C   0  0  0  0  0  0  0  0  0  0  0  0
  -22.8349  -12.6841   18.9618 C   0  0  0  0  0  0  0  0  0  0  0  0
  -20.4711  -12.1872   19.6205 C   0  0  0  0  0  0  0  0  0  0  0  0
  -22.3347  -10.7988   20.5271 C   0  0  0  0  0  0  0  0  0  0  0  0
  -20.2702  -14.6770   25.7777 C   0  0  0  0  0  0  0  0  0  0  0  0
  -21.6699  -20.5544   21.2287 C   0  0  0  0  0  0  0  0  0  1  0  0
  -22.0288  -13.1637   21.3673 C   0  0  1  0  0  0  0  0  0  0  0  0
  -19.5122  -12.9038   24.1902 C   0  0  2  0  0  0  0  0  0  0  0  0
  -21.9291  -12.2336   20.1253 C   0  0  0  0  0  0  0  0  0  0  0  0
  -26.4897  -27.3024   19.8220 N   0  0  0  0  0  0  0  0  0  0  0  0
  -25.7482  -28.1902   19.1379 N   0  0  0  0  0  0  0  0  0  0  0  0
  -24.0032  -14.5539   21.9084 N   0  0  0  0  0  0  0  0  0  0  0  0
  -23.7708  -29.8061   21.9774 N   0  0  0  0  0  0  0  0  0  0  0  0
  -25.0946  -28.8171   16.9492 N   0  0  0  0  0  0  0  0  0  0  0  0
  -27.7994  -25.2681   16.2527 N   0  0  0  0  0  0  0  0  0  0  0  0
  -21.7925  -28.5311   22.1282 N   0  0  0  0  0  0  0  0  0  0  0  0
  -19.6037  -21.8861   21.3085 N   0  0  0  0  0  0  0  0  0  0  0  0
  -27.4155  -14.1660   20.9408 N   0  0  0  0  0  0  0  0  0  0  0  0
  -21.2022  -12.7459   22.4945 N   0  0  0  0  0  0  0  0  0  0  0  0
  -19.0991  -24.1694   21.8449 N   0  3  0  0  0  0  0  0  0  0  0  0
  -19.1255  -13.9181   25.2114 N   0  3  0  0  0  0  0  0  0  0  0  0
  -26.5081  -26.8564   15.2188 O   0  0  0  0  0  0  0  0  0  0  0  0
  -16.9497  -25.0368   21.7782 O   0  0  0  0  0  0  0  0  0  0  0  0
  -25.6188  -15.2471   19.9281 O   0  0  0  0  0  0  0  0  0  0  0  0
  -24.0169  -12.2533   22.2866 O   0  0  0  0  0  0  0  0  0  0  0  0
  -21.6292  -22.9016   21.8402 O   0  0  0  0  0  0  0  0  0  0  0  0
  -19.9688  -14.7039   22.6447 O   0  0  0  0  0  0  0  0  0  0  0  0
  -21.8936  -30.6745   23.0098 O   0  0  0  0  0  0  0  0  0  0  0  0
  -30.4051  -22.2931   20.1762 O   0  0  0  0  0  0  0  0  0  0  0  0
  -23.0816  -20.6339   21.4215 O   0  0  0  0  0  0  0  0  0  1  0  0
  -28.9003  -19.0054   24.3392 F   0  0  0  0  0  0  0  0  0  0  0  0
  -17.5457  -29.5581   24.1228 F   0  0  0  0  0  0  0  0  0  0  0  0
  -29.9973  -19.5889   19.7718 F   0  0  0  0  0  0  0  0  0  0  0  0
  1  2  1  0  0  0  0
  1  5  2  0  0  0  0
  2  6  2  0  0  0  0
  3  8  2  0  0  0  0
  3 18  1  0  0  0  0
  4  9  1  0  0  0  0
  4 18  2  0  0  0  0
  5 21  1  0  0  0  0
  6 23  1  0  0  0  0
  7 10  2  0  0  0  0
  7 22  1  0  0  0  0
  8 26  1  0  0  0  0
  9 26  2  0  0  0  0
 10 27  1  0  0  0  0
 11 12  2  0  0  0  0
 11 28  1  0  0  0  0
 12 29  1  0  0  0  0
 13 19  2  0  0  0  0
 13 25  1  0  0  0  0
 14 19  1  0  0  0  0
 14 30  2  0  0  0  0
 15 24  1  0  0  0  0
 15 27  2  0  0  0  0
 16 25  2  0  0  0  0
 16 30  1  0  0  0  0
 17 29  2  0  0  0  0
 17 31  1  0  0  0  0
 18 32  1  0  0  0  0
 19 36  1  0  0  0  0
 20 32  1  0  0  0  0
 20 33  2  0  0  0  0
 20 35  1  0  0  0  0
 21 23  2  0  0  0  0
 21 42  1  0  0  0  0
 22 24  2  0  0  0  0
 22 43  1  0  0  0  0
 23 51  1  0  0  0  0
 24 44  1  0  0  0  0
 25 69  1  0  0  0  0
 26 82  1  0  0  0  0
 27 83  1  0  0  0  0
 28 31  2  0  0  0  0
 28 82  1  0  0  0  0
 29 84  1  0  0  0  0
 30 85  1  0  0  0  0
 31 86  1  0  0  0  0
 32 63  2  0  0  0  0
 33 64  1  0  0  0  0
 33 67  1  0  0  0  0
 34 70  1  0  0  0  0
 34 73  2  0  0  0  0
 35 68  1  0  0  0  0
 35 75  2  0  0  0  0
 36 73  1  0  0  0  0
 36 76  2  0  0  0  0
 37 52  1  0  0  0  0
 37 71  1  0  0  0  0
 37 77  2  0  0  0  0
 38 60  1  0  0  0  0
 38 65  1  0  0  0  0
 38 78  2  0  0  0  0
 39 59  1  0  0  0  0
 39 70  1  0  0  0  0
 39 79  2  0  0  0  0
 40 61  1  0  0  0  0
 40 72  1  0  0  0  0
 40 80  2  0  0  0  0
 41 66  1  0  0  0  0
 41 69  1  0  0  0  0
 41 81  2  0  0  0  0
 42 45  1  0  0  0  0
 43 52  1  0  0  0  0
 44 65  1  0  0  0  0
 45 47  1  0  0  0  0
 46 48  1  0  0  0  0
 46 49  1  0  0  0  0
 47 51  1  0  0  0  0
 48 53  1  0  0  0  0
 49 66  1  0  0  0  0
 50 53  1  0  0  0  0
 50 66  1  0  0  0  0
 51 71  1  0  0  0  0
 52 65  1  0  0  0  0
 53 64  1  0  0  0  0
 54 61  1  0  0  0  0
 55 62  1  0  0  0  0
 56 62  1  0  0  0  0
 57 62  1  0  0  0  0
 58 74  1  0  0  0  0
 59 83  1  0  0  0  0
 60 62  1  0  0  0  0
 60 72  1  0  0  0  0
 61 74  1  0  0  0  0
 63 64  1  0  0  0  0
M  CHG  2  73   1  74   1
M  ISO  4  41 100  59 101  69 100  83 101
M  END
> <Batch ID>
0165

> <Smiles>
CNC(C)C(=O)NC(C(=O)N1Cc2cc([101O:1][101CH2:1]C(=O)NC=NC(=O)c3cc(F)cc([100NH:0][100C:0](=O)N4CCCC(n5nc(-c6ccc(Oc7ccc(F)cc7F)cc6)c(C(N)=O)c5N)C4)c3)ccc2CC1C(=O)NC1CCCc2ccccc21)C(C)(C)C

> <Shape>
0.267

> <Color>
0.084

> <Negative vol penalty>
0.000

$$$$

  -OEChem-04052304053D

 86 94  0     1  0  0  0  0  0999 V2000
  -18.1569  -28.1843   26.4588 C   0  0  0  0  0  0  0  0  0  0  0  0
  -18.9955  -27.1448   26.0696 C   0  0  0  0  0  0  0  0  0  0  0  0
  -23.2167   -9.8059   21.5613 C   0  0  0  0  0  0  0  0  0  0  0  0
  -23.5903  -10.9020   23.6817 C   0  0  0  0  0  0  0  0  0  0  0  0
  -17.9699  -29.2800   25.6171 C   0  0  0  0  0  0  0  0  0  0  0  0
  -19.6469  -27.1998   24.8379 C   0  0  0  0  0  0  0  0  0  0  0  0
  -24.5203  -25.8605   25.1559 C   0  0  0  0  0  0  0  0  0  0  0  0
  -22.4797   -8.8119   22.2050 C   0  0  0  0  0  0  0  0  0  0  0  0
  -22.8532   -9.9080   24.3254 C   0  0  0  0  0  0  0  0  0  0  0  0
  -24.8021  -24.4974   25.2358 C   0  0  0  0  0  0  0  0  0  0  0  0
  -23.1038   -6.0405   24.0365 C   0  0  0  0  0  0  0  0  0  0  0  0
  -23.3567   -4.7153   23.6823 C   0  0  0  0  0  0  0  0  0  0  0  0
  -25.3323  -24.4751   22.8827 C   0  0  0  0  0  0  0  0  0  0  0  0
  -21.0579   -4.4634   22.9831 C   0  0  0  0  0  0  0  0  0  0  0  0
  -23.7721  -10.8509   22.2997 C   0  0  0  0  0  0  0  0  0  0  0  0
  -24.0470  -13.0842   21.0979 C   0  0  0  0  0  0  0  0  0  0  0  0
  -18.6269  -29.3530   24.3786 C   0  0  0  0  0  0  0  0  0  0  0  0
  -24.6320  -26.5399   23.9343 C   0  0  0  0  0  0  0  0  0  0  0  0
  -19.4675  -28.2969   23.9782 C   0  0  0  0  0  0  0  0  0  0  0  0
  -25.0538  -25.8474   22.7904 C   0  0  0  0  0  0  0  0  0  0  0  0
  -22.2979   -8.8629   23.5870 C   0  0  0  0  0  0  0  0  0  0  0  0
  -25.2054  -23.8039   24.0986 C   0  0  0  0  0  0  0  0  0  0  0  0
  -21.8279   -6.5772   23.8640 C   0  0  0  0  0  0  0  0  0  0  0  0
  -22.3338   -3.9267   23.1556 C   0  0  0  0  0  0  0  0  0  0  0  0
  -20.8049   -5.7886   23.3373 C   0  0  0  0  0  0  0  0  0  0  0  0
  -24.5340  -11.8777   21.6355 C   0  0  0  0  0  0  0  0  0  0  0  0
  -25.1591  -13.7041   20.5825 C   0  0  0  0  0  0  0  0  0  0  0  0
  -29.4148  -17.1389   23.9087 C   0  0  0  0  0  0  0  0  0  0  0  0
  -29.7802  -16.2340   22.9952 C   0  0  0  0  0  0  0  0  0  0  0  0
  -29.1740  -18.6016   23.8520 C   0  0  0  0  0  0  0  0  0  0  0  0
  -26.7713  -22.1058   24.4657 C   0  0  0  0  0  0  0  0  0  1  0  0
  -22.7091  -13.5986   21.0671 C   0  0  0  0  0  0  0  0  0  0  0  0
  -27.1737  -20.8350   24.5686 C   0  0  0  0  0  0  0  0  0  0  0  0
  -28.6062  -20.5507   24.8913 C   0  0  0  0  0  0  0  0  0  0  0  0
  -30.5335  -20.3246   22.6479 C   0  0  0  0  0  0  0  0  0  0  0  0
  -22.6118  -28.1083   22.0468 C   0  0  0  0  0  0  0  0  0  0  0  0
  -25.3146  -28.8230   20.4016 C   0  0  0  0  0  0  0  0  0  0  0  0
  -28.5317  -27.9983   19.6161 C   0  0  0  0  0  0  0  0  0  0  0  0
  -30.4387  -15.2462   20.8590 C   0  0  0  0  0  0  0  0  0  0  0  0
  -18.3566  -30.5353   23.4821 C   0  0  0  0  0  0  0  0  0  0  0  0
  -24.3502  -28.0161   23.8703 C   0  0  0  0  0  0  0  0  0  0  0  0
  -25.2090  -26.5348   21.4593 C   0  0  0  0  0  0  0  0  0  0  0  0
  -19.3764  -30.6924   22.3571 C   0  0  0  0  0  0  0  0  0  0  0  0
  -29.8443  -11.9823   19.8142 C   0  0  0  0  0  0  0  0  0  0  0  0
  -19.6290  -29.3518   21.6746 C   0  0  0  0  0  0  0  0  0  0  0  0
  -28.3718  -11.7490   20.1495 C   0  0  0  0  0  0  0  0  0  0  0  0
  -29.2767  -18.6883   21.2729 C   0  0  0  0  0  0  0  0  0  0  0  0
  -30.5371  -12.7705   20.9197 C   0  0  0  0  0  0  0  0  0  0  0  0
  -30.4079  -17.6862   21.0981 C   0  0  0  0  0  0  0  0  0  0  0  0
  -28.4128  -13.8691   21.5557 C   0  0  0  0  0  0  0  0  0  0  0  0
  -20.2109  -28.3317   22.6606 C   0  0  1  0  0  0  0  0  0  0  0  0
  -29.3234  -19.4368   22.5948 C   0  0  1  0  0  0  0  0  0  0  0  0
  -24.0014  -28.4975   22.4654 C   0  0  1  0  0  0  0  0  0  0  0  0
  -27.6614  -13.0766   20.4668 C   0  0  2  0  0  0  0  0  0  0  0  0
  -30.4084  -21.6785   22.0032 C   0  0  0  0  0  0  0  0  0  0  0  0
  -30.4726  -28.7521   18.2154 C   0  0  0  0  0  0  0  0  0  0  0  0
  -23.9353  -27.7328   17.9078 C   0  0  0  0  0  0  0  0  0  0  0  0
  -26.1777  -27.6251   16.7995 C   0  0  0  0  0  0  0  0  0  0  0  0
  -25.2580  -29.8229   17.5389 C   0  0  0  0  0  0  0  0  0  0  0  0
  -30.2505  -28.3781   21.9952 C   0  0  0  0  0  0  0  0  0  0  0  0
  -26.0813  -28.1773   19.2727 C   0  0  1  0  0  0  0  0  0  0  0  0
  -29.8034  -28.8264   19.5790 C   0  0  2  0  0  0  0  0  0  0  0  0
  -25.3584  -28.3258   17.9043 C   0  0  0  0  0  0  0  0  0  0  0  0
  -25.8527  -11.7374   21.4763 N   0  0  0  0  0  0  0  0  0  0  0  0
  -28.8264  -19.1989   24.9545 N   0  0  0  0  0  0  0  0  0  0  0  0
  -26.2038  -12.8638   20.8327 N   0  0  0  0  0  0  0  0  0  0  0  0
  -30.1068  -16.3716   21.6551 N   0  0  0  0  0  0  0  0  0  0  0  0
  -24.9156  -27.9775   21.4465 N   0  0  0  0  0  0  0  0  0  0  0  0
  -29.8325  -14.0223   21.1970 N   0  0  0  0  0  0  0  0  0  0  0  0
  -25.3354  -14.8804   19.9442 N   0  0  0  0  0  0  0  0  0  0  0  0
  -21.6855  -12.8331   21.6422 N   0  0  0  0  0  0  0  0  0  0  0  0
  -21.6185  -28.5868   22.8798 N   0  0  0  0  0  0  0  0  0  0  0  0
  -27.4208  -28.7542   19.3067 N   0  0  0  0  0  0  0  0  0  0  0  0
  -30.7693  -28.3384   20.6037 N   0  3  0  0  0  0  0  0  0  0  0  0
  -22.4269  -14.6968   20.5305 O   0  0  0  0  0  0  0  0  0  0  0  0
  -29.4224  -21.4506   25.0642 O   0  0  0  0  0  0  0  0  0  0  0  0
  -31.5752  -19.9635   23.1934 O   0  0  0  0  0  0  0  0  0  0  0  0
  -22.4525  -27.4257   21.0416 O   0  0  0  0  0  0  0  0  0  0  0  0
  -25.0845  -30.0342   20.3613 O   0  0  0  0  0  0  0  0  0  0  0  0
  -28.5249  -26.7998   19.8884 O   0  0  0  0  0  0  0  0  0  0  0  0
  -31.2202  -15.3370   19.9033 O   0  0  0  0  0  0  0  0  0  0  0  0
  -26.2919  -19.7898   24.3822 O   0  0  0  0  0  0  0  0  0  0  0  0
  -21.5786   -7.8932   24.2154 O   0  0  0  0  0  0  0  0  0  0  0  0
  -25.4823  -22.4640   24.1742 O   0  0  0  0  0  0  0  0  0  1  0  0
  -22.5772   -2.6546   22.8141 F   0  0  0  0  0  0  0  0  0  0  0  0
  -19.5774   -6.2990   23.1682 F   0  0  0  0  0  0  0  0  0  0  0  0
  1  2  1  0  0  0  0
  1  5  2  0  0  0  0
  2  6  2  0  0  0  0
  3  8  2  0  0  0  0
  3 15  1  0  0  0  0
  4  9  1  0  0  0  0
  4 15  2  0  0  0  0
  5 17  1  0  0  0  0
  6 19  1  0  0  0  0
  7 10  2  0  0  0  0
  7 18  1  0  0  0  0
  8 21  1  0  0  0  0
  9 21  2  0  0  0  0
 10 22  1  0  0  0  0
 11 12  2  0  0  0  0
 11 23  1  0  0  0  0
 12 24  1  0  0  0  0
 13 20  1  0  0  0  0
 13 22  2  0  0  0  0
 14 24  2  0  0  0  0
 14 25  1  0  0  0  0
 15 26  1  0  0  0  0
 16 26  1  0  0  0  0
 16 27  2  0  0  0  0
 16 32  1  0  0  0  0
 17 19  2  0  0  0  0
 17 40  1  0  0  0  0
 18 20  2  0  0  0  0
 18 41  1  0  0  0  0
 19 51  1  0  0  0  0
 20 42  1  0  0  0  0
 21 83  1  0  0  0  0
 22 84  1  0  0  0  0
 23 25  2  0  0  0  0
 23 83  1  0  0  0  0
 24 85  1  0  0  0  0
 25 86  1  0  0  0  0
 26 64  2  0  0  0  0
 27 66  1  0  0  0  0
 27 70  1  0  0  0  0
 28 29  2  0  0  0  0
 28 30  1  0  0  0  0
 29 67  1  0  0  0  0
 30 52  1  0  0  0  0
 30 65  2  0  0  0  0
 31 33  2  0  0  0  0
 31 84  1  0  0  0  0
 32 71  1  0  0  0  0
 32 75  2  0  0  0  0
 33 34  1  0  0  0  0
 33 82  1  0  0  0  0
 34 65  1  0  0  0  0
 34 76  2  0  0  0  0
 35 52  1  0  0  0  0
 35 55  1  0  0  0  0
 35 77  2  0  0  0  0
 36 53  1  0  0  0  0
 36 72  1  0  0  0  0
 36 78  2  0  0  0  0
 37 61  1  0  0  0  0
 37 68  1  0  0  0  0
 37 79  2  0  0  0  0
 38 62  1  0  0  0  0
 38 73  1  0  0  0  0
 38 80  2  0  0  0  0
 39 67  1  0  0  0  0
 39 69  1  0  0  0  0
 39 81  2  0  0  0  0
 40 43  1  0  0  0  0
 41 53  1  0  0  0  0
 42 68  1  0  0  0  0
 43 45  1  0  0  0  0
 44 46  1  0  0  0  0
 44 48  1  0  0  0  0
 45 51  1  0  0  0  0
 46 54  1  0  0  0  0
 47 49  1  0  0  0  0
 47 52  1  0  0  0  0
 48 69  1  0  0  0  0
 49 67  1  0  0  0  0
 50 54  1  0  0  0  0
 50 69  1  0  0  0  0
 51 72  1  0  0  0  0
 53 68  1  0  0  0  0
 54 66  1  0  0  0  0
 56 62  1  0  0  0  0
 57 63  1  0  0  0  0
 58 63  1  0  0  0  0
 59 63  1  0  0  0  0
 60 74  1  0  0  0  0
 61 63  1  0  0  0  0
 61 73  1  0  0  0  0
 62 74  1  0  0  0  0
 64 66  1  0  0  0  0
M  CHG  1  74   1
M  ISO  4  31 101  39 100  67 100  84 101
M  END
> <Batch ID>
0165

> <Smiles>
CNC(C)C(=O)NC(C(=O)N1Cc2cc([101O:1][101CH2:1]C(=O)C(=O)NC3=C(C(C)=O)CC[100N:0]([100C:0](=O)N4CCCC(n5nc(-c6ccc(Oc7ccc(F)cc7F)cc6)c(C(N)=O)c5N)C4)C=C3)ccc2CC1C(=O)NC1CCCc2ccccc21)C(C)(C)C

> <Shape>
0.259

> <Color>
0.150

> <Negative vol penalty>
0.000

$$$$
