
  -OEChem-04052304083D

 84 92  0     1  0  0  0  0  0999 V2000
  -16.9425  -30.0985   24.7413 C   0  0  0  0  0  0  0  0  0  0  0  0
  -17.9797  -29.1734   24.8013 C   0  0  0  0  0  0  0  0  0  0  0  0
  -32.0519  -18.1390   23.4677 C   0  0  0  0  0  0  0  0  0  0  0  0
  -23.2803   -9.5916   19.9796 C   0  0  0  0  0  0  0  0  0  0  0  0
  -23.8237   -9.8805   22.3159 C   0  0  0  0  0  0  0  0  0  0  0  0
  -31.1417  -19.0233   24.0466 C   0  0  0  0  0  0  0  0  0  0  0  0
  -16.9287  -31.0644   23.7359 C   0  0  0  0  0  0  0  0  0  0  0  0
  -19.0033  -29.2129   23.8552 C   0  0  0  0  0  0  0  0  0  0  0  0
  -24.9103  -27.8759   24.7639 C   0  0  0  0  0  0  0  0  0  0  0  0
  -31.5998  -17.1315   22.6154 C   0  0  0  0  0  0  0  0  0  0  0  0
  -22.5817   -8.4239   20.2865 C   0  0  0  0  0  0  0  0  0  0  0  0
  -23.1251   -8.7129   22.6228 C   0  0  0  0  0  0  0  0  0  0  0  0
  -25.6610  -26.7276   24.5156 C   0  0  0  0  0  0  0  0  0  0  0  0
  -19.9044   -7.7725   23.0273 C   0  0  0  0  0  0  0  0  0  0  0  0
  -19.0460   -7.8025   24.1263 C   0  0  0  0  0  0  0  0  0  0  0  0
  -29.3273  -17.8926   22.9212 C   0  0  0  0  0  0  0  0  0  0  0  0
  -26.3840  -27.6624   22.4126 C   0  0  0  0  0  0  0  0  0  0  0  0
  -20.3199   -6.0345   25.1696 C   0  0  0  0  0  0  0  0  0  0  0  0
  -23.9013  -10.3199   20.9943 C   0  0  0  0  0  0  0  0  0  0  0  0
  -29.7794  -18.9002   23.7733 C   0  0  0  0  0  0  0  0  0  0  0  0
  -24.1119  -12.8366   20.6349 C   0  0  0  0  0  0  0  0  0  0  0  0
  -17.9576  -31.1219   22.7828 C   0  0  0  0  0  0  0  0  0  0  0  0
  -24.8820  -28.9232   23.8318 C   0  0  0  0  0  0  0  0  0  0  0  0
  -19.0026  -30.1796   22.8353 C   0  0  0  0  0  0  0  0  0  0  0  0
  -25.6341  -28.8239   22.6526 C   0  0  0  0  0  0  0  0  0  0  0  0
  -30.2375  -17.0083   22.3422 C   0  0  0  0  0  0  0  0  0  0  0  0
  -22.5041   -7.9845   21.6081 C   0  0  0  0  0  0  0  0  0  0  0  0
  -26.3957  -26.6195   23.3385 C   0  0  0  0  0  0  0  0  0  0  0  0
  -20.9705   -6.8734   22.9994 C   0  0  0  0  0  0  0  0  0  0  0  0
  -19.2538   -6.9336   25.1975 C   0  0  0  0  0  0  0  0  0  0  0  0
  -21.1783   -6.0044   24.0706 C   0  0  0  0  0  0  0  0  0  0  0  0
  -24.6235  -11.5258   20.6779 C   0  0  0  0  0  0  0  0  0  0  0  0
  -25.1896  -13.6147   20.2889 C   0  0  0  0  0  0  0  0  0  0  0  0
  -28.8151  -19.8363   24.3853 C   0  0  0  0  0  0  0  0  0  0  0  0
  -22.7815  -13.3087   20.8855 C   0  0  0  0  0  0  0  0  0  0  0  0
  -22.6180  -30.3099   22.0839 C   0  0  0  0  0  0  0  0  0  0  0  0
  -27.9795  -23.3083   23.6803 C   0  0  0  0  0  0  0  0  0  0  0  0
  -25.0168  -32.3476   21.2995 C   0  0  0  0  0  0  0  0  0  0  0  0
  -28.3720  -32.8931   20.9965 C   0  0  0  0  0  0  0  0  0  0  0  0
  -30.5497  -15.0252   20.8203 C   0  0  0  0  0  0  0  0  0  0  0  0
  -17.8748  -32.1544   21.6865 C   0  0  0  0  0  0  0  0  0  0  0  0
  -24.0884  -30.1664   24.1268 C   0  0  0  0  0  0  0  0  0  0  0  0
  -25.6535  -29.9286   21.6290 C   0  0  0  0  0  0  0  0  0  0  0  0
  -19.1931  -32.3631   20.9456 C   0  0  0  0  0  0  0  0  0  0  0  0
  -29.7945  -12.3163   18.6366 C   0  0  0  0  0  0  0  0  0  0  0  0
  -19.8204  -31.0206   20.5837 C   0  0  0  0  0  0  0  0  0  0  0  0
  -28.3398  -11.9770   18.9694 C   0  0  0  0  0  0  0  0  0  0  0  0
  -30.5807  -12.7248   19.8811 C   0  0  0  0  0  0  0  0  0  0  0  0
  -28.5171  -13.4604   21.0079 C   0  0  0  0  0  0  0  0  0  0  0  0
  -20.1438  -30.2058   21.8419 C   0  0  1  0  0  0  0  0  0  0  0  0
  -23.7232  -30.9539   22.8722 C   0  0  1  0  0  0  0  0  0  0  0  0
  -27.6682  -13.1057   19.7760 C   0  0  2  0  0  0  0  0  0  0  0  0
  -30.0278  -34.6435   20.2950 C   0  0  0  0  0  0  0  0  0  0  0  0
  -24.3742  -31.7786   18.3715 C   0  0  0  0  0  0  0  0  0  0  0  0
  -26.5957  -32.7612   17.7652 C   0  0  0  0  0  0  0  0  0  0  0  0
  -24.8717  -34.1754   18.8836 C   0  0  0  0  0  0  0  0  0  0  0  0
  -29.5993  -32.9768   23.6883 C   0  0  0  0  0  0  0  0  0  0  0  0
  -28.0410  -22.1650   24.6590 C   0  0  0  0  0  0  0  0  0  0  0  0
  -27.0999  -24.4742   24.0855 C   0  0  0  0  0  0  0  0  0  1  0  0
  -26.0698  -32.3938   20.2187 C   0  0  1  0  0  0  0  0  0  0  0  0
  -29.2513  -34.0421   21.4561 C   0  0  2  0  0  0  0  0  0  0  0  0
  -25.4762  -32.7555   18.8280 C   0  0  0  0  0  0  0  0  0  0  0  0
  -25.9249  -11.4704   20.3826 N   0  0  0  0  0  0  0  0  0  0  0  0
  -26.2402  -12.7560   20.1507 N   0  0  0  0  0  0  0  0  0  0  0  0
  -24.8565  -31.1214   21.9602 N   0  0  0  0  0  0  0  0  0  0  0  0
  -29.8867  -13.8009   20.5919 N   0  0  0  0  0  0  0  0  0  0  0  0
  -25.3315  -14.9427   20.0924 N   0  0  0  0  0  0  0  0  0  0  0  0
  -21.7948  -12.3747   21.2297 N   0  0  0  0  0  0  0  0  0  0  0  0
  -29.7791  -15.9846   21.4764 N   0  0  0  0  0  0  0  0  0  0  0  0
  -28.9378  -21.1511   24.1303 N   0  0  0  0  0  0  0  0  0  0  0  0
  -21.3501  -30.7018   22.4690 N   0  0  0  0  0  0  0  0  0  0  0  0
  -27.0967  -33.3175   20.6885 N   0  0  0  0  0  0  0  0  0  0  0  0
  -27.8622  -19.3328   25.1699 N   0  3  0  0  0  0  0  0  0  0  0  0
  -30.2265  -33.5708   22.4796 N   0  3  0  0  0  0  0  0  0  0  0  0
  -22.4729  -14.5209   20.7905 O   0  0  0  0  0  0  0  0  0  0  0  0
  -22.8950  -29.5173   21.1913 O   0  0  0  0  0  0  0  0  0  0  0  0
  -28.6001  -23.3035   22.6181 O   0  0  0  0  0  0  0  0  0  0  0  0
  -24.3656  -33.3641   21.5532 O   0  0  0  0  0  0  0  0  0  0  0  0
  -28.7772  -31.7357   20.9149 O   0  0  0  0  0  0  0  0  0  0  0  0
  -31.7060  -15.2186   20.4362 O   0  0  0  0  0  0  0  0  0  0  0  0
  -21.8224   -6.8453   21.9079 O   0  0  0  0  0  0  0  0  0  0  0  0
  -27.1289  -25.4996   23.0934 O   0  0  0  0  0  0  0  0  0  1  0  0
  -18.4303   -6.9636   26.2535 F   0  0  0  0  0  0  0  0  0  0  0  0
  -22.2015   -5.1393   24.0500 F   0  0  0  0  0  0  0  0  0  0  0  0
  1  2  1  0  0  0  0
  1  7  2  0  0  0  0
  2  8  2  0  0  0  0
  3  6  2  0  0  0  0
  3 10  1  0  0  0  0
  4 11  2  0  0  0  0
  4 19  1  0  0  0  0
  5 12  1  0  0  0  0
  5 19  2  0  0  0  0
  6 20  1  0  0  0  0
  7 22  1  0  0  0  0
  8 24  1  0  0  0  0
  9 13  2  0  0  0  0
  9 23  1  0  0  0  0
 10 26  2  0  0  0  0
 11 27  1  0  0  0  0
 12 27  2  0  0  0  0
 13 28  1  0  0  0  0
 14 15  2  0  0  0  0
 14 29  1  0  0  0  0
 15 30  1  0  0  0  0
 16 20  2  0  0  0  0
 16 26  1  0  0  0  0
 17 25  1  0  0  0  0
 17 28  2  0  0  0  0
 18 30  2  0  0  0  0
 18 31  1  0  0  0  0
 19 32  1  0  0  0  0
 20 34  1  0  0  0  0
 21 32  1  0  0  0  0
 21 33  2  0  0  0  0
 21 35  1  0  0  0  0
 22 24  2  0  0  0  0
 22 41  1  0  0  0  0
 23 25  2  0  0  0  0
 23 42  1  0  0  0  0
 24 50  1  0  0  0  0
 25 43  1  0  0  0  0
 26 69  1  0  0  0  0
 27 81  1  0  0  0  0
 28 82  1  0  0  0  0
 29 31  2  0  0  0  0
 29 81  1  0  0  0  0
 30 83  1  0  0  0  0
 31 84  1  0  0  0  0
 32 63  2  0  0  0  0
 33 64  1  0  0  0  0
 33 67  1  0  0  0  0
 34 70  1  0  0  0  0
 34 73  2  0  0  0  0
 35 68  1  0  0  0  0
 35 75  2  0  0  0  0
 36 51  1  0  0  0  0
 36 71  1  0  0  0  0
 36 76  2  0  0  0  0
 37 58  1  0  0  0  0
 37 59  1  0  0  0  0
 37 77  2  0  0  0  0
 38 60  1  0  0  0  0
 38 65  1  0  0  0  0
 38 78  2  0  0  0  0
 39 61  1  0  0  0  0
 39 72  1  0  0  0  0
 39 79  2  0  0  0  0
 40 66  1  0  0  0  0
 40 69  1  0  0  0  0
 40 80  2  0  0  0  0
 41 44  1  0  0  0  0
 42 51  1  0  0  0  0
 43 65  1  0  0  0  0
 44 46  1  0  0  0  0
 45 47  1  0  0  0  0
 45 48  1  0  0  0  0
 46 50  1  0  0  0  0
 47 52  1  0  0  0  0
 48 66  1  0  0  0  0
 49 52  1  0  0  0  0
 49 66  1  0  0  0  0
 50 71  1  0  0  0  0
 51 65  1  0  0  0  0
 52 64  1  0  0  0  0
 53 61  1  0  0  0  0
 54 62  1  0  0  0  0
 55 62  1  0  0  0  0
 56 62  1  0  0  0  0
 57 74  1  0  0  0  0
 58 70  1  0  0  0  0
 59 82  1  0  0  0  0
 60 62  1  0  0  0  0
 60 72  1  0  0  0  0
 61 74  1  0  0  0  0
 63 64  1  0  0  0  0
M  CHG  2  73   1  74   1
M  ISO  4  40 100  59 101  69 100  82 101
M  END
> <Batch ID>
0166

> <Smiles>
CNC(C)C(=O)NC(C(=O)N1Cc2cc([101O:1][101CH2:1]C(=O)CNC(=N)c3cccc([100NH:0][100C:0](=O)N4CCCC(n5nc(-c6ccc(Oc7ccc(F)cc7F)cc6)c(C(N)=O)c5N)C4)c3)ccc2CC1C(=O)NC1CCCc2ccccc21)C(C)(C)C

> <Shape>
0.261

> <Color>
0.183

> <Negative vol penalty>
0.000

$$$$

  -OEChem-04052304083D

 85 93  0     1  0  0  0  0  0999 V2000
  -32.6266  -31.7432   23.9672 C   0  0  0  0  0  0  0  0  0  0  0  0
  -31.8236  -30.6187   24.1288 C   0  0  0  0  0  0  0  0  0  0  0  0
  -23.0277   -9.8720   19.9515 C   0  0  0  0  0  0  0  0  0  0  0  0
  -23.7676   -9.8865   22.2513 C   0  0  0  0  0  0  0  0  0  0  0  0
  -32.8405  -32.2686   22.6936 C   0  0  0  0  0  0  0  0  0  0  0  0
  -31.2332  -30.0195   23.0167 C   0  0  0  0  0  0  0  0  0  0  0  0
  -31.6446  -24.9725   23.0819 C   0  0  0  0  0  0  0  0  0  0  0  0
  -32.3271  -18.5506   22.0626 C   0  0  0  0  0  0  0  0  0  0  0  0
  -31.8296  -17.3272   21.6139 C   0  0  0  0  0  0  0  0  0  0  0  0
  -22.2776   -8.7225   20.2000 C   0  0  0  0  0  0  0  0  0  0  0  0
  -23.0175   -8.7371   22.4999 C   0  0  0  0  0  0  0  0  0  0  0  0
  -30.7711  -24.2732   23.9135 C   0  0  0  0  0  0  0  0  0  0  0  0
  -23.3016   -5.4117   21.9598 C   0  0  0  0  0  0  0  0  0  0  0  0
  -23.9072   -4.3874   22.6876 C   0  0  0  0  0  0  0  0  0  0  0  0
  -29.3766  -23.7653   22.0117 C   0  0  0  0  0  0  0  0  0  0  0  0
  -29.7563  -17.7415   22.7831 C   0  0  0  0  0  0  0  0  0  0  0  0
  -22.1917   -4.5746   24.3785 C   0  0  0  0  0  0  0  0  0  0  0  0
  -23.7727  -10.4540   20.9771 C   0  0  0  0  0  0  0  0  0  0  0  0
  -24.1245  -12.9774   20.8489 C   0  0  0  0  0  0  0  0  0  0  0  0
  -32.2602  -31.6697   21.5643 C   0  0  0  0  0  0  0  0  0  0  0  0
  -31.3845  -25.0829   21.7083 C   0  0  0  0  0  0  0  0  0  0  0  0
  -31.4384  -30.5381   21.7269 C   0  0  0  0  0  0  0  0  0  0  0  0
  -30.2497  -24.4644   21.1644 C   0  0  0  0  0  0  0  0  0  0  0  0
  -31.5393  -19.3694   22.8716 C   0  0  0  0  0  0  0  0  0  0  0  0
  -30.5442  -16.9226   21.9742 C   0  0  0  0  0  0  0  0  0  0  0  0
  -30.2539  -18.9649   23.2318 C   0  0  0  0  0  0  0  0  0  0  0  0
  -22.2725   -8.1551   21.4743 C   0  0  0  0  0  0  0  0  0  0  0  0
  -29.6354  -23.6719   23.3790 C   0  0  0  0  0  0  0  0  0  0  0  0
  -22.1410   -6.0174   22.4414 C   0  0  0  0  0  0  0  0  0  0  0  0
  -23.3523   -3.9688   23.8970 C   0  0  0  0  0  0  0  0  0  0  0  0
  -21.5861   -5.5988   23.6507 C   0  0  0  0  0  0  0  0  0  0  0  0
  -24.5482  -11.6410   20.7208 C   0  0  0  0  0  0  0  0  0  0  0  0
  -25.2224  -13.7214   20.4918 C   0  0  0  0  0  0  0  0  0  0  0  0
  -22.8522  -13.4994   21.2544 C   0  0  0  0  0  0  0  0  0  0  0  0
  -27.6073  -20.6055   25.3441 C   0  0  0  0  0  0  0  0  0  0  0  0
  -28.1625  -19.5041   24.4880 C   0  0  0  0  0  0  0  0  0  0  0  0
  -30.8278  -27.4978   19.7177 C   0  0  0  0  0  0  0  0  0  0  0  0
  -30.9514  -25.1623   17.4699 C   0  0  0  0  0  0  0  0  0  0  0  0
  -30.6289  -21.8504   16.7123 C   0  0  0  0  0  0  0  0  0  0  0  0
  -30.6905  -14.7488   20.7095 C   0  0  0  0  0  0  0  0  0  0  0  0
  -32.4819  -32.3016   20.2129 C   0  0  0  0  0  0  0  0  0  0  0  0
  -32.3506  -25.8181   20.8204 C   0  0  0  0  0  0  0  0  0  0  0  0
  -29.9359  -24.5363   19.6931 C   0  0  0  0  0  0  0  0  0  0  0  0
  -32.1235  -31.3851   19.0459 C   0  0  0  0  0  0  0  0  0  0  0  0
  -29.5882  -12.3283   18.3423 C   0  0  0  0  0  0  0  0  0  0  0  0
  -30.7710  -30.7213   19.2842 C   0  0  0  0  0  0  0  0  0  0  0  0
  -28.1439  -12.0437   18.7606 C   0  0  0  0  0  0  0  0  0  0  0  0
  -30.4936  -12.5593   19.5508 C   0  0  0  0  0  0  0  0  0  0  0  0
  -28.5773  -13.2965   20.9122 C   0  0  0  0  0  0  0  0  0  0  0  0
  -30.8005  -29.8451   20.5424 C   0  0  1  0  0  0  0  0  0  0  0  0
  -31.7169  -26.3028   19.5200 C   0  0  1  0  0  0  0  0  0  0  0  0
  -27.6141  -13.1214   19.7268 C   0  0  2  0  0  0  0  0  0  0  0  0
  -32.0982  -20.6746   23.3375 C   0  0  0  0  0  0  0  0  0  0  0  0
  -30.7527  -20.2497   14.7837 C   0  0  0  0  0  0  0  0  0  0  0  0
  -28.2251  -26.1272   16.4973 C   0  0  0  0  0  0  0  0  0  0  0  0
  -27.9815  -23.9672   15.2550 C   0  0  0  0  0  0  0  0  0  0  0  0
  -29.8330  -25.5354   14.6756 C   0  0  0  0  0  0  0  0  0  0  0  0
  -32.8467  -20.3384   17.9591 C   0  0  0  0  0  0  0  0  0  0  0  0
  -26.8123  -21.6759   24.6292 C   0  0  0  0  0  0  0  0  0  0  0  0
  -27.6367  -22.3979   23.5740 C   0  0  0  0  0  0  0  0  0  1  0  0
  -29.9443  -24.2315   16.8388 C   0  0  1  0  0  0  0  0  0  0  0  0
  -31.5174  -20.9066   15.9222 C   0  0  2  0  0  0  0  0  0  0  0  0
  -29.0006  -24.9654   15.8448 C   0  0  0  0  0  0  0  0  0  0  0  0
  -25.8163  -11.5389   20.3140 N   0  0  0  0  0  0  0  0  0  0  0  0
  -26.1988  -12.8206   20.1833 N   0  0  0  0  0  0  0  0  0  0  0  0
  -30.9077  -25.2718   18.8670 N   0  0  0  0  0  0  0  0  0  0  0  0
  -29.9307  -13.5960   20.4188 N   0  0  0  0  0  0  0  0  0  0  0  0
  -25.4381  -15.0518   20.4147 N   0  0  0  0  0  0  0  0  0  0  0  0
  -21.8342  -12.5953   21.5869 N   0  0  0  0  0  0  0  0  0  0  0  0
  -29.4400  -19.7812   24.0514 N   0  0  0  0  0  0  0  0  0  0  0  0
  -30.0392  -15.6797   21.5181 N   0  0  0  0  0  0  0  0  0  0  0  0
  -31.4687  -28.5908   20.2692 N   0  0  0  0  0  0  0  0  0  0  0  0
  -30.7118  -23.1438   16.2418 N   0  0  0  0  0  0  0  0  0  0  0  0
  -32.0527  -19.8350   16.8088 N   0  3  0  0  0  0  0  0  0  0  0  0
  -22.6198  -14.7311   21.3043 O   0  0  0  0  0  0  0  0  0  0  0  0
  -27.8289  -20.5471   26.5441 O   0  0  0  0  0  0  0  0  0  0  0  0
  -27.4470  -18.5309   24.3181 O   0  0  0  0  0  0  0  0  0  0  0  0
  -29.6480  -27.4335   19.3926 O   0  0  0  0  0  0  0  0  0  0  0  0
  -31.7523  -25.7644   16.7504 O   0  0  0  0  0  0  0  0  0  0  0  0
  -29.9284  -21.4768   17.6505 O   0  0  0  0  0  0  0  0  0  0  0  0
  -31.8242  -14.9115   20.2510 O   0  0  0  0  0  0  0  0  0  0  0  0
  -21.5405   -7.0336   21.7172 O   0  0  0  0  0  0  0  0  0  0  0  0
  -28.7808  -22.9892   24.1886 O   0  0  0  0  0  0  0  0  0  1  0  0
  -23.9331   -2.9842   24.5950 F   0  0  0  0  0  0  0  0  0  0  0  0
  -20.4706   -6.1762   24.1178 F   0  0  0  0  0  0  0  0  0  0  0  0
  1  2  1  0  0  0  0
  1  5  2  0  0  0  0
  2  6  2  0  0  0  0
  3 10  2  0  0  0  0
  3 18  1  0  0  0  0
  4 11  1  0  0  0  0
  4 18  2  0  0  0  0
  5 20  1  0  0  0  0
  6 22  1  0  0  0  0
  7 12  2  0  0  0  0
  7 21  1  0  0  0  0
  8  9  2  0  0  0  0
  8 24  1  0  0  0  0
  9 25  1  0  0  0  0
 10 27  1  0  0  0  0
 11 27  2  0  0  0  0
 12 28  1  0  0  0  0
 13 14  2  0  0  0  0
 13 29  1  0  0  0  0
 14 30  1  0  0  0  0
 15 23  1  0  0  0  0
 15 28  2  0  0  0  0
 16 25  2  0  0  0  0
 16 26  1  0  0  0  0
 17 30  2  0  0  0  0
 17 31  1  0  0  0  0
 18 32  1  0  0  0  0
 19 32  1  0  0  0  0
 19 33  2  0  0  0  0
 19 34  1  0  0  0  0
 20 22  2  0  0  0  0
 20 41  1  0  0  0  0
 21 23  2  0  0  0  0
 21 42  1  0  0  0  0
 22 50  1  0  0  0  0
 23 43  1  0  0  0  0
 24 26  2  0  0  0  0
 24 53  1  0  0  0  0
 25 71  1  0  0  0  0
 26 70  1  0  0  0  0
 27 82  1  0  0  0  0
 28 83  1  0  0  0  0
 29 31  2  0  0  0  0
 29 82  1  0  0  0  0
 30 84  1  0  0  0  0
 31 85  1  0  0  0  0
 32 64  2  0  0  0  0
 33 65  1  0  0  0  0
 33 68  1  0  0  0  0
 34 69  1  0  0  0  0
 34 75  2  0  0  0  0
 35 36  1  0  0  0  0
 35 59  1  0  0  0  0
 35 76  2  0  0  0  0
 36 70  1  0  0  0  0
 36 77  2  0  0  0  0
 37 51  1  0  0  0  0
 37 72  1  0  0  0  0
 37 78  2  0  0  0  0
 38 61  1  0  0  0  0
 38 66  1  0  0  0  0
 38 79  2  0  0  0  0
 39 62  1  0  0  0  0
 39 73  1  0  0  0  0
 39 80  2  0  0  0  0
 40 67  1  0  0  0  0
 40 71  1  0  0  0  0
 40 81  2  0  0  0  0
 41 44  1  0  0  0  0
 42 51  1  0  0  0  0
 43 66  1  0  0  0  0
 44 46  1  0  0  0  0
 45 47  1  0  0  0  0
 45 48  1  0  0  0  0
 46 50  1  0  0  0  0
 47 52  1  0  0  0  0
 48 67  1  0  0  0  0
 49 52  1  0  0  0  0
 49 67  1  0  0  0  0
 50 72  1  0  0  0  0
 51 66  1  0  0  0  0
 52 65  1  0  0  0  0
 54 62  1  0  0  0  0
 55 63  1  0  0  0  0
 56 63  1  0  0  0  0
 57 63  1  0  0  0  0
 58 74  1  0  0  0  0
 59 60  1  0  0  0  0
 60 83  1  0  0  0  0
 61 63  1  0  0  0  0
 61 73  1  0  0  0  0
 62 74  1  0  0  0  0
 64 65  1  0  0  0  0
M  CHG  1  74   1
M  ISO  4  40 100  60 101  71 100  83 101
M  END
> <Batch ID>
0166

> <Smiles>
CNC(C)C(=O)NC(C(=O)N1Cc2cc([101O:1][101CH2:1]CC(=O)C(=O)Nc3cc([100NH:0][100C:0](=O)N4CCCC(n5nc(-c6ccc(Oc7ccc(F)cc7F)cc6)c(C(N)=O)c5N)C4)ccc3C)ccc2CC1C(=O)NC1CCCc2ccccc21)C(C)(C)C

> <Shape>
0.238

> <Color>
0.195

> <Negative vol penalty>
0.000

$$$$

  -OEChem-04052304083D

 90 98  0     1  0  0  0  0  0999 V2000
  -34.7490  -26.3586   35.3178 C   0  0  0  0  0  0  0  0  0  0  0  0
  -33.5855  -26.0070   34.6409 C   0  0  0  0  0  0  0  0  0  0  0  0
  -23.0747   -9.8676   19.9423 C   0  0  0  0  0  0  0  0  0  0  0  0
  -23.8385   -9.8748   22.2344 C   0  0  0  0  0  0  0  0  0  0  0  0
  -35.8564  -26.8179   34.6061 C   0  0  0  0  0  0  0  0  0  0  0  0
  -33.5286  -26.1155   33.2519 C   0  0  0  0  0  0  0  0  0  0  0  0
  -30.5071  -22.4431   29.3931 C   0  0  0  0  0  0  0  0  0  0  0  0
  -29.7373  -17.4145   24.0824 C   0  0  0  0  0  0  0  0  0  0  0  0
  -28.9316  -18.2093   24.8978 C   0  0  0  0  0  0  0  0  0  0  0  0
  -22.3323   -8.7137   20.1933 C   0  0  0  0  0  0  0  0  0  0  0  0
  -23.0961   -8.7209   22.4854 C   0  0  0  0  0  0  0  0  0  0  0  0
  -29.2687  -22.5595   28.7633 C   0  0  0  0  0  0  0  0  0  0  0  0
  -19.8697   -7.9199   23.0932 C   0  0  0  0  0  0  0  0  0  0  0  0
  -19.1148   -7.8790   24.2654 C   0  0  0  0  0  0  0  0  0  0  0  0
  -30.3584  -23.4294   26.7948 C   0  0  0  0  0  0  0  0  0  0  0  0
  -28.5301  -19.7048   23.0432 C   0  0  0  0  0  0  0  0  0  0  0  0
  -20.3593   -5.9426   24.9993 C   0  0  0  0  0  0  0  0  0  0  0  0
  -23.8278  -10.4481   20.9628 C   0  0  0  0  0  0  0  0  0  0  0  0
  -24.1670  -12.9736   20.8427 C   0  0  0  0  0  0  0  0  0  0  0  0
  -35.8163  -26.9229   33.2068 C   0  0  0  0  0  0  0  0  0  0  0  0
  -31.6814  -22.8299   28.7313 C   0  0  0  0  0  0  0  0  0  0  0  0
  -34.6361  -26.5779   32.5209 C   0  0  0  0  0  0  0  0  0  0  0  0
  -31.6106  -23.3145   27.4174 C   0  0  0  0  0  0  0  0  0  0  0  0
  -29.9395  -17.7649   22.7475 C   0  0  0  0  0  0  0  0  0  0  0  0
  -29.3358  -18.9100   22.2279 C   0  0  0  0  0  0  0  0  0  0  0  0
  -28.3280  -19.3544   24.3782 C   0  0  0  0  0  0  0  0  0  0  0  0
  -22.3430   -8.1403   21.4648 C   0  0  0  0  0  0  0  0  0  0  0  0
  -29.1939  -23.0554   27.4650 C   0  0  0  0  0  0  0  0  0  0  0  0
  -20.8694   -6.9721   22.8740 C   0  0  0  0  0  0  0  0  0  0  0  0
  -19.3596   -6.8904   25.2185 C   0  0  0  0  0  0  0  0  0  0  0  0
  -21.1142   -5.9835   23.8271 C   0  0  0  0  0  0  0  0  0  0  0  0
  -24.5953  -11.6398   20.7040 C   0  0  0  0  0  0  0  0  0  0  0  0
  -25.2579  -13.7242   20.4778 C   0  0  0  0  0  0  0  0  0  0  0  0
  -22.8968  -13.4882   21.2639 C   0  0  0  0  0  0  0  0  0  0  0  0
  -33.9318  -25.0144   29.2479 C   0  0  0  0  0  0  0  0  0  0  0  0
  -35.3616  -23.5752   26.7168 C   0  0  0  0  0  0  0  0  0  0  0  0
  -35.0338  -21.6932   23.8888 C   0  0  0  0  0  0  0  0  0  0  0  0
  -26.8331  -21.3272   24.8577 C   0  0  0  0  0  0  0  0  0  0  0  0
  -30.7410  -14.7484   20.6570 C   0  0  0  0  0  0  0  0  0  0  0  0
  -37.0225  -27.4694   32.4850 C   0  0  0  0  0  0  0  0  0  0  0  0
  -33.0120  -22.6730   29.4147 C   0  0  0  0  0  0  0  0  0  0  0  0
  -32.8438  -23.7244   26.6559 C   0  0  0  0  0  0  0  0  0  0  0  0
  -37.0070  -27.1998   30.9825 C   0  0  0  0  0  0  0  0  0  0  0  0
  -29.6015  -12.3634   18.2716 C   0  0  0  0  0  0  0  0  0  0  0  0
  -35.6400  -27.5344   30.3942 C   0  0  0  0  0  0  0  0  0  0  0  0
  -28.1651  -12.0682   18.7070 C   0  0  0  0  0  0  0  0  0  0  0  0
  -30.5205  -12.5848   19.4710 C   0  0  0  0  0  0  0  0  0  0  0  0
  -28.6204  -13.3138   20.8610 C   0  0  0  0  0  0  0  0  0  0  0  0
  -34.5439  -26.6583   31.0125 C   0  0  1  0  0  0  0  0  0  0  0  0
  -34.0929  -23.5792   28.8333 C   0  0  1  0  0  0  0  0  0  0  0  0
  -27.6444  -13.1385   19.6850 C   0  0  2  0  0  0  0  0  0  0  0  0
  -36.3759  -20.7116   22.0093 C   0  0  0  0  0  0  0  0  0  0  0  0
  -24.9733  -20.9272   26.5125 C   0  0  0  0  0  0  0  0  0  0  0  0
  -25.3413  -23.2435   25.5873 C   0  0  0  0  0  0  0  0  0  0  0  0
  -30.0143  -21.7447   21.1949 C   0  0  0  0  0  0  0  0  0  0  0  0
  -31.9318  -20.1496   21.1494 C   0  0  0  0  0  0  0  0  0  0  0  0
  -30.7236  -20.7280   19.0299 C   0  0  0  0  0  0  0  0  0  0  0  0
  -35.5553  -26.3301   25.4195 C   0  0  0  0  0  0  0  0  0  0  0  0
  -36.0024  -25.1928   23.2343 C   0  0  0  0  0  0  0  0  0  0  0  0
  -37.5871  -24.8994   25.1383 C   0  0  0  0  0  0  0  0  0  0  0  0
  -34.2700  -18.9320   24.6311 C   0  0  0  0  0  0  0  0  0  0  0  0
  -29.5363  -19.3036   20.8012 C   0  0  0  0  0  0  0  0  0  0  0  0
  -30.8069  -16.8988   21.8942 C   0  0  0  0  0  0  0  0  0  0  0  0
  -26.9742  -22.2370   27.2225 C   0  0  0  0  0  0  0  0  0  1  0  0
  -35.3287  -23.7660   25.2196 C   0  0  1  0  0  0  0  0  0  0  0  0
  -35.7950  -20.4762   23.3949 C   0  0  2  0  0  0  0  0  0  0  0  0
  -26.0279  -21.9409   26.0345 C   0  0  0  0  0  0  0  0  0  0  0  0
  -30.5554  -20.4585   20.5353 C   0  0  0  0  0  0  0  0  0  0  0  0
  -36.0948  -25.0413   24.7677 C   0  0  0  0  0  0  0  0  0  0  0  0
  -25.8596  -11.5453   20.2835 N   0  0  0  0  0  0  0  0  0  0  0  0
  -26.2350  -12.8292   20.1548 N   0  0  0  0  0  0  0  0  0  0  0  0
  -34.1208  -23.5582   27.3694 N   0  0  0  0  0  0  0  0  0  0  0  0
  -29.9705  -13.6126   20.3581 N   0  0  0  0  0  0  0  0  0  0  0  0
  -25.4669  -15.0559   20.4047 N   0  0  0  0  0  0  0  0  0  0  0  0
  -21.8863  -12.5780   21.6027 N   0  0  0  0  0  0  0  0  0  0  0  0
  -27.5082  -20.1606   25.2052 N   0  0  0  0  0  0  0  0  0  0  0  0
  -34.5688  -25.3328   30.4321 N   0  0  0  0  0  0  0  0  0  0  0  0
  -35.8355  -22.5273   24.6390 N   0  0  0  0  0  0  0  0  0  0  0  0
  -30.1424  -15.6765   21.5002 N   0  0  0  0  0  0  0  0  0  0  0  0
  -34.8929  -19.2917   23.3313 N   0  3  0  0  0  0  0  0  0  0  0  0
  -22.6595  -14.7185   21.3219 O   0  0  0  0  0  0  0  0  0  0  0  0
  -33.2793  -25.7769   28.5447 O   0  0  0  0  0  0  0  0  0  0  0  0
  -36.4478  -23.4389   27.2853 O   0  0  0  0  0  0  0  0  0  0  0  0
  -33.8477  -21.8866   23.6315 O   0  0  0  0  0  0  0  0  0  0  0  0
  -26.8473  -21.8637   23.7513 O   0  0  0  0  0  0  0  0  0  0  0  0
  -31.8760  -14.9251   20.2014 O   0  0  0  0  0  0  0  0  0  0  0  0
  -21.6185   -7.0145   21.7101 O   0  0  0  0  0  0  0  0  0  0  0  0
  -27.9864  -23.1707   26.8482 O   0  0  0  0  0  0  0  0  0  1  0  0
  -18.6357   -6.8522   26.3448 F   0  0  0  0  0  0  0  0  0  0  0  0
  -22.0741   -5.0709   23.6226 F   0  0  0  0  0  0  0  0  0  0  0  0
  1  2  1  0  0  0  0
  1  5  2  0  0  0  0
  2  6  2  0  0  0  0
  3 10  2  0  0  0  0
  3 18  1  0  0  0  0
  4 11  1  0  0  0  0
  4 18  2  0  0  0  0
  5 20  1  0  0  0  0
  6 22  1  0  0  0  0
  7 12  2  0  0  0  0
  7 21  1  0  0  0  0
  8  9  2  0  0  0  0
  8 24  1  0  0  0  0
  9 26  1  0  0  0  0
 10 27  1  0  0  0  0
 11 27  2  0  0  0  0
 12 28  1  0  0  0  0
 13 14  2  0  0  0  0
 13 29  1  0  0  0  0
 14 30  1  0  0  0  0
 15 23  1  0  0  0  0
 15 28  2  0  0  0  0
 16 25  1  0  0  0  0
 16 26  2  0  0  0  0
 17 30  2  0  0  0  0
 17 31  1  0  0  0  0
 18 32  1  0  0  0  0
 19 32  1  0  0  0  0
 19 33  2  0  0  0  0
 19 34  1  0  0  0  0
 20 22  2  0  0  0  0
 20 40  1  0  0  0  0
 21 23  2  0  0  0  0
 21 41  1  0  0  0  0
 22 49  1  0  0  0  0
 23 42  1  0  0  0  0
 24 25  2  0  0  0  0
 24 63  1  0  0  0  0
 25 62  1  0  0  0  0
 26 76  1  0  0  0  0
 27 87  1  0  0  0  0
 28 88  1  0  0  0  0
 29 31  2  0  0  0  0
 29 87  1  0  0  0  0
 30 89  1  0  0  0  0
 31 90  1  0  0  0  0
 32 70  2  0  0  0  0
 33 71  1  0  0  0  0
 33 74  1  0  0  0  0
 34 75  1  0  0  0  0
 34 81  2  0  0  0  0
 35 50  1  0  0  0  0
 35 77  1  0  0  0  0
 35 82  2  0  0  0  0
 36 65  1  0  0  0  0
 36 72  1  0  0  0  0
 36 83  2  0  0  0  0
 37 66  1  0  0  0  0
 37 78  1  0  0  0  0
 37 84  2  0  0  0  0
 38 67  1  0  0  0  0
 38 76  1  0  0  0  0
 38 85  2  0  0  0  0
 39 73  1  0  0  0  0
 39 79  1  0  0  0  0
 39 86  2  0  0  0  0
 40 43  1  0  0  0  0
 41 50  1  0  0  0  0
 42 72  1  0  0  0  0
 43 45  1  0  0  0  0
 44 46  1  0  0  0  0
 44 47  1  0  0  0  0
 45 49  1  0  0  0  0
 46 51  1  0  0  0  0
 47 73  1  0  0  0  0
 48 51  1  0  0  0  0
 48 73  1  0  0  0  0
 49 77  1  0  0  0  0
 50 72  1  0  0  0  0
 51 71  1  0  0  0  0
 52 66  1  0  0  0  0
 53 67  1  0  0  0  0
 54 67  1  0  0  0  0
 55 68  1  0  0  0  0
 56 68  1  0  0  0  0
 57 68  1  0  0  0  0
 58 69  1  0  0  0  0
 59 69  1  0  0  0  0
 60 69  1  0  0  0  0
 61 80  1  0  0  0  0
 62 68  1  0  0  0  0
 63 79  1  0  0  0  0
 64 67  1  0  0  0  0
 64 88  1  0  0  0  0
 65 69  1  0  0  0  0
 65 78  1  0  0  0  0
 66 80  1  0  0  0  0
 70 71  1  0  0  0  0
M  CHG  1  80   1
M  ISO  4  39 100  64 101  79 100  88 101
M  END
> <Batch ID>
0166

> <Smiles>
CNC(C)C(=O)NC(C(=O)N1Cc2cc([101O:1][101CH2:1]C(C)(C)C(=O)Nc3ccc(C[100NH:0][100C:0](=O)N4CCCC(n5nc(-c6ccc(Oc7ccc(F)cc7F)cc6)c(C(N)=O)c5N)C4)c(CC(C)(C)C)c3)ccc2CC1C(=O)NC1CCCc2ccccc21)C(C)(C)C

> <Shape>
0.178

> <Color>
0.184

> <Negative vol penalty>
0.000

$$$$

  -OEChem-04052304083D

 83 91  0     1  0  0  0  0  0999 V2000
  -14.7504  -22.9859   26.8800 C   0  0  0  0  0  0  0  0  0  0  0  0
  -16.0308  -22.6099   26.4867 C   0  0  0  0  0  0  0  0  0  0  0  0
  -30.2535  -18.6299   25.1101 C   0  0  0  0  0  0  0  0  0  0  0  0
  -22.9976   -9.9028   19.9749 C   0  0  0  0  0  0  0  0  0  0  0  0
  -23.7822   -9.9051   22.2600 C   0  0  0  0  0  0  0  0  0  0  0  0
  -14.0934  -24.0200   26.2144 C   0  0  0  0  0  0  0  0  0  0  0  0
  -16.6545  -23.2672   25.4268 C   0  0  0  0  0  0  0  0  0  0  0  0
  -22.6294  -24.4829   24.8533 C   0  0  0  0  0  0  0  0  0  0  0  0
  -30.7615  -17.6516   24.2554 C   0  0  0  0  0  0  0  0  0  0  0  0
  -29.5927  -19.7403   24.5846 C   0  0  0  0  0  0  0  0  0  0  0  0
  -22.2408   -8.7606   20.2359 C   0  0  0  0  0  0  0  0  0  0  0  0
  -23.0254   -8.7628   22.5210 C   0  0  0  0  0  0  0  0  0  0  0  0
  -23.6539  -23.8440   24.1562 C   0  0  0  0  0  0  0  0  0  0  0  0
  -23.2651   -5.4358   21.9692 C   0  0  0  0  0  0  0  0  0  0  0  0
  -23.8743   -4.4040   22.6831 C   0  0  0  0  0  0  0  0  0  0  0  0
  -23.3512  -25.3770   22.3184 C   0  0  0  0  0  0  0  0  0  0  0  0
  -29.9480  -18.8941   22.3497 C   0  0  0  0  0  0  0  0  0  0  0  0
  -22.1939   -4.6049   24.4074 C   0  0  0  0  0  0  0  0  0  0  0  0
  -23.7683  -10.4751   20.9870 C   0  0  0  0  0  0  0  0  0  0  0  0
  -24.1431  -12.9951   20.8567 C   0  0  0  0  0  0  0  0  0  0  0  0
  -14.7132  -24.6966   25.1521 C   0  0  0  0  0  0  0  0  0  0  0  0
  -21.9496  -25.5686   24.2827 C   0  0  0  0  0  0  0  0  0  0  0  0
  -16.0047  -24.3104   24.7455 C   0  0  0  0  0  0  0  0  0  0  0  0
  -22.3202  -26.0296   23.0113 C   0  0  0  0  0  0  0  0  0  0  0  0
  -30.6087  -17.7837   22.8752 C   0  0  0  0  0  0  0  0  0  0  0  0
  -29.4400  -19.8724   23.2044 C   0  0  0  0  0  0  0  0  0  0  0  0
  -22.2547   -8.1905   21.5089 C   0  0  0  0  0  0  0  0  0  0  0  0
  -24.0130  -24.2892   22.8873 C   0  0  0  0  0  0  0  0  0  0  0  0
  -22.1203   -6.0523   22.4743 C   0  0  0  0  0  0  0  0  0  0  0  0
  -23.3387   -3.9885   23.9022 C   0  0  0  0  0  0  0  0  0  0  0  0
  -21.5848   -5.6368   23.6934 C   0  0  0  0  0  0  0  0  0  0  0  0
  -24.5507  -11.6548   20.7179 C   0  0  0  0  0  0  0  0  0  0  0  0
  -25.2414  -13.7287   20.4798 C   0  0  0  0  0  0  0  0  0  0  0  0
  -27.5028  -20.8598   22.5228 C   0  0  0  0  0  0  0  0  0  0  0  0
  -22.8844  -13.5292   21.2880 C   0  0  0  0  0  0  0  0  0  0  0  0
  -26.7308  -22.0093   21.9615 C   0  0  0  0  0  0  0  0  0  0  0  0
  -18.9385  -26.1361   23.4371 C   0  0  0  0  0  0  0  0  0  0  0  0
  -30.7612  -14.6069   20.7033 C   0  0  0  0  0  0  0  0  0  0  0  0
  -20.0724  -29.1204   22.8619 C   0  0  0  0  0  0  0  0  0  0  0  0
  -22.7463  -31.1147   22.1411 C   0  0  0  0  0  0  0  0  0  0  0  0
  -13.9448  -25.7765   24.4324 C   0  0  0  0  0  0  0  0  0  0  0  0
  -20.8647  -26.2638   25.0586 C   0  0  0  0  0  0  0  0  0  0  0  0
  -21.6353  -27.2038   22.3628 C   0  0  0  0  0  0  0  0  0  0  0  0
  -14.8229  -26.6722   23.5623 C   0  0  0  0  0  0  0  0  0  0  0  0
  -29.5384  -12.3203   18.2302 C   0  0  0  0  0  0  0  0  0  0  0  0
  -15.7794  -25.8299   22.7241 C   0  0  0  0  0  0  0  0  0  0  0  0
  -28.1087  -12.0301   18.6853 C   0  0  0  0  0  0  0  0  0  0  0  0
  -30.4745  -12.5133   19.4192 C   0  0  0  0  0  0  0  0  0  0  0  0
  -28.5965  -13.2774   20.8374 C   0  0  0  0  0  0  0  0  0  0  0  0
  -16.7241  -25.0158   23.6164 C   0  0  1  0  0  0  0  0  0  0  0  0
  -19.8944  -27.0350   24.1692 C   0  0  1  0  0  0  0  0  0  0  0  0
  -27.6120  -13.1062   19.6670 C   0  0  2  0  0  0  0  0  0  0  0  0
  -23.3549  -33.5076   21.6925 C   0  0  0  0  0  0  0  0  0  0  0  0
  -18.8963  -28.8910   20.0558 C   0  0  0  0  0  0  0  0  0  0  0  0
  -20.3196  -30.8352   19.3758 C   0  0  0  0  0  0  0  0  0  0  0  0
  -18.5799  -31.1221   21.1403 C   0  0  0  0  0  0  0  0  0  0  0  0
  -24.5546  -31.2148   24.4818 C   0  0  0  0  0  0  0  0  0  0  0  0
  -31.1516  -16.7377   21.9611 C   0  0  0  0  0  0  0  0  0  0  0  0
  -25.6500  -22.5645   22.8480 C   0  0  0  0  0  0  0  0  0  1  0  0
  -30.1570  -15.6117   21.6516 C   0  0  0  0  0  0  0  0  0  0  0  0
  -20.6818  -29.8216   21.6720 C   0  0  1  0  0  0  0  0  0  0  0  0
  -23.2207  -32.4222   22.7493 C   0  0  2  0  0  0  0  0  0  0  0  0
  -19.6312  -30.1441   20.5721 C   0  0  0  0  0  0  0  0  0  0  0  0
  -25.8095  -11.5407   20.2863 N   0  0  0  0  0  0  0  0  0  0  0  0
  -28.7748  -20.9910   22.6751 N   0  0  0  0  0  0  0  0  0  0  0  0
  -26.2024  -12.8187   20.1505 N   0  0  0  0  0  0  0  0  0  0  0  0
  -20.5765  -27.8463   23.1589 N   0  0  0  0  0  0  0  0  0  0  0  0
  -29.9563  -13.5272   20.3394 N   0  0  0  0  0  0  0  0  0  0  0  0
  -25.4691  -15.0570   20.4010 N   0  0  0  0  0  0  0  0  0  0  0  0
  -21.8639  -12.6347   21.6385 N   0  0  0  0  0  0  0  0  0  0  0  0
  -17.7795  -25.8585   24.1364 N   0  0  0  0  0  0  0  0  0  0  0  0
  -21.3741  -30.9928   22.1988 N   0  0  0  0  0  0  0  0  0  0  0  0
  -24.5464  -32.2378   23.4045 N   0  3  0  0  0  0  0  0  0  0  0  0
  -22.6655  -14.7630   21.3446 O   0  0  0  0  0  0  0  0  0  0  0  0
  -27.0314  -22.4204   20.8519 O   0  0  0  0  0  0  0  0  0  0  0  0
  -19.2302  -25.7261   22.3197 O   0  0  0  0  0  0  0  0  0  0  0  0
  -31.9132  -14.7797   20.2969 O   0  0  0  0  0  0  0  0  0  0  0  0
  -19.1868  -29.6854   23.5085 O   0  0  0  0  0  0  0  0  0  0  0  0
  -23.5158  -30.2862   21.6594 O   0  0  0  0  0  0  0  0  0  0  0  0
  -21.5162   -7.0760   21.7640 O   0  0  0  0  0  0  0  0  0  0  0  0
  -25.0122  -23.6670   22.2045 O   0  0  0  0  0  0  0  0  0  1  0  0
  -23.9230   -2.9965   24.5869 F   0  0  0  0  0  0  0  0  0  0  0  0
  -20.4845   -6.2245   24.1833 F   0  0  0  0  0  0  0  0  0  0  0  0
  1  2  1  0  0  0  0
  1  6  2  0  0  0  0
  2  7  2  0  0  0  0
  3  9  1  0  0  0  0
  3 10  2  0  0  0  0
  4 11  2  0  0  0  0
  4 19  1  0  0  0  0
  5 12  1  0  0  0  0
  5 19  2  0  0  0  0
  6 21  1  0  0  0  0
  7 23  1  0  0  0  0
  8 13  2  0  0  0  0
  8 22  1  0  0  0  0
  9 25  2  0  0  0  0
 10 26  1  0  0  0  0
 11 27  1  0  0  0  0
 12 27  2  0  0  0  0
 13 28  1  0  0  0  0
 14 15  2  0  0  0  0
 14 29  1  0  0  0  0
 15 30  1  0  0  0  0
 16 24  1  0  0  0  0
 16 28  2  0  0  0  0
 17 25  1  0  0  0  0
 17 26  2  0  0  0  0
 18 30  2  0  0  0  0
 18 31  1  0  0  0  0
 19 32  1  0  0  0  0
 20 32  1  0  0  0  0
 20 33  2  0  0  0  0
 20 35  1  0  0  0  0
 21 23  2  0  0  0  0
 21 41  1  0  0  0  0
 22 24  2  0  0  0  0
 22 42  1  0  0  0  0
 23 50  1  0  0  0  0
 24 43  1  0  0  0  0
 25 58  1  0  0  0  0
 26 65  1  0  0  0  0
 27 80  1  0  0  0  0
 28 81  1  0  0  0  0
 29 31  2  0  0  0  0
 29 80  1  0  0  0  0
 30 82  1  0  0  0  0
 31 83  1  0  0  0  0
 32 64  2  0  0  0  0
 33 66  1  0  0  0  0
 33 69  1  0  0  0  0
 34 36  1  0  0  0  0
 34 65  2  0  0  0  0
 35 70  1  0  0  0  0
 35 74  2  0  0  0  0
 36 59  1  0  0  0  0
 36 75  2  0  0  0  0
 37 51  1  0  0  0  0
 37 71  1  0  0  0  0
 37 76  2  0  0  0  0
 38 60  1  0  0  0  0
 38 68  1  0  0  0  0
 38 77  2  0  0  0  0
 39 61  1  0  0  0  0
 39 67  1  0  0  0  0
 39 78  2  0  0  0  0
 40 62  1  0  0  0  0
 40 72  1  0  0  0  0
 40 79  2  0  0  0  0
 41 44  1  0  0  0  0
 42 51  1  0  0  0  0
 43 67  1  0  0  0  0
 44 46  1  0  0  0  0
 45 47  1  0  0  0  0
 45 48  1  0  0  0  0
 46 50  1  0  0  0  0
 47 52  1  0  0  0  0
 48 68  1  0  0  0  0
 49 52  1  0  0  0  0
 49 68  1  0  0  0  0
 50 71  1  0  0  0  0
 51 67  1  0  0  0  0
 52 66  1  0  0  0  0
 53 62  1  0  0  0  0
 54 63  1  0  0  0  0
 55 63  1  0  0  0  0
 56 63  1  0  0  0  0
 57 73  1  0  0  0  0
 58 60  1  0  0  0  0
 59 81  1  0  0  0  0
 61 63  1  0  0  0  0
 61 72  1  0  0  0  0
 62 73  1  0  0  0  0
 64 66  1  0  0  0  0
M  CHG  1  73   1
M  ISO  4  38 100  59 101  60 100  81 101
M  END
> <Batch ID>
0166

> <Smiles>
CNC(C)C(=O)NC(C(=O)N1Cc2cc([101O:1][101CH2:1]C(=O)CNc3cccc(C=[100CH:0][100C:0](=O)N4CCCC(n5nc(-c6ccc(Oc7ccc(F)cc7F)cc6)c(C(N)=O)c5N)C4)c3)ccc2CC1C(=O)NC1CCCc2ccccc21)C(C)(C)C

> <Shape>
0.278

> <Color>
0.202

> <Negative vol penalty>
0.000

$$$$

  -OEChem-04052304083D

 87 95  0     1  0  0  0  0  0999 V2000
  -28.6765  -31.4874   27.8925 C   0  0  0  0  0  0  0  0  0  0  0  0
  -28.7355  -30.6152   26.8103 C   0  0  0  0  0  0  0  0  0  0  0  0
  -22.9311  -10.4496   19.6769 C   0  0  0  0  0  0  0  0  0  0  0  0
  -23.5262   -9.6349   21.8721 C   0  0  0  0  0  0  0  0  0  0  0  0
  -27.4454  -31.9812   28.3219 C   0  0  0  0  0  0  0  0  0  0  0  0
  -27.5633  -30.2356   26.1574 C   0  0  0  0  0  0  0  0  0  0  0  0
  -26.8808  -29.1039   20.1775 C   0  0  0  0  0  0  0  0  0  0  0  0
  -21.9654   -9.4492   19.5673 C   0  0  0  0  0  0  0  0  0  0  0  0
  -22.5604   -8.6344   21.7626 C   0  0  0  0  0  0  0  0  0  0  0  0
  -26.8560  -27.9184   19.4441 C   0  0  0  0  0  0  0  0  0  0  0  0
  -22.2456   -5.6315   20.2414 C   0  0  0  0  0  0  0  0  0  0  0  0
  -22.6049   -4.3393   20.6242 C   0  0  0  0  0  0  0  0  0  0  0  0
  -27.8095  -17.9300   18.1038 C   0  0  0  0  0  0  0  0  0  0  0  0
  -24.4453  -27.9208   19.5333 C   0  0  0  0  0  0  0  0  0  0  0  0
  -28.9776  -20.4213   18.5640 C   0  0  0  0  0  0  0  0  0  0  0  0
  -20.8600   -4.3493   22.2953 C   0  0  0  0  0  0  0  0  0  0  0  0
  -23.7116  -10.5425   20.8293 C   0  0  0  0  0  0  0  0  0  0  0  0
  -27.0295  -19.0853   18.0565 C   0  0  0  0  0  0  0  0  0  0  0  0
  -29.1736  -18.0202   18.3812 C   0  0  0  0  0  0  0  0  0  0  0  0
  -24.5378  -12.8694   21.4698 C   0  0  0  0  0  0  0  0  0  0  0  0
  -26.2584  -31.6151   27.6680 C   0  0  0  0  0  0  0  0  0  0  0  0
  -25.6864  -29.7019   20.6044 C   0  0  0  0  0  0  0  0  0  0  0  0
  -26.3150  -30.7240   26.5794 C   0  0  0  0  0  0  0  0  0  0  0  0
  -24.4576  -29.1152   20.2698 C   0  0  0  0  0  0  0  0  0  0  0  0
  -27.6135  -20.3310   18.2866 C   0  0  0  0  0  0  0  0  0  0  0  0
  -21.7800   -8.5416   20.6102 C   0  0  0  0  0  0  0  0  0  0  0  0
  -25.6382  -27.3252   19.1243 C   0  0  0  0  0  0  0  0  0  0  0  0
  -21.1936   -6.2827   20.8855 C   0  0  0  0  0  0  0  0  0  0  0  0
  -21.9121   -3.6981   21.6512 C   0  0  0  0  0  0  0  0  0  0  0  0
  -29.7576  -19.2658   18.6113 C   0  0  0  0  0  0  0  0  0  0  0  0
  -20.5008   -5.6416   21.9124 C   0  0  0  0  0  0  0  0  0  0  0  0
  -24.7097  -11.5754   20.9428 C   0  0  0  0  0  0  0  0  0  0  0  0
  -25.7747  -13.4549   21.3528 C   0  0  0  0  0  0  0  0  0  0  0  0
  -29.9950  -16.7977   18.4309 C   0  0  0  0  0  0  0  0  0  0  0  0
  -25.6071  -18.9579   17.7651 C   0  0  0  0  0  0  0  0  0  0  0  0
  -23.3650  -13.4869   22.0164 C   0  0  0  0  0  0  0  0  0  0  0  0
  -24.4081  -30.3901   23.4321 C   0  0  0  0  0  0  0  0  0  0  0  0
  -26.2935  -23.8433   18.3433 C   0  0  0  0  0  0  0  0  0  0  0  0
  -22.1486  -31.8495   21.6190 C   0  0  0  0  0  0  0  0  0  0  0  0
  -20.5555  -32.0845   18.6101 C   0  0  0  0  0  0  0  0  0  0  0  0
  -30.3161  -14.5243   18.2892 C   0  0  0  0  0  0  0  0  0  0  0  0
  -24.9466  -32.1375   28.1981 C   0  0  0  0  0  0  0  0  0  0  0  0
  -25.7294  -30.9948   21.3719 C   0  0  0  0  0  0  0  0  0  0  0  0
  -23.1465  -29.7280   20.6869 C   0  0  0  0  0  0  0  0  0  0  0  0
  -23.7875  -31.9809   27.2171 C   0  0  0  0  0  0  0  0  0  0  0  0
  -30.2759  -11.4702   20.2064 C   0  0  0  0  0  0  0  0  0  0  0  0
  -23.7807  -30.5778   26.6185 C   0  0  0  0  0  0  0  0  0  0  0  0
  -28.8022  -11.3153   20.5815 C   0  0  0  0  0  0  0  0  0  0  0  0
  -30.4392  -12.0903   18.8221 C   0  0  0  0  0  0  0  0  0  0  0  0
  -28.2553  -13.2453   19.0338 C   0  0  0  0  0  0  0  0  0  0  0  0
  -25.0678  -30.3083   25.8298 C   0  0  1  0  0  0  0  0  0  0  0  0
  -24.4698  -31.2424   22.1962 C   0  0  1  0  0  0  0  0  0  0  0  0
  -28.0518  -12.6513   20.4381 C   0  0  1  0  0  0  0  0  0  0  0  0
  -25.1807  -17.8133   16.8950 C   0  0  0  0  0  0  0  0  0  0  0  0
  -18.7263  -33.3450   17.4428 C   0  0  0  0  0  0  0  0  0  0  0  0
  -20.0615  -30.2067   23.1207 C   0  0  0  0  0  0  0  0  0  0  0  0
  -18.4193  -30.7743   21.3182 C   0  0  0  0  0  0  0  0  0  0  0  0
  -19.4169  -32.5880   22.7102 C   0  0  0  0  0  0  0  0  0  0  0  0
  -22.4297  -33.1630   16.5895 C   0  0  0  0  0  0  0  0  0  0  0  0
  -27.3923  -22.8095   18.4697 C   0  0  0  0  0  0  0  0  0  0  0  0
  -26.7188  -25.2818   18.5652 C   0  0  0  0  0  0  0  0  0  1  0  0
  -20.8481  -31.4219   20.9828 C   0  0  1  0  0  0  0  0  0  0  0  0
  -20.2163  -33.2818   17.7408 C   0  0  2  0  0  0  0  0  0  0  0  0
  -19.7110  -31.2349   22.0267 C   0  0  0  0  0  0  0  0  0  0  0  0
  -25.9575  -11.3516   20.5221 N   0  0  0  0  0  0  0  0  0  0  0  0
  -29.4860  -15.6271   18.2257 N   0  0  0  0  0  0  0  0  0  0  0  0
  -26.5808  -12.5129   20.7846 N   0  0  0  0  0  0  0  0  0  0  0  0
  -23.2411  -30.9889   21.4410 N   0  0  0  0  0  0  0  0  0  0  0  0
  -29.6856  -13.3401   18.7133 N   0  0  0  0  0  0  0  0  0  0  0  0
  -26.2406  -14.6786   21.6815 N   0  0  0  0  0  0  0  0  0  0  0  0
  -22.1777  -12.7434   22.0615 N   0  0  0  0  0  0  0  0  0  0  0  0
  -26.8552  -21.4922   18.2432 N   0  0  0  0  0  0  0  0  0  0  0  0
  -25.0138  -30.9570   24.5373 N   0  0  0  0  0  0  0  0  0  0  0  0
  -20.5547  -32.4097   19.9501 N   0  0  0  0  0  0  0  0  0  0  0  0
  -20.9516  -33.2073   16.4467 N   0  3  0  0  0  0  0  0  0  0  0  0
  -24.7338  -19.7218   18.1762 O   0  0  0  0  0  0  0  0  0  0  0  0
  -23.3655  -14.6688   22.4369 O   0  0  0  0  0  0  0  0  0  0  0  0
  -23.8509  -29.2996   23.3869 O   0  0  0  0  0  0  0  0  0  0  0  0
  -25.1289  -23.5474   18.0788 O   0  0  0  0  0  0  0  0  0  0  0  0
  -22.1953  -32.9116   22.2447 O   0  0  0  0  0  0  0  0  0  0  0  0
  -20.7935  -30.9712   18.1471 O   0  0  0  0  0  0  0  0  0  0  0  0
  -31.5142  -14.5480   17.9977 O   0  0  0  0  0  0  0  0  0  0  0  0
  -20.8376   -7.5654   20.5037 O   0  0  0  0  0  0  0  0  0  0  0  0
  -25.6112  -26.1678   18.4091 O   0  0  0  0  0  0  0  0  0  1  0  0
  -22.2562   -2.4566   22.0177 F   0  0  0  0  0  0  0  0  0  0  0  0
  -31.0677  -19.3646   18.8779 F   0  0  0  0  0  0  0  0  0  0  0  0
  -19.4884   -6.2616   22.5342 F   0  0  0  0  0  0  0  0  0  0  0  0
  1  2  1  0  0  0  0
  1  5  2  0  0  0  0
  2  6  2  0  0  0  0
  3  8  2  0  0  0  0
  3 17  1  0  0  0  0
  4  9  1  0  0  0  0
  4 17  2  0  0  0  0
  5 21  1  0  0  0  0
  6 23  1  0  0  0  0
  7 10  2  0  0  0  0
  7 22  1  0  0  0  0
  8 26  1  0  0  0  0
  9 26  2  0  0  0  0
 10 27  1  0  0  0  0
 11 12  2  0  0  0  0
 11 28  1  0  0  0  0
 12 29  1  0  0  0  0
 13 18  1  0  0  0  0
 13 19  2  0  0  0  0
 14 24  1  0  0  0  0
 14 27  2  0  0  0  0
 15 25  1  0  0  0  0
 15 30  2  0  0  0  0
 16 29  2  0  0  0  0
 16 31  1  0  0  0  0
 17 32  1  0  0  0  0
 18 25  2  0  0  0  0
 18 35  1  0  0  0  0
 19 30  1  0  0  0  0
 19 34  1  0  0  0  0
 20 32  1  0  0  0  0
 20 33  2  0  0  0  0
 20 36  1  0  0  0  0
 21 23  2  0  0  0  0
 21 42  1  0  0  0  0
 22 24  2  0  0  0  0
 22 43  1  0  0  0  0
 23 51  1  0  0  0  0
 24 44  1  0  0  0  0
 25 72  1  0  0  0  0
 26 83  1  0  0  0  0
 27 84  1  0  0  0  0
 28 31  2  0  0  0  0
 28 83  1  0  0  0  0
 29 85  1  0  0  0  0
 30 86  1  0  0  0  0
 31 87  1  0  0  0  0
 32 65  2  0  0  0  0
 33 67  1  0  0  0  0
 33 70  1  0  0  0  0
 34 66  2  0  0  0  0
 35 54  1  0  0  0  0
 35 76  2  0  0  0  0
 36 71  1  0  0  0  0
 36 77  2  0  0  0  0
 37 52  1  0  0  0  0
 37 73  1  0  0  0  0
 37 78  2  0  0  0  0
 38 60  1  0  0  0  0
 38 61  1  0  0  0  0
 38 79  2  0  0  0  0
 39 62  1  0  0  0  0
 39 68  1  0  0  0  0
 39 80  2  0  0  0  0
 40 63  1  0  0  0  0
 40 74  1  0  0  0  0
 40 81  2  0  0  0  0
 41 66  1  0  0  0  0
 41 69  1  0  0  0  0
 41 82  2  0  0  0  0
 42 45  1  0  0  0  0
 43 52  1  0  0  0  0
 44 68  1  0  0  0  0
 45 47  1  0  0  0  0
 46 48  1  0  0  0  0
 46 49  1  0  0  0  0
 47 51  1  0  0  0  0
 48 53  1  0  0  0  0
 49 69  1  0  0  0  0
 50 53  1  0  0  0  0
 50 69  1  0  0  0  0
 51 73  1  0  0  0  0
 52 68  1  0  0  0  0
 53 67  1  0  0  0  0
 55 63  1  0  0  0  0
 56 64  1  0  0  0  0
 57 64  1  0  0  0  0
 58 64  1  0  0  0  0
 59 75  1  0  0  0  0
 60 72  1  0  0  0  0
 61 84  1  0  0  0  0
 62 64  1  0  0  0  0
 62 74  1  0  0  0  0
 63 75  1  0  0  0  0
 65 67  1  0  0  0  0
M  CHG  1  75   1
M  ISO  4  41 100  61 101  66 100  84 101
M  END
> <Batch ID>
0166

> <Smiles>
CNC(C)C(=O)NC(C(=O)N1Cc2cc([101O:1][101CH2:1]C(=O)CNc3cc(F)c(C=[100N:0][100C:0](=O)N4CCCC(n5nc(-c6ccc(Oc7ccc(F)cc7F)cc6)c(C(N)=O)c5N)C4)cc3C(C)=O)ccc2CC1C(=O)NC1CCCc2ccccc21)C(C)(C)C

> <Shape>
0.282

> <Color>
0.130

> <Negative vol penalty>
0.000

$$$$

  -OEChem-04052304083D

 85 94  0     1  0  0  0  0  0999 V2000
  -26.6614  -38.0743   21.8681 C   0  0  0  0  0  0  0  0  0  0  0  0
  -27.2357  -37.0624   21.1053 C   0  0  0  0  0  0  0  0  0  0  0  0
  -23.1678   -9.8891   21.5819 C   0  0  0  0  0  0  0  0  0  0  0  0
  -23.7276  -11.1203   23.5838 C   0  0  0  0  0  0  0  0  0  0  0  0
  -26.0269  -37.7647   23.0704 C   0  0  0  0  0  0  0  0  0  0  0  0
  -27.1767  -35.7405   21.5451 C   0  0  0  0  0  0  0  0  0  0  0  0
  -26.7144  -29.0420   19.0486 C   0  0  0  0  0  0  0  0  0  0  0  0
  -22.4418   -8.9759   22.3464 C   0  0  0  0  0  0  0  0  0  0  0  0
  -23.0015  -10.2071   24.3484 C   0  0  0  0  0  0  0  0  0  0  0  0
  -27.3502  -27.8059   19.1567 C   0  0  0  0  0  0  0  0  0  0  0  0
  -23.0909   -6.3218   24.3362 C   0  0  0  0  0  0  0  0  0  0  0  0
  -23.2703   -4.9650   24.0670 C   0  0  0  0  0  0  0  0  0  0  0  0
  -31.6807  -17.6172   20.8555 C   0  0  0  0  0  0  0  0  0  0  0  0
  -26.1590  -27.3796   21.2106 C   0  0  0  0  0  0  0  0  0  0  0  0
  -20.9207   -4.7582   23.5438 C   0  0  0  0  0  0  0  0  0  0  0  0
  -32.1269  -18.8814   21.2054 C   0  0  0  0  0  0  0  0  0  0  0  0
  -23.8108  -10.9612   22.2005 C   0  0  0  0  0  0  0  0  0  0  0  0
  -24.0822  -13.0878   20.8178 C   0  0  0  0  0  0  0  0  0  0  0  0
  -25.9517  -36.4371   23.5203 C   0  0  0  0  0  0  0  0  0  0  0  0
  -25.8027  -29.4615   20.0280 C   0  0  0  0  0  0  0  0  0  0  0  0
  -26.5418  -35.4130   22.7552 C   0  0  0  0  0  0  0  0  0  0  0  0
  -25.5110  -28.6203   21.1113 C   0  0  0  0  0  0  0  0  0  0  0  0
  -29.4518  -18.5194   20.8073 C   0  0  0  0  0  0  0  0  0  0  0  0
  -30.3162  -17.4411   20.6545 C   0  0  0  0  0  0  0  0  0  0  0  0
  -22.3586   -9.1349   23.7297 C   0  0  0  0  0  0  0  0  0  0  0  0
  -27.0748  -26.9758   20.2393 C   0  0  0  0  0  0  0  0  0  0  0  0
  -21.8264   -6.8968   24.2092 C   0  0  0  0  0  0  0  0  0  0  0  0
  -22.1852   -4.1832   23.6708 C   0  0  0  0  0  0  0  0  0  0  0  0
  -20.7413   -6.1150   23.8130 C   0  0  0  0  0  0  0  0  0  0  0  0
  -24.5614  -11.9046   21.4113 C   0  0  0  0  0  0  0  0  0  0  0  0
  -29.9977  -19.7432   21.1595 C   0  0  0  0  0  0  0  0  0  0  0  0
  -25.1774  -13.6219   20.1841 C   0  0  0  0  0  0  0  0  0  0  0  0
  -28.9551  -23.2746   22.3830 C   0  0  0  0  0  0  0  0  0  0  0  0
  -28.1027  -23.6668   21.4206 C   0  0  0  0  0  0  0  0  0  0  0  0
  -22.7649  -13.6535   20.8377 C   0  0  0  0  0  0  0  0  0  0  0  0
  -25.6720  -31.8860   22.0794 C   0  0  0  0  0  0  0  0  0  0  0  0
  -22.7168  -30.6979   22.6938 C   0  0  0  0  0  0  0  0  0  0  0  0
  -20.6062  -28.0164   22.6526 C   0  0  0  0  0  0  0  0  0  0  0  0
  -30.5730  -14.9950   20.1094 C   0  0  0  0  0  0  0  0  0  0  0  0
  -25.2968  -36.1571   24.8497 C   0  0  0  0  0  0  0  0  0  0  0  0
  -25.1051  -30.7862   19.8829 C   0  0  0  0  0  0  0  0  0  0  0  0
  -24.5250  -29.0153   22.1790 C   0  0  0  0  0  0  0  0  0  0  0  0
  -29.6850  -21.9601   22.3538 C   0  0  0  0  0  0  0  0  0  0  0  0
  -27.8484  -22.8084   20.2148 C   0  0  0  0  0  0  0  0  0  0  0  0
  -24.9506  -34.6853   25.0602 C   0  0  0  0  0  0  0  0  0  0  0  0
  -29.7421  -11.6382   19.2618 C   0  0  0  0  0  0  0  0  0  0  0  0
  -26.1291  -33.7987   24.6707 C   0  0  0  0  0  0  0  0  0  0  0  0
  -28.2808  -11.5056   19.6967 C   0  0  0  0  0  0  0  0  0  0  0  0
  -30.5431  -12.5129   20.2246 C   0  0  0  0  0  0  0  0  0  0  0  0
  -28.5030  -13.7037   20.9237 C   0  0  0  0  0  0  0  0  0  0  0  0
  -26.4769  -33.9639   23.1864 C   0  0  1  0  0  0  0  0  0  0  0  0
  -29.1080  -20.9533   21.3411 C   0  0  1  0  0  0  0  0  0  0  0  0
  -24.5807  -31.3335   21.2068 C   0  0  1  0  0  0  0  0  0  0  0  0
  -27.6407  -12.8847   19.9495 C   0  0  2  0  0  0  0  0  0  0  0  0
  -27.9819  -18.3647   20.5991 C   0  0  0  0  0  0  0  0  0  0  0  0
  -18.2642  -27.3435   23.2523 C   0  0  0  0  0  0  0  0  0  0  0  0
  -23.4944  -30.6296   25.6435 C   0  0  0  0  0  0  0  0  0  0  0  0
  -21.5494  -29.1062   26.0492 C   0  0  0  0  0  0  0  0  0  0  0  0
  -21.1636  -31.4187   25.1971 C   0  0  0  0  0  0  0  0  0  0  0  0
  -19.9661  -27.3149   19.8496 C   0  0  0  0  0  0  0  0  0  0  0  0
  -27.3651  -24.9693   21.4826 C   0  0  0  0  0  0  0  0  0  1  0  0
  -22.1529  -29.6779   23.6533 C   0  0  1  0  0  0  0  0  0  0  0  0
  -19.1798  -27.8648   22.1557 C   0  0  2  0  0  0  0  0  0  0  0  0
  -22.1102  -30.2012   25.1168 C   0  0  0  0  0  0  0  0  0  0  0  0
  -31.3177  -19.9528   21.3631 N   0  0  0  0  0  0  0  0  0  0  0  0
  -25.8598  -11.6986   21.1755 N   0  0  0  0  0  0  0  0  0  0  0  0
  -26.2059  -12.7596   20.4267 N   0  0  0  0  0  0  0  0  0  0  0  0
  -23.8735  -30.3228   21.9958 N   0  0  0  0  0  0  0  0  0  0  0  0
  -29.8789  -13.8046   20.4125 N   0  0  0  0  0  0  0  0  0  0  0  0
  -25.3514  -14.7404   19.4484 N   0  0  0  0  0  0  0  0  0  0  0  0
  -21.7568  -12.9749   21.5360 N   0  0  0  0  0  0  0  0  0  0  0  0
  -29.8291  -16.1597   20.2962 N   0  0  0  0  0  0  0  0  0  0  0  0
  -25.5386  -33.2319   22.3629 N   0  0  0  0  0  0  0  0  0  0  0  0
  -20.8518  -29.2905   23.1191 N   0  0  0  0  0  0  0  0  0  0  0  0
  -28.8349  -21.6878   20.0526 N   0  3  0  0  0  0  0  0  0  0  0  0
  -19.1290  -26.9137   21.0095 N   0  3  0  0  0  0  0  0  0  0  0  0
  -22.4861  -14.7204   20.2398 O   0  0  0  0  0  0  0  0  0  0  0  0
  -26.5679  -31.1457   22.4680 O   0  0  0  0  0  0  0  0  0  0  0  0
  -22.1478  -31.7845   22.5630 O   0  0  0  0  0  0  0  0  0  0  0  0
  -21.4199  -27.0956   22.6327 O   0  0  0  0  0  0  0  0  0  0  0  0
  -31.7322  -14.9809   19.6874 O   0  0  0  0  0  0  0  0  0  0  0  0
  -21.6501   -8.2442   24.4761 O   0  0  0  0  0  0  0  0  0  0  0  0
  -27.6945  -25.7691   20.3476 O   0  0  0  0  0  0  0  0  0  1  0  0
  -22.3579   -2.8806   23.4108 F   0  0  0  0  0  0  0  0  0  0  0  0
  -19.5243   -6.6621   23.6882 F   0  0  0  0  0  0  0  0  0  0  0  0
  1  2  1  0  0  0  0
  1  5  2  0  0  0  0
  2  6  2  0  0  0  0
  3  8  2  0  0  0  0
  3 17  1  0  0  0  0
  4  9  1  0  0  0  0
  4 17  2  0  0  0  0
  5 19  1  0  0  0  0
  6 21  1  0  0  0  0
  7 10  2  0  0  0  0
  7 20  1  0  0  0  0
  8 25  1  0  0  0  0
  9 25  2  0  0  0  0
 10 26  1  0  0  0  0
 11 12  2  0  0  0  0
 11 27  1  0  0  0  0
 12 28  1  0  0  0  0
 13 16  1  0  0  0  0
 13 24  2  0  0  0  0
 14 22  1  0  0  0  0
 14 26  2  0  0  0  0
 15 28  2  0  0  0  0
 15 29  1  0  0  0  0
 16 65  2  0  0  0  0
 17 30  1  0  0  0  0
 18 30  1  0  0  0  0
 18 32  2  0  0  0  0
 18 35  1  0  0  0  0
 19 21  2  0  0  0  0
 19 40  1  0  0  0  0
 20 22  2  0  0  0  0
 20 41  1  0  0  0  0
 21 51  1  0  0  0  0
 22 42  1  0  0  0  0
 23 24  1  0  0  0  0
 23 31  2  0  0  0  0
 23 55  1  0  0  0  0
 24 72  1  0  0  0  0
 25 82  1  0  0  0  0
 26 83  1  0  0  0  0
 27 29  2  0  0  0  0
 27 82  1  0  0  0  0
 28 84  1  0  0  0  0
 29 85  1  0  0  0  0
 30 66  2  0  0  0  0
 31 52  1  0  0  0  0
 31 65  1  0  0  0  0
 32 67  1  0  0  0  0
 32 70  1  0  0  0  0
 33 34  2  0  0  0  0
 33 43  1  0  0  0  0
 34 44  1  0  0  0  0
 34 61  1  0  0  0  0
 35 71  1  0  0  0  0
 35 77  2  0  0  0  0
 36 53  1  0  0  0  0
 36 73  1  0  0  0  0
 36 78  2  0  0  0  0
 37 62  1  0  0  0  0
 37 68  1  0  0  0  0
 37 79  2  0  0  0  0
 38 63  1  0  0  0  0
 38 74  1  0  0  0  0
 38 80  2  0  0  0  0
 39 69  1  0  0  0  0
 39 72  1  0  0  0  0
 39 81  2  0  0  0  0
 40 45  1  0  0  0  0
 41 53  1  0  0  0  0
 42 68  1  0  0  0  0
 43 52  1  0  0  0  0
 44 75  1  0  0  0  0
 45 47  1  0  0  0  0
 46 48  1  0  0  0  0
 46 49  1  0  0  0  0
 47 51  1  0  0  0  0
 48 54  1  0  0  0  0
 49 69  1  0  0  0  0
 50 54  1  0  0  0  0
 50 69  1  0  0  0  0
 51 73  1  0  0  0  0
 52 75  1  0  0  0  0
 53 68  1  0  0  0  0
 54 67  1  0  0  0  0
 56 63  1  0  0  0  0
 57 64  1  0  0  0  0
 58 64  1  0  0  0  0
 59 64  1  0  0  0  0
 60 76  1  0  0  0  0
 61 83  1  0  0  0  0
 62 64  1  0  0  0  0
 62 74  1  0  0  0  0
 63 76  1  0  0  0  0
 66 67  1  0  0  0  0
M  CHG  2  75   1  76   1
M  ISO  4  39 100  61 101  72 100  83 101
M  END
> <Batch ID>
0166

> <Smiles>
CNC(C)C(=O)NC(C(=O)N1Cc2cc([101O:1][101CH2:1]C3=CCC(c4nccc([100NH:0][100C:0](=O)N5CCCC(n6nc(-c7ccc(Oc8ccc(F)cc8F)cc7)c(C(N)=O)c6N)C5)c4C)NC3)ccc2CC1C(=O)NC1CCCc2ccccc21)C(C)(C)C

> <Shape>
0.382

> <Color>
0.175

> <Negative vol penalty>
0.000

$$$$

  -OEChem-04052304083D

 87 95  0     1  0  0  0  0  0999 V2000
  -29.2895  -31.8368   24.1415 C   0  0  0  0  0  0  0  0  0  0  0  0
  -28.8995  -30.5374   23.8336 C   0  0  0  0  0  0  0  0  0  0  0  0
  -22.9940   -9.9196   20.4152 C   0  0  0  0  0  0  0  0  0  0  0  0
  -23.7159  -10.2875   22.6913 C   0  0  0  0  0  0  0  0  0  0  0  0
  -28.3400  -32.7674   24.5616 C   0  0  0  0  0  0  0  0  0  0  0  0
  -27.5598  -30.1675   23.9466 C   0  0  0  0  0  0  0  0  0  0  0  0
  -25.9471  -27.4712   19.9750 C   0  0  0  0  0  0  0  0  0  0  0  0
  -22.2019   -8.8526   20.8389 C   0  0  0  0  0  0  0  0  0  0  0  0
  -22.9237   -9.2204   23.1150 C   0  0  0  0  0  0  0  0  0  0  0  0
  -26.3075  -26.1251   19.9306 C   0  0  0  0  0  0  0  0  0  0  0  0
  -19.6575   -8.6515   23.7698 C   0  0  0  0  0  0  0  0  0  0  0  0
  -18.8805   -8.8372   24.9132 C   0  0  0  0  0  0  0  0  0  0  0  0
  -31.9427  -18.8173   21.5615 C   0  0  0  0  0  0  0  0  0  0  0  0
  -31.9707  -17.4912   21.0675 C   0  0  0  0  0  0  0  0  0  0  0  0
  -24.1242  -25.5194   20.7585 C   0  0  0  0  0  0  0  0  0  0  0  0
  -20.0334   -7.0093   25.9935 C   0  0  0  0  0  0  0  0  0  0  0  0
  -23.7511  -10.6370   21.3414 C   0  0  0  0  0  0  0  0  0  0  0  0
  -24.1929  -13.0917   20.8055 C   0  0  0  0  0  0  0  0  0  0  0  0
  -26.9865  -32.4113   24.6705 C   0  0  0  0  0  0  0  0  0  0  0  0
  -24.6741  -27.8528   20.4225 C   0  0  0  0  0  0  0  0  0  0  0  0
  -26.5915  -31.0938   24.3698 C   0  0  0  0  0  0  0  0  0  0  0  0
  -23.7492  -26.8708   20.8052 C   0  0  0  0  0  0  0  0  0  0  0  0
  -22.1667   -8.5030   22.1888 C   0  0  0  0  0  0  0  0  0  0  0  0
  -25.3971  -25.1492   20.3251 C   0  0  0  0  0  0  0  0  0  0  0  0
  -20.6224   -7.6446   23.7382 C   0  0  0  0  0  0  0  0  0  0  0  0
  -19.0684   -8.0161   26.0250 C   0  0  0  0  0  0  0  0  0  0  0  0
  -20.8104   -6.8236   24.8501 C   0  0  0  0  0  0  0  0  0  0  0  0
  -24.5701  -11.7390   20.9043 C   0  0  0  0  0  0  0  0  0  0  0  0
  -30.6959  -18.9922   22.1155 C   0  0  0  0  0  0  0  0  0  0  0  0
  -25.3192  -13.7296   20.3461 C   0  0  0  0  0  0  0  0  0  0  0  0
  -30.7392  -16.9503   21.3552 C   0  0  0  0  0  0  0  0  0  0  0  0
  -26.8131  -23.4283   21.0351 C   0  0  0  0  0  0  0  0  0  1  0  0
  -22.9367  -13.7158   21.1026 C   0  0  0  0  0  0  0  0  0  0  0  0
  -27.3045  -22.1824   21.1234 C   0  0  0  0  0  0  0  0  0  0  0  0
  -28.4874  -21.9558   22.0141 C   0  0  0  0  0  0  0  0  0  0  0  0
  -23.5773  -29.6027   22.8388 C   0  0  0  0  0  0  0  0  0  0  0  0
  -30.7419  -19.4975   25.1397 C   0  0  0  0  0  0  0  0  0  0  0  0
  -20.7240  -29.1429   21.3658 C   0  0  0  0  0  0  0  0  0  0  0  0
  -18.8199  -27.2403   19.2679 C   0  0  0  0  0  0  0  0  0  0  0  0
  -30.8183  -14.5944   20.4665 C   0  0  0  0  0  0  0  0  0  0  0  0
  -26.0039  -33.4388   25.1741 C   0  0  0  0  0  0  0  0  0  0  0  0
  -24.2915  -29.3073   20.4391 C   0  0  0  0  0  0  0  0  0  0  0  0
  -22.3630  -27.2270   21.2743 C   0  0  0  0  0  0  0  0  0  0  0  0
  -24.5468  -33.0697   24.9080 C   0  0  0  0  0  0  0  0  0  0  0  0
  -29.6498  -11.8560   18.5138 C   0  0  0  0  0  0  0  0  0  0  0  0
  -24.2851  -31.6171   25.2930 C   0  0  0  0  0  0  0  0  0  0  0  0
  -28.1930  -11.6927   18.9535 C   0  0  0  0  0  0  0  0  0  0  0  0
  -30.5533  -12.2520   19.6802 C   0  0  0  0  0  0  0  0  0  0  0  0
  -28.6536  -13.2671   20.8761 C   0  0  0  0  0  0  0  0  0  0  0  0
  -25.1439  -30.6613   24.4562 C   0  0  1  0  0  0  0  0  0  0  0  0
  -23.1462  -29.6130   21.3994 C   0  0  1  0  0  0  0  0  0  0  0  0
  -27.6942  -12.9319   19.7225 C   0  0  2  0  0  0  0  0  0  0  0  0
  -31.4783  -20.6135   25.8295 C   0  0  0  0  0  0  0  0  0  0  0  0
  -16.5147  -27.0956   18.2868 C   0  0  0  0  0  0  0  0  0  0  0  0
  -19.6584  -28.1028   24.0290 C   0  0  0  0  0  0  0  0  0  0  0  0
  -17.7224  -27.1126   22.7882 C   0  0  0  0  0  0  0  0  0  0  0  0
  -18.0764  -29.5819   22.7785 C   0  0  0  0  0  0  0  0  0  0  0  0
  -19.8536  -27.4915   16.5061 C   0  0  0  0  0  0  0  0  0  0  0  0
  -29.5743  -19.8371   24.2378 C   0  0  0  0  0  0  0  0  0  0  0  0
  -30.0228  -20.1612   22.8059 C   0  0  2  0  0  0  0  0  0  0  0  0
  -19.6344  -28.1012   21.4473 C   0  0  1  0  0  0  0  0  0  0  0  0
  -17.9311  -27.6154   18.0958 C   0  0  2  0  0  0  0  0  0  0  0  0
  -18.7996  -28.2177   22.7538 C   0  0  0  0  0  0  0  0  0  0  0  0
  -25.8370  -11.5289   20.5370 N   0  0  0  0  0  0  0  0  0  0  0  0
  -31.1137  -18.2652   25.2665 N   0  0  0  0  0  0  0  0  0  0  0  0
  -26.2656  -12.7580   20.2029 N   0  0  0  0  0  0  0  0  0  0  0  0
  -22.0385  -28.6630   21.2786 N   0  0  0  0  0  0  0  0  0  0  0  0
  -30.0206  -13.4356   20.3586 N   0  0  0  0  0  0  0  0  0  0  0  0
  -25.5824  -15.0211   20.0547 N   0  0  0  0  0  0  0  0  0  0  0  0
  -21.8848  -12.9134   21.5651 N   0  0  0  0  0  0  0  0  0  0  0  0
  -30.1942  -15.6670   21.1025 N   0  0  0  0  0  0  0  0  0  0  0  0
  -28.9032  -20.6355   22.0237 N   0  0  0  0  0  0  0  0  0  0  0  0
  -24.5819  -30.5051   23.1317 N   0  0  0  0  0  0  0  0  0  0  0  0
  -18.8508  -28.2335   20.2238 N   0  0  0  0  0  0  0  0  0  0  0  0
  -18.4743  -27.0453   16.8306 N   0  3  0  0  0  0  0  0  0  0  0  0
  -22.7476  -14.9460   20.9464 O   0  0  0  0  0  0  0  0  0  0  0  0
  -29.0077  -22.8649   22.6550 O   0  0  0  0  0  0  0  0  0  0  0  0
  -23.0372  -28.8340   23.6257 O   0  0  0  0  0  0  0  0  0  0  0  0
  -20.4195  -30.3382   21.3719 O   0  0  0  0  0  0  0  0  0  0  0  0
  -19.4232  -26.1714   19.3310 O   0  0  0  0  0  0  0  0  0  0  0  0
  -31.9607  -14.6413   20.0029 O   0  0  0  0  0  0  0  0  0  0  0  0
  -29.9562  -17.8588   21.9940 O   0  0  0  0  0  0  0  0  0  0  0  0
  -26.7917  -21.0961   20.4490 O   0  0  0  0  0  0  0  0  0  0  0  0
  -21.3936   -7.4620   22.6026 O   0  0  0  0  0  0  0  0  0  0  0  0
  -25.7465  -23.8346   20.2834 O   0  0  0  0  0  0  0  0  0  1  0  0
  -18.3232   -8.1956   27.1235 F   0  0  0  0  0  0  0  0  0  0  0  0
  -21.7366   -5.8554   24.8261 F   0  0  0  0  0  0  0  0  0  0  0  0
  1  2  1  0  0  0  0
  1  5  2  0  0  0  0
  2  6  2  0  0  0  0
  3  8  2  0  0  0  0
  3 17  1  0  0  0  0
  4  9  1  0  0  0  0
  4 17  2  0  0  0  0
  5 19  1  0  0  0  0
  6 21  1  0  0  0  0
  7 10  2  0  0  0  0
  7 20  1  0  0  0  0
  8 23  1  0  0  0  0
  9 23  2  0  0  0  0
 10 24  1  0  0  0  0
 11 12  2  0  0  0  0
 11 25  1  0  0  0  0
 12 26  1  0  0  0  0
 13 14  1  0  0  0  0
 13 29  2  0  0  0  0
 14 31  2  0  0  0  0
 15 22  1  0  0  0  0
 15 24  2  0  0  0  0
 16 26  2  0  0  0  0
 16 27  1  0  0  0  0
 17 28  1  0  0  0  0
 18 28  1  0  0  0  0
 18 30  2  0  0  0  0
 18 33  1  0  0  0  0
 19 21  2  0  0  0  0
 19 41  1  0  0  0  0
 20 22  2  0  0  0  0
 20 42  1  0  0  0  0
 21 50  1  0  0  0  0
 22 43  1  0  0  0  0
 23 84  1  0  0  0  0
 24 85  1  0  0  0  0
 25 27  2  0  0  0  0
 25 84  1  0  0  0  0
 26 86  1  0  0  0  0
 27 87  1  0  0  0  0
 28 64  2  0  0  0  0
 29 60  1  0  0  0  0
 29 82  1  0  0  0  0
 30 66  1  0  0  0  0
 30 69  1  0  0  0  0
 31 71  1  0  0  0  0
 31 82  1  0  0  0  0
 32 34  2  0  0  0  0
 32 85  1  0  0  0  0
 33 70  1  0  0  0  0
 33 76  2  0  0  0  0
 34 35  1  0  0  0  0
 34 83  1  0  0  0  0
 35 72  1  0  0  0  0
 35 77  2  0  0  0  0
 36 51  1  0  0  0  0
 36 73  1  0  0  0  0
 36 78  2  0  0  0  0
 37 53  1  0  0  0  0
 37 59  1  0  0  0  0
 37 65  2  0  0  0  0
 38 61  1  0  0  0  0
 38 67  1  0  0  0  0
 38 79  2  0  0  0  0
 39 62  1  0  0  0  0
 39 74  1  0  0  0  0
 39 80  2  0  0  0  0
 40 68  1  0  0  0  0
 40 71  1  0  0  0  0
 40 81  2  0  0  0  0
 41 44  1  0  0  0  0
 42 51  1  0  0  0  0
 43 67  1  0  0  0  0
 44 46  1  0  0  0  0
 45 47  1  0  0  0  0
 45 48  1  0  0  0  0
 46 50  1  0  0  0  0
 47 52  1  0  0  0  0
 48 68  1  0  0  0  0
 49 52  1  0  0  0  0
 49 68  1  0  0  0  0
 50 73  1  0  0  0  0
 51 67  1  0  0  0  0
 52 66  1  0  0  0  0
 54 62  1  0  0  0  0
 55 63  1  0  0  0  0
 56 63  1  0  0  0  0
 57 63  1  0  0  0  0
 58 75  1  0  0  0  0
 59 60  1  0  0  0  0
 60 72  1  0  0  0  0
 61 63  1  0  0  0  0
 61 74  1  0  0  0  0
 62 75  1  0  0  0  0
 64 66  1  0  0  0  0
M  CHG  1  75   1
M  ISO  4  32 101  40 100  71 100  85 101
M  END
> <Batch ID>
0166

> <Smiles>
CNC(C)C(=O)NC(C(=O)N1Cc2cc([101O:1][101CH2:1]C(=O)C(=O)NC(CC(C)=N)c3ccc([100NH:0][100C:0](=O)N4CCCC(n5nc(-c6ccc(Oc7ccc(F)cc7F)cc6)c(C(N)=O)c5N)C4)o3)ccc2CC1C(=O)NC1CCCc2ccccc21)C(C)(C)C

> <Shape>
0.341

> <Color>
0.168

> <Negative vol penalty>
0.000

$$$$

  -OEChem-04052304083D

 89 98  0     1  0  0  0  0  0999 V2000
  -20.0066  -13.0678   31.4189 C   0  0  0  0  0  0  0  0  0  0  0  0
  -21.0729  -13.7405   30.8308 C   0  0  0  0  0  0  0  0  0  0  0  0
  -23.0745   -9.8677   19.9423 C   0  0  0  0  0  0  0  0  0  0  0  0
  -23.8312   -9.8782   22.2368 C   0  0  0  0  0  0  0  0  0  0  0  0
  -18.7049  -13.5334   31.2377 C   0  0  0  0  0  0  0  0  0  0  0  0
  -20.8381  -14.8786   30.0602 C   0  0  0  0  0  0  0  0  0  0  0  0
  -31.3194  -19.0808   20.6022 C   0  0  0  0  0  0  0  0  0  0  0  0
  -24.4262  -19.8207   29.6045 C   0  0  0  0  0  0  0  0  0  0  0  0
  -31.1508  -17.6962   20.5972 C   0  0  0  0  0  0  0  0  0  0  0  0
  -22.3300   -8.7151   20.1932 C   0  0  0  0  0  0  0  0  0  0  0  0
  -23.0867   -8.7257   22.4876 C   0  0  0  0  0  0  0  0  0  0  0  0
  -25.3670  -20.2123   28.6530 C   0  0  0  0  0  0  0  0  0  0  0  0
  -19.3795   -7.9218   21.6416 C   0  0  0  0  0  0  0  0  0  0  0  0
  -18.0733   -7.8751   21.1546 C   0  0  0  0  0  0  0  0  0  0  0  0
  -23.6893  -21.5535   27.5550 C   0  0  0  0  0  0  0  0  0  0  0  0
  -29.5174  -17.8887   22.3670 C   0  0  0  0  0  0  0  0  0  0  0  0
  -18.6343   -5.9297   19.8364 C   0  0  0  0  0  0  0  0  0  0  0  0
  -23.8252  -10.4492   20.9641 C   0  0  0  0  0  0  0  0  0  0  0  0
  -24.1679  -12.9740   20.8404 C   0  0  0  0  0  0  0  0  0  0  0  0
  -18.4549  -14.6834   30.4724 C   0  0  0  0  0  0  0  0  0  0  0  0
  -23.1049  -20.2848   29.5320 C   0  0  0  0  0  0  0  0  0  0  0  0
  -19.5317  -15.3594   29.8675 C   0  0  0  0  0  0  0  0  0  0  0  0
  -30.5871  -19.8694   21.4897 C   0  0  0  0  0  0  0  0  0  0  0  0
  -22.7343  -21.1684   28.5083 C   0  0  0  0  0  0  0  0  0  0  0  0
  -30.2497  -17.1001   21.4795 C   0  0  0  0  0  0  0  0  0  0  0  0
  -29.6861  -19.2733   22.3720 C   0  0  0  0  0  0  0  0  0  0  0  0
  -22.3360   -8.1441   21.4658 C   0  0  0  0  0  0  0  0  0  0  0  0
  -24.9979  -21.0765   27.6264 C   0  0  0  0  0  0  0  0  0  0  0  0
  -20.3132   -6.9724   21.2260 C   0  0  0  0  0  0  0  0  0  0  0  0
  -17.7007   -6.8790   20.2520 C   0  0  0  0  0  0  0  0  0  0  0  0
  -19.9406   -5.9764   20.3234 C   0  0  0  0  0  0  0  0  0  0  0  0
  -24.5950  -11.6394   20.7055 C   0  0  0  0  0  0  0  0  0  0  0  0
  -25.2608  -13.7226   20.4774 C   0  0  0  0  0  0  0  0  0  0  0  0
  -26.5051  -20.4890   25.9371 C   0  0  0  0  0  0  0  0  0  1  0  0
  -22.8970  -13.4909   21.2567 C   0  0  0  0  0  0  0  0  0  0  0  0
  -27.4181  -20.7521   24.9943 C   0  0  0  0  0  0  0  0  0  0  0  0
  -28.0070  -19.6150   24.2144 C   0  0  0  0  0  0  0  0  0  0  0  0
  -20.2624  -18.9116   29.1601 C   0  0  0  0  0  0  0  0  0  0  0  0
  -19.1737  -21.9220   29.6842 C   0  0  0  0  0  0  0  0  0  0  0  0
  -19.7831  -25.2789   29.6000 C   0  0  0  0  0  0  0  0  0  0  0  0
  -30.7270  -14.7670   20.6580 C   0  0  0  0  0  0  0  0  0  0  0  0
  -17.0266  -15.1215   30.2658 C   0  0  0  0  0  0  0  0  0  0  0  0
  -22.1087  -19.8741   30.5815 C   0  0  0  0  0  0  0  0  0  0  0  0
  -21.3337  -21.7111   28.3976 C   0  0  0  0  0  0  0  0  0  0  0  0
  -16.8971  -16.5503   29.7442 C   0  0  0  0  0  0  0  0  0  0  0  0
  -31.4277  -23.9769   20.2188 C   0  0  0  0  0  0  0  0  0  0  0  0
  -29.9910  -23.5993   20.5663 C   0  0  0  0  0  0  0  0  0  0  0  0
  -32.4301  -23.2745   21.1296 C   0  0  0  0  0  0  0  0  0  0  0  0
  -29.6153  -12.3495   18.2922 C   0  0  0  0  0  0  0  0  0  0  0  0
  -29.7863  -22.0856   20.5517 C   0  0  0  0  0  0  0  0  0  0  0  0
  -32.2375  -21.7591   21.1177 C   0  0  0  0  0  0  0  0  0  0  0  0
  -17.8659  -16.7871   28.5899 C   0  0  0  0  0  0  0  0  0  0  0  0
  -28.1749  -12.0591   18.7202 C   0  0  0  0  0  0  0  0  0  0  0  0
  -30.5288  -12.5801   19.4947 C   0  0  0  0  0  0  0  0  0  0  0  0
  -28.6201  -13.3074   20.8721 C   0  0  0  0  0  0  0  0  0  0  0  0
  -30.7909  -21.3692   21.4727 C   0  0  0  0  0  0  0  0  0  0  0  0
  -19.3197  -16.6119   29.0451 C   0  0  1  0  0  0  0  0  0  0  0  0
  -20.6620  -20.0012   30.1144 C   0  0  1  0  0  0  0  0  0  0  0  0
  -27.6488  -13.1324   19.6933 C   0  0  2  0  0  0  0  0  0  0  0  0
  -18.6886  -27.4916   30.0513 C   0  0  0  0  0  0  0  0  0  0  0  0
  -17.6003  -21.6718   27.0820 C   0  0  0  0  0  0  0  0  0  0  0  0
  -17.3141  -24.1590   27.0973 C   0  0  0  0  0  0  0  0  0  0  0  0
  -16.3608  -22.7842   28.9476 C   0  0  0  0  0  0  0  0  0  0  0  0
  -21.7696  -25.9678   31.6827 C   0  0  0  0  0  0  0  0  0  0  0  0
  -18.8638  -23.1139   28.8111 C   0  0  1  0  0  0  0  0  0  0  0  0
  -19.5431  -26.3722   30.6254 C   0  0  2  0  0  0  0  0  0  0  0  0
  -17.5607  -22.9206   27.9852 C   0  0  0  0  0  0  0  0  0  0  0  0
  -25.8604  -11.5425   20.2891 N   0  0  0  0  0  0  0  0  0  0  0  0
  -26.2379  -12.8258   20.1592 N   0  0  0  0  0  0  0  0  0  0  0  0
  -20.3944  -21.2753   29.4441 N   0  0  0  0  0  0  0  0  0  0  0  0
  -29.9688  -13.6125   20.3696 N   0  0  0  0  0  0  0  0  0  0  0  0
  -25.4717  -15.0539   20.4025 N   0  0  0  0  0  0  0  0  0  0  0  0
  -21.8844  -12.5826   21.5941 N   0  0  0  0  0  0  0  0  0  0  0  0
  -28.9339  -20.0567   23.2803 N   0  0  0  0  0  0  0  0  0  0  0  0
  -30.0788  -15.6935   21.4740 N   0  0  0  0  0  0  0  0  0  0  0  0
  -19.7647  -17.7791   29.7758 N   0  0  0  0  0  0  0  0  0  0  0  0
  -18.8439  -24.2738   29.6958 N   0  0  0  0  0  0  0  0  0  0  0  0
  -20.8394  -26.9540   31.0753 N   0  3  0  0  0  0  0  0  0  0  0  0
  -22.6610  -14.7217   21.3117 O   0  0  0  0  0  0  0  0  0  0  0  0
  -27.6630  -18.4579   24.4305 O   0  0  0  0  0  0  0  0  0  0  0  0
  -20.3943  -19.0861   27.9544 O   0  0  0  0  0  0  0  0  0  0  0  0
  -18.3660  -21.5818   30.5522 O   0  0  0  0  0  0  0  0  0  0  0  0
  -20.7086  -25.3148   28.7922 O   0  0  0  0  0  0  0  0  0  0  0  0
  -31.8568  -14.9346   20.1917 O   0  0  0  0  0  0  0  0  0  0  0  0
  -27.8411  -22.0343   24.7081 O   0  0  0  0  0  0  0  0  0  0  0  0
  -21.6094   -7.0197   21.7110 O   0  0  0  0  0  0  0  0  0  0  0  0
  -25.9140  -21.4598   26.6960 O   0  0  0  0  0  0  0  0  0  1  0  0
  -16.4459   -6.8334   19.7856 F   0  0  0  0  0  0  0  0  0  0  0  0
  -20.8328   -5.0609   19.9213 F   0  0  0  0  0  0  0  0  0  0  0  0
  1  2  1  0  0  0  0
  1  5  2  0  0  0  0
  2  6  2  0  0  0  0
  3 10  2  0  0  0  0
  3 18  1  0  0  0  0
  4 11  1  0  0  0  0
  4 18  2  0  0  0  0
  5 20  1  0  0  0  0
  6 22  1  0  0  0  0
  7  9  2  0  0  0  0
  7 23  1  0  0  0  0
  8 12  2  0  0  0  0
  8 21  1  0  0  0  0
  9 25  1  0  0  0  0
 10 27  1  0  0  0  0
 11 27  2  0  0  0  0
 12 28  1  0  0  0  0
 13 14  2  0  0  0  0
 13 29  1  0  0  0  0
 14 30  1  0  0  0  0
 15 24  1  0  0  0  0
 15 28  2  0  0  0  0
 16 25  2  0  0  0  0
 16 26  1  0  0  0  0
 17 30  2  0  0  0  0
 17 31  1  0  0  0  0
 18 32  1  0  0  0  0
 19 32  1  0  0  0  0
 19 33  2  0  0  0  0
 19 35  1  0  0  0  0
 20 22  2  0  0  0  0
 20 42  1  0  0  0  0
 21 24  2  0  0  0  0
 21 43  1  0  0  0  0
 22 57  1  0  0  0  0
 23 26  2  0  0  0  0
 23 56  1  0  0  0  0
 24 44  1  0  0  0  0
 25 75  1  0  0  0  0
 26 74  1  0  0  0  0
 27 86  1  0  0  0  0
 28 87  1  0  0  0  0
 29 31  2  0  0  0  0
 29 86  1  0  0  0  0
 30 88  1  0  0  0  0
 31 89  1  0  0  0  0
 32 68  2  0  0  0  0
 33 69  1  0  0  0  0
 33 72  1  0  0  0  0
 34 36  2  0  0  0  0
 34 87  1  0  0  0  0
 35 73  1  0  0  0  0
 35 79  2  0  0  0  0
 36 37  1  0  0  0  0
 36 85  1  0  0  0  0
 37 74  1  0  0  0  0
 37 80  2  0  0  0  0
 38 58  1  0  0  0  0
 38 76  1  0  0  0  0
 38 81  2  0  0  0  0
 39 65  1  0  0  0  0
 39 70  1  0  0  0  0
 39 82  2  0  0  0  0
 40 66  1  0  0  0  0
 40 77  1  0  0  0  0
 40 83  2  0  0  0  0
 41 71  1  0  0  0  0
 41 75  1  0  0  0  0
 41 84  2  0  0  0  0
 42 45  1  0  0  0  0
 43 58  1  0  0  0  0
 44 70  1  0  0  0  0
 45 52  1  0  0  0  0
 46 47  1  0  0  0  0
 46 48  1  0  0  0  0
 47 50  1  0  0  0  0
 48 51  1  0  0  0  0
 49 53  1  0  0  0  0
 49 54  1  0  0  0  0
 50 56  1  0  0  0  0
 51 56  1  0  0  0  0
 52 57  1  0  0  0  0
 53 59  1  0  0  0  0
 54 71  1  0  0  0  0
 55 59  1  0  0  0  0
 55 71  1  0  0  0  0
 57 76  1  0  0  0  0
 58 70  1  0  0  0  0
 59 69  1  0  0  0  0
 60 66  1  0  0  0  0
 61 67  1  0  0  0  0
 62 67  1  0  0  0  0
 63 67  1  0  0  0  0
 64 78  1  0  0  0  0
 65 67  1  0  0  0  0
 65 77  1  0  0  0  0
 66 78  1  0  0  0  0
 68 69  1  0  0  0  0
M  CHG  1  78   1
M  ISO  4  34 101  41 100  75 100  87 101
M  END
> <Batch ID>
0166

> <Smiles>
CNC(C)C(=O)NC(C(=O)N1Cc2cc([101O:1][101CH2:1]C(=O)C(=O)Nc3cc([100NH:0][100C:0](=O)N4CCCC(n5nc(-c6ccc(Oc7ccc(F)cc7F)cc6)c(C(N)=O)c5N)C4)ccc3C3CCCCC3)ccc2CC1C(=O)NC1CCCc2ccccc21)C(C)(C)C

> <Shape>
0.168

> <Color>
0.184

> <Negative vol penalty>
0.000

$$$$

  -OEChem-04052304083D

 84 92  0     1  0  0  0  0  0999 V2000
  -25.1132  -36.9304   22.2112 C   0  0  0  0  0  0  0  0  0  0  0  0
  -25.8757  -35.8915   21.6871 C   0  0  0  0  0  0  0  0  0  0  0  0
  -23.2260  -10.8776   21.8137 C   0  0  0  0  0  0  0  0  0  0  0  0
  -22.6633  -13.0815   20.9991 C   0  0  0  0  0  0  0  0  0  0  0  0
  -24.2876  -36.7015   23.3112 C   0  0  0  0  0  0  0  0  0  0  0  0
  -25.8138  -34.6232   22.2634 C   0  0  0  0  0  0  0  0  0  0  0  0
  -26.2209  -29.2410   19.3700 C   0  0  0  0  0  0  0  0  0  0  0  0
  -22.1466  -10.9280   22.6956 C   0  0  0  0  0  0  0  0  0  0  0  0
  -21.5838  -13.1318   21.8810 C   0  0  0  0  0  0  0  0  0  0  0  0
  -27.2789  -28.3514   19.1883 C   0  0  0  0  0  0  0  0  0  0  0  0
  -18.4410  -11.9000   22.0413 C   0  0  0  0  0  0  0  0  0  0  0  0
  -17.2221  -12.3629   21.5456 C   0  0  0  0  0  0  0  0  0  0  0  0
  -26.5181  -27.0685   21.0842 C   0  0  0  0  0  0  0  0  0  0  0  0
  -30.5224  -18.2975   20.0888 C   0  0  0  0  0  0  0  0  0  0  0  0
  -17.2442  -14.1555   23.1653 C   0  0  0  0  0  0  0  0  0  0  0  0
  -28.4269  -18.4873   18.9800 C   0  0  0  0  0  0  0  0  0  0  0  0
  -23.4844  -11.9544   20.9655 C   0  0  0  0  0  0  0  0  0  0  0  0
  -24.5973  -11.4148   18.7343 C   0  0  0  0  0  0  0  0  0  0  0  0
  -24.2082  -35.4274   23.8952 C   0  0  0  0  0  0  0  0  0  0  0  0
  -25.3083  -29.0568   20.4186 C   0  0  0  0  0  0  0  0  0  0  0  0
  -24.9874  -34.3774   23.3730 C   0  0  0  0  0  0  0  0  0  0  0  0
  -25.4479  -27.9557   21.2756 C   0  0  0  0  0  0  0  0  0  0  0  0
  -29.4273  -17.6792   19.4957 C   0  0  0  0  0  0  0  0  0  0  0  0
  -21.3254  -12.0550   22.7293 C   0  0  0  0  0  0  0  0  0  0  0  0
  -27.4294  -27.2666   20.0472 C   0  0  0  0  0  0  0  0  0  0  0  0
  -19.0614  -12.5647   23.0991 C   0  0  0  0  0  0  0  0  0  0  0  0
  -16.6238  -13.4906   22.1076 C   0  0  0  0  0  0  0  0  0  0  0  0
  -30.5827  -19.6854   20.1472 C   0  0  0  0  0  0  0  0  0  0  0  0
  -18.4631  -13.6925   23.6610 C   0  0  0  0  0  0  0  0  0  0  0  0
  -24.5997  -11.9033   20.0546 C   0  0  0  0  0  0  0  0  0  0  0  0
  -29.5306  -20.4037   19.6022 C   0  0  0  0  0  0  0  0  0  0  0  0
  -25.8898  -11.5862   18.3024 C   0  0  0  0  0  0  0  0  0  0  0  0
  -28.1640  -25.0847   19.6345 C   0  0  0  0  0  0  0  0  0  1  0  0
  -23.5227  -10.8563   17.9668 C   0  0  0  0  0  0  0  0  0  0  0  0
  -29.0987  -24.1449   19.4481 C   0  0  0  0  0  0  0  0  0  0  0  0
  -28.6684  -22.7316   19.1923 C   0  0  0  0  0  0  0  0  0  0  0  0
  -24.4629  -30.7411   22.9783 C   0  0  0  0  0  0  0  0  0  0  0  0
  -22.2308  -28.4087   23.2938 C   0  0  0  0  0  0  0  0  0  0  0  0
  -21.2784  -25.2004   22.6252 C   0  0  0  0  0  0  0  0  0  0  0  0
  -30.2620  -15.3357   19.8928 C   0  0  0  0  0  0  0  0  0  0  0  0
  -23.3375  -35.2397   25.1123 C   0  0  0  0  0  0  0  0  0  0  0  0
  -24.1569  -30.0103   20.5849 C   0  0  0  0  0  0  0  0  0  0  0  0
  -24.4835  -27.7020   22.4043 C   0  0  0  0  0  0  0  0  0  0  0  0
  -23.0445  -33.7761   25.4317 C   0  0  0  0  0  0  0  0  0  0  0  0
  -30.3885  -11.7777   19.9330 C   0  0  0  0  0  0  0  0  0  0  0  0
  -24.3240  -32.9484   25.3639 C   0  0  0  0  0  0  0  0  0  0  0  0
  -28.9186  -11.3616   19.8424 C   0  0  0  0  0  0  0  0  0  0  0  0
  -30.5708  -13.0354   20.7807 C   0  0  0  0  0  0  0  0  0  0  0  0
  -28.2677  -13.7616   20.2933 C   0  0  0  0  0  0  0  0  0  0  0  0
  -24.9285  -32.9817   23.9550 C   0  0  1  0  0  0  0  0  0  0  0  0
  -23.5845  -30.0150   21.9991 C   0  0  1  0  0  0  0  0  0  0  0  0
  -28.0267  -12.5367   19.3960 C   0  0  2  0  0  0  0  0  0  0  0  0
  -19.4191  -23.5689   23.0475 C   0  0  0  0  0  0  0  0  0  0  0  0
  -23.2333  -28.0086   26.1477 C   0  0  0  0  0  0  0  0  0  0  0  0
  -22.0410  -25.8074   26.1838 C   0  0  0  0  0  0  0  0  0  0  0  0
  -20.7469  -27.9202   25.8934 C   0  0  0  0  0  0  0  0  0  0  0  0
  -20.7030  -24.9301   19.7347 C   0  0  0  0  0  0  0  0  0  0  0  0
  -22.1747  -27.0694   23.9882 C   0  0  1  0  0  0  0  0  0  0  0  0
  -19.9740  -24.6247   22.1041 C   0  0  2  0  0  0  0  0  0  0  0  0
  -22.0685  -27.2070   25.5333 C   0  0  0  0  0  0  0  0  0  0  0  0
  -28.4504  -19.8384   19.0182 N   0  0  0  0  0  0  0  0  0  0  0  0
  -25.7987  -12.3511   20.4365 N   0  0  0  0  0  0  0  0  0  0  0  0
  -26.5617  -12.1447   19.3496 N   0  0  0  0  0  0  0  0  0  0  0  0
  -23.3778  -28.6660   22.5297 N   0  0  0  0  0  0  0  0  0  0  0  0
  -29.6978  -14.1072   20.2967 N   0  0  0  0  0  0  0  0  0  0  0  0
  -26.5057  -11.3119   17.1329 N   0  0  0  0  0  0  0  0  0  0  0  0
  -22.2587  -10.7532   18.5634 N   0  0  0  0  0  0  0  0  0  0  0  0
  -29.3378  -16.2671   19.4206 N   0  0  0  0  0  0  0  0  0  0  0  0
  -29.5984  -21.8164   19.6661 N   0  0  0  0  0  0  0  0  0  0  0  0
  -24.2017  -32.0948   23.0721 N   0  0  0  0  0  0  0  0  0  0  0  0
  -21.0707  -26.3381   23.3761 N   0  0  0  0  0  0  0  0  0  0  0  0
  -20.1814  -23.9986   20.7678 N   0  3  0  0  0  0  0  0  0  0  0  0
  -23.6827  -10.4452   16.7925 O   0  0  0  0  0  0  0  0  0  0  0  0
  -27.6079  -22.4885   18.6265 O   0  0  0  0  0  0  0  0  0  0  0  0
  -25.3135  -30.1190   23.6037 O   0  0  0  0  0  0  0  0  0  0  0  0
  -21.2882  -29.1945   23.4188 O   0  0  0  0  0  0  0  0  0  0  0  0
  -22.3719  -24.6897   22.3927 O   0  0  0  0  0  0  0  0  0  0  0  0
  -31.4786  -15.5363   19.9352 O   0  0  0  0  0  0  0  0  0  0  0  0
  -30.4497  -24.4251   19.4805 O   0  0  0  0  0  0  0  0  0  0  0  0
  -20.2718  -12.1044   23.5896 O   0  0  0  0  0  0  0  0  0  0  0  0
  -28.4616  -26.3972   19.8724 O   0  0  0  0  0  0  0  0  0  1  0  0
  -15.4541  -13.9360   21.6304 F   0  0  0  0  0  0  0  0  0  0  0  0
  -31.6299  -20.2945   20.7178 F   0  0  0  0  0  0  0  0  0  0  0  0
  -19.0549  -14.3360   24.6766 F   0  0  0  0  0  0  0  0  0  0  0  0
  1  2  1  0  0  0  0
  1  5  2  0  0  0  0
  2  6  2  0  0  0  0
  3  8  2  0  0  0  0
  3 17  1  0  0  0  0
  4  9  1  0  0  0  0
  4 17  2  0  0  0  0
  5 19  1  0  0  0  0
  6 21  1  0  0  0  0
  7 10  2  0  0  0  0
  7 20  1  0  0  0  0
  8 24  1  0  0  0  0
  9 24  2  0  0  0  0
 10 25  1  0  0  0  0
 11 12  2  0  0  0  0
 11 26  1  0  0  0  0
 12 27  1  0  0  0  0
 13 22  1  0  0  0  0
 13 25  2  0  0  0  0
 14 23  2  0  0  0  0
 14 28  1  0  0  0  0
 15 27  2  0  0  0  0
 15 29  1  0  0  0  0
 16 23  1  0  0  0  0
 16 61  2  0  0  0  0
 17 30  1  0  0  0  0
 18 30  1  0  0  0  0
 18 32  2  0  0  0  0
 18 34  1  0  0  0  0
 19 21  2  0  0  0  0
 19 41  1  0  0  0  0
 20 22  2  0  0  0  0
 20 42  1  0  0  0  0
 21 50  1  0  0  0  0
 22 43  1  0  0  0  0
 23 68  1  0  0  0  0
 24 80  1  0  0  0  0
 25 81  1  0  0  0  0
 26 29  2  0  0  0  0
 26 80  1  0  0  0  0
 27 82  1  0  0  0  0
 28 31  2  0  0  0  0
 28 83  1  0  0  0  0
 29 84  1  0  0  0  0
 30 62  2  0  0  0  0
 31 61  1  0  0  0  0
 31 69  1  0  0  0  0
 32 63  1  0  0  0  0
 32 66  1  0  0  0  0
 33 35  2  0  0  0  0
 33 81  1  0  0  0  0
 34 67  1  0  0  0  0
 34 73  2  0  0  0  0
 35 36  1  0  0  0  0
 35 79  1  0  0  0  0
 36 69  1  0  0  0  0
 36 74  2  0  0  0  0
 37 51  1  0  0  0  0
 37 70  1  0  0  0  0
 37 75  2  0  0  0  0
 38 58  1  0  0  0  0
 38 64  1  0  0  0  0
 38 76  2  0  0  0  0
 39 59  1  0  0  0  0
 39 71  1  0  0  0  0
 39 77  2  0  0  0  0
 40 65  1  0  0  0  0
 40 68  1  0  0  0  0
 40 78  2  0  0  0  0
 41 44  1  0  0  0  0
 42 51  1  0  0  0  0
 43 64  1  0  0  0  0
 44 46  1  0  0  0  0
 45 47  1  0  0  0  0
 45 48  1  0  0  0  0
 46 50  1  0  0  0  0
 47 52  1  0  0  0  0
 48 65  1  0  0  0  0
 49 52  1  0  0  0  0
 49 65  1  0  0  0  0
 50 70  1  0  0  0  0
 51 64  1  0  0  0  0
 52 63  1  0  0  0  0
 53 59  1  0  0  0  0
 54 60  1  0  0  0  0
 55 60  1  0  0  0  0
 56 60  1  0  0  0  0
 57 72  1  0  0  0  0
 58 60  1  0  0  0  0
 58 71  1  0  0  0  0
 59 72  1  0  0  0  0
 62 63  1  0  0  0  0
M  CHG  1  72   1
M  ISO  4  33 101  40 100  68 100  81 101
M  END
> <Batch ID>
0166

> <Smiles>
CNC(C)C(=O)NC(C(=O)N1Cc2cc([101O:1][101CH2:1]C(=O)C(=O)Nc3ncc([100NH:0][100C:0](=O)N4CCCC(n5nc(-c6ccc(Oc7ccc(F)cc7F)cc6)c(C(N)=O)c5N)C4)cc3F)ccc2CC1C(=O)NC1CCCc2ccccc21)C(C)(C)C

> <Shape>
0.287

> <Color>
0.075

> <Negative vol penalty>
0.000

$$$$

  -OEChem-04052304083D

 86 95  0     1  0  0  0  0  0999 V2000
  -24.2002  -37.7354   18.3504 C   0  0  0  0  0  0  0  0  0  0  0  0
  -25.0134  -37.0331   19.2341 C   0  0  0  0  0  0  0  0  0  0  0  0
  -22.9879  -10.6520   20.5819 C   0  0  0  0  0  0  0  0  0  0  0  0
  -24.5604   -9.0067   21.3926 C   0  0  0  0  0  0  0  0  0  0  0  0
  -22.8409  -37.4364   18.2681 C   0  0  0  0  0  0  0  0  0  0  0  0
  -24.4674  -36.0321   20.0368 C   0  0  0  0  0  0  0  0  0  0  0  0
  -26.9157  -29.2654   19.7058 C   0  0  0  0  0  0  0  0  0  0  0  0
  -22.0596  -10.2348   21.5357 C   0  0  0  0  0  0  0  0  0  0  0  0
  -23.6322   -8.5895   22.3465 C   0  0  0  0  0  0  0  0  0  0  0  0
  -27.4705  -27.9939   19.8529 C   0  0  0  0  0  0  0  0  0  0  0  0
  -20.8643   -6.6506   22.4479 C   0  0  0  0  0  0  0  0  0  0  0  0
  -20.6811   -5.2782   22.6171 C   0  0  0  0  0  0  0  0  0  0  0  0
  -25.7510  -27.4169   21.4522 C   0  0  0  0  0  0  0  0  0  0  0  0
  -21.3605   -5.4724   24.9274 C   0  0  0  0  0  0  0  0  0  0  0  0
  -30.4763  -18.8635   19.8598 C   0  0  0  0  0  0  0  0  0  0  0  0
  -28.1324  -17.5866   19.9159 C   0  0  0  0  0  0  0  0  0  0  0  0
  -24.2383  -10.0379   20.5103 C   0  0  0  0  0  0  0  0  0  0  0  0
  -25.0432  -10.4541   18.1257 C   0  0  0  0  0  0  0  0  0  0  0  0
  -22.2798  -36.4247   19.0633 C   0  0  0  0  0  0  0  0  0  0  0  0
  -25.7660  -29.6126   20.4207 C   0  0  0  0  0  0  0  0  0  0  0  0
  -23.0990  -35.7202   19.9661 C   0  0  0  0  0  0  0  0  0  0  0  0
  -25.1835  -28.6847   21.2996 C   0  0  0  0  0  0  0  0  0  0  0  0
  -22.3817   -9.2036   22.4180 C   0  0  0  0  0  0  0  0  0  0  0  0
  -26.8897  -27.0721   20.7241 C   0  0  0  0  0  0  0  0  0  0  0  0
  -21.2956   -7.4339   23.5184 C   0  0  0  0  0  0  0  0  0  0  0  0
  -20.9292   -4.6891   23.8568 C   0  0  0  0  0  0  0  0  0  0  0  0
  -21.5437   -6.8448   24.7582 C   0  0  0  0  0  0  0  0  0  0  0  0
  -25.1975  -10.4680   19.5249 C   0  0  0  0  0  0  0  0  0  0  0  0
  -29.2874  -19.5593   19.8534 C   0  0  0  0  0  0  0  0  0  0  0  0
  -29.3212  -16.8907   19.9216 C   0  0  0  0  0  0  0  0  0  0  0  0
  -26.2266  -10.9589   17.6447 C   0  0  0  0  0  0  0  0  0  0  0  0
  -23.9297  -10.0235   17.3317 C   0  0  0  0  0  0  0  0  0  0  0  0
  -23.1826  -32.2279   21.1701 C   0  0  0  0  0  0  0  0  0  0  0  0
  -21.7079  -29.5439   20.9926 C   0  0  0  0  0  0  0  0  0  0  0  0
  -19.4316  -27.0449   20.5335 C   0  0  0  0  0  0  0  0  0  0  0  0
  -30.3585  -14.5955   19.9701 C   0  0  0  0  0  0  0  0  0  0  0  0
  -20.7961  -36.1696   18.9734 C   0  0  0  0  0  0  0  0  0  0  0  0
  -25.1698  -30.9917   20.3400 C   0  0  0  0  0  0  0  0  0  0  0  0
  -23.9675  -29.1139   22.0743 C   0  0  0  0  0  0  0  0  0  0  0  0
  -20.3684  -34.8395   19.5883 C   0  0  0  0  0  0  0  0  0  0  0  0
  -30.8761  -11.2938   18.7420 C   0  0  0  0  0  0  0  0  0  0  0  0
  -21.0203  -34.6487   20.9542 C   0  0  0  0  0  0  0  0  0  0  0  0
  -28.6361  -21.6786   21.0731 C   0  0  0  0  0  0  0  0  0  0  0  0
  -28.6120  -21.6141   18.5396 C   0  0  0  0  0  0  0  0  0  0  0  0
  -29.4640  -10.7082   18.6703 C   0  0  0  0  0  0  0  0  0  0  0  0
  -28.6481  -23.2092   21.0321 C   0  0  0  0  0  0  0  0  0  0  0  0
  -28.6273  -23.1444   18.5022 C   0  0  0  0  0  0  0  0  0  0  0  0
  -31.0498  -12.2087   19.9530 C   0  0  0  0  0  0  0  0  0  0  0  0
  -28.6338  -12.6877   20.0042 C   0  0  0  0  0  0  0  0  0  0  0  0
  -22.5487  -34.6106   20.8355 C   0  0  1  0  0  0  0  0  0  0  0  0
  -29.2829  -21.0768   19.8146 C   0  0  0  0  0  0  0  0  0  0  0  0
  -23.6344  -30.9926   20.4482 C   0  0  1  0  0  0  0  0  0  0  0  0
  -28.3912  -11.8107   18.7649 C   0  0  2  0  0  0  0  0  0  0  0  0
  -27.9941  -23.7642   19.7579 C   0  0  0  0  0  0  0  0  0  0  0  0
  -17.1192  -26.3388   21.2057 C   0  0  0  0  0  0  0  0  0  0  0  0
  -22.7613  -28.7161   23.7329 C   0  0  0  0  0  0  0  0  0  0  0  0
  -20.7684  -27.2191   23.9681 C   0  0  0  0  0  0  0  0  0  0  0  0
  -20.4554  -29.6843   23.7501 C   0  0  0  0  0  0  0  0  0  0  0  0
  -18.4788  -27.0871   17.7319 C   0  0  0  0  0  0  0  0  0  0  0  0
  -25.9306  -23.9113   18.6427 C   0  0  0  0  0  0  0  0  0  0  0  0
  -28.1051  -25.2896   19.7225 C   0  0  0  0  0  0  0  0  0  1  0  0
  -21.1739  -28.3427   21.7312 C   0  0  1  0  0  0  0  0  0  0  0  0
  -17.9570  -27.0787   20.1745 C   0  0  2  0  0  0  0  0  0  0  0  0
  -21.3074  -28.4877   23.2734 C   0  0  0  0  0  0  0  0  0  0  0  0
  -28.0942  -18.9334   19.8816 N   0  0  0  0  0  0  0  0  0  0  0  0
  -30.5145  -17.5167   19.8937 N   0  0  0  0  0  0  0  0  0  0  0  0
  -26.3853  -10.9438   19.9079 N   0  0  0  0  0  0  0  0  0  0  0  0
  -26.9882  -11.2334   18.7423 N   0  0  0  0  0  0  0  0  0  0  0  0
  -23.0546  -29.8665   21.1997 N   0  0  0  0  0  0  0  0  0  0  0  0
  -30.0009  -13.2306   19.9744 N   0  0  0  0  0  0  0  0  0  0  0  0
  -26.6796  -11.1901   16.3942 N   0  0  0  0  0  0  0  0  0  0  0  0
  -23.8800   -8.6843   16.9213 N   0  0  0  0  0  0  0  0  0  0  0  0
  -29.2764  -15.4750   19.9586 N   0  0  0  0  0  0  0  0  0  0  0  0
  -22.9857  -33.3203   20.3470 N   0  0  0  0  0  0  0  0  0  0  0  0
  -19.8046  -28.1525   21.2652 N   0  0  0  0  0  0  0  0  0  0  0  0
  -17.7330  -26.4446   18.8446 N   0  3  0  0  0  0  0  0  0  0  0  0
  -23.0146  -10.8070   16.9823 O   0  0  0  0  0  0  0  0  0  0  0  0
  -23.0224  -32.1935   22.3846 O   0  0  0  0  0  0  0  0  0  0  0  0
  -20.9523  -30.1839   20.2559 O   0  0  0  0  0  0  0  0  0  0  0  0
  -20.1771  -26.1259   20.2016 O   0  0  0  0  0  0  0  0  0  0  0  0
  -31.5377  -14.9574   19.9486 O   0  0  0  0  0  0  0  0  0  0  0  0
  -21.4762   -8.7964   23.3491 O   0  0  0  0  0  0  0  0  0  0  0  0
  -27.4339  -25.8310   20.8595 O   0  0  0  0  0  0  0  0  0  1  0  0
  -26.6037  -23.4287   19.7934 O   0  0  0  0  0  0  0  0  0  0  0  0
  -20.7518   -3.3715   24.0196 F   0  0  0  0  0  0  0  0  0  0  0  0
  -21.9571   -7.5923   25.7907 F   0  0  0  0  0  0  0  0  0  0  0  0
  1  2  1  0  0  0  0
  1  5  2  0  0  0  0
  2  6  2  0  0  0  0
  3  8  2  0  0  0  0
  3 17  1  0  0  0  0
  4  9  1  0  0  0  0
  4 17  2  0  0  0  0
  5 19  1  0  0  0  0
  6 21  1  0  0  0  0
  7 10  2  0  0  0  0
  7 20  1  0  0  0  0
  8 23  1  0  0  0  0
  9 23  2  0  0  0  0
 10 24  1  0  0  0  0
 11 12  2  0  0  0  0
 11 25  1  0  0  0  0
 12 26  1  0  0  0  0
 13 22  1  0  0  0  0
 13 24  2  0  0  0  0
 14 26  2  0  0  0  0
 14 27  1  0  0  0  0
 15 29  1  0  0  0  0
 15 66  2  0  0  0  0
 16 30  2  0  0  0  0
 16 65  1  0  0  0  0
 17 28  1  0  0  0  0
 18 28  1  0  0  0  0
 18 31  2  0  0  0  0
 18 32  1  0  0  0  0
 19 21  2  0  0  0  0
 19 37  1  0  0  0  0
 20 22  2  0  0  0  0
 20 38  1  0  0  0  0
 21 50  1  0  0  0  0
 22 39  1  0  0  0  0
 23 82  1  0  0  0  0
 24 83  1  0  0  0  0
 25 27  2  0  0  0  0
 25 82  1  0  0  0  0
 26 85  1  0  0  0  0
 27 86  1  0  0  0  0
 28 67  2  0  0  0  0
 29 51  1  0  0  0  0
 29 65  2  0  0  0  0
 30 66  1  0  0  0  0
 30 73  1  0  0  0  0
 31 68  1  0  0  0  0
 31 71  1  0  0  0  0
 32 72  1  0  0  0  0
 32 77  2  0  0  0  0
 33 52  1  0  0  0  0
 33 74  1  0  0  0  0
 33 78  2  0  0  0  0
 34 62  1  0  0  0  0
 34 69  1  0  0  0  0
 34 79  2  0  0  0  0
 35 63  1  0  0  0  0
 35 75  1  0  0  0  0
 35 80  2  0  0  0  0
 36 70  1  0  0  0  0
 36 73  1  0  0  0  0
 36 81  2  0  0  0  0
 37 40  1  0  0  0  0
 38 52  1  0  0  0  0
 39 69  1  0  0  0  0
 40 42  1  0  0  0  0
 41 45  1  0  0  0  0
 41 48  1  0  0  0  0
 42 50  1  0  0  0  0
 43 46  1  0  0  0  0
 43 51  1  0  0  0  0
 44 47  1  0  0  0  0
 44 51  1  0  0  0  0
 45 53  1  0  0  0  0
 46 54  1  0  0  0  0
 47 54  1  0  0  0  0
 48 70  1  0  0  0  0
 49 53  1  0  0  0  0
 49 70  1  0  0  0  0
 50 74  1  0  0  0  0
 52 69  1  0  0  0  0
 53 68  1  0  0  0  0
 54 61  1  0  0  0  0
 54 84  1  0  0  0  0
 55 63  1  0  0  0  0
 56 64  1  0  0  0  0
 57 64  1  0  0  0  0
 58 64  1  0  0  0  0
 59 76  1  0  0  0  0
 60 84  1  0  0  0  0
 61 83  1  0  0  0  0
 62 64  1  0  0  0  0
 62 75  1  0  0  0  0
 63 76  1  0  0  0  0
 67 68  1  0  0  0  0
M  CHG  1  76   1
M  ISO  4  36 100  61 101  73 100  83 101
M  END
> <Batch ID>
0166

> <Smiles>
CNC(C)C(=O)NC(C(=O)N1Cc2cc([101O:1][101CH2:1]C3(OC)CCC(c4cnc([100NH:0][100C:0](=O)N5CCCC(n6nc(-c7ccc(Oc8ccc(F)cc8F)cc7)c(C(N)=O)c6N)C5)cn4)CC3)ccc2CC1C(=O)NC1CCCc2ccccc21)C(C)(C)C

> <Shape>
0.292

> <Color>
0.103

> <Negative vol penalty>
0.000

$$$$

  -OEChem-04052304083D

 84 93  0     1  0  0  0  0  0999 V2000
  -27.7760  -36.5689   22.0448 C   0  0  0  0  0  0  0  0  0  0  0  0
  -28.0651  -35.2390   22.3332 C   0  0  0  0  0  0  0  0  0  0  0  0
  -24.4604   -9.9156   21.6734 C   0  0  0  0  0  0  0  0  0  0  0  0
  -24.7554  -11.1130   23.7510 C   0  0  0  0  0  0  0  0  0  0  0  0
  -26.4621  -37.0285   22.1244 C   0  0  0  0  0  0  0  0  0  0  0  0
  -27.0405  -34.3681   22.7023 C   0  0  0  0  0  0  0  0  0  0  0  0
  -27.3476  -29.8967   20.3449 C   0  0  0  0  0  0  0  0  0  0  0  0
  -24.1059   -8.7692   22.3844 C   0  0  0  0  0  0  0  0  0  0  0  0
  -24.4008   -9.9665   24.4620 C   0  0  0  0  0  0  0  0  0  0  0  0
  -28.2861  -28.9856   20.8275 C   0  0  0  0  0  0  0  0  0  0  0  0
  -21.3763   -7.5735   23.9821 C   0  0  0  0  0  0  0  0  0  0  0  0
  -20.2658   -6.8543   23.5404 C   0  0  0  0  0  0  0  0  0  0  0  0
  -26.5376  -27.8225   22.0145 C   0  0  0  0  0  0  0  0  0  0  0  0
  -27.7199  -20.1080   21.3982 C   0  0  0  0  0  0  0  0  0  0  0  0
  -21.6595   -4.9102   23.2016 C   0  0  0  0  0  0  0  0  0  0  0  0
  -30.0917  -19.9792   21.2772 C   0  0  0  0  0  0  0  0  0  0  0  0
  -24.7852  -11.0875   22.3567 C   0  0  0  0  0  0  0  0  0  0  0  0
  -24.2920  -13.2861   21.1607 C   0  0  0  0  0  0  0  0  0  0  0  0
  -25.4195  -36.1605   22.4853 C   0  0  0  0  0  0  0  0  0  0  0  0
  -25.9965  -29.7838   20.7029 C   0  0  0  0  0  0  0  0  0  0  0  0
  -25.7116  -34.8169   22.7881 C   0  0  0  0  0  0  0  0  0  0  0  0
  -25.5835  -28.7319   21.5330 C   0  0  0  0  0  0  0  0  0  0  0  0
  -27.8440  -21.4211   21.8382 C   0  0  0  0  0  0  0  0  0  0  0  0
  -28.8602  -19.3664   21.1102 C   0  0  0  0  0  0  0  0  0  0  0  0
  -24.0761   -8.7946   23.7787 C   0  0  0  0  0  0  0  0  0  0  0  0
  -27.8816  -27.9500   21.6647 C   0  0  0  0  0  0  0  0  0  0  0  0
  -22.6285   -6.9611   24.0334 C   0  0  0  0  0  0  0  0  0  0  0  0
  -20.4074   -5.5227   23.1502 C   0  0  0  0  0  0  0  0  0  0  0  0
  -22.7701   -5.6294   23.6432 C   0  0  0  0  0  0  0  0  0  0  0  0
  -25.1521  -12.2720   21.6228 C   0  0  0  0  0  0  0  0  0  0  0  0
  -29.1209  -21.9419   21.9728 C   0  0  0  0  0  0  0  0  0  0  0  0
  -25.1226  -14.1793   20.5290 C   0  0  0  0  0  0  0  0  0  0  0  0
  -22.8696  -13.4099   21.2908 C   0  0  0  0  0  0  0  0  0  0  0  0
  -23.9298  -31.6217   22.2695 C   0  0  0  0  0  0  0  0  0  0  0  0
  -21.8108  -29.3380   21.3657 C   0  0  0  0  0  0  0  0  0  0  0  0
  -21.2652  -26.1084   20.4071 C   0  0  0  0  0  0  0  0  0  0  0  0
  -29.8164  -17.1682   20.3356 C   0  0  0  0  0  0  0  0  0  0  0  0
  -24.0218  -36.7146   22.6037 C   0  0  0  0  0  0  0  0  0  0  0  0
  -24.9923  -30.7589   20.1523 C   0  0  0  0  0  0  0  0  0  0  0  0
  -24.1416  -28.5547   21.9306 C   0  0  0  0  0  0  0  0  0  0  0  0
  -22.9405  -35.6376   22.6384 C   0  0  0  0  0  0  0  0  0  0  0  0
  -29.9985  -13.7896   19.2269 C   0  0  0  0  0  0  0  0  0  0  0  0
  -23.3265  -34.5247   23.6077 C   0  0  0  0  0  0  0  0  0  0  0  0
  -30.6502  -23.6154   23.1491 C   0  0  0  0  0  0  0  0  0  0  0  0
  -28.6831  -13.1770   19.7134 C   0  0  0  0  0  0  0  0  0  0  0  0
  -30.8319  -25.1172   23.0093 C   0  0  0  0  0  0  0  0  0  0  0  0
  -30.5583  -14.7990   20.2276 C   0  0  0  0  0  0  0  0  0  0  0  0
  -28.3060  -15.2408   21.1225 C   0  0  0  0  0  0  0  0  0  0  0  0
  -24.6240  -33.8357   23.1681 C   0  0  1  0  0  0  0  0  0  0  0  0
  -29.3176  -23.3582   22.4445 C   0  0  1  0  0  0  0  0  0  0  0  0
  -23.7246  -30.8514   20.9959 C   0  0  1  0  0  0  0  0  0  0  0  0
  -27.6701  -14.2658   20.1181 C   0  0  2  0  0  0  0  0  0  0  0  0
  -30.4073  -25.3794   21.5729 C   0  0  2  0  0  0  0  0  0  0  0  0
  -26.6256  -22.2199   22.1487 C   0  0  0  0  0  0  0  0  0  0  0  0
  -19.4236  -24.5261   19.7733 C   0  0  0  0  0  0  0  0  0  0  0  0
  -21.0170  -29.0898   24.3014 C   0  0  0  0  0  0  0  0  0  0  0  0
  -19.9194  -26.9087   23.7481 C   0  0  0  0  0  0  0  0  0  0  0  0
  -19.1030  -29.0167   22.6934 C   0  0  0  0  0  0  0  0  0  0  0  0
  -22.4041  -25.6802   17.7093 C   0  0  0  0  0  0  0  0  0  0  0  0
  -29.9299  -26.7936   21.3136 C   0  0  0  0  0  0  0  0  0  1  0  0
  -21.3176  -28.0414   21.9612 C   0  0  1  0  0  0  0  0  0  0  0  0
  -20.4568  -25.5195   19.2652 C   0  0  2  0  0  0  0  0  0  0  0  0
  -20.3668  -28.2684   23.1703 C   0  0  0  0  0  0  0  0  0  0  0  0
  -30.2520  -21.2524   21.7026 N   0  0  0  0  0  0  0  0  0  0  0  0
  -26.4309  -12.4987   21.3111 N   0  0  0  0  0  0  0  0  0  0  0  0
  -26.3806  -13.6656   20.6463 N   0  0  0  0  0  0  0  0  0  0  0  0
  -23.1986  -29.5374   21.3717 N   0  0  0  0  0  0  0  0  0  0  0  0
  -29.5447  -15.8021   20.5610 N   0  0  0  0  0  0  0  0  0  0  0  0
  -24.8922  -15.3460   19.8902 N   0  0  0  0  0  0  0  0  0  0  0  0
  -22.1706  -12.4025   21.9697 N   0  0  0  0  0  0  0  0  0  0  0  0
  -28.7661  -18.0262   20.6601 N   0  0  0  0  0  0  0  0  0  0  0  0
  -24.3653  -32.9191   22.0784 N   0  0  0  0  0  0  0  0  0  0  0  0
  -20.7193  -27.2895   20.8634 N   0  0  0  0  0  0  0  0  0  0  0  0
  -29.2838  -24.4019   21.3427 N   0  3  0  0  0  0  0  0  0  0  0  0
  -21.3532  -24.8156   18.3050 N   0  3  0  0  0  0  0  0  0  0  0  0
  -22.2350  -14.3767   20.8048 O   0  0  0  0  0  0  0  0  0  0  0  0
  -23.7079  -31.0797   23.3459 O   0  0  0  0  0  0  0  0  0  0  0  0
  -20.9953  -30.1410   20.9056 O   0  0  0  0  0  0  0  0  0  0  0  0
  -22.2775  -25.5722   20.8525 O   0  0  0  0  0  0  0  0  0  0  0  0
  -30.8910  -17.5466   19.8623 O   0  0  0  0  0  0  0  0  0  0  0  0
  -23.7299   -7.6762   24.4729 O   0  0  0  0  0  0  0  0  0  0  0  0
  -28.7957  -27.0597   22.1377 O   0  0  0  0  0  0  0  0  0  1  0  0
  -19.3405   -4.8317   22.7276 F   0  0  0  0  0  0  0  0  0  0  0  0
  -23.9703   -5.0353   23.6914 F   0  0  0  0  0  0  0  0  0  0  0  0
  1  2  1  0  0  0  0
  1  5  2  0  0  0  0
  2  6  2  0  0  0  0
  3  8  2  0  0  0  0
  3 17  1  0  0  0  0
  4  9  1  0  0  0  0
  4 17  2  0  0  0  0
  5 19  1  0  0  0  0
  6 21  1  0  0  0  0
  7 10  2  0  0  0  0
  7 20  1  0  0  0  0
  8 25  1  0  0  0  0
  9 25  2  0  0  0  0
 10 26  1  0  0  0  0
 11 12  2  0  0  0  0
 11 27  1  0  0  0  0
 12 28  1  0  0  0  0
 13 22  1  0  0  0  0
 13 26  2  0  0  0  0
 14 23  1  0  0  0  0
 14 24  2  0  0  0  0
 15 28  2  0  0  0  0
 15 29  1  0  0  0  0
 16 24  1  0  0  0  0
 16 64  2  0  0  0  0
 17 30  1  0  0  0  0
 18 30  1  0  0  0  0
 18 32  2  0  0  0  0
 18 33  1  0  0  0  0
 19 21  2  0  0  0  0
 19 38  1  0  0  0  0
 20 22  2  0  0  0  0
 20 39  1  0  0  0  0
 21 49  1  0  0  0  0
 22 40  1  0  0  0  0
 23 31  2  0  0  0  0
 23 54  1  0  0  0  0
 24 71  1  0  0  0  0
 25 81  1  0  0  0  0
 26 82  1  0  0  0  0
 27 29  2  0  0  0  0
 27 81  1  0  0  0  0
 28 83  1  0  0  0  0
 29 84  1  0  0  0  0
 30 65  2  0  0  0  0
 31 50  1  0  0  0  0
 31 64  1  0  0  0  0
 32 66  1  0  0  0  0
 32 69  1  0  0  0  0
 33 70  1  0  0  0  0
 33 76  2  0  0  0  0
 34 51  1  0  0  0  0
 34 72  1  0  0  0  0
 34 77  2  0  0  0  0
 35 61  1  0  0  0  0
 35 67  1  0  0  0  0
 35 78  2  0  0  0  0
 36 62  1  0  0  0  0
 36 73  1  0  0  0  0
 36 79  2  0  0  0  0
 37 68  1  0  0  0  0
 37 71  1  0  0  0  0
 37 80  2  0  0  0  0
 38 41  1  0  0  0  0
 39 51  1  0  0  0  0
 40 67  1  0  0  0  0
 41 43  1  0  0  0  0
 42 45  1  0  0  0  0
 42 47  1  0  0  0  0
 43 49  1  0  0  0  0
 44 46  1  0  0  0  0
 44 50  1  0  0  0  0
 45 52  1  0  0  0  0
 46 53  1  0  0  0  0
 47 68  1  0  0  0  0
 48 52  1  0  0  0  0
 48 68  1  0  0  0  0
 49 72  1  0  0  0  0
 50 74  1  0  0  0  0
 51 67  1  0  0  0  0
 52 66  1  0  0  0  0
 53 60  1  0  0  0  0
 53 74  1  0  0  0  0
 55 62  1  0  0  0  0
 56 63  1  0  0  0  0
 57 63  1  0  0  0  0
 58 63  1  0  0  0  0
 59 75  1  0  0  0  0
 60 82  1  0  0  0  0
 61 63  1  0  0  0  0
 61 73  1  0  0  0  0
 62 75  1  0  0  0  0
 65 66  1  0  0  0  0
M  CHG  2  74   1  75   1
M  ISO  4  37 100  60 101  71 100  82 101
M  END
> <Batch ID>
0166

> <Smiles>
CNC(C)C(=O)NC(C(=O)N1Cc2cc([101O:1][101CH2:1]C3CCC(c4ncc([100NH:0][100C:0](=O)N5CCCC(n6nc(-c7ccc(Oc8ccc(F)cc8F)cc7)c(C(N)=O)c6N)C5)cc4C)N3)ccc2CC1C(=O)NC1CCCc2ccccc21)C(C)(C)C

> <Shape>
0.323

> <Color>
0.117

> <Negative vol penalty>
0.000

$$$$

  -OEChem-04052304083D

 90 99  0     1  0  0  0  0  0999 V2000
  -20.3156  -23.6373   29.3535 C   0  0  0  0  0  0  0  0  0  0  0  0
  -20.1285  -23.0974   28.0851 C   0  0  0  0  0  0  0  0  0  0  0  0
  -26.5098  -13.1432   18.9958 C   0  0  0  0  0  0  0  0  0  0  0  0
  -26.3488  -12.9864   21.4013 C   0  0  0  0  0  0  0  0  0  0  0  0
  -20.4741  -25.0139   29.5075 C   0  0  0  0  0  0  0  0  0  0  0  0
  -20.0988  -23.9340   26.9699 C   0  0  0  0  0  0  0  0  0  0  0  0
  -24.7780  -23.0715   21.5613 C   0  0  0  0  0  0  0  0  0  0  0  0
  -25.2665  -12.5230   18.8721 C   0  0  0  0  0  0  0  0  0  0  0  0
  -25.1055  -12.3663   21.2777 C   0  0  0  0  0  0  0  0  0  0  0  0
  -25.5017  -22.8384   20.3917 C   0  0  0  0  0  0  0  0  0  0  0  0
  -23.9198   -9.2852   20.5485 C   0  0  0  0  0  0  0  0  0  0  0  0
  -23.6762   -8.1591   21.3347 C   0  0  0  0  0  0  0  0  0  0  0  0
  -24.5079  -24.7943   19.3744 C   0  0  0  0  0  0  0  0  0  0  0  0
  -30.0332  -22.7813   19.6283 C   0  0  0  0  0  0  0  0  0  0  0  0
  -21.8098   -9.2881   22.3734 C   0  0  0  0  0  0  0  0  0  0  0  0
  -27.0510  -13.3748   20.2603 C   0  0  0  0  0  0  0  0  0  0  0  0
  -29.5664  -13.5606   19.8785 C   0  0  0  0  0  0  0  0  0  0  0  0
  -20.4560  -25.8668   28.3926 C   0  0  0  0  0  0  0  0  0  0  0  0
  -23.9272  -24.1770   21.6475 C   0  0  0  0  0  0  0  0  0  0  0  0
  -20.2559  -25.3234   27.1092 C   0  0  0  0  0  0  0  0  0  0  0  0
  -23.7899  -25.0399   20.5478 C   0  0  0  0  0  0  0  0  0  0  0  0
  -29.9004  -23.5931   18.4649 C   0  0  0  0  0  0  0  0  0  0  0  0
  -24.5644  -12.1346   20.0131 C   0  0  0  0  0  0  0  0  0  0  0  0
  -25.3667  -23.6976   19.3008 C   0  0  0  0  0  0  0  0  0  0  0  0
  -23.1084  -10.4128   20.6747 C   0  0  0  0  0  0  0  0  0  0  0  0
  -22.6212   -8.1606   22.2472 C   0  0  0  0  0  0  0  0  0  0  0  0
  -22.0534  -10.4142   21.5872 C   0  0  0  0  0  0  0  0  0  0  0  0
  -28.3355  -14.0149   20.3887 C   0  0  0  0  0  0  0  0  0  0  0  0
  -30.4731  -14.5161   20.2677 C   0  0  0  0  0  0  0  0  0  0  0  0
  -29.3829  -22.8898   17.3995 C   0  0  0  0  0  0  0  0  0  0  0  0
  -29.6119  -21.4883   19.4078 C   0  0  0  0  0  0  0  0  0  0  0  0
  -26.7799  -23.9299   15.9513 C   0  0  0  0  0  0  0  0  0  0  0  0
  -29.8637  -12.3804   19.1205 C   0  0  0  0  0  0  0  0  0  0  0  0
  -21.5251  -26.1578   23.7409 C   0  0  0  0  0  0  0  0  0  0  0  0
  -30.7511  -25.4691   16.9993 C   0  0  0  0  0  0  0  0  0  0  0  0
  -23.2493  -28.1802   22.2087 C   0  0  0  0  0  0  0  0  0  0  0  0
  -25.7584  -29.7757   21.1784 C   0  0  0  0  0  0  0  0  0  0  0  0
  -29.9676  -20.3169   21.6095 C   0  0  0  0  0  0  0  0  0  0  0  0
  -20.5844  -27.3532   28.6136 C   0  0  0  0  0  0  0  0  0  0  0  0
  -23.0816  -24.4322   22.8656 C   0  0  0  0  0  0  0  0  0  0  0  0
  -22.8367  -26.1969   20.6735 C   0  0  0  0  0  0  0  0  0  0  0  0
  -28.1884  -24.4837   15.8992 C   0  0  0  0  0  0  0  0  0  0  0  0
  -20.9151  -28.1316   27.3428 C   0  0  0  0  0  0  0  0  0  0  0  0
  -31.2600  -17.7498   23.7112 C   0  0  0  0  0  0  0  0  0  0  0  0
  -20.0219  -27.6792   26.1920 C   0  0  0  0  0  0  0  0  0  0  0  0
  -30.7738  -16.4592   23.0478 C   0  0  0  0  0  0  0  0  0  0  0  0
  -28.3063  -21.7803   14.4157 C   0  0  0  0  0  0  0  0  0  0  0  0
  -27.1104  -22.6278   13.9825 C   0  0  0  0  0  0  0  0  0  0  0  0
  -30.2211  -18.8654   23.6104 C   0  0  0  0  0  0  0  0  0  0  0  0
  -29.4845  -22.6190   14.9174 C   0  0  0  0  0  0  0  0  0  0  0  0
  -29.2470  -17.8479   21.5893 C   0  0  0  0  0  0  0  0  0  0  0  0
  -20.2426  -26.1957   25.8727 C   0  0  1  0  0  0  0  0  0  0  0  0
  -22.8920  -25.9300   23.1655 C   0  0  1  0  0  0  0  0  0  0  0  0
  -30.2858  -16.7146   21.6084 C   0  0  2  0  0  0  0  0  0  0  0  0
  -31.9504  -24.7607   16.4101 C   0  0  0  0  0  0  0  0  0  0  0  0
  -26.3044  -31.4254   22.9888 C   0  0  0  0  0  0  0  0  0  0  0  0
  -31.4564  -25.2954   19.4186 C   0  0  0  0  0  0  0  0  0  0  0  0
  -29.1674  -26.0516   18.8263 C   0  0  0  0  0  0  0  0  0  0  0  0
  -20.9789  -28.5684   20.2090 C   0  0  0  0  0  0  0  0  0  0  0  0
  -22.2533  -30.4953   19.2439 C   0  0  0  0  0  0  0  0  0  0  0  0
  -21.4847  -30.5733   21.6158 C   0  0  0  0  0  0  0  0  0  0  0  0
  -26.6248  -31.8164   19.2178 C   0  0  0  0  0  0  0  0  0  0  0  0
  -25.8952  -24.3832   17.0854 C   0  0  0  0  0  0  0  0  0  1  0  0
  -23.3959  -29.0445   20.9819 C   0  0  1  0  0  0  0  0  0  0  0  0
  -26.6063  -30.9728   21.5687 C   0  0  2  0  0  0  0  0  0  0  0  0
  -30.2806  -25.0266   18.4254 C   0  0  0  0  0  0  0  0  0  0  0  0
  -22.0400  -29.6445   20.5141 C   0  0  0  0  0  0  0  0  0  0  0  0
  -28.4465  -15.1692   21.0515 N   0  0  0  0  0  0  0  0  0  0  0  0
  -26.3001  -23.0749   15.1148 N   0  0  0  0  0  0  0  0  0  0  0  0
  -29.7580  -15.4482   20.9606 N   0  0  0  0  0  0  0  0  0  0  0  0
  -29.1249  -23.3790   16.1178 N   0  0  2  0  0  0  0  0  0  0  0  0
  -22.9783  -26.8229   21.9974 N   0  0  0  0  0  0  0  0  0  0  0  0
  -29.8089  -19.0538   22.2178 N   0  0  0  0  0  0  0  0  0  0  0  0
  -31.8042  -14.6415   20.0814 N   0  0  0  0  0  0  0  0  0  0  0  0
  -30.2066  -11.2108   19.8123 N   0  0  0  0  0  0  0  0  0  0  0  0
  -29.5712  -20.3674   20.2735 N   0  0  0  0  0  0  0  0  0  0  0  0
  -21.4622  -26.0179   25.1141 N   0  0  0  0  0  0  0  0  0  0  0  0
  -24.4112  -30.0414   21.3040 N   0  0  0  0  0  0  0  0  0  0  0  0
  -26.3468  -32.1143   20.6464 N   0  3  0  0  0  0  0  0  0  0  0  0
  -29.8423  -12.3680   17.8664 O   0  0  0  0  0  0  0  0  0  0  0  0
  -20.5951  -26.4414   22.9949 O   0  0  0  0  0  0  0  0  0  0  0  0
  -30.1984  -26.3692   16.3630 O   0  0  0  0  0  0  0  0  0  0  0  0
  -23.3656  -28.6931   23.3252 O   0  0  0  0  0  0  0  0  0  0  0  0
  -26.2425  -28.7126   20.7964 O   0  0  0  0  0  0  0  0  0  0  0  0
  -30.4470  -21.2757   22.2202 O   0  0  0  0  0  0  0  0  0  0  0  0
  -23.3510  -11.5297   19.8929 O   0  0  0  0  0  0  0  0  0  0  0  0
  -26.0796  -23.4667   18.1636 O   0  0  0  0  0  0  0  0  0  1  0  0
  -22.3865   -7.0786   23.0011 F   0  0  0  0  0  0  0  0  0  0  0  0
  -21.2698  -11.4941   21.7121 F   0  0  0  0  0  0  0  0  0  0  0  0
  -29.0594  -21.2575   17.8035 S   0  0  0  0  0  0  0  0  0  0  0  0
  1  2  1  0  0  0  0
  1  5  2  0  0  0  0
  2  6  2  0  0  0  0
  3  8  2  0  0  0  0
  3 16  1  0  0  0  0
  4  9  1  0  0  0  0
  4 16  2  0  0  0  0
  5 18  1  0  0  0  0
  6 20  1  0  0  0  0
  7 10  2  0  0  0  0
  7 19  1  0  0  0  0
  8 23  1  0  0  0  0
  9 23  2  0  0  0  0
 10 24  1  0  0  0  0
 11 12  2  0  0  0  0
 11 25  1  0  0  0  0
 12 26  1  0  0  0  0
 13 21  1  0  0  0  0
 13 24  2  0  0  0  0
 14 22  1  0  0  0  0
 14 31  2  0  0  0  0
 15 26  2  0  0  0  0
 15 27  1  0  0  0  0
 16 28  1  0  0  0  0
 17 28  1  0  0  0  0
 17 29  2  0  0  0  0
 17 33  1  0  0  0  0
 18 20  2  0  0  0  0
 18 39  1  0  0  0  0
 19 21  2  0  0  0  0
 19 40  1  0  0  0  0
 20 52  1  0  0  0  0
 21 41  1  0  0  0  0
 22 30  2  0  0  0  0
 22 66  1  0  0  0  0
 23 86  1  0  0  0  0
 24 87  1  0  0  0  0
 25 27  2  0  0  0  0
 25 86  1  0  0  0  0
 26 88  1  0  0  0  0
 27 89  1  0  0  0  0
 28 68  2  0  0  0  0
 29 70  1  0  0  0  0
 29 74  1  0  0  0  0
 30 71  1  0  0  0  0
 30 90  1  0  0  0  0
 31 76  1  0  0  0  0
 31 90  1  0  0  0  0
 32 42  1  0  0  0  0
 32 63  1  0  0  0  0
 32 69  2  0  0  0  0
 33 75  1  0  0  0  0
 33 80  2  0  0  0  0
 34 53  1  0  0  0  0
 34 77  1  0  0  0  0
 34 81  2  0  0  0  0
 35 55  1  0  0  0  0
 35 66  1  0  0  0  0
 35 82  2  0  0  0  0
 36 64  1  0  0  0  0
 36 72  1  0  0  0  0
 36 83  2  0  0  0  0
 37 65  1  0  0  0  0
 37 78  1  0  0  0  0
 37 84  2  0  0  0  0
 38 73  1  0  0  0  0
 38 76  1  0  0  0  0
 38 85  2  0  0  0  0
 39 43  1  0  0  0  0
 40 53  1  0  0  0  0
 41 72  1  0  0  0  0
 42 71  1  0  0  0  0
 43 45  1  0  0  0  0
 44 46  1  0  0  0  0
 44 49  1  0  0  0  0
 45 52  1  0  0  0  0
 46 54  1  0  0  0  0
 47 48  1  0  0  0  0
 47 50  1  0  0  0  0
 48 69  1  0  0  0  0
 49 73  1  0  0  0  0
 50 71  1  0  0  0  0
 51 54  1  0  0  0  0
 51 73  1  0  0  0  0
 52 77  1  0  0  0  0
 53 72  1  0  0  0  0
 54 70  1  0  0  0  0
 56 65  1  0  0  0  0
 57 66  1  0  0  0  0
 58 66  1  0  0  0  0
 59 67  1  0  0  0  0
 60 67  1  0  0  0  0
 61 67  1  0  0  0  0
 62 79  1  0  0  0  0
 63 87  1  0  0  0  0
 64 67  1  0  0  0  0
 64 78  1  0  0  0  0
 65 79  1  0  0  0  0
 68 70  1  0  0  0  0
M  CHG  1  79   1
M  ISO  4  38 100  63 101  76 100  87 101
M  END
> <Batch ID>
0166

> <Smiles>
CNC(C)C(=O)NC(C(=O)N1Cc2cc([101O:1][101CH2:1]C3=NCCCN(c4sc([100NH:0][100C:0](=O)N5CCCC(n6nc(-c7ccc(Oc8ccc(F)cc8F)cc7)c(C(N)=O)c6N)C5)cc4C(C)(C)C(C)=O)C3)ccc2CC1C(=O)NC1CCCc2ccccc21)C(C)(C)C

> <Shape>
0.270

> <Color>
0.062

> <Negative vol penalty>
0.000

$$$$

  -OEChem-04052304083D

 85 93  0     1  0  0  0  0  0999 V2000
  -17.7271  -26.7107   26.0315 C   0  0  0  0  0  0  0  0  0  0  0  0
  -18.9148  -26.2849   25.4455 C   0  0  0  0  0  0  0  0  0  0  0  0
  -23.2747   -9.6347   20.0350 C   0  0  0  0  0  0  0  0  0  0  0  0
  -23.7784   -9.9895   22.3712 C   0  0  0  0  0  0  0  0  0  0  0  0
  -17.1136  -27.8819   25.5890 C   0  0  0  0  0  0  0  0  0  0  0  0
  -19.4891  -27.0294   24.4158 C   0  0  0  0  0  0  0  0  0  0  0  0
  -24.4876  -27.6051   24.9891 C   0  0  0  0  0  0  0  0  0  0  0  0
  -22.5713   -8.4757   20.3627 C   0  0  0  0  0  0  0  0  0  0  0  0
  -23.0749   -8.8304   22.6988 C   0  0  0  0  0  0  0  0  0  0  0  0
  -25.2966  -26.5223   24.6475 C   0  0  0  0  0  0  0  0  0  0  0  0
  -19.8480   -7.8997   23.0749 C   0  0  0  0  0  0  0  0  0  0  0  0
  -18.9711   -7.9600   24.1579 C   0  0  0  0  0  0  0  0  0  0  0  0
  -29.2397  -18.2659   22.4113 C   0  0  0  0  0  0  0  0  0  0  0  0
  -25.7922  -27.5679   22.5308 C   0  0  0  0  0  0  0  0  0  0  0  0
  -20.2274   -6.2227   25.2719 C   0  0  0  0  0  0  0  0  0  0  0  0
  -31.4051  -17.8592   21.5156 C   0  0  0  0  0  0  0  0  0  0  0  0
  -23.8783  -10.3916   21.0393 C   0  0  0  0  0  0  0  0  0  0  0  0
  -29.6457  -19.5582   22.7255 C   0  0  0  0  0  0  0  0  0  0  0  0
  -24.0946  -12.8975   20.6130 C   0  0  0  0  0  0  0  0  0  0  0  0
  -17.6857  -28.6463   24.5599 C   0  0  0  0  0  0  0  0  0  0  0  0
  -24.3159  -28.6743   24.0981 C   0  0  0  0  0  0  0  0  0  0  0  0
  -18.8819  -28.2112   23.9582 C   0  0  0  0  0  0  0  0  0  0  0  0
  -24.9825  -28.6644   22.8645 C   0  0  0  0  0  0  0  0  0  0  0  0
  -30.1302  -17.3940   21.7948 C   0  0  0  0  0  0  0  0  0  0  0  0
  -22.4713   -8.0735   21.6946 C   0  0  0  0  0  0  0  0  0  0  0  0
  -25.9467  -26.5022   23.4170 C   0  0  0  0  0  0  0  0  0  0  0  0
  -20.9146   -7.0008   23.0903 C   0  0  0  0  0  0  0  0  0  0  0  0
  -19.1608   -7.1215   25.2564 C   0  0  0  0  0  0  0  0  0  0  0  0
  -21.1043   -6.1624   24.1888 C   0  0  0  0  0  0  0  0  0  0  0  0
  -24.6056  -11.5887   20.7014 C   0  0  0  0  0  0  0  0  0  0  0  0
  -30.9424  -19.9264   22.4048 C   0  0  0  0  0  0  0  0  0  0  0  0
  -25.1778  -13.6662   20.2636 C   0  0  0  0  0  0  0  0  0  0  0  0
  -28.6870  -20.4826   23.3839 C   0  0  0  0  0  0  0  0  0  0  0  0
  -22.7600  -13.3755   20.8277 C   0  0  0  0  0  0  0  0  0  0  0  0
  -21.8352  -29.9430   22.5682 C   0  0  0  0  0  0  0  0  0  0  0  0
  -26.8075  -23.0556   22.6952 C   0  0  0  0  0  0  0  0  0  0  0  0
  -24.0191  -32.1717   21.6820 C   0  0  0  0  0  0  0  0  0  0  0  0
  -27.2954  -32.9684   21.1547 C   0  0  0  0  0  0  0  0  0  0  0  0
  -30.5280  -15.0945   20.8460 C   0  0  0  0  0  0  0  0  0  0  0  0
  -16.9609  -29.8801   24.0831 C   0  0  0  0  0  0  0  0  0  0  0  0
  -23.4611  -29.8474   24.4925 C   0  0  0  0  0  0  0  0  0  0  0  0
  -24.8473  -29.7969   21.8809 C   0  0  0  0  0  0  0  0  0  0  0  0
  -17.8309  -30.8107   23.2420 C   0  0  0  0  0  0  0  0  0  0  0  0
  -29.8104  -12.3249   18.7266 C   0  0  0  0  0  0  0  0  0  0  0  0
  -18.6045  -30.0163   22.1945 C   0  0  0  0  0  0  0  0  0  0  0  0
  -28.3503  -11.9941   19.0442 C   0  0  0  0  0  0  0  0  0  0  0  0
  -30.5752  -12.7686   19.9723 C   0  0  0  0  0  0  0  0  0  0  0  0
  -28.4927  -13.5342   21.0429 C   0  0  0  0  0  0  0  0  0  0  0  0
  -19.5487  -29.0048   22.8556 C   0  0  1  0  0  0  0  0  0  0  0  0
  -22.9484  -30.6424   23.2957 C   0  0  1  0  0  0  0  0  0  0  0  0
  -27.6649  -13.1446   19.8073 C   0  0  2  0  0  0  0  0  0  0  0  0
  -28.7666  -34.8543   20.3953 C   0  0  0  0  0  0  0  0  0  0  0  0
  -23.2003  -31.6430   18.7906 C   0  0  0  0  0  0  0  0  0  0  0  0
  -25.2954  -32.8018   18.0586 C   0  0  0  0  0  0  0  0  0  0  0  0
  -23.5649  -34.0537   19.3474 C   0  0  0  0  0  0  0  0  0  0  0  0
  -28.7121  -33.0627   23.7514 C   0  0  0  0  0  0  0  0  0  0  0  0
  -26.5083  -21.6509   23.1737 C   0  0  0  0  0  0  0  0  0  0  0  0
  -26.3879  -24.1747   23.6271 C   0  0  0  0  0  0  0  0  0  1  0  0
  -24.9822  -32.3258   20.5297 C   0  0  1  0  0  0  0  0  0  0  0  0
  -28.1236  -34.1644   21.5884 C   0  0  2  0  0  0  0  0  0  0  0  0
  -24.2619  -32.6837   19.1991 C   0  0  0  0  0  0  0  0  0  0  0  0
  -31.8357  -19.1074   21.8058 N   0  0  0  0  0  0  0  0  0  0  0  0
  -25.9119  -11.5258   20.4299 N   0  0  0  0  0  0  0  0  0  0  0  0
  -26.2308  -12.8047   20.1674 N   0  0  0  0  0  0  0  0  0  0  0  0
  -23.9955  -30.9184   22.3100 N   0  0  0  0  0  0  0  0  0  0  0  0
  -29.8691  -13.8638   20.6408 N   0  0  0  0  0  0  0  0  0  0  0  0
  -31.3637  -21.2422   22.7222 N   0  0  0  0  0  0  0  0  0  0  0  0
  -25.3229  -14.9883   20.0323 N   0  0  0  0  0  0  0  0  0  0  0  0
  -21.7678  -12.4509   21.1812 N   0  0  0  0  0  0  0  0  0  0  0  0
  -29.7462  -16.0714   21.4618 N   0  0  0  0  0  0  0  0  0  0  0  0
  -27.5170  -20.7605   22.6816 N   0  0  0  0  0  0  0  0  0  0  0  0
  -20.7327  -29.6703   23.3553 N   0  0  0  0  0  0  0  0  0  0  0  0
  -25.9739  -33.3076   20.9551 N   0  0  0  0  0  0  0  0  0  0  0  0
  -29.2036  -33.7356   22.5216 N   0  3  0  0  0  0  0  0  0  0  0  0
  -28.9716  -20.9626   24.4780 O   0  0  0  0  0  0  0  0  0  0  0  0
  -22.4529  -14.5843   20.6935 O   0  0  0  0  0  0  0  0  0  0  0  0
  -21.9662  -29.6721   21.3803 O   0  0  0  0  0  0  0  0  0  0  0  0
  -27.3115  -23.2823   21.5955 O   0  0  0  0  0  0  0  0  0  0  0  0
  -23.3188  -33.1303   22.0171 O   0  0  0  0  0  0  0  0  0  0  0  0
  -27.7737  -31.8463   21.0042 O   0  0  0  0  0  0  0  0  0  0  0  0
  -31.6906  -15.2777   20.4762 O   0  0  0  0  0  0  0  0  0  0  0  0
  -21.7848   -6.9427   22.0147 O   0  0  0  0  0  0  0  0  0  0  0  0
  -26.7364  -25.4461   23.0808 O   0  0  0  0  0  0  0  0  0  1  0  0
  -18.3195   -7.1806   26.2971 F   0  0  0  0  0  0  0  0  0  0  0  0
  -22.1278   -5.2977   24.2098 F   0  0  0  0  0  0  0  0  0  0  0  0
  1  2  1  0  0  0  0
  1  5  2  0  0  0  0
  2  6  2  0  0  0  0
  3  8  2  0  0  0  0
  3 17  1  0  0  0  0
  4  9  1  0  0  0  0
  4 17  2  0  0  0  0
  5 20  1  0  0  0  0
  6 22  1  0  0  0  0
  7 10  2  0  0  0  0
  7 21  1  0  0  0  0
  8 25  1  0  0  0  0
  9 25  2  0  0  0  0
 10 26  1  0  0  0  0
 11 12  2  0  0  0  0
 11 27  1  0  0  0  0
 12 28  1  0  0  0  0
 13 18  1  0  0  0  0
 13 24  2  0  0  0  0
 14 23  1  0  0  0  0
 14 26  2  0  0  0  0
 15 28  2  0  0  0  0
 15 29  1  0  0  0  0
 16 24  1  0  0  0  0
 16 62  2  0  0  0  0
 17 30  1  0  0  0  0
 18 31  2  0  0  0  0
 18 33  1  0  0  0  0
 19 30  1  0  0  0  0
 19 32  2  0  0  0  0
 19 34  1  0  0  0  0
 20 22  2  0  0  0  0
 20 40  1  0  0  0  0
 21 23  2  0  0  0  0
 21 41  1  0  0  0  0
 22 49  1  0  0  0  0
 23 42  1  0  0  0  0
 24 70  1  0  0  0  0
 25 82  1  0  0  0  0
 26 83  1  0  0  0  0
 27 29  2  0  0  0  0
 27 82  1  0  0  0  0
 28 84  1  0  0  0  0
 29 85  1  0  0  0  0
 30 63  2  0  0  0  0
 31 62  1  0  0  0  0
 31 67  1  0  0  0  0
 32 64  1  0  0  0  0
 32 68  1  0  0  0  0
 33 71  1  0  0  0  0
 33 75  2  0  0  0  0
 34 69  1  0  0  0  0
 34 76  2  0  0  0  0
 35 50  1  0  0  0  0
 35 72  1  0  0  0  0
 35 77  2  0  0  0  0
 36 57  1  0  0  0  0
 36 58  1  0  0  0  0
 36 78  2  0  0  0  0
 37 59  1  0  0  0  0
 37 65  1  0  0  0  0
 37 79  2  0  0  0  0
 38 60  1  0  0  0  0
 38 73  1  0  0  0  0
 38 80  2  0  0  0  0
 39 66  1  0  0  0  0
 39 70  1  0  0  0  0
 39 81  2  0  0  0  0
 40 43  1  0  0  0  0
 41 50  1  0  0  0  0
 42 65  1  0  0  0  0
 43 45  1  0  0  0  0
 44 46  1  0  0  0  0
 44 47  1  0  0  0  0
 45 49  1  0  0  0  0
 46 51  1  0  0  0  0
 47 66  1  0  0  0  0
 48 51  1  0  0  0  0
 48 66  1  0  0  0  0
 49 72  1  0  0  0  0
 50 65  1  0  0  0  0
 51 64  1  0  0  0  0
 52 60  1  0  0  0  0
 53 61  1  0  0  0  0
 54 61  1  0  0  0  0
 55 61  1  0  0  0  0
 56 74  1  0  0  0  0
 57 71  1  0  0  0  0
 58 83  1  0  0  0  0
 59 61  1  0  0  0  0
 59 73  1  0  0  0  0
 60 74  1  0  0  0  0
 63 64  1  0  0  0  0
M  CHG  1  74   1
M  ISO  4  39 100  58 101  70 100  83 101
M  END
> <Batch ID>
0166

> <Smiles>
CNC(C)C(=O)NC(C(=O)N1Cc2cc([101O:1][101CH2:1]C(=O)CNC(=O)c3cc([100NH:0][100C:0](=O)N4CCCC(n5nc(-c6ccc(Oc7ccc(F)cc7F)cc6)c(C(N)=O)c5N)C4)cnc3N)ccc2CC1C(=O)NC1CCCc2ccccc21)C(C)(C)C

> <Shape>
0.268

> <Color>
0.181

> <Negative vol penalty>
0.000

$$$$

  -OEChem-04052304083D

 87 95  0     1  0  0  0  0  0999 V2000
  -25.4431  -34.5198   19.4433 C   0  0  0  0  0  0  0  0  0  0  0  0
  -26.0607  -33.3247   19.7976 C   0  0  0  0  0  0  0  0  0  0  0  0
  -22.9315  -10.2053   20.2938 C   0  0  0  0  0  0  0  0  0  0  0  0
  -24.2634   -9.3249   22.1070 C   0  0  0  0  0  0  0  0  0  0  0  0
  -24.1937  -34.8410   19.9722 C   0  0  0  0  0  0  0  0  0  0  0  0
  -25.4297  -32.4505   20.6820 C   0  0  0  0  0  0  0  0  0  0  0  0
  -25.6574  -27.6310   19.1439 C   0  0  0  0  0  0  0  0  0  0  0  0
  -22.1506   -9.0496   20.3062 C   0  0  0  0  0  0  0  0  0  0  0  0
  -23.4825   -8.1691   22.1195 C   0  0  0  0  0  0  0  0  0  0  0  0
  -26.8599  -26.9547   19.3447 C   0  0  0  0  0  0  0  0  0  0  0  0
  -20.4564   -7.2222   23.2886 C   0  0  0  0  0  0  0  0  0  0  0  0
  -20.0349   -6.7401   24.5277 C   0  0  0  0  0  0  0  0  0  0  0  0
  -25.9315  -25.8983   21.3046 C   0  0  0  0  0  0  0  0  0  0  0  0
  -21.1920   -4.6603   24.1122 C   0  0  0  0  0  0  0  0  0  0  0  0
  -31.8085  -19.2524   20.6913 C   0  0  0  0  0  0  0  0  0  0  0  0
  -23.9879  -10.3429   21.1941 C   0  0  0  0  0  0  0  0  0  0  0  0
  -24.5777  -12.7178   21.9152 C   0  0  0  0  0  0  0  0  0  0  0  0
  -23.5427  -33.9659   20.8560 C   0  0  0  0  0  0  0  0  0  0  0  0
  -24.5848  -27.4541   20.0297 C   0  0  0  0  0  0  0  0  0  0  0  0
  -24.1711  -32.7610   21.2243 C   0  0  0  0  0  0  0  0  0  0  0  0
  -24.7156  -26.5715   21.1114 C   0  0  0  0  0  0  0  0  0  0  0  0
  -31.3387  -17.2802   21.9853 C   0  0  0  0  0  0  0  0  0  0  0  0
  -22.4260   -8.0315   21.2190 C   0  0  0  0  0  0  0  0  0  0  0  0
  -26.9981  -26.0904   20.4268 C   0  0  0  0  0  0  0  0  0  0  0  0
  -21.2457   -6.4234   22.4612 C   0  0  0  0  0  0  0  0  0  0  0  0
  -20.4027   -5.4592   24.9395 C   0  0  0  0  0  0  0  0  0  0  0  0
  -21.6136   -5.1424   22.8730 C   0  0  0  0  0  0  0  0  0  0  0  0
  -32.1285  -17.9497   21.0572 C   0  0  0  0  0  0  0  0  0  0  0  0
  -24.7953  -11.5362   21.1814 C   0  0  0  0  0  0  0  0  0  0  0  0
  -30.2485  -17.9524   22.5140 C   0  0  0  0  0  0  0  0  0  0  0  0
  -30.6972  -19.8362   21.2778 C   0  0  0  0  0  0  0  0  0  0  0  0
  -25.6153  -13.5421   21.5544 C   0  0  0  0  0  0  0  0  0  0  0  0
  -23.5311  -13.0411   22.8404 C   0  0  0  0  0  0  0  0  0  0  0  0
  -29.3738  -17.3207   23.4905 C   0  0  0  0  0  0  0  0  0  0  0  0
  -22.9518  -29.3566   21.9835 C   0  0  0  0  0  0  0  0  0  0  0  0
  -29.2367  -23.2603   20.8041 C   0  0  0  0  0  0  0  0  0  0  0  0
  -21.1127  -26.7151   22.3869 C   0  0  0  0  0  0  0  0  0  0  0  0
  -20.8584  -23.3144   22.2561 C   0  0  0  0  0  0  0  0  0  0  0  0
  -31.0354  -14.3744   20.5175 C   0  0  0  0  0  0  0  0  0  0  0  0
  -22.2142  -34.3782   21.4387 C   0  0  0  0  0  0  0  0  0  0  0  0
  -23.2852  -28.1705   19.7840 C   0  0  0  0  0  0  0  0  0  0  0  0
  -23.5873  -26.3311   22.0797 C   0  0  0  0  0  0  0  0  0  0  0  0
  -21.4449  -33.2247   22.0774 C   0  0  0  0  0  0  0  0  0  0  0  0
  -29.0404  -13.0985   17.8587 C   0  0  0  0  0  0  0  0  0  0  0  0
  -22.3650  -32.3998   22.9717 C   0  0  0  0  0  0  0  0  0  0  0  0
  -27.7435  -12.6703   18.5475 C   0  0  0  0  0  0  0  0  0  0  0  0
  -30.2604  -12.8346   18.7385 C   0  0  0  0  0  0  0  0  0  0  0  0
  -28.8890  -12.9887   20.7803 C   0  0  0  0  0  0  0  0  0  0  0  0
  -23.5074  -31.7754   22.1614 C   0  0  1  0  0  0  0  0  0  0  0  0
  -22.4319  -28.3082   21.0410 C   0  0  1  0  0  0  0  0  0  0  0  0
  -27.6258  -13.2868   19.9545 C   0  0  2  0  0  0  0  0  0  0  0  0
  -28.6991  -18.2100   24.4935 C   0  0  0  0  0  0  0  0  0  0  0  0
  -19.2419  -21.4421   22.6795 C   0  0  0  0  0  0  0  0  0  0  0  0
  -21.5360  -27.0324   25.3919 C   0  0  0  0  0  0  0  0  0  0  0  0
  -20.7369  -24.6775   25.6826 C   0  0  0  0  0  0  0  0  0  0  0  0
  -19.2089  -26.4022   24.7269 C   0  0  0  0  0  0  0  0  0  0  0  0
  -20.9632  -22.4306   19.4335 C   0  0  0  0  0  0  0  0  0  0  0  0
  -31.6742  -15.8835   22.3812 C   0  0  0  0  0  0  0  0  0  0  0  0
  -29.2712  -21.8785   21.4219 C   0  0  0  0  0  0  0  0  0  0  0  0
  -28.0979  -24.1526   21.2583 C   0  0  0  0  0  0  0  0  0  1  0  0
  -21.1283  -25.5351   23.3284 C   0  0  1  0  0  0  0  0  0  0  0  0
  -19.8060  -22.4056   21.6469 C   0  0  2  0  0  0  0  0  0  0  0  0
  -20.6746  -25.9176   24.7655 C   0  0  0  0  0  0  0  0  0  0  0  0
  -25.8855  -11.6003   20.4124 N   0  0  0  0  0  0  0  0  0  0  0  0
  -29.9062  -19.2176   22.1829 N   0  0  0  0  0  0  0  0  0  0  0  0
  -26.3621  -12.8321   20.6609 N   0  0  0  0  0  0  0  0  0  0  0  0
  -22.3388  -27.0597   21.8005 N   0  0  0  0  0  0  0  0  0  0  0  0
  -30.0859  -13.4469   20.0577 N   0  0  0  0  0  0  0  0  0  0  0  0
  -25.9526  -14.7979   21.9173 N   0  0  0  0  0  0  0  0  0  0  0  0
  -22.5449  -12.0788   23.0966 N   0  0  0  0  0  0  0  0  0  0  0  0
  -30.3915  -21.1366   20.9028 N   0  0  0  0  0  0  0  0  0  0  0  0
  -23.0349  -30.6197   21.4295 N   0  0  0  0  0  0  0  0  0  0  0  0
  -20.3137  -24.5008   22.7000 N   0  0  0  0  0  0  0  0  0  0  0  0
  -30.7912  -14.9119   21.7753 N   0  0  0  0  0  0  0  0  0  0  0  0
  -20.3919  -21.6093   20.5318 N   0  3  0  0  0  0  0  0  0  0  0  0
  -23.4632  -14.1566   23.4101 O   0  0  0  0  0  0  0  0  0  0  0  0
  -29.1496  -16.1108   23.5584 O   0  0  0  0  0  0  0  0  0  0  0  0
  -23.2537  -29.0430   23.1290 O   0  0  0  0  0  0  0  0  0  0  0  0
  -30.0718  -23.6445   19.9864 O   0  0  0  0  0  0  0  0  0  0  0  0
  -20.0504  -27.3048   22.1739 O   0  0  0  0  0  0  0  0  0  0  0  0
  -22.0443  -23.0014   22.3341 O   0  0  0  0  0  0  0  0  0  0  0  0
  -32.0244  -14.7033   19.8537 O   0  0  0  0  0  0  0  0  0  0  0  0
  -21.6641   -6.9038   21.2316 O   0  0  0  0  0  0  0  0  0  0  0  0
  -28.1710  -25.4295   20.6255 O   0  0  0  0  0  0  0  0  0  1  0  0
  -19.9991   -4.9969   26.1302 F   0  0  0  0  0  0  0  0  0  0  0  0
  -22.3727   -4.3708   22.0830 F   0  0  0  0  0  0  0  0  0  0  0  0
  -33.1959  -17.3502   20.5120 F   0  0  0  0  0  0  0  0  0  0  0  0
  1  2  1  0  0  0  0
  1  5  2  0  0  0  0
  2  6  2  0  0  0  0
  3  8  2  0  0  0  0
  3 16  1  0  0  0  0
  4  9  1  0  0  0  0
  4 16  2  0  0  0  0
  5 18  1  0  0  0  0
  6 20  1  0  0  0  0
  7 10  2  0  0  0  0
  7 19  1  0  0  0  0
  8 23  1  0  0  0  0
  9 23  2  0  0  0  0
 10 24  1  0  0  0  0
 11 12  2  0  0  0  0
 11 25  1  0  0  0  0
 12 26  1  0  0  0  0
 13 21  1  0  0  0  0
 13 24  2  0  0  0  0
 14 26  2  0  0  0  0
 14 27  1  0  0  0  0
 15 28  2  0  0  0  0
 15 31  1  0  0  0  0
 16 29  1  0  0  0  0
 17 29  1  0  0  0  0
 17 32  2  0  0  0  0
 17 33  1  0  0  0  0
 18 20  2  0  0  0  0
 18 40  1  0  0  0  0
 19 21  2  0  0  0  0
 19 41  1  0  0  0  0
 20 49  1  0  0  0  0
 21 42  1  0  0  0  0
 22 28  1  0  0  0  0
 22 30  2  0  0  0  0
 22 58  1  0  0  0  0
 23 83  1  0  0  0  0
 24 84  1  0  0  0  0
 25 27  2  0  0  0  0
 25 83  1  0  0  0  0
 26 85  1  0  0  0  0
 27 86  1  0  0  0  0
 28 87  1  0  0  0  0
 29 64  2  0  0  0  0
 30 34  1  0  0  0  0
 30 65  1  0  0  0  0
 31 65  2  0  0  0  0
 31 71  1  0  0  0  0
 32 66  1  0  0  0  0
 32 69  1  0  0  0  0
 33 70  1  0  0  0  0
 33 76  2  0  0  0  0
 34 52  1  0  0  0  0
 34 77  2  0  0  0  0
 35 50  1  0  0  0  0
 35 72  1  0  0  0  0
 35 78  2  0  0  0  0
 36 59  1  0  0  0  0
 36 60  1  0  0  0  0
 36 79  2  0  0  0  0
 37 61  1  0  0  0  0
 37 67  1  0  0  0  0
 37 80  2  0  0  0  0
 38 62  1  0  0  0  0
 38 73  1  0  0  0  0
 38 81  2  0  0  0  0
 39 68  1  0  0  0  0
 39 74  1  0  0  0  0
 39 82  2  0  0  0  0
 40 43  1  0  0  0  0
 41 50  1  0  0  0  0
 42 67  1  0  0  0  0
 43 45  1  0  0  0  0
 44 46  1  0  0  0  0
 44 47  1  0  0  0  0
 45 49  1  0  0  0  0
 46 51  1  0  0  0  0
 47 68  1  0  0  0  0
 48 51  1  0  0  0  0
 48 68  1  0  0  0  0
 49 72  1  0  0  0  0
 50 67  1  0  0  0  0
 51 66  1  0  0  0  0
 53 62  1  0  0  0  0
 54 63  1  0  0  0  0
 55 63  1  0  0  0  0
 56 63  1  0  0  0  0
 57 75  1  0  0  0  0
 58 74  1  0  0  0  0
 59 71  1  0  0  0  0
 60 84  1  0  0  0  0
 61 63  1  0  0  0  0
 61 73  1  0  0  0  0
 62 75  1  0  0  0  0
 64 66  1  0  0  0  0
M  CHG  1  75   1
M  ISO  4  39 100  60 101  74 100  84 101
M  END
> <Batch ID>
0166

> <Smiles>
CNC(C)C(=O)NC(C(=O)N1Cc2cc([101O:1][101CH2:1]C(=O)CNc3cc(F)c(C[100NH:0][100C:0](=O)N4CCCC(n5nc(-c6ccc(Oc7ccc(F)cc7F)cc6)c(C(N)=O)c5N)C4)c(C(C)=O)n3)ccc2CC1C(=O)NC1CCCc2ccccc21)C(C)(C)C

> <Shape>
0.298

> <Color>
0.141

> <Negative vol penalty>
0.000

$$$$

  -OEChem-04052304083D

 81 89  0     1  0  0  0  0  0999 V2000
  -21.6056  -11.7171   21.8489 C   0  0  0  0  0  0  0  0  0  0  0  0
  -22.0779  -12.6482   22.7684 C   0  0  0  0  0  0  0  0  0  0  0  0
  -23.8997  -28.8598   19.2570 C   0  0  0  0  0  0  0  0  0  0  0  0
  -24.1863  -27.7357   21.3763 C   0  0  0  0  0  0  0  0  0  0  0  0
  -22.4029  -11.3390   20.7694 C   0  0  0  0  0  0  0  0  0  0  0  0
  -23.3482  -13.2010   22.6094 C   0  0  0  0  0  0  0  0  0  0  0  0
  -25.0828  -18.9048   24.0108 C   0  0  0  0  0  0  0  0  0  0  0  0
  -22.5661  -28.4528   19.2215 C   0  0  0  0  0  0  0  0  0  0  0  0
  -22.8526  -27.3287   21.3408 C   0  0  0  0  0  0  0  0  0  0  0  0
  -25.7425  -19.4396   25.1164 C   0  0  0  0  0  0  0  0  0  0  0  0
  -19.8194  -28.6834   21.9614 C   0  0  0  0  0  0  0  0  0  0  0  0
  -19.0706  -28.8193   23.1303 C   0  0  0  0  0  0  0  0  0  0  0  0
  -31.8742  -24.6721   24.6001 C   0  0  0  0  0  0  0  0  0  0  0  0
  -30.9539  -24.1255   25.5261 C   0  0  0  0  0  0  0  0  0  0  0  0
  -27.8383  -19.2878   23.9316 C   0  0  0  0  0  0  0  0  0  0  0  0
  -18.6765  -26.4358   23.1551 C   0  0  0  0  0  0  0  0  0  0  0  0
  -24.7099  -28.5012   20.3344 C   0  0  0  0  0  0  0  0  0  0  0  0
  -26.6007  -30.1064   20.9311 C   0  0  0  0  0  0  0  0  0  0  0  0
  -23.6797  -11.8946   20.5918 C   0  0  0  0  0  0  0  0  0  0  0  0
  -25.7986  -18.5467   22.8593 C   0  0  0  0  0  0  0  0  0  0  0  0
  -24.1637  -12.8289   21.5273 C   0  0  0  0  0  0  0  0  0  0  0  0
  -27.1850  -18.7510   22.8118 C   0  0  0  0  0  0  0  0  0  0  0  0
  -22.0425  -27.6873   20.2634 C   0  0  0  0  0  0  0  0  0  0  0  0
  -27.1209  -19.6285   25.0780 C   0  0  0  0  0  0  0  0  0  0  0  0
  -19.9967  -27.4236   21.3892 C   0  0  0  0  0  0  0  0  0  0  0  0
  -18.4992  -27.6955   23.7272 C   0  0  0  0  0  0  0  0  0  0  0  0
  -19.4253  -26.2998   21.9861 C   0  0  0  0  0  0  0  0  0  0  0  0
  -26.0878  -28.9208   20.3714 C   0  0  0  0  0  0  0  0  0  0  0  0
  -31.5567  -24.1259   23.3783 C   0  0  0  0  0  0  0  0  0  0  0  0
  -27.9543  -30.0329   20.7101 C   0  0  0  0  0  0  0  0  0  0  0  0
  -30.1393  -23.2846   24.8040 C   0  0  0  0  0  0  0  0  0  0  0  0
  -25.9148  -31.1782   21.5918 C   0  0  0  0  0  0  0  0  0  0  0  0
  -26.3041  -15.8312   21.2862 C   0  0  0  0  0  0  0  0  0  0  0  0
  -27.7646  -17.7924   19.1548 C   0  0  0  0  0  0  0  0  0  0  0  0
  -29.3460  -20.7569   18.5569 C   0  0  0  0  0  0  0  0  0  0  0  0
  -31.7063  -25.4418   19.8767 C   0  0  0  0  0  0  0  0  0  0  0  0
  -24.5237  -11.4196   19.4356 C   0  0  0  0  0  0  0  0  0  0  0  0
  -25.0684  -17.9958   21.6652 C   0  0  0  0  0  0  0  0  0  0  0  0
  -27.9966  -18.4019   21.5920 C   0  0  0  0  0  0  0  0  0  0  0  0
  -25.7092  -12.3319   19.1316 C   0  0  0  0  0  0  0  0  0  0  0  0
  -31.1577  -28.1851   17.6745 C   0  0  0  0  0  0  0  0  0  0  0  0
  -26.4433  -12.6996   20.4171 C   0  0  0  0  0  0  0  0  0  0  0  0
  -29.8424  -28.7917   18.1665 C   0  0  0  0  0  0  0  0  0  0  0  0
  -31.1561  -26.6626   17.7927 C   0  0  0  0  0  0  0  0  0  0  0  0
  -29.5119  -26.7525   19.6263 C   0  0  0  0  0  0  0  0  0  0  0  0
  -25.5264  -13.4694   21.3752 C   0  0  1  0  0  0  0  0  0  0  0  0
  -25.9682  -17.1881   20.7350 C   0  0  1  0  0  0  0  0  0  0  0  0
  -29.4872  -28.2899   19.5790 C   0  0  2  0  0  0  0  0  0  0  0  0
  -30.4606  -22.0606   16.7251 C   0  0  0  0  0  0  0  0  0  0  0  0
  -26.8269  -21.3314   27.9965 C   0  0  0  0  0  0  0  0  0  0  0  0
  -30.2197  -15.9937   19.3719 C   0  0  0  0  0  0  0  0  0  0  0  0
  -31.5647  -17.8192   18.3104 C   0  0  0  0  0  0  0  0  0  0  0  0
  -29.6899  -16.7601   17.0510 C   0  0  0  0  0  0  0  0  0  0  0  0
  -27.3977  -22.9724   18.7898 C   0  0  0  0  0  0  0  0  0  0  0  0
  -32.1219  -24.2813   22.0307 C   0  0  0  0  0  0  0  0  0  0  0  0
  -28.5763  -22.3933   26.5326 C   0  0  0  0  0  0  0  0  0  0  0  0
  -29.1682  -18.3177   18.9729 C   0  0  1  0  0  0  0  0  0  0  0  0
  -29.1593  -21.7961   17.4662 C   0  0  2  0  0  0  0  0  0  0  0  0
  -27.3737  -21.4537   26.5816 C   0  0  1  0  0  0  0  0  0  1  0  0
  -30.1459  -17.2275   18.4504 C   0  0  0  0  0  0  0  0  0  0  0  0
  -27.0382  -28.1507   19.8350 N   0  0  0  0  0  0  0  0  0  0  0  0
  -28.1618  -28.8539   20.0565 N   0  0  0  0  0  0  0  0  0  0  0  0
  -27.2379  -17.8604   20.4524 N   0  0  0  0  0  0  0  0  0  0  0  0
  -30.8134  -26.2525   19.1566 N   0  0  0  0  0  0  0  0  0  0  0  0
  -28.9753  -30.8625   21.0128 N   0  0  0  0  0  0  0  0  0  0  0  0
  -24.5231  -31.0936   21.7343 N   0  0  0  0  0  0  0  0  0  0  0  0
  -29.0703  -22.4874   25.1776 N   0  0  0  0  0  0  0  0  0  0  0  0
  -25.3942  -14.8467   20.9510 N   0  0  0  0  0  0  0  0  0  0  0  0
  -29.0576  -19.4861   18.1063 N   0  0  0  0  0  0  0  0  0  0  0  0
  -31.3077  -25.1042   21.1643 N   0  0  0  0  0  0  0  0  0  0  0  0
  -28.6821  -23.0810   18.0513 N   0  3  0  0  0  0  0  0  0  0  0  0
  -26.5163  -32.1889   22.0280 O   0  0  0  0  0  0  0  0  0  0  0  0
  -27.3147  -15.6878   21.9643 O   0  0  0  0  0  0  0  0  0  0  0  0
  -27.1553  -17.3449   18.1800 O   0  0  0  0  0  0  0  0  0  0  0  0
  -29.7148  -21.0433   19.6938 O   0  0  0  0  0  0  0  0  0  0  0  0
  -32.7817  -25.0524   19.4089 O   0  0  0  0  0  0  0  0  0  0  0  0
  -30.5002  -23.2792   23.4939 O   0  0  0  0  0  0  0  0  0  0  0  0
  -20.7411  -27.2902   20.2292 O   0  0  0  0  0  0  0  0  0  0  0  0
  -27.7675  -20.1498   26.1560 O   0  0  0  0  0  0  0  0  0  1  0  0
  -17.7814  -27.8261   24.8505 F   0  0  0  0  0  0  0  0  0  0  0  0
  -19.5932  -25.0869   21.4418 F   0  0  0  0  0  0  0  0  0  0  0  0
  1  2  1  0  0  0  0
  1  5  2  0  0  0  0
  2  6  2  0  0  0  0
  3  8  2  0  0  0  0
  3 17  1  0  0  0  0
  4  9  1  0  0  0  0
  4 17  2  0  0  0  0
  5 19  1  0  0  0  0
  6 21  1  0  0  0  0
  7 10  2  0  0  0  0
  7 20  1  0  0  0  0
  8 23  1  0  0  0  0
  9 23  2  0  0  0  0
 10 24  1  0  0  0  0
 11 12  2  0  0  0  0
 11 25  1  0  0  0  0
 12 26  1  0  0  0  0
 13 14  1  0  0  0  0
 13 29  2  0  0  0  0
 14 31  2  0  0  0  0
 15 22  1  0  0  0  0
 15 24  2  0  0  0  0
 16 26  2  0  0  0  0
 16 27  1  0  0  0  0
 17 28  1  0  0  0  0
 18 28  1  0  0  0  0
 18 30  2  0  0  0  0
 18 32  1  0  0  0  0
 19 21  2  0  0  0  0
 19 37  1  0  0  0  0
 20 22  2  0  0  0  0
 20 38  1  0  0  0  0
 21 46  1  0  0  0  0
 22 39  1  0  0  0  0
 23 78  1  0  0  0  0
 24 79  1  0  0  0  0
 25 27  2  0  0  0  0
 25 78  1  0  0  0  0
 26 80  1  0  0  0  0
 27 81  1  0  0  0  0
 28 61  2  0  0  0  0
 29 55  1  0  0  0  0
 29 77  1  0  0  0  0
 30 62  1  0  0  0  0
 30 65  1  0  0  0  0
 31 67  1  0  0  0  0
 31 77  1  0  0  0  0
 32 66  1  0  0  0  0
 32 72  2  0  0  0  0
 33 47  1  0  0  0  0
 33 68  1  0  0  0  0
 33 73  2  0  0  0  0
 34 57  1  0  0  0  0
 34 63  1  0  0  0  0
 34 74  2  0  0  0  0
 35 58  1  0  0  0  0
 35 69  1  0  0  0  0
 35 75  2  0  0  0  0
 36 64  1  0  0  0  0
 36 70  1  0  0  0  0
 36 76  2  0  0  0  0
 37 40  1  0  0  0  0
 38 47  1  0  0  0  0
 39 63  1  0  0  0  0
 40 42  1  0  0  0  0
 41 43  1  0  0  0  0
 41 44  1  0  0  0  0
 42 46  1  0  0  0  0
 43 48  1  0  0  0  0
 44 64  1  0  0  0  0
 45 48  1  0  0  0  0
 45 64  1  0  0  0  0
 46 68  1  0  0  0  0
 47 63  1  0  0  0  0
 48 62  1  0  0  0  0
 49 58  1  0  0  0  0
 50 59  1  0  0  0  0
 51 60  1  0  0  0  0
 52 60  1  0  0  0  0
 53 60  1  0  0  0  0
 54 71  1  0  0  0  0
 55 70  1  0  0  0  0
 56 59  1  0  0  0  0
 56 67  1  0  0  0  0
 57 60  1  0  0  0  0
 57 69  1  0  0  0  0
 58 71  1  0  0  0  0
 59 79  1  0  0  0  0
 61 62  1  0  0  0  0
M  CHG  1  71   1
M  ISO  4  36 100  59 101  70 100  79 101
M  END
> <Batch ID>
0166

> <Smiles>
CNC(C)C(=O)NC(C(=O)N1Cc2cc([101O:1][101CH:1](C)CNc3ccc(C[100NH:0][100C:0](=O)N4CCCC(n5nc(-c6ccc(Oc7ccc(F)cc7F)cc6)c(C(N)=O)c5N)C4)o3)ccc2CC1C(=O)NC1CCCc2ccccc21)C(C)(C)C

> <Shape>
0.233

> <Color>
0.061

> <Negative vol penalty>
0.000

$$$$

  -OEChem-04052304083D

 89 97  0     1  0  0  0  0  0999 V2000
  -16.7518  -30.3302   23.2977 C   0  0  0  0  0  0  0  0  0  0  0  0
  -17.9741  -30.9329   23.0181 C   0  0  0  0  0  0  0  0  0  0  0  0
  -26.1685  -13.1002   19.5045 C   0  0  0  0  0  0  0  0  0  0  0  0
  -24.4500  -13.4739   21.1610 C   0  0  0  0  0  0  0  0  0  0  0  0
  -16.6945  -28.9624   23.5617 C   0  0  0  0  0  0  0  0  0  0  0  0
  -19.1401  -30.1682   23.0033 C   0  0  0  0  0  0  0  0  0  0  0  0
  -25.4887  -29.7315   19.7138 C   0  0  0  0  0  0  0  0  0  0  0  0
  -26.1669  -11.7392   19.8099 C   0  0  0  0  0  0  0  0  0  0  0  0
  -24.4483  -12.1129   21.4664 C   0  0  0  0  0  0  0  0  0  0  0  0
  -26.8496  -29.6510   20.0055 C   0  0  0  0  0  0  0  0  0  0  0  0
  -23.1866   -9.2679   20.1493 C   0  0  0  0  0  0  0  0  0  0  0  0
  -21.9499   -8.6367   20.2824 C   0  0  0  0  0  0  0  0  0  0  0  0
  -31.4962  -22.8333   17.5266 C   0  0  0  0  0  0  0  0  0  0  0  0
  -29.5446  -24.2041   17.9130 C   0  0  0  0  0  0  0  0  0  0  0  0
  -26.6191  -27.2821   20.3984 C   0  0  0  0  0  0  0  0  0  0  0  0
  -31.7465  -25.0743   18.3942 C   0  0  0  0  0  0  0  0  0  0  0  0
  -22.4952   -8.0490   22.5615 C   0  0  0  0  0  0  0  0  0  0  0  0
  -25.3101  -13.9676   20.1801 C   0  0  0  0  0  0  0  0  0  0  0  0
  -30.1117  -23.0002   17.4951 C   0  0  0  0  0  0  0  0  0  0  0  0
  -24.5241  -16.0299   18.9007 C   0  0  0  0  0  0  0  0  0  0  0  0
  -17.8591  -28.1788   23.5407 C   0  0  0  0  0  0  0  0  0  0  0  0
  -24.6792  -28.5879   19.7729 C   0  0  0  0  0  0  0  0  0  0  0  0
  -19.0985  -28.7889   23.2686 C   0  0  0  0  0  0  0  0  0  0  0  0
  -25.2487  -27.3502   20.1044 C   0  0  0  0  0  0  0  0  0  0  0  0
  -32.3136  -23.8704   17.9762 C   0  0  0  0  0  0  0  0  0  0  0  0
  -30.3620  -25.2412   18.3626 C   0  0  0  0  0  0  0  0  0  0  0  0
  -25.3068  -11.2455   20.7908 C   0  0  0  0  0  0  0  0  0  0  0  0
  -27.4145  -28.4267   20.3507 C   0  0  0  0  0  0  0  0  0  0  0  0
  -24.0776   -9.2897   21.2223 C   0  0  0  0  0  0  0  0  0  0  0  0
  -21.6042   -8.0273   21.4885 C   0  0  0  0  0  0  0  0  0  0  0  0
  -23.7319   -8.6803   22.4284 C   0  0  0  0  0  0  0  0  0  0  0  0
  -25.3117  -15.3737   19.8656 C   0  0  0  0  0  0  0  0  0  0  0  0
  -24.8975  -17.3485   18.9918 C   0  0  0  0  0  0  0  0  0  0  0  0
  -29.2485  -21.9041   17.0217 C   0  0  0  0  0  0  0  0  0  0  0  0
  -23.5427  -15.4952   18.0025 C   0  0  0  0  0  0  0  0  0  0  0  0
  -22.1575  -27.7114   21.4981 C   0  0  0  0  0  0  0  0  0  0  0  0
  -22.1789  -25.1473   19.5113 C   0  0  0  0  0  0  0  0  0  0  0  0
  -23.9537  -23.1193   17.4175 C   0  0  0  0  0  0  0  0  0  0  0  0
  -29.1465  -21.0986   19.3738 C   0  0  0  0  0  0  0  0  0  0  0  0
  -17.7538  -26.7127   23.8788 C   0  0  0  0  0  0  0  0  0  0  0  0
  -23.2182  -28.6866   19.4293 C   0  0  0  0  0  0  0  0  0  0  0  0
  -24.4270  -26.0893   20.1623 C   0  0  0  0  0  0  0  0  0  0  0  0
  -18.9842  -25.9046   23.4748 C   0  0  0  0  0  0  0  0  0  0  0  0
  -27.6738  -19.7752   22.4189 C   0  0  0  0  0  0  0  0  0  0  0  0
  -20.2594  -26.6226   23.9051 C   0  0  0  0  0  0  0  0  0  0  0  0
  -26.9282  -18.5280   21.9566 C   0  0  0  0  0  0  0  0  0  0  0  0
  -28.9153  -20.0191   21.5708 C   0  0  0  0  0  0  0  0  0  0  0  0
  -27.8496  -18.9117   19.6181 C   0  0  0  0  0  0  0  0  0  0  0  0
  -20.3818  -27.9884   23.2189 C   0  0  1  0  0  0  0  0  0  0  0  0
  -22.3871  -27.5527   20.0217 C   0  0  1  0  0  0  0  0  0  0  0  0
  -26.5920  -18.6281   20.4620 C   0  0  1  0  0  0  0  0  0  0  0  0
  -27.9680  -21.0518   13.6265 C   0  0  0  0  0  0  0  0  0  0  0  0
  -23.7082  -21.0844   15.9696 C   0  0  0  0  0  0  0  0  0  0  0  0
  -30.4489  -29.9258   20.1092 C   0  0  0  0  0  0  0  0  0  0  0  0
  -22.2010  -23.3787   21.9975 C   0  0  0  0  0  0  0  0  0  0  0  0
  -22.9062  -21.4653   20.5449 C   0  0  0  0  0  0  0  0  0  0  0  0
  -20.7063  -22.5765   20.1599 C   0  0  0  0  0  0  0  0  0  0  0  0
  -24.6815  -24.6258   14.9763 C   0  0  0  0  0  0  0  0  0  0  0  0
  -30.5677  -27.5614   19.2570 C   0  0  0  0  0  0  0  0  0  0  0  0
  -28.0916  -20.7811   15.1106 C   0  0  0  0  0  0  0  0  0  0  0  0
  -22.8339  -23.7873   19.5280 C   0  0  1  0  0  0  0  0  0  0  0  0
  -23.6542  -22.6033   16.0216 C   0  0  2  0  0  0  0  0  0  0  0  0
  -29.6513  -28.7327   19.6031 C   0  0  1  0  0  0  0  0  0  1  0  0
  -33.7941  -23.6922   18.0084 C   0  0  0  0  0  0  0  0  0  0  0  0
  -22.1772  -22.8259   20.5585 C   0  0  0  0  0  0  0  0  0  0  0  0
  -26.1242  -16.2068   20.5212 N   0  0  0  0  0  0  0  0  0  0  0  0
  -25.8492  -17.3999   19.9673 N   0  0  0  0  0  0  0  0  0  0  0  0
  -23.0019  -26.2384   19.8241 N   0  0  0  0  0  0  0  0  0  0  0  0
  -28.6102  -20.0584   20.1384 N   0  0  0  0  0  0  0  0  0  0  0  0
  -24.5013  -18.4574   18.3316 N   0  0  0  0  0  0  0  0  0  0  0  0
  -23.2814  -14.1188   18.0409 N   0  0  0  0  0  0  0  0  0  0  0  0
  -29.7888  -26.4587   18.7851 N   0  0  0  0  0  0  0  0  0  0  0  0
  -28.8295  -21.0431   17.9634 N   0  0  0  0  0  0  0  0  0  0  0  0
  -20.8266  -27.8287   21.8510 N   0  0  0  0  0  0  0  0  0  0  0  0
  -22.8015  -23.3017   18.1527 N   0  0  0  0  0  0  0  0  0  0  0  0
  -28.9363  -21.8134   15.7225 N   0  3  0  0  0  0  0  0  0  0  0  0
  -24.6440  -23.1424   15.0466 N   0  3  0  0  0  0  0  0  0  0  0  0
  -22.9280  -16.2142   17.1787 O   0  0  0  0  0  0  0  0  0  0  0  0
  -23.1166  -27.7249   22.2607 O   0  0  0  0  0  0  0  0  0  0  0  0
  -20.9827  -25.2389   19.2240 O   0  0  0  0  0  0  0  0  0  0  0  0
  -25.0957  -23.3351   17.8171 O   0  0  0  0  0  0  0  0  0  0  0  0
  -29.8627  -21.9994   19.7975 O   0  0  0  0  0  0  0  0  0  0  0  0
  -25.3047   -9.9175   21.0888 O   0  0  0  0  0  0  0  0  0  0  0  0
  -28.7499  -28.3450   20.6382 O   0  0  0  0  0  0  0  0  0  1  0  0
  -20.4159   -7.4224   21.6167 F   0  0  0  0  0  0  0  0  0  0  0  0
  -24.5832   -8.6989   23.4631 F   0  0  0  0  0  0  0  0  0  0  0  0
  -34.2075  -22.4663   17.5701 F   0  0  0  0  0  0  0  0  0  0  0  0
  -34.4700  -24.5932   17.2358 F   0  0  0  0  0  0  0  0  0  0  0  0
  -34.3118  -23.8256   19.2642 F   0  0  0  0  0  0  0  0  0  0  0  0
  1  2  1  0  0  0  0
  1  5  2  0  0  0  0
  2  6  2  0  0  0  0
  3  8  2  0  0  0  0
  3 18  1  0  0  0  0
  4  9  1  0  0  0  0
  4 18  2  0  0  0  0
  5 21  1  0  0  0  0
  6 23  1  0  0  0  0
  7 10  2  0  0  0  0
  7 22  1  0  0  0  0
  8 27  1  0  0  0  0
  9 27  2  0  0  0  0
 10 28  1  0  0  0  0
 11 12  2  0  0  0  0
 11 29  1  0  0  0  0
 12 30  1  0  0  0  0
 13 19  2  0  0  0  0
 13 25  1  0  0  0  0
 14 19  1  0  0  0  0
 14 26  2  0  0  0  0
 15 24  1  0  0  0  0
 15 28  2  0  0  0  0
 16 25  2  0  0  0  0
 16 26  1  0  0  0  0
 17 30  2  0  0  0  0
 17 31  1  0  0  0  0
 18 32  1  0  0  0  0
 19 34  1  0  0  0  0
 20 32  1  0  0  0  0
 20 33  2  0  0  0  0
 20 35  1  0  0  0  0
 21 23  2  0  0  0  0
 21 40  1  0  0  0  0
 22 24  2  0  0  0  0
 22 41  1  0  0  0  0
 23 49  1  0  0  0  0
 24 42  1  0  0  0  0
 25 64  1  0  0  0  0
 26 72  1  0  0  0  0
 27 83  1  0  0  0  0
 28 84  1  0  0  0  0
 29 31  2  0  0  0  0
 29 83  1  0  0  0  0
 30 85  1  0  0  0  0
 31 86  1  0  0  0  0
 32 66  2  0  0  0  0
 33 67  1  0  0  0  0
 33 70  1  0  0  0  0
 34 73  1  0  0  0  0
 34 76  2  0  0  0  0
 35 71  1  0  0  0  0
 35 78  2  0  0  0  0
 36 50  1  0  0  0  0
 36 74  1  0  0  0  0
 36 79  2  0  0  0  0
 37 61  1  0  0  0  0
 37 68  1  0  0  0  0
 37 80  2  0  0  0  0
 38 62  1  0  0  0  0
 38 75  1  0  0  0  0
 38 81  2  0  0  0  0
 39 69  1  0  0  0  0
 39 73  1  0  0  0  0
 39 82  2  0  0  0  0
 40 43  1  0  0  0  0
 41 50  1  0  0  0  0
 42 68  1  0  0  0  0
 43 45  1  0  0  0  0
 44 46  1  0  0  0  0
 44 47  1  0  0  0  0
 45 49  1  0  0  0  0
 46 51  1  0  0  0  0
 47 69  1  0  0  0  0
 48 51  1  0  0  0  0
 48 69  1  0  0  0  0
 49 74  1  0  0  0  0
 50 68  1  0  0  0  0
 51 67  1  0  0  0  0
 52 60  1  0  0  0  0
 53 62  1  0  0  0  0
 54 63  1  0  0  0  0
 55 65  1  0  0  0  0
 56 65  1  0  0  0  0
 57 65  1  0  0  0  0
 58 77  1  0  0  0  0
 59 63  1  0  0  0  0
 59 72  1  0  0  0  0
 60 76  1  0  0  0  0
 61 65  1  0  0  0  0
 61 75  1  0  0  0  0
 62 77  1  0  0  0  0
 63 84  1  0  0  0  0
 64 87  1  0  0  0  0
 64 88  1  0  0  0  0
 64 89  1  0  0  0  0
 66 67  1  0  0  0  0
M  CHG  2  76   1  77   1
M  ISO  4  39 100  63 101  73 100  84 101
M  END
> <Batch ID>
0166

> <Smiles>
CCN=C([100NH:0][100C:0](=O)N1CCCC(n2nc(-c3ccc(Oc4ccc(F)cc4F)cc3)c(C(N)=O)c2N)C1)c1cc(NC[101CH:1](C)[101O:1]c2ccc3c(c2)CN(C(=O)C(NC(=O)C(C)NC)C(C)(C)C)C(C(=O)NC2CCCc4ccccc42)C3)cc(C(F)(F)F)c1

> <Shape>
0.260

> <Color>
0.085

> <Negative vol penalty>
0.000

$$$$

  -OEChem-04052304083D

 86 94  0     1  0  0  0  0  0999 V2000
  -27.9174  -22.5541   18.5351 C   0  0  0  0  0  0  0  0  0  0  0  0
  -26.7530  -22.9216   19.2018 C   0  0  0  0  0  0  0  0  0  0  0  0
  -24.1555  -22.6303   25.7158 C   0  0  0  0  0  0  0  0  0  0  0  0
  -25.3639  -13.1161   19.1810 C   0  0  0  0  0  0  0  0  0  0  0  0
  -23.4271  -14.5585   19.2543 C   0  0  0  0  0  0  0  0  0  0  0  0
  -22.9120  -22.8963   25.1428 C   0  0  0  0  0  0  0  0  0  0  0  0
  -29.1300  -23.1557   18.8690 C   0  0  0  0  0  0  0  0  0  0  0  0
  -26.8008  -23.8902   20.2038 C   0  0  0  0  0  0  0  0  0  0  0  0
  -23.0480  -27.2687   19.8203 C   0  0  0  0  0  0  0  0  0  0  0  0
  -25.1077  -21.8977   25.0070 C   0  0  0  0  0  0  0  0  0  0  0  0
  -24.5352  -11.9984   19.2787 C   0  0  0  0  0  0  0  0  0  0  0  0
  -22.5984  -13.4408   19.3520 C   0  0  0  0  0  0  0  0  0  0  0  0
  -21.7886  -26.8753   20.2707 C   0  0  0  0  0  0  0  0  0  0  0  0
  -22.8458  -10.3548   21.7013 C   0  0  0  0  0  0  0  0  0  0  0  0
  -23.2189   -9.3483   22.5920 C   0  0  0  0  0  0  0  0  0  0  0  0
  -23.5727  -21.6972   23.1522 C   0  0  0  0  0  0  0  0  0  0  0  0
  -22.1585  -28.0725   22.3321 C   0  0  0  0  0  0  0  0  0  0  0  0
  -23.3266   -7.7714   20.7647 C   0  0  0  0  0  0  0  0  0  0  0  0
  -24.8099  -14.3962   19.1689 C   0  0  0  0  0  0  0  0  0  0  0  0
  -22.6206  -22.4298   23.8610 C   0  0  0  0  0  0  0  0  0  0  0  0
  -26.0964  -16.1901   17.8905 C   0  0  0  0  0  0  0  0  0  0  0  0
  -29.1910  -24.1391   19.8689 C   0  0  0  0  0  0  0  0  0  0  0  0
  -23.8779  -28.0593   20.6282 C   0  0  0  0  0  0  0  0  0  0  0  0
  -28.0156  -24.5046   20.5524 C   0  0  0  0  0  0  0  0  0  0  0  0
  -23.4270  -28.4767   21.8886 C   0  0  0  0  0  0  0  0  0  0  0  0
  -24.8163  -21.4311   23.7252 C   0  0  0  0  0  0  0  0  0  0  0  0
  -23.1524  -12.1607   19.3641 C   0  0  0  0  0  0  0  0  0  0  0  0
  -21.3448  -27.2748   21.5280 C   0  0  0  0  0  0  0  0  0  0  0  0
  -22.7131  -10.0697   20.3423 C   0  0  0  0  0  0  0  0  0  0  0  0
  -23.4593   -8.0565   22.1237 C   0  0  0  0  0  0  0  0  0  0  0  0
  -22.9536   -8.7779   19.8740 C   0  0  0  0  0  0  0  0  0  0  0  0
  -25.6654  -15.5512   19.0685 C   0  0  0  0  0  0  0  0  0  0  0  0
  -26.8836  -17.2262   18.3301 C   0  0  0  0  0  0  0  0  0  0  0  0
  -21.3039  -22.7116   23.2530 C   0  0  0  0  0  0  0  0  0  0  0  0
  -25.8106  -15.8753   16.5212 C   0  0  0  0  0  0  0  0  0  0  0  0
  -26.7412  -27.6767   21.9546 C   0  0  0  0  0  0  0  0  0  0  0  0
  -26.3404  -30.7864   22.7862 C   0  0  0  0  0  0  0  0  0  0  0  0
  -24.1939  -33.3661   23.4064 C   0  0  0  0  0  0  0  0  0  0  0  0
  -19.3813  -24.2882   23.1394 C   0  0  0  0  0  0  0  0  0  0  0  0
  -27.0656  -20.3359   23.4293 C   0  0  0  0  0  0  0  0  0  0  0  0
  -30.5327  -24.7272   20.2277 C   0  0  0  0  0  0  0  0  0  0  0  0
  -25.2229  -28.4974   20.1169 C   0  0  0  0  0  0  0  0  0  0  0  0
  -24.2714  -29.3426   22.7862 C   0  0  0  0  0  0  0  0  0  0  0  0
  -30.4353  -26.0144   21.0426 C   0  0  0  0  0  0  0  0  0  0  0  0
  -29.7319  -18.4821   21.9694 C   0  0  0  0  0  0  0  0  0  0  0  0
  -29.4265  -25.8539   22.1754 C   0  0  0  0  0  0  0  0  0  0  0  0
  -29.0316  -17.5826   20.9483 C   0  0  0  0  0  0  0  0  0  0  0  0
  -28.8939  -18.6644   23.2336 C   0  0  0  0  0  0  0  0  0  0  0  0
  -26.8170  -18.2226   21.9843 C   0  0  0  0  0  0  0  0  0  0  0  0
  -28.0227  -25.5692   21.6279 C   0  0  1  0  0  0  0  0  0  0  0  0
  -26.1924  -28.8748   21.2327 C   0  0  1  0  0  0  0  0  0  0  0  0
  -27.5939  -18.0620   20.6674 C   0  0  2  0  0  0  0  0  0  0  0  0
  -24.1603  -35.7768   24.1025 C   0  0  0  0  0  0  0  0  0  0  0  0
  -18.8219  -25.5138   25.2424 C   0  0  0  0  0  0  0  0  0  0  0  0
  -17.5314  -25.9663   23.1486 C   0  0  0  0  0  0  0  0  0  0  0  0
  -26.9157  -29.9603   25.6665 C   0  0  0  0  0  0  0  0  0  0  0  0
  -25.9515  -32.1470   26.4128 C   0  0  0  0  0  0  0  0  0  0  0  0
  -27.9827  -32.1106   24.9651 C   0  0  0  0  0  0  0  0  0  0  0  0
  -22.9041  -34.1989   20.8763 C   0  0  0  0  0  0  0  0  0  0  0  0
  -19.9543  -26.7303   23.3789 C   0  0  0  0  0  0  0  0  0  1  0  0
  -25.7389  -31.5081   23.9679 C   0  0  1  0  0  0  0  0  0  0  0  0
  -24.1874  -34.8077   22.9308 C   0  0  2  0  0  0  0  0  0  0  0  0
  -18.9214  -25.6350   23.7105 C   0  0  0  0  0  0  0  0  0  0  0  0
  -26.6318  -31.4136   25.2372 C   0  0  0  0  0  0  0  0  0  0  0  0
  -26.1397  -16.1326   20.1735 N   0  0  0  0  0  0  0  0  0  0  0  0
  -26.8769  -17.1477   19.6917 N   0  0  0  0  0  0  0  0  0  0  0  0
  -25.5813  -29.7397   22.2440 N   0  0  0  0  0  0  0  0  0  0  0  0
  -27.5464  -19.1240   22.8901 N   0  0  0  0  0  0  0  0  0  0  0  0
  -27.5741  -18.1875   17.6809 N   0  0  0  0  0  0  0  0  0  0  0  0
  -24.9836  -14.7776   16.2466 N   0  0  0  0  0  0  0  0  0  0  0  0
  -25.7841  -20.6871   23.0059 N   0  0  0  0  0  0  0  0  0  0  0  0
  -20.6761  -23.8413   23.6068 N   0  0  0  0  0  0  0  0  0  0  0  0
  -27.4143  -26.7877   21.1385 N   0  0  0  0  0  0  0  0  0  0  0  0
  -25.4760  -32.8722   23.5225 N   0  0  0  0  0  0  0  0  0  0  0  0
  -20.8188  -21.8251   22.3843 N   0  3  0  0  0  0  0  0  0  0  0  0
  -22.9925  -35.0667   22.0788 N   0  3  0  0  0  0  0  0  0  0  0  0
  -26.2881  -16.5375   15.5689 O   0  0  0  0  0  0  0  0  0  0  0  0
  -26.5680  -27.5677   23.1628 O   0  0  0  0  0  0  0  0  0  0  0  0
  -27.4399  -31.1430   22.3555 O   0  0  0  0  0  0  0  0  0  0  0  0
  -23.1646  -32.7417   23.6541 O   0  0  0  0  0  0  0  0  0  0  0  0
  -18.7414  -23.6164   22.3409 O   0  0  0  0  0  0  0  0  0  0  0  0
  -27.7514  -21.0261   24.1877 O   0  0  0  0  0  0  0  0  0  0  0  0
  -22.3435  -11.0702   19.4592 O   0  0  0  0  0  0  0  0  0  0  0  0
  -20.1162  -26.8916   21.9703 O   0  0  0  0  0  0  0  0  0  1  0  0
  -23.8190   -7.0904   22.9788 F   0  0  0  0  0  0  0  0  0  0  0  0
  -22.8288   -8.4982   18.5694 F   0  0  0  0  0  0  0  0  0  0  0  0
  1  2  1  0  0  0  0
  1  7  2  0  0  0  0
  2  8  2  0  0  0  0
  3  6  2  0  0  0  0
  3 10  1  0  0  0  0
  4 11  2  0  0  0  0
  4 19  1  0  0  0  0
  5 12  1  0  0  0  0
  5 19  2  0  0  0  0
  6 20  1  0  0  0  0
  7 22  1  0  0  0  0
  8 24  1  0  0  0  0
  9 13  2  0  0  0  0
  9 23  1  0  0  0  0
 10 26  2  0  0  0  0
 11 27  1  0  0  0  0
 12 27  2  0  0  0  0
 13 28  1  0  0  0  0
 14 15  2  0  0  0  0
 14 29  1  0  0  0  0
 15 30  1  0  0  0  0
 16 20  2  0  0  0  0
 16 26  1  0  0  0  0
 17 25  1  0  0  0  0
 17 28  2  0  0  0  0
 18 30  2  0  0  0  0
 18 31  1  0  0  0  0
 19 32  1  0  0  0  0
 20 34  1  0  0  0  0
 21 32  1  0  0  0  0
 21 33  2  0  0  0  0
 21 35  1  0  0  0  0
 22 24  2  0  0  0  0
 22 41  1  0  0  0  0
 23 25  2  0  0  0  0
 23 42  1  0  0  0  0
 24 50  1  0  0  0  0
 25 43  1  0  0  0  0
 26 71  1  0  0  0  0
 27 83  1  0  0  0  0
 28 84  1  0  0  0  0
 29 31  2  0  0  0  0
 29 83  1  0  0  0  0
 30 85  1  0  0  0  0
 31 86  1  0  0  0  0
 32 65  2  0  0  0  0
 33 66  1  0  0  0  0
 33 69  1  0  0  0  0
 34 72  1  0  0  0  0
 34 75  2  0  0  0  0
 35 70  1  0  0  0  0
 35 77  2  0  0  0  0
 36 51  1  0  0  0  0
 36 73  1  0  0  0  0
 36 78  2  0  0  0  0
 37 61  1  0  0  0  0
 37 67  1  0  0  0  0
 37 79  2  0  0  0  0
 38 62  1  0  0  0  0
 38 74  1  0  0  0  0
 38 80  2  0  0  0  0
 39 63  1  0  0  0  0
 39 72  1  0  0  0  0
 39 81  2  0  0  0  0
 40 68  1  0  0  0  0
 40 71  1  0  0  0  0
 40 82  2  0  0  0  0
 41 44  1  0  0  0  0
 42 51  1  0  0  0  0
 43 67  1  0  0  0  0
 44 46  1  0  0  0  0
 45 47  1  0  0  0  0
 45 48  1  0  0  0  0
 46 50  1  0  0  0  0
 47 52  1  0  0  0  0
 48 68  1  0  0  0  0
 49 52  1  0  0  0  0
 49 68  1  0  0  0  0
 50 73  1  0  0  0  0
 51 67  1  0  0  0  0
 52 66  1  0  0  0  0
 53 62  1  0  0  0  0
 54 63  1  0  0  0  0
 55 63  1  0  0  0  0
 56 64  1  0  0  0  0
 57 64  1  0  0  0  0
 58 64  1  0  0  0  0
 59 76  1  0  0  0  0
 60 63  1  0  0  0  0
 60 84  1  0  0  0  0
 61 64  1  0  0  0  0
 61 74  1  0  0  0  0
 62 76  1  0  0  0  0
 65 66  1  0  0  0  0
M  CHG  2  75   1  76   1
M  ISO  4  40 100  60 101  71 100  84 101
M  END
> <Batch ID>
0166

> <Smiles>
CNC(C)C(=O)NC(C(=O)N1Cc2cc([101O:1][101CH2:1]C(C)(C)C(=O)NC(=N)c3cccc([100NH:0][100C:0](=O)N4CCCC(n5nc(-c6ccc(Oc7ccc(F)cc7F)cc6)c(C(N)=O)c5N)C4)c3)ccc2CC1C(=O)NC1CCCc2ccccc21)C(C)(C)C

> <Shape>
0.232

> <Color>
0.056

> <Negative vol penalty>
0.000

$$$$

  -OEChem-04052304083D

 84 93  0     1  0  0  0  0  0999 V2000
  -27.2705  -37.8329   20.2717 C   0  0  0  0  0  0  0  0  0  0  0  0
  -27.7763  -36.5774   19.9502 C   0  0  0  0  0  0  0  0  0  0  0  0
  -29.3628  -19.4853   16.6418 C   0  0  0  0  0  0  0  0  0  0  0  0
  -20.9946  -11.7171   19.3554 C   0  0  0  0  0  0  0  0  0  0  0  0
  -19.5960  -13.5635   20.0421 C   0  0  0  0  0  0  0  0  0  0  0  0
  -26.4238  -37.9819   21.3693 C   0  0  0  0  0  0  0  0  0  0  0  0
  -27.4364  -35.4703   20.7269 C   0  0  0  0  0  0  0  0  0  0  0  0
  -29.9831  -20.6976   16.9432 C   0  0  0  0  0  0  0  0  0  0  0  0
  -26.6024  -29.7239   18.7803 C   0  0  0  0  0  0  0  0  0  0  0  0
  -28.3415  -19.0019   17.4599 C   0  0  0  0  0  0  0  0  0  0  0  0
  -19.9498  -11.2138   18.5804 C   0  0  0  0  0  0  0  0  0  0  0  0
  -18.5511  -13.0603   19.2670 C   0  0  0  0  0  0  0  0  0  0  0  0
  -27.4326  -28.6038   18.7803 C   0  0  0  0  0  0  0  0  0  0  0  0
  -18.5466  -11.8561   15.5718 C   0  0  0  0  0  0  0  0  0  0  0  0
  -18.8475  -11.4235   14.2803 C   0  0  0  0  0  0  0  0  0  0  0  0
  -28.5611  -20.9434   18.8810 C   0  0  0  0  0  0  0  0  0  0  0  0
  -26.4194  -27.8603   20.8393 C   0  0  0  0  0  0  0  0  0  0  0  0
  -18.0695   -9.2062   14.8417 C   0  0  0  0  0  0  0  0  0  0  0  0
  -20.8177  -12.8919   20.0863 C   0  0  0  0  0  0  0  0  0  0  0  0
  -22.5445  -12.7705   21.9601 C   0  0  0  0  0  0  0  0  0  0  0  0
  -29.5823  -21.4267   18.0629 C   0  0  0  0  0  0  0  0  0  0  0  0
  -26.0657  -36.8744   22.1541 C   0  0  0  0  0  0  0  0  0  0  0  0
  -25.6806  -29.9265   19.8174 C   0  0  0  0  0  0  0  0  0  0  0  0
  -26.5852  -35.6048   21.8368 C   0  0  0  0  0  0  0  0  0  0  0  0
  -25.5769  -28.9824   20.8489 C   0  0  0  0  0  0  0  0  0  0  0  0
  -27.9408  -19.7310   18.5795 C   0  0  0  0  0  0  0  0  0  0  0  0
  -18.7280  -11.8854   18.5362 C   0  0  0  0  0  0  0  0  0  0  0  0
  -27.3431  -27.6732   19.8114 C   0  0  0  0  0  0  0  0  0  0  0  0
  -18.0072  -10.9636   16.4983 C   0  0  0  0  0  0  0  0  0  0  0  0
  -18.6089  -10.0986   13.9152 C   0  0  0  0  0  0  0  0  0  0  0  0
  -17.7686   -9.6387   16.1332 C   0  0  0  0  0  0  0  0  0  0  0  0
  -21.8965  -13.4119   20.8875 C   0  0  0  0  0  0  0  0  0  0  0  0
  -23.4880  -13.6753   22.3817 C   0  0  0  0  0  0  0  0  0  0  0  0
  -29.8517  -25.1769   18.9504 C   0  0  0  0  0  0  0  0  0  0  0  0
  -22.3142  -11.4729   22.5248 C   0  0  0  0  0  0  0  0  0  0  0  0
  -25.2556  -32.1631   22.0357 C   0  0  0  0  0  0  0  0  0  0  0  0
  -22.5602  -30.4726   22.6674 C   0  0  0  0  0  0  0  0  0  0  0  0
  -20.9073  -27.4909   22.5125 C   0  0  0  0  0  0  0  0  0  0  0  0
  -26.1761  -18.0556   19.2604 C   0  0  0  0  0  0  0  0  0  0  0  0
  -25.1852  -37.0928   23.3590 C   0  0  0  0  0  0  0  0  0  0  0  0
  -24.7737  -31.1262   19.7888 C   0  0  0  0  0  0  0  0  0  0  0  0
  -24.5896  -29.1433   21.9749 C   0  0  0  0  0  0  0  0  0  0  0  0
  -29.2742  -23.9112   18.3522 C   0  0  0  0  0  0  0  0  0  0  0  0
  -24.5742  -35.8061   23.9081 C   0  0  0  0  0  0  0  0  0  0  0  0
  -23.6406  -18.5038   22.1055 C   0  0  0  0  0  0  0  0  0  0  0  0
  -25.6350  -34.7153   24.0167 C   0  0  0  0  0  0  0  0  0  0  0  0
  -23.5621  -17.0629   22.6044 C   0  0  0  0  0  0  0  0  0  0  0  0
  -30.9551  -22.7441   19.7496 C   0  0  0  0  0  0  0  0  0  0  0  0
  -31.7256  -24.0454   19.9109 C   0  0  0  0  0  0  0  0  0  0  0  0
  -24.9425  -18.7894   21.3676 C   0  0  0  0  0  0  0  0  0  0  0  0
  -24.3578  -16.6500   20.2114 C   0  0  0  0  0  0  0  0  0  0  0  0
  -30.2568  -22.7442   18.3900 C   0  0  1  0  0  0  0  0  0  0  0  0
  -26.2199  -34.3756   22.6404 C   0  0  1  0  0  0  0  0  0  0  0  0
  -24.2287  -31.4962   21.1648 C   0  0  1  0  0  0  0  0  0  0  0  0
  -24.1589  -16.0468   21.6106 C   0  0  2  0  0  0  0  0  0  0  0  0
  -18.7331  -26.4086   23.1443 C   0  0  0  0  0  0  0  0  0  0  0  0
  -23.4713  -30.3462   25.5767 C   0  0  0  0  0  0  0  0  0  0  0  0
  -21.8162  -28.5035   25.9421 C   0  0  0  0  0  0  0  0  0  0  0  0
  -21.0263  -30.7712   25.2667 C   0  0  0  0  0  0  0  0  0  0  0  0
  -20.2619  -26.8725   19.6912 C   0  0  0  0  0  0  0  0  0  0  0  0
  -29.0705  -26.4480   18.7294 C   0  0  0  0  0  0  0  0  0  1  0  0
  -22.2111  -29.3159   23.5725 C   0  0  1  0  0  0  0  0  0  0  0  0
  -19.5027  -27.1403   22.0557 C   0  0  2  0  0  0  0  0  0  0  0  0
  -22.1513  -29.7319   25.0694 C   0  0  0  0  0  0  0  0  0  0  0  0
  -22.3867  -14.6301   20.6430 N   0  0  0  0  0  0  0  0  0  0  0  0
  -30.9193  -25.2394   19.6664 N   0  0  0  0  0  0  0  0  0  0  0  0
  -23.3528  -14.7614   21.5680 N   0  0  0  0  0  0  0  0  0  0  0  0
  -23.7293  -30.3360   21.9056 N   0  0  0  0  0  0  0  0  0  0  0  0
  -25.1994  -17.8509   20.2656 N   0  0  0  0  0  0  0  0  0  0  0  0
  -24.4117  -13.6398   23.3655 N   0  0  0  0  0  0  0  0  0  0  0  0
  -21.3903  -11.3544   23.5720 N   0  0  0  0  0  0  0  0  0  0  0  0
  -26.9026  -19.2399   19.4101 N   0  0  0  0  0  0  0  0  0  0  0  0
  -25.3054  -33.5369   21.8956 N   0  0  0  0  0  0  0  0  0  0  0  0
  -20.9662  -28.7560   23.0577 N   0  0  0  0  0  0  0  0  0  0  0  0
  -19.5533  -26.2678   20.8485 N   0  3  0  0  0  0  0  0  0  0  0  0
  -22.9222  -10.4516   22.1240 O   0  0  0  0  0  0  0  0  0  0  0  0
  -25.9503  -31.4819   22.7807 O   0  0  0  0  0  0  0  0  0  0  0  0
  -21.8189  -31.4579   22.6321 O   0  0  0  0  0  0  0  0  0  0  0  0
  -21.8565  -26.7181   22.4006 O   0  0  0  0  0  0  0  0  0  0  0  0
  -26.3550  -17.2384   18.3549 O   0  0  0  0  0  0  0  0  0  0  0  0
  -17.7083  -11.3948   17.7799 O   0  0  0  0  0  0  0  0  0  0  0  0
  -28.1527  -26.5794   19.8141 O   0  0  0  0  0  0  0  0  0  1  0  0
  -18.8965   -9.6838   12.6745 F   0  0  0  0  0  0  0  0  0  0  0  0
  -17.2495   -8.7771   17.0185 F   0  0  0  0  0  0  0  0  0  0  0  0
  1  2  1  0  0  0  0
  1  6  2  0  0  0  0
  2  7  2  0  0  0  0
  3  8  2  0  0  0  0
  3 10  1  0  0  0  0
  4 11  2  0  0  0  0
  4 19  1  0  0  0  0
  5 12  1  0  0  0  0
  5 19  2  0  0  0  0
  6 22  1  0  0  0  0
  7 24  1  0  0  0  0
  8 21  1  0  0  0  0
  9 13  2  0  0  0  0
  9 23  1  0  0  0  0
 10 26  2  0  0  0  0
 11 27  1  0  0  0  0
 12 27  2  0  0  0  0
 13 28  1  0  0  0  0
 14 15  2  0  0  0  0
 14 29  1  0  0  0  0
 15 30  1  0  0  0  0
 16 21  2  0  0  0  0
 16 26  1  0  0  0  0
 17 25  1  0  0  0  0
 17 28  2  0  0  0  0
 18 30  2  0  0  0  0
 18 31  1  0  0  0  0
 19 32  1  0  0  0  0
 20 32  1  0  0  0  0
 20 33  2  0  0  0  0
 20 35  1  0  0  0  0
 21 52  1  0  0  0  0
 22 24  2  0  0  0  0
 22 40  1  0  0  0  0
 23 25  2  0  0  0  0
 23 41  1  0  0  0  0
 24 53  1  0  0  0  0
 25 42  1  0  0  0  0
 26 72  1  0  0  0  0
 27 81  1  0  0  0  0
 28 82  1  0  0  0  0
 29 31  2  0  0  0  0
 29 81  1  0  0  0  0
 30 83  1  0  0  0  0
 31 84  1  0  0  0  0
 32 65  2  0  0  0  0
 33 67  1  0  0  0  0
 33 70  1  0  0  0  0
 34 43  1  0  0  0  0
 34 61  1  0  0  0  0
 34 66  2  0  0  0  0
 35 71  1  0  0  0  0
 35 76  2  0  0  0  0
 36 54  1  0  0  0  0
 36 73  1  0  0  0  0
 36 77  2  0  0  0  0
 37 62  1  0  0  0  0
 37 68  1  0  0  0  0
 37 78  2  0  0  0  0
 38 63  1  0  0  0  0
 38 74  1  0  0  0  0
 38 79  2  0  0  0  0
 39 69  1  0  0  0  0
 39 72  1  0  0  0  0
 39 80  2  0  0  0  0
 40 44  1  0  0  0  0
 41 54  1  0  0  0  0
 42 68  1  0  0  0  0
 43 52  1  0  0  0  0
 44 46  1  0  0  0  0
 45 47  1  0  0  0  0
 45 50  1  0  0  0  0
 46 53  1  0  0  0  0
 47 55  1  0  0  0  0
 48 49  1  0  0  0  0
 48 52  1  0  0  0  0
 49 66  1  0  0  0  0
 50 69  1  0  0  0  0
 51 55  1  0  0  0  0
 51 69  1  0  0  0  0
 53 73  1  0  0  0  0
 54 68  1  0  0  0  0
 55 67  1  0  0  0  0
 56 63  1  0  0  0  0
 57 64  1  0  0  0  0
 58 64  1  0  0  0  0
 59 64  1  0  0  0  0
 60 75  1  0  0  0  0
 61 82  1  0  0  0  0
 62 64  1  0  0  0  0
 62 74  1  0  0  0  0
 63 75  1  0  0  0  0
 65 67  1  0  0  0  0
M  CHG  1  75   1
M  ISO  4  39 100  61 101  72 100  82 101
M  END
> <Batch ID>
0166

> <Smiles>
CNC(C)C(=O)NC(C(=O)N1Cc2cc([101O:1][101CH2:1]C3=NCCC(c4cccc([100NH:0][100C:0](=O)N5CCCC(n6nc(-c7ccc(Oc8ccc(F)cc8F)cc7)c(C(N)=O)c6N)C5)c4)C3)ccc2CC1C(=O)NC1CCCc2ccccc21)C(C)(C)C

> <Shape>
0.232

> <Color>
0.092

> <Negative vol penalty>
0.000

$$$$

  -OEChem-04052304083D

 88 97  0     1  0  0  0  0  0999 V2000
  -27.7305  -31.6553   19.3690 C   0  0  0  0  0  0  0  0  0  0  0  0
  -28.2196  -30.6579   20.2066 C   0  0  0  0  0  0  0  0  0  0  0  0
  -24.6813  -10.9246   19.1707 C   0  0  0  0  0  0  0  0  0  0  0  0
  -31.1685  -20.8277   20.1276 C   0  0  0  0  0  0  0  0  0  0  0  0
  -28.9157  -20.0201   19.7964 C   0  0  0  0  0  0  0  0  0  0  0  0
  -23.6395  -11.5714   19.8354 C   0  0  0  0  0  0  0  0  0  0  0  0
  -26.3724  -31.9704   19.3812 C   0  0  0  0  0  0  0  0  0  0  0  0
  -27.3508  -29.9757   21.0577 C   0  0  0  0  0  0  0  0  0  0  0  0
  -25.9778  -22.3130   21.7087 C   0  0  0  0  0  0  0  0  0  0  0  0
  -25.9962  -11.3548   19.3494 C   0  0  0  0  0  0  0  0  0  0  0  0
  -30.8391  -22.0149   19.4737 C   0  0  0  0  0  0  0  0  0  0  0  0
  -28.5862  -21.2074   19.1426 C   0  0  0  0  0  0  0  0  0  0  0  0
  -25.5342  -20.9941   21.8078 C   0  0  0  0  0  0  0  0  0  0  0  0
  -29.2201  -24.8928   20.2013 C   0  0  0  0  0  0  0  0  0  0  0  0
  -29.6407  -26.0900   20.7803 C   0  0  0  0  0  0  0  0  0  0  0  0
  -25.2273  -13.0787   20.8573 C   0  0  0  0  0  0  0  0  0  0  0  0
  -23.3858  -21.7654   22.6063 C   0  0  0  0  0  0  0  0  0  0  0  0
  -30.9117  -26.6055   18.7913 C   0  0  0  0  0  0  0  0  0  0  0  0
  -30.2068  -19.8302   20.2888 C   0  0  0  0  0  0  0  0  0  0  0  0
  -23.9125  -12.6485   20.6787 C   0  0  0  0  0  0  0  0  0  0  0  0
  -31.0051  -18.4598   22.2869 C   0  0  0  0  0  0  0  0  0  0  0  0
  -25.4850  -31.2851   20.2259 C   0  0  0  0  0  0  0  0  0  0  0  0
  -25.1209  -23.3650   22.0437 C   0  0  0  0  0  0  0  0  0  0  0  0
  -25.9798  -30.2828   21.0822 C   0  0  0  0  0  0  0  0  0  0  0  0
  -23.8204  -23.0890   22.4971 C   0  0  0  0  0  0  0  0  0  0  0  0
  -26.2691  -12.4318   20.1927 C   0  0  0  0  0  0  0  0  0  0  0  0
  -29.5480  -22.2048   18.9813 C   0  0  0  0  0  0  0  0  0  0  0  0
  -24.2415  -20.7210   22.2558 C   0  0  0  0  0  0  0  0  0  0  0  0
  -29.6452  -24.5519   18.9172 C   0  0  0  0  0  0  0  0  0  0  0  0
  -30.4865  -26.9464   20.0754 C   0  0  0  0  0  0  0  0  0  0  0  0
  -30.4910  -25.4082   18.2123 C   0  0  0  0  0  0  0  0  0  0  0  0
  -30.5467  -18.6034   20.9637 C   0  0  0  0  0  0  0  0  0  0  0  0
  -31.1822  -17.1069   22.4441 C   0  0  0  0  0  0  0  0  0  0  0  0
  -22.8124  -13.3322   21.3818 C   0  0  0  0  0  0  0  0  0  0  0  0
  -31.2488  -19.4600   23.2849 C   0  0  0  0  0  0  0  0  0  0  0  0
  -24.6346  -27.0744   22.3268 C   0  0  0  0  0  0  0  0  0  0  0  0
  -22.0291  -25.9181   21.1933 C   0  0  0  0  0  0  0  0  0  0  0  0
  -19.0807  -25.3868   19.5619 C   0  0  0  0  0  0  0  0  0  0  0  0
  -28.7539  -12.3363   19.7888 C   0  0  0  0  0  0  0  0  0  0  0  0
  -24.0331  -31.6932   20.2382 C   0  0  0  0  0  0  0  0  0  0  0  0
  -25.5767  -24.7985   22.0109 C   0  0  0  0  0  0  0  0  0  0  0  0
  -22.9450  -24.2511   22.8794 C   0  0  0  0  0  0  0  0  0  0  0  0
  -23.1172  -30.6660   20.8988 C   0  0  0  0  0  0  0  0  0  0  0  0
  -32.2162  -13.1510   19.9508 C   0  0  0  0  0  0  0  0  0  0  0  0
  -23.7124  -30.1921   22.2209 C   0  0  0  0  0  0  0  0  0  0  0  0
  -32.2228  -14.6270   20.3553 C   0  0  0  0  0  0  0  0  0  0  0  0
  -22.9954  -16.6552   22.4551 C   0  0  0  0  0  0  0  0  0  0  0  0
  -23.8860  -16.4022   20.1014 C   0  0  0  0  0  0  0  0  0  0  0  0
  -31.0606  -12.8271   19.0056 C   0  0  0  0  0  0  0  0  0  0  0  0
  -22.0364  -15.4926   22.2131 C   0  0  0  0  0  0  0  0  0  0  0  0
  -22.9225  -15.2425   19.8655 C   0  0  0  0  0  0  0  0  0  0  0  0
  -29.7401  -14.7097   19.8898 C   0  0  0  0  0  0  0  0  0  0  0  0
  -25.0648  -29.5034   22.0016 C   0  0  1  0  0  0  0  0  0  0  0  0
  -24.4635  -25.7763   21.5939 C   0  0  1  0  0  0  0  0  0  0  0  0
  -30.8480  -15.0701   20.8930 C   0  0  2  0  0  0  0  0  0  0  0  0
  -23.3510  -17.3922   21.1520 C   0  0  0  0  0  0  0  0  0  0  0  0
  -16.7829  -26.3556   19.2803 C   0  0  0  0  0  0  0  0  0  0  0  0
  -21.2432  -24.8420   23.9371 C   0  0  0  0  0  0  0  0  0  0  0  0
  -18.8475  -24.9628   23.2197 C   0  0  0  0  0  0  0  0  0  0  0  0
  -20.2161  -27.0445   23.3465 C   0  0  0  0  0  0  0  0  0  0  0  0
  -19.4797  -25.7881   16.6569 C   0  0  0  0  0  0  0  0  0  0  0  0
  -22.4168  -18.7114   19.4462 C   0  0  0  0  0  0  0  0  0  0  0  0
  -24.3737  -18.4961   21.4251 C   0  0  0  0  0  0  0  0  0  1  0  0
  -20.6477  -25.3890   21.4851 C   0  0  1  0  0  0  0  0  0  0  0  0
  -18.2035  -26.3129   18.7389 C   0  0  2  0  0  0  0  0  0  0  0  0
  -20.2575  -25.5444   22.9821 C   0  0  0  0  0  0  0  0  0  0  0  0
  -30.4395  -17.4349   20.3255 N   0  0  0  0  0  0  0  0  0  0  0  0
  -30.8331  -16.5443   21.2517 N   0  0  0  0  0  0  0  0  0  0  0  0
  -22.6044  -14.6237   21.1658 N   0  0  0  0  0  0  0  0  0  0  0  0
  -23.0911  -25.3351   21.8954 N   0  0  0  0  0  0  0  0  0  0  0  0
  -29.7901  -13.2716   19.5828 N   0  0  0  0  0  0  0  0  0  0  0  0
  -31.6010  -16.3555   23.4845 N   0  0  0  0  0  0  0  0  0  0  0  0
  -31.0150  -20.8023   22.9566 N   0  0  0  0  0  0  0  0  0  0  0  0
  -27.6050  -12.8681   20.3735 N   0  0  0  0  0  0  0  0  0  0  0  0
  -24.8721  -28.1584   21.5034 N   0  0  0  0  0  0  0  0  0  0  0  0
  -19.7469  -26.0670   20.5592 N   0  0  0  0  0  0  0  0  0  0  0  0
  -22.0446  -12.6427   22.2205 N   0  3  0  0  0  0  0  0  0  0  0  0
  -18.1528  -25.8547   17.3217 N   0  3  0  0  0  0  0  0  0  0  0  0
  -31.6775  -19.1733   24.4284 O   0  0  0  0  0  0  0  0  0  0  0  0
  -24.5556  -27.0928   23.5496 O   0  0  0  0  0  0  0  0  0  0  0  0
  -22.1652  -26.8274   20.3700 O   0  0  0  0  0  0  0  0  0  0  0  0
  -19.1635  -24.1800   19.3443 O   0  0  0  0  0  0  0  0  0  0  0  0
  -28.8867  -11.1455   19.4950 O   0  0  0  0  0  0  0  0  0  0  0  0
  -29.2261  -23.3633   18.3434 O   0  0  0  0  0  0  0  0  0  0  0  0
  -23.8134  -19.4313   22.3459 O   0  0  0  0  0  0  0  0  0  1  0  0
  -22.1623  -18.0105   20.6523 O   0  0  0  0  0  0  0  0  0  0  0  0
  -30.8892  -28.0968   20.6310 F   0  0  0  0  0  0  0  0  0  0  0  0
  -30.9018  -25.0867   16.9779 F   0  0  0  0  0  0  0  0  0  0  0  0
  1  2  1  0  0  0  0
  1  7  2  0  0  0  0
  2  8  2  0  0  0  0
  3  6  2  0  0  0  0
  3 10  1  0  0  0  0
  4 11  2  0  0  0  0
  4 19  1  0  0  0  0
  5 12  1  0  0  0  0
  5 19  2  0  0  0  0
  6 20  1  0  0  0  0
  7 22  1  0  0  0  0
  8 24  1  0  0  0  0
  9 13  2  0  0  0  0
  9 23  1  0  0  0  0
 10 26  2  0  0  0  0
 11 27  1  0  0  0  0
 12 27  2  0  0  0  0
 13 28  1  0  0  0  0
 14 15  2  0  0  0  0
 14 29  1  0  0  0  0
 15 30  1  0  0  0  0
 16 20  2  0  0  0  0
 16 26  1  0  0  0  0
 17 25  1  0  0  0  0
 17 28  2  0  0  0  0
 18 30  2  0  0  0  0
 18 31  1  0  0  0  0
 19 32  1  0  0  0  0
 20 34  1  0  0  0  0
 21 32  1  0  0  0  0
 21 33  2  0  0  0  0
 21 35  1  0  0  0  0
 22 24  2  0  0  0  0
 22 40  1  0  0  0  0
 23 25  2  0  0  0  0
 23 41  1  0  0  0  0
 24 53  1  0  0  0  0
 25 42  1  0  0  0  0
 26 74  1  0  0  0  0
 27 84  1  0  0  0  0
 28 85  1  0  0  0  0
 29 31  2  0  0  0  0
 29 84  1  0  0  0  0
 30 87  1  0  0  0  0
 31 88  1  0  0  0  0
 32 67  2  0  0  0  0
 33 68  1  0  0  0  0
 33 72  1  0  0  0  0
 34 69  1  0  0  0  0
 34 77  2  0  0  0  0
 35 73  1  0  0  0  0
 35 79  2  0  0  0  0
 36 54  1  0  0  0  0
 36 75  1  0  0  0  0
 36 80  2  0  0  0  0
 37 64  1  0  0  0  0
 37 70  1  0  0  0  0
 37 81  2  0  0  0  0
 38 65  1  0  0  0  0
 38 76  1  0  0  0  0
 38 82  2  0  0  0  0
 39 71  1  0  0  0  0
 39 74  1  0  0  0  0
 39 83  2  0  0  0  0
 40 43  1  0  0  0  0
 41 54  1  0  0  0  0
 42 70  1  0  0  0  0
 43 45  1  0  0  0  0
 44 46  1  0  0  0  0
 44 49  1  0  0  0  0
 45 53  1  0  0  0  0
 46 55  1  0  0  0  0
 47 50  1  0  0  0  0
 47 56  1  0  0  0  0
 48 51  1  0  0  0  0
 48 56  1  0  0  0  0
 49 71  1  0  0  0  0
 50 69  1  0  0  0  0
 51 69  1  0  0  0  0
 52 55  1  0  0  0  0
 52 71  1  0  0  0  0
 53 75  1  0  0  0  0
 54 70  1  0  0  0  0
 55 68  1  0  0  0  0
 56 63  1  0  0  0  0
 56 86  1  0  0  0  0
 57 65  1  0  0  0  0
 58 66  1  0  0  0  0
 59 66  1  0  0  0  0
 60 66  1  0  0  0  0
 61 78  1  0  0  0  0
 62 86  1  0  0  0  0
 63 85  1  0  0  0  0
 64 66  1  0  0  0  0
 64 76  1  0  0  0  0
 65 78  1  0  0  0  0
 67 68  1  0  0  0  0
M  CHG  2  77   1  78   1
M  ISO  4  39 100  63 101  74 100  85 101
M  END
> <Batch ID>
0166

> <Smiles>
CNC(C)C(=O)NC(C(=O)N1Cc2cc([101O:1][101CH2:1]C3(OC)CCN(C(=N)c4cccc([100NH:0][100C:0](=O)N5CCCC(n6nc(-c7ccc(Oc8ccc(F)cc8F)cc7)c(C(N)=O)c6N)C5)c4)CC3)ccc2CC1C(=O)NC1CCCc2ccccc21)C(C)(C)C

> <Shape>
0.263

> <Color>
0.065

> <Negative vol penalty>
0.000

$$$$

  -OEChem-04052304083D

 85 93  0     1  0  0  0  0  0999 V2000
  -30.3386  -12.4473   19.2604 C   0  0  0  0  0  0  0  0  0  0  0  0
  -30.0026  -13.7871   19.4262 C   0  0  0  0  0  0  0  0  0  0  0  0
  -28.8843  -25.6514   20.2295 C   0  0  0  0  0  0  0  0  0  0  0  0
  -26.8342  -24.3892   20.4320 C   0  0  0  0  0  0  0  0  0  0  0  0
  -29.3525  -11.4660   19.3530 C   0  0  0  0  0  0  0  0  0  0  0  0
  -28.6800  -14.1464   19.6836 C   0  0  0  0  0  0  0  0  0  0  0  0
  -24.8078  -19.0182   23.2315 C   0  0  0  0  0  0  0  0  0  0  0  0
  -29.6077  -24.5497   20.6862 C   0  0  0  0  0  0  0  0  0  0  0  0
  -27.5575  -23.2875   20.8887 C   0  0  0  0  0  0  0  0  0  0  0  0
  -23.7719  -19.9284   23.0258 C   0  0  0  0  0  0  0  0  0  0  0  0
  -28.9022  -20.0253   21.7651 C   0  0  0  0  0  0  0  0  0  0  0  0
  -28.5889  -18.7758   21.2302 C   0  0  0  0  0  0  0  0  0  0  0  0
  -22.1665  -18.1410   23.2429 C   0  0  0  0  0  0  0  0  0  0  0  0
  -29.1482  -19.5810   19.0220 C   0  0  0  0  0  0  0  0  0  0  0  0
  -27.4975  -25.5712   20.1024 C   0  0  0  0  0  0  0  0  0  0  0  0
  -26.4260  -27.0203   18.2970 C   0  0  0  0  0  0  0  0  0  0  0  0
  -28.0189  -11.8126   19.6212 C   0  0  0  0  0  0  0  0  0  0  0  0
  -24.5309  -17.6585   23.4339 C   0  0  0  0  0  0  0  0  0  0  0  0
  -27.6750  -13.1689   19.7785 C   0  0  0  0  0  0  0  0  0  0  0  0
  -23.2005  -17.2160   23.4535 C   0  0  0  0  0  0  0  0  0  0  0  0
  -28.9443  -23.3677   21.0158 C   0  0  0  0  0  0  0  0  0  0  0  0
  -22.4512  -19.4893   23.0286 C   0  0  0  0  0  0  0  0  0  0  0  0
  -29.3385  -21.0527   20.9285 C   0  0  0  0  0  0  0  0  0  0  0  0
  -28.7119  -18.5537   19.8586 C   0  0  0  0  0  0  0  0  0  0  0  0
  -29.4615  -20.8305   19.5570 C   0  0  0  0  0  0  0  0  0  0  0  0
  -26.7497  -26.7091   19.6312 C   0  0  0  0  0  0  0  0  0  0  0  0
  -18.3093  -27.9668   22.2767 C   0  0  0  0  0  0  0  0  0  0  0  0
  -19.6199  -28.2064   22.6076 C   0  0  0  0  0  0  0  0  0  0  0  0
  -25.7126  -28.1910   18.3808 C   0  0  0  0  0  0  0  0  0  0  0  0
  -19.4298  -26.1450   22.2366 C   0  0  0  0  0  0  0  0  0  0  0  0
  -26.7420  -26.3143   17.0897 C   0  0  0  0  0  0  0  0  0  0  0  0
  -17.1668  -28.8024   22.1545 C   0  0  0  0  0  0  0  0  0  0  0  0
  -25.2359  -14.9716   21.8890 C   0  0  0  0  0  0  0  0  0  0  0  0
  -20.5673  -22.6027   22.4347 C   0  0  0  0  0  0  0  0  0  0  0  0
  -23.8364  -13.5826   24.4647 C   0  0  0  0  0  0  0  0  0  0  0  0
  -21.6589  -13.8570   27.0782 C   0  0  0  0  0  0  0  0  0  0  0  0
  -22.4384  -30.6672   22.7396 C   0  0  0  0  0  0  0  0  0  0  0  0
  -26.9798  -10.7204   19.6653 C   0  0  0  0  0  0  0  0  0  0  0  0
  -25.6582  -16.6939   23.6809 C   0  0  0  0  0  0  0  0  0  0  0  0
  -22.8491  -15.7702   23.6866 C   0  0  0  0  0  0  0  0  0  0  0  0
  -25.6671  -11.1544   20.3124 C   0  0  0  0  0  0  0  0  0  0  0  0
  -25.2470  -32.1062   21.0910 C   0  0  0  0  0  0  0  0  0  0  0  0
  -25.2238  -12.5075   19.7651 C   0  0  0  0  0  0  0  0  0  0  0  0
  -25.9214  -30.9143   20.4096 C   0  0  0  0  0  0  0  0  0  0  0  0
  -24.6603  -31.7229   22.4478 C   0  0  0  0  0  0  0  0  0  0  0  0
  -24.4201  -29.3741   21.7411 C   0  0  0  0  0  0  0  0  0  0  0  0
  -26.2557  -13.5963   20.0836 C   0  0  1  0  0  0  0  0  0  0  0  0
  -25.2876  -15.2481   23.3649 C   0  0  1  0  0  0  0  0  0  0  0  0
  -24.9781  -29.6980   20.3446 C   0  0  2  0  0  0  0  0  0  0  0  0
  -15.8445  -28.1728   21.7590 C   0  0  0  0  0  0  0  0  0  0  0  0
  -20.6970  -12.5425   28.9871 C   0  0  0  0  0  0  0  0  0  0  0  0
  -22.0339  -12.0773   22.5166 C   0  0  0  0  0  0  0  0  0  0  0  0
  -20.5191  -11.5456   24.4378 C   0  0  0  0  0  0  0  0  0  0  0  0
  -22.8689  -10.7084   24.4358 C   0  0  0  0  0  0  0  0  0  0  0  0
  -22.7615  -15.7370   29.0804 C   0  0  0  0  0  0  0  0  0  0  0  0
  -20.2711  -29.4776   22.9556 C   0  0  0  0  0  0  0  0  0  0  0  0
  -20.8279  -24.0785   22.2195 C   0  0  0  0  0  0  0  0  0  0  0  0
  -21.8005  -21.7400   22.6198 C   0  0  0  0  0  0  0  0  0  1  0  0
  -22.4298  -13.1679   24.8231 C   0  0  1  0  0  0  0  0  0  0  0  0
  -21.7966  -13.4959   28.5462 C   0  0  2  0  0  0  0  0  0  0  0  0
  -21.9693  -11.9018   24.0470 C   0  0  0  0  0  0  0  0  0  0  0  0
  -26.2805  -27.6094   20.4991 N   0  0  0  0  0  0  0  0  0  0  0  0
  -20.3329  -27.0352   22.5805 N   0  0  0  0  0  0  0  0  0  0  0  0
  -25.6549  -28.4980   19.7084 N   0  0  0  0  0  0  0  0  0  0  0  0
  -23.9867  -14.8645   23.9170 N   0  0  0  0  0  0  0  0  0  0  0  0
  -23.7738  -30.5641   22.3165 N   0  0  0  0  0  0  0  0  0  0  0  0
  -25.1355  -28.9775   17.4477 N   0  0  0  0  0  0  0  0  0  0  0  0
  -27.4824  -25.1280   17.1838 N   0  0  0  0  0  0  0  0  0  0  0  0
  -19.5798  -24.7780   22.0521 N   0  0  0  0  0  0  0  0  0  0  0  0
  -26.1385  -14.0155   21.4638 N   0  0  0  0  0  0  0  0  0  0  0  0
  -22.4048  -13.0210   26.2744 N   0  0  0  0  0  0  0  0  0  0  0  0
  -21.6649  -29.5249   22.5738 N   0  0  0  0  0  0  0  0  0  0  0  0
  -21.7221  -14.7218   29.3903 N   0  3  0  0  0  0  0  0  0  0  0  0
  -26.3925  -26.7319   15.9597 O   0  0  0  0  0  0  0  0  0  0  0  0
  -17.1323  -30.0406   22.3390 O   0  0  0  0  0  0  0  0  0  0  0  0
  -24.4353  -15.5794   21.1880 O   0  0  0  0  0  0  0  0  0  0  0  0
  -19.4343  -22.1239   22.4593 O   0  0  0  0  0  0  0  0  0  0  0  0
  -24.7682  -12.8009   24.6699 O   0  0  0  0  0  0  0  0  0  0  0  0
  -20.9567  -14.7853   26.6836 O   0  0  0  0  0  0  0  0  0  0  0  0
  -21.9687  -31.7025   23.2239 O   0  0  0  0  0  0  0  0  0  0  0  0
  -18.1753  -26.6331   22.0342 O   0  0  0  0  0  0  0  0  0  0  0  0
  -29.6499  -22.2924   21.4613 O   0  0  0  0  0  0  0  0  0  0  0  0
  -21.4382  -20.3755   22.8274 O   0  0  0  0  0  0  0  0  0  1  0  0
  -28.4125  -17.3533   19.3452 F   0  0  0  0  0  0  0  0  0  0  0  0
  -29.8812  -21.8133   18.7484 F   0  0  0  0  0  0  0  0  0  0  0  0
  1  2  1  0  0  0  0
  1  5  2  0  0  0  0
  2  6  2  0  0  0  0
  3  8  2  0  0  0  0
  3 15  1  0  0  0  0
  4  9  1  0  0  0  0
  4 15  2  0  0  0  0
  5 17  1  0  0  0  0
  6 19  1  0  0  0  0
  7 10  2  0  0  0  0
  7 18  1  0  0  0  0
  8 21  1  0  0  0  0
  9 21  2  0  0  0  0
 10 22  1  0  0  0  0
 11 12  2  0  0  0  0
 11 23  1  0  0  0  0
 12 24  1  0  0  0  0
 13 20  1  0  0  0  0
 13 22  2  0  0  0  0
 14 24  2  0  0  0  0
 14 25  1  0  0  0  0
 15 26  1  0  0  0  0
 16 26  1  0  0  0  0
 16 29  2  0  0  0  0
 16 31  1  0  0  0  0
 17 19  2  0  0  0  0
 17 38  1  0  0  0  0
 18 20  2  0  0  0  0
 18 39  1  0  0  0  0
 19 47  1  0  0  0  0
 20 40  1  0  0  0  0
 21 82  1  0  0  0  0
 22 83  1  0  0  0  0
 23 25  2  0  0  0  0
 23 82  1  0  0  0  0
 24 84  1  0  0  0  0
 25 85  1  0  0  0  0
 26 62  2  0  0  0  0
 27 28  2  0  0  0  0
 27 32  1  0  0  0  0
 27 81  1  0  0  0  0
 28 56  1  0  0  0  0
 28 63  1  0  0  0  0
 29 64  1  0  0  0  0
 29 67  1  0  0  0  0
 30 63  2  0  0  0  0
 30 69  1  0  0  0  0
 30 81  1  0  0  0  0
 31 68  1  0  0  0  0
 31 74  2  0  0  0  0
 32 50  1  0  0  0  0
 32 75  2  0  0  0  0
 33 48  1  0  0  0  0
 33 70  1  0  0  0  0
 33 76  2  0  0  0  0
 34 57  1  0  0  0  0
 34 58  1  0  0  0  0
 34 77  2  0  0  0  0
 35 59  1  0  0  0  0
 35 65  1  0  0  0  0
 35 78  2  0  0  0  0
 36 60  1  0  0  0  0
 36 71  1  0  0  0  0
 36 79  2  0  0  0  0
 37 66  1  0  0  0  0
 37 72  1  0  0  0  0
 37 80  2  0  0  0  0
 38 41  1  0  0  0  0
 39 48  1  0  0  0  0
 40 65  1  0  0  0  0
 41 43  1  0  0  0  0
 42 44  1  0  0  0  0
 42 45  1  0  0  0  0
 43 47  1  0  0  0  0
 44 49  1  0  0  0  0
 45 66  1  0  0  0  0
 46 49  1  0  0  0  0
 46 66  1  0  0  0  0
 47 70  1  0  0  0  0
 48 65  1  0  0  0  0
 49 64  1  0  0  0  0
 51 60  1  0  0  0  0
 52 61  1  0  0  0  0
 53 61  1  0  0  0  0
 54 61  1  0  0  0  0
 55 73  1  0  0  0  0
 56 72  1  0  0  0  0
 57 69  1  0  0  0  0
 58 83  1  0  0  0  0
 59 61  1  0  0  0  0
 59 71  1  0  0  0  0
 60 73  1  0  0  0  0
 62 64  1  0  0  0  0
M  CHG  1  73   1
M  ISO  4  37 100  58 101  72 100  83 101
M  END
> <Batch ID>
0166

> <Smiles>
CNC(C)C(=O)NC(C(=O)N1Cc2cc([101O:1][101CH2:1]C(=O)CNc3nc(C[100NH:0][100C:0](=O)N4CCCC(n5nc(-c6ccc(Oc7ccc(F)cc7F)cc6)c(C(N)=O)c5N)C4)c(C(C)=O)o3)ccc2CC1C(=O)NC1CCCc2ccccc21)C(C)(C)C

> <Shape>
0.254

> <Color>
0.072

> <Negative vol penalty>
0.000

$$$$

  -OEChem-04052304083D

 90 98  0     1  0  0  0  0  0999 V2000
  -24.7520  -35.5322   22.1767 C   0  0  0  0  0  0  0  0  0  0  0  0
  -25.5110  -34.3674   22.1241 C   0  0  0  0  0  0  0  0  0  0  0  0
  -23.9129  -12.7244   20.7569 C   0  0  0  0  0  0  0  0  0  0  0  0
  -26.3100  -12.5048   20.9634 C   0  0  0  0  0  0  0  0  0  0  0  0
  -23.4463  -35.4905   22.6636 C   0  0  0  0  0  0  0  0  0  0  0  0
  -24.9650  -33.1605   22.5595 C   0  0  0  0  0  0  0  0  0  0  0  0
  -25.9298  -29.3344   19.3854 C   0  0  0  0  0  0  0  0  0  0  0  0
  -23.8233  -11.3861   20.3740 C   0  0  0  0  0  0  0  0  0  0  0  0
  -26.2204  -11.1665   20.5806 C   0  0  0  0  0  0  0  0  0  0  0  0
  -27.2031  -28.7690   19.4382 C   0  0  0  0  0  0  0  0  0  0  0  0
  -23.8680   -8.3571   21.8760 C   0  0  0  0  0  0  0  0  0  0  0  0
  -22.8678   -7.5809   22.4615 C   0  0  0  0  0  0  0  0  0  0  0  0
  -32.8009  -21.5632   17.7895 C   0  0  0  0  0  0  0  0  0  0  0  0
  -26.3363  -26.9559   20.7724 C   0  0  0  0  0  0  0  0  0  0  0  0
  -21.9233   -7.1523   20.2794 C   0  0  0  0  0  0  0  0  0  0  0  0
  -25.1563  -13.2838   21.0516 C   0  0  0  0  0  0  0  0  0  0  0  0
  -32.4489  -20.2692   17.3372 C   0  0  0  0  0  0  0  0  0  0  0  0
  -25.1844  -15.1829   22.7545 C   0  0  0  0  0  0  0  0  0  0  0  0
  -22.8806  -34.2807   23.0962 C   0  0  0  0  0  0  0  0  0  0  0  0
  -24.8505  -28.7194   20.0361 C   0  0  0  0  0  0  0  0  0  0  0  0
  -23.6509  -33.1029   23.0540 C   0  0  0  0  0  0  0  0  0  0  0  0
  -25.0498  -27.5141   20.7243 C   0  0  0  0  0  0  0  0  0  0  0  0
  -24.9770  -10.6072   20.2859 C   0  0  0  0  0  0  0  0  0  0  0  0
  -27.4071  -27.5811   20.1341 C   0  0  0  0  0  0  0  0  0  0  0  0
  -23.8958   -8.5309   20.4923 C   0  0  0  0  0  0  0  0  0  0  0  0
  -21.8955   -6.9785   21.6632 C   0  0  0  0  0  0  0  0  0  0  0  0
  -22.9235   -7.9285   19.6940 C   0  0  0  0  0  0  0  0  0  0  0  0
  -25.2495  -14.6663   21.4466 C   0  0  0  0  0  0  0  0  0  0  0  0
  -31.1524  -20.0609   17.7468 C   0  0  0  0  0  0  0  0  0  0  0  0
  -25.3233  -16.5400   22.5949 C   0  0  0  0  0  0  0  0  0  0  0  0
  -31.6944  -22.0537   18.4430 C   0  0  0  0  0  0  0  0  0  0  0  0
  -33.2499  -19.3366   16.6012 C   0  0  0  0  0  0  0  0  0  0  0  0
  -25.0136  -14.4974   24.0022 C   0  0  0  0  0  0  0  0  0  0  0  0
  -30.3214  -17.8084   20.1962 C   0  0  0  0  0  0  0  0  0  0  0  0
  -29.0432  -18.4600   19.7643 C   0  0  0  0  0  0  0  0  0  0  0  0
  -22.8783  -29.5519   22.3858 C   0  0  0  0  0  0  0  0  0  0  0  0
  -30.0090  -25.0939   19.6566 C   0  0  0  0  0  0  0  0  0  0  0  0
  -21.4044  -26.7685   21.6095 C   0  0  0  0  0  0  0  0  0  0  0  0
  -21.6287  -23.6628   20.2127 C   0  0  0  0  0  0  0  0  0  0  0  0
  -27.8759  -19.6781   18.0521 C   0  0  0  0  0  0  0  0  0  0  0  0
  -21.4814  -34.2938   23.6588 C   0  0  0  0  0  0  0  0  0  0  0  0
  -23.4779  -29.3280   19.9473 C   0  0  0  0  0  0  0  0  0  0  0  0
  -23.9202  -26.8036   21.4226 C   0  0  0  0  0  0  0  0  0  0  0  0
  -20.8489  -32.9075   23.7509 C   0  0  0  0  0  0  0  0  0  0  0  0
  -24.5086  -20.0555   19.4553 C   0  0  0  0  0  0  0  0  0  0  0  0
  -21.8300  -31.9127   24.3631 C   0  0  0  0  0  0  0  0  0  0  0  0
  -24.2955  -18.7352   20.1955 C   0  0  0  0  0  0  0  0  0  0  0  0
  -25.4140  -19.8849   18.2384 C   0  0  0  0  0  0  0  0  0  0  0  0
  -26.5075  -17.9272   19.2824 C   0  0  0  0  0  0  0  0  0  0  0  0
  -23.0853  -31.7700   23.4940 C   0  0  1  0  0  0  0  0  0  0  0  0
  -22.5542  -28.8863   21.0783 C   0  0  1  0  0  0  0  0  0  0  0  0
  -25.6412  -18.0734   20.5421 C   0  0  2  0  0  0  0  0  0  0  0  0
  -34.6602  -19.7379   16.2356 C   0  0  0  0  0  0  0  0  0  0  0  0
  -31.2720  -18.6600   20.9805 C   0  0  0  0  0  0  0  0  0  0  0  0
  -20.2678  -21.6037   19.7594 C   0  0  0  0  0  0  0  0  0  0  0  0
  -21.6346  -25.9729   24.5462 C   0  0  0  0  0  0  0  0  0  0  0  0
  -21.1554  -23.6100   23.8715 C   0  0  0  0  0  0  0  0  0  0  0  0
  -19.4516  -25.3884   23.4751 C   0  0  0  0  0  0  0  0  0  0  0  0
  -21.9903  -23.9269   17.2872 C   0  0  0  0  0  0  0  0  0  0  0  0
  -30.1931  -18.9155   17.5978 C   0  0  0  0  0  0  0  0  0  0  0  0
  -30.2064  -23.5943   19.7228 C   0  0  0  0  0  0  0  0  0  0  0  0
  -28.7367  -25.6159   20.2954 C   0  0  0  0  0  0  0  0  0  1  0  0
  -21.5374  -25.3300   22.0475 C   0  0  1  0  0  0  0  0  0  0  0  0
  -20.7424  -22.9414   19.2134 C   0  0  2  0  0  0  0  0  0  0  0  0
  -20.9666  -25.0894   23.4736 C   0  0  0  0  0  0  0  0  0  0  0  0
  -25.4166  -15.6176   20.5241 N   0  0  0  0  0  0  0  0  0  0  0  0
  -25.4576  -16.7458   21.2533 N   0  0  0  0  0  0  0  0  0  0  0  0
  -22.5979  -27.4415   21.3122 N   0  0  0  0  0  0  0  0  0  0  0  0
  -26.6659  -19.2189   18.5990 N   0  0  0  0  0  0  0  0  0  0  0  0
  -25.3423  -17.5655   23.4727 N   0  0  0  0  0  0  0  0  0  0  0  0
  -24.8865  -13.1017   23.9857 N   0  0  0  0  0  0  0  0  0  0  0  0
  -31.4632  -23.2269   19.0668 N   0  0  0  0  0  0  0  0  0  0  0  0
  -22.8128  -30.9316   22.3462 N   0  0  0  0  0  0  0  0  0  0  0  0
  -20.9047  -24.5263   21.0073 N   0  0  0  0  0  0  0  0  0  0  0  0
  -29.0435  -19.0420   18.4988 N   0  0  0  0  0  0  0  0  0  0  0  0
  -21.4858  -22.6944   17.9455 N   0  3  0  0  0  0  0  0  0  0  0  0
  -32.8883  -18.2069   16.2218 O   0  0  0  0  0  0  0  0  0  0  0  0
  -24.9586  -15.1060   25.0976 O   0  0  0  0  0  0  0  0  0  0  0  0
  -30.4780  -16.6239   19.9437 O   0  0  0  0  0  0  0  0  0  0  0  0
  -28.1256  -18.4256   20.5750 O   0  0  0  0  0  0  0  0  0  0  0  0
  -23.1651  -28.8645   23.3589 O   0  0  0  0  0  0  0  0  0  0  0  0
  -30.8204  -25.8488   19.1222 O   0  0  0  0  0  0  0  0  0  0  0  0
  -20.2823  -27.2742   21.5272 O   0  0  0  0  0  0  0  0  0  0  0  0
  -22.8414  -23.4761   20.2839 O   0  0  0  0  0  0  0  0  0  0  0  0
  -27.9308  -20.6336   17.2686 O   0  0  0  0  0  0  0  0  0  0  0  0
  -30.6851  -21.1440   18.4214 O   0  0  0  0  0  0  0  0  0  0  0  0
  -24.8899   -9.3012   19.9125 O   0  0  0  0  0  0  0  0  0  0  0  0
  -28.6620  -27.0218   20.1883 O   0  0  0  0  0  0  0  0  0  1  0  0
  -20.9359   -6.2319   22.2254 F   0  0  0  0  0  0  0  0  0  0  0  0
  -22.9457   -8.0909   18.3640 F   0  0  0  0  0  0  0  0  0  0  0  0
  1  2  1  0  0  0  0
  1  5  2  0  0  0  0
  2  6  2  0  0  0  0
  3  8  2  0  0  0  0
  3 16  1  0  0  0  0
  4  9  1  0  0  0  0
  4 16  2  0  0  0  0
  5 19  1  0  0  0  0
  6 21  1  0  0  0  0
  7 10  2  0  0  0  0
  7 20  1  0  0  0  0
  8 23  1  0  0  0  0
  9 23  2  0  0  0  0
 10 24  1  0  0  0  0
 11 12  2  0  0  0  0
 11 25  1  0  0  0  0
 12 26  1  0  0  0  0
 13 17  1  0  0  0  0
 13 31  2  0  0  0  0
 14 22  1  0  0  0  0
 14 24  2  0  0  0  0
 15 26  2  0  0  0  0
 15 27  1  0  0  0  0
 16 28  1  0  0  0  0
 17 29  2  0  0  0  0
 17 32  1  0  0  0  0
 18 28  1  0  0  0  0
 18 30  2  0  0  0  0
 18 33  1  0  0  0  0
 19 21  2  0  0  0  0
 19 41  1  0  0  0  0
 20 22  2  0  0  0  0
 20 42  1  0  0  0  0
 21 50  1  0  0  0  0
 22 43  1  0  0  0  0
 23 87  1  0  0  0  0
 24 88  1  0  0  0  0
 25 27  2  0  0  0  0
 25 87  1  0  0  0  0
 26 89  1  0  0  0  0
 27 90  1  0  0  0  0
 28 66  2  0  0  0  0
 29 60  1  0  0  0  0
 29 86  1  0  0  0  0
 30 67  1  0  0  0  0
 30 70  1  0  0  0  0
 31 72  1  0  0  0  0
 31 86  1  0  0  0  0
 32 53  1  0  0  0  0
 32 77  2  0  0  0  0
 33 71  1  0  0  0  0
 33 78  2  0  0  0  0
 34 35  1  0  0  0  0
 34 54  1  0  0  0  0
 34 79  2  0  0  0  0
 35 75  1  0  0  0  0
 35 80  2  0  0  0  0
 36 51  1  0  0  0  0
 36 73  1  0  0  0  0
 36 81  2  0  0  0  0
 37 61  1  0  0  0  0
 37 62  1  0  0  0  0
 37 82  2  0  0  0  0
 38 63  1  0  0  0  0
 38 68  1  0  0  0  0
 38 83  2  0  0  0  0
 39 64  1  0  0  0  0
 39 74  1  0  0  0  0
 39 84  2  0  0  0  0
 40 69  1  0  0  0  0
 40 75  1  0  0  0  0
 40 85  2  0  0  0  0
 41 44  1  0  0  0  0
 42 51  1  0  0  0  0
 43 68  1  0  0  0  0
 44 46  1  0  0  0  0
 45 47  1  0  0  0  0
 45 48  1  0  0  0  0
 46 50  1  0  0  0  0
 47 52  1  0  0  0  0
 48 69  1  0  0  0  0
 49 52  1  0  0  0  0
 49 69  1  0  0  0  0
 50 73  1  0  0  0  0
 51 68  1  0  0  0  0
 52 67  1  0  0  0  0
 55 64  1  0  0  0  0
 56 65  1  0  0  0  0
 57 65  1  0  0  0  0
 58 65  1  0  0  0  0
 59 76  1  0  0  0  0
 60 75  1  0  0  0  0
 61 72  1  0  0  0  0
 62 88  1  0  0  0  0
 63 65  1  0  0  0  0
 63 74  1  0  0  0  0
 64 76  1  0  0  0  0
 66 67  1  0  0  0  0
M  CHG  1  76   1
M  ISO  4  40 100  62 101  75 100  88 101
M  END
> <Batch ID>
0166

> <Smiles>
CNC(C)C(=O)NC(C(=O)N1Cc2cc([101O:1][101CH2:1]C(=O)CNc3cc(C(C)=O)c(C[100N:0](C(=O)C(C)=O)[100C:0](=O)N4CCCC(n5nc(-c6ccc(Oc7ccc(F)cc7F)cc6)c(C(N)=O)c5N)C4)o3)ccc2CC1C(=O)NC1CCCc2ccccc21)C(C)(C)C

> <Shape>
0.239

> <Color>
0.099

> <Negative vol penalty>
0.000

$$$$

  -OEChem-04052304083D

 83 91  0     1  0  0  0  0  0999 V2000
  -25.6262  -38.1311   26.7783 C   0  0  0  0  0  0  0  0  0  0  0  0
  -25.0189  -36.9805   27.2710 C   0  0  0  0  0  0  0  0  0  0  0  0
  -24.4914   -9.0901   21.4691 C   0  0  0  0  0  0  0  0  0  0  0  0
  -22.6369  -10.2273   20.4182 C   0  0  0  0  0  0  0  0  0  0  0  0
  -25.8535  -38.2665   25.4094 C   0  0  0  0  0  0  0  0  0  0  0  0
  -24.6376  -35.9650   26.3947 C   0  0  0  0  0  0  0  0  0  0  0  0
  -23.9996  -28.8383   26.0474 C   0  0  0  0  0  0  0  0  0  0  0  0
  -23.6979   -7.9562   21.6426 C   0  0  0  0  0  0  0  0  0  0  0  0
  -21.8433   -9.0934   20.5916 C   0  0  0  0  0  0  0  0  0  0  0  0
  -23.0683  -27.8552   25.7157 C   0  0  0  0  0  0  0  0  0  0  0  0
  -21.2768   -6.9104   23.7566 C   0  0  0  0  0  0  0  0  0  0  0  0
  -21.3205   -6.2732   24.9966 C   0  0  0  0  0  0  0  0  0  0  0  0
  -23.5828  -28.1645   23.3793 C   0  0  0  0  0  0  0  0  0  0  0  0
  -22.6746  -19.8337   22.8448 C   0  0  0  0  0  0  0  0  0  0  0  0
  -22.0958   -4.2492   23.9290 C   0  0  0  0  0  0  0  0  0  0  0  0
  -23.9609  -10.2257   20.8570 C   0  0  0  0  0  0  0  0  0  0  0  0
  -25.5948  -11.7044   19.5719 C   0  0  0  0  0  0  0  0  0  0  0  0
  -25.4835  -37.2480   24.5170 C   0  0  0  0  0  0  0  0  0  0  0  0
  -24.7228  -29.5007   25.0451 C   0  0  0  0  0  0  0  0  0  0  0  0
  -24.8589  -36.0874   25.0124 C   0  0  0  0  0  0  0  0  0  0  0  0
  -24.5245  -29.1539   23.7010 C   0  0  0  0  0  0  0  0  0  0  0  0
  -22.5751  -18.5504   22.2338 C   0  0  0  0  0  0  0  0  0  0  0  0
  -22.3738   -7.9578   21.2038 C   0  0  0  0  0  0  0  0  0  0  0  0
  -22.8577  -27.5202   24.3814 C   0  0  0  0  0  0  0  0  0  0  0  0
  -21.6425   -6.2171   22.6028 C   0  0  0  0  0  0  0  0  0  0  0  0
  -21.7301   -4.9426   25.0828 C   0  0  0  0  0  0  0  0  0  0  0  0
  -22.0520   -4.8865   22.6890 C   0  0  0  0  0  0  0  0  0  0  0  0
  -24.7800  -11.3975   20.6781 C   0  0  0  0  0  0  0  0  0  0  0  0
  -26.1587  -12.9166   19.8865 C   0  0  0  0  0  0  0  0  0  0  0  0
  -21.7286  -20.7113   22.3623 C   0  0  0  0  0  0  0  0  0  0  0  0
  -21.5566  -18.4959   21.3077 C   0  0  0  0  0  0  0  0  0  0  0  0
  -22.3795  -25.2669   23.9759 C   0  0  0  0  0  0  0  0  0  1  0  0
  -25.8216  -10.9603   18.3675 C   0  0  0  0  0  0  0  0  0  0  0  0
  -21.5729  -24.2454   23.6634 C   0  0  0  0  0  0  0  0  0  0  0  0
  -22.1433  -22.8600   23.6039 C   0  0  0  0  0  0  0  0  0  0  0  0
  -24.9561  -32.5165   24.0681 C   0  0  0  0  0  0  0  0  0  0  0  0
  -27.2817  -31.3082   22.1567 C   0  0  0  0  0  0  0  0  0  0  0  0
  -28.6005  -28.5962   20.5589 C   0  0  0  0  0  0  0  0  0  0  0  0
  -24.4636  -17.4063   23.4466 C   0  0  0  0  0  0  0  0  0  0  0  0
  -25.7066  -37.4600   23.0406 C   0  0  0  0  0  0  0  0  0  0  0  0
  -25.7431  -30.5400   25.4210 C   0  0  0  0  0  0  0  0  0  0  0  0
  -25.2900  -29.8209   22.5886 C   0  0  0  0  0  0  0  0  0  0  0  0
  -25.6126  -36.1763   22.2198 C   0  0  0  0  0  0  0  0  0  0  0  0
  -27.5005  -15.5588   23.6486 C   0  0  0  0  0  0  0  0  0  0  0  0
  -24.3799  -35.3737   22.6236 C   0  0  0  0  0  0  0  0  0  0  0  0
  -27.2238  -14.3128   22.8041 C   0  0  0  0  0  0  0  0  0  0  0  0
  -26.2636  -16.0020   24.4279 C   0  0  0  0  0  0  0  0  0  0  0  0
  -24.7768  -14.9439   22.7729 C   0  0  0  0  0  0  0  0  0  0  0  0
  -24.4534  -34.9532   24.0964 C   0  0  1  0  0  0  0  0  0  0  0  0
  -26.0519  -31.5120   24.2864 C   0  0  1  0  0  0  0  0  0  0  0  0
  -25.9752  -14.4976   21.9195 C   0  0  2  0  0  0  0  0  0  0  0  0
  -30.4836  -27.9273   19.0410 C   0  0  0  0  0  0  0  0  0  0  0  0
  -25.8234  -32.5734   19.7940 C   0  0  0  0  0  0  0  0  0  0  0  0
  -27.1684  -31.1113   18.2704 C   0  0  0  0  0  0  0  0  0  0  0  0
  -28.3139  -32.7882   19.7190 C   0  0  0  0  0  0  0  0  0  0  0  0
  -29.7021  -26.7171   22.5625 C   0  0  0  0  0  0  0  0  0  0  0  0
  -27.3239  -30.7128   20.7700 C   0  0  1  0  0  0  0  0  0  0  0  0
  -30.0201  -28.0637   20.4830 C   0  0  2  0  0  0  0  0  0  0  0  0
  -27.1414  -31.7851   19.6590 C   0  0  0  0  0  0  0  0  0  0  0  0
  -24.8200  -12.3388   21.6249 N   0  0  0  0  0  0  0  0  0  0  0  0
  -25.6668  -13.2490   21.1144 N   0  0  0  0  0  0  0  0  0  0  0  0
  -26.2719  -30.8352   23.0066 N   0  0  0  0  0  0  0  0  0  0  0  0
  -25.1219  -16.1608   23.5245 N   0  0  0  0  0  0  0  0  0  0  0  0
  -27.0224  -13.7199   19.2299 N   0  0  0  0  0  0  0  0  0  0  0  0
  -25.1624   -9.7340   18.2056 N   0  0  0  0  0  0  0  0  0  0  0  0
  -23.4136  -17.4472   22.5299 N   0  0  0  0  0  0  0  0  0  0  0  0
  -21.4709  -22.0653   22.6856 N   0  0  0  0  0  0  0  0  0  0  0  0
  -25.3491  -33.8278   24.2566 N   0  0  0  0  0  0  0  0  0  0  0  0
  -28.5761  -29.9693   20.6830 N   0  0  0  0  0  0  0  0  0  0  0  0
  -30.1068  -26.7255   21.1331 N   0  3  0  0  0  0  0  0  0  0  0  0
  -26.5988  -11.3627   17.4690 O   0  0  0  0  0  0  0  0  0  0  0  0
  -23.0916  -22.5381   24.3117 O   0  0  0  0  0  0  0  0  0  0  0  0
  -23.8371  -32.1306   23.7507 O   0  0  0  0  0  0  0  0  0  0  0  0
  -28.1185  -32.1563   22.4764 O   0  0  0  0  0  0  0  0  0  0  0  0
  -27.6121  -27.8674   20.5091 O   0  0  0  0  0  0  0  0  0  0  0  0
  -24.8236  -18.3739   24.1220 O   0  0  0  0  0  0  0  0  0  0  0  0
  -20.2302  -24.4157   23.3934 O   0  0  0  0  0  0  0  0  0  0  0  0
  -21.5992   -6.8514   21.3726 O   0  0  0  0  0  0  0  0  0  0  0  0
  -21.9488  -26.5615   24.0549 O   0  0  0  0  0  0  0  0  0  1  0  0
  -21.7735   -4.3312   26.2738 F   0  0  0  0  0  0  0  0  0  0  0  0
  -22.4056   -4.2156   21.5842 F   0  0  0  0  0  0  0  0  0  0  0  0
  -21.2465  -17.4094   20.5915 F   0  0  0  0  0  0  0  0  0  0  0  0
  -20.7260  -19.9877   21.1777 S   0  0  0  0  0  0  0  0  0  0  0  0
  1  2  1  0  0  0  0
  1  5  2  0  0  0  0
  2  6  2  0  0  0  0
  3  8  2  0  0  0  0
  3 16  1  0  0  0  0
  4  9  1  0  0  0  0
  4 16  2  0  0  0  0
  5 18  1  0  0  0  0
  6 20  1  0  0  0  0
  7 10  2  0  0  0  0
  7 19  1  0  0  0  0
  8 23  1  0  0  0  0
  9 23  2  0  0  0  0
 10 24  1  0  0  0  0
 11 12  2  0  0  0  0
 11 25  1  0  0  0  0
 12 26  1  0  0  0  0
 13 21  1  0  0  0  0
 13 24  2  0  0  0  0
 14 22  1  0  0  0  0
 14 30  2  0  0  0  0
 15 26  2  0  0  0  0
 15 27  1  0  0  0  0
 16 28  1  0  0  0  0
 17 28  1  0  0  0  0
 17 29  2  0  0  0  0
 17 33  1  0  0  0  0
 18 20  2  0  0  0  0
 18 40  1  0  0  0  0
 19 21  2  0  0  0  0
 19 41  1  0  0  0  0
 20 49  1  0  0  0  0
 21 42  1  0  0  0  0
 22 31  2  0  0  0  0
 22 66  1  0  0  0  0
 23 78  1  0  0  0  0
 24 79  1  0  0  0  0
 25 27  2  0  0  0  0
 25 78  1  0  0  0  0
 26 80  1  0  0  0  0
 27 81  1  0  0  0  0
 28 60  2  0  0  0  0
 29 61  1  0  0  0  0
 29 64  1  0  0  0  0
 30 67  1  0  0  0  0
 30 83  1  0  0  0  0
 31 82  1  0  0  0  0
 31 83  1  0  0  0  0
 32 34  2  0  0  0  0
 32 79  1  0  0  0  0
 33 65  1  0  0  0  0
 33 71  2  0  0  0  0
 34 35  1  0  0  0  0
 34 77  1  0  0  0  0
 35 67  1  0  0  0  0
 35 72  2  0  0  0  0
 36 50  1  0  0  0  0
 36 68  1  0  0  0  0
 36 73  2  0  0  0  0
 37 57  1  0  0  0  0
 37 62  1  0  0  0  0
 37 74  2  0  0  0  0
 38 58  1  0  0  0  0
 38 69  1  0  0  0  0
 38 75  2  0  0  0  0
 39 63  1  0  0  0  0
 39 66  1  0  0  0  0
 39 76  2  0  0  0  0
 40 43  1  0  0  0  0
 41 50  1  0  0  0  0
 42 62  1  0  0  0  0
 43 45  1  0  0  0  0
 44 46  1  0  0  0  0
 44 47  1  0  0  0  0
 45 49  1  0  0  0  0
 46 51  1  0  0  0  0
 47 63  1  0  0  0  0
 48 51  1  0  0  0  0
 48 63  1  0  0  0  0
 49 68  1  0  0  0  0
 50 62  1  0  0  0  0
 51 61  1  0  0  0  0
 52 58  1  0  0  0  0
 53 59  1  0  0  0  0
 54 59  1  0  0  0  0
 55 59  1  0  0  0  0
 56 70  1  0  0  0  0
 57 59  1  0  0  0  0
 57 69  1  0  0  0  0
 58 70  1  0  0  0  0
 60 61  1  0  0  0  0
M  CHG  1  70   1
M  ISO  4  32 101  39 100  66 100  79 101
M  END
> <Batch ID>
0166

> <Smiles>
CNC(C)C(=O)NC(C(=O)N1Cc2cc([101O:1][101CH2:1]C(=O)C(=O)Nc3cc([100NH:0][100C:0](=O)N4CCCC(n5nc(-c6ccc(Oc7ccc(F)cc7F)cc6)c(C(N)=O)c5N)C4)c(F)s3)ccc2CC1C(=O)NC1CCCc2ccccc21)C(C)(C)C

> <Shape>
0.246

> <Color>
0.111

> <Negative vol penalty>
0.000

$$$$

  -OEChem-04052304083D

 86 94  0     1  0  0  0  0  0999 V2000
  -26.9744  -38.6934   24.2717 C   0  0  0  0  0  0  0  0  0  0  0  0
  -27.6306  -37.8397   23.3908 C   0  0  0  0  0  0  0  0  0  0  0  0
  -24.5316   -8.3978   21.3704 C   0  0  0  0  0  0  0  0  0  0  0  0
  -24.1099  -10.1724   22.9548 C   0  0  0  0  0  0  0  0  0  0  0  0
  -26.2123  -38.1666   25.3137 C   0  0  0  0  0  0  0  0  0  0  0  0
  -27.5261  -36.4586   23.5521 C   0  0  0  0  0  0  0  0  0  0  0  0
  -27.3518  -30.3910   19.7480 C   0  0  0  0  0  0  0  0  0  0  0  0
  -24.0577   -7.4632   22.2910 C   0  0  0  0  0  0  0  0  0  0  0  0
  -23.6359   -9.2378   23.8754 C   0  0  0  0  0  0  0  0  0  0  0  0
  -27.9741  -29.1454   19.6781 C   0  0  0  0  0  0  0  0  0  0  0  0
  -21.0610   -6.3646   23.4072 C   0  0  0  0  0  0  0  0  0  0  0  0
  -20.1844   -5.3841   22.9427 C   0  0  0  0  0  0  0  0  0  0  0  0
  -27.0359  -18.4610   18.7147 C   0  0  0  0  0  0  0  0  0  0  0  0
  -26.5655  -28.3480   21.4668 C   0  0  0  0  0  0  0  0  0  0  0  0
  -21.7422   -3.6681   23.6252 C   0  0  0  0  0  0  0  0  0  0  0  0
  -29.3382  -18.6756   19.2715 C   0  0  0  0  0  0  0  0  0  0  0  0
  -24.5577   -9.7524   21.7023 C   0  0  0  0  0  0  0  0  0  0  0  0
  -26.9352  -19.8478   18.7267 C   0  0  0  0  0  0  0  0  0  0  0  0
  -24.3000  -11.4090   19.7796 C   0  0  0  0  0  0  0  0  0  0  0  0
  -26.0905  -36.7782   25.4820 C   0  0  0  0  0  0  0  0  0  0  0  0
  -26.3375  -30.6283   20.6868 C   0  0  0  0  0  0  0  0  0  0  0  0
  -26.7628  -35.9127   24.5981 C   0  0  0  0  0  0  0  0  0  0  0  0
  -25.9302  -29.5968   21.5448 C   0  0  0  0  0  0  0  0  0  0  0  0
  -28.2568  -17.8559   18.9913 C   0  0  0  0  0  0  0  0  0  0  0  0
  -23.6098   -7.8832   23.5435 C   0  0  0  0  0  0  0  0  0  0  0  0
  -27.5830  -28.1245   20.5395 C   0  0  0  0  0  0  0  0  0  0  0  0
  -22.2782   -5.9969   23.9806 C   0  0  0  0  0  0  0  0  0  0  0  0
  -20.5250   -4.0358   23.0517 C   0  0  0  0  0  0  0  0  0  0  0  0
  -22.6188   -4.6487   24.0896 C   0  0  0  0  0  0  0  0  0  0  0  0
  -25.0477  -10.7183   20.7520 C   0  0  0  0  0  0  0  0  0  0  0  0
  -28.0757  -20.5783   19.0190 C   0  0  0  0  0  0  0  0  0  0  0  0
  -25.2201  -12.2016   19.1380 C   0  0  0  0  0  0  0  0  0  0  0  0
  -25.6522  -20.4727   18.4355 C   0  0  0  0  0  0  0  0  0  0  0  0
  -22.8989  -11.3404   19.4829 C   0  0  0  0  0  0  0  0  0  0  0  0
  -25.9784  -32.6051   23.1499 C   0  0  0  0  0  0  0  0  0  0  0  0
  -28.6451  -24.2841   19.2540 C   0  0  0  0  0  0  0  0  0  0  0  0
  -22.9757  -31.3787   23.1953 C   0  0  0  0  0  0  0  0  0  0  0  0
  -20.8869  -28.8002   22.3983 C   0  0  0  0  0  0  0  0  0  0  0  0
  -29.5457  -15.7061   19.2433 C   0  0  0  0  0  0  0  0  0  0  0  0
  -25.2942  -36.2559   26.6515 C   0  0  0  0  0  0  0  0  0  0  0  0
  -25.6578  -31.9693   20.7314 C   0  0  0  0  0  0  0  0  0  0  0  0
  -24.8323  -29.7942   22.5568 C   0  0  0  0  0  0  0  0  0  0  0  0
  -24.9294  -34.7787   26.5288 C   0  0  0  0  0  0  0  0  0  0  0  0
  -30.2767  -12.2236   19.3652 C   0  0  0  0  0  0  0  0  0  0  0  0
  -26.1451  -33.9623   26.1015 C   0  0  0  0  0  0  0  0  0  0  0  0
  -28.9200  -11.5783   19.6569 C   0  0  0  0  0  0  0  0  0  0  0  0
  -30.4423  -13.5527   20.1000 C   0  0  0  0  0  0  0  0  0  0  0  0
  -28.0010  -13.8742   20.1781 C   0  0  0  0  0  0  0  0  0  0  0  0
  -26.6534  -34.4087   24.7254 C   0  0  1  0  0  0  0  0  0  0  0  0
  -24.9904  -32.2565   22.0729 C   0  0  1  0  0  0  0  0  0  0  0  0
  -27.7619  -12.5646   19.4089 C   0  0  2  0  0  0  0  0  0  0  0  0
  -24.7233  -19.7451   17.5092 C   0  0  0  0  0  0  0  0  0  0  0  0
  -18.4944  -28.0697   22.5972 C   0  0  0  0  0  0  0  0  0  0  0  0
  -23.4250  -30.7172   26.1398 C   0  0  0  0  0  0  0  0  0  0  0  0
  -21.4498  -29.1830   26.0246 C   0  0  0  0  0  0  0  0  0  0  0  0
  -21.1559  -31.6250   25.6090 C   0  0  0  0  0  0  0  0  0  0  0  0
  -20.5594  -28.6755   19.4596 C   0  0  0  0  0  0  0  0  0  0  0  0
  -29.7303  -25.3151   19.5348 C   0  0  0  0  0  0  0  0  0  0  0  0
  -29.0911  -22.8373   19.3214 C   0  0  0  0  0  0  0  0  0  0  0  0
  -29.2183  -26.7469   19.4986 C   0  0  0  0  0  0  0  0  0  1  0  0
  -22.3116  -30.2018   23.8681 C   0  0  1  0  0  0  0  0  0  0  0  0
  -19.5239  -28.7776   21.7303 C   0  0  2  0  0  0  0  0  0  0  0  0
  -22.1076  -30.4283   25.3928 C   0  0  0  0  0  0  0  0  0  0  0  0
  -29.2789  -20.0260   19.2925 N   0  0  0  0  0  0  0  0  0  0  0  0
  -26.3431  -11.0434   20.7333 N   0  0  0  0  0  0  0  0  0  0  0  0
  -26.4165  -11.9471   19.7413 N   0  0  0  0  0  0  0  0  0  0  0  0
  -24.2026  -31.1250   22.5660 N   0  0  0  0  0  0  0  0  0  0  0  0
  -29.3107  -14.4374   19.8143 N   0  0  0  0  0  0  0  0  0  0  0  0
  -25.1144  -13.0844   18.1221 N   0  0  0  0  0  0  0  0  0  0  0  0
  -22.0975  -10.4740   20.2388 N   0  0  0  0  0  0  0  0  0  0  0  0
  -28.3915  -16.4454   18.9863 N   0  0  0  0  0  0  0  0  0  0  0  0
  -27.9829  -21.9623   19.0330 N   0  0  0  0  0  0  0  0  0  0  0  0
  -25.8124  -33.8715   23.6773 N   0  0  0  0  0  0  0  0  0  0  0  0
  -21.0776  -29.9528   23.1307 N   0  0  0  0  0  0  0  0  0  0  0  0
  -19.6008  -28.0713   20.4203 N   0  3  0  0  0  0  0  0  0  0  0  0
  -25.2765  -21.5544   18.8890 O   0  0  0  0  0  0  0  0  0  0  0  0
  -22.3761  -12.0148   18.5634 O   0  0  0  0  0  0  0  0  0  0  0  0
  -26.8275  -31.7851   23.4792 O   0  0  0  0  0  0  0  0  0  0  0  0
  -27.4873  -24.6048   18.9889 O   0  0  0  0  0  0  0  0  0  0  0  0
  -22.4226  -32.4810   23.2208 O   0  0  0  0  0  0  0  0  0  0  0  0
  -21.6995  -27.8851   22.2850 O   0  0  0  0  0  0  0  0  0  0  0  0
  -30.6849  -16.0961   18.9751 O   0  0  0  0  0  0  0  0  0  0  0  0
  -23.1471   -6.9715   24.4420 O   0  0  0  0  0  0  0  0  0  0  0  0
  -28.1891  -26.9079   20.4739 O   0  0  0  0  0  0  0  0  0  1  0  0
  -19.6824   -3.0943   22.6070 F   0  0  0  0  0  0  0  0  0  0  0  0
  -23.7863   -4.2893   24.6407 F   0  0  0  0  0  0  0  0  0  0  0  0
  1  2  1  0  0  0  0
  1  5  2  0  0  0  0
  2  6  2  0  0  0  0
  3  8  2  0  0  0  0
  3 17  1  0  0  0  0
  4  9  1  0  0  0  0
  4 17  2  0  0  0  0
  5 20  1  0  0  0  0
  6 22  1  0  0  0  0
  7 10  2  0  0  0  0
  7 21  1  0  0  0  0
  8 25  1  0  0  0  0
  9 25  2  0  0  0  0
 10 26  1  0  0  0  0
 11 12  2  0  0  0  0
 11 27  1  0  0  0  0
 12 28  1  0  0  0  0
 13 18  1  0  0  0  0
 13 24  2  0  0  0  0
 14 23  1  0  0  0  0
 14 26  2  0  0  0  0
 15 28  2  0  0  0  0
 15 29  1  0  0  0  0
 16 24  1  0  0  0  0
 16 64  2  0  0  0  0
 17 30  1  0  0  0  0
 18 31  2  0  0  0  0
 18 33  1  0  0  0  0
 19 30  1  0  0  0  0
 19 32  2  0  0  0  0
 19 34  1  0  0  0  0
 20 22  2  0  0  0  0
 20 40  1  0  0  0  0
 21 23  2  0  0  0  0
 21 41  1  0  0  0  0
 22 49  1  0  0  0  0
 23 42  1  0  0  0  0
 24 71  1  0  0  0  0
 25 83  1  0  0  0  0
 26 84  1  0  0  0  0
 27 29  2  0  0  0  0
 27 83  1  0  0  0  0
 28 85  1  0  0  0  0
 29 86  1  0  0  0  0
 30 65  2  0  0  0  0
 31 64  1  0  0  0  0
 31 72  1  0  0  0  0
 32 66  1  0  0  0  0
 32 69  1  0  0  0  0
 33 52  1  0  0  0  0
 33 76  2  0  0  0  0
 34 70  1  0  0  0  0
 34 77  2  0  0  0  0
 35 50  1  0  0  0  0
 35 73  1  0  0  0  0
 35 78  2  0  0  0  0
 36 58  1  0  0  0  0
 36 59  1  0  0  0  0
 36 79  2  0  0  0  0
 37 61  1  0  0  0  0
 37 67  1  0  0  0  0
 37 80  2  0  0  0  0
 38 62  1  0  0  0  0
 38 74  1  0  0  0  0
 38 81  2  0  0  0  0
 39 68  1  0  0  0  0
 39 71  1  0  0  0  0
 39 82  2  0  0  0  0
 40 43  1  0  0  0  0
 41 50  1  0  0  0  0
 42 67  1  0  0  0  0
 43 45  1  0  0  0  0
 44 46  1  0  0  0  0
 44 47  1  0  0  0  0
 45 49  1  0  0  0  0
 46 51  1  0  0  0  0
 47 68  1  0  0  0  0
 48 51  1  0  0  0  0
 48 68  1  0  0  0  0
 49 73  1  0  0  0  0
 50 67  1  0  0  0  0
 51 66  1  0  0  0  0
 53 62  1  0  0  0  0
 54 63  1  0  0  0  0
 55 63  1  0  0  0  0
 56 63  1  0  0  0  0
 57 75  1  0  0  0  0
 58 60  1  0  0  0  0
 59 72  1  0  0  0  0
 60 84  1  0  0  0  0
 61 63  1  0  0  0  0
 61 74  1  0  0  0  0
 62 75  1  0  0  0  0
 65 66  1  0  0  0  0
M  CHG  1  75   1
M  ISO  4  39 100  60 101  71 100  84 101
M  END
> <Batch ID>
0166

> <Smiles>
CNC(C)C(=O)NC(C(=O)N1Cc2cc([101O:1][101CH2:1]CC(=O)CNc3ncc([100NH:0][100C:0](=O)N4CCCC(n5nc(-c6ccc(Oc7ccc(F)cc7F)cc6)c(C(N)=O)c5N)C4)cc3C(C)=O)ccc2CC1C(=O)NC1CCCc2ccccc21)C(C)(C)C

> <Shape>
0.342

> <Color>
0.105

> <Negative vol penalty>
0.000

$$$$

  -OEChem-04052304083D

 86 94  0     1  0  0  0  0  0999 V2000
  -28.8601  -33.2854   26.1241 C   0  0  0  0  0  0  0  0  0  0  0  0
  -28.8103  -32.0693   25.4504 C   0  0  0  0  0  0  0  0  0  0  0  0
  -24.1575   -8.5869   20.7373 C   0  0  0  0  0  0  0  0  0  0  0  0
  -23.1595  -10.7829   20.8739 C   0  0  0  0  0  0  0  0  0  0  0  0
  -27.6780  -33.9188   26.5054 C   0  0  0  0  0  0  0  0  0  0  0  0
  -27.5782  -31.4853   25.1585 C   0  0  0  0  0  0  0  0  0  0  0  0
  -27.3406  -29.7169   20.4191 C   0  0  0  0  0  0  0  0  0  0  0  0
  -23.2120   -8.1010   21.6404 C   0  0  0  0  0  0  0  0  0  0  0  0
  -22.2140  -10.2970   21.7770 C   0  0  0  0  0  0  0  0  0  0  0  0
  -27.9704  -28.5000   20.1613 C   0  0  0  0  0  0  0  0  0  0  0  0
  -22.7025   -8.1529   24.9813 C   0  0  0  0  0  0  0  0  0  0  0  0
  -23.1560   -7.3344   26.0156 C   0  0  0  0  0  0  0  0  0  0  0  0
  -25.8399  -27.3763   20.2937 C   0  0  0  0  0  0  0  0  0  0  0  0
  -27.6839  -17.5406   20.6998 C   0  0  0  0  0  0  0  0  0  0  0  0
  -29.9498  -17.3604   21.5185 C   0  0  0  0  0  0  0  0  0  0  0  0
  -21.7370   -5.5468   25.2232 C   0  0  0  0  0  0  0  0  0  0  0  0
  -24.1313   -9.9279   20.3541 C   0  0  0  0  0  0  0  0  0  0  0  0
  -25.0023  -10.4700   18.0185 C   0  0  0  0  0  0  0  0  0  0  0  0
  -26.4306  -33.3470   26.2095 C   0  0  0  0  0  0  0  0  0  0  0  0
  -25.9550  -29.7711   20.6273 C   0  0  0  0  0  0  0  0  0  0  0  0
  -26.3783  -32.1109   25.5373 C   0  0  0  0  0  0  0  0  0  0  0  0
  -25.1947  -28.5954   20.5514 C   0  0  0  0  0  0  0  0  0  0  0  0
  -27.5678  -18.7956   21.2972 C   0  0  0  0  0  0  0  0  0  0  0  0
  -28.6427  -19.3331   22.0053 C   0  0  0  0  0  0  0  0  0  0  0  0
  -28.8749  -16.8229   20.8104 C   0  0  0  0  0  0  0  0  0  0  0  0
  -22.2402   -8.9560   22.1602 C   0  0  0  0  0  0  0  0  0  0  0  0
  -27.2205  -27.3291   20.1013 C   0  0  0  0  0  0  0  0  0  0  0  0
  -21.7661   -7.6685   24.0680 C   0  0  0  0  0  0  0  0  0  0  0  0
  -22.6733   -6.0313   26.1365 C   0  0  0  0  0  0  0  0  0  0  0  0
  -29.8337  -18.6155   22.1160 C   0  0  0  0  0  0  0  0  0  0  0  0
  -21.2834   -6.3654   24.1889 C   0  0  0  0  0  0  0  0  0  0  0  0
  -25.1081  -10.4306   19.4217 C   0  0  0  0  0  0  0  0  0  0  0  0
  -26.1832  -11.0336   17.6009 C   0  0  0  0  0  0  0  0  0  0  0  0
  -27.7318  -25.1533   20.7907 C   0  0  0  0  0  0  0  0  0  1  0  0
  -23.9323  -10.0361   17.1685 C   0  0  0  0  0  0  0  0  0  0  0  0
  -28.2635  -23.9228   20.7231 C   0  0  0  0  0  0  0  0  0  0  0  0
  -28.0270  -22.9917   21.8725 C   0  0  0  0  0  0  0  0  0  0  0  0
  -24.0822  -30.6383   23.0449 C   0  0  0  0  0  0  0  0  0  0  0  0
  -21.7186  -30.1575   20.8758 C   0  0  0  0  0  0  0  0  0  0  0  0
  -20.6808  -28.6090   18.0172 C   0  0  0  0  0  0  0  0  0  0  0  0
  -30.1043  -14.7054   20.2177 C   0  0  0  0  0  0  0  0  0  0  0  0
  -25.1809  -34.0457   26.6836 C   0  0  0  0  0  0  0  0  0  0  0  0
  -25.2870  -31.0953   20.8780 C   0  0  0  0  0  0  0  0  0  0  0  0
  -23.7014  -28.6026   20.7476 C   0  0  0  0  0  0  0  0  0  0  0  0
  -23.9084  -33.5445   26.0056 C   0  0  0  0  0  0  0  0  0  0  0  0
  -30.7780  -11.4771   18.8758 C   0  0  0  0  0  0  0  0  0  0  0  0
  -23.8806  -32.0195   25.9832 C   0  0  0  0  0  0  0  0  0  0  0  0
  -29.3904  -10.8482   18.7301 C   0  0  0  0  0  0  0  0  0  0  0  0
  -30.8783  -12.3458   20.1284 C   0  0  0  0  0  0  0  0  0  0  0  0
  -28.4467  -12.7415   20.1129 C   0  0  0  0  0  0  0  0  0  0  0  0
  -25.0605  -31.4579   25.1807 C   0  0  1  0  0  0  0  0  0  0  0  0
  -23.9414  -30.9616   21.5843 C   0  0  1  0  0  0  0  0  0  0  0  0
  -28.2773  -11.9095   18.8312 C   0  0  2  0  0  0  0  0  0  0  0  0
  -26.2831  -19.5457   21.1649 C   0  0  0  0  0  0  0  0  0  0  0  0
  -18.6849  -28.3818   16.5132 C   0  0  0  0  0  0  0  0  0  0  0  0
  -20.3992  -28.3057   22.9105 C   0  0  0  0  0  0  0  0  0  0  0  0
  -18.9803  -27.3966   21.0589 C   0  0  0  0  0  0  0  0  0  0  0  0
  -18.8170  -29.8057   21.6853 C   0  0  0  0  0  0  0  0  0  0  0  0
  -22.1498  -29.7302   15.7055 C   0  0  0  0  0  0  0  0  0  0  0  0
  -28.5385  -20.6828   22.6547 C   0  0  0  0  0  0  0  0  0  0  0  0
  -20.8700  -28.9792   20.4629 C   0  0  1  0  0  0  0  0  0  0  0  0
  -19.9748  -29.1407   16.7829 C   0  0  2  0  0  0  0  0  0  0  0  0
  -19.7950  -28.6210   21.5276 C   0  0  0  0  0  0  0  0  0  0  0  0
  -26.2648  -10.9292   19.8659 N   0  0  0  0  0  0  0  0  0  0  0  0
  -26.8968  -11.2873   18.7351 N   0  0  0  0  0  0  0  0  0  0  0  0
  -23.0954  -29.9212   20.9962 N   0  0  0  0  0  0  0  0  0  0  0  0
  -29.7944  -13.3304   20.1539 N   0  0  0  0  0  0  0  0  0  0  0  0
  -26.6704  -11.3319   16.3777 N   0  0  0  0  0  0  0  0  0  0  0  0
  -22.7911   -9.4797   17.7622 N   0  0  0  0  0  0  0  0  0  0  0  0
  -28.9932  -15.5481   20.2034 N   0  0  0  0  0  0  0  0  0  0  0  0
  -28.6225  -21.7555   21.6893 N   0  0  0  0  0  0  0  0  0  0  0  0
  -24.8061  -31.5726   23.7607 N   0  0  0  0  0  0  0  0  0  0  0  0
  -20.3246  -29.3089   19.1506 N   0  0  0  0  0  0  0  0  0  0  0  0
  -20.8548  -29.0119   15.5871 N   0  3  0  0  0  0  0  0  0  0  0  0
  -23.9934  -10.1237   15.9187 O   0  0  0  0  0  0  0  0  0  0  0  0
  -27.3693  -23.3200   22.8560 O   0  0  0  0  0  0  0  0  0  0  0  0
  -23.5705  -29.6176   23.4898 O   0  0  0  0  0  0  0  0  0  0  0  0
  -21.1807  -31.2492   21.0770 O   0  0  0  0  0  0  0  0  0  0  0  0
  -21.4665  -27.6647   17.9802 O   0  0  0  0  0  0  0  0  0  0  0  0
  -31.2702  -15.1070   20.2530 O   0  0  0  0  0  0  0  0  0  0  0  0
  -29.0127  -23.4580   19.6645 O   0  0  0  0  0  0  0  0  0  0  0  0
  -21.3173   -8.4822   23.0412 O   0  0  0  0  0  0  0  0  0  0  0  0
  -27.8327  -26.1399   19.8505 O   0  0  0  0  0  0  0  0  0  1  0  0
  -23.1102   -5.2448   27.1289 F   0  0  0  0  0  0  0  0  0  0  0  0
  -30.8735  -19.1241   22.7920 F   0  0  0  0  0  0  0  0  0  0  0  0
  -20.3846   -5.8941   23.3138 F   0  0  0  0  0  0  0  0  0  0  0  0
  1  2  1  0  0  0  0
  1  5  2  0  0  0  0
  2  6  2  0  0  0  0
  3  8  2  0  0  0  0
  3 17  1  0  0  0  0
  4  9  1  0  0  0  0
  4 17  2  0  0  0  0
  5 19  1  0  0  0  0
  6 21  1  0  0  0  0
  7 10  2  0  0  0  0
  7 20  1  0  0  0  0
  8 26  1  0  0  0  0
  9 26  2  0  0  0  0
 10 27  1  0  0  0  0
 11 12  2  0  0  0  0
 11 28  1  0  0  0  0
 12 29  1  0  0  0  0
 13 22  1  0  0  0  0
 13 27  2  0  0  0  0
 14 23  2  0  0  0  0
 14 25  1  0  0  0  0
 15 25  2  0  0  0  0
 15 30  1  0  0  0  0
 16 29  2  0  0  0  0
 16 31  1  0  0  0  0
 17 32  1  0  0  0  0
 18 32  1  0  0  0  0
 18 33  2  0  0  0  0
 18 35  1  0  0  0  0
 19 21  2  0  0  0  0
 19 42  1  0  0  0  0
 20 22  2  0  0  0  0
 20 43  1  0  0  0  0
 21 51  1  0  0  0  0
 22 44  1  0  0  0  0
 23 24  1  0  0  0  0
 23 54  1  0  0  0  0
 24 30  2  0  0  0  0
 24 60  1  0  0  0  0
 25 70  1  0  0  0  0
 26 82  1  0  0  0  0
 27 83  1  0  0  0  0
 28 31  2  0  0  0  0
 28 82  1  0  0  0  0
 29 84  1  0  0  0  0
 30 85  1  0  0  0  0
 31 86  1  0  0  0  0
 32 64  2  0  0  0  0
 33 65  1  0  0  0  0
 33 68  1  0  0  0  0
 34 36  2  0  0  0  0
 34 83  1  0  0  0  0
 35 69  1  0  0  0  0
 35 75  2  0  0  0  0
 36 37  1  0  0  0  0
 36 81  1  0  0  0  0
 37 71  1  0  0  0  0
 37 76  2  0  0  0  0
 38 52  1  0  0  0  0
 38 72  1  0  0  0  0
 38 77  2  0  0  0  0
 39 61  1  0  0  0  0
 39 66  1  0  0  0  0
 39 78  2  0  0  0  0
 40 62  1  0  0  0  0
 40 73  1  0  0  0  0
 40 79  2  0  0  0  0
 41 67  1  0  0  0  0
 41 70  1  0  0  0  0
 41 80  2  0  0  0  0
 42 45  1  0  0  0  0
 43 52  1  0  0  0  0
 44 66  1  0  0  0  0
 45 47  1  0  0  0  0
 46 48  1  0  0  0  0
 46 49  1  0  0  0  0
 47 51  1  0  0  0  0
 48 53  1  0  0  0  0
 49 67  1  0  0  0  0
 50 53  1  0  0  0  0
 50 67  1  0  0  0  0
 51 72  1  0  0  0  0
 52 66  1  0  0  0  0
 53 65  1  0  0  0  0
 55 62  1  0  0  0  0
 56 63  1  0  0  0  0
 57 63  1  0  0  0  0
 58 63  1  0  0  0  0
 59 74  1  0  0  0  0
 60 71  1  0  0  0  0
 61 63  1  0  0  0  0
 61 73  1  0  0  0  0
 62 74  1  0  0  0  0
 64 65  1  0  0  0  0
M  CHG  1  74   1
M  ISO  4  34 101  41 100  70 100  83 101
M  END
> <Batch ID>
0166

> <Smiles>
CNC(C)C(=O)NC(C(=O)N1Cc2cc([101O:1][101CH2:1]C(=O)C(=O)NCc3c(C)cc([100NH:0][100C:0](=O)N4CCCC(n5nc(-c6ccc(Oc7ccc(F)cc7F)cc6)c(C(N)=O)c5N)C4)cc3F)ccc2CC1C(=O)NC1CCCc2ccccc21)C(C)(C)C

> <Shape>
0.311

> <Color>
0.093

> <Negative vol penalty>
0.000

$$$$

  -OEChem-04052304083D

 87 96  0     1  0  0  0  0  0999 V2000
  -25.0866  -30.9075   24.9316 C   0  0  0  0  0  0  0  0  0  0  0  0
  -25.2685  -29.5378   24.7697 C   0  0  0  0  0  0  0  0  0  0  0  0
  -23.2495  -10.1422   22.1621 C   0  0  0  0  0  0  0  0  0  0  0  0
  -23.5111   -9.5569   19.8327 C   0  0  0  0  0  0  0  0  0  0  0  0
  -23.8700  -31.3968   25.4055 C   0  0  0  0  0  0  0  0  0  0  0  0
  -24.2343  -28.6564   25.0825 C   0  0  0  0  0  0  0  0  0  0  0  0
  -23.5972  -25.0788   21.5555 C   0  0  0  0  0  0  0  0  0  0  0  0
  -22.4878   -8.9916   22.3657 C   0  0  0  0  0  0  0  0  0  0  0  0
  -22.7494   -8.4063   20.0363 C   0  0  0  0  0  0  0  0  0  0  0  0
  -24.4965  -24.0135   21.5595 C   0  0  0  0  0  0  0  0  0  0  0  0
  -23.0384   -5.6831   22.7942 C   0  0  0  0  0  0  0  0  0  0  0  0
  -23.3167   -4.9128   23.9232 C   0  0  0  0  0  0  0  0  0  0  0  0
  -22.8689  -22.6515   22.7061 C   0  0  0  0  0  0  0  0  0  0  0  0
  -21.0573   -5.2496   24.7099 C   0  0  0  0  0  0  0  0  0  0  0  0
  -31.8440  -17.3851   21.9068 C   0  0  0  0  0  0  0  0  0  0  0  0
  -23.7612  -10.4249   20.8956 C   0  0  0  0  0  0  0  0  0  0  0  0
  -24.1436  -12.9471   20.8854 C   0  0  0  0  0  0  0  0  0  0  0  0
  -22.8170  -30.5215   25.7151 C   0  0  0  0  0  0  0  0  0  0  0  0
  -22.3287  -24.9416   22.1375 C   0  0  0  0  0  0  0  0  0  0  0  0
  -23.0029  -29.1343   25.5622 C   0  0  0  0  0  0  0  0  0  0  0  0
  -21.9543  -23.7157   22.7059 C   0  0  0  0  0  0  0  0  0  0  0  0
  -22.2377   -8.1237   21.3028 C   0  0  0  0  0  0  0  0  0  0  0  0
  -24.1335  -22.8005   22.1374 C   0  0  0  0  0  0  0  0  0  0  0  0
  -21.7696   -6.2368   22.6230 C   0  0  0  0  0  0  0  0  0  0  0  0
  -22.3261   -4.6960   24.8810 C   0  0  0  0  0  0  0  0  0  0  0  0
  -20.7790   -6.0200   23.5808 C   0  0  0  0  0  0  0  0  0  0  0  0
  -24.5477  -11.6136   20.6846 C   0  0  0  0  0  0  0  0  0  0  0  0
  -25.2450  -13.6944   20.5464 C   0  0  0  0  0  0  0  0  0  0  0  0
  -30.6322  -16.7531   22.0921 C   0  0  0  0  0  0  0  0  0  0  0  0
  -30.9190  -18.8374   23.2653 C   0  0  0  0  0  0  0  0  0  0  0  0
  -22.8852  -13.4640   21.3381 C   0  0  0  0  0  0  0  0  0  0  0  0
  -20.8026  -26.3449   24.5469 C   0  0  0  0  0  0  0  0  0  0  0  0
  -27.1813  -20.9873   22.8792 C   0  0  0  0  0  0  0  0  0  0  0  0
  -18.3079  -24.5579   23.4953 C   0  0  0  0  0  0  0  0  0  0  0  0
  -17.7992  -21.1928   22.2976 C   0  0  0  0  0  0  0  0  0  0  0  0
  -30.7290  -14.6428   20.7197 C   0  0  0  0  0  0  0  0  0  0  0  0
  -21.5363  -31.0940   26.2690 C   0  0  0  0  0  0  0  0  0  0  0  0
  -21.3603  -26.0919   22.1013 C   0  0  0  0  0  0  0  0  0  0  0  0
  -20.5970  -23.5107   23.3258 C   0  0  0  0  0  0  0  0  0  0  0  0
  -20.3628  -30.1188   26.2222 C   0  0  0  0  0  0  0  0  0  0  0  0
  -30.1014  -19.3417   26.5582 C   0  0  0  0  0  0  0  0  0  0  0  0
  -29.5558  -12.3559   18.2558 C   0  0  0  0  0  0  0  0  0  0  0  0
  -29.0103  -20.4010   26.6905 C   0  0  0  0  0  0  0  0  0  0  0  0
  -20.7870  -28.7479   26.7395 C   0  0  0  0  0  0  0  0  0  0  0  0
  -28.1151  -12.0686   18.6845 C   0  0  0  0  0  0  0  0  0  0  0  0
  -31.2054  -19.7788   25.6012 C   0  0  0  0  0  0  0  0  0  0  0  0
  -30.4842  -12.5158   19.4584 C   0  0  0  0  0  0  0  0  0  0  0  0
  -28.6007  -13.2083   20.8873 C   0  0  0  0  0  0  0  0  0  0  0  0
  -28.8580  -21.2934   25.4654 C   0  0  0  0  0  0  0  0  0  0  0  0
  -21.8964  -28.1481   25.8672 C   0  0  1  0  0  0  0  0  0  0  0  0
  -20.2844  -26.0013   23.1791 C   0  0  1  0  0  0  0  0  0  0  0  0
  -27.6157  -13.1037   19.7116 C   0  0  2  0  0  0  0  0  0  0  0  0
  -30.7157  -20.0891   24.1496 C   0  0  1  0  0  0  0  0  0  0  0  0
  -31.5266  -21.3136   23.6458 C   0  0  0  0  0  0  0  0  0  0  0  0
  -16.0598  -20.2577   20.7493 C   0  0  0  0  0  0  0  0  0  0  0  0
  -16.7931  -23.9018   26.0614 C   0  0  0  0  0  0  0  0  0  0  0  0
  -16.0646  -21.7546   24.9998 C   0  0  0  0  0  0  0  0  0  0  0  0
  -15.3825  -23.9342   23.9965 C   0  0  0  0  0  0  0  0  0  0  0  0
  -19.8507  -20.0724   20.4823 C   0  0  0  0  0  0  0  0  0  0  0  0
  -28.6725  -21.1742   22.9761 C   0  0  0  0  0  0  0  0  0  0  0  0
  -26.3997  -22.0803   22.1791 C   0  0  0  0  0  0  0  0  0  1  0  0
  -17.7848  -23.1732   23.7917 C   0  0  1  0  0  0  0  0  0  0  0  0
  -17.4852  -20.7731   20.8729 C   0  0  2  0  0  0  0  0  0  0  0  0
  -16.5339  -23.1972   24.7148 C   0  0  0  0  0  0  0  0  0  0  0  0
  -32.0101  -18.5806   22.5784 N   0  0  0  0  0  0  0  0  0  0  0  0
  -25.8074  -11.5162   20.2513 N   0  0  0  0  0  0  0  0  0  0  0  0
  -26.2044  -12.7980   20.1771 N   0  0  0  0  0  0  0  0  0  0  0  0
  -19.6877  -24.6672   23.2712 N   0  0  0  0  0  0  0  0  0  0  0  0
  -29.9494  -13.5151   20.3858 N   0  0  0  0  0  0  0  0  0  0  0  0
  -25.4767  -15.0242   20.5311 N   0  0  0  0  0  0  0  0  0  0  0  0
  -21.9024  -13.7603   20.3838 N   0  0  0  0  0  0  0  0  0  0  0  0
  -30.1036  -15.5405   21.5843 N   0  0  0  0  0  0  0  0  0  0  0  0
  -21.3423  -27.6134   24.6418 N   0  0  0  0  0  0  0  0  0  0  0  0
  -17.5610  -22.5360   22.4985 N   0  0  0  0  0  0  0  0  0  0  0  0
  -29.2082  -20.5129   24.2218 N   0  3  2  0  0  0  0  0  0  0  0  0
  -18.4148  -19.6941   20.4340 N   0  3  0  0  0  0  0  0  0  0  0  0
  -22.6455  -13.6728   22.5516 O   0  0  0  0  0  0  0  0  0  0  0  0
  -20.7176  -25.5208   25.4498 O   0  0  0  0  0  0  0  0  0  0  0  0
  -26.6328  -20.0000   23.3686 O   0  0  0  0  0  0  0  0  0  0  0  0
  -17.5203  -25.5065   23.4569 O   0  0  0  0  0  0  0  0  0  0  0  0
  -18.2109  -20.4070   23.1482 O   0  0  0  0  0  0  0  0  0  0  0  0
  -31.8569  -14.8141   20.2502 O   0  0  0  0  0  0  0  0  0  0  0  0
  -21.4946   -7.0007   21.5012 O   0  0  0  0  0  0  0  0  0  0  0  0
  -25.0097  -21.7593   22.1431 O   0  0  0  0  0  0  0  0  0  1  0  0
  -22.5931   -3.9549   25.9644 F   0  0  0  0  0  0  0  0  0  0  0  0
  -19.5579   -6.5483   23.4213 F   0  0  0  0  0  0  0  0  0  0  0  0
  -29.6540  -17.6835   23.1498 S   0  0  0  0  0  0  0  0  0  0  0  0
  1  2  1  0  0  0  0
  1  5  2  0  0  0  0
  2  6  2  0  0  0  0
  3  8  2  0  0  0  0
  3 16  1  0  0  0  0
  4  9  1  0  0  0  0
  4 16  2  0  0  0  0
  5 18  1  0  0  0  0
  6 20  1  0  0  0  0
  7 10  2  0  0  0  0
  7 19  1  0  0  0  0
  8 22  1  0  0  0  0
  9 22  2  0  0  0  0
 10 23  1  0  0  0  0
 11 12  2  0  0  0  0
 11 24  1  0  0  0  0
 12 25  1  0  0  0  0
 13 21  1  0  0  0  0
 13 23  2  0  0  0  0
 14 25  2  0  0  0  0
 14 26  1  0  0  0  0
 15 29  2  0  0  0  0
 15 65  1  0  0  0  0
 16 27  1  0  0  0  0
 17 27  1  0  0  0  0
 17 28  2  0  0  0  0
 17 31  1  0  0  0  0
 18 20  2  0  0  0  0
 18 37  1  0  0  0  0
 19 21  2  0  0  0  0
 19 38  1  0  0  0  0
 20 50  1  0  0  0  0
 21 39  1  0  0  0  0
 22 83  1  0  0  0  0
 23 84  1  0  0  0  0
 24 26  2  0  0  0  0
 24 83  1  0  0  0  0
 25 85  1  0  0  0  0
 26 86  1  0  0  0  0
 27 66  2  0  0  0  0
 28 67  1  0  0  0  0
 28 70  1  0  0  0  0
 29 72  1  0  0  0  0
 29 87  1  0  0  0  0
 30 53  1  0  0  0  0
 30 65  2  0  0  0  0
 30 87  1  0  0  0  0
 31 71  1  0  0  0  0
 31 77  2  0  0  0  0
 32 51  1  0  0  0  0
 32 73  1  0  0  0  0
 32 78  2  0  0  0  0
 33 60  1  0  0  0  0
 33 61  1  0  0  0  0
 33 79  2  0  0  0  0
 34 62  1  0  0  0  0
 34 68  1  0  0  0  0
 34 80  2  0  0  0  0
 35 63  1  0  0  0  0
 35 74  1  0  0  0  0
 35 81  2  0  0  0  0
 36 69  1  0  0  0  0
 36 72  1  0  0  0  0
 36 82  2  0  0  0  0
 37 40  1  0  0  0  0
 38 51  1  0  0  0  0
 39 68  1  0  0  0  0
 40 44  1  0  0  0  0
 41 43  1  0  0  0  0
 41 46  1  0  0  0  0
 42 45  1  0  0  0  0
 42 47  1  0  0  0  0
 43 49  1  0  0  0  0
 44 50  1  0  0  0  0
 45 52  1  0  0  0  0
 46 53  1  0  0  0  0
 47 69  1  0  0  0  0
 48 52  1  0  0  0  0
 48 69  1  0  0  0  0
 49 75  1  0  0  0  0
 50 73  1  0  0  0  0
 51 68  1  0  0  0  0
 52 67  1  0  0  0  0
 53 54  1  0  0  0  0
 53 75  1  0  0  0  0
 55 63  1  0  0  0  0
 56 64  1  0  0  0  0
 57 64  1  0  0  0  0
 58 64  1  0  0  0  0
 59 76  1  0  0  0  0
 60 75  1  0  0  0  0
 61 84  1  0  0  0  0
 62 64  1  0  0  0  0
 62 74  1  0  0  0  0
 63 76  1  0  0  0  0
 66 67  1  0  0  0  0
M  CHG  2  75   1  76   1
M  ISO  4  36 100  61 101  72 100  84 101
M  END
> <Batch ID>
0166

> <Smiles>
CNC(C)C(=O)NC(C(=O)N1Cc2cc([101O:1][101CH2:1]C(=O)CN3CCCCC3(C)c3ncc([100NH:0][100C:0](=O)N4CCCC(n5nc(-c6ccc(Oc7ccc(F)cc7F)cc6)c(C(N)=O)c5N)C4)s3)ccc2CC1C(=O)NC1CCCc2ccccc21)C(C)(C)C

> <Shape>
0.210

> <Color>
0.166

> <Negative vol penalty>
0.000

$$$$

  -OEChem-04052304083D

 85 93  0     1  0  0  0  0  0999 V2000
  -29.2321  -35.9829   22.9621 C   0  0  0  0  0  0  0  0  0  0  0  0
  -28.9710  -34.6170   22.9224 C   0  0  0  0  0  0  0  0  0  0  0  0
  -23.8117   -8.8979   20.1996 C   0  0  0  0  0  0  0  0  0  0  0  0
  -22.8431  -10.7377   21.4301 C   0  0  0  0  0  0  0  0  0  0  0  0
  -28.2491  -36.8668   23.4051 C   0  0  0  0  0  0  0  0  0  0  0  0
  -27.7269  -34.1341   23.3267 C   0  0  0  0  0  0  0  0  0  0  0  0
  -25.8636  -30.6618   20.1460 C   0  0  0  0  0  0  0  0  0  0  0  0
  -22.9730   -8.0078   20.8703 C   0  0  0  0  0  0  0  0  0  0  0  0
  -22.0043   -9.8475   22.1007 C   0  0  0  0  0  0  0  0  0  0  0  0
  -26.3852  -29.3719   20.2349 C   0  0  0  0  0  0  0  0  0  0  0  0
  -22.8455   -6.5043   23.8948 C   0  0  0  0  0  0  0  0  0  0  0  0
  -23.4106   -5.3272   24.3855 C   0  0  0  0  0  0  0  0  0  0  0  0
  -24.4615  -28.6893   21.5204 C   0  0  0  0  0  0  0  0  0  0  0  0
  -21.9047   -4.0312   23.0108 C   0  0  0  0  0  0  0  0  0  0  0  0
  -27.4733  -20.1927   18.4820 C   0  0  0  0  0  0  0  0  0  0  0  0
  -29.4040  -18.9872   19.9869 C   0  0  0  0  0  0  0  0  0  0  0  0
  -23.7468  -10.2629   20.4796 C   0  0  0  0  0  0  0  0  0  0  0  0
  -24.3494  -11.8531   18.5780 C   0  0  0  0  0  0  0  0  0  0  0  0
  -26.9890  -36.3953   23.8059 C   0  0  0  0  0  0  0  0  0  0  0  0
  -24.6403  -30.9784   20.7540 C   0  0  0  0  0  0  0  0  0  0  0  0
  -26.7265  -35.0124   23.7767 C   0  0  0  0  0  0  0  0  0  0  0  0
  -23.9254  -29.9833   21.4356 C   0  0  0  0  0  0  0  0  0  0  0  0
  -28.5019  -18.1825   19.3098 C   0  0  0  0  0  0  0  0  0  0  0  0
  -22.0693   -8.4826   21.8208 C   0  0  0  0  0  0  0  0  0  0  0  0
  -25.6855  -28.3861   20.9247 C   0  0  0  0  0  0  0  0  0  0  0  0
  -21.8100   -6.4448   22.9621 C   0  0  0  0  0  0  0  0  0  0  0  0
  -22.9402   -4.0907   23.9435 C   0  0  0  0  0  0  0  0  0  0  0  0
  -21.3396   -5.2082   22.5201 C   0  0  0  0  0  0  0  0  0  0  0  0
  -27.5213  -18.8045   18.5452 C   0  0  0  0  0  0  0  0  0  0  0  0
  -24.6133  -11.1828   19.7875 C   0  0  0  0  0  0  0  0  0  0  0  0
  -28.4213  -20.9074   19.1963 C   0  0  0  0  0  0  0  0  0  0  0  0
  -25.4772  -12.6022   18.3474 C   0  0  0  0  0  0  0  0  0  0  0  0
  -23.1884  -11.8030   17.7381 C   0  0  0  0  0  0  0  0  0  0  0  0
  -23.7267  -32.9827   23.0457 C   0  0  0  0  0  0  0  0  0  0  0  0
  -26.8781  -25.1782   19.7486 C   0  0  0  0  0  0  0  0  0  0  0  0
  -20.7587  -31.9906   22.1916 C   0  0  0  0  0  0  0  0  0  0  0  0
  -27.4549  -23.0937   18.4155 C   0  0  0  0  0  0  0  0  0  0  0  0
  -18.8077  -29.5783   20.7701 C   0  0  0  0  0  0  0  0  0  0  0  0
  -29.5030  -16.0168   20.1184 C   0  0  0  0  0  0  0  0  0  0  0  0
  -25.9743  -37.3847   24.3219 C   0  0  0  0  0  0  0  0  0  0  0  0
  -24.0784  -32.3678   20.6261 C   0  0  0  0  0  0  0  0  0  0  0  0
  -22.5980  -30.2667   22.0885 C   0  0  0  0  0  0  0  0  0  0  0  0
  -24.5542  -36.8273   24.3782 C   0  0  0  0  0  0  0  0  0  0  0  0
  -30.0024  -12.5265   20.6142 C   0  0  0  0  0  0  0  0  0  0  0  0
  -24.5500  -35.4399   25.0120 C   0  0  0  0  0  0  0  0  0  0  0  0
  -28.6232  -11.9209   20.3438 C   0  0  0  0  0  0  0  0  0  0  0  0
  -29.9002  -13.8778   21.3193 C   0  0  0  0  0  0  0  0  0  0  0  0
  -27.6504  -14.2530   20.3881 C   0  0  0  0  0  0  0  0  0  0  0  0
  -25.3808  -34.4524   24.1836 C   0  0  1  0  0  0  0  0  0  0  0  0
  -23.0723  -32.7086   21.7212 C   0  0  1  0  0  0  0  0  0  0  0  0
  -27.7002  -12.9216   19.6211 C   0  0  2  0  0  0  0  0  0  0  0  0
  -16.4137  -29.0340   20.2502 C   0  0  0  0  0  0  0  0  0  0  0  0
  -20.2803  -31.3034   25.1257 C   0  0  0  0  0  0  0  0  0  0  0  0
  -18.3164  -29.9251   24.4104 C   0  0  0  0  0  0  0  0  0  0  0  0
  -18.3382  -32.3815   23.9767 C   0  0  0  0  0  0  0  0  0  0  0  0
  -19.3423  -29.4722   17.8612 C   0  0  0  0  0  0  0  0  0  0  0  0
  -27.6884  -24.5785   18.6182 C   0  0  0  0  0  0  0  0  0  0  0  0
  -27.0081  -26.6768   19.9322 C   0  0  0  0  0  0  0  0  0  1  0  0
  -19.8421  -30.8697   22.6185 C   0  0  1  0  0  0  0  0  0  0  0  0
  -17.7007  -29.6588   19.7344 C   0  0  2  0  0  0  0  0  0  0  0  0
  -19.2202  -31.1148   24.0223 C   0  0  0  0  0  0  0  0  0  0  0  0
  -29.3889  -20.3385   19.9497 N   0  0  0  0  0  0  0  0  0  0  0  0
  -25.8147  -11.4799   20.2901 N   0  0  0  0  0  0  0  0  0  0  0  0
  -26.3156  -12.3449   19.3919 N   0  0  0  0  0  0  0  0  0  0  0  0
  -22.0935  -31.6420   21.9411 N   0  0  0  0  0  0  0  0  0  0  0  0
  -29.0132  -14.7750   20.5755 N   0  0  0  0  0  0  0  0  0  0  0  0
  -25.8237  -13.4493   17.3550 N   0  0  0  0  0  0  0  0  0  0  0  0
  -22.1200  -10.9818   18.1234 N   0  0  0  0  0  0  0  0  0  0  0  0
  -28.5789  -16.7702   19.3952 N   0  0  0  0  0  0  0  0  0  0  0  0
  -28.3628  -22.3201   19.1266 N   0  0  0  0  0  0  0  0  0  0  0  0
  -24.6386  -34.0205   23.0186 N   0  0  0  0  0  0  0  0  0  0  0  0
  -18.8616  -30.7145   21.5494 N   0  0  0  0  0  0  0  0  0  0  0  0
  -18.1033  -28.9456   18.4894 N   0  3  0  0  0  0  0  0  0  0  0  0
  -23.1078  -12.4541   16.6690 O   0  0  0  0  0  0  0  0  0  0  0  0
  -23.4254  -32.3039   24.0204 O   0  0  0  0  0  0  0  0  0  0  0  0
  -26.1637  -24.4926   20.4786 O   0  0  0  0  0  0  0  0  0  0  0  0
  -20.3055  -33.1322   22.0774 O   0  0  0  0  0  0  0  0  0  0  0  0
  -26.5280  -22.7042   17.7102 O   0  0  0  0  0  0  0  0  0  0  0  0
  -19.5478  -28.6032   20.8795 O   0  0  0  0  0  0  0  0  0  0  0  0
  -30.6655  -16.3727   20.3279 O   0  0  0  0  0  0  0  0  0  0  0  0
  -21.2505   -7.6143   22.4752 O   0  0  0  0  0  0  0  0  0  0  0  0
  -26.1926  -27.1264   21.0135 O   0  0  0  0  0  0  0  0  0  1  0  0
  -23.4840   -2.9604   24.4137 F   0  0  0  0  0  0  0  0  0  0  0  0
  -20.3459   -5.1448   21.6233 F   0  0  0  0  0  0  0  0  0  0  0  0
  -26.6208  -18.0783   17.8682 F   0  0  0  0  0  0  0  0  0  0  0  0
  1  2  1  0  0  0  0
  1  5  2  0  0  0  0
  2  6  2  0  0  0  0
  3  8  2  0  0  0  0
  3 17  1  0  0  0  0
  4  9  1  0  0  0  0
  4 17  2  0  0  0  0
  5 19  1  0  0  0  0
  6 21  1  0  0  0  0
  7 10  2  0  0  0  0
  7 20  1  0  0  0  0
  8 24  1  0  0  0  0
  9 24  2  0  0  0  0
 10 25  1  0  0  0  0
 11 12  2  0  0  0  0
 11 26  1  0  0  0  0
 12 27  1  0  0  0  0
 13 22  1  0  0  0  0
 13 25  2  0  0  0  0
 14 27  2  0  0  0  0
 14 28  1  0  0  0  0
 15 29  2  0  0  0  0
 15 31  1  0  0  0  0
 16 23  2  0  0  0  0
 16 62  1  0  0  0  0
 17 30  1  0  0  0  0
 18 30  1  0  0  0  0
 18 32  2  0  0  0  0
 18 33  1  0  0  0  0
 19 21  2  0  0  0  0
 19 40  1  0  0  0  0
 20 22  2  0  0  0  0
 20 41  1  0  0  0  0
 21 49  1  0  0  0  0
 22 42  1  0  0  0  0
 23 29  1  0  0  0  0
 23 69  1  0  0  0  0
 24 81  1  0  0  0  0
 25 82  1  0  0  0  0
 26 28  2  0  0  0  0
 26 81  1  0  0  0  0
 27 83  1  0  0  0  0
 28 84  1  0  0  0  0
 29 85  1  0  0  0  0
 30 63  2  0  0  0  0
 31 62  2  0  0  0  0
 31 70  1  0  0  0  0
 32 64  1  0  0  0  0
 32 67  1  0  0  0  0
 33 68  1  0  0  0  0
 33 74  2  0  0  0  0
 34 50  1  0  0  0  0
 34 71  1  0  0  0  0
 34 75  2  0  0  0  0
 35 57  1  0  0  0  0
 35 58  1  0  0  0  0
 35 76  2  0  0  0  0
 36 59  1  0  0  0  0
 36 65  1  0  0  0  0
 36 77  2  0  0  0  0
 37 57  1  0  0  0  0
 37 70  1  0  0  0  0
 37 78  2  0  0  0  0
 38 60  1  0  0  0  0
 38 72  1  0  0  0  0
 38 79  2  0  0  0  0
 39 66  1  0  0  0  0
 39 69  1  0  0  0  0
 39 80  2  0  0  0  0
 40 43  1  0  0  0  0
 41 50  1  0  0  0  0
 42 65  1  0  0  0  0
 43 45  1  0  0  0  0
 44 46  1  0  0  0  0
 44 47  1  0  0  0  0
 45 49  1  0  0  0  0
 46 51  1  0  0  0  0
 47 66  1  0  0  0  0
 48 51  1  0  0  0  0
 48 66  1  0  0  0  0
 49 71  1  0  0  0  0
 50 65  1  0  0  0  0
 51 64  1  0  0  0  0
 52 60  1  0  0  0  0
 53 61  1  0  0  0  0
 54 61  1  0  0  0  0
 55 61  1  0  0  0  0
 56 73  1  0  0  0  0
 58 82  1  0  0  0  0
 59 61  1  0  0  0  0
 59 72  1  0  0  0  0
 60 73  1  0  0  0  0
 63 64  1  0  0  0  0
M  CHG  1  73   1
M  ISO  4  39 100  58 101  69 100  82 101
M  END
> <Batch ID>
0166

> <Smiles>
CNC(C)C(=O)NC(C(=O)N1Cc2cc([101O:1][101CH2:1]C(=O)CC(=O)Nc3cc(F)c([100NH:0][100C:0](=O)N4CCCC(n5nc(-c6ccc(Oc7ccc(F)cc7F)cc6)c(C(N)=O)c5N)C4)cn3)ccc2CC1C(=O)NC1CCCc2ccccc21)C(C)(C)C

> <Shape>
0.294

> <Color>
0.109

> <Negative vol penalty>
0.000

$$$$

  -OEChem-04052304083D

 85 93  0     1  0  0  0  0  0999 V2000
  -25.5447  -34.5683   27.1176 C   0  0  0  0  0  0  0  0  0  0  0  0
  -26.1851  -33.4464   26.6011 C   0  0  0  0  0  0  0  0  0  0  0  0
  -24.5588   -9.0612   21.5527 C   0  0  0  0  0  0  0  0  0  0  0  0
  -24.0634  -10.6264   23.3252 C   0  0  0  0  0  0  0  0  0  0  0  0
  -24.1622  -34.6991   26.9938 C   0  0  0  0  0  0  0  0  0  0  0  0
  -25.4431  -32.4541   25.9614 C   0  0  0  0  0  0  0  0  0  0  0  0
  -27.5952  -30.8930   21.6514 C   0  0  0  0  0  0  0  0  0  0  0  0
  -26.9377  -21.7188   20.3485 C   0  0  0  0  0  0  0  0  0  0  0  0
  -24.1994   -8.0027   22.3870 C   0  0  0  0  0  0  0  0  0  0  0  0
  -23.7040   -9.5679   24.1595 C   0  0  0  0  0  0  0  0  0  0  0  0
  -28.6691  -30.0104   21.7592 C   0  0  0  0  0  0  0  0  0  0  0  0
  -21.3487   -6.5515   23.4826 C   0  0  0  0  0  0  0  0  0  0  0  0
  -25.8899  -20.8595   20.0181 C   0  0  0  0  0  0  0  0  0  0  0  0
  -20.5344   -5.5528   22.9486 C   0  0  0  0  0  0  0  0  0  0  0  0
  -27.1961  -28.1667   21.2586 C   0  0  0  0  0  0  0  0  0  0  0  0
  -28.4653  -19.8472   20.3720 C   0  0  0  0  0  0  0  0  0  0  0  0
  -22.2508   -3.9130   23.3979 C   0  0  0  0  0  0  0  0  0  0  0  0
  -24.4908  -10.3731   22.0218 C   0  0  0  0  0  0  0  0  0  0  0  0
  -24.0223  -12.1869   20.2903 C   0  0  0  0  0  0  0  0  0  0  0  0
  -23.4040  -33.7126   26.3438 C   0  0  0  0  0  0  0  0  0  0  0  0
  -26.3095  -30.4171   21.3567 C   0  0  0  0  0  0  0  0  0  0  0  0
  -24.0489  -32.5713   25.8300 C   0  0  0  0  0  0  0  0  0  0  0  0
  -26.1081  -29.0457   21.1451 C   0  0  0  0  0  0  0  0  0  0  0  0
  -28.2254  -21.2127   20.5254 C   0  0  0  0  0  0  0  0  0  0  0  0
  -27.4174  -18.9878   20.0416 C   0  0  0  0  0  0  0  0  0  0  0  0
  -23.7720   -8.2560   23.6904 C   0  0  0  0  0  0  0  0  0  0  0  0
  -28.4691  -28.6467   21.5657 C   0  0  0  0  0  0  0  0  0  0  0  0
  -22.6141   -6.2310   23.9742 C   0  0  0  0  0  0  0  0  0  0  0  0
  -20.9854   -4.2336   22.9063 C   0  0  0  0  0  0  0  0  0  0  0  0
  -26.1297  -19.4940   19.8647 C   0  0  0  0  0  0  0  0  0  0  0  0
  -23.0651   -4.9117   23.9319 C   0  0  0  0  0  0  0  0  0  0  0  0
  -24.8624  -11.4669   21.1607 C   0  0  0  0  0  0  0  0  0  0  0  0
  -24.8489  -13.1138   19.7039 C   0  0  0  0  0  0  0  0  0  0  0  0
  -22.6200  -12.0317   20.0348 C   0  0  0  0  0  0  0  0  0  0  0  0
  -30.4446  -24.1004   21.3776 C   0  0  0  0  0  0  0  0  0  0  0  0
  -30.5088  -25.5987   21.6008 C   0  0  0  0  0  0  0  0  0  0  0  0
  -23.5110  -30.4345   22.8639 C   0  0  0  0  0  0  0  0  0  0  0  0
  -22.4399  -29.1801   20.0708 C   0  0  0  0  0  0  0  0  0  0  0  0
  -23.1433  -27.4570   17.2102 C   0  0  0  0  0  0  0  0  0  0  0  0
  -28.8826  -16.9385   20.0271 C   0  0  0  0  0  0  0  0  0  0  0  0
  -21.9061  -33.8754   26.2760 C   0  0  0  0  0  0  0  0  0  0  0  0
  -25.1668  -31.3852   21.2175 C   0  0  0  0  0  0  0  0  0  0  0  0
  -24.7513  -28.4863   20.8066 C   0  0  0  0  0  0  0  0  0  0  0  0
  -21.2394  -32.9582   25.2539 C   0  0  0  0  0  0  0  0  0  0  0  0
  -29.8929  -13.5345   19.7640 C   0  0  0  0  0  0  0  0  0  0  0  0
  -21.7741  -31.5356   25.3844 C   0  0  0  0  0  0  0  0  0  0  0  0
  -28.6051  -12.7524   20.0323 C   0  0  0  0  0  0  0  0  0  0  0  0
  -29.9826  -14.7924   20.6263 C   0  0  0  0  0  0  0  0  0  0  0  0
  -27.5288  -14.8997   20.8183 C   0  0  0  0  0  0  0  0  0  0  0  0
  -23.2815  -31.4853   25.1076 C   0  0  1  0  0  0  0  0  0  0  0  0
  -23.8028  -30.7326   21.4204 C   0  0  1  0  0  0  0  0  0  0  0  0
  -27.3629  -13.6586   19.9262 C   0  0  2  0  0  0  0  0  0  0  0  0
  -22.0555  -26.5519   15.1377 C   0  0  0  0  0  0  0  0  0  0  0  0
  -21.2371  -26.8987   21.7013 C   0  0  0  0  0  0  0  0  0  0  0  0
  -21.0173  -25.5901   19.5783 C   0  0  0  0  0  0  0  0  0  0  0  0
  -19.7803  -27.7392   19.8505 C   0  0  0  0  0  0  0  0  0  0  0  0
  -24.8388  -29.1271   15.4509 C   0  0  0  0  0  0  0  0  0  0  0  0
  -29.1114  -23.4898   21.0307 C   0  0  0  0  0  0  0  0  0  0  0  0
  -29.2387  -26.3990   21.4602 C   0  0  0  0  0  0  0  0  0  1  0  0
  -22.2857  -27.7851   19.5148 C   0  0  1  0  0  0  0  0  0  0  0  0
  -22.7922  -27.7287   15.7585 C   0  0  2  0  0  0  0  0  0  0  0  0
  -21.1054  -27.0133   20.1695 C   0  0  0  0  0  0  0  0  0  0  0  0
  -26.1259  -11.8991   21.1327 N   0  0  0  0  0  0  0  0  0  0  0  0
  -26.0859  -12.9007   20.2376 N   0  0  0  0  0  0  0  0  0  0  0  0
  -23.6645  -29.4724   20.6877 N   0  0  0  0  0  0  0  0  0  0  0  0
  -28.7733  -15.6038   20.4714 N   0  0  0  0  0  0  0  0  0  0  0  0
  -24.6312  -14.0822   18.7888 N   0  0  0  0  0  0  0  0  0  0  0  0
  -21.9223  -11.0301   20.7234 N   0  0  0  0  0  0  0  0  0  0  0  0
  -27.6636  -17.6010   19.8864 N   0  0  0  0  0  0  0  0  0  0  0  0
  -29.2671  -22.0671   20.8532 N   0  0  0  0  0  0  0  0  0  0  0  0
  -23.5363  -31.5462   23.6843 N   0  0  0  0  0  0  0  0  0  0  0  0
  -22.1738  -27.9324   18.0677 N   0  0  0  0  0  0  0  0  0  0  0  0
  -24.0283  -27.9808   14.9650 N   0  3  0  0  0  0  0  0  0  0  0  0
  -22.0075  -12.7490   19.2079 O   0  0  0  0  0  0  0  0  0  0  0  0
  -31.4907  -23.4747   21.4956 O   0  0  0  0  0  0  0  0  0  0  0  0
  -31.5982  -26.0808   21.8832 O   0  0  0  0  0  0  0  0  0  0  0  0
  -23.2785  -29.2815   23.2077 O   0  0  0  0  0  0  0  0  0  0  0  0
  -21.5107  -29.9832   19.9554 O   0  0  0  0  0  0  0  0  0  0  0  0
  -24.1727  -26.8775   17.5493 O   0  0  0  0  0  0  0  0  0  0  0  0
  -29.9750  -17.4472   19.7630 O   0  0  0  0  0  0  0  0  0  0  0  0
  -23.4210   -7.2234   24.5047 O   0  0  0  0  0  0  0  0  0  0  0  0
  -29.5153  -27.7829   21.6709 O   0  0  0  0  0  0  0  0  0  1  0  0
  -20.2027   -3.2744   22.3949 F   0  0  0  0  0  0  0  0  0  0  0  0
  -25.1148  -18.6774   19.5473 F   0  0  0  0  0  0  0  0  0  0  0  0
  -24.2794   -4.5975   24.4037 F   0  0  0  0  0  0  0  0  0  0  0  0
  1  2  1  0  0  0  0
  1  5  2  0  0  0  0
  2  6  2  0  0  0  0
  3  9  2  0  0  0  0
  3 18  1  0  0  0  0
  4 10  1  0  0  0  0
  4 18  2  0  0  0  0
  5 20  1  0  0  0  0
  6 22  1  0  0  0  0
  7 11  2  0  0  0  0
  7 21  1  0  0  0  0
  8 13  2  0  0  0  0
  8 24  1  0  0  0  0
  9 26  1  0  0  0  0
 10 26  2  0  0  0  0
 11 27  1  0  0  0  0
 12 14  2  0  0  0  0
 12 28  1  0  0  0  0
 13 30  1  0  0  0  0
 14 29  1  0  0  0  0
 15 23  1  0  0  0  0
 15 27  2  0  0  0  0
 16 24  2  0  0  0  0
 16 25  1  0  0  0  0
 17 29  2  0  0  0  0
 17 31  1  0  0  0  0
 18 32  1  0  0  0  0
 19 32  1  0  0  0  0
 19 33  2  0  0  0  0
 19 34  1  0  0  0  0
 20 22  2  0  0  0  0
 20 41  1  0  0  0  0
 21 23  2  0  0  0  0
 21 42  1  0  0  0  0
 22 50  1  0  0  0  0
 23 43  1  0  0  0  0
 24 70  1  0  0  0  0
 25 30  2  0  0  0  0
 25 69  1  0  0  0  0
 26 81  1  0  0  0  0
 27 82  1  0  0  0  0
 28 31  2  0  0  0  0
 28 81  1  0  0  0  0
 29 83  1  0  0  0  0
 30 84  1  0  0  0  0
 31 85  1  0  0  0  0
 32 63  2  0  0  0  0
 33 64  1  0  0  0  0
 33 67  1  0  0  0  0
 34 68  1  0  0  0  0
 34 74  2  0  0  0  0
 35 36  1  0  0  0  0
 35 58  1  0  0  0  0
 35 75  2  0  0  0  0
 36 59  1  0  0  0  0
 36 76  2  0  0  0  0
 37 51  1  0  0  0  0
 37 71  1  0  0  0  0
 37 77  2  0  0  0  0
 38 60  1  0  0  0  0
 38 65  1  0  0  0  0
 38 78  2  0  0  0  0
 39 61  1  0  0  0  0
 39 72  1  0  0  0  0
 39 79  2  0  0  0  0
 40 66  1  0  0  0  0
 40 69  1  0  0  0  0
 40 80  2  0  0  0  0
 41 44  1  0  0  0  0
 42 51  1  0  0  0  0
 43 65  1  0  0  0  0
 44 46  1  0  0  0  0
 45 47  1  0  0  0  0
 45 48  1  0  0  0  0
 46 50  1  0  0  0  0
 47 52  1  0  0  0  0
 48 66  1  0  0  0  0
 49 52  1  0  0  0  0
 49 66  1  0  0  0  0
 50 71  1  0  0  0  0
 51 65  1  0  0  0  0
 52 64  1  0  0  0  0
 53 61  1  0  0  0  0
 54 62  1  0  0  0  0
 55 62  1  0  0  0  0
 56 62  1  0  0  0  0
 57 73  1  0  0  0  0
 58 70  1  0  0  0  0
 59 82  1  0  0  0  0
 60 62  1  0  0  0  0
 60 72  1  0  0  0  0
 61 73  1  0  0  0  0
 63 64  1  0  0  0  0
M  CHG  1  73   1
M  ISO  4  40 100  59 101  69 100  82 101
M  END
> <Batch ID>
0166

> <Smiles>
CNC(C)C(=O)NC(C(=O)N1Cc2cc([101O:1][101CH2:1]C(=O)C(=O)CNc3ccc(F)c([100NH:0][100C:0](=O)N4CCCC(n5nc(-c6ccc(Oc7ccc(F)cc7F)cc6)c(C(N)=O)c5N)C4)c3)ccc2CC1C(=O)NC1CCCc2ccccc21)C(C)(C)C

> <Shape>
0.288

> <Color>
0.099

> <Negative vol penalty>
0.000

$$$$

  -OEChem-04052304083D

 89 98  0     1  0  0  0  0  0999 V2000
  -29.0901  -32.3783   25.9682 C   0  0  0  0  0  0  0  0  0  0  0  0
  -28.9316  -31.1710   25.2953 C   0  0  0  0  0  0  0  0  0  0  0  0
  -23.0484   -9.9184   19.8840 C   0  0  0  0  0  0  0  0  0  0  0  0
  -24.6246   -9.1353   21.5391 C   0  0  0  0  0  0  0  0  0  0  0  0
  -27.9692  -33.0941   26.3868 C   0  0  0  0  0  0  0  0  0  0  0  0
  -27.6521  -30.6783   25.0415 C   0  0  0  0  0  0  0  0  0  0  0  0
  -25.9792  -18.7684   17.1313 C   0  0  0  0  0  0  0  0  0  0  0  0
  -28.3546  -19.2098   17.1405 C   0  0  0  0  0  0  0  0  0  0  0  0
  -27.1403  -28.9464   20.3104 C   0  0  0  0  0  0  0  0  0  0  0  0
  -26.1675  -17.7362   18.0504 C   0  0  0  0  0  0  0  0  0  0  0  0
  -28.5428  -18.1776   18.0596 C   0  0  0  0  0  0  0  0  0  0  0  0
  -21.9960   -9.4118   20.6465 C   0  0  0  0  0  0  0  0  0  0  0  0
  -23.5722   -8.6288   22.3017 C   0  0  0  0  0  0  0  0  0  0  0  0
  -27.6723  -27.6881   20.0319 C   0  0  0  0  0  0  0  0  0  0  0  0
  -21.5612   -5.9110   22.2783 C   0  0  0  0  0  0  0  0  0  0  0  0
  -21.7038   -4.6290   22.8090 C   0  0  0  0  0  0  0  0  0  0  0  0
  -25.4715  -26.7205   20.2298 C   0  0  0  0  0  0  0  0  0  0  0  0
  -21.4706   -5.5267   25.0400 C   0  0  0  0  0  0  0  0  0  0  0  0
  -24.3627   -9.7800   20.3303 C   0  0  0  0  0  0  0  0  0  0  0  0
  -25.7955   -9.9436   18.2260 C   0  0  0  0  0  0  0  0  0  0  0  0
  -27.0728  -19.5052   16.6763 C   0  0  0  0  0  0  0  0  0  0  0  0
  -26.6751  -32.6146   26.1295 C   0  0  0  0  0  0  0  0  0  0  0  0
  -25.7693  -29.0997   20.5618 C   0  0  0  0  0  0  0  0  0  0  0  0
  -26.5129  -31.3876   25.4582 C   0  0  0  0  0  0  0  0  0  0  0  0
  -24.9242  -27.9822   20.5087 C   0  0  0  0  0  0  0  0  0  0  0  0
  -27.4492  -17.4408   18.5146 C   0  0  0  0  0  0  0  0  0  0  0  0
  -22.2578   -8.7671   21.8554 C   0  0  0  0  0  0  0  0  0  0  0  0
  -26.8383  -26.5745   19.9944 C   0  0  0  0  0  0  0  0  0  0  0  0
  -21.3733   -7.0009   23.1284 C   0  0  0  0  0  0  0  0  0  0  0  0
  -21.6585   -4.4368   24.1899 C   0  0  0  0  0  0  0  0  0  0  0  0
  -21.3280   -6.8087   24.5092 C   0  0  0  0  0  0  0  0  0  0  0  0
  -25.4503  -10.3025   19.5427 C   0  0  0  0  0  0  0  0  0  0  0  0
  -26.8919  -10.7180   17.9352 C   0  0  0  0  0  0  0  0  0  0  0  0
  -25.1801   -8.9949   17.3445 C   0  0  0  0  0  0  0  0  0  0  0  0
  -24.0401  -30.0922   23.0374 C   0  0  0  0  0  0  0  0  0  0  0  0
  -27.3086  -23.4526   18.2169 C   0  0  0  0  0  0  0  0  0  0  0  0
  -21.5817  -29.7898   20.9429 C   0  0  0  0  0  0  0  0  0  0  0  0
  -20.5547  -27.4345   18.4101 C   0  0  0  0  0  0  0  0  0  0  0  0
  -28.8457  -15.9703   20.0092 C   0  0  0  0  0  0  0  0  0  0  0  0
  -25.4945  -33.4001   26.6430 C   0  0  0  0  0  0  0  0  0  0  0  0
  -25.2068  -30.4679   20.8343 C   0  0  0  0  0  0  0  0  0  0  0  0
  -23.4421  -28.0965   20.7514 C   0  0  0  0  0  0  0  0  0  0  0  0
  -24.1686  -32.9941   26.0046 C   0  0  0  0  0  0  0  0  0  0  0  0
  -30.6133  -12.8797   20.0360 C   0  0  0  0  0  0  0  0  0  0  0  0
  -24.0301  -31.4752   25.9818 C   0  0  0  0  0  0  0  0  0  0  0  0
  -29.5222  -11.8359   19.7867 C   0  0  0  0  0  0  0  0  0  0  0  0
  -27.8473  -22.8004   13.9069 C   0  0  0  0  0  0  0  0  0  0  0  0
  -27.6662  -20.3399   14.3875 C   0  0  0  0  0  0  0  0  0  0  0  0
  -30.1101  -14.0289   20.9077 C   0  0  0  0  0  0  0  0  0  0  0  0
  -27.7890  -13.6318   20.1837 C   0  0  0  0  0  0  0  0  0  0  0  0
  -27.0426  -23.1066   15.1608 C   0  0  0  0  0  0  0  0  0  0  0  0
  -25.1409  -30.8325   25.1424 C   0  0  1  0  0  0  0  0  0  0  0  0
  -26.8676  -20.6299   15.6747 C   0  0  2  0  0  0  0  0  0  0  0  0
  -23.8777  -30.4294   21.5822 C   0  0  1  0  0  0  0  0  0  0  0  0
  -28.2297  -12.4872   19.2567 C   0  0  2  0  0  0  0  0  0  0  0  0
  -27.5290  -21.4229   13.2973 C   0  0  0  0  0  0  0  0  0  0  0  0
  -28.5360  -21.1297   12.1683 C   0  0  0  0  0  0  0  0  0  0  0  0
  -26.1159  -21.4062   12.6835 C   0  0  0  0  0  0  0  0  0  0  0  0
  -19.1669  -27.7611   16.3450 C   0  0  0  0  0  0  0  0  0  0  0  0
  -19.2555  -28.9320   22.7213 C   0  0  0  0  0  0  0  0  0  0  0  0
  -18.3187  -27.6738   20.7700 C   0  0  0  0  0  0  0  0  0  0  0  0
  -18.5854  -30.1508   20.6429 C   0  0  0  0  0  0  0  0  0  0  0  0
  -22.6656  -26.3024   16.6719 C   0  0  0  0  0  0  0  0  0  0  0  0
  -26.5422  -22.3889   17.4757 C   0  0  0  0  0  0  0  0  0  0  0  0
  -26.4992  -24.4112   19.0664 C   0  0  0  0  0  0  0  0  0  1  0  0
  -20.6378  -28.6771   20.5556 C   0  0  1  0  0  0  0  0  0  0  0  0
  -20.5754  -27.6493   16.9074 C   0  0  2  0  0  0  0  0  0  0  0  0
  -19.2256  -28.8530   21.1819 C   0  0  0  0  0  0  0  0  0  0  0  0
  -26.2618  -11.2326   20.0532 N   0  0  0  0  0  0  0  0  0  0  0  0
  -27.1278  -11.4645   19.0521 N   0  0  0  0  0  0  0  0  0  0  0  0
  -22.9409  -29.4545   21.0200 N   0  0  0  0  0  0  0  0  0  0  0  0
  -28.8859  -14.5997   20.3417 N   0  0  0  0  0  0  0  0  0  0  0  0
  -27.6677  -10.8265   16.8357 N   0  0  0  0  0  0  0  0  0  0  0  0
  -25.6331   -7.6688   17.3687 N   0  0  0  0  0  0  0  0  0  0  0  0
  -27.6407  -16.3925   19.4485 N   0  0  0  0  0  0  0  0  0  0  0  0
  -24.8515  -30.9697   23.7311 N   0  0  0  0  0  0  0  0  0  0  0  0
  -20.6428  -28.6265   19.0976 N   0  0  0  0  0  0  0  0  0  0  0  0
  -27.2529  -22.0207   16.1936 N   0  3  2  0  0  0  0  0  0  0  0  0
  -21.2626  -26.5129   16.2312 N   0  3  0  0  0  0  0  0  0  0  0  0
  -24.2671   -9.3174   16.5470 O   0  0  0  0  0  0  0  0  0  0  0  0
  -23.4702  -29.1096   23.4972 O   0  0  0  0  0  0  0  0  0  0  0  0
  -28.5317  -23.5422   18.1122 O   0  0  0  0  0  0  0  0  0  0  0  0
  -21.1305  -30.9169   21.1617 O   0  0  0  0  0  0  0  0  0  0  0  0
  -20.4653  -26.3210   18.9226 O   0  0  0  0  0  0  0  0  0  0  0  0
  -29.8186  -16.7089   20.1822 O   0  0  0  0  0  0  0  0  0  0  0  0
  -21.2311   -8.2730   22.5999 O   0  0  0  0  0  0  0  0  0  0  0  0
  -27.3551  -25.3451   19.7235 O   0  0  0  0  0  0  0  0  0  1  0  0
  -21.7939   -3.2055   24.6993 F   0  0  0  0  0  0  0  0  0  0  0  0
  -21.1466   -7.8517   25.3308 F   0  0  0  0  0  0  0  0  0  0  0  0
  1  2  1  0  0  0  0
  1  5  2  0  0  0  0
  2  6  2  0  0  0  0
  3 12  2  0  0  0  0
  3 19  1  0  0  0  0
  4 13  1  0  0  0  0
  4 19  2  0  0  0  0
  5 22  1  0  0  0  0
  6 24  1  0  0  0  0
  7 10  2  0  0  0  0
  7 21  1  0  0  0  0
  8 11  1  0  0  0  0
  8 21  2  0  0  0  0
  9 14  2  0  0  0  0
  9 23  1  0  0  0  0
 10 26  1  0  0  0  0
 11 26  2  0  0  0  0
 12 27  1  0  0  0  0
 13 27  2  0  0  0  0
 14 28  1  0  0  0  0
 15 16  2  0  0  0  0
 15 29  1  0  0  0  0
 16 30  1  0  0  0  0
 17 25  1  0  0  0  0
 17 28  2  0  0  0  0
 18 30  2  0  0  0  0
 18 31  1  0  0  0  0
 19 32  1  0  0  0  0
 20 32  1  0  0  0  0
 20 33  2  0  0  0  0
 20 34  1  0  0  0  0
 21 53  1  0  0  0  0
 22 24  2  0  0  0  0
 22 40  1  0  0  0  0
 23 25  2  0  0  0  0
 23 41  1  0  0  0  0
 24 52  1  0  0  0  0
 25 42  1  0  0  0  0
 26 75  1  0  0  0  0
 27 86  1  0  0  0  0
 28 87  1  0  0  0  0
 29 31  2  0  0  0  0
 29 86  1  0  0  0  0
 30 88  1  0  0  0  0
 31 89  1  0  0  0  0
 32 69  2  0  0  0  0
 33 70  1  0  0  0  0
 33 73  1  0  0  0  0
 34 74  1  0  0  0  0
 34 80  2  0  0  0  0
 35 54  1  0  0  0  0
 35 76  1  0  0  0  0
 35 81  2  0  0  0  0
 36 64  1  0  0  0  0
 36 65  1  0  0  0  0
 36 82  2  0  0  0  0
 37 66  1  0  0  0  0
 37 71  1  0  0  0  0
 37 83  2  0  0  0  0
 38 67  1  0  0  0  0
 38 77  1  0  0  0  0
 38 84  2  0  0  0  0
 39 72  1  0  0  0  0
 39 75  1  0  0  0  0
 39 85  2  0  0  0  0
 40 43  1  0  0  0  0
 41 54  1  0  0  0  0
 42 71  1  0  0  0  0
 43 45  1  0  0  0  0
 44 46  1  0  0  0  0
 44 49  1  0  0  0  0
 45 52  1  0  0  0  0
 46 55  1  0  0  0  0
 47 51  1  0  0  0  0
 47 56  1  0  0  0  0
 48 53  1  0  0  0  0
 48 56  1  0  0  0  0
 49 72  1  0  0  0  0
 50 55  1  0  0  0  0
 50 72  1  0  0  0  0
 51 78  1  0  0  0  0
 52 76  1  0  0  0  0
 53 78  1  0  0  0  0
 54 71  1  0  0  0  0
 55 70  1  0  0  0  0
 56 57  1  0  0  0  0
 56 58  1  0  0  0  0
 59 67  1  0  0  0  0
 60 68  1  0  0  0  0
 61 68  1  0  0  0  0
 62 68  1  0  0  0  0
 63 79  1  0  0  0  0
 64 78  1  0  0  0  0
 65 87  1  0  0  0  0
 66 68  1  0  0  0  0
 66 77  1  0  0  0  0
 67 79  1  0  0  0  0
 69 70  1  0  0  0  0
M  CHG  2  78   1  79   1
M  ISO  4  39 100  65 101  75 100  87 101
M  END
> <Batch ID>
0166

> <Smiles>
CNC(C)C(=O)NC(C(=O)N1Cc2cc([101O:1][101CH2:1]C(=O)CN3CCC(C)(C)CC3c3ccc([100NH:0][100C:0](=O)N4CCCC(n5nc(-c6ccc(Oc7ccc(F)cc7F)cc6)c(C(N)=O)c5N)C4)cc3)ccc2CC1C(=O)NC1CCCc2ccccc21)C(C)(C)C

> <Shape>
0.288

> <Color>
0.106

> <Negative vol penalty>
0.000

$$$$

  -OEChem-04052304083D

 84 92  0     1  0  0  0  0  0999 V2000
  -16.8836  -30.7910   23.3112 C   0  0  0  0  0  0  0  0  0  0  0  0
  -18.1791  -31.2957   23.2627 C   0  0  0  0  0  0  0  0  0  0  0  0
  -26.7782  -12.1585   21.7447 C   0  0  0  0  0  0  0  0  0  0  0  0
  -25.9971  -13.1580   19.6885 C   0  0  0  0  0  0  0  0  0  0  0  0
  -16.6691  -29.4157   23.2310 C   0  0  0  0  0  0  0  0  0  0  0  0
  -19.2610  -30.4253   23.1351 C   0  0  0  0  0  0  0  0  0  0  0  0
  -25.8012  -30.0355   20.2385 C   0  0  0  0  0  0  0  0  0  0  0  0
  -25.5911  -11.4327   21.8429 C   0  0  0  0  0  0  0  0  0  0  0  0
  -24.8100  -12.4322   19.7866 C   0  0  0  0  0  0  0  0  0  0  0  0
  -27.1165  -29.7306   20.5858 C   0  0  0  0  0  0  0  0  0  0  0  0
  -23.7632   -9.2778   19.1746 C   0  0  0  0  0  0  0  0  0  0  0  0
  -23.2925   -8.6492   18.0219 C   0  0  0  0  0  0  0  0  0  0  0  0
  -26.6205  -27.3792   20.3764 C   0  0  0  0  0  0  0  0  0  0  0  0
  -21.2545   -9.9404   18.1500 C   0  0  0  0  0  0  0  0  0  0  0  0
  -26.9812  -13.0212   20.6675 C   0  0  0  0  0  0  0  0  0  0  0  0
  -29.3949  -13.3761   19.9222 C   0  0  0  0  0  0  0  0  0  0  0  0
  -17.7482  -28.5286   23.0925 C   0  0  0  0  0  0  0  0  0  0  0  0
  -24.8812  -29.0124   19.9677 C   0  0  0  0  0  0  0  0  0  0  0  0
  -19.0608  -29.0367   23.0542 C   0  0  0  0  0  0  0  0  0  0  0  0
  -25.2947  -27.6737   20.0233 C   0  0  0  0  0  0  0  0  0  0  0  0
  -24.6070  -11.5695   20.8638 C   0  0  0  0  0  0  0  0  0  0  0  0
  -27.5256  -28.4022   20.6576 C   0  0  0  0  0  0  0  0  0  0  0  0
  -22.9795  -10.2376   19.8152 C   0  0  0  0  0  0  0  0  0  0  0  0
  -22.0382   -8.9806   17.5095 C   0  0  0  0  0  0  0  0  0  0  0  0
  -21.7252  -10.5690   19.3029 C   0  0  0  0  0  0  0  0  0  0  0  0
  -28.2070  -13.7716   20.5659 C   0  0  0  0  0  0  0  0  0  0  0  0
  -28.7063  -23.1306   17.8038 C   0  0  0  0  0  0  0  0  0  0  0  0
  -30.2539  -14.4317   20.1081 C   0  0  0  0  0  0  0  0  0  0  0  0
  -28.0887  -22.3734   16.8304 C   0  0  0  0  0  0  0  0  0  0  0  0
  -28.6753  -21.2054   18.8539 C   0  0  0  0  0  0  0  0  0  0  0  0
  -29.0228  -24.5661   17.6986 C   0  0  0  0  0  0  0  0  0  0  0  0
  -29.6436  -25.2806   18.6478 C   0  0  0  0  0  0  0  0  0  0  0  0
  -29.6951  -12.1632   19.2192 C   0  0  0  0  0  0  0  0  0  0  0  0
  -29.9266  -26.7322   18.4393 C   0  0  0  0  0  0  0  0  0  0  0  0
  -22.1432  -28.0557   21.2684 C   0  0  0  0  0  0  0  0  0  0  0  0
  -22.0876  -26.0449   18.7236 C   0  0  0  0  0  0  0  0  0  0  0  0
  -23.8321  -24.3721   16.3142 C   0  0  0  0  0  0  0  0  0  0  0  0
  -29.4019  -20.2663   21.0757 C   0  0  0  0  0  0  0  0  0  0  0  0
  -17.4699  -27.0467   23.0573 C   0  0  0  0  0  0  0  0  0  0  0  0
  -23.4729  -29.3586   19.5683 C   0  0  0  0  0  0  0  0  0  0  0  0
  -24.3512  -26.5391   19.7221 C   0  0  0  0  0  0  0  0  0  0  0  0
  -18.6457  -26.2181   22.5463 C   0  0  0  0  0  0  0  0  0  0  0  0
  -31.1947  -18.0020   23.1580 C   0  0  0  0  0  0  0  0  0  0  0  0
  -19.9424  -26.6614   23.2163 C   0  0  0  0  0  0  0  0  0  0  0  0
  -30.7447  -16.6241   22.6669 C   0  0  0  0  0  0  0  0  0  0  0  0
  -30.0537  -19.0172   23.1226 C   0  0  0  0  0  0  0  0  0  0  0  0
  -28.9151  -17.7546   21.3396 C   0  0  0  0  0  0  0  0  0  0  0  0
  -20.2586  -28.1263   22.8914 C   0  0  1  0  0  0  0  0  0  0  0  0
  -22.4854  -28.2222   19.8148 C   0  0  1  0  0  0  0  0  0  0  0  0
  -30.0467  -16.7148   21.2957 C   0  0  2  0  0  0  0  0  0  0  0  0
  -23.5164  -22.7767   14.4031 C   0  0  0  0  0  0  0  0  0  0  0  0
  -30.7308  -29.5321   20.9726 C   0  0  0  0  0  0  0  0  0  0  0  0
  -21.7163  -23.7521   20.7022 C   0  0  0  0  0  0  0  0  0  0  0  0
  -22.3554  -22.1642   18.8751 C   0  0  0  0  0  0  0  0  0  0  0  0
  -20.3179  -23.5834   18.6357 C   0  0  0  0  0  0  0  0  0  0  0  0
  -24.9170  -26.3140   14.3620 C   0  0  0  0  0  0  0  0  0  0  0  0
  -30.6358  -27.4292   19.5916 C   0  0  0  0  0  0  0  0  0  0  0  0
  -22.6017  -24.6521   18.4501 C   0  0  1  0  0  0  0  0  0  0  0  0
  -23.6076  -24.2366   14.8190 C   0  0  2  0  0  0  0  0  0  0  0  0
  -29.8401  -28.6093   20.1512 C   0  0  1  0  0  0  0  0  0  1  0  0
  -21.7653  -23.5591   19.1734 C   0  0  0  0  0  0  0  0  0  0  0  0
  -28.2993  -14.9837   21.1194 N   0  0  0  0  0  0  0  0  0  0  0  0
  -29.0430  -22.4627   18.9649 N   0  0  0  0  0  0  0  0  0  0  0  0
  -29.5555  -15.3589   20.8241 N   0  0  0  0  0  0  0  0  0  0  0  0
  -22.9831  -26.9285   19.3425 N   0  0  0  0  0  0  0  0  0  0  0  0
  -29.4430  -19.0514   21.7919 N   0  0  0  0  0  0  0  0  0  0  0  0
  -31.5309  -14.6478   19.7272 N   0  0  0  0  0  0  0  0  0  0  0  0
  -27.6518  -22.7643   15.6073 N   0  0  0  0  0  0  0  0  0  0  0  0
  -28.6981  -11.1829   19.1222 N   0  0  0  0  0  0  0  0  0  0  0  0
  -28.8271  -20.1697   19.8089 N   0  0  0  0  0  0  0  0  0  0  0  0
  -20.8044  -28.2413   21.5560 N   0  0  0  0  0  0  0  0  0  0  0  0
  -22.6431  -24.5100   16.9987 N   0  0  0  0  0  0  0  0  0  0  0  0
  -24.7278  -24.8703   14.0675 N   0  3  0  0  0  0  0  0  0  0  0  0
  -30.8196  -11.9480   18.7066 O   0  0  0  0  0  0  0  0  0  0  0  0
  -29.6056  -27.3102   17.4045 O   0  0  0  0  0  0  0  0  0  0  0  0
  -23.0279  -27.7779   22.0695 O   0  0  0  0  0  0  0  0  0  0  0  0
  -20.9362  -26.3402   18.3935 O   0  0  0  0  0  0  0  0  0  0  0  0
  -24.9501  -24.3535   16.8243 O   0  0  0  0  0  0  0  0  0  0  0  0
  -29.8688  -21.3096   21.5402 O   0  0  0  0  0  0  0  0  0  0  0  0
  -23.4486  -10.8613   20.9592 O   0  0  0  0  0  0  0  0  0  0  0  0
  -28.8088  -28.1019   20.9970 O   0  0  0  0  0  0  0  0  0  1  0  0
  -21.5869   -8.3780   16.4016 F   0  0  0  0  0  0  0  0  0  0  0  0
  -20.9683  -11.4911   19.9132 F   0  0  0  0  0  0  0  0  0  0  0  0
  -27.9194  -20.7576   17.3798 S   0  0  0  0  0  0  0  0  0  0  0  0
  1  2  1  0  0  0  0
  1  5  2  0  0  0  0
  2  6  2  0  0  0  0
  3  8  2  0  0  0  0
  3 15  1  0  0  0  0
  4  9  1  0  0  0  0
  4 15  2  0  0  0  0
  5 17  1  0  0  0  0
  6 19  1  0  0  0  0
  7 10  2  0  0  0  0
  7 18  1  0  0  0  0
  8 21  1  0  0  0  0
  9 21  2  0  0  0  0
 10 22  1  0  0  0  0
 11 12  2  0  0  0  0
 11 23  1  0  0  0  0
 12 24  1  0  0  0  0
 13 20  1  0  0  0  0
 13 22  2  0  0  0  0
 14 24  2  0  0  0  0
 14 25  1  0  0  0  0
 15 26  1  0  0  0  0
 16 26  1  0  0  0  0
 16 28  2  0  0  0  0
 16 33  1  0  0  0  0
 17 19  2  0  0  0  0
 17 39  1  0  0  0  0
 18 20  2  0  0  0  0
 18 40  1  0  0  0  0
 19 48  1  0  0  0  0
 20 41  1  0  0  0  0
 21 80  1  0  0  0  0
 22 81  1  0  0  0  0
 23 25  2  0  0  0  0
 23 80  1  0  0  0  0
 24 82  1  0  0  0  0
 25 83  1  0  0  0  0
 26 62  2  0  0  0  0
 27 29  2  0  0  0  0
 27 31  1  0  0  0  0
 27 63  1  0  0  0  0
 28 64  1  0  0  0  0
 28 67  1  0  0  0  0
 29 68  1  0  0  0  0
 29 84  1  0  0  0  0
 30 63  2  0  0  0  0
 30 70  1  0  0  0  0
 30 84  1  0  0  0  0
 31 32  2  0  0  0  0
 32 34  1  0  0  0  0
 33 69  1  0  0  0  0
 33 74  2  0  0  0  0
 34 57  1  0  0  0  0
 34 75  2  0  0  0  0
 35 49  1  0  0  0  0
 35 71  1  0  0  0  0
 35 76  2  0  0  0  0
 36 58  1  0  0  0  0
 36 65  1  0  0  0  0
 36 77  2  0  0  0  0
 37 59  1  0  0  0  0
 37 72  1  0  0  0  0
 37 78  2  0  0  0  0
 38 66  1  0  0  0  0
 38 70  1  0  0  0  0
 38 79  2  0  0  0  0
 39 42  1  0  0  0  0
 40 49  1  0  0  0  0
 41 65  1  0  0  0  0
 42 44  1  0  0  0  0
 43 45  1  0  0  0  0
 43 46  1  0  0  0  0
 44 48  1  0  0  0  0
 45 50  1  0  0  0  0
 46 66  1  0  0  0  0
 47 50  1  0  0  0  0
 47 66  1  0  0  0  0
 48 71  1  0  0  0  0
 49 65  1  0  0  0  0
 50 64  1  0  0  0  0
 51 59  1  0  0  0  0
 52 60  1  0  0  0  0
 53 61  1  0  0  0  0
 54 61  1  0  0  0  0
 55 61  1  0  0  0  0
 56 73  1  0  0  0  0
 57 60  1  0  0  0  0
 58 61  1  0  0  0  0
 58 72  1  0  0  0  0
 59 73  1  0  0  0  0
 60 81  1  0  0  0  0
 62 64  1  0  0  0  0
M  CHG  1  73   1
M  ISO  4  38 100  60 101  70 100  81 101
M  END
> <Batch ID>
0166

> <Smiles>
CNC(C)C(=O)NC(C(=O)N1Cc2cc([101O:1][101CH:1](C)CC(=O)C=Cc3nc([100NH:0][100C:0](=O)N4CCCC(n5nc(-c6ccc(Oc7ccc(F)cc7F)cc6)c(C(N)=O)c5N)C4)sc3N)ccc2CC1C(=O)NC1CCCc2ccccc21)C(C)(C)C

> <Shape>
0.307

> <Color>
0.088

> <Negative vol penalty>
0.000

$$$$

  -OEChem-04052304083D

 88 97  0     1  0  0  0  0  0999 V2000
  -17.2276  -30.4615   23.5862 C   0  0  0  0  0  0  0  0  0  0  0  0
  -18.5200  -30.3401   24.0867 C   0  0  0  0  0  0  0  0  0  0  0  0
  -26.5444  -12.5792   21.6480 C   0  0  0  0  0  0  0  0  0  0  0  0
  -25.6442  -14.0903   19.9918 C   0  0  0  0  0  0  0  0  0  0  0  0
  -16.6237  -29.3788   22.9483 C   0  0  0  0  0  0  0  0  0  0  0  0
  -19.2088  -29.1354   23.9506 C   0  0  0  0  0  0  0  0  0  0  0  0
  -25.5158  -28.8413   20.4826 C   0  0  0  0  0  0  0  0  0  0  0  0
  -25.3047  -11.9473   21.7453 C   0  0  0  0  0  0  0  0  0  0  0  0
  -24.4044  -13.4584   20.0891 C   0  0  0  0  0  0  0  0  0  0  0  0
  -26.8272  -28.7407   20.0175 C   0  0  0  0  0  0  0  0  0  0  0  0
  -23.5222   -9.6748   19.9871 C   0  0  0  0  0  0  0  0  0  0  0  0
  -23.5044   -8.2801   19.9960 C   0  0  0  0  0  0  0  0  0  0  0  0
  -26.7855  -26.3509   20.3850 C   0  0  0  0  0  0  0  0  0  0  0  0
  -29.2582  -22.6386   15.1776 C   0  0  0  0  0  0  0  0  0  0  0  0
  -28.7197  -20.5688   16.2778 C   0  0  0  0  0  0  0  0  0  0  0  0
  -22.4565   -8.3074   22.1728 C   0  0  0  0  0  0  0  0  0  0  0  0
  -26.7141  -13.6507   20.7712 C   0  0  0  0  0  0  0  0  0  0  0  0
  -29.2187  -13.7217   20.2919 C   0  0  0  0  0  0  0  0  0  0  0  0
  -17.3091  -28.1632   22.7957 C   0  0  0  0  0  0  0  0  0  0  0  0
  -24.8282  -27.6936   20.8867 C   0  0  0  0  0  0  0  0  0  0  0  0
  -18.6130  -28.0349   23.3112 C   0  0  0  0  0  0  0  0  0  0  0  0
  -25.4675  -26.4438   20.8401 C   0  0  0  0  0  0  0  0  0  0  0  0
  -28.7534  -21.3441   15.1241 C   0  0  0  0  0  0  0  0  0  0  0  0
  -24.2347  -12.3869   20.9659 C   0  0  0  0  0  0  0  0  0  0  0  0
  -27.4605  -27.4986   19.9690 C   0  0  0  0  0  0  0  0  0  0  0  0
  -23.0072  -10.3858   21.0711 C   0  0  0  0  0  0  0  0  0  0  0  0
  -22.9715   -7.5963   21.0888 C   0  0  0  0  0  0  0  0  0  0  0  0
  -22.4743   -9.7021   22.1639 C   0  0  0  0  0  0  0  0  0  0  0  0
  -27.9943  -14.3042   20.6707 C   0  0  0  0  0  0  0  0  0  0  0  0
  -29.7134  -23.1072   16.3995 C   0  0  0  0  0  0  0  0  0  0  0  0
  -29.1992  -21.1300   17.4504 C   0  0  0  0  0  0  0  0  0  0  0  0
  -30.1234  -14.7532   20.3540 C   0  0  0  0  0  0  0  0  0  0  0  0
  -29.5119  -12.3692   19.9172 C   0  0  0  0  0  0  0  0  0  0  0  0
  -21.6415  -26.2244   22.2143 C   0  0  0  0  0  0  0  0  0  0  0  0
  -22.6950  -24.2876   20.0814 C   0  0  0  0  0  0  0  0  0  0  0  0
  -23.0473  -21.9667   17.6062 C   0  0  0  0  0  0  0  0  0  0  0  0
  -29.5864  -20.6871   19.8999 C   0  0  0  0  0  0  0  0  0  0  0  0
  -16.5976  -27.0059   22.1408 C   0  0  0  0  0  0  0  0  0  0  0  0
  -23.4358  -27.7629   21.4525 C   0  0  0  0  0  0  0  0  0  0  0  0
  -24.7008  -25.2409   21.3176 C   0  0  0  0  0  0  0  0  0  0  0  0
  -17.5347  -25.8821   21.7058 C   0  0  0  0  0  0  0  0  0  0  0  0
  -32.0702  -25.9289   17.7274 C   0  0  0  0  0  0  0  0  0  0  0  0
  -30.9502  -18.8763   22.6455 C   0  0  0  0  0  0  0  0  0  0  0  0
  -18.5187  -25.5455   22.8217 C   0  0  0  0  0  0  0  0  0  0  0  0
  -31.4158  -24.5605   17.5273 C   0  0  0  0  0  0  0  0  0  0  0  0
  -29.1467  -25.5435   16.7462 C   0  0  0  0  0  0  0  0  0  0  0  0
  -30.4635  -17.4441   22.4129 C   0  0  0  0  0  0  0  0  0  0  0  0
  -31.1766  -26.8979   18.5028 C   0  0  0  0  0  0  0  0  0  0  0  0
  -29.5816  -26.9800   16.4549 C   0  0  0  0  0  0  0  0  0  0  0  0
  -29.8979  -19.9061   22.2383 C   0  0  0  0  0  0  0  0  0  0  0  0
  -28.8914  -18.3240   20.6405 C   0  0  0  0  0  0  0  0  0  0  0  0
  -19.4019  -26.7522   23.1610 C   0  0  1  0  0  0  0  0  0  0  0  0
  -30.2745  -24.5212   16.4962 C   0  0  2  0  0  0  0  0  0  0  0  0
  -22.5723  -26.5439   21.0816 C   0  0  1  0  0  0  0  0  0  0  0  0
  -29.9420  -17.2527   20.9752 C   0  0  2  0  0  0  0  0  0  0  0  0
  -30.2214  -27.7322   17.6340 C   0  0  1  0  0  0  0  0  0  0  0  0
  -28.2504  -20.7896   13.8347 C   0  0  0  0  0  0  0  0  0  0  0  0
  -22.4401  -19.6031   17.0212 C   0  0  0  0  0  0  0  0  0  0  0  0
  -24.8478  -23.2670   21.9860 C   0  0  0  0  0  0  0  0  0  0  0  0
  -24.8627  -21.1167   20.7038 C   0  0  0  0  0  0  0  0  0  0  0  0
  -22.7897  -21.8500   21.8818 C   0  0  0  0  0  0  0  0  0  0  0  0
  -21.5113  -22.8273   15.2273 C   0  0  0  0  0  0  0  0  0  0  0  0
  -30.1822  -29.6382   16.2598 C   0  0  0  0  0  0  0  0  0  0  0  0
  -29.1470  -28.3625   18.5314 C   0  0  0  0  0  0  0  0  0  1  0  0
  -23.5166  -23.0589   19.7836 C   0  0  1  0  0  0  0  0  0  0  0  0
  -22.0373  -21.0659   16.9184 C   0  0  2  0  0  0  0  0  0  0  0  0
  -24.0091  -22.3479   21.0756 C   0  0  0  0  0  0  0  0  0  0  0  0
  -28.1075  -15.6048   20.9527 N   0  0  0  0  0  0  0  0  0  0  0  0
  -29.6969  -22.3836   17.5413 N   0  0  0  0  0  0  0  0  0  0  0  0
  -29.4137  -15.8481   20.7511 N   0  0  0  0  0  0  0  0  0  0  0  0
  -23.3161  -25.2992   20.8238 N   0  0  0  0  0  0  0  0  0  0  0  0
  -29.4540  -19.6651   20.8636 N   0  0  0  0  0  0  0  0  0  0  0  0
  -31.4489  -14.8214   20.1072 N   0  0  0  0  0  0  0  0  0  0  0  0
  -29.4152  -12.0145   18.5648 N   0  0  0  0  0  0  0  0  0  0  0  0
  -29.1609  -20.3316   18.6204 N   0  0  0  0  0  0  0  0  0  0  0  0
  -20.4433  -26.9112   22.1688 N   0  0  0  0  0  0  0  0  0  0  0  0
  -22.6971  -22.2203   18.9155 N   0  0  0  0  0  0  0  0  0  0  0  0
  -21.9238  -21.4219   15.4757 N   0  3  0  0  0  0  0  0  0  0  0  0
  -29.8337  -11.4967   20.7592 O   0  0  0  0  0  0  0  0  0  0  0  0
  -21.9835  -25.4132   23.0668 O   0  0  0  0  0  0  0  0  0  0  0  0
  -21.5319  -24.3490   19.6729 O   0  0  0  0  0  0  0  0  0  0  0  0
  -24.0488  -22.3988   17.0398 O   0  0  0  0  0  0  0  0  0  0  0  0
  -30.0688  -21.7868   20.1823 O   0  0  0  0  0  0  0  0  0  0  0  0
  -23.0249  -11.7704   21.0604 O   0  0  0  0  0  0  0  0  0  0  0  0
  -28.7393  -27.4069   19.5096 O   0  0  0  0  0  0  0  0  0  1  0  0
  -30.9884  -28.8125   17.0800 O   0  0  0  0  0  0  0  0  0  0  0  0
  -22.9531   -6.2570   21.0966 F   0  0  0  0  0  0  0  0  0  0  0  0
  -21.9770  -10.3797   23.2076 F   0  0  0  0  0  0  0  0  0  0  0  0
  1  2  1  0  0  0  0
  1  5  2  0  0  0  0
  2  6  2  0  0  0  0
  3  8  2  0  0  0  0
  3 17  1  0  0  0  0
  4  9  1  0  0  0  0
  4 17  2  0  0  0  0
  5 19  1  0  0  0  0
  6 21  1  0  0  0  0
  7 10  2  0  0  0  0
  7 20  1  0  0  0  0
  8 24  1  0  0  0  0
  9 24  2  0  0  0  0
 10 25  1  0  0  0  0
 11 12  2  0  0  0  0
 11 26  1  0  0  0  0
 12 27  1  0  0  0  0
 13 22  1  0  0  0  0
 13 25  2  0  0  0  0
 14 23  2  0  0  0  0
 14 30  1  0  0  0  0
 15 23  1  0  0  0  0
 15 31  2  0  0  0  0
 16 27  2  0  0  0  0
 16 28  1  0  0  0  0
 17 29  1  0  0  0  0
 18 29  1  0  0  0  0
 18 32  2  0  0  0  0
 18 33  1  0  0  0  0
 19 21  2  0  0  0  0
 19 38  1  0  0  0  0
 20 22  2  0  0  0  0
 20 39  1  0  0  0  0
 21 52  1  0  0  0  0
 22 40  1  0  0  0  0
 23 57  1  0  0  0  0
 24 84  1  0  0  0  0
 25 85  1  0  0  0  0
 26 28  2  0  0  0  0
 26 84  1  0  0  0  0
 27 87  1  0  0  0  0
 28 88  1  0  0  0  0
 29 68  2  0  0  0  0
 30 53  1  0  0  0  0
 30 69  2  0  0  0  0
 31 69  1  0  0  0  0
 31 75  1  0  0  0  0
 32 70  1  0  0  0  0
 32 73  1  0  0  0  0
 33 74  1  0  0  0  0
 33 79  2  0  0  0  0
 34 54  1  0  0  0  0
 34 76  1  0  0  0  0
 34 80  2  0  0  0  0
 35 65  1  0  0  0  0
 35 71  1  0  0  0  0
 35 81  2  0  0  0  0
 36 66  1  0  0  0  0
 36 77  1  0  0  0  0
 36 82  2  0  0  0  0
 37 72  1  0  0  0  0
 37 75  1  0  0  0  0
 37 83  2  0  0  0  0
 38 41  1  0  0  0  0
 39 54  1  0  0  0  0
 40 71  1  0  0  0  0
 41 44  1  0  0  0  0
 42 45  1  0  0  0  0
 42 48  1  0  0  0  0
 43 47  1  0  0  0  0
 43 50  1  0  0  0  0
 44 52  1  0  0  0  0
 45 53  1  0  0  0  0
 46 49  1  0  0  0  0
 46 53  1  0  0  0  0
 47 55  1  0  0  0  0
 48 56  1  0  0  0  0
 49 56  1  0  0  0  0
 50 72  1  0  0  0  0
 51 55  1  0  0  0  0
 51 72  1  0  0  0  0
 52 76  1  0  0  0  0
 54 71  1  0  0  0  0
 55 70  1  0  0  0  0
 56 64  1  0  0  0  0
 56 86  1  0  0  0  0
 58 66  1  0  0  0  0
 59 67  1  0  0  0  0
 60 67  1  0  0  0  0
 61 67  1  0  0  0  0
 62 78  1  0  0  0  0
 63 86  1  0  0  0  0
 64 85  1  0  0  0  0
 65 67  1  0  0  0  0
 65 77  1  0  0  0  0
 66 78  1  0  0  0  0
 68 70  1  0  0  0  0
M  CHG  1  78   1
M  ISO  4  37 100  64 101  75 100  85 101
M  END
> <Batch ID>
0166

> <Smiles>
CNC(C)C(=O)NC(C(=O)N1Cc2cc([101O:1][101CH2:1]C3(OC)CCCC(c4cc(C)cc([100NH:0][100C:0](=O)N5CCCC(n6nc(-c7ccc(Oc8ccc(F)cc8F)cc7)c(C(N)=O)c6N)C5)n4)CC3)ccc2CC1C(=O)NC1CCCc2ccccc21)C(C)(C)C

> <Shape>
0.281

> <Color>
0.093

> <Negative vol penalty>
0.000

$$$$

  -OEChem-04052304083D

 83 91  0     1  0  0  0  0  0999 V2000
  -19.9206  -25.6930   25.2339 C   0  0  0  0  0  0  0  0  0  0  0  0
  -20.9974  -25.4328   24.3923 C   0  0  0  0  0  0  0  0  0  0  0  0
  -24.0235   -9.1745   21.2524 C   0  0  0  0  0  0  0  0  0  0  0  0
  -24.8994  -10.2090   23.2523 C   0  0  0  0  0  0  0  0  0  0  0  0
  -19.0370  -26.7288   24.9335 C   0  0  0  0  0  0  0  0  0  0  0  0
  -21.1905  -26.2076   23.2491 C   0  0  0  0  0  0  0  0  0  0  0  0
  -26.0217  -27.5968   22.6371 C   0  0  0  0  0  0  0  0  0  0  0  0
  -23.9979   -7.9404   21.9019 C   0  0  0  0  0  0  0  0  0  0  0  0
  -24.8738   -8.9749   23.9019 C   0  0  0  0  0  0  0  0  0  0  0  0
  -26.8996  -26.6406   22.1285 C   0  0  0  0  0  0  0  0  0  0  0  0
  -22.0254   -6.3410   24.1345 C   0  0  0  0  0  0  0  0  0  0  0  0
  -20.8822   -5.5552   23.9884 C   0  0  0  0  0  0  0  0  0  0  0  0
  -26.7197  -27.6465   19.9433 C   0  0  0  0  0  0  0  0  0  0  0  0
  -30.4088  -18.9676   20.4847 C   0  0  0  0  0  0  0  0  0  0  0  0
  -22.2159   -3.7983   23.0027 C   0  0  0  0  0  0  0  0  0  0  0  0
  -24.4743  -10.3088   21.9275 C   0  0  0  0  0  0  0  0  0  0  0  0
  -23.4720  -12.5429   21.2120 C   0  0  0  0  0  0  0  0  0  0  0  0
  -19.2249  -27.5229   23.7913 C   0  0  0  0  0  0  0  0  0  0  0  0
  -25.4767  -28.5801   21.7989 C   0  0  0  0  0  0  0  0  0  0  0  0
  -20.3078  -27.2541   22.9325 C   0  0  0  0  0  0  0  0  0  0  0  0
  -25.8371  -28.6156   20.4442 C   0  0  0  0  0  0  0  0  0  0  0  0
  -30.0115  -17.8970   21.3209 C   0  0  0  0  0  0  0  0  0  0  0  0
  -24.4230   -7.8406   23.2267 C   0  0  0  0  0  0  0  0  0  0  0  0
  -27.2465  -26.6636   20.7808 C   0  0  0  0  0  0  0  0  0  0  0  0
  -23.2638   -5.8555   23.7146 C   0  0  0  0  0  0  0  0  0  0  0  0
  -20.9775   -4.2839   23.4226 C   0  0  0  0  0  0  0  0  0  0  0  0
  -23.3591   -4.5842   23.1487 C   0  0  0  0  0  0  0  0  0  0  0  0
  -24.5016  -11.5838   21.2569 C   0  0  0  0  0  0  0  0  0  0  0  0
  -29.0463  -18.4048   22.1590 C   0  0  0  0  0  0  0  0  0  0  0  0
  -29.6578  -20.0532   20.8713 C   0  0  0  0  0  0  0  0  0  0  0  0
  -23.9893  -13.5668   20.4567 C   0  0  0  0  0  0  0  0  0  0  0  0
  -28.5467  -21.9942   20.4354 C   0  0  0  0  0  0  0  0  0  0  0  0
  -22.1649  -12.5110   21.8004 C   0  0  0  0  0  0  0  0  0  0  0  0
  -28.4811  -23.3907   19.9080 C   0  0  0  0  0  0  0  0  0  0  0  0
  -22.5378  -29.3623   20.8745 C   0  0  0  0  0  0  0  0  0  0  0  0
  -24.0620  -31.8633   19.4800 C   0  0  0  0  0  0  0  0  0  0  0  0
  -26.9534  -33.1430   18.1961 C   0  0  0  0  0  0  0  0  0  0  0  0
  -29.5846  -15.3644   19.3113 C   0  0  0  0  0  0  0  0  0  0  0  0
  -18.2164  -28.6010   23.4828 C   0  0  0  0  0  0  0  0  0  0  0  0
  -24.5520  -29.6206   22.3686 C   0  0  0  0  0  0  0  0  0  0  0  0
  -25.2956  -29.6626   19.5067 C   0  0  0  0  0  0  0  0  0  0  0  0
  -18.7052  -29.6155   22.4521 C   0  0  0  0  0  0  0  0  0  0  0  0
  -27.1127  -14.4120   16.9324 C   0  0  0  0  0  0  0  0  0  0  0  0
  -19.3407  -28.9035   21.2621 C   0  0  0  0  0  0  0  0  0  0  0  0
  -26.0703  -13.6657   17.7669 C   0  0  0  0  0  0  0  0  0  0  0  0
  -28.5313  -14.1442   17.4303 C   0  0  0  0  0  0  0  0  0  0  0  0
  -27.7015  -13.6618   19.7002 C   0  0  0  0  0  0  0  0  0  0  0  0
  -20.5649  -28.0884   21.6964 C   0  0  1  0  0  0  0  0  0  0  0  0
  -23.6556  -30.2645   21.3153 C   0  0  1  0  0  0  0  0  0  0  0  0
  -26.2517  -13.9449   19.2710 C   0  0  2  0  0  0  0  0  0  0  0  0
  -28.2422  -17.8219   23.2434 C   0  0  0  0  0  0  0  0  0  0  0  0
  -27.8794  -35.1989   17.0946 C   0  0  0  0  0  0  0  0  0  0  0  0
  -22.7055  -31.0700   16.8646 C   0  0  0  0  0  0  0  0  0  0  0  0
  -24.3569  -32.5093   15.6524 C   0  0  0  0  0  0  0  0  0  0  0  0
  -22.7825  -33.5324   17.2947 C   0  0  0  0  0  0  0  0  0  0  0  0
  -28.8886  -33.5883   20.3906 C   0  0  0  0  0  0  0  0  0  0  0  0
  -30.5304  -16.5174   21.2950 C   0  0  0  0  0  0  0  0  0  0  0  0
  -28.1036  -24.4488   20.9079 C   0  0  0  0  0  0  0  0  0  1  0  0
  -24.6981  -32.1115   18.1336 C   0  0  1  0  0  0  0  0  0  0  0  0
  -27.6486  -34.4751   18.4120 C   0  0  2  0  0  0  0  0  0  0  0  0
  -23.6446  -32.2848   17.0033 C   0  0  0  0  0  0  0  0  0  0  0  0
  -25.5906  -11.9644   20.5836 N   0  0  0  0  0  0  0  0  0  0  0  0
  -29.6660  -21.3620   20.3603 N   0  0  0  0  0  0  0  0  0  0  0  0
  -25.2481  -13.1740   20.1085 N   0  0  0  0  0  0  0  0  0  0  0  0
  -24.3901  -30.6544   20.1100 N   0  0  0  0  0  0  0  0  0  0  0  0
  -28.6364  -14.4300   18.8632 N   0  0  0  0  0  0  0  0  0  0  0  0
  -23.4857  -14.7558   20.0631 N   0  0  0  0  0  0  0  0  0  0  0  0
  -21.7948  -11.3829   22.5451 N   0  0  0  0  0  0  0  0  0  0  0  0
  -21.7044  -28.9571   21.8995 N   0  0  0  0  0  0  0  0  0  0  0  0
  -25.5838  -33.2580   18.3058 N   0  0  0  0  0  0  0  0  0  0  0  0
  -29.6139  -15.5810   20.6835 N   0  0  0  0  0  0  0  0  0  0  0  0
  -28.9685  -34.2695   19.0729 N   0  3  0  0  0  0  0  0  0  0  0  0
  -21.3434  -13.4479   21.6558 O   0  0  0  0  0  0  0  0  0  0  0  0
  -28.7459  -23.5766   18.7308 O   0  0  0  0  0  0  0  0  0  0  0  0
  -22.4379  -29.0577   19.6917 O   0  0  0  0  0  0  0  0  0  0  0  0
  -23.3075  -32.7139   19.9584 O   0  0  0  0  0  0  0  0  0  0  0  0
  -27.5641  -32.1050   17.9507 O   0  0  0  0  0  0  0  0  0  0  0  0
  -30.3449  -15.9654   18.5446 O   0  0  0  0  0  0  0  0  0  0  0  0
  -28.8248  -19.7185   21.8914 O   0  0  0  0  0  0  0  0  0  0  0  0
  -24.3979   -6.6366   23.8609 O   0  0  0  0  0  0  0  0  0  0  0  0
  -28.1027  -25.7311   20.2817 O   0  0  0  0  0  0  0  0  0  1  0  0
  -19.8799   -3.5288   23.2839 F   0  0  0  0  0  0  0  0  0  0  0  0
  -24.5462   -4.1118   22.7446 F   0  0  0  0  0  0  0  0  0  0  0  0
  1  2  1  0  0  0  0
  1  5  2  0  0  0  0
  2  6  2  0  0  0  0
  3  8  2  0  0  0  0
  3 16  1  0  0  0  0
  4  9  1  0  0  0  0
  4 16  2  0  0  0  0
  5 18  1  0  0  0  0
  6 20  1  0  0  0  0
  7 10  2  0  0  0  0
  7 19  1  0  0  0  0
  8 23  1  0  0  0  0
  9 23  2  0  0  0  0
 10 24  1  0  0  0  0
 11 12  2  0  0  0  0
 11 25  1  0  0  0  0
 12 26  1  0  0  0  0
 13 21  1  0  0  0  0
 13 24  2  0  0  0  0
 14 22  1  0  0  0  0
 14 30  2  0  0  0  0
 15 26  2  0  0  0  0
 15 27  1  0  0  0  0
 16 28  1  0  0  0  0
 17 28  1  0  0  0  0
 17 31  2  0  0  0  0
 17 33  1  0  0  0  0
 18 20  2  0  0  0  0
 18 39  1  0  0  0  0
 19 21  2  0  0  0  0
 19 40  1  0  0  0  0
 20 48  1  0  0  0  0
 21 41  1  0  0  0  0
 22 29  2  0  0  0  0
 22 57  1  0  0  0  0
 23 80  1  0  0  0  0
 24 81  1  0  0  0  0
 25 27  2  0  0  0  0
 25 80  1  0  0  0  0
 26 82  1  0  0  0  0
 27 83  1  0  0  0  0
 28 62  2  0  0  0  0
 29 51  1  0  0  0  0
 29 79  1  0  0  0  0
 30 63  1  0  0  0  0
 30 79  1  0  0  0  0
 31 64  1  0  0  0  0
 31 67  1  0  0  0  0
 32 34  1  0  0  0  0
 32 63  2  0  0  0  0
 33 68  1  0  0  0  0
 33 73  2  0  0  0  0
 34 58  1  0  0  0  0
 34 74  2  0  0  0  0
 35 49  1  0  0  0  0
 35 69  1  0  0  0  0
 35 75  2  0  0  0  0
 36 59  1  0  0  0  0
 36 65  1  0  0  0  0
 36 76  2  0  0  0  0
 37 60  1  0  0  0  0
 37 70  1  0  0  0  0
 37 77  2  0  0  0  0
 38 66  1  0  0  0  0
 38 71  1  0  0  0  0
 38 78  2  0  0  0  0
 39 42  1  0  0  0  0
 40 49  1  0  0  0  0
 41 65  1  0  0  0  0
 42 44  1  0  0  0  0
 43 45  1  0  0  0  0
 43 46  1  0  0  0  0
 44 48  1  0  0  0  0
 45 50  1  0  0  0  0
 46 66  1  0  0  0  0
 47 50  1  0  0  0  0
 47 66  1  0  0  0  0
 48 69  1  0  0  0  0
 49 65  1  0  0  0  0
 50 64  1  0  0  0  0
 52 60  1  0  0  0  0
 53 61  1  0  0  0  0
 54 61  1  0  0  0  0
 55 61  1  0  0  0  0
 56 72  1  0  0  0  0
 57 71  1  0  0  0  0
 58 81  1  0  0  0  0
 59 61  1  0  0  0  0
 59 70  1  0  0  0  0
 60 72  1  0  0  0  0
 62 64  1  0  0  0  0
M  CHG  1  72   1
M  ISO  4  38 100  58 101  71 100  81 101
M  END
> <Batch ID>
0166

> <Smiles>
CNC(C)C(=O)NC(C(=O)N1Cc2cc([101O:1][101CH2:1]C(=O)CNc3cc(C=[100N:0][100C:0](=O)N4CCCC(n5nc(-c6ccc(Oc7ccc(F)cc7F)cc6)c(C(N)=O)c5N)C4)c(C)o3)ccc2CC1C(=O)NC1CCCc2ccccc21)C(C)(C)C

> <Shape>
0.280

> <Color>
0.120

> <Negative vol penalty>
0.000

$$$$

  -OEChem-04052304083D

 88 96  0     1  0  0  0  0  0999 V2000
  -32.3207  -36.4406   19.0198 C   0  0  0  0  0  0  0  0  0  0  0  0
  -32.0524  -35.2725   18.3134 C   0  0  0  0  0  0  0  0  0  0  0  0
  -23.1581   -9.6636   21.3768 C   0  0  0  0  0  0  0  0  0  0  0  0
  -23.8250  -10.5915   23.5055 C   0  0  0  0  0  0  0  0  0  0  0  0
  -32.1301  -36.4783   20.4004 C   0  0  0  0  0  0  0  0  0  0  0  0
  -31.5944  -34.1410   18.9875 C   0  0  0  0  0  0  0  0  0  0  0  0
  -27.3291  -28.4554   18.0944 C   0  0  0  0  0  0  0  0  0  0  0  0
  -22.4456   -8.6623   22.0365 C   0  0  0  0  0  0  0  0  0  0  0  0
  -23.1124   -9.5902   24.1652 C   0  0  0  0  0  0  0  0  0  0  0  0
  -27.3466  -27.0665   18.2139 C   0  0  0  0  0  0  0  0  0  0  0  0
  -23.1212   -5.7447   23.6035 C   0  0  0  0  0  0  0  0  0  0  0  0
  -23.2614   -4.4370   23.1388 C   0  0  0  0  0  0  0  0  0  0  0  0
  -26.9786  -27.2721   20.5891 C   0  0  0  0  0  0  0  0  0  0  0  0
  -31.6910  -17.5685   20.8009 C   0  0  0  0  0  0  0  0  0  0  0  0
  -31.2527  -19.9319   20.5576 C   0  0  0  0  0  0  0  0  0  0  0  0
  -20.8885   -4.3404   22.6947 C   0  0  0  0  0  0  0  0  0  0  0  0
  -23.8479  -10.6282   22.1113 C   0  0  0  0  0  0  0  0  0  0  0  0
  -29.4316  -18.3481   20.4485 C   0  0  0  0  0  0  0  0  0  0  0  0
  -24.1060  -12.9245   21.0305 C   0  0  0  0  0  0  0  0  0  0  0  0
  -31.6603  -35.3496   21.0904 C   0  0  0  0  0  0  0  0  0  0  0  0
  -27.1468  -29.2648   19.2250 C   0  0  0  0  0  0  0  0  0  0  0  0
  -31.3986  -34.1632   20.3789 C   0  0  0  0  0  0  0  0  0  0  0  0
  -26.9566  -28.6710   20.4809 C   0  0  0  0  0  0  0  0  0  0  0  0
  -30.3308  -17.3004   20.6471 C   0  0  0  0  0  0  0  0  0  0  0  0
  -29.8925  -19.6639   20.4038 C   0  0  0  0  0  0  0  0  0  0  0  0
  -22.4226   -8.6256   23.4307 C   0  0  0  0  0  0  0  0  0  0  0  0
  -27.1743  -26.4747   19.4617 C   0  0  0  0  0  0  0  0  0  0  0  0
  -21.8646   -6.3502   23.6139 C   0  0  0  0  0  0  0  0  0  0  0  0
  -22.1451   -3.7349   22.6844 C   0  0  0  0  0  0  0  0  0  0  0  0
  -32.1519  -18.8843   20.7561 C   0  0  0  0  0  0  0  0  0  0  0  0
  -20.7483   -5.6481   23.1595 C   0  0  0  0  0  0  0  0  0  0  0  0
  -24.5847  -11.6625   21.4304 C   0  0  0  0  0  0  0  0  0  0  0  0
  -25.1850  -13.5267   20.4309 C   0  0  0  0  0  0  0  0  0  0  0  0
  -28.0067  -18.0680   20.2870 C   0  0  0  0  0  0  0  0  0  0  0  0
  -22.8026  -13.5009   21.1871 C   0  0  0  0  0  0  0  0  0  0  0  0
  -28.8883  -31.4720   20.7079 C   0  0  0  0  0  0  0  0  0  0  0  0
  -28.2197  -22.9902   19.9218 C   0  0  0  0  0  0  0  0  0  0  0  0
  -26.2003  -31.8388   22.4863 C   0  0  0  0  0  0  0  0  0  0  0  0
  -23.2942  -30.4861   23.6574 C   0  0  0  0  0  0  0  0  0  0  0  0
  -30.6000  -14.8178   20.3146 C   0  0  0  0  0  0  0  0  0  0  0  0
  -31.5148  -35.4239   22.5898 C   0  0  0  0  0  0  0  0  0  0  0  0
  -27.1037  -30.7609   19.0753 C   0  0  0  0  0  0  0  0  0  0  0  0
  -26.7370  -29.4949   21.7225 C   0  0  0  0  0  0  0  0  0  0  0  0
  -30.6696  -34.2961   23.1763 C   0  0  0  0  0  0  0  0  0  0  0  0
  -29.6661  -11.6268   19.0410 C   0  0  0  0  0  0  0  0  0  0  0  0
  -31.0907  -32.9527   22.5892 C   0  0  0  0  0  0  0  0  0  0  0  0
  -28.2215  -11.4554   19.5162 C   0  0  0  0  0  0  0  0  0  0  0  0
  -30.5239  -12.3450   20.0812 C   0  0  0  0  0  0  0  0  0  0  0  0
  -28.5391  -13.4548   21.0290 C   0  0  0  0  0  0  0  0  0  0  0  0
  -30.8768  -32.9228   21.0710 C   0  0  1  0  0  0  0  0  0  0  0  0
  -27.4244  -31.5004   20.3705 C   0  0  1  0  0  0  0  0  0  0  0  0
  -27.6208  -12.7942   19.9878 C   0  0  2  0  0  0  0  0  0  0  0  0
  -27.5067  -17.8325   18.8947 C   0  0  0  0  0  0  0  0  0  0  0  0
  -21.3249  -31.0137   25.1206 C   0  0  0  0  0  0  0  0  0  0  0  0
  -29.3926  -24.8633   18.6777 C   0  0  0  0  0  0  0  0  0  0  0  0
  -28.9669  -25.0549   21.1549 C   0  0  0  0  0  0  0  0  0  0  0  0
  -27.9336  -31.4273   24.9635 C   0  0  0  0  0  0  0  0  0  0  0  0
  -25.8405  -31.0168   26.2744 C   0  0  0  0  0  0  0  0  0  0  0  0
  -26.2124  -33.2284   25.1821 C   0  0  0  0  0  0  0  0  0  0  0  0
  -21.3920  -30.1561   21.4143 C   0  0  0  0  0  0  0  0  0  0  0  0
  -29.4308  -22.1028   20.1505 C   0  0  0  0  0  0  0  0  0  0  0  0
  -25.6631  -31.2167   23.7526 C   0  0  1  0  0  0  0  0  0  0  0  0
  -21.8773  -31.0289   23.7037 C   0  0  2  0  0  0  0  0  0  0  0  0
  -28.4559  -24.5050   19.8273 C   0  0  0  0  0  0  0  0  0  1  0  0
  -26.4184  -31.7065   25.0203 C   0  0  0  0  0  0  0  0  0  0  0  0
  -25.8678  -11.4729   21.1116 N   0  0  0  0  0  0  0  0  0  0  0  0
  -26.2046  -12.6239   20.5049 N   0  0  0  0  0  0  0  0  0  0  0  0
  -26.7093  -30.9536   21.5255 N   0  0  0  0  0  0  0  0  0  0  0  0
  -29.8946  -13.6068   20.4774 N   0  0  0  0  0  0  0  0  0  0  0  0
  -25.3516  -14.7352   19.8527 N   0  0  0  0  0  0  0  0  0  0  0  0
  -21.8103  -12.7453   21.8264 N   0  0  0  0  0  0  0  0  0  0  0  0
  -29.8886  -15.9551   20.6954 N   0  0  0  0  0  0  0  0  0  0  0  0
  -29.0182  -20.7220   20.2071 N   0  0  0  0  0  0  0  0  0  0  0  0
  -29.4776  -32.7207   20.7616 N   0  0  0  0  0  0  0  0  0  0  0  0
  -24.2305  -31.4924   23.7668 N   0  0  0  0  0  0  0  0  0  0  0  0
  -20.9802  -30.2095   22.8407 N   0  3  0  0  0  0  0  0  0  0  0  0
  -27.1947  -18.0174   21.2082 O   0  0  0  0  0  0  0  0  0  0  0  0
  -22.5214  -14.6455   20.7577 O   0  0  0  0  0  0  0  0  0  0  0  0
  -29.4418  -30.3969   20.9064 O   0  0  0  0  0  0  0  0  0  0  0  0
  -27.0854  -22.5185   19.8126 O   0  0  0  0  0  0  0  0  0  0  0  0
  -26.1630  -33.0644   22.3516 O   0  0  0  0  0  0  0  0  0  0  0  0
  -23.5453  -29.2887   23.5400 O   0  0  0  0  0  0  0  0  0  0  0  0
  -31.7403  -14.8465   19.8446 O   0  0  0  0  0  0  0  0  0  0  0  0
  -21.7272   -7.6488   24.0747 O   0  0  0  0  0  0  0  0  0  0  0  0
  -27.1916  -25.1192   19.5812 O   0  0  0  0  0  0  0  0  0  1  0  0
  -22.2801   -2.4797   22.2368 F   0  0  0  0  0  0  0  0  0  0  0  0
  -33.4583  -19.1419   20.9026 F   0  0  0  0  0  0  0  0  0  0  0  0
  -19.5388   -6.2250   23.1659 F   0  0  0  0  0  0  0  0  0  0  0  0
  1  2  1  0  0  0  0
  1  5  2  0  0  0  0
  2  6  2  0  0  0  0
  3  8  2  0  0  0  0
  3 17  1  0  0  0  0
  4  9  1  0  0  0  0
  4 17  2  0  0  0  0
  5 20  1  0  0  0  0
  6 22  1  0  0  0  0
  7 10  2  0  0  0  0
  7 21  1  0  0  0  0
  8 26  1  0  0  0  0
  9 26  2  0  0  0  0
 10 27  1  0  0  0  0
 11 12  2  0  0  0  0
 11 28  1  0  0  0  0
 12 29  1  0  0  0  0
 13 23  1  0  0  0  0
 13 27  2  0  0  0  0
 14 24  2  0  0  0  0
 14 30  1  0  0  0  0
 15 25  1  0  0  0  0
 15 30  2  0  0  0  0
 16 29  2  0  0  0  0
 16 31  1  0  0  0  0
 17 32  1  0  0  0  0
 18 24  1  0  0  0  0
 18 25  2  0  0  0  0
 18 34  1  0  0  0  0
 19 32  1  0  0  0  0
 19 33  2  0  0  0  0
 19 35  1  0  0  0  0
 20 22  2  0  0  0  0
 20 41  1  0  0  0  0
 21 23  2  0  0  0  0
 21 42  1  0  0  0  0
 22 50  1  0  0  0  0
 23 43  1  0  0  0  0
 24 72  1  0  0  0  0
 25 73  1  0  0  0  0
 26 84  1  0  0  0  0
 27 85  1  0  0  0  0
 28 31  2  0  0  0  0
 28 84  1  0  0  0  0
 29 86  1  0  0  0  0
 30 87  1  0  0  0  0
 31 88  1  0  0  0  0
 32 66  2  0  0  0  0
 33 67  1  0  0  0  0
 33 70  1  0  0  0  0
 34 53  1  0  0  0  0
 34 77  2  0  0  0  0
 35 71  1  0  0  0  0
 35 78  2  0  0  0  0
 36 51  1  0  0  0  0
 36 74  1  0  0  0  0
 36 79  2  0  0  0  0
 37 61  1  0  0  0  0
 37 64  1  0  0  0  0
 37 80  2  0  0  0  0
 38 62  1  0  0  0  0
 38 68  1  0  0  0  0
 38 81  2  0  0  0  0
 39 63  1  0  0  0  0
 39 75  1  0  0  0  0
 39 82  2  0  0  0  0
 40 69  1  0  0  0  0
 40 72  1  0  0  0  0
 40 83  2  0  0  0  0
 41 44  1  0  0  0  0
 42 51  1  0  0  0  0
 43 68  1  0  0  0  0
 44 46  1  0  0  0  0
 45 47  1  0  0  0  0
 45 48  1  0  0  0  0
 46 50  1  0  0  0  0
 47 52  1  0  0  0  0
 48 69  1  0  0  0  0
 49 52  1  0  0  0  0
 49 69  1  0  0  0  0
 50 74  1  0  0  0  0
 51 68  1  0  0  0  0
 52 67  1  0  0  0  0
 54 63  1  0  0  0  0
 55 64  1  0  0  0  0
 56 64  1  0  0  0  0
 57 65  1  0  0  0  0
 58 65  1  0  0  0  0
 59 65  1  0  0  0  0
 60 76  1  0  0  0  0
 61 73  1  0  0  0  0
 62 65  1  0  0  0  0
 62 75  1  0  0  0  0
 63 76  1  0  0  0  0
 64 85  1  0  0  0  0
 66 67  1  0  0  0  0
M  CHG  1  76   1
M  ISO  4  40 100  64 101  72 100  85 101
M  END
> <Batch ID>
0166

> <Smiles>
CNC(C)C(=O)NC(C(=O)N1Cc2cc([101O:1][101C:1](C)(C)C(=O)CNc3cc(F)cc([100NH:0][100C:0](=O)N4CCCC(n5nc(-c6ccc(Oc7ccc(F)cc7F)cc6)c(C(N)=O)c5N)C4)c3C(C)=O)ccc2CC1C(=O)NC1CCCc2ccccc21)C(C)(C)C

> <Shape>
0.333

> <Color>
0.190

> <Negative vol penalty>
0.000

$$$$

  -OEChem-04052304083D

 87 95  0     1  0  0  0  0  0999 V2000
  -28.4648  -33.3087   14.7192 C   0  0  0  0  0  0  0  0  0  0  0  0
  -28.1340  -31.9739   14.9298 C   0  0  0  0  0  0  0  0  0  0  0  0
  -31.6472  -19.3851   19.4937 C   0  0  0  0  0  0  0  0  0  0  0  0
  -22.9811  -10.1190   19.9173 C   0  0  0  0  0  0  0  0  0  0  0  0
  -23.8240   -9.9284   22.1734 C   0  0  0  0  0  0  0  0  0  0  0  0
  -28.8054  -34.1203   15.8006 C   0  0  0  0  0  0  0  0  0  0  0  0
  -28.1446  -31.4496   16.2218 C   0  0  0  0  0  0  0  0  0  0  0  0
  -24.3858  -27.1817   18.4938 C   0  0  0  0  0  0  0  0  0  0  0  0
  -31.8243  -18.2833   20.3306 C   0  0  0  0  0  0  0  0  0  0  0  0
  -30.4540  -20.1065   19.5335 C   0  0  0  0  0  0  0  0  0  0  0  0
  -22.2063   -8.9753   20.1101 C   0  0  0  0  0  0  0  0  0  0  0  0
  -23.0492   -8.7847   22.3663 C   0  0  0  0  0  0  0  0  0  0  0  0
  -24.5288  -25.8069   18.6762 C   0  0  0  0  0  0  0  0  0  0  0  0
  -23.2012   -5.5063   21.5538 C   0  0  0  0  0  0  0  0  0  0  0  0
  -23.8056   -4.4103   22.1693 C   0  0  0  0  0  0  0  0  0  0  0  0
  -25.1880  -26.1852   20.9656 C   0  0  0  0  0  0  0  0  0  0  0  0
  -22.1750   -4.5106   23.9492 C   0  0  0  0  0  0  0  0  0  0  0  0
  -23.7900  -10.5955   20.9489 C   0  0  0  0  0  0  0  0  0  0  0  0
  -29.6150  -18.6243   21.2471 C   0  0  0  0  0  0  0  0  0  0  0  0
  -24.2169  -13.1100   21.0028 C   0  0  0  0  0  0  0  0  0  0  0  0
  -28.8108  -33.6081   17.1076 C   0  0  0  0  0  0  0  0  0  0  0  0
  -24.6538  -28.0707   19.5446 C   0  0  0  0  0  0  0  0  0  0  0  0
  -28.4868  -32.2547   17.3215 C   0  0  0  0  0  0  0  0  0  0  0  0
  -25.0452  -27.5707   20.7948 C   0  0  0  0  0  0  0  0  0  0  0  0
  -30.8083  -17.9029   21.2073 C   0  0  0  0  0  0  0  0  0  0  0  0
  -29.4379  -19.7261   20.4102 C   0  0  0  0  0  0  0  0  0  0  0  0
  -22.2403   -8.3081   21.3346 C   0  0  0  0  0  0  0  0  0  0  0  0
  -24.9327  -25.3086   19.9113 C   0  0  0  0  0  0  0  0  0  0  0  0
  -22.0837   -6.1046   22.1360 C   0  0  0  0  0  0  0  0  0  0  0  0
  -23.2925   -3.9124   23.3670 C   0  0  0  0  0  0  0  0  0  0  0  0
  -21.5705   -5.6067   23.3337 C   0  0  0  0  0  0  0  0  0  0  0  0
  -24.5910  -11.7766   20.7501 C   0  0  0  0  0  0  0  0  0  0  0  0
  -25.3210  -13.8485   20.6535 C   0  0  0  0  0  0  0  0  0  0  0  0
  -26.2927  -23.4074   19.8304 C   0  0  0  0  0  0  0  0  0  1  0  0
  -28.5545  -18.2219   22.1670 C   0  0  0  0  0  0  0  0  0  0  0  0
  -22.9817  -13.6341   21.5080 C   0  0  0  0  0  0  0  0  0  0  0  0
  -26.5432  -22.1004   19.9734 C   0  0  0  0  0  0  0  0  0  0  0  0
  -27.9160  -21.5844   19.6612 C   0  0  0  0  0  0  0  0  0  0  0  0
  -26.7340  -30.4281   20.0130 C   0  0  0  0  0  0  0  0  0  0  0  0
  -25.0334  -30.8633   22.7408 C   0  0  0  0  0  0  0  0  0  0  0  0
  -22.9736  -29.5325   25.1143 C   0  0  0  0  0  0  0  0  0  0  0  0
  -30.8407  -14.6704   20.7022 C   0  0  0  0  0  0  0  0  0  0  0  0
  -29.2315  -34.5116   18.2396 C   0  0  0  0  0  0  0  0  0  0  0  0
  -24.4690  -29.5493   19.3396 C   0  0  0  0  0  0  0  0  0  0  0  0
  -25.3255  -28.4817   21.9609 C   0  0  0  0  0  0  0  0  0  0  0  0
  -28.8550  -33.9760   19.6186 C   0  0  0  0  0  0  0  0  0  0  0  0
  -29.5326  -12.5108   18.1919 C   0  0  0  0  0  0  0  0  0  0  0  0
  -29.2258  -32.5012   19.7379 C   0  0  0  0  0  0  0  0  0  0  0  0
  -28.1024  -12.2326   18.6578 C   0  0  0  0  0  0  0  0  0  0  0  0
  -30.5002  -12.6105   19.3691 C   0  0  0  0  0  0  0  0  0  0  0  0
  -28.6776  -13.2970   20.8792 C   0  0  0  0  0  0  0  0  0  0  0  0
  -28.4628  -31.6557   18.7110 C   0  0  1  0  0  0  0  0  0  0  0  0
  -25.2655  -30.3940   20.3293 C   0  0  1  0  0  0  0  0  0  0  0  0
  -27.6555  -13.2435   19.7309 C   0  0  2  0  0  0  0  0  0  0  0  0
  -28.5671  -18.8272   23.5375 C   0  0  0  0  0  0  0  0  0  0  0  0
  -21.7810  -30.1218   27.2421 C   0  0  0  0  0  0  0  0  0  0  0  0
  -27.6707  -30.6867   24.2650 C   0  0  0  0  0  0  0  0  0  0  0  0
  -26.3535  -30.3260   26.3634 C   0  0  0  0  0  0  0  0  0  0  0  0
  -26.1065  -32.4558   25.0883 C   0  0  0  0  0  0  0  0  0  0  0  0
  -20.3232  -28.9839   23.9170 C   0  0  0  0  0  0  0  0  0  0  0  0
  -31.0282  -16.7184   22.0913 C   0  0  0  0  0  0  0  0  0  0  0  0
  -25.1166  -30.3272   24.1496 C   0  0  1  0  0  0  0  0  0  0  0  0
  -21.6814  -30.0418   25.7267 C   0  0  2  0  0  0  0  0  0  0  0  0
  -26.3085  -30.9316   24.9442 C   0  0  0  0  0  0  0  0  0  0  0  0
  -25.8356  -11.6711   20.2768 N   0  0  0  0  0  0  0  0  0  0  0  0
  -26.2530  -12.9477   20.2291 N   0  0  0  0  0  0  0  0  0  0  0  0
  -25.1368  -29.9199   21.7087 N   0  0  0  0  0  0  0  0  0  0  0  0
  -30.0193  -13.5869   20.3495 N   0  0  0  0  0  0  0  0  0  0  0  0
  -25.5758  -15.1741   20.6710 N   0  0  0  0  0  0  0  0  0  0  0  0
  -21.9511  -12.7358   21.8164 N   0  0  0  0  0  0  0  0  0  0  0  0
  -28.2363  -20.4745   20.4309 N   0  0  0  0  0  0  0  0  0  0  0  0
  -27.0995  -31.4404   19.1464 N   0  0  0  0  0  0  0  0  0  0  0  0
  -23.8114  -30.5673   24.7555 N   0  0  0  0  0  0  0  0  0  0  0  0
  -30.3062  -15.5523   21.6335 N   0  0  0  0  0  0  0  0  0  0  0  0
  -20.5504  -29.1365   25.3772 N   0  3  0  0  0  0  0  0  0  0  0  0
  -27.6603  -17.4223   21.8982 O   0  0  0  0  0  0  0  0  0  0  0  0
  -22.7916  -14.8640   21.6654 O   0  0  0  0  0  0  0  0  0  0  0  0
  -28.6162  -22.1288   18.8143 O   0  0  0  0  0  0  0  0  0  0  0  0
  -27.4805  -29.5983   20.5190 O   0  0  0  0  0  0  0  0  0  0  0  0
  -24.8751  -32.0736   22.5627 O   0  0  0  0  0  0  0  0  0  0  0  0
  -23.2173  -28.3363   24.9720 O   0  0  0  0  0  0  0  0  0  0  0  0
  -31.9649  -14.8422   20.2188 O   0  0  0  0  0  0  0  0  0  0  0  0
  -25.5851  -21.2033   20.4000 O   0  0  0  0  0  0  0  0  0  0  0  0
  -21.4842   -7.1922   21.5233 O   0  0  0  0  0  0  0  0  0  0  0  0
  -25.0737  -23.9672   20.0918 O   0  0  0  0  0  0  0  0  0  1  0  0
  -23.8721   -2.8589   23.9572 F   0  0  0  0  0  0  0  0  0  0  0  0
  -20.4965   -6.1765   23.8972 F   0  0  0  0  0  0  0  0  0  0  0  0
  1  2  1  0  0  0  0
  1  6  2  0  0  0  0
  2  7  2  0  0  0  0
  3  9  1  0  0  0  0
  3 10  2  0  0  0  0
  4 11  2  0  0  0  0
  4 18  1  0  0  0  0
  5 12  1  0  0  0  0
  5 18  2  0  0  0  0
  6 21  1  0  0  0  0
  7 23  1  0  0  0  0
  8 13  2  0  0  0  0
  8 22  1  0  0  0  0
  9 25  2  0  0  0  0
 10 26  1  0  0  0  0
 11 27  1  0  0  0  0
 12 27  2  0  0  0  0
 13 28  1  0  0  0  0
 14 15  2  0  0  0  0
 14 29  1  0  0  0  0
 15 30  1  0  0  0  0
 16 24  1  0  0  0  0
 16 28  2  0  0  0  0
 17 30  2  0  0  0  0
 17 31  1  0  0  0  0
 18 32  1  0  0  0  0
 19 25  1  0  0  0  0
 19 26  2  0  0  0  0
 19 35  1  0  0  0  0
 20 32  1  0  0  0  0
 20 33  2  0  0  0  0
 20 36  1  0  0  0  0
 21 23  2  0  0  0  0
 21 43  1  0  0  0  0
 22 24  2  0  0  0  0
 22 44  1  0  0  0  0
 23 52  1  0  0  0  0
 24 45  1  0  0  0  0
 25 61  1  0  0  0  0
 26 71  1  0  0  0  0
 27 84  1  0  0  0  0
 28 85  1  0  0  0  0
 29 31  2  0  0  0  0
 29 84  1  0  0  0  0
 30 86  1  0  0  0  0
 31 87  1  0  0  0  0
 32 65  2  0  0  0  0
 33 66  1  0  0  0  0
 33 69  1  0  0  0  0
 34 37  2  0  0  0  0
 34 85  1  0  0  0  0
 35 55  1  0  0  0  0
 35 76  2  0  0  0  0
 36 70  1  0  0  0  0
 36 77  2  0  0  0  0
 37 38  1  0  0  0  0
 37 83  1  0  0  0  0
 38 71  1  0  0  0  0
 38 78  2  0  0  0  0
 39 53  1  0  0  0  0
 39 72  1  0  0  0  0
 39 79  2  0  0  0  0
 40 62  1  0  0  0  0
 40 67  1  0  0  0  0
 40 80  2  0  0  0  0
 41 63  1  0  0  0  0
 41 73  1  0  0  0  0
 41 81  2  0  0  0  0
 42 68  1  0  0  0  0
 42 74  1  0  0  0  0
 42 82  2  0  0  0  0
 43 46  1  0  0  0  0
 44 53  1  0  0  0  0
 45 67  1  0  0  0  0
 46 48  1  0  0  0  0
 47 49  1  0  0  0  0
 47 50  1  0  0  0  0
 48 52  1  0  0  0  0
 49 54  1  0  0  0  0
 50 68  1  0  0  0  0
 51 54  1  0  0  0  0
 51 68  1  0  0  0  0
 52 72  1  0  0  0  0
 53 67  1  0  0  0  0
 54 66  1  0  0  0  0
 56 63  1  0  0  0  0
 57 64  1  0  0  0  0
 58 64  1  0  0  0  0
 59 64  1  0  0  0  0
 60 75  1  0  0  0  0
 61 74  1  0  0  0  0
 62 64  1  0  0  0  0
 62 73  1  0  0  0  0
 63 75  1  0  0  0  0
 65 66  1  0  0  0  0
M  CHG  1  75   1
M  ISO  4  34 101  42 100  74 100  85 101
M  END
> <Batch ID>
0166

> <Smiles>
CNC(C)C(=O)NC(C(=O)N1Cc2cc([101O:1][101CH2:1]C(=O)C(=O)Nc3cccc(C[100NH:0][100C:0](=O)N4CCCC(n5nc(-c6ccc(Oc7ccc(F)cc7F)cc6)c(C(N)=O)c5N)C4)c3C(C)=O)ccc2CC1C(=O)NC1CCCc2ccccc21)C(C)(C)C

> <Shape>
0.337

> <Color>
0.222

> <Negative vol penalty>
0.000

$$$$

  -OEChem-04052304083D

 85 94  0     1  0  0  0  0  0999 V2000
  -32.4974  -13.1044   20.4330 C   0  0  0  0  0  0  0  0  0  0  0  0
  -32.0085  -14.4066   20.4591 C   0  0  0  0  0  0  0  0  0  0  0  0
  -28.7900  -26.3741   18.5591 C   0  0  0  0  0  0  0  0  0  0  0  0
  -28.0827  -25.1082   20.4915 C   0  0  0  0  0  0  0  0  0  0  0  0
  -31.6347  -12.0424   20.1654 C   0  0  0  0  0  0  0  0  0  0  0  0
  -30.6566  -14.6476   20.2165 C   0  0  0  0  0  0  0  0  0  0  0  0
  -27.1730  -18.9852   22.7768 C   0  0  0  0  0  0  0  0  0  0  0  0
  -29.8641  -25.5022   18.3810 C   0  0  0  0  0  0  0  0  0  0  0  0
  -29.1568  -24.2362   20.3134 C   0  0  0  0  0  0  0  0  0  0  0  0
  -26.7679  -20.2444   22.3361 C   0  0  0  0  0  0  0  0  0  0  0  0
  -31.5060  -21.4660   20.1543 C   0  0  0  0  0  0  0  0  0  0  0  0
  -31.2558  -20.0978   20.2588 C   0  0  0  0  0  0  0  0  0  0  0  0
  -24.6928  -19.2959   21.5528 C   0  0  0  0  0  0  0  0  0  0  0  0
  -29.6842  -20.2454   18.4298 C   0  0  0  0  0  0  0  0  0  0  0  0
  -21.4064  -25.1744   23.5991 C   0  0  0  0  0  0  0  0  0  0  0  0
  -27.8993  -26.1771   19.6144 C   0  0  0  0  0  0  0  0  0  0  0  0
  -25.4990  -26.9603   19.2501 C   0  0  0  0  0  0  0  0  0  0  0  0
  -30.2697  -12.2695   19.9289 C   0  0  0  0  0  0  0  0  0  0  0  0
  -26.3443  -17.8681   22.5988 C   0  0  0  0  0  0  0  0  0  0  0  0
  -29.7751  -13.5877   19.9442 C   0  0  0  0  0  0  0  0  0  0  0  0
  -25.0886  -18.0241   21.9945 C   0  0  0  0  0  0  0  0  0  0  0  0
  -30.0475  -24.4333   19.2581 C   0  0  0  0  0  0  0  0  0  0  0  0
  -25.5289  -20.3993   21.7213 C   0  0  0  0  0  0  0  0  0  0  0  0
  -30.8453  -22.2240   19.1875 C   0  0  0  0  0  0  0  0  0  0  0  0
  -30.3450  -19.4875   19.3966 C   0  0  0  0  0  0  0  0  0  0  0  0
  -29.9344  -21.6137   18.3253 C   0  0  0  0  0  0  0  0  0  0  0  0
  -26.7899  -27.0777   19.7992 C   0  0  0  0  0  0  0  0  0  0  0  0
  -21.7395  -25.0496   22.2732 C   0  0  0  0  0  0  0  0  0  0  0  0
  -24.8234  -28.0585   19.7233 C   0  0  0  0  0  0  0  0  0  0  0  0
  -21.5085  -27.1010   22.6750 C   0  0  0  0  0  0  0  0  0  0  0  0
  -24.9589  -25.9489   18.3893 C   0  0  0  0  0  0  0  0  0  0  0  0
  -26.5894  -15.1229   21.0154 C   0  0  0  0  0  0  0  0  0  0  0  0
  -23.4743  -23.3822   21.4982 C   0  0  0  0  0  0  0  0  0  0  0  0
  -23.7810  -14.4656   22.4996 C   0  0  0  0  0  0  0  0  0  0  0  0
  -20.9530  -15.6447   24.0026 C   0  0  0  0  0  0  0  0  0  0  0  0
  -23.4549  -31.5737   23.7036 C   0  0  0  0  0  0  0  0  0  0  0  0
  -29.3849  -11.0940   19.5974 C   0  0  0  0  0  0  0  0  0  0  0  0
  -26.7845  -16.5215   23.1039 C   0  0  0  0  0  0  0  0  0  0  0  0
  -24.1531  -16.8603   21.7979 C   0  0  0  0  0  0  0  0  0  0  0  0
  -27.8944  -11.3995   19.7211 C   0  0  0  0  0  0  0  0  0  0  0  0
  -19.9433  -30.6404   22.9886 C   0  0  0  0  0  0  0  0  0  0  0  0
  -26.4822  -32.1813   22.1245 C   0  0  0  0  0  0  0  0  0  0  0  0
  -27.5633  -12.7256   19.0439 C   0  0  0  0  0  0  0  0  0  0  0  0
  -19.9983  -29.1134   22.9973 C   0  0  0  0  0  0  0  0  0  0  0  0
  -26.7413  -30.9022   21.3288 C   0  0  0  0  0  0  0  0  0  0  0  0
  -21.0135  -31.2523   23.8877 C   0  0  0  0  0  0  0  0  0  0  0  0
  -25.9063  -31.8622   23.4995 C   0  0  0  0  0  0  0  0  0  0  0  0
  -22.4475  -29.2584   23.5944 C   0  0  0  0  0  0  0  0  0  0  0  0
  -24.8967  -29.7664   22.6597 C   0  0  0  0  0  0  0  0  0  0  0  0
  -28.3102  -13.8872   19.7105 C   0  0  1  0  0  0  0  0  0  0  0  0
  -21.4137  -28.6150   22.6580 C   0  0  1  0  0  0  0  0  0  0  0  0
  -26.0782  -15.3621   22.4079 C   0  0  1  0  0  0  0  0  0  0  0  0
  -25.4742  -30.0325   21.2555 C   0  0  2  0  0  0  0  0  0  0  0  0
  -18.8249  -14.8670   25.0815 C   0  0  0  0  0  0  0  0  0  0  0  0
  -22.6173  -13.8414   19.7489 C   0  0  0  0  0  0  0  0  0  0  0  0
  -20.3310  -14.0062   20.7557 C   0  0  0  0  0  0  0  0  0  0  0  0
  -21.9225  -12.2613   21.5586 C   0  0  0  0  0  0  0  0  0  0  0  0
  -21.6661  -16.9027   26.5848 C   0  0  0  0  0  0  0  0  0  0  0  0
  -22.0075  -23.8275   21.5031 C   0  0  0  0  0  0  0  0  0  0  0  0
  -23.7404  -21.9047   21.2844 C   0  0  0  0  0  0  0  0  0  1  0  0
  -22.3230  -14.6809   22.1727 C   0  0  1  0  0  0  0  0  0  0  0  0
  -20.2742  -15.2689   25.3074 C   0  0  2  0  0  0  0  0  0  0  0  0
  -21.8166  -13.7192   21.0608 C   0  0  0  0  0  0  0  0  0  0  0  0
  -26.9285  -28.1649   20.5627 N   0  0  0  0  0  0  0  0  0  0  0  0
  -21.8032  -26.2875   21.6863 N   0  0  0  0  0  0  0  0  0  0  0  0
  -25.7160  -28.7406   20.4967 N   0  0  0  0  0  0  0  0  0  0  0  0
  -24.6315  -15.5628   22.3030 N   0  0  0  0  0  0  0  0  0  0  0  0
  -22.3425  -30.7255   23.5762 N   0  0  0  0  0  0  0  0  0  0  0  0
  -24.7092  -31.0283   23.3908 N   0  0  0  0  0  0  0  0  0  0  0  0
  -23.5588  -28.4976   19.5491 N   0  0  0  0  0  0  0  0  0  0  0  0
  -25.7901  -24.8901   17.9989 N   0  0  0  0  0  0  0  0  0  0  0  0
  -27.6646  -14.2572   20.9518 N   0  0  0  0  0  0  0  0  0  0  0  0
  -21.6005  -14.5677   23.4351 N   0  0  0  0  0  0  0  0  0  0  0  0
  -20.3008  -16.4187   26.2551 N   0  3  0  0  0  0  0  0  0  0  0  0
  -23.7791  -25.9917   17.9652 O   0  0  0  0  0  0  0  0  0  0  0  0
  -26.0475  -15.6811   20.0686 O   0  0  0  0  0  0  0  0  0  0  0  0
  -24.3912  -24.1863   21.6608 O   0  0  0  0  0  0  0  0  0  0  0  0
  -24.1504  -13.3666   22.9209 O   0  0  0  0  0  0  0  0  0  0  0  0
  -20.9097  -16.7792   23.5319 O   0  0  0  0  0  0  0  0  0  0  0  0
  -23.3327  -32.7488   24.0714 O   0  0  0  0  0  0  0  0  0  0  0  0
  -21.2543  -26.5008   23.8699 O   0  0  0  0  0  0  0  0  0  0  0  0
  -31.0953  -23.5821   19.0845 O   0  0  0  0  0  0  0  0  0  0  0  0
  -25.1272  -21.6398   21.2851 O   0  0  0  0  0  0  0  0  0  1  0  0
  -30.1060  -18.1733   19.4961 F   0  0  0  0  0  0  0  0  0  0  0  0
  -29.2975  -22.3364   17.3938 F   0  0  0  0  0  0  0  0  0  0  0  0
  1  2  1  0  0  0  0
  1  5  2  0  0  0  0
  2  6  2  0  0  0  0
  3  8  2  0  0  0  0
  3 16  1  0  0  0  0
  4  9  1  0  0  0  0
  4 16  2  0  0  0  0
  5 18  1  0  0  0  0
  6 20  1  0  0  0  0
  7 10  2  0  0  0  0
  7 19  1  0  0  0  0
  8 22  1  0  0  0  0
  9 22  2  0  0  0  0
 10 23  1  0  0  0  0
 11 12  2  0  0  0  0
 11 24  1  0  0  0  0
 12 25  1  0  0  0  0
 13 21  1  0  0  0  0
 13 23  2  0  0  0  0
 14 25  2  0  0  0  0
 14 26  1  0  0  0  0
 15 28  2  0  0  0  0
 15 81  1  0  0  0  0
 16 27  1  0  0  0  0
 17 27  1  0  0  0  0
 17 29  2  0  0  0  0
 17 31  1  0  0  0  0
 18 20  2  0  0  0  0
 18 37  1  0  0  0  0
 19 21  2  0  0  0  0
 19 38  1  0  0  0  0
 20 50  1  0  0  0  0
 21 39  1  0  0  0  0
 22 82  1  0  0  0  0
 23 83  1  0  0  0  0
 24 26  2  0  0  0  0
 24 82  1  0  0  0  0
 25 84  1  0  0  0  0
 26 85  1  0  0  0  0
 27 64  2  0  0  0  0
 28 59  1  0  0  0  0
 28 65  1  0  0  0  0
 29 66  1  0  0  0  0
 29 70  1  0  0  0  0
 30 51  1  0  0  0  0
 30 65  2  0  0  0  0
 30 81  1  0  0  0  0
 31 71  1  0  0  0  0
 31 75  2  0  0  0  0
 32 52  1  0  0  0  0
 32 72  1  0  0  0  0
 32 76  2  0  0  0  0
 33 59  1  0  0  0  0
 33 60  1  0  0  0  0
 33 77  2  0  0  0  0
 34 61  1  0  0  0  0
 34 67  1  0  0  0  0
 34 78  2  0  0  0  0
 35 62  1  0  0  0  0
 35 73  1  0  0  0  0
 35 79  2  0  0  0  0
 36 68  1  0  0  0  0
 36 69  1  0  0  0  0
 36 80  2  0  0  0  0
 37 40  1  0  0  0  0
 38 52  1  0  0  0  0
 39 67  1  0  0  0  0
 40 43  1  0  0  0  0
 41 44  1  0  0  0  0
 41 46  1  0  0  0  0
 42 45  1  0  0  0  0
 42 47  1  0  0  0  0
 43 50  1  0  0  0  0
 44 51  1  0  0  0  0
 45 53  1  0  0  0  0
 46 68  1  0  0  0  0
 47 69  1  0  0  0  0
 48 51  1  0  0  0  0
 48 68  1  0  0  0  0
 49 53  1  0  0  0  0
 49 69  1  0  0  0  0
 50 72  1  0  0  0  0
 52 67  1  0  0  0  0
 53 66  1  0  0  0  0
 54 62  1  0  0  0  0
 55 63  1  0  0  0  0
 56 63  1  0  0  0  0
 57 63  1  0  0  0  0
 58 74  1  0  0  0  0
 60 83  1  0  0  0  0
 61 63  1  0  0  0  0
 61 73  1  0  0  0  0
 62 74  1  0  0  0  0
 64 66  1  0  0  0  0
M  CHG  1  74   1
M  ISO  4  36 100  60 101  68 100  83 101
M  END
> <Batch ID>
0166

> <Smiles>
CNC(C)C(=O)NC(C(=O)N1Cc2cc([101O:1][101CH2:1]C(=O)Cc3coc(C4CCC[100N:0]([100C:0](=O)N5CCCC(n6nc(-c7ccc(Oc8ccc(F)cc8F)cc7)c(C(N)=O)c6N)C5)C4)n3)ccc2CC1C(=O)NC1CCCc2ccccc21)C(C)(C)C

> <Shape>
0.260

> <Color>
0.054

> <Negative vol penalty>
0.000

$$$$

  -OEChem-04052304083D

 84 93  0     1  0  0  0  0  0999 V2000
  -26.4557  -37.2298   23.3069 C   0  0  0  0  0  0  0  0  0  0  0  0
  -26.9002  -35.9793   23.7241 C   0  0  0  0  0  0  0  0  0  0  0  0
  -32.0621  -19.0678   17.7235 C   0  0  0  0  0  0  0  0  0  0  0  0
  -23.7395  -12.5121   23.9698 C   0  0  0  0  0  0  0  0  0  0  0  0
  -24.8098  -14.6719   24.1331 C   0  0  0  0  0  0  0  0  0  0  0  0
  -25.1209  -37.4093   22.9463 C   0  0  0  0  0  0  0  0  0  0  0  0
  -26.0099  -34.9077   23.7819 C   0  0  0  0  0  0  0  0  0  0  0  0
  -31.2812  -20.1996   17.9577 C   0  0  0  0  0  0  0  0  0  0  0  0
  -27.1858  -28.9004   19.9844 C   0  0  0  0  0  0  0  0  0  0  0  0
  -31.6295  -17.8180   18.1668 C   0  0  0  0  0  0  0  0  0  0  0  0
  -23.3028  -12.6287   25.2893 C   0  0  0  0  0  0  0  0  0  0  0  0
  -24.3730  -14.7886   25.4526 C   0  0  0  0  0  0  0  0  0  0  0  0
  -27.4490  -27.6378   19.4527 C   0  0  0  0  0  0  0  0  0  0  0  0
  -25.2778  -13.6104   28.4897 C   0  0  0  0  0  0  0  0  0  0  0  0
  -26.1960  -14.0592   29.4390 C   0  0  0  0  0  0  0  0  0  0  0  0
  -29.6351  -18.8318   19.0788 C   0  0  0  0  0  0  0  0  0  0  0  0
  -25.3311  -26.8298   20.2950 C   0  0  0  0  0  0  0  0  0  0  0  0
  -24.7668  -15.9443   29.9300 C   0  0  0  0  0  0  0  0  0  0  0  0
  -24.4931  -13.5337   23.3916 C   0  0  0  0  0  0  0  0  0  0  0  0
  -24.1470  -13.2687   20.8781 C   0  0  0  0  0  0  0  0  0  0  0  0
  -30.0677  -20.0816   18.6354 C   0  0  0  0  0  0  0  0  0  0  0  0
  -24.2159  -36.3370   22.9905 C   0  0  0  0  0  0  0  0  0  0  0  0
  -25.9859  -29.1369   20.6609 C   0  0  0  0  0  0  0  0  0  0  0  0
  -24.6614  -35.0733   23.4228 C   0  0  0  0  0  0  0  0  0  0  0  0
  -25.0564  -28.0958   20.8189 C   0  0  0  0  0  0  0  0  0  0  0  0
  -30.4160  -17.7000   18.8445 C   0  0  0  0  0  0  0  0  0  0  0  0
  -23.6195  -13.7670   26.0307 C   0  0  0  0  0  0  0  0  0  0  0  0
  -26.5241  -26.6050   19.6079 C   0  0  0  0  0  0  0  0  0  0  0  0
  -24.1042  -14.3286   28.2605 C   0  0  0  0  0  0  0  0  0  0  0  0
  -25.9405  -15.2261   30.1592 C   0  0  0  0  0  0  0  0  0  0  0  0
  -23.8487  -15.4955   28.9807 C   0  0  0  0  0  0  0  0  0  0  0  0
  -24.9450  -13.4136   22.0288 C   0  0  0  0  0  0  0  0  0  0  0  0
  -25.0468  -13.1981   19.8429 C   0  0  0  0  0  0  0  0  0  0  0  0
  -27.1603  -23.0839   19.5357 C   0  0  0  0  0  0  0  0  0  0  0  0
  -22.7199  -13.2038   20.7561 C   0  0  0  0  0  0  0  0  0  0  0  0
  -23.8235  -31.5976   22.4898 C   0  0  0  0  0  0  0  0  0  0  0  0
  -21.9633  -29.9219   20.7172 C   0  0  0  0  0  0  0  0  0  0  0  0
  -19.4359  -28.7650   18.7396 C   0  0  0  0  0  0  0  0  0  0  0  0
  -30.6304  -15.2077   19.1430 C   0  0  0  0  0  0  0  0  0  0  0  0
  -22.7720  -36.5907   22.6363 C   0  0  0  0  0  0  0  0  0  0  0  0
  -25.6875  -30.4644   21.3032 C   0  0  0  0  0  0  0  0  0  0  0  0
  -23.7943  -28.3868   21.5840 C   0  0  0  0  0  0  0  0  0  0  0  0
  -28.2679  -22.8940   20.5490 C   0  0  0  0  0  0  0  0  0  0  0  0
  -21.9777  -35.3151   22.3674 C   0  0  0  0  0  0  0  0  0  0  0  0
  -29.0080  -21.5810   20.3795 C   0  0  0  0  0  0  0  0  0  0  0  0
  -29.5318  -11.8323   18.8660 C   0  0  0  0  0  0  0  0  0  0  0  0
  -22.2506  -34.2777   23.4518 C   0  0  0  0  0  0  0  0  0  0  0  0
  -28.1556  -11.8429   19.5355 C   0  0  0  0  0  0  0  0  0  0  0  0
  -27.8471  -21.2110   18.2178 C   0  0  0  0  0  0  0  0  0  0  0  0
  -30.5142  -12.7633   19.5744 C   0  0  0  0  0  0  0  0  0  0  0  0
  -28.6662  -14.1525   20.4253 C   0  0  0  0  0  0  0  0  0  0  0  0
  -29.2189  -21.3126   18.8898 C   0  0  2  0  0  0  0  0  0  0  0  0
  -23.7316  -33.8805   23.4751 C   0  0  1  0  0  0  0  0  0  0  0  0
  -24.1954  -30.8387   21.2500 C   0  0  1  0  0  0  0  0  0  0  0  0
  -27.6239  -13.2792   19.7081 C   0  0  2  0  0  0  0  0  0  0  0  0
  -16.9417  -28.4933   18.6882 C   0  0  0  0  0  0  0  0  0  0  0  0
  -22.1861  -27.5504   22.6225 C   0  0  0  0  0  0  0  0  0  0  0  0
  -19.9530  -26.7715   21.8010 C   0  0  0  0  0  0  0  0  0  0  0  0
  -20.1561  -28.9719   22.9585 C   0  0  0  0  0  0  0  0  0  0  0  0
  -19.1794  -30.5022   16.3573 C   0  0  0  0  0  0  0  0  0  0  0  0
  -26.2299  -24.2496   19.7598 C   0  0  0  0  0  0  0  0  0  1  0  0
  -21.0625  -28.7174   20.6121 C   0  0  1  0  0  0  0  0  0  0  0  0
  -18.1158  -29.3886   18.3239 C   0  0  2  0  0  0  0  0  0  0  0  0
  -20.8609  -28.0070   21.9803 C   0  0  0  0  0  0  0  0  0  0  0  0
  -26.2514  -13.4338   21.7510 N   0  0  0  0  0  0  0  0  0  0  0  0
  -26.9843  -22.3625   18.4845 N   0  0  0  0  0  0  0  0  0  0  0  0
  -26.2810  -13.3006   20.4141 N   0  0  0  0  0  0  0  0  0  0  0  0
  -23.2616  -29.7013   21.1930 N   0  0  0  0  0  0  0  0  0  0  0  0
  -29.9445  -14.1068   19.6982 N   0  0  0  0  0  0  0  0  0  0  0  0
  -24.8947  -13.0588   18.5087 N   0  0  0  0  0  0  0  0  0  0  0  0
  -21.9450  -13.2921   21.9206 N   0  0  0  0  0  0  0  0  0  0  0  0
  -29.9766  -16.4301   19.2941 N   0  0  0  0  0  0  0  0  0  0  0  0
  -24.0254  -32.9614   22.3965 N   0  0  0  0  0  0  0  0  0  0  0  0
  -19.8266  -29.1847   19.9936 N   0  0  0  0  0  0  0  0  0  0  0  0
  -18.0924  -29.6185   16.8516 N   0  3  0  0  0  0  0  0  0  0  0  0
  -22.1494  -13.0550   19.6489 O   0  0  0  0  0  0  0  0  0  0  0  0
  -23.3840  -30.9917   23.4601 O   0  0  0  0  0  0  0  0  0  0  0  0
  -21.5285  -31.0304   20.3924 O   0  0  0  0  0  0  0  0  0  0  0  0
  -20.0565  -27.9808   18.0250 O   0  0  0  0  0  0  0  0  0  0  0  0
  -31.7045  -15.0720   18.5515 O   0  0  0  0  0  0  0  0  0  0  0  0
  -23.1933  -13.8812   27.3183 O   0  0  0  0  0  0  0  0  0  0  0  0
  -26.7854  -25.3761   19.0824 O   0  0  0  0  0  0  0  0  0  1  0  0
  -26.8216  -15.6562   31.0718 F   0  0  0  0  0  0  0  0  0  0  0  0
  -22.7223  -16.1890   28.7658 F   0  0  0  0  0  0  0  0  0  0  0  0
  1  2  1  0  0  0  0
  1  6  2  0  0  0  0
  2  7  2  0  0  0  0
  3  8  2  0  0  0  0
  3 10  1  0  0  0  0
  4 11  2  0  0  0  0
  4 19  1  0  0  0  0
  5 12  1  0  0  0  0
  5 19  2  0  0  0  0
  6 22  1  0  0  0  0
  7 24  1  0  0  0  0
  8 21  1  0  0  0  0
  9 13  2  0  0  0  0
  9 23  1  0  0  0  0
 10 26  2  0  0  0  0
 11 27  1  0  0  0  0
 12 27  2  0  0  0  0
 13 28  1  0  0  0  0
 14 15  2  0  0  0  0
 14 29  1  0  0  0  0
 15 30  1  0  0  0  0
 16 21  2  0  0  0  0
 16 26  1  0  0  0  0
 17 25  1  0  0  0  0
 17 28  2  0  0  0  0
 18 30  2  0  0  0  0
 18 31  1  0  0  0  0
 19 32  1  0  0  0  0
 20 32  1  0  0  0  0
 20 33  2  0  0  0  0
 20 35  1  0  0  0  0
 21 52  1  0  0  0  0
 22 24  2  0  0  0  0
 22 40  1  0  0  0  0
 23 25  2  0  0  0  0
 23 41  1  0  0  0  0
 24 53  1  0  0  0  0
 25 42  1  0  0  0  0
 26 72  1  0  0  0  0
 27 81  1  0  0  0  0
 28 82  1  0  0  0  0
 29 31  2  0  0  0  0
 29 81  1  0  0  0  0
 30 83  1  0  0  0  0
 31 84  1  0  0  0  0
 32 65  2  0  0  0  0
 33 67  1  0  0  0  0
 33 70  1  0  0  0  0
 34 43  1  0  0  0  0
 34 61  1  0  0  0  0
 34 66  2  0  0  0  0
 35 71  1  0  0  0  0
 35 76  2  0  0  0  0
 36 54  1  0  0  0  0
 36 73  1  0  0  0  0
 36 77  2  0  0  0  0
 37 62  1  0  0  0  0
 37 68  1  0  0  0  0
 37 78  2  0  0  0  0
 38 63  1  0  0  0  0
 38 74  1  0  0  0  0
 38 79  2  0  0  0  0
 39 69  1  0  0  0  0
 39 72  1  0  0  0  0
 39 80  2  0  0  0  0
 40 44  1  0  0  0  0
 41 54  1  0  0  0  0
 42 68  1  0  0  0  0
 43 45  1  0  0  0  0
 44 47  1  0  0  0  0
 45 52  1  0  0  0  0
 46 48  1  0  0  0  0
 46 50  1  0  0  0  0
 47 53  1  0  0  0  0
 48 55  1  0  0  0  0
 49 52  1  0  0  0  0
 49 66  1  0  0  0  0
 50 69  1  0  0  0  0
 51 55  1  0  0  0  0
 51 69  1  0  0  0  0
 53 73  1  0  0  0  0
 54 68  1  0  0  0  0
 55 67  1  0  0  0  0
 56 63  1  0  0  0  0
 57 64  1  0  0  0  0
 58 64  1  0  0  0  0
 59 64  1  0  0  0  0
 60 75  1  0  0  0  0
 61 82  1  0  0  0  0
 62 64  1  0  0  0  0
 62 74  1  0  0  0  0
 63 75  1  0  0  0  0
 65 67  1  0  0  0  0
M  CHG  1  75   1
M  ISO  4  39 100  61 101  72 100  82 101
M  END
> <Batch ID>
0166

> <Smiles>
CNC(C)C(=O)NC(C(=O)N1Cc2cc([101O:1][101CH2:1]C3=NCC(c4cccc([100NH:0][100C:0](=O)N5CCCC(n6nc(-c7ccc(Oc8ccc(F)cc8F)cc7)c(C(N)=O)c6N)C5)c4)CC3)ccc2CC1C(=O)NC1CCCc2ccccc21)C(C)(C)C

> <Shape>
0.262

> <Color>
0.080

> <Negative vol penalty>
0.000

$$$$

  -OEChem-04052304083D

 87 95  0     1  0  0  0  0  0999 V2000
  -16.8746  -27.1583   20.7303 C   0  0  0  0  0  0  0  0  0  0  0  0
  -17.8646  -26.3169   21.2276 C   0  0  0  0  0  0  0  0  0  0  0  0
  -32.6915  -18.1351   22.2916 C   0  0  0  0  0  0  0  0  0  0  0  0
  -22.8734  -10.0583   20.1302 C   0  0  0  0  0  0  0  0  0  0  0  0
  -23.5715  -10.2316   22.4367 C   0  0  0  0  0  0  0  0  0  0  0  0
  -17.2051  -28.4415   20.2966 C   0  0  0  0  0  0  0  0  0  0  0  0
  -19.1860  -26.7579   21.2906 C   0  0  0  0  0  0  0  0  0  0  0  0
  -23.3359  -25.3533   25.5698 C   0  0  0  0  0  0  0  0  0  0  0  0
  -31.8951  -19.2723   22.4262 C   0  0  0  0  0  0  0  0  0  0  0  0
  -32.1133  -16.9168   21.9351 C   0  0  0  0  0  0  0  0  0  0  0  0
  -22.0552   -8.9775   20.4590 C   0  0  0  0  0  0  0  0  0  0  0  0
  -22.7533   -9.1508   22.7655 C   0  0  0  0  0  0  0  0  0  0  0  0
  -24.3709  -24.4198   25.6020 C   0  0  0  0  0  0  0  0  0  0  0  0
  -22.8587   -5.7805   22.5184 C   0  0  0  0  0  0  0  0  0  0  0  0
  -23.3923   -4.7916   23.3448 C   0  0  0  0  0  0  0  0  0  0  0  0
  -25.9268  -26.1300   24.9138 C   0  0  0  0  0  0  0  0  0  0  0  0
  -21.6599   -5.2182   24.9739 C   0  0  0  0  0  0  0  0  0  0  0  0
  -23.6316  -10.6853   21.1190 C   0  0  0  0  0  0  0  0  0  0  0  0
  -24.1275  -13.1650   20.7835 C   0  0  0  0  0  0  0  0  0  0  0  0
  -18.5296  -28.9019   20.3633 C   0  0  0  0  0  0  0  0  0  0  0  0
  -23.5870  -26.6819   25.1981 C   0  0  0  0  0  0  0  0  0  0  0  0
  -19.5347  -28.0480   20.8562 C   0  0  0  0  0  0  0  0  0  0  0  0
  -24.8936  -27.0790   24.8801 C   0  0  0  0  0  0  0  0  0  0  0  0
  -29.9421  -17.9729   21.8480 C   0  0  0  0  0  0  0  0  0  0  0  0
  -30.5204  -19.1912   22.2044 C   0  0  0  0  0  0  0  0  0  0  0  0
  -30.7386  -16.8357   21.7134 C   0  0  0  0  0  0  0  0  0  0  0  0
  -21.9951   -8.5238   21.7766 C   0  0  0  0  0  0  0  0  0  0  0  0
  -25.6660  -24.8074   25.2712 C   0  0  0  0  0  0  0  0  0  0  0  0
  -21.7257   -6.4883   22.9198 C   0  0  0  0  0  0  0  0  0  0  0  0
  -22.7929   -4.5104   24.5725 C   0  0  0  0  0  0  0  0  0  0  0  0
  -21.1263   -6.2071   24.1475 C   0  0  0  0  0  0  0  0  0  0  0  0
  -24.4773  -11.8014   20.7799 C   0  0  0  0  0  0  0  0  0  0  0  0
  -25.2719  -13.8141   20.3893 C   0  0  0  0  0  0  0  0  0  0  0  0
  -27.3611  -23.6571   24.1423 C   0  0  0  0  0  0  0  0  0  1  0  0
  -22.8797  -13.7891   21.1138 C   0  0  0  0  0  0  0  0  0  0  0  0
  -28.3719  -22.7853   24.0569 C   0  0  0  0  0  0  0  0  0  0  0  0
  -29.0446  -22.6016   22.7478 C   0  0  0  0  0  0  0  0  0  0  0  0
  -30.1720  -21.6160   22.6945 C   0  0  0  0  0  0  0  0  0  0  0  0
  -22.6067  -28.5752   22.8405 C   0  0  0  0  0  0  0  0  0  0  0  0
  -24.2566  -30.8300   24.4887 C   0  0  0  0  0  0  0  0  0  0  0  0
  -26.7414  -31.5538   26.7133 C   0  0  0  0  0  0  0  0  0  0  0  0
  -30.7845  -14.5557   20.6429 C   0  0  0  0  0  0  0  0  0  0  0  0
  -18.8463  -30.2800   19.8387 C   0  0  0  0  0  0  0  0  0  0  0  0
  -22.4644  -27.6830   25.1942 C   0  0  0  0  0  0  0  0  0  0  0  0
  -25.2195  -28.4979   24.4940 C   0  0  0  0  0  0  0  0  0  0  0  0
  -20.2078  -30.8045   20.2877 C   0  0  0  0  0  0  0  0  0  0  0  0
  -29.5901  -12.0032   18.4669 C   0  0  0  0  0  0  0  0  0  0  0  0
  -21.2788  -29.7336   20.1061 C   0  0  0  0  0  0  0  0  0  0  0  0
  -28.1247  -11.8353   18.8750 C   0  0  0  0  0  0  0  0  0  0  0  0
  -30.4852  -12.2881   19.6716 C   0  0  0  0  0  0  0  0  0  0  0  0
  -28.5894  -13.2443   20.9209 C   0  0  0  0  0  0  0  0  0  0  0  0
  -20.9753  -28.4990   20.9635 C   0  0  1  0  0  0  0  0  0  0  0  0
  -22.7431  -28.8898   24.3034 C   0  0  1  0  0  0  0  0  0  0  0  0
  -27.6394  -13.0201   19.7331 C   0  0  2  0  0  0  0  0  0  0  0  0
  -27.6749  -17.8663   22.9134 C   0  0  0  0  0  0  0  0  0  0  0  0
  -27.8793  -33.4890   27.8346 C   0  0  0  0  0  0  0  0  0  0  0  0
  -25.7570  -31.4425   21.9034 C   0  0  0  0  0  0  0  0  0  0  0  0
  -27.4726  -32.6524   23.2677 C   0  0  0  0  0  0  0  0  0  0  0  0
  -25.1116  -33.4570   23.2374 C   0  0  0  0  0  0  0  0  0  0  0  0
  -25.9550  -30.6067   29.4046 C   0  0  0  0  0  0  0  0  0  0  0  0
  -28.4660  -17.8855   21.6108 C   0  0  0  0  0  0  0  0  0  0  0  0
  -25.6806  -31.3311   24.4818 C   0  0  1  0  0  0  0  0  0  0  0  0
  -26.7689  -32.4548   27.9347 C   0  0  2  0  0  0  0  0  0  0  0  0
  -25.9993  -32.1935   23.2279 C   0  0  0  0  0  0  0  0  0  0  0  0
  -25.7448  -11.5952   20.4123 N   0  0  0  0  0  0  0  0  0  0  0  0
  -26.2014  -12.8379   20.1812 N   0  0  0  0  0  0  0  0  0  0  0  0
  -24.0866  -29.4383   24.4989 N   0  0  0  0  0  0  0  0  0  0  0  0
  -29.9662  -13.4253   20.4346 N   0  0  0  0  0  0  0  0  0  0  0  0
  -25.5638  -15.1190   20.2036 N   0  0  0  0  0  0  0  0  0  0  0  0
  -21.8064  -12.9743   21.4991 N   0  0  0  0  0  0  0  0  0  0  0  0
  -29.7321  -20.3564   22.3480 N   0  0  0  0  0  0  0  0  0  0  0  0
  -30.1725  -15.5874   21.3539 N   0  0  0  0  0  0  0  0  0  0  0  0
  -21.3277  -28.7442   22.3455 N   0  0  0  0  0  0  0  0  0  0  0  0
  -25.8751  -32.0257   25.7499 N   0  0  0  0  0  0  0  0  0  0  0  0
  -26.9877  -31.6482   29.1685 N   0  3  0  0  0  0  0  0  0  0  0  0
  -22.7164  -15.0314   21.0528 O   0  0  0  0  0  0  0  0  0  0  0  0
  -28.7675  -23.1962   21.7179 O   0  0  0  0  0  0  0  0  0  0  0  0
  -31.2874  -22.0429   22.9413 O   0  0  0  0  0  0  0  0  0  0  0  0
  -23.5895  -28.2079   22.2074 O   0  0  0  0  0  0  0  0  0  0  0  0
  -23.3293  -31.6434   24.4924 O   0  0  0  0  0  0  0  0  0  0  0  0
  -27.4232  -30.5353   26.6213 O   0  0  0  0  0  0  0  0  0  0  0  0
  -31.9337  -14.6158   20.1981 O   0  0  0  0  0  0  0  0  0  0  0  0
  -28.8219  -22.0469   25.1289 O   0  0  0  0  0  0  0  0  0  0  0  0
  -21.1967   -7.4693   22.0979 O   0  0  0  0  0  0  0  0  0  0  0  0
  -26.6780  -23.8981   25.3012 O   0  0  0  0  0  0  0  0  0  1  0  0
  -23.3045   -3.5597   25.3653 F   0  0  0  0  0  0  0  0  0  0  0  0
  -20.0370   -6.8830   24.5379 F   0  0  0  0  0  0  0  0  0  0  0  0
  1  2  1  0  0  0  0
  1  6  2  0  0  0  0
  2  7  2  0  0  0  0
  3  9  1  0  0  0  0
  3 10  2  0  0  0  0
  4 11  2  0  0  0  0
  4 18  1  0  0  0  0
  5 12  1  0  0  0  0
  5 18  2  0  0  0  0
  6 20  1  0  0  0  0
  7 22  1  0  0  0  0
  8 13  2  0  0  0  0
  8 21  1  0  0  0  0
  9 25  2  0  0  0  0
 10 26  1  0  0  0  0
 11 27  1  0  0  0  0
 12 27  2  0  0  0  0
 13 28  1  0  0  0  0
 14 15  2  0  0  0  0
 14 29  1  0  0  0  0
 15 30  1  0  0  0  0
 16 23  1  0  0  0  0
 16 28  2  0  0  0  0
 17 30  2  0  0  0  0
 17 31  1  0  0  0  0
 18 32  1  0  0  0  0
 19 32  1  0  0  0  0
 19 33  2  0  0  0  0
 19 35  1  0  0  0  0
 20 22  2  0  0  0  0
 20 43  1  0  0  0  0
 21 23  2  0  0  0  0
 21 44  1  0  0  0  0
 22 52  1  0  0  0  0
 23 45  1  0  0  0  0
 24 25  1  0  0  0  0
 24 26  2  0  0  0  0
 24 61  1  0  0  0  0
 25 71  1  0  0  0  0
 26 72  1  0  0  0  0
 27 84  1  0  0  0  0
 28 85  1  0  0  0  0
 29 31  2  0  0  0  0
 29 84  1  0  0  0  0
 30 86  1  0  0  0  0
 31 87  1  0  0  0  0
 32 65  2  0  0  0  0
 33 66  1  0  0  0  0
 33 69  1  0  0  0  0
 34 36  2  0  0  0  0
 34 85  1  0  0  0  0
 35 70  1  0  0  0  0
 35 76  2  0  0  0  0
 36 37  1  0  0  0  0
 36 83  1  0  0  0  0
 37 38  1  0  0  0  0
 37 77  2  0  0  0  0
 38 71  1  0  0  0  0
 38 78  2  0  0  0  0
 39 53  1  0  0  0  0
 39 73  1  0  0  0  0
 39 79  2  0  0  0  0
 40 62  1  0  0  0  0
 40 67  1  0  0  0  0
 40 80  2  0  0  0  0
 41 63  1  0  0  0  0
 41 74  1  0  0  0  0
 41 81  2  0  0  0  0
 42 68  1  0  0  0  0
 42 72  1  0  0  0  0
 42 82  2  0  0  0  0
 43 46  1  0  0  0  0
 44 53  1  0  0  0  0
 45 67  1  0  0  0  0
 46 48  1  0  0  0  0
 47 49  1  0  0  0  0
 47 50  1  0  0  0  0
 48 52  1  0  0  0  0
 49 54  1  0  0  0  0
 50 68  1  0  0  0  0
 51 54  1  0  0  0  0
 51 68  1  0  0  0  0
 52 73  1  0  0  0  0
 53 67  1  0  0  0  0
 54 66  1  0  0  0  0
 55 61  1  0  0  0  0
 56 63  1  0  0  0  0
 57 64  1  0  0  0  0
 58 64  1  0  0  0  0
 59 64  1  0  0  0  0
 60 75  1  0  0  0  0
 62 64  1  0  0  0  0
 62 74  1  0  0  0  0
 63 75  1  0  0  0  0
 65 66  1  0  0  0  0
M  CHG  1  75   1
M  ISO  4  34 101  42 100  72 100  85 101
M  END
> <Batch ID>
0166

> <Smiles>
CCc1c(NC(=O)C(=O)C(=O)[101CH2:1][101O:1]c2ccc3c(c2)CN(C(=O)C(NC(=O)C(C)NC)C(C)(C)C)C(C(=O)NC2CCCc4ccccc42)C3)cccc1[100NH:0][100C:0](=O)N1CCCC(n2nc(-c3ccc(Oc4ccc(F)cc4F)cc3)c(C(N)=O)c2N)C1

> <Shape>
0.313

> <Color>
0.206

> <Negative vol penalty>
0.000

$$$$

  -OEChem-04052304083D

 86 95  0     1  0  0  0  0  0999 V2000
  -14.8094  -27.2732   23.2395 C   0  0  0  0  0  0  0  0  0  0  0  0
  -15.4087  -27.0655   22.0013 C   0  0  0  0  0  0  0  0  0  0  0  0
  -32.2505  -18.2708   19.1641 C   0  0  0  0  0  0  0  0  0  0  0  0
  -22.8018  -10.9754   22.1231 C   0  0  0  0  0  0  0  0  0  0  0  0
  -23.5752  -13.2052   22.6396 C   0  0  0  0  0  0  0  0  0  0  0  0
  -15.3903  -28.1489   24.1558 C   0  0  0  0  0  0  0  0  0  0  0  0
  -16.5889  -27.7343   21.6783 C   0  0  0  0  0  0  0  0  0  0  0  0
  -31.3516  -19.3355   19.1021 C   0  0  0  0  0  0  0  0  0  0  0  0
  -22.5665  -24.0943   19.9725 C   0  0  0  0  0  0  0  0  0  0  0  0
  -31.7884  -16.9827   19.4344 C   0  0  0  0  0  0  0  0  0  0  0  0
  -21.9219  -11.0301   23.2040 C   0  0  0  0  0  0  0  0  0  0  0  0
  -22.6953  -13.2599   23.7206 C   0  0  0  0  0  0  0  0  0  0  0  0
  -23.6921  -23.4731   19.4310 C   0  0  0  0  0  0  0  0  0  0  0  0
  -22.5651  -12.0866   26.8888 C   0  0  0  0  0  0  0  0  0  0  0  0
  -23.0537  -12.5821   28.0976 C   0  0  0  0  0  0  0  0  0  0  0  0
  -29.5284  -17.8241   19.5807 C   0  0  0  0  0  0  0  0  0  0  0  0
  -24.8099  -25.6118   19.2739 C   0  0  0  0  0  0  0  0  0  0  0  0
  -21.4011  -14.3437   28.0436 C   0  0  0  0  0  0  0  0  0  0  0  0
  -23.6284  -12.0629   21.8409 C   0  0  0  0  0  0  0  0  0  0  0  0
  -24.2084  -11.8277   19.3679 C   0  0  0  0  0  0  0  0  0  0  0  0
  -29.9906  -19.1122   19.3104 C   0  0  0  0  0  0  0  0  0  0  0  0
  -16.5833  -28.8214   23.8476 C   0  0  0  0  0  0  0  0  0  0  0  0
  -22.5641  -25.4762   20.1813 C   0  0  0  0  0  0  0  0  0  0  0  0
  -17.1856  -28.6209   22.5908 C   0  0  0  0  0  0  0  0  0  0  0  0
  -23.6900  -26.2378   19.8276 C   0  0  0  0  0  0  0  0  0  0  0  0
  -30.4274  -16.7594   19.6427 C   0  0  0  0  0  0  0  0  0  0  0  0
  -21.8687  -12.1723   24.0028 C   0  0  0  0  0  0  0  0  0  0  0  0
  -24.8109  -24.2300   19.0824 C   0  0  0  0  0  0  0  0  0  0  0  0
  -21.4945  -12.7197   26.2573 C   0  0  0  0  0  0  0  0  0  0  0  0
  -22.4717  -13.7106   28.6751 C   0  0  0  0  0  0  0  0  0  0  0  0
  -20.9125  -13.8482   26.8347 C   0  0  0  0  0  0  0  0  0  0  0  0
  -24.5379  -12.0068   20.7248 C   0  0  0  0  0  0  0  0  0  0  0  0
  -25.4170  -11.8473   18.7156 C   0  0  0  0  0  0  0  0  0  0  0  0
  -22.9247  -11.6589   18.7521 C   0  0  0  0  0  0  0  0  0  0  0  0
  -20.6851  -28.4809   21.4131 C   0  0  0  0  0  0  0  0  0  0  0  0
  -23.5917  -28.8067   22.3382 C   0  0  0  0  0  0  0  0  0  0  0  0
  -26.4647  -29.5885   24.0030 C   0  0  0  0  0  0  0  0  0  0  0  0
  -30.7165  -14.2843   20.0122 C   0  0  0  0  0  0  0  0  0  0  0  0
  -17.1485  -29.7944   24.8519 C   0  0  0  0  0  0  0  0  0  0  0  0
  -21.3508  -26.1958   20.7048 C   0  0  0  0  0  0  0  0  0  0  0  0
  -23.6295  -27.7261   20.0379 C   0  0  0  0  0  0  0  0  0  0  0  0
  -18.6004  -30.1781   24.5778 C   0  0  0  0  0  0  0  0  0  0  0  0
  -30.0511  -10.8429   19.3864 C   0  0  0  0  0  0  0  0  0  0  0  0
  -28.9842  -20.9142   17.8464 C   0  0  0  0  0  0  0  0  0  0  0  0
  -29.2968  -21.3230   20.3280 C   0  0  0  0  0  0  0  0  0  0  0  0
  -18.7936  -30.5175   23.1033 C   0  0  0  0  0  0  0  0  0  0  0  0
  -28.5312  -10.7358   19.5291 C   0  0  0  0  0  0  0  0  0  0  0  0
  -27.9855  -22.0732   17.7832 C   0  0  0  0  0  0  0  0  0  0  0  0
  -28.2955  -22.4791   20.2620 C   0  0  0  0  0  0  0  0  0  0  0  0
  -30.6468  -11.8291   20.3895 C   0  0  0  0  0  0  0  0  0  0  0  0
  -28.5157  -13.0572   20.5280 C   0  0  0  0  0  0  0  0  0  0  0  0
  -29.0127  -20.2713   19.2428 C   0  0  0  0  0  0  0  0  0  0  0  0
  -18.4794  -29.3090   22.2132 C   0  0  1  0  0  0  0  0  0  0  0  0
  -21.7014  -27.3939   21.6052 C   0  0  1  0  0  0  0  0  0  0  0  0
  -27.8627  -12.1241   19.4952 C   0  0  2  0  0  0  0  0  0  0  0  0
  -28.2454  -23.1276   18.8695 C   0  0  0  0  0  0  0  0  0  0  0  0
  -27.7351  -31.5450   24.9282 C   0  0  0  0  0  0  0  0  0  0  0  0
  -24.4668  -29.5679   19.5171 C   0  0  0  0  0  0  0  0  0  0  0  0
  -26.3841  -30.8222   20.5266 C   0  0  0  0  0  0  0  0  0  0  0  0
  -24.0405  -31.5079   21.0366 C   0  0  0  0  0  0  0  0  0  0  0  0
  -26.3216  -28.5254   26.7613 C   0  0  0  0  0  0  0  0  0  0  0  0
  -29.8171  -24.7318   19.5620 C   0  0  0  0  0  0  0  0  0  0  0  0
  -27.1750  -24.2193   18.8199 C   0  0  0  0  0  0  0  0  0  1  0  0
  -24.9559  -29.3779   22.0450 C   0  0  1  0  0  0  0  0  0  0  0  0
  -26.7179  -30.4539   25.2243 C   0  0  2  0  0  0  0  0  0  0  0  0
  -24.9582  -30.2913   20.7868 C   0  0  0  0  0  0  0  0  0  0  0  0
  -25.8528  -12.1308   20.9240 N   0  0  0  0  0  0  0  0  0  0  0  0
  -26.3602  -12.0295   19.6837 N   0  0  0  0  0  0  0  0  0  0  0  0
  -23.0045  -28.0251   21.3358 N   0  0  0  0  0  0  0  0  0  0  0  0
  -29.9673  -13.1231   20.2971 N   0  0  0  0  0  0  0  0  0  0  0  0
  -25.7542  -11.7263   17.4140 N   0  0  0  0  0  0  0  0  0  0  0  0
  -21.7859  -11.6634   19.5692 N   0  0  0  0  0  0  0  0  0  0  0  0
  -29.9583  -15.4507   19.9165 N   0  0  0  0  0  0  0  0  0  0  0  0
  -19.5784  -28.3675   22.2328 N   0  0  0  0  0  0  0  0  0  0  0  0
  -25.3909  -30.0442   23.2679 N   0  0  0  0  0  0  0  0  0  0  0  0
  -27.2332  -29.6238   26.3496 N   0  3  0  0  0  0  0  0  0  0  0  0
  -22.7926  -11.4920   17.5159 O   0  0  0  0  0  0  0  0  0  0  0  0
  -20.8894  -29.3594   20.5836 O   0  0  0  0  0  0  0  0  0  0  0  0
  -23.0564  -29.0501   23.4233 O   0  0  0  0  0  0  0  0  0  0  0  0
  -27.1532  -28.6087   23.7266 O   0  0  0  0  0  0  0  0  0  0  0  0
  -31.9370  -14.2423   19.8370 O   0  0  0  0  0  0  0  0  0  0  0  0
  -21.0101  -12.2262   25.0575 O   0  0  0  0  0  0  0  0  0  0  0  0
  -25.9082  -23.6166   18.5584 O   0  0  0  0  0  0  0  0  0  1  0  0
  -29.5081  -23.7419   18.5952 O   0  0  0  0  0  0  0  0  0  0  0  0
  -22.9400  -14.1853   29.8368 F   0  0  0  0  0  0  0  0  0  0  0  0
  -19.8830  -14.4600   26.2333 F   0  0  0  0  0  0  0  0  0  0  0  0
  1  2  1  0  0  0  0
  1  6  2  0  0  0  0
  2  7  2  0  0  0  0
  3  8  2  0  0  0  0
  3 10  1  0  0  0  0
  4 11  2  0  0  0  0
  4 19  1  0  0  0  0
  5 12  1  0  0  0  0
  5 19  2  0  0  0  0
  6 22  1  0  0  0  0
  7 24  1  0  0  0  0
  8 21  1  0  0  0  0
  9 13  2  0  0  0  0
  9 23  1  0  0  0  0
 10 26  2  0  0  0  0
 11 27  1  0  0  0  0
 12 27  2  0  0  0  0
 13 28  1  0  0  0  0
 14 15  2  0  0  0  0
 14 29  1  0  0  0  0
 15 30  1  0  0  0  0
 16 21  2  0  0  0  0
 16 26  1  0  0  0  0
 17 25  1  0  0  0  0
 17 28  2  0  0  0  0
 18 30  2  0  0  0  0
 18 31  1  0  0  0  0
 19 32  1  0  0  0  0
 20 32  1  0  0  0  0
 20 33  2  0  0  0  0
 20 34  1  0  0  0  0
 21 52  1  0  0  0  0
 22 24  2  0  0  0  0
 22 39  1  0  0  0  0
 23 25  2  0  0  0  0
 23 40  1  0  0  0  0
 24 53  1  0  0  0  0
 25 41  1  0  0  0  0
 26 73  1  0  0  0  0
 27 82  1  0  0  0  0
 28 83  1  0  0  0  0
 29 31  2  0  0  0  0
 29 82  1  0  0  0  0
 30 85  1  0  0  0  0
 31 86  1  0  0  0  0
 32 67  2  0  0  0  0
 33 68  1  0  0  0  0
 33 71  1  0  0  0  0
 34 72  1  0  0  0  0
 34 77  2  0  0  0  0
 35 54  1  0  0  0  0
 35 74  1  0  0  0  0
 35 78  2  0  0  0  0
 36 64  1  0  0  0  0
 36 69  1  0  0  0  0
 36 79  2  0  0  0  0
 37 65  1  0  0  0  0
 37 75  1  0  0  0  0
 37 80  2  0  0  0  0
 38 70  1  0  0  0  0
 38 73  1  0  0  0  0
 38 81  2  0  0  0  0
 39 42  1  0  0  0  0
 40 54  1  0  0  0  0
 41 69  1  0  0  0  0
 42 46  1  0  0  0  0
 43 47  1  0  0  0  0
 43 50  1  0  0  0  0
 44 48  1  0  0  0  0
 44 52  1  0  0  0  0
 45 49  1  0  0  0  0
 45 52  1  0  0  0  0
 46 53  1  0  0  0  0
 47 55  1  0  0  0  0
 48 56  1  0  0  0  0
 49 56  1  0  0  0  0
 50 70  1  0  0  0  0
 51 55  1  0  0  0  0
 51 70  1  0  0  0  0
 53 74  1  0  0  0  0
 54 69  1  0  0  0  0
 55 68  1  0  0  0  0
 56 63  1  0  0  0  0
 56 84  1  0  0  0  0
 57 65  1  0  0  0  0
 58 66  1  0  0  0  0
 59 66  1  0  0  0  0
 60 66  1  0  0  0  0
 61 76  1  0  0  0  0
 62 84  1  0  0  0  0
 63 83  1  0  0  0  0
 64 66  1  0  0  0  0
 64 75  1  0  0  0  0
 65 76  1  0  0  0  0
 67 68  1  0  0  0  0
M  CHG  1  76   1
M  ISO  4  38 100  63 101  73 100  83 101
M  END
> <Batch ID>
0166

> <Smiles>
CNC(C)C(=O)NC(C(=O)N1Cc2cc([101O:1][101CH2:1]C3(OC)CCC(c4cccc([100NH:0][100C:0](=O)N5CCCC(n6nc(-c7ccc(Oc8ccc(F)cc8F)cc7)c(C(N)=O)c6N)C5)c4)CC3)ccc2CC1C(=O)NC1CCCc2ccccc21)C(C)(C)C

> <Shape>
0.273

> <Color>
0.087

> <Negative vol penalty>
0.000

$$$$

  -OEChem-04052304083D

 87 95  0     1  0  0  0  0  0999 V2000
  -17.4681  -26.2040   22.7374 C   0  0  0  0  0  0  0  0  0  0  0  0
  -18.7443  -25.7676   22.3967 C   0  0  0  0  0  0  0  0  0  0  0  0
  -20.0283  -14.4680   23.4653 C   0  0  0  0  0  0  0  0  0  0  0  0
  -22.0463  -13.4323   22.6333 C   0  0  0  0  0  0  0  0  0  0  0  0
  -17.1379  -27.5530   22.6140 C   0  0  0  0  0  0  0  0  0  0  0  0
  -19.6909  -26.6797   21.9315 C   0  0  0  0  0  0  0  0  0  0  0  0
  -25.7302  -26.5552   22.9401 C   0  0  0  0  0  0  0  0  0  0  0  0
  -19.2751  -13.7411   22.5434 C   0  0  0  0  0  0  0  0  0  0  0  0
  -21.2931  -12.7053   21.7114 C   0  0  0  0  0  0  0  0  0  0  0  0
  -26.8006  -26.1020   22.1703 C   0  0  0  0  0  0  0  0  0  0  0  0
  -19.3438   -9.9447   21.7145 C   0  0  0  0  0  0  0  0  0  0  0  0
  -19.6333   -8.5880   21.5696 C   0  0  0  0  0  0  0  0  0  0  0  0
  -27.1648  -28.3469   21.3661 C   0  0  0  0  0  0  0  0  0  0  0  0
  -28.8612  -19.9525   21.7233 C   0  0  0  0  0  0  0  0  0  0  0  0
  -29.0271  -17.5636   22.0429 C   0  0  0  0  0  0  0  0  0  0  0  0
  -20.1546   -8.9482   19.2382 C   0  0  0  0  0  0  0  0  0  0  0  0
  -21.4139  -14.3136   23.5102 C   0  0  0  0  0  0  0  0  0  0  0  0
  -22.5355  -14.6799   25.7720 C   0  0  0  0  0  0  0  0  0  0  0  0
  -18.0838  -28.4837   22.1561 C   0  0  0  0  0  0  0  0  0  0  0  0
  -25.3616  -27.9080   22.9203 C   0  0  0  0  0  0  0  0  0  0  0  0
  -19.3726  -28.0422   21.8006 C   0  0  0  0  0  0  0  0  0  0  0  0
  -26.0910  -28.8152   22.1386 C   0  0  0  0  0  0  0  0  0  0  0  0
  -30.5557  -18.6916   20.5504 C   0  0  0  0  0  0  0  0  0  0  0  0
  -28.4069  -18.7802   22.3273 C   0  0  0  0  0  0  0  0  0  0  0  0
  -29.9356  -19.9083   20.8347 C   0  0  0  0  0  0  0  0  0  0  0  0
  -19.9075  -12.8598   21.6665 C   0  0  0  0  0  0  0  0  0  0  0  0
  -27.5163  -26.9974   21.3809 C   0  0  0  0  0  0  0  0  0  0  0  0
  -19.4597  -10.8032   20.6212 C   0  0  0  0  0  0  0  0  0  0  0  0
  -20.0387   -8.0897   20.3315 C   0  0  0  0  0  0  0  0  0  0  0  0
  -30.1015  -17.5193   21.1545 C   0  0  0  0  0  0  0  0  0  0  0  0
  -19.8651  -10.3050   19.3831 C   0  0  0  0  0  0  0  0  0  0  0  0
  -22.1926  -15.0646   24.4619 C   0  0  0  0  0  0  0  0  0  0  0  0
  -23.2755  -15.7309   26.2559 C   0  0  0  0  0  0  0  0  0  0  0  0
  -22.2140  -13.4797   26.4874 C   0  0  0  0  0  0  0  0  0  0  0  0
  -30.5064  -23.4213   19.6846 C   0  0  0  0  0  0  0  0  0  0  0  0
  -30.0368  -24.8590   19.7916 C   0  0  0  0  0  0  0  0  0  0  0  0
  -22.7534  -29.5100   22.0632 C   0  0  0  0  0  0  0  0  0  0  0  0
  -24.3790  -32.0386   23.2820 C   0  0  0  0  0  0  0  0  0  0  0  0
  -27.3881  -33.4312   24.0899 C   0  0  0  0  0  0  0  0  0  0  0  0
  -26.5866  -19.9485   23.6188 C   0  0  0  0  0  0  0  0  0  0  0  0
  -17.6660  -29.9238   21.9946 C   0  0  0  0  0  0  0  0  0  0  0  0
  -24.2213  -28.3857   23.7770 C   0  0  0  0  0  0  0  0  0  0  0  0
  -25.7484  -30.2813   22.0978 C   0  0  0  0  0  0  0  0  0  0  0  0
  -18.8417  -30.8865   21.8494 C   0  0  0  0  0  0  0  0  0  0  0  0
  -23.8081  -20.4668   25.7841 C   0  0  0  0  0  0  0  0  0  0  0  0
  -19.8545  -30.3447   20.8457 C   0  0  0  0  0  0  0  0  0  0  0  0
  -23.1132  -19.1036   25.8148 C   0  0  0  0  0  0  0  0  0  0  0  0
  -24.3803  -20.7807   24.4029 C   0  0  0  0  0  0  0  0  0  0  0  0
  -24.5633  -18.3812   23.8751 C   0  0  0  0  0  0  0  0  0  0  0  0
  -20.4345  -29.0052   21.3157 C   0  0  1  0  0  0  0  0  0  0  0  0
  -23.6104  -29.6937   23.2836 C   0  0  1  0  0  0  0  0  0  0  0  0
  -24.0275  -17.9924   25.2627 C   0  0  2  0  0  0  0  0  0  0  0  0
  -31.2659  -18.7046   18.1458 C   0  0  0  0  0  0  0  0  0  0  0  0
  -28.3999  -35.5245   25.0343 C   0  0  0  0  0  0  0  0  0  0  0  0
  -23.9090  -33.4619   20.6243 C   0  0  0  0  0  0  0  0  0  0  0  0
  -25.7006  -35.0912   21.2597 C   0  0  0  0  0  0  0  0  0  0  0  0
  -23.6344  -34.9089   22.6454 C   0  0  0  0  0  0  0  0  0  0  0  0
  -28.5625  -31.9692   26.3796 C   0  0  0  0  0  0  0  0  0  0  0  0
  -31.7090  -18.6186   19.6029 C   0  0  0  0  0  0  0  0  0  0  0  0
  -29.7822  -22.3749   20.4917 C   0  0  0  0  0  0  0  0  0  0  0  0
  -28.8692  -25.1658   20.6947 C   0  0  0  0  0  0  0  0  0  1  0  0
  -25.3496  -33.0533   22.7276 C   0  0  1  0  0  0  0  0  0  0  0  0
  -27.8675  -34.1347   25.3468 C   0  0  2  0  0  0  0  0  0  0  0  0
  -24.6539  -34.1009   21.8133 C   0  0  0  0  0  0  0  0  0  0  0  0
  -22.6750  -16.2663   24.1345 N   0  0  0  0  0  0  0  0  0  0  0  0
  -23.3285  -16.6458   25.2458 N   0  0  0  0  0  0  0  0  0  0  0  0
  -24.6213  -30.6986   22.9481 N   0  0  0  0  0  0  0  0  0  0  0  0
  -25.2395  -19.6860   23.9463 N   0  0  0  0  0  0  0  0  0  0  0  0
  -23.8795  -15.9526   27.4427 N   0  0  0  0  0  0  0  0  0  0  0  0
  -21.4450  -12.5023   25.8412 N   0  0  0  0  0  0  0  0  0  0  0  0
  -27.3145  -18.8248   23.2286 N   0  0  0  0  0  0  0  0  0  0  0  0
  -30.3744  -21.0835   20.2439 N   0  0  0  0  0  0  0  0  0  0  0  0
  -21.4318  -29.2186   22.3424 N   0  0  0  0  0  0  0  0  0  0  0  0
  -26.0401  -33.6281   23.8770 N   0  0  0  0  0  0  0  0  0  0  0  0
  -28.9550  -33.3500   25.9969 N   0  3  0  0  0  0  0  0  0  0  0  0
  -22.5834  -13.2871   27.6706 O   0  0  0  0  0  0  0  0  0  0  0  0
  -31.4549  -23.1993   18.9424 O   0  0  0  0  0  0  0  0  0  0  0  0
  -30.6352  -25.6984   19.1312 O   0  0  0  0  0  0  0  0  0  0  0  0
  -23.2537  -29.6256   20.9505 O   0  0  0  0  0  0  0  0  0  0  0  0
  -23.4447  -32.4202   23.9912 O   0  0  0  0  0  0  0  0  0  0  0  0
  -28.1356  -32.7759   23.3672 O   0  0  0  0  0  0  0  0  0  0  0  0
  -27.0668  -21.0815   23.7060 O   0  0  0  0  0  0  0  0  0  0  0  0
  -19.1728  -12.1501   20.7669 O   0  0  0  0  0  0  0  0  0  0  0  0
  -28.5611  -26.5575   20.6281 O   0  0  0  0  0  0  0  0  0  1  0  0
  -20.3181   -6.7870   20.1928 F   0  0  0  0  0  0  0  0  0  0  0  0
  -30.6911  -16.3451   20.8887 F   0  0  0  0  0  0  0  0  0  0  0  0
  -19.9795  -11.1251   18.3294 F   0  0  0  0  0  0  0  0  0  0  0  0
  1  2  1  0  0  0  0
  1  5  2  0  0  0  0
  2  6  2  0  0  0  0
  3  8  2  0  0  0  0
  3 17  1  0  0  0  0
  4  9  1  0  0  0  0
  4 17  2  0  0  0  0
  5 19  1  0  0  0  0
  6 21  1  0  0  0  0
  7 10  2  0  0  0  0
  7 20  1  0  0  0  0
  8 26  1  0  0  0  0
  9 26  2  0  0  0  0
 10 27  1  0  0  0  0
 11 12  2  0  0  0  0
 11 28  1  0  0  0  0
 12 29  1  0  0  0  0
 13 22  1  0  0  0  0
 13 27  2  0  0  0  0
 14 24  2  0  0  0  0
 14 25  1  0  0  0  0
 15 24  1  0  0  0  0
 15 30  2  0  0  0  0
 16 29  2  0  0  0  0
 16 31  1  0  0  0  0
 17 32  1  0  0  0  0
 18 32  1  0  0  0  0
 18 33  2  0  0  0  0
 18 34  1  0  0  0  0
 19 21  2  0  0  0  0
 19 41  1  0  0  0  0
 20 22  2  0  0  0  0
 20 42  1  0  0  0  0
 21 50  1  0  0  0  0
 22 43  1  0  0  0  0
 23 25  2  0  0  0  0
 23 30  1  0  0  0  0
 23 59  1  0  0  0  0
 24 71  1  0  0  0  0
 25 72  1  0  0  0  0
 26 83  1  0  0  0  0
 27 84  1  0  0  0  0
 28 31  2  0  0  0  0
 28 83  1  0  0  0  0
 29 85  1  0  0  0  0
 30 86  1  0  0  0  0
 31 87  1  0  0  0  0
 32 65  2  0  0  0  0
 33 66  1  0  0  0  0
 33 69  1  0  0  0  0
 34 70  1  0  0  0  0
 34 76  2  0  0  0  0
 35 36  1  0  0  0  0
 35 60  1  0  0  0  0
 35 77  2  0  0  0  0
 36 61  1  0  0  0  0
 36 78  2  0  0  0  0
 37 51  1  0  0  0  0
 37 73  1  0  0  0  0
 37 79  2  0  0  0  0
 38 62  1  0  0  0  0
 38 67  1  0  0  0  0
 38 80  2  0  0  0  0
 39 63  1  0  0  0  0
 39 74  1  0  0  0  0
 39 81  2  0  0  0  0
 40 68  1  0  0  0  0
 40 71  1  0  0  0  0
 40 82  2  0  0  0  0
 41 44  1  0  0  0  0
 42 51  1  0  0  0  0
 43 67  1  0  0  0  0
 44 46  1  0  0  0  0
 45 47  1  0  0  0  0
 45 48  1  0  0  0  0
 46 50  1  0  0  0  0
 47 52  1  0  0  0  0
 48 68  1  0  0  0  0
 49 52  1  0  0  0  0
 49 68  1  0  0  0  0
 50 73  1  0  0  0  0
 51 67  1  0  0  0  0
 52 66  1  0  0  0  0
 53 59  1  0  0  0  0
 54 63  1  0  0  0  0
 55 64  1  0  0  0  0
 56 64  1  0  0  0  0
 57 64  1  0  0  0  0
 58 75  1  0  0  0  0
 60 72  1  0  0  0  0
 61 84  1  0  0  0  0
 62 64  1  0  0  0  0
 62 74  1  0  0  0  0
 63 75  1  0  0  0  0
 65 66  1  0  0  0  0
M  CHG  1  75   1
M  ISO  4  40 100  61 101  71 100  84 101
M  END
> <Batch ID>
0166

> <Smiles>
CCc1c(F)cc([100NH:0][100C:0](=O)N2CCCC(n3nc(-c4ccc(Oc5ccc(F)cc5F)cc4)c(C(N)=O)c3N)C2)cc1NCC(=O)C(=O)[101CH2:1][101O:1]c1ccc2c(c1)CN(C(=O)C(NC(=O)C(C)NC)C(C)(C)C)C(C(=O)NC1CCCc3ccccc31)C2

> <Shape>
0.216

> <Color>
0.080

> <Negative vol penalty>
0.000

$$$$

  -OEChem-04052304083D

 90 98  0     1  0  0  0  0  0999 V2000
  -17.5213  -34.7388   21.5283 C   0  0  0  0  0  0  0  0  0  0  0  0
  -18.8467  -35.0470   21.2389 C   0  0  0  0  0  0  0  0  0  0  0  0
  -24.5547   -8.8524   21.9287 C   0  0  0  0  0  0  0  0  0  0  0  0
  -23.0006   -9.9551   20.4435 C   0  0  0  0  0  0  0  0  0  0  0  0
  -17.2251  -33.7818   22.4980 C   0  0  0  0  0  0  0  0  0  0  0  0
  -19.8767  -34.3991   21.9199 C   0  0  0  0  0  0  0  0  0  0  0  0
  -25.8979  -30.2760   19.1321 C   0  0  0  0  0  0  0  0  0  0  0  0
  -23.5060   -8.1157   22.4791 C   0  0  0  0  0  0  0  0  0  0  0  0
  -21.9518   -9.2184   20.9939 C   0  0  0  0  0  0  0  0  0  0  0  0
  -26.9146  -29.3937   18.7660 C   0  0  0  0  0  0  0  0  0  0  0  0
  -21.2908   -5.6837   24.0264 C   0  0  0  0  0  0  0  0  0  0  0  0
  -21.4917   -4.3177   24.2242 C   0  0  0  0  0  0  0  0  0  0  0  0
  -24.1361  -17.8500   18.1136 C   0  0  0  0  0  0  0  0  0  0  0  0
  -26.7686  -28.3130   20.9244 C   0  0  0  0  0  0  0  0  0  0  0  0
  -25.7313  -19.3356   19.1555 C   0  0  0  0  0  0  0  0  0  0  0  0
  -21.8710   -4.0305   21.8555 C   0  0  0  0  0  0  0  0  0  0  0  0
  -24.3020   -9.7722   20.9109 C   0  0  0  0  0  0  0  0  0  0  0  0
  -23.6041  -18.9227   17.3983 C   0  0  0  0  0  0  0  0  0  0  0  0
  -26.1864  -10.1800   19.2404 C   0  0  0  0  0  0  0  0  0  0  0  0
  -18.2521  -33.1149   23.1845 C   0  0  0  0  0  0  0  0  0  0  0  0
  -25.3014  -30.1702   20.3915 C   0  0  0  0  0  0  0  0  0  0  0  0
  -19.5939  -33.4333   22.9007 C   0  0  0  0  0  0  0  0  0  0  0  0
  -25.7411  -29.1860   21.2920 C   0  0  0  0  0  0  0  0  0  0  0  0
  -24.1357  -20.2020   17.5615 C   0  0  0  0  0  0  0  0  0  0  0  0
  -25.1997  -18.0564   18.9923 C   0  0  0  0  0  0  0  0  0  0  0  0
  -25.1993  -20.4084   18.4401 C   0  0  0  0  0  0  0  0  0  0  0  0
  -22.2045   -8.2986   22.0118 C   0  0  0  0  0  0  0  0  0  0  0  0
  -27.3490  -28.4148   19.6601 C   0  0  0  0  0  0  0  0  0  0  0  0
  -21.3799   -6.2232   22.7431 C   0  0  0  0  0  0  0  0  0  0  0  0
  -21.7819   -3.4911   23.1388 C   0  0  0  0  0  0  0  0  0  0  0  0
  -21.6700   -5.3966   21.6577 C   0  0  0  0  0  0  0  0  0  0  0  0
  -25.3848  -10.5339   20.3423 C   0  0  0  0  0  0  0  0  0  0  0  0
  -27.0620  -11.2291   19.1017 C   0  0  0  0  0  0  0  0  0  0  0  0
  -22.4939  -18.6758   16.4878 C   0  0  0  0  0  0  0  0  0  0  0  0
  -28.0560  -26.2169   19.2835 C   0  0  0  0  0  0  0  0  0  1  0  0
  -26.1432   -9.0078   18.4160 C   0  0  0  0  0  0  0  0  0  0  0  0
  -28.9512  -25.2829   18.9416 C   0  0  0  0  0  0  0  0  0  0  0  0
  -28.5475  -23.8429   18.9598 C   0  0  0  0  0  0  0  0  0  0  0  0
  -22.7281  -31.4795   22.7873 C   0  0  0  0  0  0  0  0  0  0  0  0
  -22.6812  -28.4206   23.0134 C   0  0  0  0  0  0  0  0  0  0  0  0
  -26.8116  -22.0542   19.4477 C   0  0  0  0  0  0  0  0  0  0  0  0
  -22.6486  -25.0281   22.6564 C   0  0  0  0  0  0  0  0  0  0  0  0
  -26.7943  -16.9992   20.6311 C   0  0  0  0  0  0  0  0  0  0  0  0
  -17.8822  -32.1221   24.2578 C   0  0  0  0  0  0  0  0  0  0  0  0
  -24.2453  -31.1383   20.8513 C   0  0  0  0  0  0  0  0  0  0  0  0
  -25.0942  -29.1315   22.6490 C   0  0  0  0  0  0  0  0  0  0  0  0
  -19.0362  -31.2112   24.6687 C   0  0  0  0  0  0  0  0  0  0  0  0
  -29.2559  -14.6378   21.6516 C   0  0  0  0  0  0  0  0  0  0  0  0
  -20.3067  -32.0258   24.8899 C   0  0  0  0  0  0  0  0  0  0  0  0
  -28.6180  -13.2854   21.3257 C   0  0  0  0  0  0  0  0  0  0  0  0
  -28.2227  -15.6469   22.1496 C   0  0  0  0  0  0  0  0  0  0  0  0
  -26.4201  -14.4742   20.9477 C   0  0  0  0  0  0  0  0  0  0  0  0
  -20.7393  -32.7342   23.6005 C   0  0  1  0  0  0  0  0  0  0  0  0
  -23.1842  -30.4884   21.7573 C   0  0  1  0  0  0  0  0  0  0  0  0
  -27.4111  -13.4447   20.3805 C   0  0  2  0  0  0  0  0  0  0  0  0
  -22.6642  -22.2299   17.6544 C   0  0  0  0  0  0  0  0  0  0  0  0
  -21.8798  -22.6607   22.9747 C   0  0  0  0  0  0  0  0  0  0  0  0
  -24.3528  -28.6045   25.5582 C   0  0  0  0  0  0  0  0  0  0  0  0
  -23.9396  -26.1621   25.9215 C   0  0  0  0  0  0  0  0  0  0  0  0
  -22.0237  -27.7594   25.8983 C   0  0  0  0  0  0  0  0  0  0  0  0
  -20.7354  -25.2244   20.4068 C   0  0  0  0  0  0  0  0  0  0  0  0
  -23.5645  -21.3525   16.7924 C   0  0  0  0  0  0  0  0  0  0  0  0
  -27.1206  -23.5386   19.3737 C   0  0  0  0  0  0  0  0  0  0  0  0
  -23.1949  -27.1971   23.7294 C   0  0  1  0  0  0  0  0  0  0  0  0
  -21.5065  -24.0457   22.4695 C   0  0  2  0  0  0  0  0  0  0  0  0
  -23.3897  -27.4400   25.2528 C   0  0  0  0  0  0  0  0  0  0  0  0
  -25.7215  -11.7154   20.8665 N   0  0  0  0  0  0  0  0  0  0  0  0
  -22.3171  -17.5492   15.8668 N   0  0  0  0  0  0  0  0  0  0  0  0
  -26.7443  -12.1130   20.0907 N   0  0  0  0  0  0  0  0  0  0  0  0
  -23.6400  -29.3138   22.5199 N   0  0  0  0  0  0  0  0  0  0  0  0
  -27.1111  -15.7482   21.2016 N   0  0  0  0  0  0  0  0  0  0  0  0
  -28.0650  -11.4724   18.2316 N   0  0  0  0  0  0  0  0  0  0  0  0
  -25.1809   -8.0283   18.6969 N   0  0  0  0  0  0  0  0  0  0  0  0
  -25.7539  -21.6982   18.6214 N   0  0  0  0  0  0  0  0  0  0  0  0
  -25.7397  -16.9667   19.7194 N   0  0  0  0  0  0  0  0  0  0  0  0
  -21.3867  -31.8008   22.7038 N   0  0  0  0  0  0  0  0  0  0  0  0
  -22.2668  -26.1177   23.4103 N   0  0  0  0  0  0  0  0  0  0  0  0
  -21.1460  -23.9386   21.0275 N   0  3  0  0  0  0  0  0  0  0  0  0
  -26.9453   -8.8265   17.4686 O   0  0  0  0  0  0  0  0  0  0  0  0
  -29.3363  -22.9534   18.6456 O   0  0  0  0  0  0  0  0  0  0  0  0
  -23.5327  -31.9200   23.5998 O   0  0  0  0  0  0  0  0  0  0  0  0
  -21.4635  -28.5853   22.8984 O   0  0  0  0  0  0  0  0  0  0  0  0
  -27.4882  -21.3168   20.1596 O   0  0  0  0  0  0  0  0  0  0  0  0
  -23.7684  -24.8454   22.1841 O   0  0  0  0  0  0  0  0  0  0  0  0
  -27.4306  -18.0189   20.9090 O   0  0  0  0  0  0  0  0  0  0  0  0
  -30.2425  -25.5870   18.5687 O   0  0  0  0  0  0  0  0  0  0  0  0
  -21.1810   -7.5797   22.5485 O   0  0  0  0  0  0  0  0  0  0  0  0
  -28.3389  -27.5539   19.2946 O   0  0  0  0  0  0  0  0  0  1  0  0
  -21.9763   -2.1795   23.3291 F   0  0  0  0  0  0  0  0  0  0  0  0
  -21.7581   -5.9092   20.4227 F   0  0  0  0  0  0  0  0  0  0  0  0
  1  2  1  0  0  0  0
  1  5  2  0  0  0  0
  2  6  2  0  0  0  0
  3  8  2  0  0  0  0
  3 17  1  0  0  0  0
  4  9  1  0  0  0  0
  4 17  2  0  0  0  0
  5 20  1  0  0  0  0
  6 22  1  0  0  0  0
  7 10  2  0  0  0  0
  7 21  1  0  0  0  0
  8 27  1  0  0  0  0
  9 27  2  0  0  0  0
 10 28  1  0  0  0  0
 11 12  2  0  0  0  0
 11 29  1  0  0  0  0
 12 30  1  0  0  0  0
 13 18  2  0  0  0  0
 13 25  1  0  0  0  0
 14 23  1  0  0  0  0
 14 28  2  0  0  0  0
 15 25  2  0  0  0  0
 15 26  1  0  0  0  0
 16 30  2  0  0  0  0
 16 31  1  0  0  0  0
 17 32  1  0  0  0  0
 18 24  1  0  0  0  0
 18 34  1  0  0  0  0
 19 32  1  0  0  0  0
 19 33  2  0  0  0  0
 19 36  1  0  0  0  0
 20 22  2  0  0  0  0
 20 44  1  0  0  0  0
 21 23  2  0  0  0  0
 21 45  1  0  0  0  0
 22 53  1  0  0  0  0
 23 46  1  0  0  0  0
 24 26  2  0  0  0  0
 24 62  1  0  0  0  0
 25 75  1  0  0  0  0
 26 74  1  0  0  0  0
 27 87  1  0  0  0  0
 28 88  1  0  0  0  0
 29 31  2  0  0  0  0
 29 87  1  0  0  0  0
 30 89  1  0  0  0  0
 31 90  1  0  0  0  0
 32 67  2  0  0  0  0
 33 69  1  0  0  0  0
 33 72  1  0  0  0  0
 34 68  2  0  0  0  0
 35 37  2  0  0  0  0
 35 88  1  0  0  0  0
 36 73  1  0  0  0  0
 36 79  2  0  0  0  0
 37 38  1  0  0  0  0
 37 86  1  0  0  0  0
 38 63  1  0  0  0  0
 38 80  2  0  0  0  0
 39 54  1  0  0  0  0
 39 76  1  0  0  0  0
 39 81  2  0  0  0  0
 40 64  1  0  0  0  0
 40 70  1  0  0  0  0
 40 82  2  0  0  0  0
 41 63  1  0  0  0  0
 41 74  1  0  0  0  0
 41 83  2  0  0  0  0
 42 65  1  0  0  0  0
 42 77  1  0  0  0  0
 42 84  2  0  0  0  0
 43 71  1  0  0  0  0
 43 75  1  0  0  0  0
 43 85  2  0  0  0  0
 44 47  1  0  0  0  0
 45 54  1  0  0  0  0
 46 70  1  0  0  0  0
 47 49  1  0  0  0  0
 48 50  1  0  0  0  0
 48 51  1  0  0  0  0
 49 53  1  0  0  0  0
 50 55  1  0  0  0  0
 51 71  1  0  0  0  0
 52 55  1  0  0  0  0
 52 71  1  0  0  0  0
 53 76  1  0  0  0  0
 54 70  1  0  0  0  0
 55 69  1  0  0  0  0
 56 62  1  0  0  0  0
 57 65  1  0  0  0  0
 58 66  1  0  0  0  0
 59 66  1  0  0  0  0
 60 66  1  0  0  0  0
 61 78  1  0  0  0  0
 64 66  1  0  0  0  0
 64 77  1  0  0  0  0
 65 78  1  0  0  0  0
 67 69  1  0  0  0  0
M  CHG  1  78   1
M  ISO  4  35 101  43 100  75 100  88 101
M  END
> <Batch ID>
0166

> <Smiles>
CCc1c(C=N)cc([100NH:0][100C:0](=O)N2CCCC(n3nc(-c4ccc(Oc5ccc(F)cc5F)cc4)c(C(N)=O)c3N)C2)cc1NC(=O)CC(=O)C(=O)[101CH2:1][101O:1]c1ccc2c(c1)CN(C(=O)C(NC(=O)C(C)NC)C(C)(C)C)C(C(=O)NC1CCCc3ccccc31)C2

> <Shape>
0.240

> <Color>
0.100

> <Negative vol penalty>
0.000

$$$$

  -OEChem-04052304083D

 85 93  0     1  0  0  0  0  0999 V2000
  -32.1502  -22.3703   14.0359 C   0  0  0  0  0  0  0  0  0  0  0  0
  -31.1175  -22.9894   14.7328 C   0  0  0  0  0  0  0  0  0  0  0  0
  -30.3374  -28.0481   19.0870 C   0  0  0  0  0  0  0  0  0  0  0  0
  -30.0305  -27.1080   21.2913 C   0  0  0  0  0  0  0  0  0  0  0  0
  -32.1714  -20.9818   13.9115 C   0  0  0  0  0  0  0  0  0  0  0  0
  -30.1047  -22.2203   15.3048 C   0  0  0  0  0  0  0  0  0  0  0  0
  -25.6932  -22.1041   20.9476 C   0  0  0  0  0  0  0  0  0  0  0  0
  -18.0521  -28.5448   22.9702 C   0  0  0  0  0  0  0  0  0  0  0  0
  -19.3167  -29.0830   22.7322 C   0  0  0  0  0  0  0  0  0  0  0  0
  -31.7209  -27.9659   19.2445 C   0  0  0  0  0  0  0  0  0  0  0  0
  -31.4140  -27.0257   21.4488 C   0  0  0  0  0  0  0  0  0  0  0  0
  -24.3389  -21.9774   21.2536 C   0  0  0  0  0  0  0  0  0  0  0  0
  -33.9639  -29.1133   22.2042 C   0  0  0  0  0  0  0  0  0  0  0  0
  -34.5046  -29.5397   23.4172 C   0  0  0  0  0  0  0  0  0  0  0  0
  -24.5215  -19.5813   21.0421 C   0  0  0  0  0  0  0  0  0  0  0  0
  -20.2080  -26.8572   22.4343 C   0  0  0  0  0  0  0  0  0  0  0  0
  -35.4092  -27.3307   23.7905 C   0  0  0  0  0  0  0  0  0  0  0  0
  -29.4922  -27.6192   20.1104 C   0  0  0  0  0  0  0  0  0  0  0  0
  -27.2083  -26.7233   19.4113 C   0  0  0  0  0  0  0  0  0  0  0  0
  -31.1635  -20.1946   14.4905 C   0  0  0  0  0  0  0  0  0  0  0  0
  -26.4706  -20.9693   20.6755 C   0  0  0  0  0  0  0  0  0  0  0  0
  -30.1117  -20.8200   15.1869 C   0  0  0  0  0  0  0  0  0  0  0  0
  -25.8861  -19.6962   20.7355 C   0  0  0  0  0  0  0  0  0  0  0  0
  -17.8654  -27.1628   22.9403 C   0  0  0  0  0  0  0  0  0  0  0  0
  -20.3947  -28.2393   22.4642 C   0  0  0  0  0  0  0  0  0  0  0  0
  -18.9433  -26.3190   22.6723 C   0  0  0  0  0  0  0  0  0  0  0  0
  -32.2592  -27.4546   20.4254 C   0  0  0  0  0  0  0  0  0  0  0  0
  -23.7522  -20.7161   21.2980 C   0  0  0  0  0  0  0  0  0  0  0  0
  -34.1458  -27.7956   21.7843 C   0  0  0  0  0  0  0  0  0  0  0  0
  -35.2272  -28.6484   24.2104 C   0  0  0  0  0  0  0  0  0  0  0  0
  -34.8685  -26.9043   22.5775 C   0  0  0  0  0  0  0  0  0  0  0  0
  -28.0630  -27.7045   19.9485 C   0  0  0  0  0  0  0  0  0  0  0  0
  -25.9566  -27.2849   19.4774 C   0  0  0  0  0  0  0  0  0  0  0  0
  -27.5181  -25.4208   18.8984 C   0  0  0  0  0  0  0  0  0  0  0  0
  -19.3028  -22.6051   22.4123 C   0  0  0  0  0  0  0  0  0  0  0  0
  -20.2630  -21.4620   22.1471 C   0  0  0  0  0  0  0  0  0  0  0  0
  -28.1108  -19.9242   18.1612 C   0  0  0  0  0  0  0  0  0  0  0  0
  -29.0486  -17.6061   20.2275 C   0  0  0  0  0  0  0  0  0  0  0  0
  -28.4031  -15.8157   23.0603 C   0  0  0  0  0  0  0  0  0  0  0  0
  -22.0352  -30.1350   22.2165 C   0  0  0  0  0  0  0  0  0  0  0  0
  -31.2037  -18.7005   14.2890 C   0  0  0  0  0  0  0  0  0  0  0  0
  -27.9363  -21.1210   20.3733 C   0  0  0  0  0  0  0  0  0  0  0  0
  -26.6817  -18.4450   20.4712 C   0  0  0  0  0  0  0  0  0  0  0  0
  -30.2939  -17.9324   15.2443 C   0  0  0  0  0  0  0  0  0  0  0  0
  -24.5247  -32.0279   20.5146 C   0  0  0  0  0  0  0  0  0  0  0  0
  -28.9160  -18.5836   15.3088 C   0  0  0  0  0  0  0  0  0  0  0  0
  -25.5969  -30.9911   20.1715 C   0  0  0  0  0  0  0  0  0  0  0  0
  -23.8879  -31.7557   21.8763 C   0  0  0  0  0  0  0  0  0  0  0  0
  -24.4351  -29.3593   21.7124 C   0  0  0  0  0  0  0  0  0  0  0  0
  -29.0083  -20.0182   15.8425 C   0  0  1  0  0  0  0  0  0  0  0  0
  -28.5146  -19.9344   19.6085 C   0  0  1  0  0  0  0  0  0  0  0  0
  -25.0598  -29.5542   20.3212 C   0  0  2  0  0  0  0  0  0  0  0  0
  -16.5002  -26.6134   23.1984 C   0  0  0  0  0  0  0  0  0  0  0  0
  -28.8039  -14.1895   24.9289 C   0  0  0  0  0  0  0  0  0  0  0  0
  -28.1109  -15.5626   18.1647 C   0  0  0  0  0  0  0  0  0  0  0  0
  -28.1707  -13.8226   19.9639 C   0  0  0  0  0  0  0  0  0  0  0  0
  -30.2692  -14.9920   19.2920 C   0  0  0  0  0  0  0  0  0  0  0  0
  -29.7090  -17.8797   24.7316 C   0  0  0  0  0  0  0  0  0  0  0  0
  -19.8428  -24.0113   22.3707 C   0  0  0  0  0  0  0  0  0  0  0  0
  -21.7044  -21.7911   21.8518 C   0  0  0  0  0  0  0  0  0  1  0  0
  -28.5218  -16.2469   20.6201 C   0  0  1  0  0  0  0  0  0  0  0  0
  -29.2760  -15.4670   24.2522 C   0  0  2  0  0  0  0  0  0  0  0  0
  -28.7525  -15.1796   19.5133 C   0  0  0  0  0  0  0  0  0  0  0  0
  -27.4095  -28.8059   20.3279 N   0  0  0  0  0  0  0  0  0  0  0  0
  -26.1309  -28.5202   20.0285 N   0  0  0  0  0  0  0  0  0  0  0  0
  -28.1096  -18.6459   20.1739 N   0  0  0  0  0  0  0  0  0  0  0  0
  -23.3981  -30.3771   21.9435 N   0  0  0  0  0  0  0  0  0  0  0  0
  -24.7349  -26.8375   19.1173 N   0  0  0  0  0  0  0  0  0  0  0  0
  -28.8553  -25.0009   18.9046 N   0  0  0  0  0  0  0  0  0  0  0  0
  -21.6791  -28.7867   22.2231 N   0  0  0  0  0  0  0  0  0  0  0  0
  -18.7754  -24.9430   22.6397 N   0  0  0  0  0  0  0  0  0  0  0  0
  -29.1719  -20.0130   17.2805 N   0  0  0  0  0  0  0  0  0  0  0  0
  -29.1414  -15.9234   21.9007 N   0  0  0  0  0  0  0  0  0  0  0  0
  -29.2470  -16.5686   25.2555 N   0  3  0  0  0  0  0  0  0  0  0  0
  -26.6375  -24.6585   18.4327 O   0  0  0  0  0  0  0  0  0  0  0  0
  -18.1377  -22.3102   22.6472 O   0  0  0  0  0  0  0  0  0  0  0  0
  -19.8106  -20.3250   22.1855 O   0  0  0  0  0  0  0  0  0  0  0  0
  -26.9246  -19.8404   17.8655 O   0  0  0  0  0  0  0  0  0  0  0  0
  -30.2503  -17.7418   19.9844 O   0  0  0  0  0  0  0  0  0  0  0  0
  -27.1874  -15.9731   23.1483 O   0  0  0  0  0  0  0  0  0  0  0  0
  -21.2367  -31.0570   22.4018 O   0  0  0  0  0  0  0  0  0  0  0  0
  -33.6091  -27.3740   20.5794 O   0  0  0  0  0  0  0  0  0  0  0  0
  -22.4304  -20.5896   21.5957 O   0  0  0  0  0  0  0  0  0  1  0  0
  -35.7476  -29.0585   25.3745 F   0  0  0  0  0  0  0  0  0  0  0  0
  -35.0476  -25.6375   22.1788 F   0  0  0  0  0  0  0  0  0  0  0  0
  1  2  1  0  0  0  0
  1  5  2  0  0  0  0
  2  6  2  0  0  0  0
  3 10  2  0  0  0  0
  3 18  1  0  0  0  0
  4 11  1  0  0  0  0
  4 18  2  0  0  0  0
  5 20  1  0  0  0  0
  6 22  1  0  0  0  0
  7 12  2  0  0  0  0
  7 21  1  0  0  0  0
  8  9  2  0  0  0  0
  8 24  1  0  0  0  0
  9 25  1  0  0  0  0
 10 27  1  0  0  0  0
 11 27  2  0  0  0  0
 12 28  1  0  0  0  0
 13 14  2  0  0  0  0
 13 29  1  0  0  0  0
 14 30  1  0  0  0  0
 15 23  1  0  0  0  0
 15 28  2  0  0  0  0
 16 25  2  0  0  0  0
 16 26  1  0  0  0  0
 17 30  2  0  0  0  0
 17 31  1  0  0  0  0
 18 32  1  0  0  0  0
 19 32  1  0  0  0  0
 19 33  2  0  0  0  0
 19 34  1  0  0  0  0
 20 22  2  0  0  0  0
 20 41  1  0  0  0  0
 21 23  2  0  0  0  0
 21 42  1  0  0  0  0
 22 50  1  0  0  0  0
 23 43  1  0  0  0  0
 24 26  2  0  0  0  0
 24 53  1  0  0  0  0
 25 70  1  0  0  0  0
 26 71  1  0  0  0  0
 27 82  1  0  0  0  0
 28 83  1  0  0  0  0
 29 31  2  0  0  0  0
 29 82  1  0  0  0  0
 30 84  1  0  0  0  0
 31 85  1  0  0  0  0
 32 64  2  0  0  0  0
 33 65  1  0  0  0  0
 33 68  1  0  0  0  0
 34 69  1  0  0  0  0
 34 75  2  0  0  0  0
 35 36  1  0  0  0  0
 35 59  1  0  0  0  0
 35 76  2  0  0  0  0
 36 60  1  0  0  0  0
 36 77  2  0  0  0  0
 37 51  1  0  0  0  0
 37 72  1  0  0  0  0
 37 78  2  0  0  0  0
 38 61  1  0  0  0  0
 38 66  1  0  0  0  0
 38 79  2  0  0  0  0
 39 62  1  0  0  0  0
 39 73  1  0  0  0  0
 39 80  2  0  0  0  0
 40 67  1  0  0  0  0
 40 70  1  0  0  0  0
 40 81  2  0  0  0  0
 41 44  1  0  0  0  0
 42 51  1  0  0  0  0
 43 66  1  0  0  0  0
 44 46  1  0  0  0  0
 45 47  1  0  0  0  0
 45 48  1  0  0  0  0
 46 50  1  0  0  0  0
 47 52  1  0  0  0  0
 48 67  1  0  0  0  0
 49 52  1  0  0  0  0
 49 67  1  0  0  0  0
 50 72  1  0  0  0  0
 51 66  1  0  0  0  0
 52 65  1  0  0  0  0
 54 62  1  0  0  0  0
 55 63  1  0  0  0  0
 56 63  1  0  0  0  0
 57 63  1  0  0  0  0
 58 74  1  0  0  0  0
 59 71  1  0  0  0  0
 60 83  1  0  0  0  0
 61 63  1  0  0  0  0
 61 73  1  0  0  0  0
 62 74  1  0  0  0  0
 64 65  1  0  0  0  0
M  CHG  1  74   1
M  ISO  4  40 100  60 101  70 100  83 101
M  END
> <Batch ID>
0166

> <Smiles>
CNC(C)C(=O)NC(C(=O)N1Cc2cc([101O:1][101CH2:1]C(=O)C(=O)CNc3cc([100NH:0][100C:0](=O)N4CCCC(n5nc(-c6ccc(Oc7ccc(F)cc7F)cc6)c(C(N)=O)c5N)C4)ccc3C)ccc2CC1C(=O)NC1CCCc2ccccc21)C(C)(C)C

> <Shape>
0.207

> <Color>
0.068

> <Negative vol penalty>
0.000

$$$$

  -OEChem-04052304083D

 86 94  0     1  0  0  0  0  0999 V2000
  -19.6103  -32.9308   27.4199 C   0  0  0  0  0  0  0  0  0  0  0  0
  -20.4084  -31.8286   27.7090 C   0  0  0  0  0  0  0  0  0  0  0  0
  -23.2560   -9.6591   20.8486 C   0  0  0  0  0  0  0  0  0  0  0  0
  -23.9328  -10.3427   23.0649 C   0  0  0  0  0  0  0  0  0  0  0  0
  -19.4063  -33.3138   26.0949 C   0  0  0  0  0  0  0  0  0  0  0  0
  -21.0021  -31.1081   26.6732 C   0  0  0  0  0  0  0  0  0  0  0  0
  -26.4770  -28.3652   26.7628 C   0  0  0  0  0  0  0  0  0  0  0  0
  -22.5753   -8.5699   21.3925 C   0  0  0  0  0  0  0  0  0  0  0  0
  -23.2521   -9.2535   23.6087 C   0  0  0  0  0  0  0  0  0  0  0  0
  -26.8598  -27.0420   26.9777 C   0  0  0  0  0  0  0  0  0  0  0  0
  -23.3379   -5.5034   22.5923 C   0  0  0  0  0  0  0  0  0  0  0  0
  -23.5003   -4.2640   21.9733 C   0  0  0  0  0  0  0  0  0  0  0  0
  -26.9191  -26.6782   24.5937 C   0  0  0  0  0  0  0  0  0  0  0  0
  -30.3906  -19.1855   22.9550 C   0  0  0  0  0  0  0  0  0  0  0  0
  -21.1239   -4.1647   21.5487 C   0  0  0  0  0  0  0  0  0  0  0  0
  -23.9348  -10.5456   21.6848 C   0  0  0  0  0  0  0  0  0  0  0  0
  -24.1263  -12.9596   20.8827 C   0  0  0  0  0  0  0  0  0  0  0  0
  -20.0056  -32.6035   25.0428 C   0  0  0  0  0  0  0  0  0  0  0  0
  -26.3015  -28.8527   25.4597 C   0  0  0  0  0  0  0  0  0  0  0  0
  -20.8048  -31.4812   25.3328 C   0  0  0  0  0  0  0  0  0  0  0  0
  -26.5366  -28.0088   24.3649 C   0  0  0  0  0  0  0  0  0  0  0  0
  -30.1531  -18.6387   21.6714 C   0  0  0  0  0  0  0  0  0  0  0  0
  -22.5733   -8.3670   22.7725 C   0  0  0  0  0  0  0  0  0  0  0  0
  -27.0781  -26.1974   25.8932 C   0  0  0  0  0  0  0  0  0  0  0  0
  -22.0685   -6.0735   22.6895 C   0  0  0  0  0  0  0  0  0  0  0  0
  -22.3933   -3.5946   21.4515 C   0  0  0  0  0  0  0  0  0  0  0  0
  -20.9616   -5.4041   22.1677 C   0  0  0  0  0  0  0  0  0  0  0  0
  -24.6386  -11.6706   21.1236 C   0  0  0  0  0  0  0  0  0  0  0  0
  -29.2146  -19.4506   21.0780 C   0  0  0  0  0  0  0  0  0  0  0  0
  -29.5805  -20.2927   23.0545 C   0  0  0  0  0  0  0  0  0  0  0  0
  -25.1829  -13.6543   20.3466 C   0  0  0  0  0  0  0  0  0  0  0  0
  -28.2751  -21.7357   24.2401 C   0  0  0  0  0  0  0  0  0  0  0  0
  -22.8128  -13.4822   21.1221 C   0  0  0  0  0  0  0  0  0  0  0  0
  -28.0501  -22.7034   25.3561 C   0  0  0  0  0  0  0  0  0  0  0  0
  -23.8502  -30.0369   23.8188 C   0  0  0  0  0  0  0  0  0  0  0  0
  -30.6059  -15.0216   20.4543 C   0  0  0  0  0  0  0  0  0  0  0  0
  -26.1243  -30.5899   21.5727 C   0  0  0  0  0  0  0  0  0  0  0  0
  -29.1732  -29.7738   20.2745 C   0  0  0  0  0  0  0  0  0  0  0  0
  -19.7175  -33.0269   23.6242 C   0  0  0  0  0  0  0  0  0  0  0  0
  -25.9143  -30.2901   25.2441 C   0  0  0  0  0  0  0  0  0  0  0  0
  -26.3816  -28.4890   22.9458 C   0  0  0  0  0  0  0  0  0  0  0  0
  -20.6862  -32.4355   22.6034 C   0  0  0  0  0  0  0  0  0  0  0  0
  -29.6714  -12.0589   18.6684 C   0  0  0  0  0  0  0  0  0  0  0  0
  -20.8791  -30.9431   22.8528 C   0  0  0  0  0  0  0  0  0  0  0  0
  -28.2481  -11.7828   19.1510 C   0  0  0  0  0  0  0  0  0  0  0  0
  -30.5351  -12.6431   19.7819 C   0  0  0  0  0  0  0  0  0  0  0  0
  -28.5425  -13.6000   20.8935 C   0  0  0  0  0  0  0  0  0  0  0  0
  -21.4859  -30.6891   24.2380 C   0  0  1  0  0  0  0  0  0  0  0  0
  -25.2656  -30.5368   23.8856 C   0  0  1  0  0  0  0  0  0  0  0  0
  -27.6281  -13.0377   19.7908 C   0  0  2  0  0  0  0  0  0  0  0  0
  -30.7472  -30.3749   18.4148 C   0  0  0  0  0  0  0  0  0  0  0  0
  -24.3596  -29.0795   19.5942 C   0  0  0  0  0  0  0  0  0  0  0  0
  -26.3436  -28.8859   18.0794 C   0  0  0  0  0  0  0  0  0  0  0  0
  -25.4413  -31.1357   18.6686 C   0  0  0  0  0  0  0  0  0  0  0  0
  -31.2953  -30.5776   22.1744 C   0  0  0  0  0  0  0  0  0  0  0  0
  -30.7863  -17.4404   21.0915 C   0  0  0  0  0  0  0  0  0  0  0  0
  -27.6580  -24.0956   24.9434 C   0  0  0  0  0  0  0  0  0  1  0  0
  -29.8857  -16.1901   21.0786 C   0  0  0  0  0  0  0  0  0  0  0  0
  -26.6966  -29.8073   20.4155 C   0  0  1  0  0  0  0  0  0  0  0  0
  -30.3546  -30.6328   19.8612 C   0  0  2  0  0  0  0  0  0  0  0  0
  -28.5497  -19.4344   19.7665 C   0  0  0  0  0  0  0  0  0  0  0  0
  -25.7114  -29.7172   19.2161 C   0  0  0  0  0  0  0  0  0  0  0  0
  -25.9208  -11.5509   20.7695 N   0  0  0  0  0  0  0  0  0  0  0  0
  -29.4357  -21.1899   24.1260 N   0  0  0  0  0  0  0  0  0  0  0  0
  -26.2232  -12.7735   20.3005 N   0  0  0  0  0  0  0  0  0  0  0  0
  -25.9953  -29.9007   22.7869 N   0  0  0  0  0  0  0  0  0  0  0  0
  -29.9013  -13.8200   20.3789 N   0  0  0  0  0  0  0  0  0  0  0  0
  -25.3144  -14.9266   19.9148 N   0  0  0  0  0  0  0  0  0  0  0  0
  -21.8469  -12.6326   21.6784 N   0  0  0  0  0  0  0  0  0  0  0  0
  -22.9072  -30.9618   24.2248 N   0  0  0  0  0  0  0  0  0  0  0  0
  -27.9751  -30.4318   20.0930 N   0  0  0  0  0  0  0  0  0  0  0  0
  -31.5330  -30.3440   20.7267 N   0  3  0  0  0  0  0  0  0  0  0  0
  -22.5003  -14.6628   20.8356 O   0  0  0  0  0  0  0  0  0  0  0  0
  -28.1831  -22.3046   26.5022 O   0  0  0  0  0  0  0  0  0  0  0  0
  -23.6299  -28.8971   23.4266 O   0  0  0  0  0  0  0  0  0  0  0  0
  -31.7593  -15.1749   20.0438 O   0  0  0  0  0  0  0  0  0  0  0  0
  -25.8101  -31.7712   21.4074 O   0  0  0  0  0  0  0  0  0  0  0  0
  -29.3002  -28.6320   20.7110 O   0  0  0  0  0  0  0  0  0  0  0  0
  -28.8605  -20.4613   21.9145 O   0  0  0  0  0  0  0  0  0  0  0  0
  -21.9090   -7.3044   23.3036 O   0  0  0  0  0  0  0  0  0  0  0  0
  -27.4511  -24.9052   26.1002 O   0  0  0  0  0  0  0  0  0  1  0  0
  -22.5496   -2.4052   20.8558 F   0  0  0  0  0  0  0  0  0  0  0  0
  -19.7398   -5.9473   22.2570 F   0  0  0  0  0  0  0  0  0  0  0  0
  -28.9328  -18.3989   18.9478 F   0  0  0  0  0  0  0  0  0  0  0  0
  -27.1807  -19.3284   19.8254 F   0  0  0  0  0  0  0  0  0  0  0  0
  -28.7787  -20.5666   19.0242 F   0  0  0  0  0  0  0  0  0  0  0  0
  1  2  1  0  0  0  0
  1  5  2  0  0  0  0
  2  6  2  0  0  0  0
  3  8  2  0  0  0  0
  3 16  1  0  0  0  0
  4  9  1  0  0  0  0
  4 16  2  0  0  0  0
  5 18  1  0  0  0  0
  6 20  1  0  0  0  0
  7 10  2  0  0  0  0
  7 19  1  0  0  0  0
  8 23  1  0  0  0  0
  9 23  2  0  0  0  0
 10 24  1  0  0  0  0
 11 12  2  0  0  0  0
 11 25  1  0  0  0  0
 12 26  1  0  0  0  0
 13 21  1  0  0  0  0
 13 24  2  0  0  0  0
 14 22  1  0  0  0  0
 14 30  2  0  0  0  0
 15 26  2  0  0  0  0
 15 27  1  0  0  0  0
 16 28  1  0  0  0  0
 17 28  1  0  0  0  0
 17 31  2  0  0  0  0
 17 33  1  0  0  0  0
 18 20  2  0  0  0  0
 18 39  1  0  0  0  0
 19 21  2  0  0  0  0
 19 40  1  0  0  0  0
 20 48  1  0  0  0  0
 21 41  1  0  0  0  0
 22 29  2  0  0  0  0
 22 56  1  0  0  0  0
 23 80  1  0  0  0  0
 24 81  1  0  0  0  0
 25 27  2  0  0  0  0
 25 80  1  0  0  0  0
 26 82  1  0  0  0  0
 27 83  1  0  0  0  0
 28 63  2  0  0  0  0
 29 61  1  0  0  0  0
 29 79  1  0  0  0  0
 30 64  1  0  0  0  0
 30 79  1  0  0  0  0
 31 65  1  0  0  0  0
 31 68  1  0  0  0  0
 32 34  1  0  0  0  0
 32 64  2  0  0  0  0
 33 69  1  0  0  0  0
 33 73  2  0  0  0  0
 34 57  1  0  0  0  0
 34 74  2  0  0  0  0
 35 49  1  0  0  0  0
 35 70  1  0  0  0  0
 35 75  2  0  0  0  0
 36 58  1  0  0  0  0
 36 67  1  0  0  0  0
 36 76  2  0  0  0  0
 37 59  1  0  0  0  0
 37 66  1  0  0  0  0
 37 77  2  0  0  0  0
 38 60  1  0  0  0  0
 38 71  1  0  0  0  0
 38 78  2  0  0  0  0
 39 42  1  0  0  0  0
 40 49  1  0  0  0  0
 41 66  1  0  0  0  0
 42 44  1  0  0  0  0
 43 45  1  0  0  0  0
 43 46  1  0  0  0  0
 44 48  1  0  0  0  0
 45 50  1  0  0  0  0
 46 67  1  0  0  0  0
 47 50  1  0  0  0  0
 47 67  1  0  0  0  0
 48 70  1  0  0  0  0
 49 66  1  0  0  0  0
 50 65  1  0  0  0  0
 51 60  1  0  0  0  0
 52 62  1  0  0  0  0
 53 62  1  0  0  0  0
 54 62  1  0  0  0  0
 55 72  1  0  0  0  0
 56 58  1  0  0  0  0
 57 81  1  0  0  0  0
 59 62  1  0  0  0  0
 59 71  1  0  0  0  0
 60 72  1  0  0  0  0
 61 84  1  0  0  0  0
 61 85  1  0  0  0  0
 61 86  1  0  0  0  0
 63 65  1  0  0  0  0
M  CHG  1  72   1
M  ISO  4  36 100  57 101  58 100  81 101
M  END
> <Batch ID>
0166

> <Smiles>
CNC(C)C(=O)NC(C(=O)N1Cc2cc([101O:1][101CH2:1]C(=O)CNc3cc(C=[100CH:0][100C:0](=O)N4CCCC(n5nc(-c6ccc(Oc7ccc(F)cc7F)cc6)c(C(N)=O)c5N)C4)c(C(F)(F)F)o3)ccc2CC1C(=O)NC1CCCc2ccccc21)C(C)(C)C

> <Shape>
0.275

> <Color>
0.173

> <Negative vol penalty>
0.000

$$$$

  -OEChem-04052304083D

 82 90  0     1  0  0  0  0  0999 V2000
  -27.8092  -24.3503   16.7457 C   0  0  0  0  0  0  0  0  0  0  0  0
  -26.6451  -24.5777   17.4728 C   0  0  0  0  0  0  0  0  0  0  0  0
  -16.9671  -21.2789   22.8184 C   0  0  0  0  0  0  0  0  0  0  0  0
  -25.4548  -14.8387   20.0100 C   0  0  0  0  0  0  0  0  0  0  0  0
  -23.1188  -14.5128   20.5333 C   0  0  0  0  0  0  0  0  0  0  0  0
  -29.0273  -24.8453   17.2096 C   0  0  0  0  0  0  0  0  0  0  0  0
  -26.6986  -25.2992   18.6648 C   0  0  0  0  0  0  0  0  0  0  0  0
  -22.9938  -28.7327   19.0255 C   0  0  0  0  0  0  0  0  0  0  0  0
  -25.7553  -13.6022   20.5812 C   0  0  0  0  0  0  0  0  0  0  0  0
  -23.4193  -13.2762   21.1045 C   0  0  0  0  0  0  0  0  0  0  0  0
  -21.7261  -28.2675   19.3724 C   0  0  0  0  0  0  0  0  0  0  0  0
  -24.0798  -10.1374   20.0406 C   0  0  0  0  0  0  0  0  0  0  0  0
  -23.2552   -9.0593   19.7195 C   0  0  0  0  0  0  0  0  0  0  0  0
  -18.2500  -20.8970   22.4424 C   0  0  0  0  0  0  0  0  0  0  0  0
  -16.7322  -22.5816   23.2439 C   0  0  0  0  0  0  0  0  0  0  0  0
  -22.0973  -28.9723   21.6494 C   0  0  0  0  0  0  0  0  0  0  0  0
  -22.6944   -8.7928   22.0544 C   0  0  0  0  0  0  0  0  0  0  0  0
  -24.1365  -15.2940   19.9861 C   0  0  0  0  0  0  0  0  0  0  0  0
  -23.4886  -16.8289   18.0542 C   0  0  0  0  0  0  0  0  0  0  0  0
  -29.0943  -25.5815   18.4029 C   0  0  0  0  0  0  0  0  0  0  0  0
  -23.8284  -29.3123   19.9919 C   0  0  0  0  0  0  0  0  0  0  0  0
  -27.9190  -25.8033   19.1458 C   0  0  0  0  0  0  0  0  0  0  0  0
  -23.3741  -29.4463   21.3116 C   0  0  0  0  0  0  0  0  0  0  0  0
  -24.7376  -12.8209   21.1285 C   0  0  0  0  0  0  0  0  0  0  0  0
  -21.2788  -28.3846   20.6851 C   0  0  0  0  0  0  0  0  0  0  0  0
  -24.2119  -10.5432   21.3686 C   0  0  0  0  0  0  0  0  0  0  0  0
  -22.5624   -8.3870   20.7263 C   0  0  0  0  0  0  0  0  0  0  0  0
  -23.5192   -9.8709   22.3755 C   0  0  0  0  0  0  0  0  0  0  0  0
  -23.8255  -16.5715   19.3966 C   0  0  0  0  0  0  0  0  0  0  0  0
  -19.2556  -21.8479   22.5094 C   0  0  0  0  0  0  0  0  0  0  0  0
  -17.8057  -23.4570   23.2753 C   0  0  0  0  0  0  0  0  0  0  0  0
  -23.2873  -18.1867   18.0050 C   0  0  0  0  0  0  0  0  0  0  0  0
  -23.3683  -15.9218   16.9504 C   0  0  0  0  0  0  0  0  0  0  0  0
  -26.6769  -28.6036   21.2117 C   0  0  0  0  0  0  0  0  0  0  0  0
  -18.8261  -26.3633   22.4184 C   0  0  0  0  0  0  0  0  0  0  0  0
  -26.3115  -31.4570   22.7108 C   0  0  0  0  0  0  0  0  0  0  0  0
  -24.1950  -33.8657   23.8793 C   0  0  0  0  0  0  0  0  0  0  0  0
  -21.7135  -22.2315   22.1121 C   0  0  0  0  0  0  0  0  0  0  0  0
  -30.4411  -26.0558   18.8886 C   0  0  0  0  0  0  0  0  0  0  0  0
  -25.1827  -29.8334   19.5958 C   0  0  0  0  0  0  0  0  0  0  0  0
  -24.2236  -30.0793   22.3823 C   0  0  0  0  0  0  0  0  0  0  0  0
  -30.3550  -27.1315   19.9683 C   0  0  0  0  0  0  0  0  0  0  0  0
  -24.6652  -22.2558   20.1212 C   0  0  0  0  0  0  0  0  0  0  0  0
  -29.3361  -26.7385   21.0333 C   0  0  0  0  0  0  0  0  0  0  0  0
  -24.7509  -20.8259   19.5823 C   0  0  0  0  0  0  0  0  0  0  0  0
  -24.1340  -22.2914   21.5530 C   0  0  0  0  0  0  0  0  0  0  0  0
  -22.9477  -20.1578   21.2222 C   0  0  0  0  0  0  0  0  0  0  0  0
  -27.9326  -26.6027   20.4307 C   0  0  1  0  0  0  0  0  0  0  0  0
  -26.1492  -29.9398   20.7714 C   0  0  1  0  0  0  0  0  0  0  0  0
  -23.4163  -20.0758   19.7602 C   0  0  2  0  0  0  0  0  0  0  0  0
  -24.1885  -36.0623   25.0927 C   0  0  0  0  0  0  0  0  0  0  0  0
  -26.8554  -30.0044   25.3384 C   0  0  0  0  0  0  0  0  0  0  0  0
  -25.9150  -31.9850   26.5473 C   0  0  0  0  0  0  0  0  0  0  0  0
  -27.9557  -32.2411   25.1357 C   0  0  0  0  0  0  0  0  0  0  0  0
  -22.9344  -35.2576   21.5919 C   0  0  0  0  0  0  0  0  0  0  0  0
  -18.5652  -25.7774   23.7898 C   0  0  0  0  0  0  0  0  0  0  0  0
  -19.8681  -27.4635   22.3636 C   0  0  0  0  0  0  0  0  0  1  0  0
  -25.7113  -31.9073   24.0207 C   0  0  1  0  0  0  0  0  0  0  0  0
  -24.2111  -35.3768   23.7354 C   0  0  2  0  0  0  0  0  0  0  0  0
  -26.5938  -31.5207   25.2410 C   0  0  0  0  0  0  0  0  0  0  0  0
  -23.8386  -17.6770   20.1461 N   0  0  0  0  0  0  0  0  0  0  0  0
  -19.0658  -23.1226   22.9177 N   0  0  0  0  0  0  0  0  0  0  0  0
  -23.5076  -18.6423   19.2716 N   0  0  0  0  0  0  0  0  0  0  0  0
  -25.5424  -30.5677   21.9469 N   0  0  0  0  0  0  0  0  0  0  0  0
  -22.8657  -21.5649   21.6444 N   0  0  0  0  0  0  0  0  0  0  0  0
  -22.9451  -19.0234   17.0024 N   0  0  0  0  0  0  0  0  0  0  0  0
  -23.6096  -14.5597   17.1757 N   0  0  0  0  0  0  0  0  0  0  0  0
  -20.5595  -21.4487   22.1243 N   0  0  0  0  0  0  0  0  0  0  0  0
  -17.5558  -24.7534   23.7021 N   0  0  0  0  0  0  0  0  0  0  0  0
  -27.3439  -27.9081   20.2214 N   0  0  0  0  0  0  0  0  0  0  0  0
  -25.4697  -33.3399   23.8880 N   0  0  0  0  0  0  0  0  0  0  0  0
  -23.0257  -35.8357   22.9573 N   0  3  0  0  0  0  0  0  0  0  0  0
  -23.0722  -16.3099   15.7949 O   0  0  0  0  0  0  0  0  0  0  0  0
  -26.4937  -28.2320   22.3650 O   0  0  0  0  0  0  0  0  0  0  0  0
  -18.2374  -25.9801   21.4082 O   0  0  0  0  0  0  0  0  0  0  0  0
  -27.4186  -31.8843   22.3743 O   0  0  0  0  0  0  0  0  0  0  0  0
  -23.1558  -33.2170   23.9783 O   0  0  0  0  0  0  0  0  0  0  0  0
  -21.7421  -23.4179   22.4493 O   0  0  0  0  0  0  0  0  0  0  0  0
  -25.0305  -11.6142   21.6857 O   0  0  0  0  0  0  0  0  0  0  0  0
  -20.0422  -27.9308   21.0266 O   0  0  0  0  0  0  0  0  0  1  0  0
  -21.7693   -7.3527   20.4176 F   0  0  0  0  0  0  0  0  0  0  0  0
  -23.6411  -10.2568   23.6530 F   0  0  0  0  0  0  0  0  0  0  0  0
  1  2  1  0  0  0  0
  1  6  2  0  0  0  0
  2  7  2  0  0  0  0
  3 14  1  0  0  0  0
  3 15  2  0  0  0  0
  4  9  2  0  0  0  0
  4 18  1  0  0  0  0
  5 10  1  0  0  0  0
  5 18  2  0  0  0  0
  6 20  1  0  0  0  0
  7 22  1  0  0  0  0
  8 11  2  0  0  0  0
  8 21  1  0  0  0  0
  9 24  1  0  0  0  0
 10 24  2  0  0  0  0
 11 25  1  0  0  0  0
 12 13  2  0  0  0  0
 12 26  1  0  0  0  0
 13 27  1  0  0  0  0
 14 30  2  0  0  0  0
 15 31  1  0  0  0  0
 16 23  1  0  0  0  0
 16 25  2  0  0  0  0
 17 27  2  0  0  0  0
 17 28  1  0  0  0  0
 18 29  1  0  0  0  0
 19 29  1  0  0  0  0
 19 32  2  0  0  0  0
 19 33  1  0  0  0  0
 20 22  2  0  0  0  0
 20 39  1  0  0  0  0
 21 23  2  0  0  0  0
 21 40  1  0  0  0  0
 22 48  1  0  0  0  0
 23 41  1  0  0  0  0
 24 79  1  0  0  0  0
 25 80  1  0  0  0  0
 26 28  2  0  0  0  0
 26 79  1  0  0  0  0
 27 81  1  0  0  0  0
 28 82  1  0  0  0  0
 29 61  2  0  0  0  0
 30 62  1  0  0  0  0
 30 68  1  0  0  0  0
 31 62  2  0  0  0  0
 31 69  1  0  0  0  0
 32 63  1  0  0  0  0
 32 66  1  0  0  0  0
 33 67  1  0  0  0  0
 33 73  2  0  0  0  0
 34 49  1  0  0  0  0
 34 70  1  0  0  0  0
 34 74  2  0  0  0  0
 35 56  1  0  0  0  0
 35 57  1  0  0  0  0
 35 75  2  0  0  0  0
 36 58  1  0  0  0  0
 36 64  1  0  0  0  0
 36 76  2  0  0  0  0
 37 59  1  0  0  0  0
 37 71  1  0  0  0  0
 37 77  2  0  0  0  0
 38 65  1  0  0  0  0
 38 68  1  0  0  0  0
 38 78  2  0  0  0  0
 39 42  1  0  0  0  0
 40 49  1  0  0  0  0
 41 64  1  0  0  0  0
 42 44  1  0  0  0  0
 43 45  1  0  0  0  0
 43 46  1  0  0  0  0
 44 48  1  0  0  0  0
 45 50  1  0  0  0  0
 46 65  1  0  0  0  0
 47 50  1  0  0  0  0
 47 65  1  0  0  0  0
 48 70  1  0  0  0  0
 49 64  1  0  0  0  0
 50 63  1  0  0  0  0
 51 59  1  0  0  0  0
 52 60  1  0  0  0  0
 53 60  1  0  0  0  0
 54 60  1  0  0  0  0
 55 72  1  0  0  0  0
 56 69  1  0  0  0  0
 57 80  1  0  0  0  0
 58 60  1  0  0  0  0
 58 71  1  0  0  0  0
 59 72  1  0  0  0  0
 61 63  1  0  0  0  0
M  CHG  1  72   1
M  ISO  4  38 100  57 101  68 100  80 101
M  END
> <Batch ID>
0166

> <Smiles>
CNC(C)C(=O)NC(C(=O)N1Cc2cc([101O:1][101CH2:1]C(=O)CNc3cccc([100NH:0][100C:0](=O)N4CCCC(n5nc(-c6ccc(Oc7ccc(F)cc7F)cc6)c(C(N)=O)c5N)C4)n3)ccc2CC1C(=O)NC1CCCc2ccccc21)C(C)(C)C

> <Shape>
0.270

> <Color>
0.073

> <Negative vol penalty>
0.000

$$$$

  -OEChem-04052304083D

 86 94  0     1  0  0  0  0  0999 V2000
  -17.0649  -13.2093   22.8173 C   0  0  0  0  0  0  0  0  0  0  0  0
  -17.8810  -14.3023   22.5438 C   0  0  0  0  0  0  0  0  0  0  0  0
  -29.1349  -26.1784   19.9480 C   0  0  0  0  0  0  0  0  0  0  0  0
  -27.2192  -24.7585   19.5594 C   0  0  0  0  0  0  0  0  0  0  0  0
  -17.6274  -12.0169   23.2708 C   0  0  0  0  0  0  0  0  0  0  0  0
  -19.2602  -14.2037   22.7246 C   0  0  0  0  0  0  0  0  0  0  0  0
  -21.8720  -16.1879   18.8663 C   0  0  0  0  0  0  0  0  0  0  0  0
  -19.3717  -29.0255   23.4472 C   0  0  0  0  0  0  0  0  0  0  0  0
  -29.9668  -25.0589   19.9378 C   0  0  0  0  0  0  0  0  0  0  0  0
  -28.0511  -23.6389   19.5491 C   0  0  0  0  0  0  0  0  0  0  0  0
  -21.9844  -17.5768   18.8210 C   0  0  0  0  0  0  0  0  0  0  0  0
  -29.6232  -20.3700   19.7791 C   0  0  0  0  0  0  0  0  0  0  0  0
  -18.0127  -28.9598   23.1397 C   0  0  0  0  0  0  0  0  0  0  0  0
  -29.2075  -19.2469   20.4942 C   0  0  0  0  0  0  0  0  0  0  0  0
  -24.2017  -17.4218   19.7586 C   0  0  0  0  0  0  0  0  0  0  0  0
  -18.3624  -26.8329   22.0484 C   0  0  0  0  0  0  0  0  0  0  0  0
  -29.1943  -20.5478   22.5300 C   0  0  0  0  0  0  0  0  0  0  0  0
  -27.7611  -26.0283   19.7588 C   0  0  0  0  0  0  0  0  0  0  0  0
  -26.5338  -27.9810   18.6689 C   0  0  0  0  0  0  0  0  0  0  0  0
  -19.0151  -11.9007   23.4480 C   0  0  0  0  0  0  0  0  0  0  0  0
  -22.9210  -15.4049   19.3691 C   0  0  0  0  0  0  0  0  0  0  0  0
  -19.8417  -13.0090   23.1821 C   0  0  0  0  0  0  0  0  0  0  0  0
  -24.1010  -16.0230   19.8068 C   0  0  0  0  0  0  0  0  0  0  0  0
  -20.2261  -27.9949   23.0552 C   0  0  0  0  0  0  0  0  0  0  0  0
  -19.7214  -26.8986   22.3558 C   0  0  0  0  0  0  0  0  0  0  0  0
  -29.4250  -23.7891   19.7383 C   0  0  0  0  0  0  0  0  0  0  0  0
  -23.1483  -18.1942   19.2698 C   0  0  0  0  0  0  0  0  0  0  0  0
  -29.8245  -21.5821   20.4395 C   0  0  0  0  0  0  0  0  0  0  0  0
  -17.5081  -27.8635   22.4404 C   0  0  0  0  0  0  0  0  0  0  0  0
  -28.9930  -19.3358   21.8696 C   0  0  0  0  0  0  0  0  0  0  0  0
  -29.6101  -21.6710   21.8149 C   0  0  0  0  0  0  0  0  0  0  0  0
  -26.9012  -27.1843   19.7698 C   0  0  0  0  0  0  0  0  0  0  0  0
  -25.7112  -28.9437   19.2010 C   0  0  0  0  0  0  0  0  0  0  0  0
  -26.9029  -27.8615   17.2886 C   0  0  0  0  0  0  0  0  0  0  0  0
  -23.2515  -13.4001   21.8135 C   0  0  0  0  0  0  0  0  0  0  0  0
  -22.3304  -21.6367   20.0342 C   0  0  0  0  0  0  0  0  0  0  0  0
  -26.1626  -12.8733   20.4830 C   0  0  0  0  0  0  0  0  0  0  0  0
  -20.2112  -24.6912   21.2469 C   0  0  0  0  0  0  0  0  0  0  0  0
  -28.6925  -14.0205   18.5005 C   0  0  0  0  0  0  0  0  0  0  0  0
  -22.2434  -29.1168   24.0641 C   0  0  0  0  0  0  0  0  0  0  0  0
  -19.5724  -10.6063   23.9853 C   0  0  0  0  0  0  0  0  0  0  0  0
  -22.7946  -13.9062   19.3864 C   0  0  0  0  0  0  0  0  0  0  0  0
  -25.2641  -15.2263   20.3368 C   0  0  0  0  0  0  0  0  0  0  0  0
  -21.0803  -10.4659   23.7929 C   0  0  0  0  0  0  0  0  0  0  0  0
  -24.8996  -31.3482   23.2623 C   0  0  0  0  0  0  0  0  0  0  0  0
  -21.7930  -11.7493   24.2072 C   0  0  0  0  0  0  0  0  0  0  0  0
  -25.6774  -30.6087   22.1712 C   0  0  0  0  0  0  0  0  0  0  0  0
  -24.3616  -30.3900   24.3236 C   0  0  0  0  0  0  0  0  0  0  0  0
  -24.3502  -28.5270   22.7117 C   0  0  0  0  0  0  0  0  0  0  0  0
  -21.3446  -12.9334   23.3421 C   0  0  1  0  0  0  0  0  0  0  0  0
  -23.7238  -13.2397   20.3962 C   0  0  1  0  0  0  0  0  0  0  0  0
  -24.8565  -29.4431   21.5856 C   0  0  2  0  0  0  0  0  0  0  0  0
  -30.9585  -13.3820   17.6316 C   0  0  0  0  0  0  0  0  0  0  0  0
  -27.3834  -13.5097   23.2060 C   0  0  0  0  0  0  0  0  0  0  0  0
  -29.5969  -13.7902   22.0702 C   0  0  0  0  0  0  0  0  0  0  0  0
  -28.4395  -11.5812   22.0143 C   0  0  0  0  0  0  0  0  0  0  0  0
  -27.7699  -14.1166   15.6901 C   0  0  0  0  0  0  0  0  0  0  0  0
  -21.1155  -22.5283   20.2455 C   0  0  0  0  0  0  0  0  0  0  0  0
  -22.0574  -20.3055   19.3617 C   0  0  0  0  0  0  0  0  0  1  0  0
  -21.4324  -23.8099   21.0101 C   0  0  0  0  0  0  0  0  0  0  0  0
  -27.5322  -13.4913   20.6285 C   0  0  1  0  0  0  0  0  0  0  0  0
  -29.4609  -13.3646   17.3675 C   0  0  2  0  0  0  0  0  0  0  0  0
  -28.2155  -13.1085   21.9716 C   0  0  0  0  0  0  0  0  0  0  0  0
  -26.3568  -27.6045   20.9149 N   0  0  0  0  0  0  0  0  0  0  0  0
  -25.6390  -28.6757   20.5364 N   0  0  0  0  0  0  0  0  0  0  0  0
  -25.0897  -13.7644   20.3394 N   0  0  0  0  0  0  0  0  0  0  0  0
  -23.5909  -29.3146   23.6956 N   0  0  0  0  0  0  0  0  0  0  0  0
  -25.0499  -29.9849   18.6523 N   0  0  0  0  0  0  0  0  0  0  0  0
  -27.7559  -26.8147   16.9134 N   0  0  0  0  0  0  0  0  0  0  0  0
  -20.5676  -25.8405   21.9471 N   0  0  0  0  0  0  0  0  0  0  0  0
  -21.6030  -28.0862   23.3768 N   0  0  0  0  0  0  0  0  0  0  0  0
  -21.9902  -12.8867   22.0477 N   0  0  0  0  0  0  0  0  0  0  0  0
  -28.2851  -13.0991   19.4420 N   0  0  0  0  0  0  0  0  0  0  0  0
  -29.2015  -14.0776   16.0848 N   0  3  0  0  0  0  0  0  0  0  0  0
  -26.5018  -28.6692   16.4167 O   0  0  0  0  0  0  0  0  0  0  0  0
  -23.9783  -13.9477   22.6343 O   0  0  0  0  0  0  0  0  0  0  0  0
  -23.4638  -21.9670   20.3793 O   0  0  0  0  0  0  0  0  0  0  0  0
  -26.0497  -11.6449   20.4892 O   0  0  0  0  0  0  0  0  0  0  0  0
  -19.0941  -24.3796   20.8478 O   0  0  0  0  0  0  0  0  0  0  0  0
  -28.4785  -15.2299   18.5477 O   0  0  0  0  0  0  0  0  0  0  0  0
  -21.6898  -29.8284   24.9063 O   0  0  0  0  0  0  0  0  0  0  0  0
  -30.2365  -22.6965   19.7281 O   0  0  0  0  0  0  0  0  0  0  0  0
  -23.2604  -19.5497   19.2273 O   0  0  0  0  0  0  0  0  0  1  0  0
  -16.2029  -27.8014   22.1454 F   0  0  0  0  0  0  0  0  0  0  0  0
  -28.5923  -18.2575   22.5559 F   0  0  0  0  0  0  0  0  0  0  0  0
  -29.8007  -22.8330   22.4546 F   0  0  0  0  0  0  0  0  0  0  0  0
  1  2  1  0  0  0  0
  1  5  2  0  0  0  0
  2  6  2  0  0  0  0
  3  9  2  0  0  0  0
  3 18  1  0  0  0  0
  4 10  1  0  0  0  0
  4 18  2  0  0  0  0
  5 20  1  0  0  0  0
  6 22  1  0  0  0  0
  7 11  2  0  0  0  0
  7 21  1  0  0  0  0
  8 13  2  0  0  0  0
  8 24  1  0  0  0  0
  9 26  1  0  0  0  0
 10 26  2  0  0  0  0
 11 27  1  0  0  0  0
 12 14  2  0  0  0  0
 12 28  1  0  0  0  0
 13 29  1  0  0  0  0
 14 30  1  0  0  0  0
 15 23  1  0  0  0  0
 15 27  2  0  0  0  0
 16 25  1  0  0  0  0
 16 29  2  0  0  0  0
 17 30  2  0  0  0  0
 17 31  1  0  0  0  0
 18 32  1  0  0  0  0
 19 32  1  0  0  0  0
 19 33  2  0  0  0  0
 19 34  1  0  0  0  0
 20 22  2  0  0  0  0
 20 41  1  0  0  0  0
 21 23  2  0  0  0  0
 21 42  1  0  0  0  0
 22 50  1  0  0  0  0
 23 43  1  0  0  0  0
 24 25  2  0  0  0  0
 24 71  1  0  0  0  0
 25 70  1  0  0  0  0
 26 82  1  0  0  0  0
 27 83  1  0  0  0  0
 28 31  2  0  0  0  0
 28 82  1  0  0  0  0
 29 84  1  0  0  0  0
 30 85  1  0  0  0  0
 31 86  1  0  0  0  0
 32 64  2  0  0  0  0
 33 65  1  0  0  0  0
 33 68  1  0  0  0  0
 34 69  1  0  0  0  0
 34 75  2  0  0  0  0
 35 51  1  0  0  0  0
 35 72  1  0  0  0  0
 35 76  2  0  0  0  0
 36 58  1  0  0  0  0
 36 59  1  0  0  0  0
 36 77  2  0  0  0  0
 37 61  1  0  0  0  0
 37 66  1  0  0  0  0
 37 78  2  0  0  0  0
 38 60  1  0  0  0  0
 38 70  1  0  0  0  0
 38 79  2  0  0  0  0
 39 62  1  0  0  0  0
 39 73  1  0  0  0  0
 39 80  2  0  0  0  0
 40 67  1  0  0  0  0
 40 71  1  0  0  0  0
 40 81  2  0  0  0  0
 41 44  1  0  0  0  0
 42 51  1  0  0  0  0
 43 66  1  0  0  0  0
 44 46  1  0  0  0  0
 45 47  1  0  0  0  0
 45 48  1  0  0  0  0
 46 50  1  0  0  0  0
 47 52  1  0  0  0  0
 48 67  1  0  0  0  0
 49 52  1  0  0  0  0
 49 67  1  0  0  0  0
 50 72  1  0  0  0  0
 51 66  1  0  0  0  0
 52 65  1  0  0  0  0
 53 62  1  0  0  0  0
 54 63  1  0  0  0  0
 55 63  1  0  0  0  0
 56 63  1  0  0  0  0
 57 74  1  0  0  0  0
 58 60  1  0  0  0  0
 59 83  1  0  0  0  0
 61 63  1  0  0  0  0
 61 73  1  0  0  0  0
 62 74  1  0  0  0  0
 64 65  1  0  0  0  0
M  CHG  1  74   1
M  ISO  4  40 100  59 101  71 100  83 101
M  END
> <Batch ID>
0166

> <Smiles>
CNC(C)C(=O)NC(C(=O)N1Cc2cc([101O:1][101CH2:1]C(=O)CCC(=O)Nc3cc(F)ccc3[100NH:0][100C:0](=O)N3CCCC(n4nc(-c5ccc(Oc6ccc(F)cc6F)cc5)c(C(N)=O)c4N)C3)ccc2CC1C(=O)NC1CCCc2ccccc21)C(C)(C)C

> <Shape>
0.266

> <Color>
0.070

> <Negative vol penalty>
0.000

$$$$

  -OEChem-04052304083D

 84 92  0     1  0  0  0  0  0999 V2000
  -28.5145  -36.6019   24.1175 C   0  0  0  0  0  0  0  0  0  0  0  0
  -28.8856  -35.4227   23.4795 C   0  0  0  0  0  0  0  0  0  0  0  0
  -32.5649  -18.6316   20.3656 C   0  0  0  0  0  0  0  0  0  0  0  0
  -23.1754  -10.2081   22.1120 C   0  0  0  0  0  0  0  0  0  0  0  0
  -23.9139  -11.5924   23.9493 C   0  0  0  0  0  0  0  0  0  0  0  0
  -27.4301  -36.6077   24.9938 C   0  0  0  0  0  0  0  0  0  0  0  0
  -28.1730  -34.2481   23.7183 C   0  0  0  0  0  0  0  0  0  0  0  0
  -27.0203  -29.7624   19.7113 C   0  0  0  0  0  0  0  0  0  0  0  0
  -31.7432  -19.7551   20.4551 C   0  0  0  0  0  0  0  0  0  0  0  0
  -32.0030  -17.3706   20.1657 C   0  0  0  0  0  0  0  0  0  0  0  0
  -22.4522   -9.4134   23.0014 C   0  0  0  0  0  0  0  0  0  0  0  0
  -23.1907  -10.7977   24.8387 C   0  0  0  0  0  0  0  0  0  0  0  0
  -27.6304  -28.5300   19.4818 C   0  0  0  0  0  0  0  0  0  0  0  0
  -23.0875   -6.9300   25.2044 C   0  0  0  0  0  0  0  0  0  0  0  0
  -23.1833   -5.5459   25.0608 C   0  0  0  0  0  0  0  0  0  0  0  0
  -25.9799  -27.4597   20.8780 C   0  0  0  0  0  0  0  0  0  0  0  0
  -29.7975  -18.3568   20.1450 C   0  0  0  0  0  0  0  0  0  0  0  0
  -20.7993   -5.4193   24.6899 C   0  0  0  0  0  0  0  0  0  0  0  0
  -23.9063  -11.2976   22.5860 C   0  0  0  0  0  0  0  0  0  0  0  0
  -24.1991  -13.2642   20.9877 C   0  0  0  0  0  0  0  0  0  0  0  0
  -26.6979  -35.4347   25.2360 C   0  0  0  0  0  0  0  0  0  0  0  0
  -25.8899  -29.8544   20.5361 C   0  0  0  0  0  0  0  0  0  0  0  0
  -27.0786  -34.2378   24.5996 C   0  0  0  0  0  0  0  0  0  0  0  0
  -25.3558  -28.6940   21.1143 C   0  0  0  0  0  0  0  0  0  0  0  0
  -30.3595  -19.6178   20.3448 C   0  0  0  0  0  0  0  0  0  0  0  0
  -30.6193  -17.2333   20.0555 C   0  0  0  0  0  0  0  0  0  0  0  0
  -22.4599   -9.7082   24.3648 C   0  0  0  0  0  0  0  0  0  0  0  0
  -27.1120  -27.3788   20.0675 C   0  0  0  0  0  0  0  0  0  0  0  0
  -21.8475   -7.5588   25.0909 C   0  0  0  0  0  0  0  0  0  0  0  0
  -22.0393   -4.7905   24.8035 C   0  0  0  0  0  0  0  0  0  0  0  0
  -20.7035   -6.8034   24.8335 C   0  0  0  0  0  0  0  0  0  0  0  0
  -24.6540  -12.1186   21.6678 C   0  0  0  0  0  0  0  0  0  0  0  0
  -25.2795  -13.6745   20.2455 C   0  0  0  0  0  0  0  0  0  0  0  0
  -28.7317  -22.9888   20.6680 C   0  0  0  0  0  0  0  0  0  0  0  0
  -22.9149  -13.9007   21.0238 C   0  0  0  0  0  0  0  0  0  0  0  0
  -28.8211  -24.3172   20.8443 C   0  0  0  0  0  0  0  0  0  0  0  0
  -29.9191  -22.0780   20.6307 C   0  0  0  0  0  0  0  0  0  0  0  0
  -25.2216  -31.3337   23.2690 C   0  0  0  0  0  0  0  0  0  0  0  0
  -22.2257  -30.2399   22.6768 C   0  0  0  0  0  0  0  0  0  0  0  0
  -20.2334  -27.9463   21.1222 C   0  0  0  0  0  0  0  0  0  0  0  0
  -30.7221  -14.7359   19.7408 C   0  0  0  0  0  0  0  0  0  0  0  0
  -25.5624  -35.4795   26.2277 C   0  0  0  0  0  0  0  0  0  0  0  0
  -25.2275  -31.1875   20.7521 C   0  0  0  0  0  0  0  0  0  0  0  0
  -24.1321  -28.7361   21.9914 C   0  0  0  0  0  0  0  0  0  0  0  0
  -24.6281  -34.2756   26.1386 C   0  0  0  0  0  0  0  0  0  0  0  0
  -29.6775  -11.3642   19.2748 C   0  0  0  0  0  0  0  0  0  0  0  0
  -25.4311  -32.9807   26.0664 C   0  0  0  0  0  0  0  0  0  0  0  0
  -28.2400  -11.3541   19.7999 C   0  0  0  0  0  0  0  0  0  0  0  0
  -30.5768  -12.2816   20.1014 C   0  0  0  0  0  0  0  0  0  0  0  0
  -28.6433  -13.6439   20.7904 C   0  0  0  0  0  0  0  0  0  0  0  0
  -26.3151  -32.9489   24.8137 C   0  0  1  0  0  0  0  0  0  0  0  0
  -24.3862  -31.2375   22.0238 C   0  0  1  0  0  0  0  0  0  0  0  0
  -27.6849  -12.7841   19.9502 C   0  0  2  0  0  0  0  0  0  0  0  0
  -17.8272  -27.2853   20.8568 C   0  0  0  0  0  0  0  0  0  0  0  0
  -22.2587  -29.0079   25.4681 C   0  0  0  0  0  0  0  0  0  0  0  0
  -20.2988  -27.6029   24.7953 C   0  0  0  0  0  0  0  0  0  0  0  0
  -20.0956  -30.0889   24.8304 C   0  0  0  0  0  0  0  0  0  0  0  0
  -20.3103  -28.4014   18.1989 C   0  0  0  0  0  0  0  0  0  0  0  0
  -27.6104  -25.2020   20.8854 C   0  0  0  0  0  0  0  0  0  1  0  0
  -21.4608  -28.9825   23.0127 C   0  0  1  0  0  0  0  0  0  0  0  0
  -18.9747  -28.1058   20.2887 C   0  0  2  0  0  0  0  0  0  0  0  0
  -21.0527  -28.9197   24.5117 C   0  0  0  0  0  0  0  0  0  0  0  0
  -25.9243  -11.8201   21.3827 N   0  0  0  0  0  0  0  0  0  0  0  0
  -26.2768  -12.7841   20.5153 N   0  0  0  0  0  0  0  0  0  0  0  0
  -23.5240  -30.0640   22.1776 N   0  0  0  0  0  0  0  0  0  0  0  0
  -29.9895  -13.6197   20.1972 N   0  0  0  0  0  0  0  0  0  0  0  0
  -25.4642  -14.7063   19.3948 N   0  0  0  0  0  0  0  0  0  0  0  0
  -21.9181  -13.3483   21.8397 N   0  0  0  0  0  0  0  0  0  0  0  0
  -29.5256  -20.7595   20.4354 N   0  0  0  0  0  0  0  0  0  0  0  0
  -30.0490  -15.9521   19.8524 N   0  0  0  0  0  0  0  0  0  0  0  0
  -25.5240  -32.6285   23.6449 N   0  0  0  0  0  0  0  0  0  0  0  0
  -20.3366  -28.9284   22.0846 N   0  0  0  0  0  0  0  0  0  0  0  0
  -19.2215  -27.6618   18.8877 N   0  3  0  0  0  0  0  0  0  0  0  0
  -22.6538  -14.9193   20.3399 O   0  0  0  0  0  0  0  0  0  0  0  0
  -31.0603  -22.5033   20.7614 O   0  0  0  0  0  0  0  0  0  0  0  0
  -25.5650  -30.3090   23.8468 O   0  0  0  0  0  0  0  0  0  0  0  0
  -21.6883  -31.3376   22.8442 O   0  0  0  0  0  0  0  0  0  0  0  0
  -21.0422  -27.0389   20.9403 O   0  0  0  0  0  0  0  0  0  0  0  0
  -31.8519  -14.6179   19.2595 O   0  0  0  0  0  0  0  0  0  0  0  0
  -30.0314  -24.9584   21.0192 O   0  0  0  0  0  0  0  0  0  0  0  0
  -21.7541   -8.9331   25.2329 O   0  0  0  0  0  0  0  0  0  0  0  0
  -27.7060  -26.1747   19.8457 O   0  0  0  0  0  0  0  0  0  1  0  0
  -22.1317   -3.4615   24.6641 F   0  0  0  0  0  0  0  0  0  0  0  0
  -19.5097   -7.4020   24.7222 F   0  0  0  0  0  0  0  0  0  0  0  0
  1  2  1  0  0  0  0
  1  6  2  0  0  0  0
  2  7  2  0  0  0  0
  3  9  2  0  0  0  0
  3 10  1  0  0  0  0
  4 11  2  0  0  0  0
  4 19  1  0  0  0  0
  5 12  1  0  0  0  0
  5 19  2  0  0  0  0
  6 21  1  0  0  0  0
  7 23  1  0  0  0  0
  8 13  2  0  0  0  0
  8 22  1  0  0  0  0
  9 25  1  0  0  0  0
 10 26  2  0  0  0  0
 11 27  1  0  0  0  0
 12 27  2  0  0  0  0
 13 28  1  0  0  0  0
 14 15  2  0  0  0  0
 14 29  1  0  0  0  0
 15 30  1  0  0  0  0
 16 24  1  0  0  0  0
 16 28  2  0  0  0  0
 17 25  2  0  0  0  0
 17 26  1  0  0  0  0
 18 30  2  0  0  0  0
 18 31  1  0  0  0  0
 19 32  1  0  0  0  0
 20 32  1  0  0  0  0
 20 33  2  0  0  0  0
 20 35  1  0  0  0  0
 21 23  2  0  0  0  0
 21 42  1  0  0  0  0
 22 24  2  0  0  0  0
 22 43  1  0  0  0  0
 23 51  1  0  0  0  0
 24 44  1  0  0  0  0
 25 69  1  0  0  0  0
 26 70  1  0  0  0  0
 27 81  1  0  0  0  0
 28 82  1  0  0  0  0
 29 31  2  0  0  0  0
 29 81  1  0  0  0  0
 30 83  1  0  0  0  0
 31 84  1  0  0  0  0
 32 63  2  0  0  0  0
 33 64  1  0  0  0  0
 33 67  1  0  0  0  0
 34 36  2  0  0  0  0
 34 37  1  0  0  0  0
 35 68  1  0  0  0  0
 35 74  2  0  0  0  0
 36 59  1  0  0  0  0
 36 80  1  0  0  0  0
 37 69  1  0  0  0  0
 37 75  2  0  0  0  0
 38 52  1  0  0  0  0
 38 71  1  0  0  0  0
 38 76  2  0  0  0  0
 39 60  1  0  0  0  0
 39 65  1  0  0  0  0
 39 77  2  0  0  0  0
 40 61  1  0  0  0  0
 40 72  1  0  0  0  0
 40 78  2  0  0  0  0
 41 66  1  0  0  0  0
 41 70  1  0  0  0  0
 41 79  2  0  0  0  0
 42 45  1  0  0  0  0
 43 52  1  0  0  0  0
 44 65  1  0  0  0  0
 45 47  1  0  0  0  0
 46 48  1  0  0  0  0
 46 49  1  0  0  0  0
 47 51  1  0  0  0  0
 48 53  1  0  0  0  0
 49 66  1  0  0  0  0
 50 53  1  0  0  0  0
 50 66  1  0  0  0  0
 51 71  1  0  0  0  0
 52 65  1  0  0  0  0
 53 64  1  0  0  0  0
 54 61  1  0  0  0  0
 55 62  1  0  0  0  0
 56 62  1  0  0  0  0
 57 62  1  0  0  0  0
 58 73  1  0  0  0  0
 59 82  1  0  0  0  0
 60 62  1  0  0  0  0
 60 72  1  0  0  0  0
 61 73  1  0  0  0  0
 63 64  1  0  0  0  0
M  CHG  1  73   1
M  ISO  4  41 100  59 101  70 100  82 101
M  END
> <Batch ID>
0166

> <Smiles>
CNC(C)C(=O)NC(C(=O)N1Cc2cc([101O:1][101CH2:1]C(=O)CC(=O)Nc3cccc([100NH:0][100C:0](=O)N4CCCC(n5nc(-c6ccc(Oc7ccc(F)cc7F)cc6)c(C(N)=O)c5N)C4)c3)ccc2CC1C(=O)NC1CCCc2ccccc21)C(C)(C)C

> <Shape>
0.345

> <Color>
0.143

> <Negative vol penalty>
0.000

$$$$

  -OEChem-04052304082D

  0  0  0     0  0  0  0  0  0999 V2000
M  END
$$$$

  -OEChem-04052304083D

 89 97  0     1  0  0  0  0  0999 V2000
  -17.9995  -26.1855   25.1700 C   0  0  0  0  0  0  0  0  0  0  0  0
  -19.2324  -26.2632   24.5302 C   0  0  0  0  0  0  0  0  0  0  0  0
  -24.6077   -9.1168   22.2710 C   0  0  0  0  0  0  0  0  0  0  0  0
  -23.7308  -10.2644   20.3342 C   0  0  0  0  0  0  0  0  0  0  0  0
  -17.0743  -27.2185   25.0259 C   0  0  0  0  0  0  0  0  0  0  0  0
  -19.5404  -27.3737   23.7450 C   0  0  0  0  0  0  0  0  0  0  0  0
  -24.2168  -29.1195   24.5980 C   0  0  0  0  0  0  0  0  0  0  0  0
  -23.5433   -8.2169   22.2197 C   0  0  0  0  0  0  0  0  0  0  0  0
  -22.6664   -9.3644   20.2829 C   0  0  0  0  0  0  0  0  0  0  0  0
  -25.2732  -28.4223   24.0135 C   0  0  0  0  0  0  0  0  0  0  0  0
  -22.6787   -5.4807   20.4311 C   0  0  0  0  0  0  0  0  0  0  0  0
  -22.9683   -4.1249   20.5842 C   0  0  0  0  0  0  0  0  0  0  0  0
  -30.1479  -18.6601   17.6281 C   0  0  0  0  0  0  0  0  0  0  0  0
  -25.3785  -30.0689   22.2538 C   0  0  0  0  0  0  0  0  0  0  0  0
  -28.8438  -19.5814   19.9157 C   0  0  0  0  0  0  0  0  0  0  0  0
  -21.5425   -4.0404   22.5328 C   0  0  0  0  0  0  0  0  0  0  0  0
  -24.7015  -10.1407   21.3283 C   0  0  0  0  0  0  0  0  0  0  0  0
  -29.9333  -20.0268   17.8058 C   0  0  0  0  0  0  0  0  0  0  0  0
  -27.0493  -10.9486   20.7429 C   0  0  0  0  0  0  0  0  0  0  0  0
  -17.3748  -28.3466   24.2463 C   0  0  0  0  0  0  0  0  0  0  0  0
  -23.7253  -30.2928   24.0078 C   0  0  0  0  0  0  0  0  0  0  0  0
  -18.6178  -28.4221   23.5892 C   0  0  0  0  0  0  0  0  0  0  0  0
  -24.3174  -30.7806   22.8341 C   0  0  0  0  0  0  0  0  0  0  0  0
  -29.2813  -20.4875   18.9496 C   0  0  0  0  0  0  0  0  0  0  0  0
  -29.0583  -18.2146   19.7379 C   0  0  0  0  0  0  0  0  0  0  0  0
  -22.5727   -8.3406   21.2257 C   0  0  0  0  0  0  0  0  0  0  0  0
  -25.8523  -28.8954   22.8397 C   0  0  0  0  0  0  0  0  0  0  0  0
  -21.8211   -6.1165   21.3289 C   0  0  0  0  0  0  0  0  0  0  0  0
  -22.4001   -3.4047   21.6350 C   0  0  0  0  0  0  0  0  0  0  0  0
  -29.7103  -17.7539   18.5941 C   0  0  0  0  0  0  0  0  0  0  0  0
  -21.2530   -5.3963   22.3797 C   0  0  0  0  0  0  0  0  0  0  0  0
  -25.8005  -11.0710   21.3811 C   0  0  0  0  0  0  0  0  0  0  0  0
  -27.7326  -12.0837   21.1050 C   0  0  0  0  0  0  0  0  0  0  0  0
  -30.4009  -20.9471   16.7769 C   0  0  0  0  0  0  0  0  0  0  0  0
  -27.5471   -9.9025   19.8982 C   0  0  0  0  0  0  0  0  0  0  0  0
  -20.9321  -31.1872   22.7823 C   0  0  0  0  0  0  0  0  0  0  0  0
  -28.3143  -23.8971   20.1882 C   0  0  0  0  0  0  0  0  0  0  0  0
  -27.5623  -26.1144   21.2701 C   0  0  0  0  0  0  0  0  0  0  0  0
  -22.3933  -34.0752   22.5667 C   0  0  0  0  0  0  0  0  0  0  0  0
  -25.3073  -35.8397   22.3618 C   0  0  0  0  0  0  0  0  0  0  0  0
  -27.9511  -17.5885   21.9124 C   0  0  0  0  0  0  0  0  0  0  0  0
  -16.3243  -29.4162   24.0819 C   0  0  0  0  0  0  0  0  0  0  0  0
  -22.6027  -31.0478   24.6653 C   0  0  0  0  0  0  0  0  0  0  0  0
  -23.8400  -32.0463   22.1719 C   0  0  0  0  0  0  0  0  0  0  0  0
  -16.8742  -30.7312   23.5356 C   0  0  0  0  0  0  0  0  0  0  0  0
  -26.6588  -15.6091   24.5749 C   0  0  0  0  0  0  0  0  0  0  0  0
  -17.7891  -30.4728   22.3427 C   0  0  0  0  0  0  0  0  0  0  0  0
  -26.4230  -14.2419   23.9288 C   0  0  0  0  0  0  0  0  0  0  0  0
  -26.3432  -16.7530   23.6128 C   0  0  0  0  0  0  0  0  0  0  0  0
  -26.7859  -15.3087   21.6667 C   0  0  0  0  0  0  0  0  0  0  0  0
  -18.9984  -29.6218   22.7490 C   0  0  1  0  0  0  0  0  0  0  0  0
  -21.8444  -31.9523   23.6988 C   0  0  1  0  0  0  0  0  0  0  0  0
  -27.1523  -14.1245   22.5761 C   0  0  2  0  0  0  0  0  0  0  0  0
  -31.6122  -20.5447   15.9896 C   0  0  0  0  0  0  0  0  0  0  0  0
  -26.1809  -38.1834   22.1589 C   0  0  0  0  0  0  0  0  0  0  0  0
  -21.6271  -34.1024   19.6134 C   0  0  0  0  0  0  0  0  0  0  0  0
  -23.2985  -35.9342   19.2684 C   0  0  0  0  0  0  0  0  0  0  0  0
  -21.3498  -36.2953   20.7833 C   0  0  0  0  0  0  0  0  0  0  0  0
  -26.7536  -35.6474   24.9368 C   0  0  0  0  0  0  0  0  0  0  0  0
  -27.6370  -24.6025   21.3477 C   0  0  0  0  0  0  0  0  0  0  0  0
  -28.3913  -22.3877   20.2997 C   0  0  0  0  0  0  0  0  0  0  0  0
  -26.9145  -26.8024   22.4562 C   0  0  0  0  0  0  0  0  0  1  0  0
  -23.2297  -34.7749   21.5228 C   0  0  1  0  0  0  0  0  0  0  0  0
  -25.7989  -37.0633   23.1139 C   0  0  2  0  0  0  0  0  0  0  0  0
  -22.3842  -35.2518   20.3081 C   0  0  0  0  0  0  0  0  0  0  0  0
  -25.6940  -12.1951   22.0946 N   0  0  0  0  0  0  0  0  0  0  0  0
  -26.8847  -12.7893   21.9071 N   0  0  0  0  0  0  0  0  0  0  0  0
  -22.7356  -32.7453   22.8496 N   0  0  0  0  0  0  0  0  0  0  0  0
  -27.0725  -16.5771   22.3551 N   0  0  0  0  0  0  0  0  0  0  0  0
  -28.9701  -12.5370   20.8124 N   0  0  0  0  0  0  0  0  0  0  0  0
  -26.7138   -8.8083   19.6281 N   0  0  0  0  0  0  0  0  0  0  0  0
  -28.6135  -17.2959   20.7207 N   0  0  0  0  0  0  0  0  0  0  0  0
  -29.0577  -21.8429   19.1445 N   0  0  0  0  0  0  0  0  0  0  0  0
  -19.9784  -30.4331   23.4389 N   0  0  0  0  0  0  0  0  0  0  0  0
  -23.9361  -35.8463   22.2166 N   0  0  0  0  0  0  0  0  0  0  0  0
  -26.9928  -36.7201   23.9372 N   0  3  0  0  0  0  0  0  0  0  0  0
  -29.8781  -22.0295   16.5112 O   0  0  0  0  0  0  0  0  0  0  0  0
  -28.7027   -9.9290   19.4111 O   0  0  0  0  0  0  0  0  0  0  0  0
  -21.0815  -31.2756   21.5692 O   0  0  0  0  0  0  0  0  0  0  0  0
  -28.8035  -24.5118   19.2415 O   0  0  0  0  0  0  0  0  0  0  0  0
  -27.9638  -26.7495   20.2965 O   0  0  0  0  0  0  0  0  0  0  0  0
  -21.4748  -34.6883   23.1163 O   0  0  0  0  0  0  0  0  0  0  0  0
  -26.0642  -34.9673   21.9418 O   0  0  0  0  0  0  0  0  0  0  0  0
  -28.1251  -18.6253   22.5581 O   0  0  0  0  0  0  0  0  0  0  0  0
  -21.5340   -7.4624   21.1752 O   0  0  0  0  0  0  0  0  0  0  0  0
  -26.8832  -28.2164   22.2668 O   0  0  0  0  0  0  0  0  0  1  0  0
  -22.6771   -2.1023   21.7810 F   0  0  0  0  0  0  0  0  0  0  0  0
  -29.9213  -16.4425   18.4125 F   0  0  0  0  0  0  0  0  0  0  0  0
  -20.4274   -6.0013   23.2447 F   0  0  0  0  0  0  0  0  0  0  0  0
  1  2  1  0  0  0  0
  1  5  2  0  0  0  0
  2  6  2  0  0  0  0
  3  8  2  0  0  0  0
  3 17  1  0  0  0  0
  4  9  1  0  0  0  0
  4 17  2  0  0  0  0
  5 20  1  0  0  0  0
  6 22  1  0  0  0  0
  7 10  2  0  0  0  0
  7 21  1  0  0  0  0
  8 26  1  0  0  0  0
  9 26  2  0  0  0  0
 10 27  1  0  0  0  0
 11 12  2  0  0  0  0
 11 28  1  0  0  0  0
 12 29  1  0  0  0  0
 13 18  1  0  0  0  0
 13 30  2  0  0  0  0
 14 23  1  0  0  0  0
 14 27  2  0  0  0  0
 15 24  1  0  0  0  0
 15 25  2  0  0  0  0
 16 29  2  0  0  0  0
 16 31  1  0  0  0  0
 17 32  1  0  0  0  0
 18 24  2  0  0  0  0
 18 34  1  0  0  0  0
 19 32  1  0  0  0  0
 19 33  2  0  0  0  0
 19 35  1  0  0  0  0
 20 22  2  0  0  0  0
 20 42  1  0  0  0  0
 21 23  2  0  0  0  0
 21 43  1  0  0  0  0
 22 51  1  0  0  0  0
 23 44  1  0  0  0  0
 24 73  1  0  0  0  0
 25 30  1  0  0  0  0
 25 72  1  0  0  0  0
 26 85  1  0  0  0  0
 27 86  1  0  0  0  0
 28 31  2  0  0  0  0
 28 85  1  0  0  0  0
 29 87  1  0  0  0  0
 30 88  1  0  0  0  0
 31 89  1  0  0  0  0
 32 66  2  0  0  0  0
 33 67  1  0  0  0  0
 33 70  1  0  0  0  0
 34 54  1  0  0  0  0
 34 77  2  0  0  0  0
 35 71  1  0  0  0  0
 35 78  2  0  0  0  0
 36 52  1  0  0  0  0
 36 74  1  0  0  0  0
 36 79  2  0  0  0  0
 37 60  1  0  0  0  0
 37 61  1  0  0  0  0
 37 80  2  0  0  0  0
 38 60  1  0  0  0  0
 38 62  1  0  0  0  0
 38 81  2  0  0  0  0
 39 63  1  0  0  0  0
 39 68  1  0  0  0  0
 39 82  2  0  0  0  0
 40 64  1  0  0  0  0
 40 75  1  0  0  0  0
 40 83  2  0  0  0  0
 41 69  1  0  0  0  0
 41 72  1  0  0  0  0
 41 84  2  0  0  0  0
 42 45  1  0  0  0  0
 43 52  1  0  0  0  0
 44 68  1  0  0  0  0
 45 47  1  0  0  0  0
 46 48  1  0  0  0  0
 46 49  1  0  0  0  0
 47 51  1  0  0  0  0
 48 53  1  0  0  0  0
 49 69  1  0  0  0  0
 50 53  1  0  0  0  0
 50 69  1  0  0  0  0
 51 74  1  0  0  0  0
 52 68  1  0  0  0  0
 53 67  1  0  0  0  0
 55 64  1  0  0  0  0
 56 65  1  0  0  0  0
 57 65  1  0  0  0  0
 58 65  1  0  0  0  0
 59 76  1  0  0  0  0
 61 73  1  0  0  0  0
 62 86  1  0  0  0  0
 63 65  1  0  0  0  0
 63 75  1  0  0  0  0
 64 76  1  0  0  0  0
 66 67  1  0  0  0  0
M  CHG  1  76   1
M  ISO  4  41 100  62 101  72 100  86 101
M  END
> <Batch ID>
0166

> <Smiles>
CNC(C)C(=O)NC(C(=O)N1Cc2cc([101O:1][101CH2:1]C(=O)CC(=O)CNc3cc([100NH:0][100C:0](=O)N4CCCC(n5nc(-c6ccc(Oc7ccc(F)cc7F)cc6)c(C(N)=O)c5N)C4)c(F)cc3C(C)=O)ccc2CC1C(=O)NC1CCCc2ccccc21)C(C)(C)C

> <Shape>
0.263

> <Color>
0.094

> <Negative vol penalty>
0.000

$$$$

  -OEChem-04052304083D

 89 97  0     1  0  0  0  0  0999 V2000
  -17.7079  -25.8604   22.8375 C   0  0  0  0  0  0  0  0  0  0  0  0
  -18.6988  -25.7921   21.8635 C   0  0  0  0  0  0  0  0  0  0  0  0
  -26.7786  -13.6153   21.0785 C   0  0  0  0  0  0  0  0  0  0  0  0
  -27.1335  -13.3848   18.6999 C   0  0  0  0  0  0  0  0  0  0  0  0
  -17.4489  -27.0687   23.4833 C   0  0  0  0  0  0  0  0  0  0  0  0
  -19.4306  -26.9324   21.5338 C   0  0  0  0  0  0  0  0  0  0  0  0
  -25.3278  -27.1773   19.8999 C   0  0  0  0  0  0  0  0  0  0  0  0
  -26.1742  -12.3586   21.1102 C   0  0  0  0  0  0  0  0  0  0  0  0
  -26.5292  -12.1281   18.7315 C   0  0  0  0  0  0  0  0  0  0  0  0
  -25.9542  -27.2560   18.6569 C   0  0  0  0  0  0  0  0  0  0  0  0
  -24.2145   -9.3637   21.7531 C   0  0  0  0  0  0  0  0  0  0  0  0
  -23.0293   -9.2304   22.4763 C   0  0  0  0  0  0  0  0  0  0  0  0
  -26.1082  -29.6518   18.8930 C   0  0  0  0  0  0  0  0  0  0  0  0
  -27.2252  -22.2692   14.6891 C   0  0  0  0  0  0  0  0  0  0  0  0
  -27.3413  -20.0278   13.7951 C   0  0  0  0  0  0  0  0  0  0  0  0
  -21.9806  -10.8854   21.0627 C   0  0  0  0  0  0  0  0  0  0  0  0
  -27.2582  -14.1285   19.8734 C   0  0  0  0  0  0  0  0  0  0  0  0
  -28.1973  -21.8865   12.5107 C   0  0  0  0  0  0  0  0  0  0  0  0
  -29.2481  -15.7183   20.0154 C   0  0  0  0  0  0  0  0  0  0  0  0
  -18.1845  -28.2221   23.1683 C   0  0  0  0  0  0  0  0  0  0  0  0
  -25.0767  -28.3383   20.6452 C   0  0  0  0  0  0  0  0  0  0  0  0
  -19.1803  -28.1575   22.1750 C   0  0  0  0  0  0  0  0  0  0  0  0
  -25.4808  -29.5848   20.1464 C   0  0  0  0  0  0  0  0  0  0  0  0
  -26.9785  -20.9025   14.8192 C   0  0  0  0  0  0  0  0  0  0  0  0
  -27.8346  -22.7612   13.5348 C   0  0  0  0  0  0  0  0  0  0  0  0
  -26.0495  -11.6150   19.9367 C   0  0  0  0  0  0  0  0  0  0  0  0
  -26.3419  -28.4937   18.1519 C   0  0  0  0  0  0  0  0  0  0  0  0
  -24.2829  -10.2579   20.6847 C   0  0  0  0  0  0  0  0  0  0  0  0
  -21.9123   -9.9912   22.1311 C   0  0  0  0  0  0  0  0  0  0  0  0
  -27.9507  -20.5197   12.6408 C   0  0  0  0  0  0  0  0  0  0  0  0
  -23.1659  -11.0188   20.3395 C   0  0  0  0  0  0  0  0  0  0  0  0
  -27.8821  -15.4268   19.8400 C   0  0  0  0  0  0  0  0  0  0  0  0
  -29.3261  -17.0842   19.8938 C   0  0  0  0  0  0  0  0  0  0  0  0
  -28.8369  -22.3727   11.2946 C   0  0  0  0  0  0  0  0  0  0  0  0
  -30.3482  -14.8336   20.2657 C   0  0  0  0  0  0  0  0  0  0  0  0
  -28.1208  -26.4626   13.9905 C   0  0  0  0  0  0  0  0  0  0  0  0
  -27.8357  -27.6296   14.9156 C   0  0  0  0  0  0  0  0  0  0  0  0
  -22.4623  -29.7927   21.7191 C   0  0  0  0  0  0  0  0  0  0  0  0
  -24.6131  -31.7158   23.2016 C   0  0  0  0  0  0  0  0  0  0  0  0
  -27.7759  -32.9947   23.2934 C   0  0  0  0  0  0  0  0  0  0  0  0
  -25.9349  -21.1341   17.1003 C   0  0  0  0  0  0  0  0  0  0  0  0
  -17.8363  -29.5165   23.8596 C   0  0  0  0  0  0  0  0  0  0  0  0
  -24.4240  -28.2337   21.9964 C   0  0  0  0  0  0  0  0  0  0  0  0
  -25.2524  -30.8590   20.9163 C   0  0  0  0  0  0  0  0  0  0  0  0
  -18.9114  -30.5909   23.7181 C   0  0  0  0  0  0  0  0  0  0  0  0
  -26.7391  -21.0576   20.5680 C   0  0  0  0  0  0  0  0  0  0  0  0
  -19.3834  -30.6864   22.2707 C   0  0  0  0  0  0  0  0  0  0  0  0
  -27.2535  -19.6333   20.7895 C   0  0  0  0  0  0  0  0  0  0  0  0
  -25.5909  -21.0957   19.5611 C   0  0  0  0  0  0  0  0  0  0  0  0
  -26.3859  -19.0213   18.4961 C   0  0  0  0  0  0  0  0  0  0  0  0
  -20.0124  -29.3669   21.8074 C   0  0  1  0  0  0  0  0  0  0  0  0
  -23.7551  -29.5315   22.4388 C   0  0  1  0  0  0  0  0  0  0  0  0
  -27.5860  -18.9401   19.4536 C   0  0  2  0  0  0  0  0  0  0  0  0
  -28.4147  -23.2156    8.9241 C   0  0  0  0  0  0  0  0  0  0  0  0
  -29.2262  -34.5709   24.6009 C   0  0  0  0  0  0  0  0  0  0  0  0
  -23.1917  -34.0885   21.9133 C   0  0  0  0  0  0  0  0  0  0  0  0
  -25.1926  -35.4923   22.4555 C   0  0  0  0  0  0  0  0  0  0  0  0
  -23.8703  -34.4460   24.2937 C   0  0  0  0  0  0  0  0  0  0  0  0
  -29.6840  -30.8431   23.9924 C   0  0  0  0  0  0  0  0  0  0  0  0
  -28.1357  -22.1303    9.9522 C   0  0  0  0  0  0  0  0  0  0  0  0
  -27.7224  -25.0820   14.4442 C   0  0  0  0  0  0  0  0  0  0  0  0
  -27.1656  -27.3493   16.2368 C   0  0  0  0  0  0  0  0  0  1  0  0
  -25.3372  -32.9896   22.8380 C   0  0  1  0  0  0  0  0  0  0  0  0
  -28.7757  -33.1287   24.4278 C   0  0  2  0  0  0  0  0  0  0  0  0
  -24.4007  -34.2305   22.8595 C   0  0  0  0  0  0  0  0  0  0  0  0
  -27.1453  -16.5197   19.6236 N   0  0  0  0  0  0  0  0  0  0  0  0
  -28.0516  -17.5112   19.6623 N   0  0  0  0  0  0  0  0  0  0  0  0
  -24.6050  -30.7054   22.2296 N   0  0  0  0  0  0  0  0  0  0  0  0
  -25.9798  -20.4243   18.3189 N   0  0  0  0  0  0  0  0  0  0  0  0
  -30.3598  -17.9497   19.9635 N   0  0  0  0  0  0  0  0  0  0  0  0
  -30.0917  -13.4590   20.3614 N   0  0  0  0  0  0  0  0  0  0  0  0
  -26.3584  -20.4027   15.9911 N   0  0  0  0  0  0  0  0  0  0  0  0
  -28.0711  -24.1231   13.4251 N   0  0  0  0  0  0  0  0  0  0  0  0
  -21.3553  -29.2359   22.3307 N   0  0  0  0  0  0  0  0  0  0  0  0
  -26.4761  -33.0848   23.7448 N   0  0  0  0  0  0  0  0  0  0  0  0
  -29.9779  -32.2896   24.1605 N   0  3  0  0  0  0  0  0  0  0  0  0
  -29.9232  -22.9727   11.2997 O   0  0  0  0  0  0  0  0  0  0  0  0
  -31.5214  -15.2511   20.4169 O   0  0  0  0  0  0  0  0  0  0  0  0
  -28.6635  -26.7183   12.9229 O   0  0  0  0  0  0  0  0  0  0  0  0
  -28.1659  -28.7452   14.5344 O   0  0  0  0  0  0  0  0  0  0  0  0
  -22.4684  -30.4520   20.6862 O   0  0  0  0  0  0  0  0  0  0  0  0
  -24.0806  -31.6182   24.3100 O   0  0  0  0  0  0  0  0  0  0  0  0
  -28.1142  -32.8304   22.1233 O   0  0  0  0  0  0  0  0  0  0  0  0
  -25.5751  -22.3130   17.0489 O   0  0  0  0  0  0  0  0  0  0  0  0
  -25.4601  -10.3886   19.9672 O   0  0  0  0  0  0  0  0  0  0  0  0
  -26.9530  -28.5734   16.9386 O   0  0  0  0  0  0  0  0  0  1  0  0
  -20.7738   -9.8620   22.8247 F   0  0  0  0  0  0  0  0  0  0  0  0
  -28.2957  -19.6688   11.6639 F   0  0  0  0  0  0  0  0  0  0  0  0
  -23.2252  -11.8787   19.3134 F   0  0  0  0  0  0  0  0  0  0  0  0
  1  2  1  0  0  0  0
  1  5  2  0  0  0  0
  2  6  2  0  0  0  0
  3  8  2  0  0  0  0
  3 17  1  0  0  0  0
  4  9  1  0  0  0  0
  4 17  2  0  0  0  0
  5 20  1  0  0  0  0
  6 22  1  0  0  0  0
  7 10  2  0  0  0  0
  7 21  1  0  0  0  0
  8 26  1  0  0  0  0
  9 26  2  0  0  0  0
 10 27  1  0  0  0  0
 11 12  2  0  0  0  0
 11 28  1  0  0  0  0
 12 29  1  0  0  0  0
 13 23  1  0  0  0  0
 13 27  2  0  0  0  0
 14 24  2  0  0  0  0
 14 25  1  0  0  0  0
 15 24  1  0  0  0  0
 15 30  2  0  0  0  0
 16 29  2  0  0  0  0
 16 31  1  0  0  0  0
 17 32  1  0  0  0  0
 18 25  2  0  0  0  0
 18 30  1  0  0  0  0
 18 34  1  0  0  0  0
 19 32  1  0  0  0  0
 19 33  2  0  0  0  0
 19 35  1  0  0  0  0
 20 22  2  0  0  0  0
 20 42  1  0  0  0  0
 21 23  2  0  0  0  0
 21 43  1  0  0  0  0
 22 51  1  0  0  0  0
 23 44  1  0  0  0  0
 24 72  1  0  0  0  0
 25 73  1  0  0  0  0
 26 85  1  0  0  0  0
 27 86  1  0  0  0  0
 28 31  2  0  0  0  0
 28 85  1  0  0  0  0
 29 87  1  0  0  0  0
 30 88  1  0  0  0  0
 31 89  1  0  0  0  0
 32 66  2  0  0  0  0
 33 67  1  0  0  0  0
 33 70  1  0  0  0  0
 34 60  1  0  0  0  0
 34 77  2  0  0  0  0
 35 71  1  0  0  0  0
 35 78  2  0  0  0  0
 36 37  1  0  0  0  0
 36 61  1  0  0  0  0
 36 79  2  0  0  0  0
 37 62  1  0  0  0  0
 37 80  2  0  0  0  0
 38 52  1  0  0  0  0
 38 74  1  0  0  0  0
 38 81  2  0  0  0  0
 39 63  1  0  0  0  0
 39 68  1  0  0  0  0
 39 82  2  0  0  0  0
 40 64  1  0  0  0  0
 40 75  1  0  0  0  0
 40 83  2  0  0  0  0
 41 69  1  0  0  0  0
 41 72  1  0  0  0  0
 41 84  2  0  0  0  0
 42 45  1  0  0  0  0
 43 52  1  0  0  0  0
 44 68  1  0  0  0  0
 45 47  1  0  0  0  0
 46 48  1  0  0  0  0
 46 49  1  0  0  0  0
 47 51  1  0  0  0  0
 48 53  1  0  0  0  0
 49 69  1  0  0  0  0
 50 53  1  0  0  0  0
 50 69  1  0  0  0  0
 51 74  1  0  0  0  0
 52 68  1  0  0  0  0
 53 67  1  0  0  0  0
 54 60  1  0  0  0  0
 55 64  1  0  0  0  0
 56 65  1  0  0  0  0
 57 65  1  0  0  0  0
 58 65  1  0  0  0  0
 59 76  1  0  0  0  0
 61 73  1  0  0  0  0
 62 86  1  0  0  0  0
 63 65  1  0  0  0  0
 63 75  1  0  0  0  0
 64 76  1  0  0  0  0
 66 67  1  0  0  0  0
M  CHG  1  76   1
M  ISO  4  41 100  62 101  72 100  86 101
M  END
> <Batch ID>
0166

> <Smiles>
CCC(=O)c1c(F)cc([100NH:0][100C:0](=O)N2CCCC(n3nc(-c4ccc(Oc5ccc(F)cc5F)cc4)c(C(N)=O)c3N)C2)cc1NCC(=O)C(=O)[101CH2:1][101O:1]c1ccc2c(c1)CN(C(=O)C(NC(=O)C(C)NC)C(C)(C)C)C(C(=O)NC1CCCc3ccccc31)C2

> <Shape>
0.263

> <Color>
0.101

> <Negative vol penalty>
0.000

$$$$

  -OEChem-04052304083D

 91 99  0     1  0  0  0  0  0999 V2000
  -30.1039  -11.8977   19.9439 C   0  0  0  0  0  0  0  0  0  0  0  0
  -30.1118  -13.2159   20.3886 C   0  0  0  0  0  0  0  0  0  0  0  0
  -29.4747  -25.8778   20.1000 C   0  0  0  0  0  0  0  0  0  0  0  0
  -27.7236  -24.2944   20.6131 C   0  0  0  0  0  0  0  0  0  0  0  0
  -18.7423  -26.5507   22.3771 C   0  0  0  0  0  0  0  0  0  0  0  0
  -29.0507  -11.4354   19.1558 C   0  0  0  0  0  0  0  0  0  0  0  0
  -29.0670  -14.0729   20.0445 C   0  0  0  0  0  0  0  0  0  0  0  0
  -26.6995  -18.5560   23.4800 C   0  0  0  0  0  0  0  0  0  0  0  0
  -30.4267  -24.9839   20.5902 C   0  0  0  0  0  0  0  0  0  0  0  0
  -28.6755  -23.4004   21.1032 C   0  0  0  0  0  0  0  0  0  0  0  0
  -26.9078  -19.9345   23.4968 C   0  0  0  0  0  0  0  0  0  0  0  0
  -30.9086  -21.2014   19.8390 C   0  0  0  0  0  0  0  0  0  0  0  0
  -17.7819  -27.5557   22.2624 C   0  0  0  0  0  0  0  0  0  0  0  0
  -30.7993  -19.8651   19.4542 C   0  0  0  0  0  0  0  0  0  0  0  0
  -24.9721  -20.2380   22.0896 C   0  0  0  0  0  0  0  0  0  0  0  0
  -19.5172  -29.2305   22.4068 C   0  0  0  0  0  0  0  0  0  0  0  0
  -30.5685  -19.2170   21.7702 C   0  0  0  0  0  0  0  0  0  0  0  0
  -28.1231  -25.5331   20.1116 C   0  0  0  0  0  0  0  0  0  0  0  0
  -20.0902  -26.8856   22.5067 C   0  0  0  0  0  0  0  0  0  0  0  0
  -26.6642  -26.5530   18.2842 C   0  0  0  0  0  0  0  0  0  0  0  0
  -27.9877  -12.2845   18.8099 C   0  0  0  0  0  0  0  0  0  0  0  0
  -25.6306  -18.0065   22.7577 C   0  0  0  0  0  0  0  0  0  0  0  0
  -27.9993  -13.6219   19.2500 C   0  0  0  0  0  0  0  0  0  0  0  0
  -24.7510  -18.8525   22.0673 C   0  0  0  0  0  0  0  0  0  0  0  0
  -20.4776  -28.2255   22.5216 C   0  0  0  0  0  0  0  0  0  0  0  0
  -30.0271  -23.7452   21.0918 C   0  0  0  0  0  0  0  0  0  0  0  0
  -26.0458  -20.7755   22.7992 C   0  0  0  0  0  0  0  0  0  0  0  0
  -30.8479  -21.5454   21.1895 C   0  0  0  0  0  0  0  0  0  0  0  0
  -18.1693  -28.8956   22.2772 C   0  0  0  0  0  0  0  0  0  0  0  0
  -30.6292  -18.8729   20.4198 C   0  0  0  0  0  0  0  0  0  0  0  0
  -30.6778  -20.5533   22.1550 C   0  0  0  0  0  0  0  0  0  0  0  0
  -27.1392  -26.4563   19.6059 C   0  0  0  0  0  0  0  0  0  0  0  0
  -25.7489  -27.5763   18.3223 C   0  0  0  0  0  0  0  0  0  0  0  0
  -21.0872  -25.8028   22.6263 C   0  0  0  0  0  0  0  0  0  0  0  0
  -27.0187  -25.7863   17.1257 C   0  0  0  0  0  0  0  0  0  0  0  0
  -25.3765  -16.0014   20.3044 C   0  0  0  0  0  0  0  0  0  0  0  0
  -25.3195  -24.2772   23.4113 C   0  0  0  0  0  0  0  0  0  0  0  0
  -22.2063  -16.2229   20.9547 C   0  0  0  0  0  0  0  0  0  0  0  0
  -19.6480  -18.0203   22.3226 C   0  0  0  0  0  0  0  0  0  0  0  0
  -22.3747  -29.8749   22.6854 C   0  0  0  0  0  0  0  0  0  0  0  0
  -26.8950  -11.7528   17.9166 C   0  0  0  0  0  0  0  0  0  0  0  0
  -25.4039  -16.5196   22.7715 C   0  0  0  0  0  0  0  0  0  0  0  0
  -23.5765  -18.3141   21.2932 C   0  0  0  0  0  0  0  0  0  0  0  0
  -25.6389  -12.6202   17.9084 C   0  0  0  0  0  0  0  0  0  0  0  0
  -24.7483  -31.6196   20.6856 C   0  0  0  0  0  0  0  0  0  0  0  0
  -26.0074  -14.0917   17.7476 C   0  0  0  0  0  0  0  0  0  0  0  0
  -25.5837  -30.5021   20.0567 C   0  0  0  0  0  0  0  0  0  0  0  0
  -24.3410  -31.2849   22.1194 C   0  0  0  0  0  0  0  0  0  0  0  0
  -24.5089  -28.8705   21.6597 C   0  0  0  0  0  0  0  0  0  0  0  0
  -26.8717  -14.5751   18.9184 C   0  0  1  0  0  0  0  0  0  0  0  0
  -24.5852  -16.0289   21.5814 C   0  0  1  0  0  0  0  0  0  0  0  0
  -24.8881  -29.1335   20.1931 C   0  0  2  0  0  0  0  0  0  0  0  0
  -17.1629  -17.9617   22.6666 C   0  0  0  0  0  0  0  0  0  0  0  0
  -22.1712  -23.5157   27.6713 C   0  0  0  0  0  0  0  0  0  0  0  0
  -21.9566  -22.1677   25.5699 C   0  0  0  0  0  0  0  0  0  0  0  0
  -20.5543  -24.2058   25.8991 C   0  0  0  0  0  0  0  0  0  0  0  0
  -21.7857  -16.9734   18.0273 C   0  0  0  0  0  0  0  0  0  0  0  0
  -19.5077  -17.8108   18.6416 C   0  0  0  0  0  0  0  0  0  0  0  0
  -20.0764  -15.4026   18.9574 C   0  0  0  0  0  0  0  0  0  0  0  0
  -19.9382  -18.0544   25.2677 C   0  0  0  0  0  0  0  0  0  0  0  0
  -24.1614  -25.2606   23.3360 C   0  0  0  0  0  0  0  0  0  0  0  0
  -25.1089  -22.9588   22.6931 C   0  0  0  0  0  0  0  0  0  1  0  0
  -23.0051  -24.5099   25.4777 C   0  0  0  0  0  0  0  0  0  0  0  0
  -21.0838  -17.1276   20.5071 C   0  0  1  0  0  0  0  0  0  0  0  0
  -18.5215  -17.6181   23.2574 C   0  0  2  0  0  0  0  0  0  0  0  0
  -22.8669  -24.7316   23.9611 C   0  0  1  0  0  0  0  0  0  0  0  0
  -21.9461  -23.5897   26.1507 C   0  0  0  0  0  0  0  0  0  0  0  0
  -20.6366  -16.8389   19.0462 C   0  0  0  0  0  0  0  0  0  0  0  0
  -26.5725  -27.3472   20.4239 N   0  0  0  0  0  0  0  0  0  0  0  0
  -25.7321  -28.0135   19.6141 N   0  0  0  0  0  0  0  0  0  0  0  0
  -23.4007  -16.8529   21.3320 N   0  0  0  0  0  0  0  0  0  0  0  0
  -23.6845  -29.9768   22.1706 N   0  0  0  0  0  0  0  0  0  0  0  0
  -24.9648  -28.1358   17.3764 N   0  0  0  0  0  0  0  0  0  0  0  0
  -21.1835  -24.9247   21.6280 N   0  0  0  0  0  0  0  0  0  0  0  0
  -27.9767  -24.7725   17.2629 N   0  0  0  0  0  0  0  0  0  0  0  0
  -21.8413  -28.5868   22.6536 N   0  0  0  0  0  0  0  0  0  0  0  0
  -26.0517  -14.8156   20.0864 N   0  0  0  0  0  0  0  0  0  0  0  0
  -20.0221  -16.9813   21.4970 N   0  0  0  0  0  0  0  0  0  0  0  0
  -21.8395  -25.7573   23.7288 N   0  3  0  0  0  0  0  0  0  0  0  0
  -18.6571  -18.3211   24.5644 N   0  3  0  0  0  0  0  0  0  0  0  0
  -26.5133  -26.0049   15.9986 O   0  0  0  0  0  0  0  0  0  0  0  0
  -25.3735  -16.9827   19.5704 O   0  0  0  0  0  0  0  0  0  0  0  0
  -26.3540  -24.5185   24.0315 O   0  0  0  0  0  0  0  0  0  0  0  0
  -22.0275  -15.0025   20.9758 O   0  0  0  0  0  0  0  0  0  0  0  0
  -20.1438  -19.1449   22.3222 O   0  0  0  0  0  0  0  0  0  0  0  0
  -21.7605  -30.8625   23.0970 O   0  0  0  0  0  0  0  0  0  0  0  0
  -30.9558  -22.8726   21.5699 O   0  0  0  0  0  0  0  0  0  0  0  0
  -26.2493  -22.1352   22.8136 O   0  0  0  0  0  0  0  0  0  1  0  0
  -17.2467  -29.8603   22.1672 F   0  0  0  0  0  0  0  0  0  0  0  0
  -30.5227  -17.5900   20.0499 F   0  0  0  0  0  0  0  0  0  0  0  0
  -30.6176  -20.8778   23.4538 F   0  0  0  0  0  0  0  0  0  0  0  0
  1  2  1  0  0  0  0
  1  6  2  0  0  0  0
  2  7  2  0  0  0  0
  3  9  2  0  0  0  0
  3 18  1  0  0  0  0
  4 10  1  0  0  0  0
  4 18  2  0  0  0  0
  5 13  2  0  0  0  0
  5 19  1  0  0  0  0
  6 21  1  0  0  0  0
  7 23  1  0  0  0  0
  8 11  2  0  0  0  0
  8 22  1  0  0  0  0
  9 26  1  0  0  0  0
 10 26  2  0  0  0  0
 11 27  1  0  0  0  0
 12 14  2  0  0  0  0
 12 28  1  0  0  0  0
 13 29  1  0  0  0  0
 14 30  1  0  0  0  0
 15 24  1  0  0  0  0
 15 27  2  0  0  0  0
 16 25  1  0  0  0  0
 16 29  2  0  0  0  0
 17 30  2  0  0  0  0
 17 31  1  0  0  0  0
 18 32  1  0  0  0  0
 19 25  2  0  0  0  0
 19 34  1  0  0  0  0
 20 32  1  0  0  0  0
 20 33  2  0  0  0  0
 20 35  1  0  0  0  0
 21 23  2  0  0  0  0
 21 41  1  0  0  0  0
 22 24  2  0  0  0  0
 22 42  1  0  0  0  0
 23 50  1  0  0  0  0
 24 43  1  0  0  0  0
 25 76  1  0  0  0  0
 26 87  1  0  0  0  0
 27 88  1  0  0  0  0
 28 31  2  0  0  0  0
 28 87  1  0  0  0  0
 29 89  1  0  0  0  0
 30 90  1  0  0  0  0
 31 91  1  0  0  0  0
 32 69  2  0  0  0  0
 33 70  1  0  0  0  0
 33 73  1  0  0  0  0
 34 74  1  0  0  0  0
 34 79  2  0  0  0  0
 35 75  1  0  0  0  0
 35 81  2  0  0  0  0
 36 51  1  0  0  0  0
 36 77  1  0  0  0  0
 36 82  2  0  0  0  0
 37 61  1  0  0  0  0
 37 62  1  0  0  0  0
 37 83  2  0  0  0  0
 38 64  1  0  0  0  0
 38 71  1  0  0  0  0
 38 84  2  0  0  0  0
 39 65  1  0  0  0  0
 39 78  1  0  0  0  0
 39 85  2  0  0  0  0
 40 72  1  0  0  0  0
 40 76  1  0  0  0  0
 40 86  2  0  0  0  0
 41 44  1  0  0  0  0
 42 51  1  0  0  0  0
 43 71  1  0  0  0  0
 44 46  1  0  0  0  0
 45 47  1  0  0  0  0
 45 48  1  0  0  0  0
 46 50  1  0  0  0  0
 47 52  1  0  0  0  0
 48 72  1  0  0  0  0
 49 52  1  0  0  0  0
 49 72  1  0  0  0  0
 50 77  1  0  0  0  0
 51 71  1  0  0  0  0
 52 70  1  0  0  0  0
 53 65  1  0  0  0  0
 54 67  1  0  0  0  0
 55 67  1  0  0  0  0
 56 67  1  0  0  0  0
 57 68  1  0  0  0  0
 58 68  1  0  0  0  0
 59 68  1  0  0  0  0
 60 80  1  0  0  0  0
 61 66  1  0  0  0  0
 62 88  1  0  0  0  0
 63 66  1  0  0  0  0
 63 67  1  0  0  0  0
 64 68  1  0  0  0  0
 64 78  1  0  0  0  0
 65 80  1  0  0  0  0
 66 79  1  0  0  0  0
 69 70  1  0  0  0  0
M  CHG  2  79   1  80   1
M  ISO  4  40 100  62 101  76 100  88 101
M  END
> <Batch ID>
0166

> <Smiles>
CNC(C)C(=O)NC(C(=O)N1Cc2cc([101O:1][101CH2:1]C(=O)CC(CC(C)(C)C)NC(=N)c3ccc(F)cc3[100NH:0][100C:0](=O)N3CCCC(n4nc(-c5ccc(Oc6ccc(F)cc6F)cc5)c(C(N)=O)c4N)C3)ccc2CC1C(=O)NC1CCCc2ccccc21)C(C)(C)C

> <Shape>
0.214

> <Color>
0.085

> <Negative vol penalty>
0.000

$$$$

  -OEChem-04052304083D

 84 92  0     1  0  0  0  0  0999 V2000
  -21.4414  -18.4994   19.7344 C   0  0  0  0  0  0  0  0  0  0  0  0
  -22.6419  -18.9989   20.2289 C   0  0  0  0  0  0  0  0  0  0  0  0
  -24.6636   -9.5923   21.6781 C   0  0  0  0  0  0  0  0  0  0  0  0
  -24.7191  -10.8694   23.7282 C   0  0  0  0  0  0  0  0  0  0  0  0
  -20.5763  -19.3366   19.0311 C   0  0  0  0  0  0  0  0  0  0  0  0
  -22.9786  -20.3358   20.0193 C   0  0  0  0  0  0  0  0  0  0  0  0
  -26.0606  -23.9985   23.8392 C   0  0  0  0  0  0  0  0  0  0  0  0
  -24.3640   -8.4396   22.4042 C   0  0  0  0  0  0  0  0  0  0  0  0
  -24.4194   -9.7168   24.4544 C   0  0  0  0  0  0  0  0  0  0  0  0
  -27.3988  -24.3862   23.8916 C   0  0  0  0  0  0  0  0  0  0  0  0
  -23.2289   -5.2318   23.6835 C   0  0  0  0  0  0  0  0  0  0  0  0
  -22.2180   -4.4031   23.1967 C   0  0  0  0  0  0  0  0  0  0  0  0
  -26.8550  -26.4038   22.6862 C   0  0  0  0  0  0  0  0  0  0  0  0
  -20.6384   -6.2220   23.3803 C   0  0  0  0  0  0  0  0  0  0  0  0
  -26.9961  -20.1032   20.7170 C   0  0  0  0  0  0  0  0  0  0  0  0
  -24.8412  -10.8072   22.3401 C   0  0  0  0  0  0  0  0  0  0  0  0
  -24.2386  -12.9189   21.0419 C   0  0  0  0  0  0  0  0  0  0  0  0
  -20.8981  -20.6868   18.8211 C   0  0  0  0  0  0  0  0  0  0  0  0
  -25.1099  -24.8066   23.1993 C   0  0  0  0  0  0  0  0  0  0  0  0
  -22.1177  -21.1915   19.3113 C   0  0  0  0  0  0  0  0  0  0  0  0
  -25.5050  -26.0252   22.6293 C   0  0  0  0  0  0  0  0  0  0  0  0
  -24.2419   -8.5019   23.7923 C   0  0  0  0  0  0  0  0  0  0  0  0
  -27.7967  -25.5876   23.3125 C   0  0  0  0  0  0  0  0  0  0  0  0
  -22.9445   -6.5557   24.0188 C   0  0  0  0  0  0  0  0  0  0  0  0
  -20.9228   -4.8982   23.0451 C   0  0  0  0  0  0  0  0  0  0  0  0
  -21.6493   -7.0507   23.8672 C   0  0  0  0  0  0  0  0  0  0  0  0
  -25.1512  -11.9981   21.5906 C   0  0  0  0  0  0  0  0  0  0  0  0
  -28.1643  -19.4152   20.4642 C   0  0  0  0  0  0  0  0  0  0  0  0
  -25.0281  -13.8635   20.4331 C   0  0  0  0  0  0  0  0  0  0  0  0
  -28.8389  -21.4262   19.9069 C   0  0  0  0  0  0  0  0  0  0  0  0
  -22.8053  -12.9202   21.0793 C   0  0  0  0  0  0  0  0  0  0  0  0
  -23.1760  -24.4468   20.7025 C   0  0  0  0  0  0  0  0  0  0  0  0
  -22.0451  -27.3335   21.6567 C   0  0  0  0  0  0  0  0  0  0  0  0
  -30.6931  -24.5755   20.4998 C   0  0  0  0  0  0  0  0  0  0  0  0
  -22.6037  -30.2547   23.3303 C   0  0  0  0  0  0  0  0  0  0  0  0
  -29.4491  -17.2485   20.4298 C   0  0  0  0  0  0  0  0  0  0  0  0
  -19.9530  -21.5413   18.0140 C   0  0  0  0  0  0  0  0  0  0  0  0
  -23.6657  -24.3869   23.1748 C   0  0  0  0  0  0  0  0  0  0  0  0
  -24.5199  -26.9385   21.9482 C   0  0  0  0  0  0  0  0  0  0  0  0
  -20.2114  -23.0388   18.1588 C   0  0  0  0  0  0  0  0  0  0  0  0
  -29.9936  -13.8690   19.4500 C   0  0  0  0  0  0  0  0  0  0  0  0
  -21.7007  -23.3391   18.0232 C   0  0  0  0  0  0  0  0  0  0  0  0
  -28.7072  -13.1568   19.8744 C   0  0  0  0  0  0  0  0  0  0  0  0
  -30.3982  -14.9520   20.4486 C   0  0  0  0  0  0  0  0  0  0  0  0
  -28.0628  -15.2184   21.1865 C   0  0  0  0  0  0  0  0  0  0  0  0
  -22.5068  -22.6421   19.1258 C   0  0  1  0  0  0  0  0  0  0  0  0
  -22.8722  -25.0418   22.0483 C   0  0  1  0  0  0  0  0  0  0  0  0
  -27.5799  -14.1629   20.1783 C   0  0  2  0  0  0  0  0  0  0  0  0
  -30.7658  -22.0994   18.4149 C   0  0  0  0  0  0  0  0  0  0  0  0
  -21.5059  -32.4372   23.9041 C   0  0  0  0  0  0  0  0  0  0  0  0
  -22.5394  -28.3267   18.8143 C   0  0  0  0  0  0  0  0  0  0  0  0
  -22.3425  -30.6701   19.6734 C   0  0  0  0  0  0  0  0  0  0  0  0
  -20.3982  -29.1158   19.8375 C   0  0  0  0  0  0  0  0  0  0  0  0
  -22.7664  -29.7060   26.2340 C   0  0  0  0  0  0  0  0  0  0  0  0
  -31.3446  -25.0298   21.7937 C   0  0  0  0  0  0  0  0  0  0  0  0
  -31.0726  -26.4983   22.0992 C   0  0  0  0  0  0  0  0  0  0  0  0
  -29.5865  -26.7686   22.2840 C   0  0  0  0  0  0  0  0  0  1  0  0
  -29.7228  -22.5591   19.4315 C   0  0  2  0  0  0  0  0  0  0  0  0
  -22.3921  -28.7710   21.3534 C   0  0  1  0  0  0  0  0  0  0  0  0
  -21.7679  -31.0071   24.3501 C   0  0  2  0  0  0  0  0  0  0  0  0
  -21.9372  -29.2030   19.9307 C   0  0  0  0  0  0  0  0  0  0  0  0
  -26.4232  -12.3279   21.3513 N   0  0  0  0  0  0  0  0  0  0  0  0
  -29.2220  -20.1721   19.9992 N   0  0  0  0  0  0  0  0  0  0  0  0
  -26.3155  -13.4664   20.6455 N   0  0  0  0  0  0  0  0  0  0  0  0
  -23.1204  -26.4812   21.9448 N   0  0  0  0  0  0  0  0  0  0  0  0
  -29.2822  -15.8707   20.6841 N   0  0  0  0  0  0  0  0  0  0  0  0
  -24.7398  -14.9868   19.7420 N   0  0  0  0  0  0  0  0  0  0  0  0
  -22.1534  -11.8747   21.7474 N   0  0  0  0  0  0  0  0  0  0  0  0
  -28.3098  -18.0192   20.6590 N   0  0  0  0  0  0  0  0  0  0  0  0
  -22.3838  -23.3632   20.3745 N   0  0  0  0  0  0  0  0  0  0  0  0
  -30.3566  -23.2303   20.5415 N   0  0  0  0  0  0  0  0  0  0  0  0
  -21.8158  -29.5664   22.4321 N   0  0  0  0  0  0  0  0  0  0  0  0
  -22.4669  -31.0456   25.6657 N   0  3  0  0  0  0  0  0  0  0  0  0
  -22.1226  -13.8130   20.5223 O   0  0  0  0  0  0  0  0  0  0  0  0
  -24.0626  -24.9357   20.0120 O   0  0  0  0  0  0  0  0  0  0  0  0
  -20.8629  -26.9814   21.6456 O   0  0  0  0  0  0  0  0  0  0  0  0
  -30.4961  -25.3223   19.5450 O   0  0  0  0  0  0  0  0  0  0  0  0
  -23.8325  -30.2786   23.3283 O   0  0  0  0  0  0  0  0  0  0  0  0
  -30.5154  -17.7067   20.0115 O   0  0  0  0  0  0  0  0  0  0  0  0
  -23.9494   -7.3774   24.5012 O   0  0  0  0  0  0  0  0  0  0  0  0
  -29.1023  -25.9682   23.3616 O   0  0  0  0  0  0  0  0  0  1  0  0
  -19.9525   -4.1027   22.5762 F   0  0  0  0  0  0  0  0  0  0  0  0
  -21.3704   -8.3220   24.1865 F   0  0  0  0  0  0  0  0  0  0  0  0
  -27.2200  -21.7664   20.3634 S   0  0  0  0  0  0  0  0  0  0  0  0
  1  2  1  0  0  0  0
  1  5  2  0  0  0  0
  2  6  2  0  0  0  0
  3  8  2  0  0  0  0
  3 16  1  0  0  0  0
  4  9  1  0  0  0  0
  4 16  2  0  0  0  0
  5 18  1  0  0  0  0
  6 20  1  0  0  0  0
  7 10  2  0  0  0  0
  7 19  1  0  0  0  0
  8 22  1  0  0  0  0
  9 22  2  0  0  0  0
 10 23  1  0  0  0  0
 11 12  2  0  0  0  0
 11 24  1  0  0  0  0
 12 25  1  0  0  0  0
 13 21  1  0  0  0  0
 13 23  2  0  0  0  0
 14 25  2  0  0  0  0
 14 26  1  0  0  0  0
 15 28  2  0  0  0  0
 15 84  1  0  0  0  0
 16 27  1  0  0  0  0
 17 27  1  0  0  0  0
 17 29  2  0  0  0  0
 17 31  1  0  0  0  0
 18 20  2  0  0  0  0
 18 37  1  0  0  0  0
 19 21  2  0  0  0  0
 19 38  1  0  0  0  0
 20 46  1  0  0  0  0
 21 39  1  0  0  0  0
 22 80  1  0  0  0  0
 23 81  1  0  0  0  0
 24 26  2  0  0  0  0
 24 80  1  0  0  0  0
 25 82  1  0  0  0  0
 26 83  1  0  0  0  0
 27 62  2  0  0  0  0
 28 63  1  0  0  0  0
 28 69  1  0  0  0  0
 29 64  1  0  0  0  0
 29 67  1  0  0  0  0
 30 58  1  0  0  0  0
 30 63  2  0  0  0  0
 30 84  1  0  0  0  0
 31 68  1  0  0  0  0
 31 74  2  0  0  0  0
 32 47  1  0  0  0  0
 32 70  1  0  0  0  0
 32 75  2  0  0  0  0
 33 59  1  0  0  0  0
 33 65  1  0  0  0  0
 33 76  2  0  0  0  0
 34 55  1  0  0  0  0
 34 71  1  0  0  0  0
 34 77  2  0  0  0  0
 35 60  1  0  0  0  0
 35 72  1  0  0  0  0
 35 78  2  0  0  0  0
 36 66  1  0  0  0  0
 36 69  1  0  0  0  0
 36 79  2  0  0  0  0
 37 40  1  0  0  0  0
 38 47  1  0  0  0  0
 39 65  1  0  0  0  0
 40 42  1  0  0  0  0
 41 43  1  0  0  0  0
 41 44  1  0  0  0  0
 42 46  1  0  0  0  0
 43 48  1  0  0  0  0
 44 66  1  0  0  0  0
 45 48  1  0  0  0  0
 45 66  1  0  0  0  0
 46 70  1  0  0  0  0
 47 65  1  0  0  0  0
 48 64  1  0  0  0  0
 49 58  1  0  0  0  0
 50 60  1  0  0  0  0
 51 61  1  0  0  0  0
 52 61  1  0  0  0  0
 53 61  1  0  0  0  0
 54 73  1  0  0  0  0
 55 56  1  0  0  0  0
 56 57  1  0  0  0  0
 57 81  1  0  0  0  0
 58 71  1  0  0  0  0
 59 61  1  0  0  0  0
 59 72  1  0  0  0  0
 60 73  1  0  0  0  0
 62 64  1  0  0  0  0
M  CHG  1  73   1
M  ISO  4  36 100  57 101  69 100  81 101
M  END
> <Batch ID>
0166

> <Smiles>
CNC(C)C(=O)NC(C(=O)N1Cc2cc([101O:1][101CH2:1]CCC(=O)NC(C)c3nc([100NH:0][100C:0](=O)N4CCCC(n5nc(-c6ccc(Oc7ccc(F)cc7F)cc6)c(C(N)=O)c5N)C4)cs3)ccc2CC1C(=O)NC1CCCc2ccccc21)C(C)(C)C

> <Shape>
0.233

> <Color>
0.145

> <Negative vol penalty>
0.000

$$$$

  -OEChem-04052304083D

 86 94  0     1  0  0  0  0  0999 V2000
  -26.4175  -37.1304   23.3078 C   0  0  0  0  0  0  0  0  0  0  0  0
  -27.0732  -35.9112   23.1698 C   0  0  0  0  0  0  0  0  0  0  0  0
  -23.4832  -11.2242   22.4648 C   0  0  0  0  0  0  0  0  0  0  0  0
  -25.0054   -9.4845   23.1672 C   0  0  0  0  0  0  0  0  0  0  0  0
  -29.0333  -19.3307   17.2619 C   0  0  0  0  0  0  0  0  0  0  0  0
  -25.0557  -37.1584   23.6056 C   0  0  0  0  0  0  0  0  0  0  0  0
  -26.3677  -34.7192   23.3308 C   0  0  0  0  0  0  0  0  0  0  0  0
  -27.2799  -29.4658   20.3183 C   0  0  0  0  0  0  0  0  0  0  0  0
  -28.9550  -20.5079   18.0059 C   0  0  0  0  0  0  0  0  0  0  0  0
  -22.4090  -10.4831   22.9569 C   0  0  0  0  0  0  0  0  0  0  0  0
  -23.9311   -8.7433   23.6595 C   0  0  0  0  0  0  0  0  0  0  0  0
  -27.9677  -28.3001   20.6526 C   0  0  0  0  0  0  0  0  0  0  0  0
  -21.5074   -6.7413   22.4151 C   0  0  0  0  0  0  0  0  0  0  0  0
  -21.4707   -5.3786   22.1195 C   0  0  0  0  0  0  0  0  0  0  0  0
  -25.9021  -27.3023   21.3989 C   0  0  0  0  0  0  0  0  0  0  0  0
  -21.5173   -4.8654   24.4799 C   0  0  0  0  0  0  0  0  0  0  0  0
  -24.7814  -10.7249   22.5699 C   0  0  0  0  0  0  0  0  0  0  0  0
  -29.0731  -18.0967   17.9110 C   0  0  0  0  0  0  0  0  0  0  0  0
  -26.6584  -12.4422   22.7587 C   0  0  0  0  0  0  0  0  0  0  0  0
  -24.3311  -35.9661   23.7608 C   0  0  0  0  0  0  0  0  0  0  0  0
  -25.8974  -29.5626   20.5323 C   0  0  0  0  0  0  0  0  0  0  0  0
  -24.9953  -34.7313   23.6323 C   0  0  0  0  0  0  0  0  0  0  0  0
  -25.1986  -28.4694   21.0641 C   0  0  0  0  0  0  0  0  0  0  0  0
  -28.9165  -20.4512   19.3990 C   0  0  0  0  0  0  0  0  0  0  0  0
  -29.0345  -18.0400   19.3042 C   0  0  0  0  0  0  0  0  0  0  0  0
  -22.6329   -9.2427   23.5543 C   0  0  0  0  0  0  0  0  0  0  0  0
  -27.2794  -27.2192   21.1957 C   0  0  0  0  0  0  0  0  0  0  0  0
  -21.5492   -7.1661   23.7431 C   0  0  0  0  0  0  0  0  0  0  0  0
  -21.4756   -4.4407   23.1519 C   0  0  0  0  0  0  0  0  0  0  0  0
  -21.5541   -6.2281   24.7755 C   0  0  0  0  0  0  0  0  0  0  0  0
  -28.9562  -19.2172   20.0483 C   0  0  0  0  0  0  0  0  0  0  0  0
  -25.8915  -11.4898   22.0611 C   0  0  0  0  0  0  0  0  0  0  0  0
  -27.5821  -12.8785   21.8406 C   0  0  0  0  0  0  0  0  0  0  0  0
  -29.1559  -16.8720   17.0954 C   0  0  0  0  0  0  0  0  0  0  0  0
  -28.0706  -25.1089   20.5700 C   0  0  0  0  0  0  0  0  0  1  0  0
  -26.5460  -12.8922   24.1154 C   0  0  0  0  0  0  0  0  0  0  0  0
  -28.7072  -23.9509   20.7831 C   0  0  0  0  0  0  0  0  0  0  0  0
  -28.7871  -22.9492   19.6702 C   0  0  0  0  0  0  0  0  0  0  0  0
  -24.0272  -31.4202   22.3087 C   0  0  0  0  0  0  0  0  0  0  0  0
  -21.6520  -29.8640   20.7406 C   0  0  0  0  0  0  0  0  0  0  0  0
  -20.6436  -27.0897   19.0279 C   0  0  0  0  0  0  0  0  0  0  0  0
  -28.7657  -14.6435   16.6795 C   0  0  0  0  0  0  0  0  0  0  0  0
  -22.8708  -36.0469   24.1291 C   0  0  0  0  0  0  0  0  0  0  0  0
  -25.1656  -30.8173   20.1416 C   0  0  0  0  0  0  0  0  0  0  0  0
  -23.7109  -28.5153   21.2947 C   0  0  0  0  0  0  0  0  0  0  0  0
  -22.1151  -34.7381   23.9141 C   0  0  0  0  0  0  0  0  0  0  0  0
  -28.8089  -11.0878   17.2796 C   0  0  0  0  0  0  0  0  0  0  0  0
  -22.9068  -33.5648   24.4829 C   0  0  0  0  0  0  0  0  0  0  0  0
  -28.0846  -10.9531   18.6189 C   0  0  0  0  0  0  0  0  0  0  0  0
  -28.2260  -12.2198   16.4391 C   0  0  0  0  0  0  0  0  0  0  0  0
  -27.4756  -13.4087   18.4817 C   0  0  0  0  0  0  0  0  0  0  0  0
  -24.2590  -33.4169   23.7751 C   0  0  1  0  0  0  0  0  0  0  0  0
  -23.8423  -30.9919   20.8804 C   0  0  1  0  0  0  0  0  0  0  0  0
  -28.0574  -12.2960   19.3703 C   0  0  1  0  0  0  0  0  0  0  0  0
  -18.6346  -26.0903   17.9043 C   0  0  0  0  0  0  0  0  0  0  0  0
  -20.4700  -29.1787   23.4688 C   0  0  0  0  0  0  0  0  0  0  0  0
  -19.0664  -27.4362   22.3454 C   0  0  0  0  0  0  0  0  0  0  0  0
  -18.7885  -29.8401   21.7398 C   0  0  0  0  0  0  0  0  0  0  0  0
  -22.0082  -27.0075   16.4030 C   0  0  0  0  0  0  0  0  0  0  0  0
  -20.8589  -28.6024   20.9823 C   0  0  1  0  0  0  0  0  0  0  0  0
  -19.8877  -26.9322   17.7209 C   0  0  2  0  0  0  0  0  0  0  0  0
  -19.8243  -28.7639   22.1317 C   0  0  0  0  0  0  0  0  0  0  0  0
  -26.2930  -11.3301   20.7973 N   0  0  0  0  0  0  0  0  0  0  0  0
  -28.6495  -15.7521   17.4962 N   0  0  0  0  0  0  0  0  0  0  0  0
  -27.3222  -12.1880   20.6934 N   0  0  0  0  0  0  0  0  0  0  0  0
  -23.0412  -29.7663   20.9023 N   0  0  0  0  0  0  0  0  0  0  0  0
  -28.1856  -13.4710   17.1973 N   0  0  0  0  0  0  0  0  0  0  0  0
  -29.0739  -16.7989   19.9782 N   0  0  0  0  0  0  0  0  0  0  0  0
  -28.5830  -13.7815   21.9106 N   0  0  0  0  0  0  0  0  0  0  0  0
  -25.5413  -12.3397   24.9215 N   0  0  0  0  0  0  0  0  0  0  0  0
  -28.8371  -21.6481   20.1511 N   0  0  0  0  0  0  0  0  0  0  0  0
  -24.0868  -32.7898   22.4822 N   0  0  0  0  0  0  0  0  0  0  0  0
  -20.2725  -28.2365   19.6976 N   0  0  0  0  0  0  0  0  0  0  0  0
  -20.7507  -26.2742   16.6995 N   0  3  0  0  0  0  0  0  0  0  0  0
  -27.3032  -13.7705   24.5936 O   0  0  0  0  0  0  0  0  0  0  0  0
  -28.8022  -23.3096   18.4981 O   0  0  0  0  0  0  0  0  0  0  0  0
  -24.1082  -30.5709   23.1884 O   0  0  0  0  0  0  0  0  0  0  0  0
  -21.0613  -30.8962   20.4131 O   0  0  0  0  0  0  0  0  0  0  0  0
  -21.4770  -26.2749   19.4177 O   0  0  0  0  0  0  0  0  0  0  0  0
  -29.3227  -14.6557   15.5792 O   0  0  0  0  0  0  0  0  0  0  0  0
  -29.2976  -23.6398   21.9911 O   0  0  0  0  0  0  0  0  0  0  0  0
  -21.5849   -8.5193   24.0349 O   0  0  0  0  0  0  0  0  0  0  0  0
  -27.9485  -26.0804   21.5234 O   0  0  0  0  0  0  0  0  0  1  0  0
  -21.4387   -3.1322   22.8680 F   0  0  0  0  0  0  0  0  0  0  0  0
  -21.5930   -6.6301   26.0533 F   0  0  0  0  0  0  0  0  0  0  0  0
  -28.9189  -19.1632   21.3886 F   0  0  0  0  0  0  0  0  0  0  0  0
  1  2  1  0  0  0  0
  1  6  2  0  0  0  0
  2  7  2  0  0  0  0
  3 10  2  0  0  0  0
  3 17  1  0  0  0  0
  4 11  1  0  0  0  0
  4 17  2  0  0  0  0
  5  9  2  0  0  0  0
  5 18  1  0  0  0  0
  6 20  1  0  0  0  0
  7 22  1  0  0  0  0
  8 12  2  0  0  0  0
  8 21  1  0  0  0  0
  9 24  1  0  0  0  0
 10 26  1  0  0  0  0
 11 26  2  0  0  0  0
 12 27  1  0  0  0  0
 13 14  2  0  0  0  0
 13 28  1  0  0  0  0
 14 29  1  0  0  0  0
 15 23  1  0  0  0  0
 15 27  2  0  0  0  0
 16 29  2  0  0  0  0
 16 30  1  0  0  0  0
 17 32  1  0  0  0  0
 18 25  2  0  0  0  0
 18 34  1  0  0  0  0
 19 32  1  0  0  0  0
 19 33  2  0  0  0  0
 19 36  1  0  0  0  0
 20 22  2  0  0  0  0
 20 43  1  0  0  0  0
 21 23  2  0  0  0  0
 21 44  1  0  0  0  0
 22 52  1  0  0  0  0
 23 45  1  0  0  0  0
 24 31  2  0  0  0  0
 24 71  1  0  0  0  0
 25 31  1  0  0  0  0
 25 68  1  0  0  0  0
 26 82  1  0  0  0  0
 27 83  1  0  0  0  0
 28 30  2  0  0  0  0
 28 82  1  0  0  0  0
 29 84  1  0  0  0  0
 30 85  1  0  0  0  0
 31 86  1  0  0  0  0
 32 63  2  0  0  0  0
 33 65  1  0  0  0  0
 33 69  1  0  0  0  0
 34 64  2  0  0  0  0
 35 37  2  0  0  0  0
 35 83  1  0  0  0  0
 36 70  1  0  0  0  0
 36 75  2  0  0  0  0
 37 38  1  0  0  0  0
 37 81  1  0  0  0  0
 38 71  1  0  0  0  0
 38 76  2  0  0  0  0
 39 53  1  0  0  0  0
 39 72  1  0  0  0  0
 39 77  2  0  0  0  0
 40 60  1  0  0  0  0
 40 66  1  0  0  0  0
 40 78  2  0  0  0  0
 41 61  1  0  0  0  0
 41 73  1  0  0  0  0
 41 79  2  0  0  0  0
 42 64  1  0  0  0  0
 42 67  1  0  0  0  0
 42 80  2  0  0  0  0
 43 46  1  0  0  0  0
 44 53  1  0  0  0  0
 45 66  1  0  0  0  0
 46 48  1  0  0  0  0
 47 49  1  0  0  0  0
 47 50  1  0  0  0  0
 48 52  1  0  0  0  0
 49 54  1  0  0  0  0
 50 67  1  0  0  0  0
 51 54  1  0  0  0  0
 51 67  1  0  0  0  0
 52 72  1  0  0  0  0
 53 66  1  0  0  0  0
 54 65  1  0  0  0  0
 55 61  1  0  0  0  0
 56 62  1  0  0  0  0
 57 62  1  0  0  0  0
 58 62  1  0  0  0  0
 59 74  1  0  0  0  0
 60 62  1  0  0  0  0
 60 73  1  0  0  0  0
 61 74  1  0  0  0  0
 63 65  1  0  0  0  0
M  CHG  1  74   1
M  ISO  4  35 101  42 100  64 100  83 101
M  END
> <Batch ID>
0166

> <Smiles>
CNC(C)C(=O)NC(C(=O)N1Cc2cc([101O:1][101CH2:1]C(=O)C(=O)Nc3ccc(C=[100N:0][100C:0](=O)N4CCCC(n5nc(-c6ccc(Oc7ccc(F)cc7F)cc6)c(C(N)=O)c5N)C4)c(N)c3F)ccc2CC1C(=O)NC1CCCc2ccccc21)C(C)(C)C

> <Shape>
0.320

> <Color>
0.064

> <Negative vol penalty>
0.000

$$$$

  -OEChem-04052304083D

 88 96  0     1  0  0  0  0  0999 V2000
  -26.6351  -33.9766   26.3547 C   0  0  0  0  0  0  0  0  0  0  0  0
  -27.0584  -32.8113   25.7236 C   0  0  0  0  0  0  0  0  0  0  0  0
  -20.1275  -15.6951   21.2263 C   0  0  0  0  0  0  0  0  0  0  0  0
  -22.3114  -16.6772   21.5470 C   0  0  0  0  0  0  0  0  0  0  0  0
  -25.2764  -34.1901   26.5835 C   0  0  0  0  0  0  0  0  0  0  0  0
  -26.1232  -31.8582   25.3219 C   0  0  0  0  0  0  0  0  0  0  0  0
  -27.0106  -30.1142   20.6511 C   0  0  0  0  0  0  0  0  0  0  0  0
  -20.6600  -14.4300   21.4741 C   0  0  0  0  0  0  0  0  0  0  0  0
  -22.8439  -15.4121   21.7949 C   0  0  0  0  0  0  0  0  0  0  0  0
  -28.0253  -29.1691   20.5064 C   0  0  0  0  0  0  0  0  0  0  0  0
  -23.8227  -12.7242   19.9925 C   0  0  0  0  0  0  0  0  0  0  0  0
  -25.0270  -12.3948   19.3707 C   0  0  0  0  0  0  0  0  0  0  0  0
  -26.3728  -27.4126   20.4489 C   0  0  0  0  0  0  0  0  0  0  0  0
  -23.8947  -23.1773   14.8444 C   0  0  0  0  0  0  0  0  0  0  0  0
  -26.2342  -23.6797   15.1780 C   0  0  0  0  0  0  0  0  0  0  0  0
  -26.0552  -12.0718   21.5330 C   0  0  0  0  0  0  0  0  0  0  0  0
  -20.9532  -16.8188   21.2627 C   0  0  0  0  0  0  0  0  0  0  0  0
  -24.8706  -22.9802   17.0457 C   0  0  0  0  0  0  0  0  0  0  0  0
  -19.8632  -19.0207   21.9489 C   0  0  0  0  0  0  0  0  0  0  0  0
  -24.3233  -33.2435   26.1756 C   0  0  0  0  0  0  0  0  0  0  0  0
  -25.6678  -29.7140   20.7068 C   0  0  0  0  0  0  0  0  0  0  0  0
  -24.7506  -32.0585   25.5466 C   0  0  0  0  0  0  0  0  0  0  0  0
  -25.3428  -28.3548   20.5917 C   0  0  0  0  0  0  0  0  0  0  0  0
  -23.7655  -22.8784   16.2007 C   0  0  0  0  0  0  0  0  0  0  0  0
  -26.1050  -23.3809   16.5344 C   0  0  0  0  0  0  0  0  0  0  0  0
  -22.0182  -14.2884   21.7584 C   0  0  0  0  0  0  0  0  0  0  0  0
  -27.7067  -27.8178   20.4082 C   0  0  0  0  0  0  0  0  0  0  0  0
  -23.7346  -12.7276   21.3847 C   0  0  0  0  0  0  0  0  0  0  0  0
  -26.1432  -12.0686   20.1409 C   0  0  0  0  0  0  0  0  0  0  0  0
  -25.1291  -23.5779   14.3331 C   0  0  0  0  0  0  0  0  0  0  0  0
  -24.8509  -12.4013   22.1549 C   0  0  0  0  0  0  0  0  0  0  0  0
  -20.4038  -18.1259   21.0062 C   0  0  0  0  0  0  0  0  0  0  0  0
  -19.4822  -20.1121   21.2072 C   0  0  0  0  0  0  0  0  0  0  0  0
  -24.7359  -22.6677   18.4667 C   0  0  0  0  0  0  0  0  0  0  0  0
  -19.7183  -18.8781   23.3682 C   0  0  0  0  0  0  0  0  0  0  0  0
  -29.4609  -23.9078   18.0608 C   0  0  0  0  0  0  0  0  0  0  0  0
  -29.6122  -25.1681   18.8736 C   0  0  0  0  0  0  0  0  0  0  0  0
  -23.3535  -29.9212   22.8758 C   0  0  0  0  0  0  0  0  0  0  0  0
  -21.5352  -28.6993   20.4835 C   0  0  0  0  0  0  0  0  0  0  0  0
  -21.3861  -26.9005   17.5872 C   0  0  0  0  0  0  0  0  0  0  0  0
  -21.3171  -22.3315   15.9715 C   0  0  0  0  0  0  0  0  0  0  0  0
  -22.8695  -33.4965   26.4870 C   0  0  0  0  0  0  0  0  0  0  0  0
  -24.5833  -30.7482   20.8363 C   0  0  0  0  0  0  0  0  0  0  0  0
  -23.9155  -27.8751   20.6255 C   0  0  0  0  0  0  0  0  0  0  0  0
  -21.9134  -32.6090   25.6943 C   0  0  0  0  0  0  0  0  0  0  0  0
  -18.0076  -21.3254   16.8154 C   0  0  0  0  0  0  0  0  0  0  0  0
  -22.3834  -31.1581   25.7239 C   0  0  0  0  0  0  0  0  0  0  0  0
  -18.1967  -20.4772   18.0752 C   0  0  0  0  0  0  0  0  0  0  0  0
  -19.1496  -21.1256   15.8206 C   0  0  0  0  0  0  0  0  0  0  0  0
  -20.6850  -20.4728   17.6331 C   0  0  0  0  0  0  0  0  0  0  0  0
  -23.7646  -31.0123   25.0738 C   0  0  1  0  0  0  0  0  0  0  0  0
  -23.2824  -30.1827   21.3979 C   0  0  1  0  0  0  0  0  0  0  0  0
  -19.5926  -20.6893   18.6931 C   0  0  2  0  0  0  0  0  0  0  0  0
  -24.3641  -23.7916   19.3847 C   0  0  0  0  0  0  0  0  0  0  0  0
  -19.7556  -26.0374   15.8861 C   0  0  0  0  0  0  0  0  0  0  0  0
  -20.6643  -26.5164   22.4294 C   0  0  0  0  0  0  0  0  0  0  0  0
  -19.8359  -25.1969   20.4696 C   0  0  0  0  0  0  0  0  0  0  0  0
  -18.8316  -27.4208   20.9879 C   0  0  0  0  0  0  0  0  0  0  0  0
  -22.6655  -28.4415   15.4084 C   0  0  0  0  0  0  0  0  0  0  0  0
  -28.5197  -23.8980   16.8917 C   0  0  0  0  0  0  0  0  0  0  0  0
  -28.3752  -25.7052   19.5447 C   0  0  0  0  0  0  0  0  0  1  0  0
  -21.1663  -27.3094   20.0242 C   0  0  1  0  0  0  0  0  0  0  0  0
  -20.6910  -27.1747   16.2658 C   0  0  2  0  0  0  0  0  0  0  0  0
  -20.1516  -26.6194   20.9791 C   0  0  0  0  0  0  0  0  0  0  0  0
  -20.3709  -18.6070   19.7606 N   0  0  0  0  0  0  0  0  0  0  0  0
  -30.1566  -22.8814   18.4216 N   0  0  0  0  0  0  0  0  0  0  0  0
  -19.8050  -19.8161   19.9156 N   0  0  0  0  0  0  0  0  0  0  0  0
  -22.8912  -28.9241   20.7599 N   0  0  0  0  0  0  0  0  0  0  0  0
  -20.4407  -21.3473   16.4754 N   0  0  0  0  0  0  0  0  0  0  0  0
  -18.9060  -21.2866   21.5404 N   0  0  0  0  0  0  0  0  0  0  0  0
  -20.1624  -17.6925   23.9694 N   0  0  0  0  0  0  0  0  0  0  0  0
  -22.5004  -22.4749   16.6952 N   0  0  0  0  0  0  0  0  0  0  0  0
  -27.2188  -23.4901   17.3552 N   0  0  0  0  0  0  0  0  0  0  0  0
  -23.6498  -31.0396   23.6314 N   0  0  0  0  0  0  0  0  0  0  0  0
  -20.6963  -27.4450   18.6497 N   0  0  0  0  0  0  0  0  0  0  0  0
  -21.6950  -27.3408   15.1771 N   0  3  0  0  0  0  0  0  0  0  0  0
  -24.9101  -21.5548   18.9579 O   0  0  0  0  0  0  0  0  0  0  0  0
  -19.1952  -19.7688   24.0800 O   0  0  0  0  0  0  0  0  0  0  0  0
  -30.7187  -25.6862   18.9191 O   0  0  0  0  0  0  0  0  0  0  0  0
  -23.1527  -28.7890   23.2994 O   0  0  0  0  0  0  0  0  0  0  0  0
  -20.6537  -29.5561   20.5863 O   0  0  0  0  0  0  0  0  0  0  0  0
  -22.4340  -26.2636   17.6690 O   0  0  0  0  0  0  0  0  0  0  0  0
  -21.0265  -23.0169   14.9878 O   0  0  0  0  0  0  0  0  0  0  0  0
  -22.5381  -13.0541   22.0006 O   0  0  0  0  0  0  0  0  0  0  0  0
  -28.6952  -26.8932   20.2676 O   0  0  0  0  0  0  0  0  0  1  0  0
  -27.2992  -11.7507   19.5435 F   0  0  0  0  0  0  0  0  0  0  0  0
  -25.2532  -23.8661   13.0308 F   0  0  0  0  0  0  0  0  0  0  0  0
  -24.7721  -12.4016   23.4926 F   0  0  0  0  0  0  0  0  0  0  0  0
  1  2  1  0  0  0  0
  1  5  2  0  0  0  0
  2  6  2  0  0  0  0
  3  8  2  0  0  0  0
  3 17  1  0  0  0  0
  4  9  1  0  0  0  0
  4 17  2  0  0  0  0
  5 20  1  0  0  0  0
  6 22  1  0  0  0  0
  7 10  2  0  0  0  0
  7 21  1  0  0  0  0
  8 26  1  0  0  0  0
  9 26  2  0  0  0  0
 10 27  1  0  0  0  0
 11 12  2  0  0  0  0
 11 28  1  0  0  0  0
 12 29  1  0  0  0  0
 13 23  1  0  0  0  0
 13 27  2  0  0  0  0
 14 24  2  0  0  0  0
 14 30  1  0  0  0  0
 15 25  1  0  0  0  0
 15 30  2  0  0  0  0
 16 29  2  0  0  0  0
 16 31  1  0  0  0  0
 17 32  1  0  0  0  0
 18 24  1  0  0  0  0
 18 25  2  0  0  0  0
 18 34  1  0  0  0  0
 19 32  1  0  0  0  0
 19 33  2  0  0  0  0
 19 35  1  0  0  0  0
 20 22  2  0  0  0  0
 20 42  1  0  0  0  0
 21 23  2  0  0  0  0
 21 43  1  0  0  0  0
 22 51  1  0  0  0  0
 23 44  1  0  0  0  0
 24 72  1  0  0  0  0
 25 73  1  0  0  0  0
 26 84  1  0  0  0  0
 27 85  1  0  0  0  0
 28 31  2  0  0  0  0
 28 84  1  0  0  0  0
 29 86  1  0  0  0  0
 30 87  1  0  0  0  0
 31 88  1  0  0  0  0
 32 65  2  0  0  0  0
 33 67  1  0  0  0  0
 33 70  1  0  0  0  0
 34 54  1  0  0  0  0
 34 77  2  0  0  0  0
 35 71  1  0  0  0  0
 35 78  2  0  0  0  0
 36 37  1  0  0  0  0
 36 60  1  0  0  0  0
 36 66  2  0  0  0  0
 37 61  1  0  0  0  0
 37 79  2  0  0  0  0
 38 52  1  0  0  0  0
 38 74  1  0  0  0  0
 38 80  2  0  0  0  0
 39 62  1  0  0  0  0
 39 68  1  0  0  0  0
 39 81  2  0  0  0  0
 40 63  1  0  0  0  0
 40 75  1  0  0  0  0
 40 82  2  0  0  0  0
 41 69  1  0  0  0  0
 41 72  1  0  0  0  0
 41 83  2  0  0  0  0
 42 45  1  0  0  0  0
 43 52  1  0  0  0  0
 44 68  1  0  0  0  0
 45 47  1  0  0  0  0
 46 48  1  0  0  0  0
 46 49  1  0  0  0  0
 47 51  1  0  0  0  0
 48 53  1  0  0  0  0
 49 69  1  0  0  0  0
 50 53  1  0  0  0  0
 50 69  1  0  0  0  0
 51 74  1  0  0  0  0
 52 68  1  0  0  0  0
 53 67  1  0  0  0  0
 55 63  1  0  0  0  0
 56 64  1  0  0  0  0
 57 64  1  0  0  0  0
 58 64  1  0  0  0  0
 59 76  1  0  0  0  0
 60 73  1  0  0  0  0
 61 85  1  0  0  0  0
 62 64  1  0  0  0  0
 62 75  1  0  0  0  0
 63 76  1  0  0  0  0
 65 67  1  0  0  0  0
M  CHG  1  76   1
M  ISO  4  41 100  61 101  72 100  85 101
M  END
> <Batch ID>
0166

> <Smiles>
CNC(C)C(=O)NC(C(=O)N1Cc2cc([101O:1][101CH2:1]C(=O)C(=N)CNc3cc(F)cc([100NH:0][100C:0](=O)N4CCCC(n5nc(-c6ccc(Oc7ccc(F)cc7F)cc6)c(C(N)=O)c5N)C4)c3C(C)=O)ccc2CC1C(=O)NC1CCCc2ccccc21)C(C)(C)C

> <Shape>
0.196

> <Color>
0.079

> <Negative vol penalty>
0.000

$$$$

  -OEChem-04052304083D

 84 92  0     1  0  0  0  0  0999 V2000
  -28.6718  -32.2358   27.2077 C   0  0  0  0  0  0  0  0  0  0  0  0
  -28.7259  -31.2559   26.2217 C   0  0  0  0  0  0  0  0  0  0  0  0
  -23.6847   -9.4714   20.0071 C   0  0  0  0  0  0  0  0  0  0  0  0
  -24.0624   -9.8586   22.3618 C   0  0  0  0  0  0  0  0  0  0  0  0
  -27.4390  -32.6513   27.7092 C   0  0  0  0  0  0  0  0  0  0  0  0
  -27.5470  -30.6901   25.7373 C   0  0  0  0  0  0  0  0  0  0  0  0
  -27.5092  -30.3033   20.6882 C   0  0  0  0  0  0  0  0  0  0  0  0
  -23.1559   -8.2141   20.2986 C   0  0  0  0  0  0  0  0  0  0  0  0
  -23.5335   -8.6013   22.6534 C   0  0  0  0  0  0  0  0  0  0  0  0
  -28.2354  -29.2552   20.1244 C   0  0  0  0  0  0  0  0  0  0  0  0
  -20.4754   -7.1878   22.9190 C   0  0  0  0  0  0  0  0  0  0  0  0
  -19.5691   -7.0967   23.9753 C   0  0  0  0  0  0  0  0  0  0  0  0
  -26.1978  -27.9898   19.8671 C   0  0  0  0  0  0  0  0  0  0  0  0
  -21.0419   -5.5504   25.1055 C   0  0  0  0  0  0  0  0  0  0  0  0
  -27.8702  -20.2812   22.0693 C   0  0  0  0  0  0  0  0  0  0  0  0
  -29.8191  -18.8978   20.7526 C   0  0  0  0  0  0  0  0  0  0  0  0
  -24.1381  -10.2937   21.0387 C   0  0  0  0  0  0  0  0  0  0  0  0
  -23.9844  -12.8103   20.6505 C   0  0  0  0  0  0  0  0  0  0  0  0
  -26.2440  -32.0972   27.2239 C   0  0  0  0  0  0  0  0  0  0  0  0
  -26.1210  -30.1980   20.8559 C   0  0  0  0  0  0  0  0  0  0  0  0
  -26.2971  -31.0976   26.2337 C   0  0  0  0  0  0  0  0  0  0  0  0
  -25.4560  -29.0390   20.4309 C   0  0  0  0  0  0  0  0  0  0  0  0
  -28.9477  -18.1909   21.5654 C   0  0  0  0  0  0  0  0  0  0  0  0
  -23.0802   -7.7790   21.6218 C   0  0  0  0  0  0  0  0  0  0  0  0
  -27.5802  -28.0970   19.7164 C   0  0  0  0  0  0  0  0  0  0  0  0
  -21.6649   -6.4601   22.9558 C   0  0  0  0  0  0  0  0  0  0  0  0
  -19.8523   -6.2780   25.0686 C   0  0  0  0  0  0  0  0  0  0  0  0
  -21.9481   -5.6415   24.0491 C   0  0  0  0  0  0  0  0  0  0  0  0
  -27.9575  -18.9032   22.2328 C   0  0  0  0  0  0  0  0  0  0  0  0
  -24.6850  -11.5924   20.7381 C   0  0  0  0  0  0  0  0  0  0  0  0
  -28.7900  -20.8946   21.2341 C   0  0  0  0  0  0  0  0  0  0  0  0
  -24.9483  -13.7396   20.3440 C   0  0  0  0  0  0  0  0  0  0  0  0
  -22.5873  -13.0777   20.8301 C   0  0  0  0  0  0  0  0  0  0  0  0
  -24.1553  -30.2193   23.3538 C   0  0  0  0  0  0  0  0  0  0  0  0
  -29.1849  -24.5142   20.3090 C   0  0  0  0  0  0  0  0  0  0  0  0
  -21.8645  -30.1957   21.0572 C   0  0  0  0  0  0  0  0  0  0  0  0
  -20.9877  -29.4370   17.8475 C   0  0  0  0  0  0  0  0  0  0  0  0
  -30.0018  -15.9491   21.1074 C   0  0  0  0  0  0  0  0  0  0  0  0
  -24.9376  -32.5444   27.8303 C   0  0  0  0  0  0  0  0  0  0  0  0
  -25.3484  -31.3482   21.4412 C   0  0  0  0  0  0  0  0  0  0  0  0
  -23.9643  -28.8844   20.5703 C   0  0  0  0  0  0  0  0  0  0  0  0
  -23.7169  -32.1628   26.9969 C   0  0  0  0  0  0  0  0  0  0  0  0
  -29.7722  -13.1392   18.9328 C   0  0  0  0  0  0  0  0  0  0  0  0
  -23.8087  -30.7069   26.5513 C   0  0  0  0  0  0  0  0  0  0  0  0
  -28.3706  -12.5865   19.2014 C   0  0  0  0  0  0  0  0  0  0  0  0
  -30.4254  -13.6722   20.2067 C   0  0  0  0  0  0  0  0  0  0  0  0
  -28.2215  -14.0964   21.2225 C   0  0  0  0  0  0  0  0  0  0  0  0
  -25.0391  -30.4776   25.6653 C   0  0  1  0  0  0  0  0  0  0  0  0
  -24.0085  -30.9268   22.0363 C   0  0  1  0  0  0  0  0  0  0  0  0
  -27.4976  -13.6072   19.9575 C   0  0  2  0  0  0  0  0  0  0  0  0
  -19.0351  -29.4968   16.2723 C   0  0  0  0  0  0  0  0  0  0  0  0
  -20.6680  -27.7599   22.4519 C   0  0  0  0  0  0  0  0  0  0  0  0
  -19.3483  -27.3050   20.3735 C   0  0  0  0  0  0  0  0  0  0  0  0
  -18.9892  -29.4252   21.6378 C   0  0  0  0  0  0  0  0  0  0  0  0
  -22.3940  -31.2612   15.9891 C   0  0  0  0  0  0  0  0  0  0  0  0
  -30.0394  -25.4493   19.4635 C   0  0  0  0  0  0  0  0  0  0  0  0
  -29.5706  -23.0498   20.2484 C   0  0  0  0  0  0  0  0  0  0  0  0
  -29.6376  -26.9102   19.5967 C   0  0  0  0  0  0  0  0  0  1  0  0
  -21.1160  -29.1220   20.3049 C   0  0  1  0  0  0  0  0  0  0  0  0
  -20.2582  -30.2404   16.7859 C   0  0  2  0  0  0  0  0  0  0  0  0
  -20.0588  -28.4049   21.1910 C   0  0  0  0  0  0  0  0  0  0  0  0
  -29.7656  -20.2361   20.5691 N   0  0  0  0  0  0  0  0  0  0  0  0
  -25.9929  -11.7320   20.5059 N   0  0  0  0  0  0  0  0  0  0  0  0
  -26.1218  -13.0486   20.2692 N   0  0  0  0  0  0  0  0  0  0  0  0
  -23.2539  -30.0342   21.1542 N   0  0  0  0  0  0  0  0  0  0  0  0
  -29.5430  -14.6367   20.8669 N   0  0  0  0  0  0  0  0  0  0  0  0
  -24.8980  -15.0721   20.1337 N   0  0  0  0  0  0  0  0  0  0  0  0
  -21.7370  -12.0081   21.1416 N   0  0  0  0  0  0  0  0  0  0  0  0
  -29.0640  -16.7862   21.7111 N   0  0  0  0  0  0  0  0  0  0  0  0
  -28.6900  -22.2697   21.0808 N   0  0  0  0  0  0  0  0  0  0  0  0
  -24.7948  -30.9659   24.3250 N   0  0  0  0  0  0  0  0  0  0  0  0
  -20.5634  -29.7652   19.1177 N   0  0  0  0  0  0  0  0  0  0  0  0
  -21.1608  -30.5139   15.6320 N   0  3  0  0  0  0  0  0  0  0  0  0
  -22.1047  -14.2284   20.7016 O   0  0  0  0  0  0  0  0  0  0  0  0
  -23.7193  -29.0811   23.4803 O   0  0  0  0  0  0  0  0  0  0  0  0
  -28.2456  -24.9202   20.9918 O   0  0  0  0  0  0  0  0  0  0  0  0
  -21.2404  -31.1464   21.5349 O   0  0  0  0  0  0  0  0  0  0  0  0
  -21.8452  -28.5993   17.5768 O   0  0  0  0  0  0  0  0  0  0  0  0
  -31.1333  -16.3120   20.7756 O   0  0  0  0  0  0  0  0  0  0  0  0
  -22.5640   -6.5523   21.9066 O   0  0  0  0  0  0  0  0  0  0  0  0
  -28.2867  -27.0722   19.1665 O   0  0  0  0  0  0  0  0  0  1  0  0
  -18.9826   -6.1919   26.0837 F   0  0  0  0  0  0  0  0  0  0  0  0
  -23.0898   -4.9410   24.0907 F   0  0  0  0  0  0  0  0  0  0  0  0
  -27.0859  -18.2734   23.0331 F   0  0  0  0  0  0  0  0  0  0  0  0
  1  2  1  0  0  0  0
  1  5  2  0  0  0  0
  2  6  2  0  0  0  0
  3  8  2  0  0  0  0
  3 17  1  0  0  0  0
  4  9  1  0  0  0  0
  4 17  2  0  0  0  0
  5 19  1  0  0  0  0
  6 21  1  0  0  0  0
  7 10  2  0  0  0  0
  7 20  1  0  0  0  0
  8 24  1  0  0  0  0
  9 24  2  0  0  0  0
 10 25  1  0  0  0  0
 11 12  2  0  0  0  0
 11 26  1  0  0  0  0
 12 27  1  0  0  0  0
 13 22  1  0  0  0  0
 13 25  2  0  0  0  0
 14 27  2  0  0  0  0
 14 28  1  0  0  0  0
 15 29  2  0  0  0  0
 15 31  1  0  0  0  0
 16 23  2  0  0  0  0
 16 62  1  0  0  0  0
 17 30  1  0  0  0  0
 18 30  1  0  0  0  0
 18 32  2  0  0  0  0
 18 33  1  0  0  0  0
 19 21  2  0  0  0  0
 19 39  1  0  0  0  0
 20 22  2  0  0  0  0
 20 40  1  0  0  0  0
 21 48  1  0  0  0  0
 22 41  1  0  0  0  0
 23 29  1  0  0  0  0
 23 69  1  0  0  0  0
 24 80  1  0  0  0  0
 25 81  1  0  0  0  0
 26 28  2  0  0  0  0
 26 80  1  0  0  0  0
 27 82  1  0  0  0  0
 28 83  1  0  0  0  0
 29 84  1  0  0  0  0
 30 63  2  0  0  0  0
 31 62  2  0  0  0  0
 31 70  1  0  0  0  0
 32 64  1  0  0  0  0
 32 67  1  0  0  0  0
 33 68  1  0  0  0  0
 33 74  2  0  0  0  0
 34 49  1  0  0  0  0
 34 71  1  0  0  0  0
 34 75  2  0  0  0  0
 35 56  1  0  0  0  0
 35 57  1  0  0  0  0
 35 76  2  0  0  0  0
 36 59  1  0  0  0  0
 36 65  1  0  0  0  0
 36 77  2  0  0  0  0
 37 60  1  0  0  0  0
 37 72  1  0  0  0  0
 37 78  2  0  0  0  0
 38 66  1  0  0  0  0
 38 69  1  0  0  0  0
 38 79  2  0  0  0  0
 39 42  1  0  0  0  0
 40 49  1  0  0  0  0
 41 65  1  0  0  0  0
 42 44  1  0  0  0  0
 43 45  1  0  0  0  0
 43 46  1  0  0  0  0
 44 48  1  0  0  0  0
 45 50  1  0  0  0  0
 46 66  1  0  0  0  0
 47 50  1  0  0  0  0
 47 66  1  0  0  0  0
 48 71  1  0  0  0  0
 49 65  1  0  0  0  0
 50 64  1  0  0  0  0
 51 60  1  0  0  0  0
 52 61  1  0  0  0  0
 53 61  1  0  0  0  0
 54 61  1  0  0  0  0
 55 73  1  0  0  0  0
 56 58  1  0  0  0  0
 57 70  1  0  0  0  0
 58 81  1  0  0  0  0
 59 61  1  0  0  0  0
 59 72  1  0  0  0  0
 60 73  1  0  0  0  0
 63 64  1  0  0  0  0
M  CHG  1  73   1
M  ISO  4  38 100  58 101  69 100  81 101
M  END
> <Batch ID>
0166

> <Smiles>
CNC(C)C(=O)NC(C(=O)N1Cc2cc([101O:1][101CH2:1]CC(=O)CNc3cc(F)c([100NH:0][100C:0](=O)N4CCCC(n5nc(-c6ccc(Oc7ccc(F)cc7F)cc6)c(C(N)=O)c5N)C4)cn3)ccc2CC1C(=O)NC1CCCc2ccccc21)C(C)(C)C

> <Shape>
0.385

> <Color>
0.190

> <Negative vol penalty>
0.000

$$$$

  -OEChem-04052304083D

 91 99  0     1  0  0  0  0  0999 V2000
  -32.0622  -24.6632   17.4135 C   0  0  0  0  0  0  0  0  0  0  0  0
  -30.8212  -24.3753   17.9726 C   0  0  0  0  0  0  0  0  0  0  0  0
  -27.4905  -13.4683   20.7993 C   0  0  0  0  0  0  0  0  0  0  0  0
  -25.9652  -13.4502   22.6728 C   0  0  0  0  0  0  0  0  0  0  0  0
  -32.8380  -25.6970   17.9361 C   0  0  0  0  0  0  0  0  0  0  0  0
  -30.3559  -25.1204   19.0555 C   0  0  0  0  0  0  0  0  0  0  0  0
  -25.4995  -26.4625   18.5466 C   0  0  0  0  0  0  0  0  0  0  0  0
  -27.2110  -12.1232   20.5586 C   0  0  0  0  0  0  0  0  0  0  0  0
  -25.6855  -12.1050   22.4320 C   0  0  0  0  0  0  0  0  0  0  0  0
  -24.5384  -25.4883   18.8132 C   0  0  0  0  0  0  0  0  0  0  0  0
  -23.7885  -10.3006   20.2952 C   0  0  0  0  0  0  0  0  0  0  0  0
  -22.4523   -9.9018   20.3296 C   0  0  0  0  0  0  0  0  0  0  0  0
  -26.0155  -22.6152   28.3888 C   0  0  0  0  0  0  0  0  0  0  0  0
  -23.7221  -22.6853   27.6323 C   0  0  0  0  0  0  0  0  0  0  0  0
  -24.1882  -26.4413   21.0015 C   0  0  0  0  0  0  0  0  0  0  0  0
  -25.5075  -22.3282   26.0443 C   0  0  0  0  0  0  0  0  0  0  0  0
  -22.9574   -8.3645   22.1238 C   0  0  0  0  0  0  0  0  0  0  0  0
  -26.8677  -14.1319   21.8564 C   0  0  0  0  0  0  0  0  0  0  0  0
  -24.6559  -22.7576   28.6659 C   0  0  0  0  0  0  0  0  0  0  0  0
  -26.4865  -16.6381   21.5715 C   0  0  0  0  0  0  0  0  0  0  0  0
  -32.3777  -26.4615   19.0197 C   0  0  0  0  0  0  0  0  0  0  0  0
  -25.8205  -27.4284   19.5112 C   0  0  0  0  0  0  0  0  0  0  0  0
  -31.1269  -26.1646   19.5939 C   0  0  0  0  0  0  0  0  0  0  0  0
  -25.1519  -27.4282   20.7437 C   0  0  0  0  0  0  0  0  0  0  0  0
  -26.4413  -22.4005   27.0779 C   0  0  0  0  0  0  0  0  0  0  0  0
  -24.1479  -22.4706   26.3214 C   0  0  0  0  0  0  0  0  0  0  0  0
  -26.3084  -11.4415   21.3749 C   0  0  0  0  0  0  0  0  0  0  0  0
  -23.8847  -25.4758   20.0419 C   0  0  0  0  0  0  0  0  0  0  0  0
  -24.7092   -9.7314   21.1751 C   0  0  0  0  0  0  0  0  0  0  0  0
  -22.0368   -8.9338   21.2439 C   0  0  0  0  0  0  0  0  0  0  0  0
  -24.2936   -8.7633   22.0893 C   0  0  0  0  0  0  0  0  0  0  0  0
  -27.1565  -15.5212   22.1059 C   0  0  0  0  0  0  0  0  0  0  0  0
  -27.1370  -17.7200   22.1126 C   0  0  0  0  0  0  0  0  0  0  0  0
  -24.2120  -22.9816   30.0327 C   0  0  0  0  0  0  0  0  0  0  0  0
  -25.3755  -16.6926   20.6669 C   0  0  0  0  0  0  0  0  0  0  0  0
  -28.4508  -28.2069   21.1173 C   0  0  0  0  0  0  0  0  0  0  0  0
  -28.4306  -23.3564   25.8583 C   0  0  0  0  0  0  0  0  0  0  0  0
  -26.6117  -30.6627   22.1704 C   0  0  0  0  0  0  0  0  0  0  0  0
  -23.4488  -22.1896   23.9183 C   0  0  0  0  0  0  0  0  0  0  0  0
  -23.4843  -31.8915   22.7675 C   0  0  0  0  0  0  0  0  0  0  0  0
  -29.4416  -20.3319   26.4730 C   0  0  0  0  0  0  0  0  0  0  0  0
  -33.2725  -27.5383   19.5805 C   0  0  0  0  0  0  0  0  0  0  0  0
  -26.8404  -28.4887   19.1980 C   0  0  0  0  0  0  0  0  0  0  0  0
  -25.4456  -28.4553   21.8054 C   0  0  0  0  0  0  0  0  0  0  0  0
  -32.5432  -28.5239   20.4900 C   0  0  0  0  0  0  0  0  0  0  0  0
  -31.4692  -17.9963   24.7092 C   0  0  0  0  0  0  0  0  0  0  0  0
  -31.6549  -27.7787   21.4812 C   0  0  0  0  0  0  0  0  0  0  0  0
  -30.4721  -17.2327   23.8358 C   0  0  0  0  0  0  0  0  0  0  0  0
  -30.8723  -18.3503   26.0695 C   0  0  0  0  0  0  0  0  0  0  0  0
  -28.5903  -18.3084   25.1398 C   0  0  0  0  0  0  0  0  0  0  0  0
  -30.5768  -26.9665   20.7534 C   0  0  1  0  0  0  0  0  0  0  0  0
  -27.4567  -29.1122   20.4466 C   0  0  1  0  0  0  0  0  0  0  0  0
  -29.1276  -17.9782   23.7368 C   0  0  2  0  0  0  0  0  0  0  0  0
  -25.0447  -22.3973   31.1366 C   0  0  0  0  0  0  0  0  0  0  0  0
  -29.4840  -24.1835   23.7117 C   0  0  0  0  0  0  0  0  0  0  0  0
  -22.3008  -33.9135   23.6665 C   0  0  0  0  0  0  0  0  0  0  0  0
  -27.3261  -29.8141   25.0128 C   0  0  0  0  0  0  0  0  0  0  0  0
  -25.4189  -31.2123   25.8351 C   0  0  0  0  0  0  0  0  0  0  0  0
  -27.3222  -32.2858   24.6318 C   0  0  0  0  0  0  0  0  0  0  0  0
  -22.1129  -32.3780   20.1904 C   0  0  0  0  0  0  0  0  0  0  0  0
  -29.0192  -22.9755   24.5075 C   0  0  0  0  0  0  0  0  0  0  0  0
  -22.1449  -22.1795   23.1325 C   0  0  0  0  0  0  0  0  0  0  0  0
  -22.3171  -22.6798   21.7025 C   0  0  0  0  0  0  0  0  0  0  0  0
  -22.7917  -24.1252   21.6658 C   0  0  0  0  0  0  0  0  0  1  0  0
  -27.8951  -22.2483   26.7812 C   0  0  2  0  0  0  0  0  0  0  0  0
  -25.6744  -30.8735   23.3349 C   0  0  1  0  0  0  0  0  0  0  0  0
  -22.8431  -33.2239   22.4243 C   0  0  2  0  0  0  0  0  0  0  0  0
  -26.4310  -31.0258   24.6846 C   0  0  0  0  0  0  0  0  0  0  0  0
  -28.1560  -15.8622   22.9237 N   0  0  0  0  0  0  0  0  0  0  0  0
  -28.1190  -17.2055   22.9071 N   0  0  0  0  0  0  0  0  0  0  0  0
  -26.4552  -29.4676   21.4540 N   0  0  0  0  0  0  0  0  0  0  0  0
  -29.5996  -19.0568   25.9052 N   0  0  0  0  0  0  0  0  0  0  0  0
  -26.9590  -19.0518   21.9816 N   0  0  0  0  0  0  0  0  0  0  0  0
  -24.8276  -15.4870   20.2081 N   0  0  0  0  0  0  0  0  0  0  0  0
  -23.2009  -22.3968   25.2724 N   0  0  0  0  0  0  0  0  0  0  0  0
  -29.5063  -27.8325   20.3078 N   0  0  0  0  0  0  0  0  0  0  0  0
  -24.8400  -32.0181   22.9852 N   0  0  0  0  0  0  0  0  0  0  0  0
  -28.2069  -20.9342   26.2647 N   0  0  0  0  0  0  0  0  0  0  0  0
  -21.7177  -33.0260   21.4675 N   0  3  0  0  0  0  0  0  0  0  0  0
  -23.2014  -23.6106   30.3531 O   0  0  0  0  0  0  0  0  0  0  0  0
  -24.8937  -17.7785   20.2640 O   0  0  0  0  0  0  0  0  0  0  0  0
  -28.2740  -27.8739   22.2833 O   0  0  0  0  0  0  0  0  0  0  0  0
  -28.3878  -24.5324   26.2304 O   0  0  0  0  0  0  0  0  0  0  0  0
  -27.4469  -31.5297   21.9017 O   0  0  0  0  0  0  0  0  0  0  0  0
  -24.5373  -22.0316   23.3757 O   0  0  0  0  0  0  0  0  0  0  0  0
  -22.8458  -30.8438   22.8394 O   0  0  0  0  0  0  0  0  0  0  0  0
  -30.3365  -20.8942   27.1132 O   0  0  0  0  0  0  0  0  0  0  0  0
  -26.0352  -10.1290   21.1402 O   0  0  0  0  0  0  0  0  0  0  0  0
  -22.9466  -24.5257   20.3049 O   0  0  0  0  0  0  0  0  0  1  0  0
  -20.7533   -8.5520   21.2779 F   0  0  0  0  0  0  0  0  0  0  0  0
  -25.1732   -8.2137   22.9379 F   0  0  0  0  0  0  0  0  0  0  0  0
  1  2  1  0  0  0  0
  1  5  2  0  0  0  0
  2  6  2  0  0  0  0
  3  8  2  0  0  0  0
  3 18  1  0  0  0  0
  4  9  1  0  0  0  0
  4 18  2  0  0  0  0
  5 21  1  0  0  0  0
  6 23  1  0  0  0  0
  7 10  2  0  0  0  0
  7 22  1  0  0  0  0
  8 27  1  0  0  0  0
  9 27  2  0  0  0  0
 10 28  1  0  0  0  0
 11 12  2  0  0  0  0
 11 29  1  0  0  0  0
 12 30  1  0  0  0  0
 13 19  1  0  0  0  0
 13 25  2  0  0  0  0
 14 19  2  0  0  0  0
 14 26  1  0  0  0  0
 15 24  1  0  0  0  0
 15 28  2  0  0  0  0
 16 25  1  0  0  0  0
 16 26  2  0  0  0  0
 17 30  2  0  0  0  0
 17 31  1  0  0  0  0
 18 32  1  0  0  0  0
 19 34  1  0  0  0  0
 20 32  1  0  0  0  0
 20 33  2  0  0  0  0
 20 35  1  0  0  0  0
 21 23  2  0  0  0  0
 21 42  1  0  0  0  0
 22 24  2  0  0  0  0
 22 43  1  0  0  0  0
 23 51  1  0  0  0  0
 24 44  1  0  0  0  0
 25 65  1  0  0  0  0
 26 75  1  0  0  0  0
 27 88  1  0  0  0  0
 28 89  1  0  0  0  0
 29 31  2  0  0  0  0
 29 88  1  0  0  0  0
 30 90  1  0  0  0  0
 31 91  1  0  0  0  0
 32 69  2  0  0  0  0
 33 70  1  0  0  0  0
 33 73  1  0  0  0  0
 34 54  1  0  0  0  0
 34 80  2  0  0  0  0
 35 74  1  0  0  0  0
 35 81  2  0  0  0  0
 36 52  1  0  0  0  0
 36 76  1  0  0  0  0
 36 82  2  0  0  0  0
 37 61  1  0  0  0  0
 37 65  1  0  0  0  0
 37 83  2  0  0  0  0
 38 66  1  0  0  0  0
 38 71  1  0  0  0  0
 38 84  2  0  0  0  0
 39 62  1  0  0  0  0
 39 75  1  0  0  0  0
 39 85  2  0  0  0  0
 40 67  1  0  0  0  0
 40 77  1  0  0  0  0
 40 86  2  0  0  0  0
 41 72  1  0  0  0  0
 41 78  1  0  0  0  0
 41 87  2  0  0  0  0
 42 45  1  0  0  0  0
 43 52  1  0  0  0  0
 44 71  1  0  0  0  0
 45 47  1  0  0  0  0
 46 48  1  0  0  0  0
 46 49  1  0  0  0  0
 47 51  1  0  0  0  0
 48 53  1  0  0  0  0
 49 72  1  0  0  0  0
 50 53  1  0  0  0  0
 50 72  1  0  0  0  0
 51 76  1  0  0  0  0
 52 71  1  0  0  0  0
 53 70  1  0  0  0  0
 55 61  1  0  0  0  0
 56 67  1  0  0  0  0
 57 68  1  0  0  0  0
 58 68  1  0  0  0  0
 59 68  1  0  0  0  0
 60 79  1  0  0  0  0
 62 63  1  0  0  0  0
 63 64  1  0  0  0  0
 64 89  1  0  0  0  0
 65 78  1  0  0  0  0
 66 68  1  0  0  0  0
 66 77  1  0  0  0  0
 67 79  1  0  0  0  0
 69 70  1  0  0  0  0
M  CHG  1  79   1
M  ISO  4  41 100  64 101  78 100  89 101
M  END
> <Batch ID>
0166

> <Smiles>
CCC(=O)C([100NH:0][100C:0](=O)N1CCCC(n2nc(-c3ccc(Oc4ccc(F)cc4F)cc3)c(C(N)=O)c2N)C1)c1cc(NC(=O)CC[101CH2:1][101O:1]c2ccc3c(c2)CN(C(=O)C(NC(=O)C(C)NC)C(C)(C)C)C(C(=O)NC2CCCc4ccccc42)C3)cc(C(C)=O)c1

> <Shape>
0.208

> <Color>
0.061

> <Negative vol penalty>
0.000

$$$$

  -OEChem-04052304083D

 85 93  0     1  0  0  0  0  0999 V2000
  -28.8903  -37.5089   22.6526 C   0  0  0  0  0  0  0  0  0  0  0  0
  -29.2587  -36.2501   22.1887 C   0  0  0  0  0  0  0  0  0  0  0  0
  -25.3034   -8.8833   20.7637 C   0  0  0  0  0  0  0  0  0  0  0  0
  -25.9017   -9.7541   22.9365 C   0  0  0  0  0  0  0  0  0  0  0  0
  -27.8562  -37.6337   23.5794 C   0  0  0  0  0  0  0  0  0  0  0  0
  -28.5940  -35.1153   22.6523 C   0  0  0  0  0  0  0  0  0  0  0  0
  -27.3490  -30.0256   19.4820 C   0  0  0  0  0  0  0  0  0  0  0  0
  -25.5498   -7.5869   21.2154 C   0  0  0  0  0  0  0  0  0  0  0  0
  -26.1481   -8.4576   23.3882 C   0  0  0  0  0  0  0  0  0  0  0  0
  -27.9802  -28.7843   19.4151 C   0  0  0  0  0  0  0  0  0  0  0  0
  -23.9649   -5.2567   23.0839 C   0  0  0  0  0  0  0  0  0  0  0  0
  -23.0302   -4.2711   22.7668 C   0  0  0  0  0  0  0  0  0  0  0  0
  -27.7661  -20.2299   22.9877 C   0  0  0  0  0  0  0  0  0  0  0  0
  -26.4405  -27.9194   21.0584 C   0  0  0  0  0  0  0  0  0  0  0  0
  -24.7364   -3.0323   21.5873 C   0  0  0  0  0  0  0  0  0  0  0  0
  -25.4794   -9.9670   21.6242 C   0  0  0  0  0  0  0  0  0  0  0  0
  -28.0996  -18.8790   23.2468 C   0  0  0  0  0  0  0  0  0  0  0  0
  -24.0068  -12.0089   21.2124 C   0  0  0  0  0  0  0  0  0  0  0  0
  -27.1721  -36.5008   24.0473 C   0  0  0  0  0  0  0  0  0  0  0  0
  -26.2638  -30.2266   20.3472 C   0  0  0  0  0  0  0  0  0  0  0  0
  -27.5508  -35.2251   23.5873 C   0  0  0  0  0  0  0  0  0  0  0  0
  -25.7956  -29.1635   21.1326 C   0  0  0  0  0  0  0  0  0  0  0  0
  -25.9721   -7.3740   22.5276 C   0  0  0  0  0  0  0  0  0  0  0  0
  -27.5278  -27.7318   20.2054 C   0  0  0  0  0  0  0  0  0  0  0  0
  -25.2854   -5.1301   22.6526 C   0  0  0  0  0  0  0  0  0  0  0  0
  -23.4159   -3.1589   22.0186 C   0  0  0  0  0  0  0  0  0  0  0  0
  -25.6711   -4.0179   21.9044 C   0  0  0  0  0  0  0  0  0  0  0  0
  -25.2256  -11.3065   21.1581 C   0  0  0  0  0  0  0  0  0  0  0  0
  -29.1737  -18.5888   22.4380 C   0  0  0  0  0  0  0  0  0  0  0  0
  -24.2879  -13.2286   20.6471 C   0  0  0  0  0  0  0  0  0  0  0  0
  -28.6603  -20.6690   22.0393 C   0  0  0  0  0  0  0  0  0  0  0  0
  -27.4719  -17.9674   24.1567 C   0  0  0  0  0  0  0  0  0  0  0  0
  -22.7343  -11.5957   21.7279 C   0  0  0  0  0  0  0  0  0  0  0  0
  -25.7061  -32.1105   22.8458 C   0  0  0  0  0  0  0  0  0  0  0  0
  -28.4276  -24.2084   20.8144 C   0  0  0  0  0  0  0  0  0  0  0  0
  -22.7142  -30.8789   22.6127 C   0  0  0  0  0  0  0  0  0  0  0  0
  -20.7048  -28.3286   21.5618 C   0  0  0  0  0  0  0  0  0  0  0  0
  -29.3455  -16.3774   20.0498 C   0  0  0  0  0  0  0  0  0  0  0  0
  -26.0924  -36.6817   25.0848 C   0  0  0  0  0  0  0  0  0  0  0  0
  -25.5769  -31.5640   20.3881 C   0  0  0  0  0  0  0  0  0  0  0  0
  -24.6217  -29.3218   22.0627 C   0  0  0  0  0  0  0  0  0  0  0  0
  -25.1891  -35.4614   25.2430 C   0  0  0  0  0  0  0  0  0  0  0  0
  -27.1780  -15.2932   17.4415 C   0  0  0  0  0  0  0  0  0  0  0  0
  -26.0233  -34.1872   25.3295 C   0  0  0  0  0  0  0  0  0  0  0  0
  -26.3219  -14.2119   18.1032 C   0  0  0  0  0  0  0  0  0  0  0  0
  -28.6149  -15.2698   17.9579 C   0  0  0  0  0  0  0  0  0  0  0  0
  -27.8909  -14.2610   20.0867 C   0  0  0  0  0  0  0  0  0  0  0  0
  -26.8371  -33.9725   24.0477 C   0  0  1  0  0  0  0  0  0  0  0  0
  -24.8062  -31.8006   21.6832 C   0  0  1  0  0  0  0  0  0  0  0  0
  -26.4193  -14.2812   19.6390 C   0  0  2  0  0  0  0  0  0  0  0  0
  -26.2975  -18.4628   24.9686 C   0  0  0  0  0  0  0  0  0  0  0  0
  -18.3073  -27.5876   21.5472 C   0  0  0  0  0  0  0  0  0  0  0  0
  -22.9366  -30.1098   25.5570 C   0  0  0  0  0  0  0  0  0  0  0  0
  -20.9830  -28.5780   25.2325 C   0  0  0  0  0  0  0  0  0  0  0  0
  -20.7117  -31.0333   24.8852 C   0  0  0  0  0  0  0  0  0  0  0  0
  -20.6069  -28.3119   18.6039 C   0  0  0  0  0  0  0  0  0  0  0  0
  -29.9853  -17.3801   22.2279 C   0  0  0  0  0  0  0  0  0  0  0  0
  -27.9797  -23.0405   21.6672 C   0  0  0  0  0  0  0  0  0  0  0  0
  -27.6269  -25.4854   20.9799 C   0  0  0  0  0  0  0  0  0  1  0  0
  -22.0051  -29.6770   23.1883 C   0  0  1  0  0  0  0  0  0  0  0  0
  -19.3979  -28.3286   20.7894 C   0  0  2  0  0  0  0  0  0  0  0  0
  -21.6824  -29.8468   24.6997 C   0  0  0  0  0  0  0  0  0  0  0  0
  -26.2078  -12.0206   20.6020 N   0  0  0  0  0  0  0  0  0  0  0  0
  -25.6065  -13.1843   20.3016 N   0  0  0  0  0  0  0  0  0  0  0  0
  -23.9874  -30.6504   22.0718 N   0  0  0  0  0  0  0  0  0  0  0  0
  -28.6374  -15.3400   19.4209 N   0  0  0  0  0  0  0  0  0  0  0  0
  -23.5333  -14.3240   20.4167 N   0  0  0  0  0  0  0  0  0  0  0  0
  -22.6201  -10.3099   22.2738 N   0  0  0  0  0  0  0  0  0  0  0  0
  -28.8153  -21.8957   21.4097 N   0  0  0  0  0  0  0  0  0  0  0  0
  -25.9920  -33.4544   22.9933 N   0  0  0  0  0  0  0  0  0  0  0  0
  -20.8332  -29.4536   22.3485 N   0  0  0  0  0  0  0  0  0  0  0  0
  -29.3103  -16.3739   21.4388 N   0  0  0  0  0  0  0  0  0  0  0  0
  -19.5793  -27.6712   19.4643 N   0  3  0  0  0  0  0  0  0  0  0  0
  -27.8094  -16.7846   24.3509 O   0  0  0  0  0  0  0  0  0  0  0  0
  -21.7242  -12.3385   21.6902 O   0  0  0  0  0  0  0  0  0  0  0  0
  -26.1099  -31.1982   23.5574 O   0  0  0  0  0  0  0  0  0  0  0  0
  -29.3770  -24.1376   20.0350 O   0  0  0  0  0  0  0  0  0  0  0  0
  -22.1561  -31.9787   22.6356 O   0  0  0  0  0  0  0  0  0  0  0  0
  -21.5277  -27.4195   21.4785 O   0  0  0  0  0  0  0  0  0  0  0  0
  -29.9589  -17.2457   19.4199 O   0  0  0  0  0  0  0  0  0  0  0  0
  -29.5217  -19.6747   21.6988 O   0  0  0  0  0  0  0  0  0  0  0  0
  -26.2124   -6.1090   22.9688 O   0  0  0  0  0  0  0  0  0  0  0  0
  -28.1425  -26.5193   20.1424 O   0  0  0  0  0  0  0  0  0  1  0  0
  -22.5185   -2.2118   21.7155 F   0  0  0  0  0  0  0  0  0  0  0  0
  -26.9385   -3.8901   21.4882 F   0  0  0  0  0  0  0  0  0  0  0  0
  1  2  1  0  0  0  0
  1  5  2  0  0  0  0
  2  6  2  0  0  0  0
  3  8  2  0  0  0  0
  3 16  1  0  0  0  0
  4  9  1  0  0  0  0
  4 16  2  0  0  0  0
  5 19  1  0  0  0  0
  6 21  1  0  0  0  0
  7 10  2  0  0  0  0
  7 20  1  0  0  0  0
  8 23  1  0  0  0  0
  9 23  2  0  0  0  0
 10 24  1  0  0  0  0
 11 12  2  0  0  0  0
 11 25  1  0  0  0  0
 12 26  1  0  0  0  0
 13 17  1  0  0  0  0
 13 31  2  0  0  0  0
 14 22  1  0  0  0  0
 14 24  2  0  0  0  0
 15 26  2  0  0  0  0
 15 27  1  0  0  0  0
 16 28  1  0  0  0  0
 17 29  2  0  0  0  0
 17 32  1  0  0  0  0
 18 28  1  0  0  0  0
 18 30  2  0  0  0  0
 18 33  1  0  0  0  0
 19 21  2  0  0  0  0
 19 39  1  0  0  0  0
 20 22  2  0  0  0  0
 20 40  1  0  0  0  0
 21 48  1  0  0  0  0
 22 41  1  0  0  0  0
 23 82  1  0  0  0  0
 24 83  1  0  0  0  0
 25 27  2  0  0  0  0
 25 82  1  0  0  0  0
 26 84  1  0  0  0  0
 27 85  1  0  0  0  0
 28 63  2  0  0  0  0
 29 57  1  0  0  0  0
 29 81  1  0  0  0  0
 30 64  1  0  0  0  0
 30 67  1  0  0  0  0
 31 69  1  0  0  0  0
 31 81  1  0  0  0  0
 32 51  1  0  0  0  0
 32 74  2  0  0  0  0
 33 68  1  0  0  0  0
 33 75  2  0  0  0  0
 34 49  1  0  0  0  0
 34 70  1  0  0  0  0
 34 76  2  0  0  0  0
 35 58  1  0  0  0  0
 35 59  1  0  0  0  0
 35 77  2  0  0  0  0
 36 60  1  0  0  0  0
 36 65  1  0  0  0  0
 36 78  2  0  0  0  0
 37 61  1  0  0  0  0
 37 71  1  0  0  0  0
 37 79  2  0  0  0  0
 38 66  1  0  0  0  0
 38 72  1  0  0  0  0
 38 80  2  0  0  0  0
 39 42  1  0  0  0  0
 40 49  1  0  0  0  0
 41 65  1  0  0  0  0
 42 44  1  0  0  0  0
 43 45  1  0  0  0  0
 43 46  1  0  0  0  0
 44 48  1  0  0  0  0
 45 50  1  0  0  0  0
 46 66  1  0  0  0  0
 47 50  1  0  0  0  0
 47 66  1  0  0  0  0
 48 70  1  0  0  0  0
 49 65  1  0  0  0  0
 50 64  1  0  0  0  0
 52 61  1  0  0  0  0
 53 62  1  0  0  0  0
 54 62  1  0  0  0  0
 55 62  1  0  0  0  0
 56 73  1  0  0  0  0
 57 72  1  0  0  0  0
 58 69  1  0  0  0  0
 59 83  1  0  0  0  0
 60 62  1  0  0  0  0
 60 71  1  0  0  0  0
 61 73  1  0  0  0  0
 63 64  1  0  0  0  0
M  CHG  1  73   1
M  ISO  4  38 100  59 101  72 100  83 101
M  END
> <Batch ID>
0166

> <Smiles>
CNC(C)C(=O)NC(C(=O)N1Cc2cc([101O:1][101CH2:1]C(=O)CNc3cc(C(C)=O)c(C[100NH:0][100C:0](=O)N4CCCC(n5nc(-c6ccc(Oc7ccc(F)cc7F)cc6)c(C(N)=O)c5N)C4)o3)ccc2CC1C(=O)NC1CCCc2ccccc21)C(C)(C)C

> <Shape>
0.280

> <Color>
0.102

> <Negative vol penalty>
0.000

$$$$

  -OEChem-04052304083D

 86 94  0     1  0  0  0  0  0999 V2000
  -22.9884  -31.2754   24.7980 C   0  0  0  0  0  0  0  0  0  0  0  0
  -22.7473  -29.9058   24.8371 C   0  0  0  0  0  0  0  0  0  0  0  0
  -28.0787  -18.9490   25.8269 C   0  0  0  0  0  0  0  0  0  0  0  0
  -30.2632  -19.9416   26.1090 C   0  0  0  0  0  0  0  0  0  0  0  0
  -25.8519  -12.0267   19.9343 C   0  0  0  0  0  0  0  0  0  0  0  0
  -23.5226  -31.8554   23.6482 C   0  0  0  0  0  0  0  0  0  0  0  0
  -23.0394  -29.1156   23.7260 C   0  0  0  0  0  0  0  0  0  0  0  0
  -25.0783  -23.3408   23.7490 C   0  0  0  0  0  0  0  0  0  0  0  0
  -27.8376  -19.0910   27.1934 C   0  0  0  0  0  0  0  0  0  0  0  0
  -30.0222  -20.0836   27.4755 C   0  0  0  0  0  0  0  0  0  0  0  0
  -24.4308  -22.1168   23.5871 C   0  0  0  0  0  0  0  0  0  0  0  0
  -26.7898  -18.8637   30.6681 C   0  0  0  0  0  0  0  0  0  0  0  0
  -24.5130  -12.1478   20.3059 C   0  0  0  0  0  0  0  0  0  0  0  0
  -26.2283  -17.7812   31.3451 C   0  0  0  0  0  0  0  0  0  0  0  0
  -26.2219  -14.3432   20.5124 C   0  0  0  0  0  0  0  0  0  0  0  0
  -25.0176  -22.1226   21.2473 C   0  0  0  0  0  0  0  0  0  0  0  0
  -28.1230  -16.4139   30.7304 C   0  0  0  0  0  0  0  0  0  0  0  0
  -29.2915  -19.3742   25.2847 C   0  0  0  0  0  0  0  0  0  0  0  0
  -26.7064  -13.1244   20.0376 C   0  0  0  0  0  0  0  0  0  0  0  0
  -29.2503  -20.1571   22.8571 C   0  0  0  0  0  0  0  0  0  0  0  0
  -23.8304  -31.0704   22.5258 C   0  0  0  0  0  0  0  0  0  0  0  0
  -25.6920  -23.9712   22.6570 C   0  0  0  0  0  0  0  0  0  0  0  0
  -23.5771  -29.6859   22.5596 C   0  0  0  0  0  0  0  0  0  0  0  0
  -25.6745  -23.3533   21.3985 C   0  0  0  0  0  0  0  0  0  0  0  0
  -24.8829  -14.4643   20.8839 C   0  0  0  0  0  0  0  0  0  0  0  0
  -28.8094  -19.6584   28.0177 C   0  0  0  0  0  0  0  0  0  0  0  0
  -24.3978  -21.5089   22.3355 C   0  0  0  0  0  0  0  0  0  0  0  0
  -28.0179  -18.7214   30.0222 C   0  0  0  0  0  0  0  0  0  0  0  0
  -26.8948  -16.5563   31.3763 C   0  0  0  0  0  0  0  0  0  0  0  0
  -24.0284  -13.3666   20.7807 C   0  0  0  0  0  0  0  0  0  0  0  0
  -28.6845  -17.4965   30.0533 C   0  0  0  0  0  0  0  0  0  0  0  0
  -29.5413  -19.2273   23.8732 C   0  0  0  0  0  0  0  0  0  0  0  0
  -29.6769  -19.5483   21.7022 C   0  0  0  0  0  0  0  0  0  0  0  0
  -24.5023  -19.2512   21.7331 C   0  0  0  0  0  0  0  0  0  1  0  0
  -28.1325  -12.9949   19.6420 C   0  0  0  0  0  0  0  0  0  0  0  0
  -28.6482  -21.4551   22.9490 C   0  0  0  0  0  0  0  0  0  0  0  0
  -24.2281  -17.9836   22.0641 C   0  0  0  0  0  0  0  0  0  0  0  0
  -25.0986  -16.8870   21.5275 C   0  0  0  0  0  0  0  0  0  0  0  0
  -25.2732  -26.7292   21.1333 C   0  0  0  0  0  0  0  0  0  0  0  0
  -27.9447  -25.8076   19.5408 C   0  0  0  0  0  0  0  0  0  0  0  0
  -29.9737  -23.2619   18.5164 C   0  0  0  0  0  0  0  0  0  0  0  0
  -30.4023  -13.8736   20.0888 C   0  0  0  0  0  0  0  0  0  0  0  0
  -24.3624  -31.7496   21.2887 C   0  0  0  0  0  0  0  0  0  0  0  0
  -26.4095  -25.2785   22.8538 C   0  0  0  0  0  0  0  0  0  0  0  0
  -26.3357  -23.9790   20.1985 C   0  0  0  0  0  0  0  0  0  0  0  0
  -24.9935  -30.7850   20.2880 C   0  0  0  0  0  0  0  0  0  0  0  0
  -32.8988  -16.3764   20.1095 C   0  0  0  0  0  0  0  0  0  0  0  0
  -24.0944  -29.5710   20.0767 C   0  0  0  0  0  0  0  0  0  0  0  0
  -32.2906  -17.4859   20.9718 C   0  0  0  0  0  0  0  0  0  0  0  0
  -32.5470  -14.9876   20.6409 C   0  0  0  0  0  0  0  0  0  0  0  0
  -30.5119  -15.8548   21.7199 C   0  0  0  0  0  0  0  0  0  0  0  0
  -23.9038  -28.7915   21.3834 C   0  0  1  0  0  0  0  0  0  0  0  0
  -26.5576  -26.0789   21.5636 C   0  0  1  0  0  0  0  0  0  0  0  0
  -30.7788  -17.2714   21.1860 C   0  0  1  0  0  0  0  0  0  0  0  0
  -31.9732  -22.1481   17.4874 C   0  0  0  0  0  0  0  0  0  0  0  0
  -26.3954  -26.2367   16.9474 C   0  0  0  0  0  0  0  0  0  0  0  0
  -28.1495  -24.9018   15.7602 C   0  0  0  0  0  0  0  0  0  0  0  0
  -28.7637  -27.0381   16.8925 C   0  0  0  0  0  0  0  0  0  0  0  0
  -31.4855  -23.3668   21.0586 C   0  0  0  0  0  0  0  0  0  0  0  0
  -28.2219  -25.0042   18.2931 C   0  0  1  0  0  0  0  0  0  0  0  0
  -31.4806  -23.0885   18.5764 C   0  0  2  0  0  0  0  0  0  0  0  0
  -27.8684  -25.7841   16.9953 C   0  0  0  0  0  0  0  0  0  0  0  0
  -30.1088  -18.1125   23.4050 N   0  0  0  0  0  0  0  0  0  0  0  0
  -30.1777  -18.3379   22.0819 N   0  0  0  0  0  0  0  0  0  0  0  0
  -27.0190  -25.2604   20.4405 N   0  0  0  0  0  0  0  0  0  0  0  0
  -31.0979  -14.8621   20.8067 N   0  0  0  0  0  0  0  0  0  0  0  0
  -29.6687  -19.9357   20.4090 N   0  0  0  0  0  0  0  0  0  0  0  0
  -28.2693  -21.9279   24.2128 N   0  0  0  0  0  0  0  0  0  0  0  0
  -24.3933  -15.7026   21.3648 N   0  0  0  0  0  0  0  0  0  0  0  0
  -29.0166  -13.8629   20.2834 N   0  0  0  0  0  0  0  0  0  0  0  0
  -25.0733  -27.9878   21.6676 N   0  0  0  0  0  0  0  0  0  0  0  0
  -29.6172  -24.5867   18.3780 N   0  0  0  0  0  0  0  0  0  0  0  0
  -31.8857  -22.5307   19.8976 N   0  3  0  0  0  0  0  0  0  0  0  0
  -28.4514  -12.1323   18.8283 O   0  0  0  0  0  0  0  0  0  0  0  0
  -28.4370  -22.1674   21.9383 O   0  0  0  0  0  0  0  0  0  0  0  0
  -26.2841  -17.0857   21.2844 O   0  0  0  0  0  0  0  0  0  0  0  0
  -24.5201  -26.1339   20.3717 O   0  0  0  0  0  0  0  0  0  0  0  0
  -28.5334  -26.8777   19.7142 O   0  0  0  0  0  0  0  0  0  0  0  0
  -29.1913  -22.3164   18.5818 O   0  0  0  0  0  0  0  0  0  0  0  0
  -30.9613  -13.0926   19.3124 O   0  0  0  0  0  0  0  0  0  0  0  0
  -23.1720  -17.6426   22.8845 O   0  0  0  0  0  0  0  0  0  0  0  0
  -28.5744  -19.7973   29.3511 O   0  0  0  0  0  0  0  0  0  0  0  0
  -23.7659  -20.3145   22.1747 O   0  0  0  0  0  0  0  0  0  1  0  0
  -26.3562  -15.5172   32.0277 F   0  0  0  0  0  0  0  0  0  0  0  0
  -22.7399  -13.4714   21.1351 F   0  0  0  0  0  0  0  0  0  0  0  0
  -29.8651  -17.3540   29.4356 F   0  0  0  0  0  0  0  0  0  0  0  0
  1  2  1  0  0  0  0
  1  6  2  0  0  0  0
  2  7  2  0  0  0  0
  3  9  2  0  0  0  0
  3 18  1  0  0  0  0
  4 10  1  0  0  0  0
  4 18  2  0  0  0  0
  5 13  2  0  0  0  0
  5 19  1  0  0  0  0
  6 21  1  0  0  0  0
  7 23  1  0  0  0  0
  8 11  2  0  0  0  0
  8 22  1  0  0  0  0
  9 26  1  0  0  0  0
 10 26  2  0  0  0  0
 11 27  1  0  0  0  0
 12 14  2  0  0  0  0
 12 28  1  0  0  0  0
 13 30  1  0  0  0  0
 14 29  1  0  0  0  0
 15 19  2  0  0  0  0
 15 25  1  0  0  0  0
 16 24  1  0  0  0  0
 16 27  2  0  0  0  0
 17 29  2  0  0  0  0
 17 31  1  0  0  0  0
 18 32  1  0  0  0  0
 19 35  1  0  0  0  0
 20 32  1  0  0  0  0
 20 33  2  0  0  0  0
 20 36  1  0  0  0  0
 21 23  2  0  0  0  0
 21 43  1  0  0  0  0
 22 24  2  0  0  0  0
 22 44  1  0  0  0  0
 23 52  1  0  0  0  0
 24 45  1  0  0  0  0
 25 30  2  0  0  0  0
 25 69  1  0  0  0  0
 26 82  1  0  0  0  0
 27 83  1  0  0  0  0
 28 31  2  0  0  0  0
 28 82  1  0  0  0  0
 29 84  1  0  0  0  0
 30 85  1  0  0  0  0
 31 86  1  0  0  0  0
 32 63  2  0  0  0  0
 33 64  1  0  0  0  0
 33 67  1  0  0  0  0
 34 37  2  0  0  0  0
 34 83  1  0  0  0  0
 35 70  1  0  0  0  0
 35 74  2  0  0  0  0
 36 68  1  0  0  0  0
 36 75  2  0  0  0  0
 37 38  1  0  0  0  0
 37 81  1  0  0  0  0
 38 69  1  0  0  0  0
 38 76  2  0  0  0  0
 39 53  1  0  0  0  0
 39 71  1  0  0  0  0
 39 77  2  0  0  0  0
 40 60  1  0  0  0  0
 40 65  1  0  0  0  0
 40 78  2  0  0  0  0
 41 61  1  0  0  0  0
 41 72  1  0  0  0  0
 41 79  2  0  0  0  0
 42 66  1  0  0  0  0
 42 70  1  0  0  0  0
 42 80  2  0  0  0  0
 43 46  1  0  0  0  0
 44 53  1  0  0  0  0
 45 65  1  0  0  0  0
 46 48  1  0  0  0  0
 47 49  1  0  0  0  0
 47 50  1  0  0  0  0
 48 52  1  0  0  0  0
 49 54  1  0  0  0  0
 50 66  1  0  0  0  0
 51 54  1  0  0  0  0
 51 66  1  0  0  0  0
 52 71  1  0  0  0  0
 53 65  1  0  0  0  0
 54 64  1  0  0  0  0
 55 61  1  0  0  0  0
 56 62  1  0  0  0  0
 57 62  1  0  0  0  0
 58 62  1  0  0  0  0
 59 73  1  0  0  0  0
 60 62  1  0  0  0  0
 60 72  1  0  0  0  0
 61 73  1  0  0  0  0
 63 64  1  0  0  0  0
M  CHG  1  73   1
M  ISO  4  34 101  42 100  70 100  83 101
M  END
> <Batch ID>
0166

> <Smiles>
CNC(C)C(=O)NC(C(=O)N1Cc2cc([101O:1][101CH2:1]C(=O)C(=O)Nc3cc(C(=O)[100NH:0][100C:0](=O)N4CCCC(n5nc(-c6ccc(Oc7ccc(F)cc7F)cc6)c(C(N)=O)c5N)C4)ccc3F)ccc2CC1C(=O)NC1CCCc2ccccc21)C(C)(C)C

> <Shape>
0.204

> <Color>
0.062

> <Negative vol penalty>
0.000

$$$$

  -OEChem-04052304083D

 84 92  0     1  0  0  0  0  0999 V2000
  -21.6382  -29.1721   23.0436 C   0  0  0  0  0  0  0  0  0  0  0  0
  -22.4012  -28.0540   23.3646 C   0  0  0  0  0  0  0  0  0  0  0  0
  -23.0005   -9.8910   19.9839 C   0  0  0  0  0  0  0  0  0  0  0  0
  -23.7190   -9.9519   22.2898 C   0  0  0  0  0  0  0  0  0  0  0  0
  -22.2215  -30.4385   23.0518 C   0  0  0  0  0  0  0  0  0  0  0  0
  -23.7484  -28.2015   23.6929 C   0  0  0  0  0  0  0  0  0  0  0  0
  -25.0679  -25.4777   27.7530 C   0  0  0  0  0  0  0  0  0  0  0  0
  -22.2331   -8.7577   20.2529 C   0  0  0  0  0  0  0  0  0  0  0  0
  -22.9515   -8.8186   22.5588 C   0  0  0  0  0  0  0  0  0  0  0  0
  -25.2709  -24.1113   27.5645 C   0  0  0  0  0  0  0  0  0  0  0  0
  -23.1969   -5.4777   22.1021 C   0  0  0  0  0  0  0  0  0  0  0  0
  -23.7821   -4.4637   22.8604 C   0  0  0  0  0  0  0  0  0  0  0  0
  -27.6538  -24.4806   27.4974 C   0  0  0  0  0  0  0  0  0  0  0  0
  -31.1918  -17.6054   20.5657 C   0  0  0  0  0  0  0  0  0  0  0  0
  -30.6455  -19.8106   21.3877 C   0  0  0  0  0  0  0  0  0  0  0  0
  -29.5311  -17.8709   22.3002 C   0  0  0  0  0  0  0  0  0  0  0  0
  -22.0534   -4.7141   24.5295 C   0  0  0  0  0  0  0  0  0  0  0  0
  -23.7435  -10.4881   21.0023 C   0  0  0  0  0  0  0  0  0  0  0  0
  -24.1296  -13.0028   20.8165 C   0  0  0  0  0  0  0  0  0  0  0  0
  -23.5741  -30.6026   23.3898 C   0  0  0  0  0  0  0  0  0  0  0  0
  -26.1576  -26.3587   27.8043 C   0  0  0  0  0  0  0  0  0  0  0  0
  -24.3507  -29.4711   23.7043 C   0  0  0  0  0  0  0  0  0  0  0  0
  -27.4621  -25.8574   27.6892 C   0  0  0  0  0  0  0  0  0  0  0  0
  -31.3812  -18.9870   20.5355 C   0  0  0  0  0  0  0  0  0  0  0  0
  -30.2667  -17.0473   21.4480 C   0  0  0  0  0  0  0  0  0  0  0  0
  -29.7205  -19.2525   22.2700 C   0  0  0  0  0  0  0  0  0  0  0  0
  -22.2086   -8.2216   21.5403 C   0  0  0  0  0  0  0  0  0  0  0  0
  -26.5638  -23.6129   27.4338 C   0  0  0  0  0  0  0  0  0  0  0  0
  -22.0399   -6.1099   22.5576 C   0  0  0  0  0  0  0  0  0  0  0  0
  -23.2104   -4.0819   24.0740 C   0  0  0  0  0  0  0  0  0  0  0  0
  -21.4682   -5.7281   23.7712 C   0  0  0  0  0  0  0  0  0  0  0  0
  -24.5369  -11.6584   20.7249 C   0  0  0  0  0  0  0  0  0  0  0  0
  -25.2405  -13.7237   20.4522 C   0  0  0  0  0  0  0  0  0  0  0  0
  -22.8605  -13.5510   21.1969 C   0  0  0  0  0  0  0  0  0  0  0  0
  -27.1245  -28.8345   26.0609 C   0  0  0  0  0  0  0  0  0  0  0  0
  -27.4019  -20.7407   24.8240 C   0  0  0  0  0  0  0  0  0  0  0  0
  -29.3685  -29.0986   28.3884 C   0  0  0  0  0  0  0  0  0  0  0  0
  -31.1719  -27.5855   30.8592 C   0  0  0  0  0  0  0  0  0  0  0  0
  -30.7193  -14.6854   20.6979 C   0  0  0  0  0  0  0  0  0  0  0  0
  -24.1723  -31.9861   23.3389 C   0  0  0  0  0  0  0  0  0  0  0  0
  -25.9232  -27.8265   28.0349 C   0  0  0  0  0  0  0  0  0  0  0  0
  -28.6669  -26.7587   27.7575 C   0  0  0  0  0  0  0  0  0  0  0  0
  -25.5119  -32.0975   24.0624 C   0  0  0  0  0  0  0  0  0  0  0  0
  -29.6076  -12.2225   18.3794 C   0  0  0  0  0  0  0  0  0  0  0  0
  -26.4238  -30.9364   23.6791 C   0  0  0  0  0  0  0  0  0  0  0  0
  -28.1558  -11.9668   18.7905 C   0  0  0  0  0  0  0  0  0  0  0  0
  -30.5046  -12.4711   19.5908 C   0  0  0  0  0  0  0  0  0  0  0  0
  -28.5854  -13.2659   20.9153 C   0  0  0  0  0  0  0  0  0  0  0  0
  -25.8089  -29.5930   24.0899 C   0  0  1  0  0  0  0  0  0  0  0  0
  -27.0799  -28.6987   27.5566 C   0  0  1  0  0  0  0  0  0  0  0  0
  -27.6312  -13.0744   19.7251 C   0  0  2  0  0  0  0  0  0  0  0  0
  -32.9560  -28.0493   32.5619 C   0  0  0  0  0  0  0  0  0  0  0  0
  -31.4786  -29.0589   26.1847 C   0  0  0  0  0  0  0  0  0  0  0  0
  -33.1985  -28.5677   27.9365 C   0  0  0  0  0  0  0  0  0  0  0  0
  -31.9142  -30.7047   28.0167 C   0  0  0  0  0  0  0  0  0  0  0  0
  -29.3719  -26.8935   33.1041 C   0  0  0  0  0  0  0  0  0  0  0  0
  -26.3547  -20.3564   25.8609 C   0  0  0  0  0  0  0  0  0  0  0  0
  -28.0140  -19.5837   24.0600 C   0  0  0  0  0  0  0  0  0  0  0  0
  -25.7418  -21.5574   26.5648 C   0  0  0  0  0  0  0  0  0  1  0  0
  -30.7530  -28.5379   28.6071 C   0  0  1  0  0  0  0  0  0  0  0  0
  -31.4604  -27.9966   32.2917 C   0  0  2  0  0  0  0  0  0  0  0  0
  -31.8135  -29.2003   27.6830 C   0  0  0  0  0  0  0  0  0  0  0  0
  -25.8073  -11.5301   20.3330 N   0  0  0  0  0  0  0  0  0  0  0  0
  -26.2078  -12.8031   20.1750 N   0  0  0  0  0  0  0  0  0  0  0  0
  -28.3855  -28.1869   27.9780 N   0  0  0  0  0  0  0  0  0  0  0  0
  -29.9472  -13.5357   20.4278 N   0  0  0  0  0  0  0  0  0  0  0  0
  -32.3161  -19.5513   19.6426 N   0  0  0  0  0  0  0  0  0  0  0  0
  -25.4744  -15.0490   20.3450 N   0  0  0  0  0  0  0  0  0  0  0  0
  -21.8277  -12.6685   21.5413 N   0  0  0  0  0  0  0  0  0  0  0  0
  -30.0728  -15.6440   21.4775 N   0  0  0  0  0  0  0  0  0  0  0  0
  -28.9893  -20.0716   23.1178 N   0  0  0  0  0  0  0  0  0  0  0  0
  -25.9774  -29.3735   25.5105 N   0  0  0  0  0  0  0  0  0  0  0  0
  -31.0303  -28.6798   30.0324 N   0  0  0  0  0  0  0  0  0  0  0  0
  -30.8449  -27.0281   33.2425 N   0  3  0  0  0  0  0  0  0  0  0  0
  -22.6439  -14.7864   21.2147 O   0  0  0  0  0  0  0  0  0  0  0  0
  -28.1262  -28.4781   25.4515 O   0  0  0  0  0  0  0  0  0  0  0  0
  -27.7290  -21.9094   24.6227 O   0  0  0  0  0  0  0  0  0  0  0  0
  -29.1650  -30.2998   28.5815 O   0  0  0  0  0  0  0  0  0  0  0  0
  -31.0849  -26.4109   30.5080 O   0  0  0  0  0  0  0  0  0  0  0  0
  -31.8593  -14.8222   20.2466 O   0  0  0  0  0  0  0  0  0  0  0  0
  -21.4597   -7.1159   21.8033 O   0  0  0  0  0  0  0  0  0  0  0  0
  -26.7647  -22.2797   27.2491 O   0  0  0  0  0  0  0  0  0  1  0  0
  -23.7717   -3.1071   24.8013 F   0  0  0  0  0  0  0  0  0  0  0  0
  -20.3560   -6.3310   24.2134 F   0  0  0  0  0  0  0  0  0  0  0  0
  1  2  1  0  0  0  0
  1  5  2  0  0  0  0
  2  6  2  0  0  0  0
  3  8  2  0  0  0  0
  3 18  1  0  0  0  0
  4  9  1  0  0  0  0
  4 18  2  0  0  0  0
  5 20  1  0  0  0  0
  6 22  1  0  0  0  0
  7 10  2  0  0  0  0
  7 21  1  0  0  0  0
  8 27  1  0  0  0  0
  9 27  2  0  0  0  0
 10 28  1  0  0  0  0
 11 12  2  0  0  0  0
 11 29  1  0  0  0  0
 12 30  1  0  0  0  0
 13 23  1  0  0  0  0
 13 28  2  0  0  0  0
 14 24  1  0  0  0  0
 14 25  2  0  0  0  0
 15 24  2  0  0  0  0
 15 26  1  0  0  0  0
 16 25  1  0  0  0  0
 16 26  2  0  0  0  0
 17 30  2  0  0  0  0
 17 31  1  0  0  0  0
 18 32  1  0  0  0  0
 19 32  1  0  0  0  0
 19 33  2  0  0  0  0
 19 34  1  0  0  0  0
 20 22  2  0  0  0  0
 20 40  1  0  0  0  0
 21 23  2  0  0  0  0
 21 41  1  0  0  0  0
 22 49  1  0  0  0  0
 23 42  1  0  0  0  0
 24 67  1  0  0  0  0
 25 70  1  0  0  0  0
 26 71  1  0  0  0  0
 27 81  1  0  0  0  0
 28 82  1  0  0  0  0
 29 31  2  0  0  0  0
 29 81  1  0  0  0  0
 30 83  1  0  0  0  0
 31 84  1  0  0  0  0
 32 63  2  0  0  0  0
 33 64  1  0  0  0  0
 33 68  1  0  0  0  0
 34 69  1  0  0  0  0
 34 75  2  0  0  0  0
 35 50  1  0  0  0  0
 35 72  1  0  0  0  0
 35 76  2  0  0  0  0
 36 57  1  0  0  0  0
 36 58  1  0  0  0  0
 36 77  2  0  0  0  0
 37 60  1  0  0  0  0
 37 65  1  0  0  0  0
 37 78  2  0  0  0  0
 38 61  1  0  0  0  0
 38 73  1  0  0  0  0
 38 79  2  0  0  0  0
 39 66  1  0  0  0  0
 39 70  1  0  0  0  0
 39 80  2  0  0  0  0
 40 43  1  0  0  0  0
 41 50  1  0  0  0  0
 42 65  1  0  0  0  0
 43 45  1  0  0  0  0
 44 46  1  0  0  0  0
 44 47  1  0  0  0  0
 45 49  1  0  0  0  0
 46 51  1  0  0  0  0
 47 66  1  0  0  0  0
 48 51  1  0  0  0  0
 48 66  1  0  0  0  0
 49 72  1  0  0  0  0
 50 65  1  0  0  0  0
 51 64  1  0  0  0  0
 52 61  1  0  0  0  0
 53 62  1  0  0  0  0
 54 62  1  0  0  0  0
 55 62  1  0  0  0  0
 56 74  1  0  0  0  0
 57 59  1  0  0  0  0
 58 71  1  0  0  0  0
 59 82  1  0  0  0  0
 60 62  1  0  0  0  0
 60 73  1  0  0  0  0
 61 74  1  0  0  0  0
 63 64  1  0  0  0  0
M  CHG  1  74   1
M  ISO  4  39 100  59 101  70 100  82 101
M  END
> <Batch ID>
0166

> <Smiles>
CNC(C)C(=O)NC(C(=O)N1Cc2cc([101O:1][101CH2:1]CC(=O)CNc3cc(N)cc([100NH:0][100C:0](=O)N4CCCC(n5nc(-c6ccc(Oc7ccc(F)cc7F)cc6)c(C(N)=O)c5N)C4)c3)ccc2CC1C(=O)NC1CCCc2ccccc21)C(C)(C)C

> <Shape>
0.244

> <Color>
0.190

> <Negative vol penalty>
0.000

$$$$

  -OEChem-04052304083D

 89 97  0     1  0  0  0  0  0999 V2000
  -16.6147  -28.7784   23.9192 C   0  0  0  0  0  0  0  0  0  0  0  0
  -16.9119  -29.0913   22.5966 C   0  0  0  0  0  0  0  0  0  0  0  0
  -28.4997  -12.2351   20.7696 C   0  0  0  0  0  0  0  0  0  0  0  0
  -29.6978  -12.9730   18.8056 C   0  0  0  0  0  0  0  0  0  0  0  0
  -31.5584  -24.6619   18.9027 C   0  0  0  0  0  0  0  0  0  0  0  0
  -17.5617  -29.0036   24.9173 C   0  0  0  0  0  0  0  0  0  0  0  0
  -18.1560  -29.6306   22.2716 C   0  0  0  0  0  0  0  0  0  0  0  0
  -22.5232  -26.3242   17.5933 C   0  0  0  0  0  0  0  0  0  0  0  0
  -28.4297  -10.9457   20.2424 C   0  0  0  0  0  0  0  0  0  0  0  0
  -29.6279  -11.6835   18.2785 C   0  0  0  0  0  0  0  0  0  0  0  0
  -23.3253  -25.8621   16.5496 C   0  0  0  0  0  0  0  0  0  0  0  0
  -26.5834   -9.2912   17.9450 C   0  0  0  0  0  0  0  0  0  0  0  0
  -31.8999  -23.9201   20.0335 C   0  0  0  0  0  0  0  0  0  0  0  0
  -25.3600   -8.6257   18.0225 C   0  0  0  0  0  0  0  0  0  0  0  0
  -24.9411  -27.6022   17.0066 C   0  0  0  0  0  0  0  0  0  0  0  0
  -26.3944   -6.8763   19.3290 C   0  0  0  0  0  0  0  0  0  0  0  0
  -29.1337  -13.2489   20.0511 C   0  0  0  0  0  0  0  0  0  0  0  0
  -30.4188  -24.3310   18.1695 C   0  0  0  0  0  0  0  0  0  0  0  0
  -30.2210  -15.1117   21.4133 C   0  0  0  0  0  0  0  0  0  0  0  0
  -18.8217  -29.5370   24.6030 C   0  0  0  0  0  0  0  0  0  0  0  0
  -22.9350  -27.4190   18.3584 C   0  0  0  0  0  0  0  0  0  0  0  0
  -19.1203  -29.8644   23.2666 C   0  0  0  0  0  0  0  0  0  0  0  0
  -24.1479  -28.0619   18.0612 C   0  0  0  0  0  0  0  0  0  0  0  0
  -29.9623  -22.5165   19.6978 C   0  0  0  0  0  0  0  0  0  0  0  0
  -28.9938  -10.6698   18.9969 C   0  0  0  0  0  0  0  0  0  0  0  0
  -24.5311  -26.4997   16.2568 C   0  0  0  0  0  0  0  0  0  0  0  0
  -27.7123   -8.7492   18.5595 C   0  0  0  0  0  0  0  0  0  0  0  0
  -25.2655   -7.4183   18.7145 C   0  0  0  0  0  0  0  0  0  0  0  0
  -31.1018  -22.8474   20.4311 C   0  0  0  0  0  0  0  0  0  0  0  0
  -27.6178   -7.5418   19.2515 C   0  0  0  0  0  0  0  0  0  0  0  0
  -29.6208  -23.2583   18.5670 C   0  0  0  0  0  0  0  0  0  0  0  0
  -29.2058  -14.5813   20.5949 C   0  0  0  0  0  0  0  0  0  0  0  0
  -29.8256  -16.4043   21.6567 C   0  0  0  0  0  0  0  0  0  0  0  0
  -30.0604  -25.1183   16.9726 C   0  0  0  0  0  0  0  0  0  0  0  0
  -31.4148  -14.4914   21.9091 C   0  0  0  0  0  0  0  0  0  0  0  0
  -22.1909  -29.7341   21.2154 C   0  0  0  0  0  0  0  0  0  0  0  0
  -29.7123  -24.4754   13.6336 C   0  0  0  0  0  0  0  0  0  0  0  0
  -27.4759  -25.1083   14.6791 C   0  0  0  0  0  0  0  0  0  0  0  0
  -25.1899  -29.1009   21.3395 C   0  0  0  0  0  0  0  0  0  0  0  0
  -28.3522  -27.8219   21.3747 C   0  0  0  0  0  0  0  0  0  0  0  0
  -27.7778  -21.2810   19.9168 C   0  0  0  0  0  0  0  0  0  0  0  0
  -19.7956  -29.8068   25.7226 C   0  0  0  0  0  0  0  0  0  0  0  0
  -22.0738  -27.9890   19.4526 C   0  0  0  0  0  0  0  0  0  0  0  0
  -24.5340  -29.2573   18.8888 C   0  0  0  0  0  0  0  0  0  0  0  0
  -21.2273  -30.0321   25.2433 C   0  0  0  0  0  0  0  0  0  0  0  0
  -25.4277  -18.7332   20.7312 C   0  0  0  0  0  0  0  0  0  0  0  0
  -21.2492  -30.9965   24.0617 C   0  0  0  0  0  0  0  0  0  0  0  0
  -26.2846  -17.4696   20.8357 C   0  0  0  0  0  0  0  0  0  0  0  0
  -25.9175  -19.6604   19.6202 C   0  0  0  0  0  0  0  0  0  0  0  0
  -28.1990  -18.7468   19.7912 C   0  0  0  0  0  0  0  0  0  0  0  0
  -20.4679  -30.4279   22.8710 C   0  0  1  0  0  0  0  0  0  0  0  0
  -22.8884  -28.5378   20.6376 C   0  0  1  0  0  0  0  0  0  0  0  0
  -27.7838  -17.8122   20.9392 C   0  0  2  0  0  0  0  0  0  0  0  0
  -29.5043  -25.0121   12.2403 C   0  0  0  0  0  0  0  0  0  0  0  0
  -30.5156  -27.9519   22.6398 C   0  0  0  0  0  0  0  0  0  0  0  0
  -25.7899  -31.7895   20.0298 C   0  0  0  0  0  0  0  0  0  0  0  0
  -28.2143  -31.4100   20.5261 C   0  0  0  0  0  0  0  0  0  0  0  0
  -26.5725  -31.5836   22.3961 C   0  0  0  0  0  0  0  0  0  0  0  0
  -28.2426  -24.9513   22.0865 C   0  0  0  0  0  0  0  0  0  0  0  0
  -26.7201  -26.2301   15.3662 C   0  0  0  0  0  0  0  0  0  1  0  0
  -28.9838  -25.1811   14.7514 C   0  0  1  0  0  0  0  0  0  0  0  0
  -26.5867  -29.5116   20.9475 C   0  0  1  0  0  0  0  0  0  0  0  0
  -29.1862  -27.2276   22.4952 C   0  0  2  0  0  0  0  0  0  0  0  0
  -26.7761  -31.0547   20.9596 C   0  0  0  0  0  0  0  0  0  0  0  0
  -28.2381  -15.4647   20.3358 N   0  0  0  0  0  0  0  0  0  0  0  0
  -28.6434  -16.5633   20.9953 N   0  0  0  0  0  0  0  0  0  0  0  0
  -24.2478  -28.9990   20.3086 N   0  0  0  0  0  0  0  0  0  0  0  0
  -27.3446  -19.9446   19.7858 N   0  0  0  0  0  0  0  0  0  0  0  0
  -30.3772  -17.4090   22.3698 N   0  0  0  0  0  0  0  0  0  0  0  0
  -31.6677  -13.1570   21.5629 N   0  0  0  0  0  0  0  0  0  0  0  0
  -29.1523  -21.4261   20.1015 N   0  0  0  0  0  0  0  0  0  0  0  0
  -29.4055  -24.5078   15.9706 N   0  0  0  0  0  0  0  0  0  0  0  0
  -21.2537  -29.4260   22.1830 N   0  0  0  0  0  0  0  0  0  0  0  0
  -27.4893  -28.7917   21.8395 N   0  0  0  0  0  0  0  0  0  0  0  0
  -30.4073  -26.4051   16.9400 N   0  3  0  0  0  0  0  0  0  0  0  0
  -29.4622  -25.7877   22.2278 N   0  3  0  0  0  0  0  0  0  0  0  0
  -32.2248  -15.0973   22.6510 O   0  0  0  0  0  0  0  0  0  0  0  0
  -22.4818  -30.8550   20.8147 O   0  0  0  0  0  0  0  0  0  0  0  0
  -30.4562  -23.5162   13.8376 O   0  0  0  0  0  0  0  0  0  0  0  0
  -26.8886  -24.1977   14.0953 O   0  0  0  0  0  0  0  0  0  0  0  0
  -24.9367  -28.8813   22.5273 O   0  0  0  0  0  0  0  0  0  0  0  0
  -28.4585  -27.4645   20.2036 O   0  0  0  0  0  0  0  0  0  0  0  0
  -26.9842  -22.2254   19.8961 O   0  0  0  0  0  0  0  0  0  0  0  0
  -28.9260   -9.4116   18.4823 O   0  0  0  0  0  0  0  0  0  0  0  0
  -25.3114  -26.0405   15.2395 O   0  0  0  0  0  0  0  0  0  1  0  0
  -24.0902   -6.7801   18.7901 F   0  0  0  0  0  0  0  0  0  0  0  0
  -31.4398  -22.1416   21.5197 F   0  0  0  0  0  0  0  0  0  0  0  0
  -28.6986   -7.0169   19.8449 F   0  0  0  0  0  0  0  0  0  0  0  0
  -28.5254  -22.9410   17.8598 F   0  0  0  0  0  0  0  0  0  0  0  0
  1  2  1  0  0  0  0
  1  6  2  0  0  0  0
  2  7  2  0  0  0  0
  3  9  2  0  0  0  0
  3 17  1  0  0  0  0
  4 10  1  0  0  0  0
  4 17  2  0  0  0  0
  5 13  2  0  0  0  0
  5 18  1  0  0  0  0
  6 20  1  0  0  0  0
  7 22  1  0  0  0  0
  8 11  2  0  0  0  0
  8 21  1  0  0  0  0
  9 25  1  0  0  0  0
 10 25  2  0  0  0  0
 11 26  1  0  0  0  0
 12 14  2  0  0  0  0
 12 27  1  0  0  0  0
 13 29  1  0  0  0  0
 14 28  1  0  0  0  0
 15 23  1  0  0  0  0
 15 26  2  0  0  0  0
 16 28  2  0  0  0  0
 16 30  1  0  0  0  0
 17 32  1  0  0  0  0
 18 31  2  0  0  0  0
 18 34  1  0  0  0  0
 19 32  1  0  0  0  0
 19 33  2  0  0  0  0
 19 35  1  0  0  0  0
 20 22  2  0  0  0  0
 20 42  1  0  0  0  0
 21 23  2  0  0  0  0
 21 43  1  0  0  0  0
 22 51  1  0  0  0  0
 23 44  1  0  0  0  0
 24 29  2  0  0  0  0
 24 31  1  0  0  0  0
 24 71  1  0  0  0  0
 25 84  1  0  0  0  0
 26 85  1  0  0  0  0
 27 30  2  0  0  0  0
 27 84  1  0  0  0  0
 28 86  1  0  0  0  0
 29 87  1  0  0  0  0
 30 88  1  0  0  0  0
 31 89  1  0  0  0  0
 32 65  2  0  0  0  0
 33 66  1  0  0  0  0
 33 69  1  0  0  0  0
 34 72  1  0  0  0  0
 34 75  2  0  0  0  0
 35 70  1  0  0  0  0
 35 77  2  0  0  0  0
 36 52  1  0  0  0  0
 36 73  1  0  0  0  0
 36 78  2  0  0  0  0
 37 54  1  0  0  0  0
 37 61  1  0  0  0  0
 37 79  2  0  0  0  0
 38 60  1  0  0  0  0
 38 61  1  0  0  0  0
 38 80  2  0  0  0  0
 39 62  1  0  0  0  0
 39 67  1  0  0  0  0
 39 81  2  0  0  0  0
 40 63  1  0  0  0  0
 40 74  1  0  0  0  0
 40 82  2  0  0  0  0
 41 68  1  0  0  0  0
 41 71  1  0  0  0  0
 41 83  2  0  0  0  0
 42 45  1  0  0  0  0
 43 52  1  0  0  0  0
 44 67  1  0  0  0  0
 45 47  1  0  0  0  0
 46 48  1  0  0  0  0
 46 49  1  0  0  0  0
 47 51  1  0  0  0  0
 48 53  1  0  0  0  0
 49 68  1  0  0  0  0
 50 53  1  0  0  0  0
 50 68  1  0  0  0  0
 51 73  1  0  0  0  0
 52 67  1  0  0  0  0
 53 66  1  0  0  0  0
 55 63  1  0  0  0  0
 56 64  1  0  0  0  0
 57 64  1  0  0  0  0
 58 64  1  0  0  0  0
 59 76  1  0  0  0  0
 60 85  1  0  0  0  0
 61 72  1  0  0  0  0
 62 64  1  0  0  0  0
 62 74  1  0  0  0  0
 63 76  1  0  0  0  0
 65 66  1  0  0  0  0
M  CHG  2  75   1  76   1
M  ISO  4  41 100  60 101  71 100  85 101
M  END
> <Batch ID>
0166

> <Smiles>
CNC(C)C(=O)NC(C(=O)N1Cc2cc([101O:1][101CH2:1]C(=O)C(NC(=N)c3ccc(F)c([100NH:0][100C:0](=O)N4CCCC(n5nc(-c6ccc(Oc7ccc(F)cc7F)cc6)c(C(N)=O)c5N)C4)c3F)C(C)=O)ccc2CC1C(=O)NC1CCCc2ccccc21)C(C)(C)C

> <Shape>
0.255

> <Color>
0.054

> <Negative vol penalty>
0.000

$$$$

  -OEChem-04052304083D

 87 95  0     1  0  0  0  0  0999 V2000
  -28.3455  -23.9572   18.4096 C   0  0  0  0  0  0  0  0  0  0  0  0
  -27.0910  -24.3366   18.8761 C   0  0  0  0  0  0  0  0  0  0  0  0
  -26.0421  -20.7974   20.6952 C   0  0  0  0  0  0  0  0  0  0  0  0
  -26.0562  -18.5436   19.8249 C   0  0  0  0  0  0  0  0  0  0  0  0
  -29.4952  -24.4403   19.0331 C   0  0  0  0  0  0  0  0  0  0  0  0
  -26.9854  -25.1985   19.9672 C   0  0  0  0  0  0  0  0  0  0  0  0
  -23.5475  -28.8445   19.2371 C   0  0  0  0  0  0  0  0  0  0  0  0
  -27.4061  -20.9099   20.4257 C   0  0  0  0  0  0  0  0  0  0  0  0
  -27.4201  -18.6561   19.5554 C   0  0  0  0  0  0  0  0  0  0  0  0
  -22.2067  -28.4956   19.3922 C   0  0  0  0  0  0  0  0  0  0  0  0
  -30.3228  -18.4873   21.2808 C   0  0  0  0  0  0  0  0  0  0  0  0
  -31.1446  -17.4190   21.6397 C   0  0  0  0  0  0  0  0  0  0  0  0
  -22.2176  -29.4603   21.6032 C   0  0  0  0  0  0  0  0  0  0  0  0
  -15.6337  -22.9398   21.5604 C   0  0  0  0  0  0  0  0  0  0  0  0
  -31.8045  -17.1511   19.3310 C   0  0  0  0  0  0  0  0  0  0  0  0
  -25.3672  -19.6142   20.3948 C   0  0  0  0  0  0  0  0  0  0  0  0
  -22.8919  -19.8221   19.8140 C   0  0  0  0  0  0  0  0  0  0  0  0
  -29.4037  -25.3162   20.1263 C   0  0  0  0  0  0  0  0  0  0  0  0
  -24.2377  -29.4953   20.2699 C   0  0  0  0  0  0  0  0  0  0  0  0
  -28.1349  -25.6927   20.6067 C   0  0  0  0  0  0  0  0  0  0  0  0
  -23.5665  -29.8187   21.4577 C   0  0  0  0  0  0  0  0  0  0  0  0
  -15.6394  -21.6936   22.2312 C   0  0  0  0  0  0  0  0  0  0  0  0
  -28.0951  -19.8394   19.8558 C   0  0  0  0  0  0  0  0  0  0  0  0
  -21.5422  -28.8009   20.5765 C   0  0  0  0  0  0  0  0  0  0  0  0
  -30.2417  -18.8876   19.9470 C   0  0  0  0  0  0  0  0  0  0  0  0
  -31.8855  -16.7509   20.6648 C   0  0  0  0  0  0  0  0  0  0  0  0
  -30.9826  -18.2195   18.9722 C   0  0  0  0  0  0  0  0  0  0  0  0
  -23.9584  -19.4971   20.6735 C   0  0  0  0  0  0  0  0  0  0  0  0
  -16.7908  -21.6698   22.9832 C   0  0  0  0  0  0  0  0  0  0  0  0
  -21.7637  -19.5330   20.5421 C   0  0  0  0  0  0  0  0  0  0  0  0
  -16.7820  -23.5889   21.9505 C   0  0  0  0  0  0  0  0  0  0  0  0
  -17.3489  -20.6514   23.8905 C   0  0  0  0  0  0  0  0  0  0  0  0
  -19.9457  -27.2357   21.2635 C   0  0  0  0  0  0  0  0  0  1  0  0
  -22.9187  -20.3390   18.4769 C   0  0  0  0  0  0  0  0  0  0  0  0
  -18.6958  -26.7988   21.4595 C   0  0  0  0  0  0  0  0  0  0  0  0
  -18.4856  -25.4376   22.0522 C   0  0  0  0  0  0  0  0  0  0  0  0
  -26.7602  -28.7936   22.0722 C   0  0  0  0  0  0  0  0  0  0  0  0
  -26.3508  -31.8284   23.1420 C   0  0  0  0  0  0  0  0  0  0  0  0
  -24.2489  -34.4755   23.6133 C   0  0  0  0  0  0  0  0  0  0  0  0
  -18.9335  -19.8330   25.3433 C   0  0  0  0  0  0  0  0  0  0  0  0
  -30.6742  -25.7748   20.7974 C   0  0  0  0  0  0  0  0  0  0  0  0
  -25.6765  -29.8888   20.0767 C   0  0  0  0  0  0  0  0  0  0  0  0
  -24.2566  -30.5347   22.5889 C   0  0  0  0  0  0  0  0  0  0  0  0
  -30.4786  -26.9809   21.7125 C   0  0  0  0  0  0  0  0  0  0  0  0
  -21.1915  -17.0553   24.9064 C   0  0  0  0  0  0  0  0  0  0  0  0
  -29.2590  -26.7805   22.6065 C   0  0  0  0  0  0  0  0  0  0  0  0
  -22.0476  -17.4879   23.7163 C   0  0  0  0  0  0  0  0  0  0  0  0
  -20.8067  -18.2446   25.7811 C   0  0  0  0  0  0  0  0  0  0  0  0
  -20.9789  -19.7817   23.8430 C   0  0  0  0  0  0  0  0  0  0  0  0
  -27.9795  -26.6456   21.7721 C   0  0  1  0  0  0  0  0  0  0  0  0
  -26.4227  -30.0902   21.3920 C   0  0  1  0  0  0  0  0  0  0  0  0
  -21.3603  -18.6116   22.9202 C   0  0  1  0  0  0  0  0  0  0  0  0
  -24.1927  -36.8045   24.5460 C   0  0  0  0  0  0  0  0  0  0  0  0
  -15.6665  -19.4402   20.1460 C   0  0  0  0  0  0  0  0  0  0  0  0
  -13.2625  -19.0280   20.7066 C   0  0  0  0  0  0  0  0  0  0  0  0
  -26.3046  -30.6910   25.9729 C   0  0  0  0  0  0  0  0  0  0  0  0
  -25.3167  -32.8557   26.7517 C   0  0  0  0  0  0  0  0  0  0  0  0
  -27.5902  -32.8219   25.7257 C   0  0  0  0  0  0  0  0  0  0  0  0
  -23.5267  -35.6341   20.9875 C   0  0  0  0  0  0  0  0  0  0  0  0
  -14.6124  -20.6392   22.1370 C   0  0  0  0  0  0  0  0  0  0  0  0
  -25.5622  -32.4717   24.2571 C   0  0  1  0  0  0  0  0  0  0  0  0
  -24.4052  -35.9534   23.3037 C   0  0  2  0  0  0  0  0  0  0  0  0
  -14.3877  -20.0658   20.7086 C   0  0  0  0  0  0  0  0  0  0  0  0
  -26.1807  -32.1948   25.6565 C   0  0  0  0  0  0  0  0  0  0  0  0
  -23.5448  -19.0369   21.8572 N   0  0  0  0  0  0  0  0  0  0  0  0
  -18.4699  -20.8319   24.5086 N   0  0  0  0  0  0  0  0  0  0  0  0
  -22.2058  -19.0708   21.7467 N   0  0  0  0  0  0  0  0  0  0  0  0
  -25.6652  -30.8928   22.3544 N   0  0  0  0  0  0  0  0  0  0  0  0
  -20.1873  -19.3047   24.9847 N   0  0  0  0  0  0  0  0  0  0  0  0
  -20.4466  -19.6318   20.2631 N   0  0  0  0  0  0  0  0  0  0  0  0
  -24.1629  -20.5788   17.8780 N   0  0  0  0  0  0  0  0  0  0  0  0
  -17.3052  -24.8587   21.6067 N   0  0  0  0  0  0  0  0  0  0  0  0
  -27.5386  -27.9440   21.3094 N   0  0  0  0  0  0  0  0  0  0  0  0
  -25.4578  -33.8871   23.9194 N   0  0  0  0  0  0  0  0  0  0  0  0
  -23.4163  -36.3737   22.2712 N   0  3  0  0  0  0  0  0  0  0  0  0
  -21.8702  -20.5966   17.8383 O   0  0  0  0  0  0  0  0  0  0  0  0
  -19.3018  -24.9566   22.8309 O   0  0  0  0  0  0  0  0  0  0  0  0
  -26.3463  -28.5804   23.2058 O   0  0  0  0  0  0  0  0  0  0  0  0
  -27.5295  -32.1497   22.9715 O   0  0  0  0  0  0  0  0  0  0  0  0
  -23.1625  -33.9013   23.5899 O   0  0  0  0  0  0  0  0  0  0  0  0
  -18.3203  -19.4236   26.3320 O   0  0  0  0  0  0  0  0  0  0  0  0
  -17.4929  -22.8214   22.8178 O   0  0  0  0  0  0  0  0  0  0  0  0
  -17.5865  -27.5542   21.1380 O   0  0  0  0  0  0  0  0  0  0  0  0
  -29.4259  -19.9489   19.5925 O   0  0  0  0  0  0  0  0  0  0  0  0
  -20.2336  -28.4608   20.7307 O   0  0  0  0  0  0  0  0  0  1  0  0
  -32.6758  -15.7259   21.0097 F   0  0  0  0  0  0  0  0  0  0  0  0
  -30.9097  -18.6002   17.6894 F   0  0  0  0  0  0  0  0  0  0  0  0
  1  2  1  0  0  0  0
  1  5  2  0  0  0  0
  2  6  2  0  0  0  0
  3  8  2  0  0  0  0
  3 16  1  0  0  0  0
  4  9  1  0  0  0  0
  4 16  2  0  0  0  0
  5 18  1  0  0  0  0
  6 20  1  0  0  0  0
  7 10  2  0  0  0  0
  7 19  1  0  0  0  0
  8 23  1  0  0  0  0
  9 23  2  0  0  0  0
 10 24  1  0  0  0  0
 11 12  2  0  0  0  0
 11 25  1  0  0  0  0
 12 26  1  0  0  0  0
 13 21  1  0  0  0  0
 13 24  2  0  0  0  0
 14 22  1  0  0  0  0
 14 31  2  0  0  0  0
 15 26  2  0  0  0  0
 15 27  1  0  0  0  0
 16 28  1  0  0  0  0
 17 28  1  0  0  0  0
 17 30  2  0  0  0  0
 17 34  1  0  0  0  0
 18 20  2  0  0  0  0
 18 41  1  0  0  0  0
 19 21  2  0  0  0  0
 19 42  1  0  0  0  0
 20 50  1  0  0  0  0
 21 43  1  0  0  0  0
 22 29  2  0  0  0  0
 22 60  1  0  0  0  0
 23 84  1  0  0  0  0
 24 85  1  0  0  0  0
 25 27  2  0  0  0  0
 25 84  1  0  0  0  0
 26 86  1  0  0  0  0
 27 87  1  0  0  0  0
 28 65  2  0  0  0  0
 29 32  1  0  0  0  0
 29 82  1  0  0  0  0
 30 67  1  0  0  0  0
 30 70  1  0  0  0  0
 31 72  1  0  0  0  0
 31 82  1  0  0  0  0
 32 66  2  0  0  0  0
 33 35  2  0  0  0  0
 33 85  1  0  0  0  0
 34 71  1  0  0  0  0
 34 76  2  0  0  0  0
 35 36  1  0  0  0  0
 35 83  1  0  0  0  0
 36 72  1  0  0  0  0
 36 77  2  0  0  0  0
 37 51  1  0  0  0  0
 37 73  1  0  0  0  0
 37 78  2  0  0  0  0
 38 61  1  0  0  0  0
 38 68  1  0  0  0  0
 38 79  2  0  0  0  0
 39 62  1  0  0  0  0
 39 74  1  0  0  0  0
 39 80  2  0  0  0  0
 40 66  1  0  0  0  0
 40 69  1  0  0  0  0
 40 81  2  0  0  0  0
 41 44  1  0  0  0  0
 42 51  1  0  0  0  0
 43 68  1  0  0  0  0
 44 46  1  0  0  0  0
 45 47  1  0  0  0  0
 45 48  1  0  0  0  0
 46 50  1  0  0  0  0
 47 52  1  0  0  0  0
 48 69  1  0  0  0  0
 49 52  1  0  0  0  0
 49 69  1  0  0  0  0
 50 73  1  0  0  0  0
 51 68  1  0  0  0  0
 52 67  1  0  0  0  0
 53 62  1  0  0  0  0
 54 63  1  0  0  0  0
 55 63  1  0  0  0  0
 56 64  1  0  0  0  0
 57 64  1  0  0  0  0
 58 64  1  0  0  0  0
 59 75  1  0  0  0  0
 60 63  1  0  0  0  0
 61 64  1  0  0  0  0
 61 74  1  0  0  0  0
 62 75  1  0  0  0  0
 65 67  1  0  0  0  0
M  CHG  1  75   1
M  ISO  4  33 101  40 100  66 100  85 101
M  END
> <Batch ID>
0166

> <Smiles>
CNC(C)C(=O)NC(C(=O)N1Cc2cc([101O:1][101CH2:1]C(=O)C(=O)Nc3cc(CC(C)C)c(C=[100N:0][100C:0](=O)N4CCCC(n5nc(-c6ccc(Oc7ccc(F)cc7F)cc6)c(C(N)=O)c5N)C4)o3)ccc2CC1C(=O)NC1CCCc2ccccc21)C(C)(C)C

> <Shape>
0.234

> <Color>
0.050

> <Negative vol penalty>
0.000

$$$$

  -OEChem-04052304083D

 87 96  0     1  0  0  0  0  0999 V2000
  -26.0931  -35.1532   23.4608 C   0  0  0  0  0  0  0  0  0  0  0  0
  -26.6543  -33.9198   23.1456 C   0  0  0  0  0  0  0  0  0  0  0  0
  -26.1311  -14.4630   22.8402 C   0  0  0  0  0  0  0  0  0  0  0  0
  -25.6343  -14.2515   20.4853 C   0  0  0  0  0  0  0  0  0  0  0  0
  -24.8259  -35.2138   24.0390 C   0  0  0  0  0  0  0  0  0  0  0  0
  -25.9489  -32.7463   23.4095 C   0  0  0  0  0  0  0  0  0  0  0  0
  -26.1210  -29.4675   19.5540 C   0  0  0  0  0  0  0  0  0  0  0  0
  -25.2110  -13.4540   23.1250 C   0  0  0  0  0  0  0  0  0  0  0  0
  -24.7142  -13.2424   20.7701 C   0  0  0  0  0  0  0  0  0  0  0  0
  -27.2899  -28.7226   19.4033 C   0  0  0  0  0  0  0  0  0  0  0  0
  -24.7847   -9.9455   21.5086 C   0  0  0  0  0  0  0  0  0  0  0  0
  -24.8110   -8.8023   20.7098 C   0  0  0  0  0  0  0  0  0  0  0  0
  -31.4748  -21.3142   16.1130 C   0  0  0  0  0  0  0  0  0  0  0  0
  -32.1582  -22.3592   15.4466 C   0  0  0  0  0  0  0  0  0  0  0  0
  -26.2215  -26.8417   20.4712 C   0  0  0  0  0  0  0  0  0  0  0  0
  -22.5261   -9.2161   20.0426 C   0  0  0  0  0  0  0  0  0  0  0  0
  -26.3427  -14.8617   21.5204 C   0  0  0  0  0  0  0  0  0  0  0  0
  -28.6645  -15.7512   20.9498 C   0  0  0  0  0  0  0  0  0  0  0  0
  -24.1006  -34.0409   24.3012 C   0  0  0  0  0  0  0  0  0  0  0  0
  -24.9953  -28.9078   20.1752 C   0  0  0  0  0  0  0  0  0  0  0  0
  -24.6713  -32.7912   23.9930 C   0  0  0  0  0  0  0  0  0  0  0  0
  -25.0388  -27.5808   20.6262 C   0  0  0  0  0  0  0  0  0  0  0  0
  -24.5026  -12.8437   22.0899 C   0  0  0  0  0  0  0  0  0  0  0  0
  -27.3412  -27.4104   19.8645 C   0  0  0  0  0  0  0  0  0  0  0  0
  -23.6291  -10.7239   21.5745 C   0  0  0  0  0  0  0  0  0  0  0  0
  -23.6817   -8.4376   19.9768 C   0  0  0  0  0  0  0  0  0  0  0  0
  -22.4998  -10.3592   20.8415 C   0  0  0  0  0  0  0  0  0  0  0  0
  -27.2926  -15.9043   21.2257 C   0  0  0  0  0  0  0  0  0  0  0  0
  -29.1171  -17.0307   20.7386 C   0  0  0  0  0  0  0  0  0  0  0  0
  -30.4969  -21.9181   16.8686 C   0  0  0  0  0  0  0  0  0  0  0  0
  -31.5491  -23.5273   15.8424 C   0  0  0  0  0  0  0  0  0  0  0  0
  -29.4588  -14.5591   20.8898 C   0  0  0  0  0  0  0  0  0  0  0  0
  -30.5133  -26.0810   18.5942 C   0  0  0  0  0  0  0  0  0  0  0  0
  -31.5017  -26.2231   17.4573 C   0  0  0  0  0  0  0  0  0  0  0  0
  -23.3114  -29.5741   22.7875 C   0  0  0  0  0  0  0  0  0  0  0  0
  -21.3754  -27.2252   21.6661 C   0  0  0  0  0  0  0  0  0  0  0  0
  -21.0288  -24.4292   19.7403 C   0  0  0  0  0  0  0  0  0  0  0  0
  -28.5559  -22.0828   18.4660 C   0  0  0  0  0  0  0  0  0  0  0  0
  -22.7539  -34.1545   24.9708 C   0  0  0  0  0  0  0  0  0  0  0  0
  -23.7334  -29.7158   20.3060 C   0  0  0  0  0  0  0  0  0  0  0  0
  -23.8510  -26.9268   21.2818 C   0  0  0  0  0  0  0  0  0  0  0  0
  -21.9162  -32.8820   24.8737 C   0  0  0  0  0  0  0  0  0  0  0  0
  -30.1608  -28.5531   13.8733 C   0  0  0  0  0  0  0  0  0  0  0  0
  -26.8719  -21.4946   21.5474 C   0  0  0  0  0  0  0  0  0  0  0  0
  -22.7596  -31.6597   25.2222 C   0  0  0  0  0  0  0  0  0  0  0  0
  -30.2309  -28.3583   15.4021 C   0  0  0  0  0  0  0  0  0  0  0  0
  -30.4997  -27.0542   13.7379 C   0  0  0  0  0  0  0  0  0  0  0  0
  -26.9440  -19.9752   21.7157 C   0  0  0  0  0  0  0  0  0  0  0  0
  -26.6806  -21.8948   20.0856 C   0  0  0  0  0  0  0  0  0  0  0  0
  -27.7302  -19.8015   19.3201 C   0  0  0  0  0  0  0  0  0  0  0  0
  -23.9270  -31.4972   24.2412 C   0  0  1  0  0  0  0  0  0  0  0  0
  -22.8149  -29.2139   21.4158 C   0  0  1  0  0  0  0  0  0  0  0  0
  -31.1732  -27.1566   15.1311 C   0  0  0  0  0  0  0  0  0  0  0  0
  -27.9874  -19.3521   20.7677 C   0  0  2  0  0  0  0  0  0  0  0  0
  -19.3366  -22.7088   19.0518 C   0  0  0  0  0  0  0  0  0  0  0  0
  -21.6375  -25.8799   24.3922 C   0  0  0  0  0  0  0  0  0  0  0  0
  -20.7543  -23.7763   23.3614 C   0  0  0  0  0  0  0  0  0  0  0  0
  -19.3341  -25.8263   23.4196 C   0  0  0  0  0  0  0  0  0  0  0  0
  -21.2668  -25.1693   16.8847 C   0  0  0  0  0  0  0  0  0  0  0  0
  -29.3071  -26.9842   18.5959 C   0  0  0  0  0  0  0  0  0  1  0  0
  -31.0255  -25.9584   16.0454 C   0  0  1  0  0  0  0  0  0  0  0  0
  -21.3031  -25.7270   21.8367 C   0  0  1  0  0  0  0  0  0  0  0  0
  -19.9862  -24.0401   18.7078 C   0  0  2  0  0  0  0  0  0  0  0  0
  -20.7804  -25.3150   23.2419 C   0  0  0  0  0  0  0  0  0  0  0  0
  -26.8994  -17.1804   21.1935 N   0  0  0  0  0  0  0  0  0  0  0  0
  -28.0311  -17.8408   20.8950 N   0  0  0  0  0  0  0  0  0  0  0  0
  -22.6423  -27.7600   21.3923 N   0  0  0  0  0  0  0  0  0  0  0  0
  -27.7072  -21.2709   19.2478 N   0  0  0  0  0  0  0  0  0  0  0  0
  -30.3341  -17.5305   20.4362 N   0  0  0  0  0  0  0  0  0  0  0  0
  -28.8350  -13.3277   21.1328 N   0  0  0  0  0  0  0  0  0  0  0  0
  -29.5141  -21.3802   17.7360 N   0  0  0  0  0  0  0  0  0  0  0  0
  -31.7906  -24.8509   15.5166 N   0  0  0  0  0  0  0  0  0  0  0  0
  -23.4628  -30.9322   22.9923 N   0  0  0  0  0  0  0  0  0  0  0  0
  -20.4951  -25.2286   20.7289 N   0  0  0  0  0  0  0  0  0  0  0  0
  -20.6105  -23.9240   17.3596 N   0  3  0  0  0  0  0  0  0  0  0  0
  -30.6887  -14.5864   20.6446 O   0  0  0  0  0  0  0  0  0  0  0  0
  -30.7689  -25.2567   19.4615 O   0  0  0  0  0  0  0  0  0  0  0  0
  -32.6441  -26.5476   17.7557 O   0  0  0  0  0  0  0  0  0  0  0  0
  -23.5387  -28.6856   23.6003 O   0  0  0  0  0  0  0  0  0  0  0  0
  -20.3447  -27.8956   21.7649 O   0  0  0  0  0  0  0  0  0  0  0  0
  -22.1987  -24.0578   19.6782 O   0  0  0  0  0  0  0  0  0  0  0  0
  -28.4588  -23.3127   18.4666 O   0  0  0  0  0  0  0  0  0  0  0  0
  -30.5354  -23.2671   16.7092 O   0  0  0  0  0  0  0  0  0  0  0  0
  -23.6049  -11.8590   22.3674 O   0  0  0  0  0  0  0  0  0  0  0  0
  -28.4810  -26.6813   19.7194 O   0  0  0  0  0  0  0  0  0  1  0  0
  -23.7075   -7.3407   19.2085 F   0  0  0  0  0  0  0  0  0  0  0  0
  -21.3872  -11.1038   20.8998 F   0  0  0  0  0  0  0  0  0  0  0  0
  1  2  1  0  0  0  0
  1  5  2  0  0  0  0
  2  6  2  0  0  0  0
  3  8  2  0  0  0  0
  3 17  1  0  0  0  0
  4  9  1  0  0  0  0
  4 17  2  0  0  0  0
  5 19  1  0  0  0  0
  6 21  1  0  0  0  0
  7 10  2  0  0  0  0
  7 20  1  0  0  0  0
  8 23  1  0  0  0  0
  9 23  2  0  0  0  0
 10 24  1  0  0  0  0
 11 12  2  0  0  0  0
 11 25  1  0  0  0  0
 12 26  1  0  0  0  0
 13 14  1  0  0  0  0
 13 30  2  0  0  0  0
 14 31  2  0  0  0  0
 15 22  1  0  0  0  0
 15 24  2  0  0  0  0
 16 26  2  0  0  0  0
 16 27  1  0  0  0  0
 17 28  1  0  0  0  0
 18 28  1  0  0  0  0
 18 29  2  0  0  0  0
 18 32  1  0  0  0  0
 19 21  2  0  0  0  0
 19 39  1  0  0  0  0
 20 22  2  0  0  0  0
 20 40  1  0  0  0  0
 21 51  1  0  0  0  0
 22 41  1  0  0  0  0
 23 84  1  0  0  0  0
 24 85  1  0  0  0  0
 25 27  2  0  0  0  0
 25 84  1  0  0  0  0
 26 86  1  0  0  0  0
 27 87  1  0  0  0  0
 28 65  2  0  0  0  0
 29 66  1  0  0  0  0
 29 69  1  0  0  0  0
 30 71  1  0  0  0  0
 30 83  1  0  0  0  0
 31 72  1  0  0  0  0
 31 83  1  0  0  0  0
 32 70  1  0  0  0  0
 32 76  2  0  0  0  0
 33 34  1  0  0  0  0
 33 60  1  0  0  0  0
 33 77  2  0  0  0  0
 34 61  1  0  0  0  0
 34 78  2  0  0  0  0
 35 52  1  0  0  0  0
 35 73  1  0  0  0  0
 35 79  2  0  0  0  0
 36 62  1  0  0  0  0
 36 67  1  0  0  0  0
 36 80  2  0  0  0  0
 37 63  1  0  0  0  0
 37 74  1  0  0  0  0
 37 81  2  0  0  0  0
 38 68  1  0  0  0  0
 38 71  1  0  0  0  0
 38 82  2  0  0  0  0
 39 42  1  0  0  0  0
 40 52  1  0  0  0  0
 41 67  1  0  0  0  0
 42 45  1  0  0  0  0
 43 46  1  0  0  0  0
 43 47  1  0  0  0  0
 44 48  1  0  0  0  0
 44 49  1  0  0  0  0
 45 51  1  0  0  0  0
 46 53  1  0  0  0  0
 47 53  1  0  0  0  0
 48 54  1  0  0  0  0
 49 68  1  0  0  0  0
 50 54  1  0  0  0  0
 50 68  1  0  0  0  0
 51 73  1  0  0  0  0
 52 67  1  0  0  0  0
 53 61  1  0  0  0  0
 54 66  1  0  0  0  0
 55 63  1  0  0  0  0
 56 64  1  0  0  0  0
 57 64  1  0  0  0  0
 58 64  1  0  0  0  0
 59 75  1  0  0  0  0
 60 85  1  0  0  0  0
 61 72  1  0  0  0  0
 62 64  1  0  0  0  0
 62 74  1  0  0  0  0
 63 75  1  0  0  0  0
 65 66  1  0  0  0  0
M  CHG  1  75   1
M  ISO  4  38 100  60 101  71 100  85 101
M  END
> <Batch ID>
0166

> <Smiles>
CNC(C)C(=O)NC(C(=O)N1Cc2cc([101O:1][101CH2:1]C(=O)C(=O)C(Nc3ccc([100NH:0][100C:0](=O)N4CCCC(n5nc(-c6ccc(Oc7ccc(F)cc7F)cc6)c(C(N)=O)c5N)C4)o3)C3CCC3)ccc2CC1C(=O)NC1CCCc2ccccc21)C(C)(C)C

> <Shape>
0.276

> <Color>
0.113

> <Negative vol penalty>
0.000

$$$$

  -OEChem-04052304083D

 86 94  0     1  0  0  0  0  0999 V2000
  -29.7637  -19.9779   15.6918 C   0  0  0  0  0  0  0  0  0  0  0  0
  -29.0812  -20.1880   16.8857 C   0  0  0  0  0  0  0  0  0  0  0  0
  -23.0753   -9.8679   19.9436 C   0  0  0  0  0  0  0  0  0  0  0  0
  -23.8394   -9.8764   22.2356 C   0  0  0  0  0  0  0  0  0  0  0  0
  -31.1564  -20.0391   15.6662 C   0  0  0  0  0  0  0  0  0  0  0  0
  -29.7911  -20.4583   18.0551 C   0  0  0  0  0  0  0  0  0  0  0  0
  -28.0717  -24.1387   22.6381 C   0  0  0  0  0  0  0  0  0  0  0  0
  -30.3767  -18.0967   24.0270 C   0  0  0  0  0  0  0  0  0  0  0  0
  -29.5857  -18.9044   24.8440 C   0  0  0  0  0  0  0  0  0  0  0  0
  -22.3327   -8.7143   20.1955 C   0  0  0  0  0  0  0  0  0  0  0  0
  -23.0967   -8.7228   22.4875 C   0  0  0  0  0  0  0  0  0  0  0  0
  -27.4810  -23.8834   23.8749 C   0  0  0  0  0  0  0  0  0  0  0  0
  -21.1161   -5.9850   23.8289 C   0  0  0  0  0  0  0  0  0  0  0  0
  -20.3620   -5.9415   25.0016 C   0  0  0  0  0  0  0  0  0  0  0  0
  -29.6583  -23.9091   24.9132 C   0  0  0  0  0  0  0  0  0  0  0  0
  -19.1148   -7.8776   24.2714 C   0  0  0  0  0  0  0  0  0  0  0  0
  -23.8287  -10.4489   20.9637 C   0  0  0  0  0  0  0  0  0  0  0  0
  -24.1686  -12.9742   20.8419 C   0  0  0  0  0  0  0  0  0  0  0  0
  -31.8833  -20.3199   16.8339 C   0  0  0  0  0  0  0  0  0  0  0  0
  -29.4634  -24.2705   22.5276 C   0  0  0  0  0  0  0  0  0  0  0  0
  -31.1949  -20.5220   18.0453 C   0  0  0  0  0  0  0  0  0  0  0  0
  -30.2639  -24.1686   23.6742 C   0  0  0  0  0  0  0  0  0  0  0  0
  -29.9421  -17.7647   22.7438 C   0  0  0  0  0  0  0  0  0  0  0  0
  -28.3600  -19.3799   24.3780 C   0  0  0  0  0  0  0  0  0  0  0  0
  -28.7164  -18.2402   22.2777 C   0  0  0  0  0  0  0  0  0  0  0  0
  -22.3433   -8.1418   21.4674 C   0  0  0  0  0  0  0  0  0  0  0  0
  -28.2746  -23.7657   25.0123 C   0  0  0  0  0  0  0  0  0  0  0  0
  -20.8696   -6.9749   22.8776 C   0  0  0  0  0  0  0  0  0  0  0  0
  -19.3613   -6.8877   25.2228 C   0  0  0  0  0  0  0  0  0  0  0  0
  -19.8689   -7.9212   23.0988 C   0  0  0  0  0  0  0  0  0  0  0  0
  -27.9253  -19.0478   23.0948 C   0  0  0  0  0  0  0  0  0  0  0  0
  -24.5965  -11.6402   20.7040 C   0  0  0  0  0  0  0  0  0  0  0  0
  -25.2596  -13.7242   20.4763 C   0  0  0  0  0  0  0  0  0  0  0  0
  -22.8986  -13.4894   21.2629 C   0  0  0  0  0  0  0  0  0  0  0  0
  -31.7503  -22.6930   20.9833 C   0  0  0  0  0  0  0  0  0  0  0  0
  -33.6208  -25.0988   22.0949 C   0  0  0  0  0  0  0  0  0  0  0  0
  -27.8392  -20.6213   26.5068 C   0  0  0  0  0  0  0  0  0  0  0  0
  -34.1203  -27.5388   24.4281 C   0  0  0  0  0  0  0  0  0  0  0  0
  -30.7430  -14.7470   20.6541 C   0  0  0  0  0  0  0  0  0  0  0  0
  -33.3899  -20.3291   16.7665 C   0  0  0  0  0  0  0  0  0  0  0  0
  -30.0827  -24.5723   21.1905 C   0  0  0  0  0  0  0  0  0  0  0  0
  -31.7610  -24.3220   23.6124 C   0  0  0  0  0  0  0  0  0  0  0  0
  -34.0496  -20.9914   17.9733 C   0  0  0  0  0  0  0  0  0  0  0  0
  -29.6026  -12.3607   18.2705 C   0  0  0  0  0  0  0  0  0  0  0  0
  -33.4194  -20.4893   19.2686 C   0  0  0  0  0  0  0  0  0  0  0  0
  -28.1662  -12.0662   18.7062 C   0  0  0  0  0  0  0  0  0  0  0  0
  -30.5218  -12.5827   19.4696 C   0  0  0  0  0  0  0  0  0  0  0  0
  -28.6221  -13.3131   20.8594 C   0  0  0  0  0  0  0  0  0  0  0  0
  -31.9284  -20.8424   19.3297 C   0  0  1  0  0  0  0  0  0  0  0  0
  -31.5541  -24.1772   21.1107 C   0  0  1  0  0  0  0  0  0  0  0  0
  -27.6459  -13.1373   19.6836 C   0  0  2  0  0  0  0  0  0  0  0  0
  -35.7584  -29.3177   25.0984 C   0  0  0  0  0  0  0  0  0  0  0  0
  -25.3837  -23.6221   26.8209 C   0  0  0  0  0  0  0  0  0  0  0  0
  -35.4616  -22.9617   23.2587 C   0  0  0  0  0  0  0  0  0  0  0  0
  -36.5069  -24.7364   24.6822 C   0  0  0  0  0  0  0  0  0  0  0  0
  -36.6449  -24.8919   22.1963 C   0  0  0  0  0  0  0  0  0  0  0  0
  -32.1214  -29.6872   24.0440 C   0  0  0  0  0  0  0  0  0  0  0  0
  -30.8097  -16.8982   21.8899 C   0  0  0  0  0  0  0  0  0  0  0  0
  -26.7051  -21.4908   27.0407 C   0  0  0  0  0  0  0  0  0  0  0  0
  -34.4355  -25.3294   23.3448 C   0  0  1  0  0  0  0  0  0  0  0  0
  -34.5099  -28.9995   24.2905 C   0  0  2  0  0  0  0  0  0  0  0  0
  -26.4886  -22.7628   26.2207 C   0  0  2  0  0  0  0  0  0  1  0  0
  -35.7342  -24.4750   23.3717 C   0  0  0  0  0  0  0  0  0  0  0  0
  -25.8607  -11.5450   20.2834 N   0  0  0  0  0  0  0  0  0  0  0  0
  -26.2365  -12.8287   20.1538 N   0  0  0  0  0  0  0  0  0  0  0  0
  -32.3199  -24.6102   22.2813 N   0  0  0  0  0  0  0  0  0  0  0  0
  -29.9722  -13.6112   20.3562 N   0  0  0  0  0  0  0  0  0  0  0  0
  -28.2630  -17.9118   20.9810 N   0  0  0  0  0  0  0  0  0  0  0  0
  -25.4690  -15.0558   20.4023 N   0  0  0  0  0  0  0  0  0  0  0  0
  -21.8879  -12.5797   21.6025 N   0  0  0  0  0  0  0  0  0  0  0  0
  -27.5592  -20.1975   25.2104 N   0  0  0  0  0  0  0  0  0  0  0  0
  -31.7528  -22.2357   19.6793 N   0  0  0  0  0  0  0  0  0  0  0  0
  -34.6649  -26.7680   23.4228 N   0  0  0  0  0  0  0  0  0  0  0  0
  -30.1448  -15.6758   21.4969 N   0  0  0  0  0  0  0  0  0  0  0  0
  -33.4046  -29.8776   24.7680 N   0  3  0  0  0  0  0  0  0  0  0  0
  -22.6616  -14.7198   21.3201 O   0  0  0  0  0  0  0  0  0  0  0  0
  -31.8907  -22.0132   21.9932 O   0  0  0  0  0  0  0  0  0  0  0  0
  -34.1179  -25.3499   20.9942 O   0  0  0  0  0  0  0  0  0  0  0  0
  -28.8362  -20.3656   27.1738 O   0  0  0  0  0  0  0  0  0  0  0  0
  -33.4074  -27.1225   25.3386 O   0  0  0  0  0  0  0  0  0  0  0  0
  -31.8780  -14.9231   20.1983 O   0  0  0  0  0  0  0  0  0  0  0  0
  -21.6186   -7.0164   21.7136 O   0  0  0  0  0  0  0  0  0  0  0  0
  -27.7007  -23.5158   26.2206 O   0  0  0  0  0  0  0  0  0  1  0  0
  -18.6362   -6.8448   26.3482 F   0  0  0  0  0  0  0  0  0  0  0  0
  -19.6267   -8.8738   22.1879 F   0  0  0  0  0  0  0  0  0  0  0  0
  -26.7457  -19.5055   22.6478 F   0  0  0  0  0  0  0  0  0  0  0  0
  1  2  1  0  0  0  0
  1  5  2  0  0  0  0
  2  6  2  0  0  0  0
  3 10  2  0  0  0  0
  3 17  1  0  0  0  0
  4 11  1  0  0  0  0
  4 17  2  0  0  0  0
  5 19  1  0  0  0  0
  6 21  1  0  0  0  0
  7 12  2  0  0  0  0
  7 20  1  0  0  0  0
  8  9  2  0  0  0  0
  8 23  1  0  0  0  0
  9 24  1  0  0  0  0
 10 26  1  0  0  0  0
 11 26  2  0  0  0  0
 12 27  1  0  0  0  0
 13 14  2  0  0  0  0
 13 28  1  0  0  0  0
 14 29  1  0  0  0  0
 15 22  1  0  0  0  0
 15 27  2  0  0  0  0
 16 29  2  0  0  0  0
 16 30  1  0  0  0  0
 17 32  1  0  0  0  0
 18 32  1  0  0  0  0
 18 33  2  0  0  0  0
 18 34  1  0  0  0  0
 19 21  2  0  0  0  0
 19 40  1  0  0  0  0
 20 22  2  0  0  0  0
 20 41  1  0  0  0  0
 21 49  1  0  0  0  0
 22 42  1  0  0  0  0
 23 25  2  0  0  0  0
 23 58  1  0  0  0  0
 24 31  2  0  0  0  0
 24 71  1  0  0  0  0
 25 31  1  0  0  0  0
 25 68  1  0  0  0  0
 26 82  1  0  0  0  0
 27 83  1  0  0  0  0
 28 30  2  0  0  0  0
 28 82  1  0  0  0  0
 29 84  1  0  0  0  0
 30 85  1  0  0  0  0
 31 86  1  0  0  0  0
 32 64  2  0  0  0  0
 33 65  1  0  0  0  0
 33 69  1  0  0  0  0
 34 70  1  0  0  0  0
 34 76  2  0  0  0  0
 35 50  1  0  0  0  0
 35 72  1  0  0  0  0
 35 77  2  0  0  0  0
 36 60  1  0  0  0  0
 36 66  1  0  0  0  0
 36 78  2  0  0  0  0
 37 59  1  0  0  0  0
 37 71  1  0  0  0  0
 37 79  2  0  0  0  0
 38 61  1  0  0  0  0
 38 73  1  0  0  0  0
 38 80  2  0  0  0  0
 39 67  1  0  0  0  0
 39 74  1  0  0  0  0
 39 81  2  0  0  0  0
 40 43  1  0  0  0  0
 41 50  1  0  0  0  0
 42 66  1  0  0  0  0
 43 45  1  0  0  0  0
 44 46  1  0  0  0  0
 44 47  1  0  0  0  0
 45 49  1  0  0  0  0
 46 51  1  0  0  0  0
 47 67  1  0  0  0  0
 48 51  1  0  0  0  0
 48 67  1  0  0  0  0
 49 72  1  0  0  0  0
 50 66  1  0  0  0  0
 51 65  1  0  0  0  0
 52 61  1  0  0  0  0
 53 62  1  0  0  0  0
 54 63  1  0  0  0  0
 55 63  1  0  0  0  0
 56 63  1  0  0  0  0
 57 75  1  0  0  0  0
 58 74  1  0  0  0  0
 59 62  1  0  0  0  0
 60 63  1  0  0  0  0
 60 73  1  0  0  0  0
 61 75  1  0  0  0  0
 62 83  1  0  0  0  0
 64 65  1  0  0  0  0
M  CHG  1  75   1
M  ISO  4  39 100  62 101  74 100  83 101
M  END
> <Batch ID>
0166

> <Smiles>
CNC(C)C(=O)NC(C(=O)N1Cc2cc([101O:1][101CH:1](C)CC(=O)Nc3ccc(C[100NH:0][100C:0](=O)N4CCCC(n5nc(-c6ccc(Oc7ccc(F)cc7F)cc6)c(C(N)=O)c5N)C4)c(N)c3F)ccc2CC1C(=O)NC1CCCc2ccccc21)C(C)(C)C

> <Shape>
0.178

> <Color>
0.184

> <Negative vol penalty>
0.000

$$$$

  -OEChem-04052304083D

 82 90  0     1  0  0  0  0  0999 V2000
  -16.4927  -30.2927   23.4026 C   0  0  0  0  0  0  0  0  0  0  0  0
  -17.6008  -31.0355   23.7974 C   0  0  0  0  0  0  0  0  0  0  0  0
  -26.8683  -21.1149   19.5321 C   0  0  0  0  0  0  0  0  0  0  0  0
  -28.7785  -20.7398   20.9631 C   0  0  0  0  0  0  0  0  0  0  0  0
  -16.6526  -28.9711   22.9881 C   0  0  0  0  0  0  0  0  0  0  0  0
  -18.8693  -30.4567   23.7790 C   0  0  0  0  0  0  0  0  0  0  0  0
  -25.7481  -32.1178   22.6657 C   0  0  0  0  0  0  0  0  0  0  0  0
  -26.3515  -19.8716   19.8960 C   0  0  0  0  0  0  0  0  0  0  0  0
  -28.2616  -19.4964   21.3271 C   0  0  0  0  0  0  0  0  0  0  0  0
  -26.9974  -31.9959   23.2724 C   0  0  0  0  0  0  0  0  0  0  0  0
  -24.7066  -16.6402   20.1723 C   0  0  0  0  0  0  0  0  0  0  0  0
  -24.2002  -15.8252   19.1599 C   0  0  0  0  0  0  0  0  0  0  0  0
  -27.1632  -29.7299   22.4620 C   0  0  0  0  0  0  0  0  0  0  0  0
  -33.2939  -29.4510   20.2903 C   0  0  0  0  0  0  0  0  0  0  0  0
  -26.3657  -15.8106   18.0885 C   0  0  0  0  0  0  0  0  0  0  0  0
  -35.0715  -29.6062   21.6291 C   0  0  0  0  0  0  0  0  0  0  0  0
  -28.0819  -21.5491   20.0656 C   0  0  0  0  0  0  0  0  0  0  0  0
  -28.3850  -24.0689   20.3231 C   0  0  0  0  0  0  0  0  0  0  0  0
  -17.9249  -28.3789   22.9554 C   0  0  0  0  0  0  0  0  0  0  0  0
  -25.1912  -31.0412   21.9605 C   0  0  0  0  0  0  0  0  0  0  0  0
  -19.0461  -29.1255   23.3649 C   0  0  0  0  0  0  0  0  0  0  0  0
  -25.9079  -29.8415   21.8450 C   0  0  0  0  0  0  0  0  0  0  0  0
  -33.7290  -29.8977   21.5608 C   0  0  0  0  0  0  0  0  0  0  0  0
  -27.0481  -19.0623   20.7935 C   0  0  0  0  0  0  0  0  0  0  0  0
  -27.7039  -30.8009   23.1731 C   0  0  0  0  0  0  0  0  0  0  0  0
  -26.0425  -17.0405   20.1427 C   0  0  0  0  0  0  0  0  0  0  0  0
  -25.0297  -15.4104   18.1180 C   0  0  0  0  0  0  0  0  0  0  0  0
  -26.8720  -16.6257   19.1009 C   0  0  0  0  0  0  0  0  0  0  0  0
  -28.6165  -22.8332   19.6897 C   0  0  0  0  0  0  0  0  0  0  0  0
  -34.4017  -28.9186   19.6726 C   0  0  0  0  0  0  0  0  0  0  0  0
  -29.1135  -24.9728   19.5890 C   0  0  0  0  0  0  0  0  0  0  0  0
  -27.5832  -24.3726   21.4722 C   0  0  0  0  0  0  0  0  0  0  0  0
  -22.5753  -29.2638   22.2792 C   0  0  0  0  0  0  0  0  0  0  0  0
  -23.5520  -28.0132   19.4500 C   0  0  0  0  0  0  0  0  0  0  0  0
  -31.6077  -30.8315   22.5467 C   0  0  0  0  0  0  0  0  0  0  0  0
  -26.1183  -27.3984   17.2860 C   0  0  0  0  0  0  0  0  0  0  0  0
  -33.8000  -26.4361   16.9357 C   0  0  0  0  0  0  0  0  0  0  0  0
  -18.0419  -26.9324   22.5448 C   0  0  0  0  0  0  0  0  0  0  0  0
  -23.8544  -31.1976   21.2891 C   0  0  0  0  0  0  0  0  0  0  0  0
  -25.3631  -28.6627   21.0821 C   0  0  0  0  0  0  0  0  0  0  0  0
  -19.4675  -26.5112   22.1977 C   0  0  0  0  0  0  0  0  0  0  0  0
  -31.4430  -24.4743   15.1268 C   0  0  0  0  0  0  0  0  0  0  0  0
  -20.4445  -27.0092   23.2581 C   0  0  0  0  0  0  0  0  0  0  0  0
  -30.4828  -23.9697   16.2053 C   0  0  0  0  0  0  0  0  0  0  0  0
  -32.8811  -24.5377   15.6364 C   0  0  0  0  0  0  0  0  0  0  0  0
  -32.1034  -24.8025   17.9600 C   0  0  0  0  0  0  0  0  0  0  0  0
  -20.4415  -28.5407   23.3352 C   0  0  1  0  0  0  0  0  0  0  0  0
  -23.1559  -29.8660   21.0311 C   0  0  1  0  0  0  0  0  0  0  0  0
  -30.6325  -24.7744   17.5104 C   0  0  2  0  0  0  0  0  0  0  0  0
  -27.2588  -26.6588   15.1766 C   0  0  0  0  0  0  0  0  0  0  0  0
  -23.3713  -25.2580   20.7484 C   0  0  0  0  0  0  0  0  0  0  0  0
  -24.7510  -24.3563   18.8639 C   0  0  0  0  0  0  0  0  0  0  0  0
  -22.5162  -25.3630   18.4006 C   0  0  0  0  0  0  0  0  0  0  0  0
  -25.7720  -30.0555   16.0296 C   0  0  0  0  0  0  0  0  0  0  0  0
  -34.6188  -28.2974   18.3585 C   0  0  0  0  0  0  0  0  0  0  0  0
  -31.1848  -31.4977   23.8511 C   0  0  0  0  0  0  0  0  0  0  0  0
  -29.7089  -31.8643   23.8837 C   0  0  0  0  0  0  0  0  0  1  0  0
  -24.4451  -26.8676   19.0390 C   0  0  1  0  0  0  0  0  0  0  0  0
  -26.2475  -27.6153   15.7891 C   0  0  2  0  0  0  0  0  0  0  0  0
  -23.7806  -25.4826   19.2791 C   0  0  0  0  0  0  0  0  0  0  0  0
  -29.4285  -22.9388   18.6344 N   0  0  0  0  0  0  0  0  0  0  0  0
  -29.7134  -24.2516   18.5990 N   0  0  0  0  0  0  0  0  0  0  0  0
  -24.0493  -28.8627   20.4485 N   0  0  0  0  0  0  0  0  0  0  0  0
  -32.9544  -25.3162   16.8752 N   0  0  0  0  0  0  0  0  0  0  0  0
  -29.2929  -26.3061   19.7003 N   0  0  0  0  0  0  0  0  0  0  0  0
  -26.9012  -23.3254   22.1067 N   0  0  0  0  0  0  0  0  0  0  0  0
  -32.9644  -30.5202   22.5761 N   0  0  0  0  0  0  0  0  0  0  0  0
  -21.2034  -29.1032   22.2408 N   0  0  0  0  0  0  0  0  0  0  0  0
  -24.8184  -27.1187   17.6512 N   0  0  0  0  0  0  0  0  0  0  0  0
  -33.8051  -27.1214   18.1445 N   0  0  0  0  0  0  0  0  0  0  0  0
  -26.6875  -29.0103   15.5039 N   0  3  0  0  0  0  0  0  0  0  0  0
  -27.4616  -25.5406   21.9132 O   0  0  0  0  0  0  0  0  0  0  0  0
  -23.3172  -28.9655   23.2078 O   0  0  0  0  0  0  0  0  0  0  0  0
  -22.4568  -28.1536   18.9002 O   0  0  0  0  0  0  0  0  0  0  0  0
  -30.8164  -30.6251   21.6327 O   0  0  0  0  0  0  0  0  0  0  0  0
  -27.0754  -27.4663   18.0540 O   0  0  0  0  0  0  0  0  0  0  0  0
  -34.4947  -26.8016   15.9813 O   0  0  0  0  0  0  0  0  0  0  0  0
  -35.4894  -29.0094   20.4820 O   0  0  0  0  0  0  0  0  0  0  0  0
  -26.5440  -17.8490   21.1490 O   0  0  0  0  0  0  0  0  0  0  0  0
  -28.9232  -30.6790   23.7650 O   0  0  0  0  0  0  0  0  0  1  0  0
  -24.5437  -14.6264   17.1467 F   0  0  0  0  0  0  0  0  0  0  0  0
  -28.1566  -17.0060   19.0678 F   0  0  0  0  0  0  0  0  0  0  0  0
  1  2  1  0  0  0  0
  1  5  2  0  0  0  0
  2  6  2  0  0  0  0
  3  8  2  0  0  0  0
  3 17  1  0  0  0  0
  4  9  1  0  0  0  0
  4 17  2  0  0  0  0
  5 19  1  0  0  0  0
  6 21  1  0  0  0  0
  7 10  2  0  0  0  0
  7 20  1  0  0  0  0
  8 24  1  0  0  0  0
  9 24  2  0  0  0  0
 10 25  1  0  0  0  0
 11 12  2  0  0  0  0
 11 26  1  0  0  0  0
 12 27  1  0  0  0  0
 13 22  1  0  0  0  0
 13 25  2  0  0  0  0
 14 23  1  0  0  0  0
 14 30  2  0  0  0  0
 15 27  2  0  0  0  0
 15 28  1  0  0  0  0
 16 23  2  0  0  0  0
 16 78  1  0  0  0  0
 17 29  1  0  0  0  0
 18 29  1  0  0  0  0
 18 31  2  0  0  0  0
 18 32  1  0  0  0  0
 19 21  2  0  0  0  0
 19 38  1  0  0  0  0
 20 22  2  0  0  0  0
 20 39  1  0  0  0  0
 21 47  1  0  0  0  0
 22 40  1  0  0  0  0
 23 67  1  0  0  0  0
 24 79  1  0  0  0  0
 25 80  1  0  0  0  0
 26 28  2  0  0  0  0
 26 79  1  0  0  0  0
 27 81  1  0  0  0  0
 28 82  1  0  0  0  0
 29 61  2  0  0  0  0
 30 55  1  0  0  0  0
 30 78  1  0  0  0  0
 31 62  1  0  0  0  0
 31 65  1  0  0  0  0
 32 66  1  0  0  0  0
 32 72  2  0  0  0  0
 33 48  1  0  0  0  0
 33 68  1  0  0  0  0
 33 73  2  0  0  0  0
 34 58  1  0  0  0  0
 34 63  1  0  0  0  0
 34 74  2  0  0  0  0
 35 56  1  0  0  0  0
 35 67  1  0  0  0  0
 35 75  2  0  0  0  0
 36 59  1  0  0  0  0
 36 69  1  0  0  0  0
 36 76  2  0  0  0  0
 37 64  1  0  0  0  0
 37 70  1  0  0  0  0
 37 77  2  0  0  0  0
 38 41  1  0  0  0  0
 39 48  1  0  0  0  0
 40 63  1  0  0  0  0
 41 43  1  0  0  0  0
 42 44  1  0  0  0  0
 42 45  1  0  0  0  0
 43 47  1  0  0  0  0
 44 49  1  0  0  0  0
 45 64  1  0  0  0  0
 46 49  1  0  0  0  0
 46 64  1  0  0  0  0
 47 68  1  0  0  0  0
 48 63  1  0  0  0  0
 49 62  1  0  0  0  0
 50 59  1  0  0  0  0
 51 60  1  0  0  0  0
 52 60  1  0  0  0  0
 53 60  1  0  0  0  0
 54 71  1  0  0  0  0
 55 70  1  0  0  0  0
 56 57  1  0  0  0  0
 57 80  1  0  0  0  0
 58 60  1  0  0  0  0
 58 69  1  0  0  0  0
 59 71  1  0  0  0  0
 61 62  1  0  0  0  0
M  CHG  1  71   1
M  ISO  4  37 100  57 101  70 100  80 101
M  END
> <Batch ID>
0166

> <Smiles>
CNC(C)C(=O)NC(C(=O)N1Cc2cc([101O:1][101CH2:1]CC(=O)Nc3coc(C[100NH:0][100C:0](=O)N4CCCC(n5nc(-c6ccc(Oc7ccc(F)cc7F)cc6)c(C(N)=O)c5N)C4)c3)ccc2CC1C(=O)NC1CCCc2ccccc21)C(C)(C)C

> <Shape>
0.230

> <Color>
0.110

> <Negative vol penalty>
0.000

$$$$

  -OEChem-04052304083D

 88 97  0     1  0  0  0  0  0999 V2000
  -25.9727  -38.5260   21.8791 C   0  0  0  0  0  0  0  0  0  0  0  0
  -26.6754  -37.4404   21.3661 C   0  0  0  0  0  0  0  0  0  0  0  0
  -28.0378  -19.8293   18.5601 C   0  0  0  0  0  0  0  0  0  0  0  0
  -23.2085  -10.2702   21.7753 C   0  0  0  0  0  0  0  0  0  0  0  0
  -22.7835  -12.4981   20.9428 C   0  0  0  0  0  0  0  0  0  0  0  0
  -25.1070  -38.3479   22.9574 C   0  0  0  0  0  0  0  0  0  0  0  0
  -26.5135  -36.1762   21.9318 C   0  0  0  0  0  0  0  0  0  0  0  0
  -26.6244  -30.7944   19.0113 C   0  0  0  0  0  0  0  0  0  0  0  0
  -28.1989  -21.2131   18.6352 C   0  0  0  0  0  0  0  0  0  0  0  0
  -22.1120  -10.3804   22.6303 C   0  0  0  0  0  0  0  0  0  0  0  0
  -21.6869  -12.6083   21.7979 C   0  0  0  0  0  0  0  0  0  0  0  0
  -27.6236  -29.8359   18.8486 C   0  0  0  0  0  0  0  0  0  0  0  0
  -21.1352  -13.2418   25.0728 C   0  0  0  0  0  0  0  0  0  0  0  0
  -20.9905  -14.4285   25.7914 C   0  0  0  0  0  0  0  0  0  0  0  0
  -28.8523  -17.5699   19.0445 C   0  0  0  0  0  0  0  0  0  0  0  0
  -30.2838  -20.9077   19.8130 C   0  0  0  0  0  0  0  0  0  0  0  0
  -26.7316  -28.5976   20.7168 C   0  0  0  0  0  0  0  0  0  0  0  0
  -30.9373  -17.2645   20.2223 C   0  0  0  0  0  0  0  0  0  0  0  0
  -18.8478  -14.8038   24.7402 C   0  0  0  0  0  0  0  0  0  0  0  0
  -28.9982  -18.9652   19.1108 C   0  0  0  0  0  0  0  0  0  0  0  0
  -30.1380  -19.5124   19.7466 C   0  0  0  0  0  0  0  0  0  0  0  0
  -23.5443  -11.3290   20.9315 C   0  0  0  0  0  0  0  0  0  0  0  0
  -24.6811  -10.7241   18.7294 C   0  0  0  0  0  0  0  0  0  0  0  0
  -24.9271  -37.0790   23.5304 C   0  0  0  0  0  0  0  0  0  0  0  0
  -25.6761  -30.6671   20.0365 C   0  0  0  0  0  0  0  0  0  0  0  0
  -25.6456  -35.9812   23.0196 C   0  0  0  0  0  0  0  0  0  0  0  0
  -25.7198  -29.5545   20.8888 C   0  0  0  0  0  0  0  0  0  0  0  0
  -29.3197  -21.7512   19.2604 C   0  0  0  0  0  0  0  0  0  0  0  0
  -29.8164  -16.7264   19.5970 C   0  0  0  0  0  0  0  0  0  0  0  0
  -21.3512  -11.5495   22.6416 C   0  0  0  0  0  0  0  0  0  0  0  0
  -27.6791  -28.7387   19.7032 C   0  0  0  0  0  0  0  0  0  0  0  0
  -20.1363  -12.8361   24.1878 C   0  0  0  0  0  0  0  0  0  0  0  0
  -19.8468  -15.2095   25.6252 C   0  0  0  0  0  0  0  0  0  0  0  0
  -31.0984  -18.6483   20.2973 C   0  0  0  0  0  0  0  0  0  0  0  0
  -18.9926  -13.6171   24.0216 C   0  0  0  0  0  0  0  0  0  0  0  0
  -24.6772  -11.2159   20.0484 C   0  0  0  0  0  0  0  0  0  0  0  0
  -25.9910  -10.8253   18.3291 C   0  0  0  0  0  0  0  0  0  0  0  0
  -28.2737  -26.5142   19.2929 C   0  0  0  0  0  0  0  0  0  1  0  0
  -23.5975  -10.2207   17.9369 C   0  0  0  0  0  0  0  0  0  0  0  0
  -29.1467  -25.5140   19.1223 C   0  0  0  0  0  0  0  0  0  0  0  0
  -28.6277  -24.1345   18.8464 C   0  0  0  0  0  0  0  0  0  0  0  0
  -24.8851  -32.3913   22.5870 C   0  0  0  0  0  0  0  0  0  0  0  0
  -22.4927  -30.2145   22.8327 C   0  0  0  0  0  0  0  0  0  0  0  0
  -21.3413  -27.0821   22.1191 C   0  0  0  0  0  0  0  0  0  0  0  0
  -30.5157  -14.3433   20.0191 C   0  0  0  0  0  0  0  0  0  0  0  0
  -24.0163  -36.9445   24.7250 C   0  0  0  0  0  0  0  0  0  0  0  0
  -24.5885  -31.6958   20.1820 C   0  0  0  0  0  0  0  0  0  0  0  0
  -24.7132  -29.3609   21.9923 C   0  0  0  0  0  0  0  0  0  0  0  0
  -23.6169  -35.5025   25.0271 C   0  0  0  0  0  0  0  0  0  0  0  0
  -30.4525  -10.7837   20.0693 C   0  0  0  0  0  0  0  0  0  0  0  0
  -24.8385  -34.5900   24.9840 C   0  0  0  0  0  0  0  0  0  0  0  0
  -28.9652  -10.4457   19.9435 C   0  0  0  0  0  0  0  0  0  0  0  0
  -30.6803  -12.0328   20.9188 C   0  0  0  0  0  0  0  0  0  0  0  0
  -28.4316  -12.8783   20.3735 C   0  0  0  0  0  0  0  0  0  0  0  0
  -25.4780  -34.5897   23.5903 C   0  0  1  0  0  0  0  0  0  0  0  0
  -23.9835  -31.7319   21.5820 C   0  0  1  0  0  0  0  0  0  0  0  0
  -28.1480  -11.6649   19.4729 C   0  0  2  0  0  0  0  0  0  0  0  0
  -19.3657  -25.5787   22.4855 C   0  0  0  0  0  0  0  0  0  0  0  0
  -23.3961  -29.7318   25.7069 C   0  0  0  0  0  0  0  0  0  0  0  0
  -22.0566  -27.6167   25.6991 C   0  0  0  0  0  0  0  0  0  0  0  0
  -20.9164  -29.8141   25.3927 C   0  0  0  0  0  0  0  0  0  0  0  0
  -20.8192  -26.8672   19.2139 C   0  0  0  0  0  0  0  0  0  0  0  0
  -22.3290  -28.8784   23.5162 C   0  0  1  0  0  0  0  0  0  0  0  0
  -20.0138  -26.5993   21.5630 C   0  0  2  0  0  0  0  0  0  0  0  0
  -22.1948  -29.0146   25.0592 C   0  0  0  0  0  0  0  0  0  0  0  0
  -25.8885  -11.6009   20.4588 N   0  0  0  0  0  0  0  0  0  0  0  0
  -26.6659  -11.3509   19.3914 N   0  0  0  0  0  0  0  0  0  0  0  0
  -23.6728  -30.3972   22.0980 N   0  0  0  0  0  0  0  0  0  0  0  0
  -29.8775  -13.1476   20.4114 N   0  0  0  0  0  0  0  0  0  0  0  0
  -26.6200  -10.5151   17.1756 N   0  0  0  0  0  0  0  0  0  0  0  0
  -22.3156  -10.1866   18.5025 N   0  0  0  0  0  0  0  0  0  0  0  0
  -29.4816  -23.1557   19.3359 N   0  0  0  0  0  0  0  0  0  0  0  0
  -29.6540  -15.3207   19.5225 N   0  0  0  0  0  0  0  0  0  0  0  0
  -24.7142  -33.7591   22.6840 N   0  0  0  0  0  0  0  0  0  0  0  0
  -21.1931  -28.2272   22.8728 N   0  0  0  0  0  0  0  0  0  0  0  0
  -20.2106  -25.9677   20.2276 N   0  3  0  0  0  0  0  0  0  0  0  0
  -23.7641   -9.7979   16.7677 O   0  0  0  0  0  0  0  0  0  0  0  0
  -27.5672  -23.9672   18.2538 O   0  0  0  0  0  0  0  0  0  0  0  0
  -25.6761  -31.7094   23.2282 O   0  0  0  0  0  0  0  0  0  0  0  0
  -21.6030  -31.0620   22.9407 O   0  0  0  0  0  0  0  0  0  0  0  0
  -22.4028  -26.4995   21.9092 O   0  0  0  0  0  0  0  0  0  0  0  0
  -31.7398  -14.4793   20.0910 O   0  0  0  0  0  0  0  0  0  0  0  0
  -30.5124  -25.7014   19.1889 O   0  0  0  0  0  0  0  0  0  0  0  0
  -20.2810  -11.6573   23.4757 O   0  0  0  0  0  0  0  0  0  0  0  0
  -28.6538  -27.8020   19.5471 O   0  0  0  0  0  0  0  0  0  1  0  0
  -19.7073  -16.3482   26.3165 F   0  0  0  0  0  0  0  0  0  0  0  0
  -32.1880  -19.1413   20.9055 F   0  0  0  0  0  0  0  0  0  0  0  0
  -18.0289  -13.2319   23.1737 F   0  0  0  0  0  0  0  0  0  0  0  0
  1  2  1  0  0  0  0
  1  6  2  0  0  0  0
  2  7  2  0  0  0  0
  3  9  2  0  0  0  0
  3 20  1  0  0  0  0
  4 10  2  0  0  0  0
  4 22  1  0  0  0  0
  5 11  1  0  0  0  0
  5 22  2  0  0  0  0
  6 24  1  0  0  0  0
  7 26  1  0  0  0  0
  8 12  2  0  0  0  0
  8 25  1  0  0  0  0
  9 28  1  0  0  0  0
 10 30  1  0  0  0  0
 11 30  2  0  0  0  0
 12 31  1  0  0  0  0
 13 14  2  0  0  0  0
 13 32  1  0  0  0  0
 14 33  1  0  0  0  0
 15 20  1  0  0  0  0
 15 29  2  0  0  0  0
 16 21  1  0  0  0  0
 16 28  2  0  0  0  0
 17 27  1  0  0  0  0
 17 31  2  0  0  0  0
 18 29  1  0  0  0  0
 18 34  2  0  0  0  0
 19 33  2  0  0  0  0
 19 35  1  0  0  0  0
 20 21  2  0  0  0  0
 21 34  1  0  0  0  0
 22 36  1  0  0  0  0
 23 36  1  0  0  0  0
 23 37  2  0  0  0  0
 23 39  1  0  0  0  0
 24 26  2  0  0  0  0
 24 46  1  0  0  0  0
 25 27  2  0  0  0  0
 25 47  1  0  0  0  0
 26 55  1  0  0  0  0
 27 48  1  0  0  0  0
 28 72  1  0  0  0  0
 29 73  1  0  0  0  0
 30 84  1  0  0  0  0
 31 85  1  0  0  0  0
 32 35  2  0  0  0  0
 32 84  1  0  0  0  0
 33 86  1  0  0  0  0
 34 87  1  0  0  0  0
 35 88  1  0  0  0  0
 36 66  2  0  0  0  0
 37 67  1  0  0  0  0
 37 70  1  0  0  0  0
 38 40  2  0  0  0  0
 38 85  1  0  0  0  0
 39 71  1  0  0  0  0
 39 77  2  0  0  0  0
 40 41  1  0  0  0  0
 40 83  1  0  0  0  0
 41 72  1  0  0  0  0
 41 78  2  0  0  0  0
 42 56  1  0  0  0  0
 42 74  1  0  0  0  0
 42 79  2  0  0  0  0
 43 63  1  0  0  0  0
 43 68  1  0  0  0  0
 43 80  2  0  0  0  0
 44 64  1  0  0  0  0
 44 75  1  0  0  0  0
 44 81  2  0  0  0  0
 45 69  1  0  0  0  0
 45 73  1  0  0  0  0
 45 82  2  0  0  0  0
 46 49  1  0  0  0  0
 47 56  1  0  0  0  0
 48 68  1  0  0  0  0
 49 51  1  0  0  0  0
 50 52  1  0  0  0  0
 50 53  1  0  0  0  0
 51 55  1  0  0  0  0
 52 57  1  0  0  0  0
 53 69  1  0  0  0  0
 54 57  1  0  0  0  0
 54 69  1  0  0  0  0
 55 74  1  0  0  0  0
 56 68  1  0  0  0  0
 57 67  1  0  0  0  0
 58 64  1  0  0  0  0
 59 65  1  0  0  0  0
 60 65  1  0  0  0  0
 61 65  1  0  0  0  0
 62 76  1  0  0  0  0
 63 65  1  0  0  0  0
 63 75  1  0  0  0  0
 64 76  1  0  0  0  0
 66 67  1  0  0  0  0
M  CHG  1  76   1
M  ISO  4  38 101  45 100  73 100  85 101
M  END
> <Batch ID>
0166

> <Smiles>
CNC(C)C(=O)NC(C(=O)N1Cc2cc([101O:1][101CH2:1]C(=O)C(=O)Nc3ccc4cc([100NH:0][100C:0](=O)N5CCCC(n6nc(-c7ccc(Oc8ccc(F)cc8F)cc7)c(C(N)=O)c6N)C5)cc(F)c4c3)ccc2CC1C(=O)NC1CCCc2ccccc21)C(C)(C)C

> <Shape>
0.311

> <Color>
0.067

> <Negative vol penalty>
0.000

$$$$

  -OEChem-04052304083D

 85 93  0     1  0  0  0  0  0999 V2000
  -28.5935  -22.8677   28.8064 C   0  0  0  0  0  0  0  0  0  0  0  0
  -27.4939  -22.4155   28.0839 C   0  0  0  0  0  0  0  0  0  0  0  0
  -29.4576  -20.1563   20.7732 C   0  0  0  0  0  0  0  0  0  0  0  0
  -27.0597  -20.3172   20.5262 C   0  0  0  0  0  0  0  0  0  0  0  0
  -28.6450  -24.1921   29.2392 C   0  0  0  0  0  0  0  0  0  0  0  0
  -26.4447  -23.2872   27.7947 C   0  0  0  0  0  0  0  0  0  0  0  0
  -24.8810  -22.9192   22.9922 C   0  0  0  0  0  0  0  0  0  0  0  0
  -29.6111  -21.3427   20.0560 C   0  0  0  0  0  0  0  0  0  0  0  0
  -27.2132  -21.5037   19.8090 C   0  0  0  0  0  0  0  0  0  0  0  0
  -24.0618  -21.8379   22.6704 C   0  0  0  0  0  0  0  0  0  0  0  0
  -29.3225  -24.6608   20.6388 C   0  0  0  0  0  0  0  0  0  0  0  0
  -30.2130  -25.6104   21.1396 C   0  0  0  0  0  0  0  0  0  0  0  0
  -22.1268  -23.2725   22.8020 C   0  0  0  0  0  0  0  0  0  0  0  0
  -31.5062  -25.4714   19.1036 C   0  0  0  0  0  0  0  0  0  0  0  0
  -28.1819  -19.6435   21.0082 C   0  0  0  0  0  0  0  0  0  0  0  0
  -27.8697  -18.2793   23.1411 C   0  0  0  0  0  0  0  0  0  0  0  0
  -27.6003  -25.0830   28.9468 C   0  0  0  0  0  0  0  0  0  0  0  0
  -24.3273  -24.1849   23.2324 C   0  0  0  0  0  0  0  0  0  0  0  0
  -26.4817  -24.6244   28.2251 C   0  0  0  0  0  0  0  0  0  0  0  0
  -22.9414  -24.3687   23.1241 C   0  0  0  0  0  0  0  0  0  0  0  0
  -28.4890  -22.0164   19.5739 C   0  0  0  0  0  0  0  0  0  0  0  0
  -22.6842  -22.0138   22.5781 C   0  0  0  0  0  0  0  0  0  0  0  0
  -29.5238  -24.1164   19.3704 C   0  0  0  0  0  0  0  0  0  0  0  0
  -31.3048  -26.0157   20.3720 C   0  0  0  0  0  0  0  0  0  0  0  0
  -30.6157  -24.5217   18.6028 C   0  0  0  0  0  0  0  0  0  0  0  0
  -28.0226  -18.4176   21.7485 C   0  0  0  0  0  0  0  0  0  0  0  0
  -22.9893  -13.3841   20.8646 C   0  0  0  0  0  0  0  0  0  0  0  0
  -22.8629  -13.0682   22.1945 C   0  0  0  0  0  0  0  0  0  0  0  0
  -27.7573  -16.9251   23.3413 C   0  0  0  0  0  0  0  0  0  0  0  0
  -22.1677  -15.0591   21.8353 C   0  0  0  0  0  0  0  0  0  0  0  0
  -22.0222  -17.2938   21.4141 C   0  0  0  0  0  0  0  0  0  0  0  0
  -27.8325  -19.2849   24.1624 C   0  0  0  0  0  0  0  0  0  0  0  0
  -21.4905  -18.6610   21.6976 C   0  0  0  0  0  0  0  0  0  0  0  0
  -24.2349  -26.1568   25.7238 C   0  0  0  0  0  0  0  0  0  0  0  0
  -22.8445  -28.1639   23.5883 C   0  0  0  0  0  0  0  0  0  0  0  0
  -21.0814  -28.5421   20.6908 C   0  0  0  0  0  0  0  0  0  0  0  0
  -25.9571  -12.4116   20.0150 C   0  0  0  0  0  0  0  0  0  0  0  0
  -27.6791  -26.4930   29.4764 C   0  0  0  0  0  0  0  0  0  0  0  0
  -25.2271  -25.3470   23.5522 C   0  0  0  0  0  0  0  0  0  0  0  0
  -22.2993  -25.7119   23.3527 C   0  0  0  0  0  0  0  0  0  0  0  0
  -26.6980  -27.4512   28.8058 C   0  0  0  0  0  0  0  0  0  0  0  0
  -29.0841  -12.7320   21.4797 C   0  0  0  0  0  0  0  0  0  0  0  0
  -25.3110  -26.8221   28.7207 C   0  0  0  0  0  0  0  0  0  0  0  0
  -29.1656  -14.2117   21.8522 C   0  0  0  0  0  0  0  0  0  0  0  0
  -28.4263  -12.5491   20.1171 C   0  0  0  0  0  0  0  0  0  0  0  0
  -27.1239  -14.6345   20.3928 C   0  0  0  0  0  0  0  0  0  0  0  0
  -25.3352  -25.5463   27.8703 C   0  0  1  0  0  0  0  0  0  0  0  0
  -24.5071  -26.4773   24.2813 C   0  0  1  0  0  0  0  0  0  0  0  0
  -27.7815  -14.8786   21.7667 C   0  0  2  0  0  0  0  0  0  0  0  0
  -23.1622  -11.8885   23.0132 C   0  0  0  0  0  0  0  0  0  0  0  0
  -24.7804  -12.7019   16.8922 C   0  0  0  0  0  0  0  0  0  0  0  0
  -20.0593  -30.3016   19.2221 C   0  0  0  0  0  0  0  0  0  0  0  0
  -20.5484  -28.4828   25.5722 C   0  0  0  0  0  0  0  0  0  0  0  0
  -19.1695  -29.4418   23.7155 C   0  0  0  0  0  0  0  0  0  0  0  0
  -21.2547  -30.6005   24.4449 C   0  0  0  0  0  0  0  0  0  0  0  0
  -22.7906  -27.7847   18.3965 C   0  0  0  0  0  0  0  0  0  0  0  0
  -23.5092  -12.5609   19.7636 C   0  0  0  0  0  0  0  0  0  0  0  0
  -22.5192  -19.7024   22.0434 C   0  0  0  0  0  0  0  0  0  1  0  0
  -24.9267  -13.6514   18.0641 C   0  0  0  0  0  0  0  0  0  0  0  0
  -21.4278  -28.4389   23.1452 C   0  0  1  0  0  0  0  0  0  0  0  0
  -21.2918  -29.4536   19.4953 C   0  0  2  0  0  0  0  0  0  0  0  0
  -20.6117  -29.2152   24.2170 C   0  0  0  0  0  0  0  0  0  0  0  0
  -28.0093  -17.2449   21.1093 N   0  0  0  0  0  0  0  0  0  0  0  0
  -22.5420  -14.6611   20.6405 N   0  0  0  0  0  0  0  0  0  0  0  0
  -21.6274  -16.3164   22.1538 N   0  0  0  0  0  0  0  0  0  0  0  0
  -27.8467  -16.3568   22.1047 N   0  0  0  0  0  0  0  0  0  0  0  0
  -23.2208  -26.8157   23.6689 N   0  0  0  0  0  0  0  0  0  0  0  0
  -27.1165  -13.1994   20.0698 N   0  0  0  0  0  0  0  0  0  0  0  0
  -27.5919  -16.1770   24.4528 N   0  0  0  0  0  0  0  0  0  0  0  0
  -27.9625  -20.6278   23.7828 N   0  0  0  0  0  0  0  0  0  0  0  0
  -25.3693  -25.8781   26.4620 N   0  0  0  0  0  0  0  0  0  0  0  0
  -21.5274  -29.1217   21.8597 N   0  0  0  0  0  0  0  0  0  0  0  0
  -24.8483  -12.9477   19.3429 N   0  0  0  0  0  0  0  0  0  0  0  0
  -21.5883  -28.6491   18.2764 N   0  3  0  0  0  0  0  0  0  0  0  0
  -27.7047  -19.0000   25.3773 O   0  0  0  0  0  0  0  0  0  0  0  0
  -20.2856  -18.8404   21.6179 O   0  0  0  0  0  0  0  0  0  0  0  0
  -23.0812  -26.1633   26.1368 O   0  0  0  0  0  0  0  0  0  0  0  0
  -23.5920  -29.1107   23.8462 O   0  0  0  0  0  0  0  0  0  0  0  0
  -20.5689  -27.4289   20.5977 O   0  0  0  0  0  0  0  0  0  0  0  0
  -25.9159  -11.2874   20.5313 O   0  0  0  0  0  0  0  0  0  0  0  0
  -22.3310  -14.1476   22.8330 O   0  0  0  0  0  0  0  0  0  0  0  0
  -28.6384  -23.1743   18.8743 O   0  0  0  0  0  0  0  0  0  0  0  0
  -21.8822  -20.9600   22.2648 O   0  0  0  0  0  0  0  0  0  1  0  0
  -32.1591  -26.9287   20.8524 F   0  0  0  0  0  0  0  0  0  0  0  0
  -30.8137  -24.0031   17.3831 F   0  0  0  0  0  0  0  0  0  0  0  0
  1  2  1  0  0  0  0
  1  5  2  0  0  0  0
  2  6  2  0  0  0  0
  3  8  2  0  0  0  0
  3 15  1  0  0  0  0
  4  9  1  0  0  0  0
  4 15  2  0  0  0  0
  5 17  1  0  0  0  0
  6 19  1  0  0  0  0
  7 10  2  0  0  0  0
  7 18  1  0  0  0  0
  8 21  1  0  0  0  0
  9 21  2  0  0  0  0
 10 22  1  0  0  0  0
 11 12  2  0  0  0  0
 11 23  1  0  0  0  0
 12 24  1  0  0  0  0
 13 20  1  0  0  0  0
 13 22  2  0  0  0  0
 14 24  2  0  0  0  0
 14 25  1  0  0  0  0
 15 26  1  0  0  0  0
 16 26  1  0  0  0  0
 16 29  2  0  0  0  0
 16 32  1  0  0  0  0
 17 19  2  0  0  0  0
 17 38  1  0  0  0  0
 18 20  2  0  0  0  0
 18 39  1  0  0  0  0
 19 47  1  0  0  0  0
 20 40  1  0  0  0  0
 21 82  1  0  0  0  0
 22 83  1  0  0  0  0
 23 25  2  0  0  0  0
 23 82  1  0  0  0  0
 24 84  1  0  0  0  0
 25 85  1  0  0  0  0
 26 63  2  0  0  0  0
 27 28  2  0  0  0  0
 27 57  1  0  0  0  0
 27 64  1  0  0  0  0
 28 50  1  0  0  0  0
 28 81  1  0  0  0  0
 29 66  1  0  0  0  0
 29 69  1  0  0  0  0
 30 64  2  0  0  0  0
 30 65  1  0  0  0  0
 30 81  1  0  0  0  0
 31 33  1  0  0  0  0
 31 65  2  0  0  0  0
 32 70  1  0  0  0  0
 32 75  2  0  0  0  0
 33 58  1  0  0  0  0
 33 76  2  0  0  0  0
 34 48  1  0  0  0  0
 34 71  1  0  0  0  0
 34 77  2  0  0  0  0
 35 60  1  0  0  0  0
 35 67  1  0  0  0  0
 35 78  2  0  0  0  0
 36 61  1  0  0  0  0
 36 72  1  0  0  0  0
 36 79  2  0  0  0  0
 37 68  1  0  0  0  0
 37 73  1  0  0  0  0
 37 80  2  0  0  0  0
 38 41  1  0  0  0  0
 39 48  1  0  0  0  0
 40 67  1  0  0  0  0
 41 43  1  0  0  0  0
 42 44  1  0  0  0  0
 42 45  1  0  0  0  0
 43 47  1  0  0  0  0
 44 49  1  0  0  0  0
 45 68  1  0  0  0  0
 46 49  1  0  0  0  0
 46 68  1  0  0  0  0
 47 71  1  0  0  0  0
 48 67  1  0  0  0  0
 49 66  1  0  0  0  0
 51 59  1  0  0  0  0
 52 61  1  0  0  0  0
 53 62  1  0  0  0  0
 54 62  1  0  0  0  0
 55 62  1  0  0  0  0
 56 74  1  0  0  0  0
 57 73  1  0  0  0  0
 58 83  1  0  0  0  0
 59 73  1  0  0  0  0
 60 62  1  0  0  0  0
 60 72  1  0  0  0  0
 61 74  1  0  0  0  0
 63 66  1  0  0  0  0
M  CHG  1  74   1
M  ISO  4  37 100  58 101  73 100  83 101
M  END
> <Batch ID>
0166

> <Smiles>
C=C[100N:0](Cc1nc(NCC(=O)[101CH2:1][101O:1]c2ccc3c(c2)CN(C(=O)C(NC(=O)C(C)NC)C(C)(C)C)C(C(=O)NC2CCCc4ccccc42)C3)oc1C)[100C:0](=O)N1CCCC(n2nc(-c3ccc(Oc4ccc(F)cc4F)cc3)c(C(N)=O)c2N)C1

> <Shape>
0.180

> <Color>
0.079

> <Negative vol penalty>
0.000

$$$$

  -OEChem-04052304083D

 85 93  0     1  0  0  0  0  0999 V2000
  -33.7679  -23.6514   16.7939 C   0  0  0  0  0  0  0  0  0  0  0  0
  -32.5952  -24.1431   17.3582 C   0  0  0  0  0  0  0  0  0  0  0  0
  -29.9045  -28.5595   18.9999 C   0  0  0  0  0  0  0  0  0  0  0  0
  -29.6942  -27.1290   20.9355 C   0  0  0  0  0  0  0  0  0  0  0  0
  -33.7614  -22.4226   16.1352 C   0  0  0  0  0  0  0  0  0  0  0  0
  -31.4149  -23.4066   17.2631 C   0  0  0  0  0  0  0  0  0  0  0  0
  -25.3984  -22.0097   20.8917 C   0  0  0  0  0  0  0  0  0  0  0  0
  -19.1560  -29.2376   22.3091 C   0  0  0  0  0  0  0  0  0  0  0  0
  -17.8796  -28.8152   21.9377 C   0  0  0  0  0  0  0  0  0  0  0  0
  -31.2906  -28.4086   19.0390 C   0  0  0  0  0  0  0  0  0  0  0  0
  -31.0803  -26.9781   20.9746 C   0  0  0  0  0  0  0  0  0  0  0  0
  -24.0142  -22.0172   20.7257 C   0  0  0  0  0  0  0  0  0  0  0  0
  -33.7521  -28.7633   22.0261 C   0  0  0  0  0  0  0  0  0  0  0  0
  -34.3814  -28.8753   23.2658 C   0  0  0  0  0  0  0  0  0  0  0  0
  -24.1397  -19.8703   19.6329 C   0  0  0  0  0  0  0  0  0  0  0  0
  -19.9495  -26.9597   22.1723 C   0  0  0  0  0  0  0  0  0  0  0  0
  -35.2185  -26.6197   23.0445 C   0  0  0  0  0  0  0  0  0  0  0  0
  -29.1063  -27.9197   19.9482 C   0  0  0  0  0  0  0  0  0  0  0  0
  -26.7506  -27.2718   19.2144 C   0  0  0  0  0  0  0  0  0  0  0  0
  -32.5826  -21.6663   16.0403 C   0  0  0  0  0  0  0  0  0  0  0  0
  -26.1662  -20.9357   20.4190 C   0  0  0  0  0  0  0  0  0  0  0  0
  -31.3923  -22.1672   16.6013 C   0  0  0  0  0  0  0  0  0  0  0  0
  -25.5332  -19.8504   19.7965 C   0  0  0  0  0  0  0  0  0  0  0  0
  -20.1910  -28.3098   22.4263 C   0  0  0  0  0  0  0  0  0  0  0  0
  -17.6381  -27.4651   21.6838 C   0  0  0  0  0  0  0  0  0  0  0  0
  -18.6731  -26.5373   21.8011 C   0  0  0  0  0  0  0  0  0  0  0  0
  -31.8785  -27.6179   20.0263 C   0  0  0  0  0  0  0  0  0  0  0  0
  -23.3849  -20.9487   20.0937 C   0  0  0  0  0  0  0  0  0  0  0  0
  -33.8558  -27.5795   21.2956 C   0  0  0  0  0  0  0  0  0  0  0  0
  -35.1147  -27.8035   23.7750 C   0  0  0  0  0  0  0  0  0  0  0  0
  -34.5891  -26.5078   21.8048 C   0  0  0  0  0  0  0  0  0  0  0  0
  -27.6744  -28.0757   19.9087 C   0  0  0  0  0  0  0  0  0  0  0  0
  -25.5284  -27.8315   19.4963 C   0  0  0  0  0  0  0  0  0  0  0  0
  -26.9769  -26.1218   18.3886 C   0  0  0  0  0  0  0  0  0  0  0  0
  -18.9131  -23.0430   20.5670 C   0  0  0  0  0  0  0  0  0  0  0  0
  -19.8505  -21.9271   20.1487 C   0  0  0  0  0  0  0  0  0  0  0  0
  -28.4867  -20.6110   18.2711 C   0  0  0  0  0  0  0  0  0  0  0  0
  -28.5825  -17.5745   19.4082 C   0  0  0  0  0  0  0  0  0  0  0  0
  -26.9587  -15.0163   20.9785 C   0  0  0  0  0  0  0  0  0  0  0  0
  -21.8958  -30.0413   23.0913 C   0  0  0  0  0  0  0  0  0  0  0  0
  -32.6140  -20.3656   15.2774 C   0  0  0  0  0  0  0  0  0  0  0  0
  -27.6555  -20.9303   20.6297 C   0  0  0  0  0  0  0  0  0  0  0  0
  -26.3099  -18.6638   19.2892 C   0  0  0  0  0  0  0  0  0  0  0  0
  -31.4054  -19.4726   15.5459 C   0  0  0  0  0  0  0  0  0  0  0  0
  -24.3512  -32.2242   21.7191 C   0  0  0  0  0  0  0  0  0  0  0  0
  -30.1158  -20.2840   15.4745 C   0  0  0  0  0  0  0  0  0  0  0  0
  -25.3587  -31.2734   21.0686 C   0  0  0  0  0  0  0  0  0  0  0  0
  -23.7874  -31.6511   23.0181 C   0  0  0  0  0  0  0  0  0  0  0  0
  -24.2282  -29.3501   22.2561 C   0  0  0  0  0  0  0  0  0  0  0  0
  -30.0976  -21.3861   16.5405 C   0  0  1  0  0  0  0  0  0  0  0  0
  -28.3942  -20.0230   19.6508 C   0  0  1  0  0  0  0  0  0  0  0  0
  -24.7750  -29.8556   20.9110 C   0  0  2  0  0  0  0  0  0  0  0  0
  -27.2836  -12.6448   21.7322 C   0  0  0  0  0  0  0  0  0  0  0  0
  -28.2742  -16.6190   16.5269 C   0  0  0  0  0  0  0  0  0  0  0  0
  -27.6570  -14.3611   17.4152 C   0  0  0  0  0  0  0  0  0  0  0  0
  -29.9139  -15.3118   17.8897 C   0  0  0  0  0  0  0  0  0  0  0  0
  -26.5091  -15.7337   23.8143 C   0  0  0  0  0  0  0  0  0  0  0  0
  -19.5044  -24.2511   21.2463 C   0  0  0  0  0  0  0  0  0  0  0  0
  -21.3233  -22.0859   20.4296 C   0  0  0  0  0  0  0  0  0  1  0  0
  -27.8909  -16.2792   19.0574 C   0  0  1  0  0  0  0  0  0  0  0  0
  -27.3751  -14.1114   22.1240 C   0  0  2  0  0  0  0  0  0  0  0  0
  -28.4193  -15.6659   17.7300 C   0  0  0  0  0  0  0  0  0  0  0  0
  -27.0893  -29.0705   20.5809 N   0  0  0  0  0  0  0  0  0  0  0  0
  -25.7846  -28.8955   20.3103 N   0  0  0  0  0  0  0  0  0  0  0  0
  -27.7643  -18.7082   19.5132 N   0  0  0  0  0  0  0  0  0  0  0  0
  -23.2483  -30.3084   22.7911 N   0  0  0  0  0  0  0  0  0  0  0  0
  -16.3377  -27.0591   21.3091 N   0  0  0  0  0  0  0  0  0  0  0  0
  -24.2704  -27.5126   19.1248 N   0  0  0  0  0  0  0  0  0  0  0  0
  -28.2943  -25.6802   18.2045 N   0  0  0  0  0  0  0  0  0  0  0  0
  -21.4876  -28.7393   22.8036 N   0  0  0  0  0  0  0  0  0  0  0  0
  -18.4542  -25.1907   21.5531 N   0  0  0  0  0  0  0  0  0  0  0  0
  -29.7807  -20.8290   17.8381 N   0  0  0  0  0  0  0  0  0  0  0  0
  -28.0404  -15.4091   20.2189 N   0  0  0  0  0  0  0  0  0  0  0  0
  -26.4980  -14.3373   23.3076 N   0  3  0  0  0  0  0  0  0  0  0  0
  -26.0402  -25.5139   17.8172 O   0  0  0  0  0  0  0  0  0  0  0  0
  -17.7224  -22.8898   20.3251 O   0  0  0  0  0  0  0  0  0  0  0  0
  -19.3560  -20.9513   19.5991 O   0  0  0  0  0  0  0  0  0  0  0  0
  -27.4601  -20.8478   17.6452 O   0  0  0  0  0  0  0  0  0  0  0  0
  -29.8026  -17.5787   19.5895 O   0  0  0  0  0  0  0  0  0  0  0  0
  -25.7903  -15.3390   20.7754 O   0  0  0  0  0  0  0  0  0  0  0  0
  -21.1471  -30.9117   23.5429 O   0  0  0  0  0  0  0  0  0  0  0  0
  -33.2310  -27.4702   20.0646 O   0  0  0  0  0  0  0  0  0  0  0  0
  -22.0340  -20.9538   19.9298 O   0  0  0  0  0  0  0  0  0  1  0  0
  -35.7203  -27.9117   24.9648 F   0  0  0  0  0  0  0  0  0  0  0  0
  -34.6933  -25.3684   21.1071 F   0  0  0  0  0  0  0  0  0  0  0  0
  1  2  1  0  0  0  0
  1  5  2  0  0  0  0
  2  6  2  0  0  0  0
  3 10  2  0  0  0  0
  3 18  1  0  0  0  0
  4 11  1  0  0  0  0
  4 18  2  0  0  0  0
  5 20  1  0  0  0  0
  6 22  1  0  0  0  0
  7 12  2  0  0  0  0
  7 21  1  0  0  0  0
  8  9  2  0  0  0  0
  8 24  1  0  0  0  0
  9 25  1  0  0  0  0
 10 27  1  0  0  0  0
 11 27  2  0  0  0  0
 12 28  1  0  0  0  0
 13 14  2  0  0  0  0
 13 29  1  0  0  0  0
 14 30  1  0  0  0  0
 15 23  1  0  0  0  0
 15 28  2  0  0  0  0
 16 24  2  0  0  0  0
 16 26  1  0  0  0  0
 17 30  2  0  0  0  0
 17 31  1  0  0  0  0
 18 32  1  0  0  0  0
 19 32  1  0  0  0  0
 19 33  2  0  0  0  0
 19 34  1  0  0  0  0
 20 22  2  0  0  0  0
 20 41  1  0  0  0  0
 21 23  2  0  0  0  0
 21 42  1  0  0  0  0
 22 50  1  0  0  0  0
 23 43  1  0  0  0  0
 24 70  1  0  0  0  0
 25 26  2  0  0  0  0
 25 67  1  0  0  0  0
 26 71  1  0  0  0  0
 27 82  1  0  0  0  0
 28 83  1  0  0  0  0
 29 31  2  0  0  0  0
 29 82  1  0  0  0  0
 30 84  1  0  0  0  0
 31 85  1  0  0  0  0
 32 63  2  0  0  0  0
 33 64  1  0  0  0  0
 33 68  1  0  0  0  0
 34 69  1  0  0  0  0
 34 75  2  0  0  0  0
 35 36  1  0  0  0  0
 35 58  1  0  0  0  0
 35 76  2  0  0  0  0
 36 59  1  0  0  0  0
 36 77  2  0  0  0  0
 37 51  1  0  0  0  0
 37 72  1  0  0  0  0
 37 78  2  0  0  0  0
 38 60  1  0  0  0  0
 38 65  1  0  0  0  0
 38 79  2  0  0  0  0
 39 61  1  0  0  0  0
 39 73  1  0  0  0  0
 39 80  2  0  0  0  0
 40 66  1  0  0  0  0
 40 70  1  0  0  0  0
 40 81  2  0  0  0  0
 41 44  1  0  0  0  0
 42 51  1  0  0  0  0
 43 65  1  0  0  0  0
 44 46  1  0  0  0  0
 45 47  1  0  0  0  0
 45 48  1  0  0  0  0
 46 50  1  0  0  0  0
 47 52  1  0  0  0  0
 48 66  1  0  0  0  0
 49 52  1  0  0  0  0
 49 66  1  0  0  0  0
 50 72  1  0  0  0  0
 51 65  1  0  0  0  0
 52 64  1  0  0  0  0
 53 61  1  0  0  0  0
 54 62  1  0  0  0  0
 55 62  1  0  0  0  0
 56 62  1  0  0  0  0
 57 74  1  0  0  0  0
 58 71  1  0  0  0  0
 59 83  1  0  0  0  0
 60 62  1  0  0  0  0
 60 73  1  0  0  0  0
 61 74  1  0  0  0  0
 63 64  1  0  0  0  0
M  CHG  1  74   1
M  ISO  4  40 100  59 101  70 100  83 101
M  END
> <Batch ID>
0166

> <Smiles>
CNC(C)C(=O)NC(C(=O)N1Cc2cc([101O:1][101CH2:1]C(=O)C(=O)CNc3cc([100NH:0][100C:0](=O)N4CCCC(n5nc(-c6ccc(Oc7ccc(F)cc7F)cc6)c(C(N)=O)c5N)C4)ccc3N)ccc2CC1C(=O)NC1CCCc2ccccc21)C(C)(C)C

> <Shape>
0.210

> <Color>
0.063

> <Negative vol penalty>
0.000

$$$$

  -OEChem-04052304083D

 85 93  0     1  0  0  0  0  0999 V2000
  -30.0265  -35.2448   24.1958 C   0  0  0  0  0  0  0  0  0  0  0  0
  -29.5517  -33.9579   23.9636 C   0  0  0  0  0  0  0  0  0  0  0  0
  -24.1348   -9.4233   21.2492 C   0  0  0  0  0  0  0  0  0  0  0  0
  -24.7359  -10.3898   23.3804 C   0  0  0  0  0  0  0  0  0  0  0  0
  -28.2322  -20.6930   21.0181 C   0  0  0  0  0  0  0  0  0  0  0  0
  -29.1689  -36.2232   24.6968 C   0  0  0  0  0  0  0  0  0  0  0  0
  -28.2190  -33.6485   24.2334 C   0  0  0  0  0  0  0  0  0  0  0  0
  -26.0631  -30.9505   20.5296 C   0  0  0  0  0  0  0  0  0  0  0  0
  -23.7362   -8.2518   21.8929 C   0  0  0  0  0  0  0  0  0  0  0  0
  -24.3373   -9.2183   24.0241 C   0  0  0  0  0  0  0  0  0  0  0  0
  -26.3610  -29.5895   20.4770 C   0  0  0  0  0  0  0  0  0  0  0  0
  -21.0609   -7.1616   23.6499 C   0  0  0  0  0  0  0  0  0  0  0  0
  -19.8492   -6.5893   23.2628 C   0  0  0  0  0  0  0  0  0  0  0  0
  -28.1511  -19.3051   21.0336 C   0  0  0  0  0  0  0  0  0  0  0  0
  -24.2611  -29.0944   21.5562 C   0  0  0  0  0  0  0  0  0  0  0  0
  -21.0080   -4.5683   22.6228 C   0  0  0  0  0  0  0  0  0  0  0  0
  -24.6347  -10.4923   21.9930 C   0  0  0  0  0  0  0  0  0  0  0  0
  -29.3413  -21.3128   20.4531 C   0  0  0  0  0  0  0  0  0  0  0  0
  -24.2520  -12.8285   21.0424 C   0  0  0  0  0  0  0  0  0  0  0  0
  -27.8226  -35.9282   24.9637 C   0  0  0  0  0  0  0  0  0  0  0  0
  -24.8649  -31.3951   21.1067 C   0  0  0  0  0  0  0  0  0  0  0  0
  -27.3429  -34.6235   24.7396 C   0  0  0  0  0  0  0  0  0  0  0  0
  -23.9493  -30.4614   21.6126 C   0  0  0  0  0  0  0  0  0  0  0  0
  -23.8374   -8.1493   23.2803 C   0  0  0  0  0  0  0  0  0  0  0  0
  -25.4613  -28.6614   20.9930 C   0  0  0  0  0  0  0  0  0  0  0  0
  -22.2462   -6.4372   23.5233 C   0  0  0  0  0  0  0  0  0  0  0  0
  -19.8227   -5.2927   22.7493 C   0  0  0  0  0  0  0  0  0  0  0  0
  -22.2198   -5.1406   23.0098 C   0  0  0  0  0  0  0  0  0  0  0  0
  -25.0471  -11.7025   21.3286 C   0  0  0  0  0  0  0  0  0  0  0  0
  -29.1971  -18.5880   20.4756 C   0  0  0  0  0  0  0  0  0  0  0  0
  -30.3341  -20.5058   19.9212 C   0  0  0  0  0  0  0  0  0  0  0  0
  -25.1047  -13.6987   20.4083 C   0  0  0  0  0  0  0  0  0  0  0  0
  -29.4266  -22.7869   20.4369 C   0  0  0  0  0  0  0  0  0  0  0  0
  -22.8666  -13.0666   21.3247 C   0  0  0  0  0  0  0  0  0  0  0  0
  -24.1178  -33.2357   23.5882 C   0  0  0  0  0  0  0  0  0  0  0  0
  -27.1576  -25.4520   20.3476 C   0  0  0  0  0  0  0  0  0  0  0  0
  -21.1012  -32.8722   22.4523 C   0  0  0  0  0  0  0  0  0  0  0  0
  -18.8981  -31.0147   20.6240 C   0  0  0  0  0  0  0  0  0  0  0  0
  -30.0318  -16.2596   19.9977 C   0  0  0  0  0  0  0  0  0  0  0  0
  -26.9454  -37.0063   25.5491 C   0  0  0  0  0  0  0  0  0  0  0  0
  -24.5463  -32.8649   21.1316 C   0  0  0  0  0  0  0  0  0  0  0  0
  -22.6400  -30.8858   22.2242 C   0  0  0  0  0  0  0  0  0  0  0  0
  -25.4538  -36.6957   25.4551 C   0  0  0  0  0  0  0  0  0  0  0  0
  -29.7782  -12.9969   18.5950 C   0  0  0  0  0  0  0  0  0  0  0  0
  -25.1776  -35.2633   25.9007 C   0  0  0  0  0  0  0  0  0  0  0  0
  -28.4593  -12.4619   19.1576 C   0  0  0  0  0  0  0  0  0  0  0  0
  -30.5242  -13.8540   19.6161 C   0  0  0  0  0  0  0  0  0  0  0  0
  -28.4180  -14.4103   20.7667 C   0  0  0  0  0  0  0  0  0  0  0  0
  -25.8976  -34.2557   24.9964 C   0  0  1  0  0  0  0  0  0  0  0  0
  -23.5292  -33.2377   22.2057 C   0  0  1  0  0  0  0  0  0  0  0  0
  -27.5997  -13.5945   19.7525 C   0  0  2  0  0  0  0  0  0  0  0  0
  -16.4936  -30.9515   19.9086 C   0  0  0  0  0  0  0  0  0  0  0  0
  -20.2989  -31.9292   25.2410 C   0  0  0  0  0  0  0  0  0  0  0  0
  -18.1973  -31.0006   24.2464 C   0  0  0  0  0  0  0  0  0  0  0  0
  -18.6486  -33.4516   24.1396 C   0  0  0  0  0  0  0  0  0  0  0  0
  -19.6256  -31.1693   17.7594 C   0  0  0  0  0  0  0  0  0  0  0  0
  -28.4379  -24.9351   19.7265 C   0  0  0  0  0  0  0  0  0  0  0  0
  -26.9923  -26.9593   20.3491 C   0  0  0  0  0  0  0  0  0  1  0  0
  -19.9859  -31.8803   22.6787 C   0  0  1  0  0  0  0  0  0  0  0  0
  -17.8997  -31.4059   19.5494 C   0  0  2  0  0  0  0  0  0  0  0  0
  -19.3081  -32.0572   24.0667 C   0  0  0  0  0  0  0  0  0  0  0  0
  -26.3079  -11.8418   20.9104 N   0  0  0  0  0  0  0  0  0  0  0  0
  -30.2905  -19.1546   19.9178 N   0  0  0  0  0  0  0  0  0  0  0  0
  -26.3116  -13.0656   20.3549 N   0  0  0  0  0  0  0  0  0  0  0  0
  -22.3770  -32.3344   22.2309 N   0  0  0  0  0  0  0  0  0  0  0  0
  -29.6490  -14.9084   20.1330 N   0  0  0  0  0  0  0  0  0  0  0  0
  -31.4679  -21.1318   19.3456 N   0  0  0  0  0  0  0  0  0  0  0  0
  -24.9324  -14.9360   19.8966 N   0  0  0  0  0  0  0  0  0  0  0  0
  -22.1375  -12.0668   21.9829 N   0  0  0  0  0  0  0  0  0  0  0  0
  -29.1052  -17.1742   20.4972 N   0  0  0  0  0  0  0  0  0  0  0  0
  -28.4711  -23.4966   19.7956 N   0  0  0  0  0  0  0  0  0  0  0  0
  -25.1850  -34.0992   23.7465 N   0  0  0  0  0  0  0  0  0  0  0  0
  -19.0764  -32.0234   21.5470 N   0  0  0  0  0  0  0  0  0  0  0  0
  -30.4547  -23.3636   21.0596 N   0  3  0  0  0  0  0  0  0  0  0  0
  -18.2741  -30.7893   18.2453 N   0  3  0  0  0  0  0  0  0  0  0  0
  -22.2882  -14.1276   20.9882 O   0  0  0  0  0  0  0  0  0  0  0  0
  -23.6383  -32.5060   24.4480 O   0  0  0  0  0  0  0  0  0  0  0  0
  -26.3011  -24.7077   20.8231 O   0  0  0  0  0  0  0  0  0  0  0  0
  -20.8484  -34.0795   22.4642 O   0  0  0  0  0  0  0  0  0  0  0  0
  -19.4605  -29.9221   20.6447 O   0  0  0  0  0  0  0  0  0  0  0  0
  -31.0903  -16.5828   19.4525 O   0  0  0  0  0  0  0  0  0  0  0  0
  -23.4484   -7.0064   23.9087 O   0  0  0  0  0  0  0  0  0  0  0  0
  -25.7498  -27.3325   20.9435 O   0  0  0  0  0  0  0  0  0  1  0  0
  -18.6588   -4.7428   22.3791 F   0  0  0  0  0  0  0  0  0  0  0  0
  -23.3551   -4.4393   22.8870 F   0  0  0  0  0  0  0  0  0  0  0  0
  1  2  1  0  0  0  0
  1  6  2  0  0  0  0
  2  7  2  0  0  0  0
  3  9  2  0  0  0  0
  3 17  1  0  0  0  0
  4 10  1  0  0  0  0
  4 17  2  0  0  0  0
  5 14  2  0  0  0  0
  5 18  1  0  0  0  0
  6 20  1  0  0  0  0
  7 22  1  0  0  0  0
  8 11  2  0  0  0  0
  8 21  1  0  0  0  0
  9 24  1  0  0  0  0
 10 24  2  0  0  0  0
 11 25  1  0  0  0  0
 12 13  2  0  0  0  0
 12 26  1  0  0  0  0
 13 27  1  0  0  0  0
 14 30  1  0  0  0  0
 15 23  1  0  0  0  0
 15 25  2  0  0  0  0
 16 27  2  0  0  0  0
 16 28  1  0  0  0  0
 17 29  1  0  0  0  0
 18 31  2  0  0  0  0
 18 33  1  0  0  0  0
 19 29  1  0  0  0  0
 19 32  2  0  0  0  0
 19 34  1  0  0  0  0
 20 22  2  0  0  0  0
 20 40  1  0  0  0  0
 21 23  2  0  0  0  0
 21 41  1  0  0  0  0
 22 49  1  0  0  0  0
 23 42  1  0  0  0  0
 24 82  1  0  0  0  0
 25 83  1  0  0  0  0
 26 28  2  0  0  0  0
 26 82  1  0  0  0  0
 27 84  1  0  0  0  0
 28 85  1  0  0  0  0
 29 62  2  0  0  0  0
 30 63  2  0  0  0  0
 30 70  1  0  0  0  0
 31 63  1  0  0  0  0
 31 67  1  0  0  0  0
 32 64  1  0  0  0  0
 32 68  1  0  0  0  0
 33 71  1  0  0  0  0
 33 74  2  0  0  0  0
 34 69  1  0  0  0  0
 34 76  2  0  0  0  0
 35 50  1  0  0  0  0
 35 72  1  0  0  0  0
 35 77  2  0  0  0  0
 36 57  1  0  0  0  0
 36 58  1  0  0  0  0
 36 78  2  0  0  0  0
 37 59  1  0  0  0  0
 37 65  1  0  0  0  0
 37 79  2  0  0  0  0
 38 60  1  0  0  0  0
 38 73  1  0  0  0  0
 38 80  2  0  0  0  0
 39 66  1  0  0  0  0
 39 70  1  0  0  0  0
 39 81  2  0  0  0  0
 40 43  1  0  0  0  0
 41 50  1  0  0  0  0
 42 65  1  0  0  0  0
 43 45  1  0  0  0  0
 44 46  1  0  0  0  0
 44 47  1  0  0  0  0
 45 49  1  0  0  0  0
 46 51  1  0  0  0  0
 47 66  1  0  0  0  0
 48 51  1  0  0  0  0
 48 66  1  0  0  0  0
 49 72  1  0  0  0  0
 50 65  1  0  0  0  0
 51 64  1  0  0  0  0
 52 60  1  0  0  0  0
 53 61  1  0  0  0  0
 54 61  1  0  0  0  0
 55 61  1  0  0  0  0
 56 75  1  0  0  0  0
 57 71  1  0  0  0  0
 58 83  1  0  0  0  0
 59 61  1  0  0  0  0
 59 73  1  0  0  0  0
 60 75  1  0  0  0  0
 62 64  1  0  0  0  0
M  CHG  2  74   1  75   1
M  ISO  4  39 100  58 101  70 100  83 101
M  END
> <Batch ID>
0166

> <Smiles>
CNC(C)C(=O)NC(C(=O)N1Cc2cc([101O:1][101CH2:1]C(=O)CNC(=N)c3ccc([100NH:0][100C:0](=O)N4CCCC(n5nc(-c6ccc(Oc7ccc(F)cc7F)cc6)c(C(N)=O)c5N)C4)nc3N)ccc2CC1C(=O)NC1CCCc2ccccc21)C(C)(C)C

> <Shape>
0.318

> <Color>
0.137

> <Negative vol penalty>
0.000

$$$$

  -OEChem-04052304083D

 90 99  0     1  0  0  0  0  0999 V2000
  -21.1805  -21.8487   33.8668 C   0  0  0  0  0  0  0  0  0  0  0  0
  -21.5658  -20.5336   34.1065 C   0  0  0  0  0  0  0  0  0  0  0  0
  -23.1414  -10.1870   22.1024 C   0  0  0  0  0  0  0  0  0  0  0  0
  -23.7830   -9.4715   19.8857 C   0  0  0  0  0  0  0  0  0  0  0  0
  -21.0059  -22.2951   32.5575 C   0  0  0  0  0  0  0  0  0  0  0  0
  -21.7756  -19.6638   33.0371 C   0  0  0  0  0  0  0  0  0  0  0  0
  -28.1486  -16.4489   32.0671 C   0  0  0  0  0  0  0  0  0  0  0  0
  -22.4017   -9.0159   22.2663 C   0  0  0  0  0  0  0  0  0  0  0  0
  -23.0432   -8.3004   20.0497 C   0  0  0  0  0  0  0  0  0  0  0  0
  -29.2722  -15.6329   31.9340 C   0  0  0  0  0  0  0  0  0  0  0  0
  -23.0047   -5.7708   23.0000 C   0  0  0  0  0  0  0  0  0  0  0  0
  -23.1338   -5.0864   24.2085 C   0  0  0  0  0  0  0  0  0  0  0  0
  -31.5600  -12.0278   26.3041 C   0  0  0  0  0  0  0  0  0  0  0  0
  -28.3506  -14.6750   29.9139 C   0  0  0  0  0  0  0  0  0  0  0  0
  -32.7452  -12.0790   23.7791 C   0  0  0  0  0  0  0  0  0  0  0  0
  -20.7686   -5.3621   24.6172 C   0  0  0  0  0  0  0  0  0  0  0  0
  -23.8321  -10.4148   20.9121 C   0  0  0  0  0  0  0  0  0  0  0  0
  -32.9085  -11.7017   26.1599 C   0  0  0  0  0  0  0  0  0  0  0  0
  -24.1152  -12.9470   20.7868 C   0  0  0  0  0  0  0  0  0  0  0  0
  -21.2230  -21.4329   31.4711 C   0  0  0  0  0  0  0  0  0  0  0  0
  -27.1275  -16.3920   31.1145 C   0  0  0  0  0  0  0  0  0  0  0  0
  -21.6024  -20.0986   31.7121 C   0  0  0  0  0  0  0  0  0  0  0  0
  -27.2284  -15.4989   30.0352 C   0  0  0  0  0  0  0  0  0  0  0  0
  -31.3967  -12.4050   23.9233 C   0  0  0  0  0  0  0  0  0  0  0  0
  -22.3526   -8.0726   21.2400 C   0  0  0  0  0  0  0  0  0  0  0  0
  -29.3728  -14.7480   30.8602 C   0  0  0  0  0  0  0  0  0  0  0  0
  -21.7576   -6.2510   22.6001 C   0  0  0  0  0  0  0  0  0  0  0  0
  -22.0157   -4.8820   25.0171 C   0  0  0  0  0  0  0  0  0  0  0  0
  -30.8041  -12.3794   25.1858 C   0  0  0  0  0  0  0  0  0  0  0  0
  -33.5011  -11.7273   24.8974 C   0  0  0  0  0  0  0  0  0  0  0  0
  -20.6396   -6.0466   23.4087 C   0  0  0  0  0  0  0  0  0  0  0  0
  -24.5959  -11.6246   20.7419 C   0  0  0  0  0  0  0  0  0  0  0  0
  -25.2265  -13.7240   20.5688 C   0  0  0  0  0  0  0  0  0  0  0  0
  -33.7048  -11.3304   27.3432 C   0  0  0  0  0  0  0  0  0  0  0  0
  -22.7831  -13.4298   21.0061 C   0  0  0  0  0  0  0  0  0  0  0  0
  -23.8038  -17.6994   29.9656 C   0  0  0  0  0  0  0  0  0  0  0  0
  -25.5378  -17.3483   27.4595 C   0  0  0  0  0  0  0  0  0  0  0  0
  -26.9100  -18.0915   24.7268 C   0  0  0  0  0  0  0  0  0  0  0  0
  -31.0675  -12.8364   21.4632 C   0  0  0  0  0  0  0  0  0  0  0  0
  -20.9758  -21.9476   30.0752 C   0  0  0  0  0  0  0  0  0  0  0  0
  -25.8709  -17.2082   31.2511 C   0  0  0  0  0  0  0  0  0  0  0  0
  -26.0897  -15.4469   29.0535 C   0  0  0  0  0  0  0  0  0  0  0  0
  -21.5818  -21.0674   28.9852 C   0  0  0  0  0  0  0  0  0  0  0  0
  -29.4837  -13.6392   18.3771 C   0  0  0  0  0  0  0  0  0  0  0  0
  -21.2627  -19.5987   29.2462 C   0  0  0  0  0  0  0  0  0  0  0  0
  -28.0060  -13.3398   18.6393 C   0  0  0  0  0  0  0  0  0  0  0  0
  -32.7223  -14.2765   28.9503 C   0  0  0  0  0  0  0  0  0  0  0  0
  -32.9282  -12.3627   30.5910 C   0  0  0  0  0  0  0  0  0  0  0  0
  -30.3986  -12.6367   19.0783 C   0  0  0  0  0  0  0  0  0  0  0  0
  -33.8178  -13.6520   28.0902 C   0  0  0  0  0  0  0  0  0  0  0  0
  -34.0249  -11.7455   29.7276 C   0  0  0  0  0  0  0  0  0  0  0  0
  -28.6775  -12.1759   20.7797 C   0  0  0  0  0  0  0  0  0  0  0  0
  -21.8636  -19.1318   30.5776 C   0  0  1  0  0  0  0  0  0  0  0  0
  -25.3025  -17.6721   29.8980 C   0  0  1  0  0  0  0  0  0  0  0  0
  -27.7187  -13.1976   20.1469 C   0  0  2  0  0  0  0  0  0  0  0  0
  -32.8627  -13.8927   30.4338 C   0  0  0  0  0  0  0  0  0  0  0  0
  -27.1096  -18.0723   22.2254 C   0  0  0  0  0  0  0  0  0  0  0  0
  -25.1669  -14.3222   27.5543 C   0  0  0  0  0  0  0  0  0  0  0  0
  -25.5745  -14.2661   25.0847 C   0  0  0  0  0  0  0  0  0  0  0  0
  -23.6169  -15.5152   25.9959 C   0  0  0  0  0  0  0  0  0  0  0  0
  -26.7869  -21.0447   24.5784 C   0  0  0  0  0  0  0  0  0  0  0  0
  -34.2697  -14.1536   32.2980 C   0  0  0  0  0  0  0  0  0  0  0  0
  -31.7033  -14.4708   31.2467 C   0  0  0  0  0  0  0  0  0  1  0  0
  -25.9434  -16.4513   26.3174 C   0  0  1  0  0  0  0  0  0  0  0  0
  -26.5944  -18.8304   23.4389 C   0  0  2  0  0  0  0  0  0  0  0  0
  -25.0947  -15.1500   26.2557 C   0  0  0  0  0  0  0  0  0  0  0  0
  -25.9104  -11.5614   20.5131 N   0  0  0  0  0  0  0  0  0  0  0  0
  -26.2649  -12.8537   20.4122 N   0  0  0  0  0  0  0  0  0  0  0  0
  -33.8387  -12.1983   28.3366 N   0  0  0  0  0  0  0  0  0  0  0  0
  -25.6264  -16.8097   28.7489 N   0  0  0  0  0  0  0  0  0  0  0  0
  -30.0712  -12.5582   20.5037 N   0  0  0  0  0  0  0  0  0  0  0  0
  -25.4071  -15.0600   20.4974 N   0  0  0  0  0  0  0  0  0  0  0  0
  -21.7594  -12.4953   21.2136 N   0  0  0  0  0  0  0  0  0  0  0  0
  -30.6312  -12.7620   22.7856 N   0  0  0  0  0  0  0  0  0  0  0  0
  -23.2834  -18.8906   30.4343 N   0  0  0  0  0  0  0  0  0  0  0  0
  -25.8723  -17.2689   25.1112 N   0  0  0  0  0  0  0  0  0  0  0  0
  -34.2750  -10.1303   27.3967 N   0  3  0  0  0  0  0  0  0  0  0  0
  -27.2220  -20.1820   23.4500 N   0  3  0  0  0  0  0  0  0  0  0  0
  -22.5058  -14.6532   21.0014 O   0  0  0  0  0  0  0  0  0  0  0  0
  -23.1653  -16.7133   29.6168 O   0  0  0  0  0  0  0  0  0  0  0  0
  -25.1473  -18.4938   27.2175 O   0  0  0  0  0  0  0  0  0  0  0  0
  -27.9725  -18.2273   25.3295 O   0  0  0  0  0  0  0  0  0  0  0  0
  -32.2158  -13.1463   21.1354 O   0  0  0  0  0  0  0  0  0  0  0  0
  -21.6310   -6.9296   21.3997 O   0  0  0  0  0  0  0  0  0  0  0  0
  -30.4746  -13.9575   30.7339 O   0  0  0  0  0  0  0  0  0  1  0  0
  -34.0745  -14.4681   30.9291 O   0  0  0  0  0  0  0  0  0  0  0  0
  -22.1395   -4.2233   26.1769 F   0  0  0  0  0  0  0  0  0  0  0  0
  -29.5085  -12.6907   25.3360 F   0  0  0  0  0  0  0  0  0  0  0  0
  -34.7963  -11.4154   24.7487 F   0  0  0  0  0  0  0  0  0  0  0  0
  -19.4387   -6.5045   23.0293 F   0  0  0  0  0  0  0  0  0  0  0  0
  1  2  1  0  0  0  0
  1  5  2  0  0  0  0
  2  6  2  0  0  0  0
  3  8  2  0  0  0  0
  3 17  1  0  0  0  0
  4  9  1  0  0  0  0
  4 17  2  0  0  0  0
  5 20  1  0  0  0  0
  6 22  1  0  0  0  0
  7 10  2  0  0  0  0
  7 21  1  0  0  0  0
  8 25  1  0  0  0  0
  9 25  2  0  0  0  0
 10 26  1  0  0  0  0
 11 12  2  0  0  0  0
 11 27  1  0  0  0  0
 12 28  1  0  0  0  0
 13 18  1  0  0  0  0
 13 29  2  0  0  0  0
 14 23  1  0  0  0  0
 14 26  2  0  0  0  0
 15 24  2  0  0  0  0
 15 30  1  0  0  0  0
 16 28  2  0  0  0  0
 16 31  1  0  0  0  0
 17 32  1  0  0  0  0
 18 30  2  0  0  0  0
 18 34  1  0  0  0  0
 19 32  1  0  0  0  0
 19 33  2  0  0  0  0
 19 35  1  0  0  0  0
 20 22  2  0  0  0  0
 20 40  1  0  0  0  0
 21 23  2  0  0  0  0
 21 41  1  0  0  0  0
 22 53  1  0  0  0  0
 23 42  1  0  0  0  0
 24 29  1  0  0  0  0
 24 74  1  0  0  0  0
 25 84  1  0  0  0  0
 26 85  1  0  0  0  0
 27 31  2  0  0  0  0
 27 84  1  0  0  0  0
 28 87  1  0  0  0  0
 29 88  1  0  0  0  0
 30 89  1  0  0  0  0
 31 90  1  0  0  0  0
 32 67  2  0  0  0  0
 33 68  1  0  0  0  0
 33 72  1  0  0  0  0
 34 69  1  0  0  0  0
 34 77  2  0  0  0  0
 35 73  1  0  0  0  0
 35 79  2  0  0  0  0
 36 54  1  0  0  0  0
 36 75  1  0  0  0  0
 36 80  2  0  0  0  0
 37 64  1  0  0  0  0
 37 70  1  0  0  0  0
 37 81  2  0  0  0  0
 38 65  1  0  0  0  0
 38 76  1  0  0  0  0
 38 82  2  0  0  0  0
 39 71  1  0  0  0  0
 39 74  1  0  0  0  0
 39 83  2  0  0  0  0
 40 43  1  0  0  0  0
 41 54  1  0  0  0  0
 42 70  1  0  0  0  0
 43 45  1  0  0  0  0
 44 46  1  0  0  0  0
 44 49  1  0  0  0  0
 45 53  1  0  0  0  0
 46 55  1  0  0  0  0
 47 50  1  0  0  0  0
 47 56  1  0  0  0  0
 48 51  1  0  0  0  0
 48 56  1  0  0  0  0
 49 71  1  0  0  0  0
 50 69  1  0  0  0  0
 51 69  1  0  0  0  0
 52 55  1  0  0  0  0
 52 71  1  0  0  0  0
 53 75  1  0  0  0  0
 54 70  1  0  0  0  0
 55 68  1  0  0  0  0
 56 63  1  0  0  0  0
 56 86  1  0  0  0  0
 57 65  1  0  0  0  0
 58 66  1  0  0  0  0
 59 66  1  0  0  0  0
 60 66  1  0  0  0  0
 61 78  1  0  0  0  0
 62 86  1  0  0  0  0
 63 85  1  0  0  0  0
 64 66  1  0  0  0  0
 64 76  1  0  0  0  0
 65 78  1  0  0  0  0
 67 68  1  0  0  0  0
M  CHG  2  77   1  78   1
M  ISO  4  39 100  63 101  74 100  85 101
M  END
> <Batch ID>
0166

> <Smiles>
CNC(C)C(=O)NC(C(=O)N1Cc2cc([101O:1][101CH2:1]C3(OC)CCN(C(=N)c4cc(F)c([100NH:0][100C:0](=O)N5CCCC(n6nc(-c7ccc(Oc8ccc(F)cc8F)cc7)c(C(N)=O)c6N)C5)cc4F)CC3)ccc2CC1C(=O)NC1CCCc2ccccc21)C(C)(C)C

> <Shape>
0.135

> <Color>
0.184

> <Negative vol penalty>
0.000

$$$$

  -OEChem-04052304083D

 86 94  0     1  0  0  0  0  0999 V2000
  -30.3445  -30.5778   35.4316 C   0  0  0  0  0  0  0  0  0  0  0  0
  -30.3183  -29.3390   34.7991 C   0  0  0  0  0  0  0  0  0  0  0  0
  -33.0119  -17.1732   23.2183 C   0  0  0  0  0  0  0  0  0  0  0  0
  -22.9721  -10.0174   20.0481 C   0  0  0  0  0  0  0  0  0  0  0  0
  -23.7953  -10.0009   22.3195 C   0  0  0  0  0  0  0  0  0  0  0  0
  -29.6218  -31.6455   34.9009 C   0  0  0  0  0  0  0  0  0  0  0  0
  -29.5684  -29.1668   33.6362 C   0  0  0  0  0  0  0  0  0  0  0  0
  -30.9471  -25.5862   28.8629 C   0  0  0  0  0  0  0  0  0  0  0  0
  -32.2997  -18.0893   23.9923 C   0  0  0  0  0  0  0  0  0  0  0  0
  -32.3345  -16.3235   22.3436 C   0  0  0  0  0  0  0  0  0  0  0  0
  -22.1824   -8.9018   20.3262 C   0  0  0  0  0  0  0  0  0  0  0  0
  -23.0055   -8.8853   22.5976 C   0  0  0  0  0  0  0  0  0  0  0  0
  -30.5290  -24.3072   28.4981 C   0  0  0  0  0  0  0  0  0  0  0  0
  -20.9330   -6.2514   24.0066 C   0  0  0  0  0  0  0  0  0  0  0  0
  -20.2085   -6.2496   25.1986 C   0  0  0  0  0  0  0  0  0  0  0  0
  -28.8525  -25.2728   27.0572 C   0  0  0  0  0  0  0  0  0  0  0  0
  -19.0359   -8.2392   24.4890 C   0  0  0  0  0  0  0  0  0  0  0  0
  -23.7786  -10.5670   21.0447 C   0  0  0  0  0  0  0  0  0  0  0  0
  -30.2326  -17.3061   23.0171 C   0  0  0  0  0  0  0  0  0  0  0  0
  -24.2346  -13.0726   20.8986 C   0  0  0  0  0  0  0  0  0  0  0  0
  -28.8704  -31.4890   33.7256 C   0  0  0  0  0  0  0  0  0  0  0  0
  -30.3129  -26.7200   28.3350 C   0  0  0  0  0  0  0  0  0  0  0  0
  -28.8339  -30.2331   33.0901 C   0  0  0  0  0  0  0  0  0  0  0  0
  -29.2662  -26.5651   27.4149 C   0  0  0  0  0  0  0  0  0  0  0  0
  -30.9101  -18.1557   23.8917 C   0  0  0  0  0  0  0  0  0  0  0  0
  -30.9449  -16.3900   22.2431 C   0  0  0  0  0  0  0  0  0  0  0  0
  -22.1991   -8.3357   21.6009 C   0  0  0  0  0  0  0  0  0  0  0  0
  -29.4796  -24.1503   27.5974 C   0  0  0  0  0  0  0  0  0  0  0  0
  -20.7090   -7.2472   23.0558 C   0  0  0  0  0  0  0  0  0  0  0  0
  -19.2600   -7.2434   25.4397 C   0  0  0  0  0  0  0  0  0  0  0  0
  -19.7604   -8.2411   23.2970 C   0  0  0  0  0  0  0  0  0  0  0  0
  -24.5950  -11.7191   20.7580 C   0  0  0  0  0  0  0  0  0  0  0  0
  -25.3500  -13.7681   20.5003 C   0  0  0  0  0  0  0  0  0  0  0  0
  -29.9747  -22.0755   26.6379 C   0  0  0  0  0  0  0  0  0  1  0  0
  -28.7764  -17.3734   22.9139 C   0  0  0  0  0  0  0  0  0  0  0  0
  -23.0018  -13.6497   21.3491 C   0  0  0  0  0  0  0  0  0  0  0  0
  -29.6798  -20.8302   26.2456 C   0  0  0  0  0  0  0  0  0  0  0  0
  -30.7458  -20.0010   25.5942 C   0  0  0  0  0  0  0  0  0  0  0  0
  -28.6633  -29.1435   29.5635 C   0  0  0  0  0  0  0  0  0  0  0  0
  -28.7650  -30.2486   26.5155 C   0  0  0  0  0  0  0  0  0  0  0  0
  -29.0906  -29.5519   23.1905 C   0  0  0  0  0  0  0  0  0  0  0  0
  -30.8618  -14.5571   20.5168 C   0  0  0  0  0  0  0  0  0  0  0  0
  -28.0675  -32.6596   33.2159 C   0  0  0  0  0  0  0  0  0  0  0  0
  -30.7934  -28.0929   28.7181 C   0  0  0  0  0  0  0  0  0  0  0  0
  -28.5656  -27.7501   26.8039 C   0  0  0  0  0  0  0  0  0  0  0  0
  -27.5985  -32.4943   31.7726 C   0  0  0  0  0  0  0  0  0  0  0  0
  -29.5700  -12.1857   18.1963 C   0  0  0  0  0  0  0  0  0  0  0  0
  -27.0053  -31.1052   31.5598 C   0  0  0  0  0  0  0  0  0  0  0  0
  -28.1309  -11.9642   18.6675 C   0  0  0  0  0  0  0  0  0  0  0  0
  -30.5281  -12.3777   19.3706 C   0  0  0  0  0  0  0  0  0  0  0  0
  -28.6964  -13.1981   20.7993 C   0  0  0  0  0  0  0  0  0  0  0  0
  -28.0521  -30.0136   31.8130 C   0  0  1  0  0  0  0  0  0  0  0  0
  -29.7372  -29.1744   28.5131 C   0  0  1  0  0  0  0  0  0  0  0  0
  -27.6840  -13.0644   19.6500 C   0  0  2  0  0  0  0  0  0  0  0  0
  -27.9820  -16.4971   23.8330 C   0  0  0  0  0  0  0  0  0  0  0  0
  -29.0937  -30.6569   20.9374 C   0  0  0  0  0  0  0  0  0  0  0  0
  -25.7271  -30.5045   26.6394 C   0  0  0  0  0  0  0  0  0  0  0  0
  -25.7099  -30.6828   24.1422 C   0  0  0  0  0  0  0  0  0  0  0  0
  -26.8888  -32.4071   25.5059 C   0  0  0  0  0  0  0  0  0  0  0  0
  -31.8643  -28.6800   22.6379 C   0  0  0  0  0  0  0  0  0  0  0  0
  -27.8921  -30.0961   25.2933 C   0  0  1  0  0  0  0  0  0  0  0  0
  -29.9440  -30.1865   22.1072 C   0  0  2  0  0  0  0  0  0  0  0  0
  -26.5662  -30.9001   25.4080 C   0  0  0  0  0  0  0  0  0  0  0  0
  -25.8418  -11.5618   20.3055 N   0  0  0  0  0  0  0  0  0  0  0  0
  -26.2745  -12.8256   20.1583 N   0  0  0  0  0  0  0  0  0  0  0  0
  -29.0677  -29.0717   27.2148 N   0  0  0  0  0  0  0  0  0  0  0  0
  -30.0426  -13.4382   20.2563 N   0  0  0  0  0  0  0  0  0  0  0  0
  -25.6203  -15.0879   20.4127 N   0  0  0  0  0  0  0  0  0  0  0  0
  -21.9583  -12.7908   21.7203 N   0  0  0  0  0  0  0  0  0  0  0  0
  -30.2117  -19.0952   24.6880 N   0  0  0  0  0  0  0  0  0  0  0  0
  -30.2815  -15.5158   21.3467 N   0  0  0  0  0  0  0  0  0  0  0  0
  -28.9492  -29.9016   30.6829 N   0  0  0  0  0  0  0  0  0  0  0  0
  -28.7199  -30.4688   24.1513 N   0  0  0  0  0  0  0  0  0  0  0  0
  -30.9453  -29.2078   21.5968 N   0  3  0  0  0  0  0  0  0  0  0  0
  -28.1634  -18.0910   22.1271 O   0  0  0  0  0  0  0  0  0  0  0  0
  -22.8250  -14.8903   21.4048 O   0  0  0  0  0  0  0  0  0  0  0  0
  -31.9283  -20.1595   25.8775 O   0  0  0  0  0  0  0  0  0  0  0  0
  -27.6496  -28.4820   29.3720 O   0  0  0  0  0  0  0  0  0  0  0  0
  -29.1696  -31.3696   26.8336 O   0  0  0  0  0  0  0  0  0  0  0  0
  -28.7805  -28.3627   23.1830 O   0  0  0  0  0  0  0  0  0  0  0  0
  -31.9840  -14.6702   20.0170 O   0  0  0  0  0  0  0  0  0  0  0  0
  -28.4283  -20.2745   26.4181 O   0  0  0  0  0  0  0  0  0  0  0  0
  -21.4285   -7.2472   21.8726 O   0  0  0  0  0  0  0  0  0  0  0  0
  -29.0691  -22.9031   27.2401 O   0  0  0  0  0  0  0  0  0  1  0  0
  -18.5632   -7.2406   26.5837 F   0  0  0  0  0  0  0  0  0  0  0  0
  -19.5400   -9.1996   22.3868 F   0  0  0  0  0  0  0  0  0  0  0  0
  1  2  1  0  0  0  0
  1  6  2  0  0  0  0
  2  7  2  0  0  0  0
  3  9  2  0  0  0  0
  3 10  1  0  0  0  0
  4 11  2  0  0  0  0
  4 18  1  0  0  0  0
  5 12  1  0  0  0  0
  5 18  2  0  0  0  0
  6 21  1  0  0  0  0
  7 23  1  0  0  0  0
  8 13  2  0  0  0  0
  8 22  1  0  0  0  0
  9 25  1  0  0  0  0
 10 26  2  0  0  0  0
 11 27  1  0  0  0  0
 12 27  2  0  0  0  0
 13 28  1  0  0  0  0
 14 15  2  0  0  0  0
 14 29  1  0  0  0  0
 15 30  1  0  0  0  0
 16 24  1  0  0  0  0
 16 28  2  0  0  0  0
 17 30  2  0  0  0  0
 17 31  1  0  0  0  0
 18 32  1  0  0  0  0
 19 25  2  0  0  0  0
 19 26  1  0  0  0  0
 19 35  1  0  0  0  0
 20 32  1  0  0  0  0
 20 33  2  0  0  0  0
 20 36  1  0  0  0  0
 21 23  2  0  0  0  0
 21 43  1  0  0  0  0
 22 24  2  0  0  0  0
 22 44  1  0  0  0  0
 23 52  1  0  0  0  0
 24 45  1  0  0  0  0
 25 70  1  0  0  0  0
 26 71  1  0  0  0  0
 27 83  1  0  0  0  0
 28 84  1  0  0  0  0
 29 31  2  0  0  0  0
 29 83  1  0  0  0  0
 30 85  1  0  0  0  0
 31 86  1  0  0  0  0
 32 64  2  0  0  0  0
 33 65  1  0  0  0  0
 33 68  1  0  0  0  0
 34 37  2  0  0  0  0
 34 84  1  0  0  0  0
 35 55  1  0  0  0  0
 35 75  2  0  0  0  0
 36 69  1  0  0  0  0
 36 76  2  0  0  0  0
 37 38  1  0  0  0  0
 37 82  1  0  0  0  0
 38 70  1  0  0  0  0
 38 77  2  0  0  0  0
 39 53  1  0  0  0  0
 39 72  1  0  0  0  0
 39 78  2  0  0  0  0
 40 61  1  0  0  0  0
 40 66  1  0  0  0  0
 40 79  2  0  0  0  0
 41 62  1  0  0  0  0
 41 73  1  0  0  0  0
 41 80  2  0  0  0  0
 42 67  1  0  0  0  0
 42 71  1  0  0  0  0
 42 81  2  0  0  0  0
 43 46  1  0  0  0  0
 44 53  1  0  0  0  0
 45 66  1  0  0  0  0
 46 48  1  0  0  0  0
 47 49  1  0  0  0  0
 47 50  1  0  0  0  0
 48 52  1  0  0  0  0
 49 54  1  0  0  0  0
 50 67  1  0  0  0  0
 51 54  1  0  0  0  0
 51 67  1  0  0  0  0
 52 72  1  0  0  0  0
 53 66  1  0  0  0  0
 54 65  1  0  0  0  0
 56 62  1  0  0  0  0
 57 63  1  0  0  0  0
 58 63  1  0  0  0  0
 59 63  1  0  0  0  0
 60 74  1  0  0  0  0
 61 63  1  0  0  0  0
 61 73  1  0  0  0  0
 62 74  1  0  0  0  0
 64 65  1  0  0  0  0
M  CHG  1  74   1
M  ISO  4  34 101  42 100  71 100  84 101
M  END
> <Batch ID>
0166

> <Smiles>
CNC(C)C(=O)NC(C(=O)N1Cc2cc([101O:1][101CH2:1]C(=O)C(=O)Nc3cccc([100NH:0][100C:0](=O)N4CCCC(n5nc(-c6ccc(Oc7ccc(F)cc7F)cc6)c(C(N)=O)c5N)C4)c3C(C)=O)ccc2CC1C(=O)NC1CCCc2ccccc21)C(C)(C)C

> <Shape>
0.207

> <Color>
0.194

> <Negative vol penalty>
0.000

$$$$

  -OEChem-04052304083D

 93102  0     1  0  0  0  0  0999 V2000
  -32.5507  -14.6061   22.4708 C   0  0  0  0  0  0  0  0  0  0  0  0
  -32.7652  -15.9773   22.3741 C   0  0  0  0  0  0  0  0  0  0  0  0
  -18.9214  -28.8372   23.6193 C   0  0  0  0  0  0  0  0  0  0  0  0
  -22.6515  -17.1354   23.2251 C   0  0  0  0  0  0  0  0  0  0  0  0
  -22.1100  -18.1813   21.1156 C   0  0  0  0  0  0  0  0  0  0  0  0
  -31.7538  -13.9582   21.5279 C   0  0  0  0  0  0  0  0  0  0  0  0
  -32.1837  -16.7011   21.3337 C   0  0  0  0  0  0  0  0  0  0  0  0
  -30.0977  -22.4544   21.5682 C   0  0  0  0  0  0  0  0  0  0  0  0
  -19.6063  -29.2064   22.4616 C   0  0  0  0  0  0  0  0  0  0  0  0
  -18.6166  -27.4960   23.8516 C   0  0  0  0  0  0  0  0  0  0  0  0
  -22.6770  -15.8886   22.6004 C   0  0  0  0  0  0  0  0  0  0  0  0
  -22.1355  -16.9344   20.4909 C   0  0  0  0  0  0  0  0  0  0  0  0
  -30.6572  -23.6714   21.1815 C   0  0  0  0  0  0  0  0  0  0  0  0
  -20.4386  -13.5950   21.5263 C   0  0  0  0  0  0  0  0  0  0  0  0
  -19.7941  -12.5367   22.1668 C   0  0  0  0  0  0  0  0  0  0  0  0
  -29.4948  -23.5287   19.0725 C   0  0  0  0  0  0  0  0  0  0  0  0
  -26.6477  -28.0758   19.2309 C   0  0  0  0  0  0  0  0  0  0  0  0
  -21.8834  -11.3280   22.2720 C   0  0  0  0  0  0  0  0  0  0  0  0
  -25.7909  -26.2554   20.4991 C   0  0  0  0  0  0  0  0  0  0  0  0
  -22.3679  -18.2818   22.4827 C   0  0  0  0  0  0  0  0  0  0  0  0
  -23.4183  -20.4609   23.2925 C   0  0  0  0  0  0  0  0  0  0  0  0
  -31.1544  -14.6761   20.4810 C   0  0  0  0  0  0  0  0  0  0  0  0
  -29.2398  -21.7589   20.7042 C   0  0  0  0  0  0  0  0  0  0  0  0
  -31.3791  -16.0620   20.3752 C   0  0  0  0  0  0  0  0  0  0  0  0
  -28.9237  -22.3043   19.4517 C   0  0  0  0  0  0  0  0  0  0  0  0
  -19.9862  -28.2344   21.5361 C   0  0  0  0  0  0  0  0  0  0  0  0
  -25.3400  -28.4606   18.9565 C   0  0  0  0  0  0  0  0  0  0  0  0
  -18.9965  -26.5240   22.9262 C   0  0  0  0  0  0  0  0  0  0  0  0
  -26.8860  -26.9534   20.0161 C   0  0  0  0  0  0  0  0  0  0  0  0
  -22.4190  -15.7881   21.2333 C   0  0  0  0  0  0  0  0  0  0  0  0
  -30.3580  -24.2074   19.9324 C   0  0  0  0  0  0  0  0  0  0  0  0
  -21.8055  -13.5198   21.2586 C   0  0  0  0  0  0  0  0  0  0  0  0
  -20.5165  -11.4032   22.5397 C   0  0  0  0  0  0  0  0  0  0  0  0
  -22.5279  -12.3863   21.6314 C   0  0  0  0  0  0  0  0  0  0  0  0
  -19.6813  -26.8932   21.7684 C   0  0  0  0  0  0  0  0  0  0  0  0
  -22.3409  -19.5700   23.1276 C   0  0  0  0  0  0  0  0  0  0  0  0
  -24.3141  -27.6949   19.4868 C   0  0  0  0  0  0  0  0  0  0  0  0
  -22.8786  -21.5324   23.9613 C   0  0  0  0  0  0  0  0  0  0  0  0
  -24.7848  -20.3316   22.8782 C   0  0  0  0  0  0  0  0  0  0  0  0
  -22.9193  -28.0324   19.2445 C   0  0  0  0  0  0  0  0  0  0  0  0
  -29.3147  -18.9215   19.2733 C   0  0  0  0  0  0  0  0  0  0  0  0
  -26.3074  -19.7335   18.3682 C   0  0  0  0  0  0  0  0  0  0  0  0
  -24.0319  -22.2034   17.7611 C   0  0  0  0  0  0  0  0  0  0  0  0
  -18.0129  -24.6297   24.2642 C   0  0  0  0  0  0  0  0  0  0  0  0
  -30.3395  -13.9242   19.4586 C   0  0  0  0  0  0  0  0  0  0  0  0
  -28.6234  -20.4602   21.1469 C   0  0  0  0  0  0  0  0  0  0  0  0
  -27.9923  -21.6071   18.4952 C   0  0  0  0  0  0  0  0  0  0  0  0
  -29.4546  -14.8262   18.6020 C   0  0  0  0  0  0  0  0  0  0  0  0
  -18.8546  -22.2289   26.7552 C   0  0  0  0  0  0  0  0  0  0  0  0
  -30.2450  -16.0320   18.1039 C   0  0  0  0  0  0  0  0  0  0  0  0
  -19.9449  -21.3847   26.0913 C   0  0  0  0  0  0  0  0  0  0  0  0
  -17.7808  -22.6559   25.7560 C   0  0  0  0  0  0  0  0  0  0  0  0
  -19.3759  -22.4813   23.8867 C   0  0  0  0  0  0  0  0  0  0  0  0
  -30.7454  -16.8858   19.2753 C   0  0  1  0  0  0  0  0  0  0  0  0
  -28.1687  -19.5867   19.9817 C   0  0  1  0  0  0  0  0  0  0  0  0
  -20.5139  -22.0819   24.8401 C   0  0  2  0  0  0  0  0  0  0  0  0
  -25.0790  -29.6628   18.1158 C   0  0  0  0  0  0  0  0  0  0  0  0
  -21.6685  -22.5600   16.9968 C   0  0  0  0  0  0  0  0  0  0  0  0
  -31.8177  -27.4572   20.3130 C   0  0  0  0  0  0  0  0  0  0  0  0
  -27.1548  -19.1678   15.4921 C   0  0  0  0  0  0  0  0  0  0  0  0
  -25.1289  -20.4214   14.7222 C   0  0  0  0  0  0  0  0  0  0  0  0
  -24.8675  -18.3491   16.0859 C   0  0  0  0  0  0  0  0  0  0  0  0
  -23.2771  -23.4914   20.3166 C   0  0  0  0  0  0  0  0  0  0  0  0
  -20.7235  -28.6352   20.2912 C   0  0  0  0  0  0  0  0  0  0  0  0
  -29.3588  -27.2297   19.8304 C   0  0  0  0  0  0  0  0  0  0  0  0
  -25.7053  -20.4628   17.1915 C   0  0  1  0  0  0  0  0  0  0  0  0
  -22.5865  -22.3701   18.1942 C   0  0  2  0  0  0  0  0  0  0  0  0
  -30.6096  -26.5331   20.3613 C   0  0  1  0  0  0  0  0  0  1  0  0
  -25.7333  -19.6127   15.8899 C   0  0  0  0  0  0  0  0  0  0  0  0
  -24.5065  -26.5984   20.2538 N   0  0  0  0  0  0  0  0  0  0  0  0
  -21.2028  -20.0350   23.6497 N   0  0  0  0  0  0  0  0  0  0  0  0
  -21.5621  -21.2297   24.1493 N   0  0  0  0  0  0  0  0  0  0  0  0
  -27.4199  -20.3370   18.9714 N   0  0  0  0  0  0  0  0  0  0  0  0
  -18.3933  -23.3129   24.5993 N   0  0  0  0  0  0  0  0  0  0  0  0
  -23.4066  -22.6944   24.4011 N   0  0  0  0  0  0  0  0  0  0  0  0
  -25.1705  -19.1661   22.2021 N   0  0  0  0  0  0  0  0  0  0  0  0
  -18.6861  -25.1623   23.1652 N   0  0  0  0  0  0  0  0  0  0  0  0
  -28.1775  -26.5455   20.3051 N   0  0  0  0  0  0  0  0  0  0  0  0
  -22.1292  -28.3079   20.3660 N   0  0  0  0  0  0  0  0  0  0  0  0
  -29.6701  -17.6966   19.8052 N   0  0  0  0  0  0  0  0  0  0  0  0
  -24.3691  -20.8753   17.6072 N   0  0  0  0  0  0  0  0  0  0  0  0
  -22.4465  -23.5555   19.0865 N   0  3  0  0  0  0  0  0  0  0  0  0
  -25.6422  -21.2160   23.1153 O   0  0  0  0  0  0  0  0  0  0  0  0
  -22.4667  -28.0487   18.0866 O   0  0  0  0  0  0  0  0  0  0  0  0
  -29.8367  -19.4775   18.3142 O   0  0  0  0  0  0  0  0  0  0  0  0
  -25.8046  -18.6712   18.7428 O   0  0  0  0  0  0  0  0  0  0  0  0
  -24.7854  -23.1563   17.5742 O   0  0  0  0  0  0  0  0  0  0  0  0
  -17.1729  -25.2497   24.9215 O   0  0  0  0  0  0  0  0  0  0  0  0
  -22.4441  -14.5716   20.6233 O   0  0  0  0  0  0  0  0  0  0  0  0
  -30.9032  -25.3949   19.5521 O   0  0  0  0  0  0  0  0  0  1  0  0
  -19.8978  -10.3877   23.1562 F   0  0  0  0  0  0  0  0  0  0  0  0
  -23.8415  -12.3087   21.3780 F   0  0  0  0  0  0  0  0  0  0  0  0
  -20.0484  -25.9588   20.8784 F   0  0  0  0  0  0  0  0  0  0  0  0
  1  2  1  0  0  0  0
  1  6  2  0  0  0  0
  2  7  2  0  0  0  0
  3  9  2  0  0  0  0
  3 10  1  0  0  0  0
  4 11  2  0  0  0  0
  4 20  1  0  0  0  0
  5 12  1  0  0  0  0
  5 20  2  0  0  0  0
  6 22  1  0  0  0  0
  7 24  1  0  0  0  0
  8 13  2  0  0  0  0
  8 23  1  0  0  0  0
  9 26  1  0  0  0  0
 10 28  2  0  0  0  0
 11 30  1  0  0  0  0
 12 30  2  0  0  0  0
 13 31  1  0  0  0  0
 14 15  2  0  0  0  0
 14 32  1  0  0  0  0
 15 33  1  0  0  0  0
 16 25  1  0  0  0  0
 16 31  2  0  0  0  0
 17 27  1  0  0  0  0
 17 29  2  0  0  0  0
 18 33  2  0  0  0  0
 18 34  1  0  0  0  0
 19 29  1  0  0  0  0
 19 70  2  0  0  0  0
 20 36  1  0  0  0  0
 21 36  1  0  0  0  0
 21 38  2  0  0  0  0
 21 39  1  0  0  0  0
 22 24  2  0  0  0  0
 22 45  1  0  0  0  0
 23 25  2  0  0  0  0
 23 46  1  0  0  0  0
 24 54  1  0  0  0  0
 25 47  1  0  0  0  0
 26 35  2  0  0  0  0
 26 64  1  0  0  0  0
 27 37  2  0  0  0  0
 27 57  1  0  0  0  0
 28 35  1  0  0  0  0
 28 77  1  0  0  0  0
 29 78  1  0  0  0  0
 30 89  1  0  0  0  0
 31 90  1  0  0  0  0
 32 34  2  0  0  0  0
 32 89  1  0  0  0  0
 33 91  1  0  0  0  0
 34 92  1  0  0  0  0
 35 93  1  0  0  0  0
 36 71  2  0  0  0  0
 37 40  1  0  0  0  0
 37 70  1  0  0  0  0
 38 72  1  0  0  0  0
 38 75  1  0  0  0  0
 39 76  1  0  0  0  0
 39 83  2  0  0  0  0
 40 79  1  0  0  0  0
 40 84  2  0  0  0  0
 41 55  1  0  0  0  0
 41 80  1  0  0  0  0
 41 85  2  0  0  0  0
 42 66  1  0  0  0  0
 42 73  1  0  0  0  0
 42 86  2  0  0  0  0
 43 67  1  0  0  0  0
 43 81  1  0  0  0  0
 43 87  2  0  0  0  0
 44 74  1  0  0  0  0
 44 77  1  0  0  0  0
 44 88  2  0  0  0  0
 45 48  1  0  0  0  0
 46 55  1  0  0  0  0
 47 73  1  0  0  0  0
 48 50  1  0  0  0  0
 49 51  1  0  0  0  0
 49 52  1  0  0  0  0
 50 54  1  0  0  0  0
 51 56  1  0  0  0  0
 52 74  1  0  0  0  0
 53 56  1  0  0  0  0
 53 74  1  0  0  0  0
 54 80  1  0  0  0  0
 55 73  1  0  0  0  0
 56 72  1  0  0  0  0
 58 67  1  0  0  0  0
 59 68  1  0  0  0  0
 60 69  1  0  0  0  0
 61 69  1  0  0  0  0
 62 69  1  0  0  0  0
 63 82  1  0  0  0  0
 64 79  1  0  0  0  0
 65 68  1  0  0  0  0
 65 78  1  0  0  0  0
 66 69  1  0  0  0  0
 66 81  1  0  0  0  0
 67 82  1  0  0  0  0
 68 90  1  0  0  0  0
 71 72  1  0  0  0  0
M  CHG  1  82   1
M  ISO  4  44 100  68 101  77 100  90 101
M  END
> <Batch ID>
0166

> <Smiles>
CNC(C)C(=O)NC(C(=O)N1Cc2cc([101O:1][101CH:1](C)CNc3cnc(C(=O)NCc4cccc([100NH:0][100C:0](=O)N5CCCC(n6nc(-c7ccc(Oc8ccc(F)cc8F)cc7)c(C(N)=O)c6N)C5)c4F)c(C)c3)ccc2CC1C(=O)NC1CCCc2ccccc21)C(C)(C)C

> <Shape>
0.213

> <Color>
0.058

> <Negative vol penalty>
0.000

$$$$

  -OEChem-04052304083D

 86 94  0     1  0  0  0  0  0999 V2000
  -20.3928  -26.6027   26.4851 C   0  0  0  0  0  0  0  0  0  0  0  0
  -21.1859  -26.1061   25.4556 C   0  0  0  0  0  0  0  0  0  0  0  0
  -24.0082   -9.1966   20.4993 C   0  0  0  0  0  0  0  0  0  0  0  0
  -22.8205  -11.0285   21.5339 C   0  0  0  0  0  0  0  0  0  0  0  0
  -29.6233  -20.5642   21.6882 C   0  0  0  0  0  0  0  0  0  0  0  0
  -19.5391  -27.6793   26.2486 C   0  0  0  0  0  0  0  0  0  0  0  0
  -21.1249  -26.6853   24.1886 C   0  0  0  0  0  0  0  0  0  0  0  0
  -25.7088  -27.4174   22.1645 C   0  0  0  0  0  0  0  0  0  0  0  0
  -29.6601  -19.1714   21.7535 C   0  0  0  0  0  0  0  0  0  0  0  0
  -23.0324   -8.3085   20.9516 C   0  0  0  0  0  0  0  0  0  0  0  0
  -21.8446  -10.1404   21.9862 C   0  0  0  0  0  0  0  0  0  0  0  0
  -26.3483  -26.3058   21.6176 C   0  0  0  0  0  0  0  0  0  0  0  0
  -22.2328   -6.7473   23.8409 C   0  0  0  0  0  0  0  0  0  0  0  0
  -22.6625   -5.5507   24.4145 C   0  0  0  0  0  0  0  0  0  0  0  0
  -25.6692  -27.0078   19.4119 C   0  0  0  0  0  0  0  0  0  0  0  0
  -28.1078  -19.0437   19.9066 C   0  0  0  0  0  0  0  0  0  0  0  0
  -21.4732   -4.3097   22.7167 C   0  0  0  0  0  0  0  0  0  0  0  0
  -23.9023  -10.5566   20.7905 C   0  0  0  0  0  0  0  0  0  0  0  0
  -28.8287  -21.1968   20.7321 C   0  0  0  0  0  0  0  0  0  0  0  0
  -24.9234  -12.1734   19.1021 C   0  0  0  0  0  0  0  0  0  0  0  0
  -19.4748  -28.2782   24.9806 C   0  0  0  0  0  0  0  0  0  0  0  0
  -25.0343  -28.3283   21.3388 C   0  0  0  0  0  0  0  0  0  0  0  0
  -20.2686  -27.7701   23.9346 C   0  0  0  0  0  0  0  0  0  0  0  0
  -25.0241  -28.1315   19.9505 C   0  0  0  0  0  0  0  0  0  0  0  0
  -28.9024  -18.4111   20.8627 C   0  0  0  0  0  0  0  0  0  0  0  0
  -28.0709  -20.4366   19.8413 C   0  0  0  0  0  0  0  0  0  0  0  0
  -21.9506   -8.7803   21.6951 C   0  0  0  0  0  0  0  0  0  0  0  0
  -26.3261  -26.0992   20.2414 C   0  0  0  0  0  0  0  0  0  0  0  0
  -21.4232   -6.7251   22.7052 C   0  0  0  0  0  0  0  0  0  0  0  0
  -22.2828   -4.3319   23.8524 C   0  0  0  0  0  0  0  0  0  0  0  0
  -21.0435   -5.5063   22.1431 C   0  0  0  0  0  0  0  0  0  0  0  0
  -24.9102  -11.4745   20.3240 C   0  0  0  0  0  0  0  0  0  0  0  0
  -26.0843  -12.9066   19.1384 C   0  0  0  0  0  0  0  0  0  0  0  0
  -28.8122  -22.6818   20.6890 C   0  0  0  0  0  0  0  0  0  0  0  0
  -23.9715  -12.1611   18.0300 C   0  0  0  0  0  0  0  0  0  0  0  0
  -22.0206  -29.3008   21.0640 C   0  0  0  0  0  0  0  0  0  0  0  0
  -27.6116  -24.6880   17.4067 C   0  0  0  0  0  0  0  0  0  0  0  0
  -23.2985  -31.3913   18.9382 C   0  0  0  0  0  0  0  0  0  0  0  0
  -25.8314  -32.1412   16.7773 C   0  0  0  0  0  0  0  0  0  0  0  0
  -29.6758  -16.2120   21.8177 C   0  0  0  0  0  0  0  0  0  0  0  0
  -18.5020  -29.4095   24.7606 C   0  0  0  0  0  0  0  0  0  0  0  0
  -24.3721  -29.5368   21.9417 C   0  0  0  0  0  0  0  0  0  0  0  0
  -24.3312  -29.0907   19.0187 C   0  0  0  0  0  0  0  0  0  0  0  0
  -18.7726  -30.2067   23.4872 C   0  0  0  0  0  0  0  0  0  0  0  0
  -30.0096  -12.7041   22.3279 C   0  0  0  0  0  0  0  0  0  0  0  0
  -19.0161  -29.2668   22.3107 C   0  0  0  0  0  0  0  0  0  0  0  0
  -28.7138  -12.1290   21.7515 C   0  0  0  0  0  0  0  0  0  0  0  0
  -29.7750  -14.0427   23.0257 C   0  0  0  0  0  0  0  0  0  0  0  0
  -27.7855  -14.4769   21.6390 C   0  0  0  0  0  0  0  0  0  0  0  0
  -20.2488  -28.3874   22.5530 C   0  0  1  0  0  0  0  0  0  0  0  0
  -23.2780  -30.1233   21.0551 C   0  0  1  0  0  0  0  0  0  0  0  0
  -27.9826  -13.1604   20.8699 C   0  0  2  0  0  0  0  0  0  0  0  0
  -28.5692  -24.9230   16.2666 C   0  0  0  0  0  0  0  0  0  0  0  0
  -26.5795  -33.9030   15.1544 C   0  0  0  0  0  0  0  0  0  0  0  0
  -21.2429  -30.3967   16.9145 C   0  0  0  0  0  0  0  0  0  0  0  0
  -22.6142  -31.4542   15.1064 C   0  0  0  0  0  0  0  0  0  0  0  0
  -21.6107  -32.8703   16.8981 C   0  0  0  0  0  0  0  0  0  0  0  0
  -28.3063  -32.6686   18.3121 C   0  0  0  0  0  0  0  0  0  0  0  0
  -29.2949  -24.6878   19.3111 C   0  0  0  0  0  0  0  0  0  0  0  0
  -27.9938  -25.2643   18.7657 C   0  0  2  0  0  0  0  0  0  1  0  0
  -23.5712  -31.3737   17.4535 C   0  0  1  0  0  0  0  0  0  0  0  0
  -26.6541  -33.4029   16.5887 C   0  0  2  0  0  0  0  0  0  0  0  0
  -22.2713  -31.5044   16.6106 C   0  0  0  0  0  0  0  0  0  0  0  0
  -25.9780  -11.7397   21.0813 N   0  0  0  0  0  0  0  0  0  0  0  0
  -26.6731  -12.6135   20.3332 N   0  0  0  0  0  0  0  0  0  0  0  0
  -23.6929  -30.2539   19.6569 N   0  0  0  0  0  0  0  0  0  0  0  0
  -29.0822  -14.9704   22.1289 N   0  0  0  0  0  0  0  0  0  0  0  0
  -27.2585  -21.0578   18.8668 N   0  0  0  0  0  0  0  0  0  0  0  0
  -26.6487  -13.7670   18.2646 N   0  0  0  0  0  0  0  0  0  0  0  0
  -22.8341  -11.3517   18.1557 N   0  0  0  0  0  0  0  0  0  0  0  0
  -28.9403  -16.9963   20.9297 N   0  0  0  0  0  0  0  0  0  0  0  0
  -29.2316  -23.2619   19.4989 N   0  0  0  0  0  0  0  0  0  0  0  0
  -21.4616  -29.1412   22.3176 N   0  0  0  0  0  0  0  0  0  0  0  0
  -24.5520  -32.4250   17.2061 N   0  0  0  0  0  0  0  0  0  0  0  0
  -28.0833  -33.1440   16.9223 N   0  3  0  0  0  0  0  0  0  0  0  0
  -28.4587  -23.3070   21.6853 O   0  0  0  0  0  0  0  0  0  0  0  0
  -24.1330  -12.8349   16.9843 O   0  0  0  0  0  0  0  0  0  0  0  0
  -21.5887  -28.8460   20.0112 O   0  0  0  0  0  0  0  0  0  0  0  0
  -26.5646  -24.0638   17.2331 O   0  0  0  0  0  0  0  0  0  0  0  0
  -22.7621  -32.3808   19.4428 O   0  0  0  0  0  0  0  0  0  0  0  0
  -26.2777  -31.0165   16.5619 O   0  0  0  0  0  0  0  0  0  0  0  0
  -30.7699  -16.5427   22.2820 O   0  0  0  0  0  0  0  0  0  0  0  0
  -20.9981   -7.9140   22.1364 O   0  0  0  0  0  0  0  0  0  0  0  0
  -26.9489  -25.0147   19.7051 O   0  0  0  0  0  0  0  0  0  1  0  0
  -22.6968   -3.1829   24.4025 F   0  0  0  0  0  0  0  0  0  0  0  0
  -20.2668   -5.4787   21.0513 F   0  0  0  0  0  0  0  0  0  0  0  0
  1  2  1  0  0  0  0
  1  6  2  0  0  0  0
  2  7  2  0  0  0  0
  3 10  2  0  0  0  0
  3 18  1  0  0  0  0
  4 11  1  0  0  0  0
  4 18  2  0  0  0  0
  5  9  2  0  0  0  0
  5 19  1  0  0  0  0
  6 21  1  0  0  0  0
  7 23  1  0  0  0  0
  8 12  2  0  0  0  0
  8 22  1  0  0  0  0
  9 25  1  0  0  0  0
 10 27  1  0  0  0  0
 11 27  2  0  0  0  0
 12 28  1  0  0  0  0
 13 14  2  0  0  0  0
 13 29  1  0  0  0  0
 14 30  1  0  0  0  0
 15 24  1  0  0  0  0
 15 28  2  0  0  0  0
 16 25  2  0  0  0  0
 16 26  1  0  0  0  0
 17 30  2  0  0  0  0
 17 31  1  0  0  0  0
 18 32  1  0  0  0  0
 19 26  2  0  0  0  0
 19 34  1  0  0  0  0
 20 32  1  0  0  0  0
 20 33  2  0  0  0  0
 20 35  1  0  0  0  0
 21 23  2  0  0  0  0
 21 41  1  0  0  0  0
 22 24  2  0  0  0  0
 22 42  1  0  0  0  0
 23 50  1  0  0  0  0
 24 43  1  0  0  0  0
 25 71  1  0  0  0  0
 26 68  1  0  0  0  0
 27 83  1  0  0  0  0
 28 84  1  0  0  0  0
 29 31  2  0  0  0  0
 29 83  1  0  0  0  0
 30 85  1  0  0  0  0
 31 86  1  0  0  0  0
 32 64  2  0  0  0  0
 33 65  1  0  0  0  0
 33 69  1  0  0  0  0
 34 72  1  0  0  0  0
 34 76  2  0  0  0  0
 35 70  1  0  0  0  0
 35 77  2  0  0  0  0
 36 51  1  0  0  0  0
 36 73  1  0  0  0  0
 36 78  2  0  0  0  0
 37 53  1  0  0  0  0
 37 60  1  0  0  0  0
 37 79  2  0  0  0  0
 38 61  1  0  0  0  0
 38 66  1  0  0  0  0
 38 80  2  0  0  0  0
 39 62  1  0  0  0  0
 39 74  1  0  0  0  0
 39 81  2  0  0  0  0
 40 67  1  0  0  0  0
 40 71  1  0  0  0  0
 40 82  2  0  0  0  0
 41 44  1  0  0  0  0
 42 51  1  0  0  0  0
 43 66  1  0  0  0  0
 44 46  1  0  0  0  0
 45 47  1  0  0  0  0
 45 48  1  0  0  0  0
 46 50  1  0  0  0  0
 47 52  1  0  0  0  0
 48 67  1  0  0  0  0
 49 52  1  0  0  0  0
 49 67  1  0  0  0  0
 50 73  1  0  0  0  0
 51 66  1  0  0  0  0
 52 65  1  0  0  0  0
 54 62  1  0  0  0  0
 55 63  1  0  0  0  0
 56 63  1  0  0  0  0
 57 63  1  0  0  0  0
 58 75  1  0  0  0  0
 59 60  1  0  0  0  0
 59 72  1  0  0  0  0
 60 84  1  0  0  0  0
 61 63  1  0  0  0  0
 61 74  1  0  0  0  0
 62 75  1  0  0  0  0
 64 65  1  0  0  0  0
M  CHG  1  75   1
M  ISO  4  40 100  60 101  71 100  84 101
M  END
> <Batch ID>
0166

> <Smiles>
CNC(C)C(=O)NC(C(=O)N1Cc2cc([101O:1][101CH:1](CNC(=O)c3ccc([100NH:0][100C:0](=O)N4CCCC(n5nc(-c6ccc(Oc7ccc(F)cc7F)cc6)c(C(N)=O)c5N)C4)cc3N)C(C)=O)ccc2CC1C(=O)NC1CCCc2ccccc21)C(C)(C)C

> <Shape>
0.284

> <Color>
0.082

> <Negative vol penalty>
0.000

$$$$

  -OEChem-04052304083D

 88 96  0     1  0  0  0  0  0999 V2000
  -27.9402  -10.2203   19.9566 C   0  0  0  0  0  0  0  0  0  0  0  0
  -28.4940  -11.3937   19.4548 C   0  0  0  0  0  0  0  0  0  0  0  0
  -20.1851  -28.2922   23.3161 C   0  0  0  0  0  0  0  0  0  0  0  0
  -21.5701  -26.6510   22.2092 C   0  0  0  0  0  0  0  0  0  0  0  0
  -26.6397  -10.2239   20.4593 C   0  0  0  0  0  0  0  0  0  0  0  0
  -27.7472  -12.5713   19.4543 C   0  0  0  0  0  0  0  0  0  0  0  0
  -29.8465  -18.2625   20.2958 C   0  0  0  0  0  0  0  0  0  0  0  0
  -19.0707  -27.8189   22.6235 C   0  0  0  0  0  0  0  0  0  0  0  0
  -20.4557  -26.1776   21.5166 C   0  0  0  0  0  0  0  0  0  0  0  0
  -30.1736  -19.2831   19.4040 C   0  0  0  0  0  0  0  0  0  0  0  0
  -17.9094  -24.2997   19.7256 C   0  0  0  0  0  0  0  0  0  0  0  0
  -17.7330  -22.9184   19.6459 C   0  0  0  0  0  0  0  0  0  0  0  0
  -27.9809  -20.2421   19.7067 C   0  0  0  0  0  0  0  0  0  0  0  0
  -29.4313  -27.8893   19.0297 C   0  0  0  0  0  0  0  0  0  0  0  0
  -28.8977  -28.1554   16.6884 C   0  0  0  0  0  0  0  0  0  0  0  0
  -17.6263  -22.7929   22.0563 C   0  0  0  0  0  0  0  0  0  0  0  0
  -21.4349  -27.7083   23.1088 C   0  0  0  0  0  0  0  0  0  0  0  0
  -28.9307  -30.0816   18.1464 C   0  0  0  0  0  0  0  0  0  0  0  0
  -23.0623  -27.7558   25.0727 C   0  0  0  0  0  0  0  0  0  0  0  0
  -25.8800  -11.4043   20.4738 C   0  0  0  0  0  0  0  0  0  0  0  0
  -28.5783  -18.2179   20.8924 C   0  0  0  0  0  0  0  0  0  0  0  0
  -26.4348  -12.5904   19.9564 C   0  0  0  0  0  0  0  0  0  0  0  0
  -27.6411  -19.2213   20.6077 C   0  0  0  0  0  0  0  0  0  0  0  0
  -29.2754  -29.2621   19.2212 C   0  0  0  0  0  0  0  0  0  0  0  0
  -29.2425  -27.3359   17.7632 C   0  0  0  0  0  0  0  0  0  0  0  0
  -28.7418  -29.5282   16.8800 C   0  0  0  0  0  0  0  0  0  0  0  0
  -19.2060  -26.7616   21.7239 C   0  0  0  0  0  0  0  0  0  0  0  0
  -29.2397  -20.2715   19.1071 C   0  0  0  0  0  0  0  0  0  0  0  0
  -17.9443  -24.9277   20.9707 C   0  0  0  0  0  0  0  0  0  0  0  0
  -17.5915  -22.1650   20.8113 C   0  0  0  0  0  0  0  0  0  0  0  0
  -17.8028  -24.1743   22.1360 C   0  0  0  0  0  0  0  0  0  0  0  0
  -22.5866  -28.1972   23.8235 C   0  0  0  0  0  0  0  0  0  0  0  0
  -24.1715  -28.5301   25.3108 C   0  0  0  0  0  0  0  0  0  0  0  0
  -29.5168  -22.5564   18.6915 C   0  0  0  0  0  0  0  0  0  1  0  0
  -28.7689  -31.5180   18.3522 C   0  0  0  0  0  0  0  0  0  0  0  0
  -22.5476  -26.7370   25.9404 C   0  0  0  0  0  0  0  0  0  0  0  0
  -29.8084  -23.6129   17.9231 C   0  0  0  0  0  0  0  0  0  0  0  0
  -29.7366  -24.9873   18.5182 C   0  0  0  0  0  0  0  0  0  0  0  0
  -26.1534  -16.1630   20.8564 C   0  0  0  0  0  0  0  0  0  0  0  0
  -24.9279  -18.1706   23.0903 C   0  0  0  0  0  0  0  0  0  0  0  0
  -24.8553  -21.3034   24.4421 C   0  0  0  0  0  0  0  0  0  0  0  0
  -27.9639  -31.4392   21.7044 C   0  0  0  0  0  0  0  0  0  0  0  0
  -24.4617  -11.3485   20.9838 C   0  0  0  0  0  0  0  0  0  0  0  0
  -28.2503  -17.1253   21.8728 C   0  0  0  0  0  0  0  0  0  0  0  0
  -26.2728  -19.2301   21.2372 C   0  0  0  0  0  0  0  0  0  0  0  0
  -23.8706  -12.7219   21.2914 C   0  0  0  0  0  0  0  0  0  0  0  0
  -26.0116  -32.8370   24.3334 C   0  0  0  0  0  0  0  0  0  0  0  0
  -24.1566  -13.6938   20.1510 C   0  0  0  0  0  0  0  0  0  0  0  0
  -24.9554  -31.7666   24.6135 C   0  0  0  0  0  0  0  0  0  0  0  0
  -26.3441  -32.9260   22.8456 C   0  0  0  0  0  0  0  0  0  0  0  0
  -25.6791  -30.5780   22.5011 C   0  0  0  0  0  0  0  0  0  0  0  0
  -25.6651  -13.8934   19.9614 C   0  0  1  0  0  0  0  0  0  0  0  0
  -26.7507  -16.8913   22.0271 C   0  0  1  0  0  0  0  0  0  0  0  0
  -25.3515  -30.4124   23.9949 C   0  0  2  0  0  0  0  0  0  0  0  0
  -29.9826  -32.3790   18.1760 C   0  0  0  0  0  0  0  0  0  0  0  0
  -23.7267  -22.6500   26.2338 C   0  0  0  0  0  0  0  0  0  0  0  0
  -22.4153  -18.3511   21.3686 C   0  0  0  0  0  0  0  0  0  0  0  0
  -21.7507  -20.3813   22.6744 C   0  0  0  0  0  0  0  0  0  0  0  0
  -21.9858  -18.1812   23.8265 C   0  0  0  0  0  0  0  0  0  0  0  0
  -27.4204  -21.8376   25.8181 C   0  0  0  0  0  0  0  0  0  0  0  0
  -29.4844  -29.8254   20.5896 C   0  0  0  0  0  0  0  0  0  0  0  0
  -24.0598  -19.4052   23.0569 C   0  0  1  0  0  0  0  0  0  0  0  0
  -24.9241  -21.7812   25.8813 C   0  0  2  0  0  0  0  0  0  0  0  0
  -22.5779  -19.0788   22.7181 C   0  0  0  0  0  0  0  0  0  0  0  0
  -23.3324  -29.1761   23.3043 N   0  0  0  0  0  0  0  0  0  0  0  0
  -24.2880  -29.3562   24.2319 N   0  0  0  0  0  0  0  0  0  0  0  0
  -25.9975  -18.1372   22.1843 N   0  0  0  0  0  0  0  0  0  0  0  0
  -26.7132  -31.6090   22.3209 N   0  0  0  0  0  0  0  0  0  0  0  0
  -28.3927  -30.3389   15.7766 N   0  0  0  0  0  0  0  0  0  0  0  0
  -25.0488  -28.5781   26.3358 N   0  0  0  0  0  0  0  0  0  0  0  0
  -21.3999  -26.0378   25.5426 N   0  0  0  0  0  0  0  0  0  0  0  0
  -29.4009  -25.9426   17.5687 N   0  0  0  0  0  0  0  0  0  0  0  0
  -26.1878  -14.7866   20.9731 N   0  0  0  0  0  0  0  0  0  0  0  0
  -24.2464  -20.0703   24.3419 N   0  0  0  0  0  0  0  0  0  0  0  0
  -28.2369  -30.1581   21.2406 N   0  0  0  0  0  0  0  0  0  0  0  0
  -26.1642  -22.5772   26.1041 N   0  3  0  0  0  0  0  0  0  0  0  0
  -27.7134  -32.0668   18.6629 O   0  0  0  0  0  0  0  0  0  0  0  0
  -23.0799  -26.4663   27.0435 O   0  0  0  0  0  0  0  0  0  0  0  0
  -29.9602  -25.1702   19.7100 O   0  0  0  0  0  0  0  0  0  0  0  0
  -25.6939  -16.8026   19.9175 O   0  0  0  0  0  0  0  0  0  0  0  0
  -24.6709  -17.2722   23.8955 O   0  0  0  0  0  0  0  0  0  0  0  0
  -25.2942  -21.9601   23.5005 O   0  0  0  0  0  0  0  0  0  0  0  0
  -28.7791  -32.3596   21.5816 O   0  0  0  0  0  0  0  0  0  0  0  0
  -30.1758  -23.4884   16.5986 O   0  0  0  0  0  0  0  0  0  0  0  0
  -18.1187  -26.2993   21.0481 O   0  0  0  0  0  0  0  0  0  0  0  0
  -29.5561  -21.2684   18.2365 O   0  0  0  0  0  0  0  0  0  1  0  0
  -17.4205  -20.8387   20.7345 F   0  0  0  0  0  0  0  0  0  0  0  0
  -17.8343  -24.7721   23.3349 F   0  0  0  0  0  0  0  0  0  0  0  0
  1  2  1  0  0  0  0
  1  5  2  0  0  0  0
  2  6  2  0  0  0  0
  3  8  2  0  0  0  0
  3 17  1  0  0  0  0
  4  9  1  0  0  0  0
  4 17  2  0  0  0  0
  5 20  1  0  0  0  0
  6 22  1  0  0  0  0
  7 10  2  0  0  0  0
  7 21  1  0  0  0  0
  8 27  1  0  0  0  0
  9 27  2  0  0  0  0
 10 28  1  0  0  0  0
 11 12  2  0  0  0  0
 11 29  1  0  0  0  0
 12 30  1  0  0  0  0
 13 23  1  0  0  0  0
 13 28  2  0  0  0  0
 14 24  1  0  0  0  0
 14 25  2  0  0  0  0
 15 25  1  0  0  0  0
 15 26  2  0  0  0  0
 16 30  2  0  0  0  0
 16 31  1  0  0  0  0
 17 32  1  0  0  0  0
 18 24  2  0  0  0  0
 18 26  1  0  0  0  0
 18 35  1  0  0  0  0
 19 32  1  0  0  0  0
 19 33  2  0  0  0  0
 19 36  1  0  0  0  0
 20 22  2  0  0  0  0
 20 43  1  0  0  0  0
 21 23  2  0  0  0  0
 21 44  1  0  0  0  0
 22 52  1  0  0  0  0
 23 45  1  0  0  0  0
 24 61  1  0  0  0  0
 25 72  1  0  0  0  0
 26 69  1  0  0  0  0
 27 85  1  0  0  0  0
 28 86  1  0  0  0  0
 29 31  2  0  0  0  0
 29 85  1  0  0  0  0
 30 87  1  0  0  0  0
 31 88  1  0  0  0  0
 32 65  2  0  0  0  0
 33 66  1  0  0  0  0
 33 70  1  0  0  0  0
 34 37  2  0  0  0  0
 34 86  1  0  0  0  0
 35 55  1  0  0  0  0
 35 77  2  0  0  0  0
 36 71  1  0  0  0  0
 36 78  2  0  0  0  0
 37 38  1  0  0  0  0
 37 84  1  0  0  0  0
 38 72  1  0  0  0  0
 38 79  2  0  0  0  0
 39 53  1  0  0  0  0
 39 73  1  0  0  0  0
 39 80  2  0  0  0  0
 40 62  1  0  0  0  0
 40 67  1  0  0  0  0
 40 81  2  0  0  0  0
 41 63  1  0  0  0  0
 41 74  1  0  0  0  0
 41 82  2  0  0  0  0
 42 68  1  0  0  0  0
 42 75  1  0  0  0  0
 42 83  2  0  0  0  0
 43 46  1  0  0  0  0
 44 53  1  0  0  0  0
 45 67  1  0  0  0  0
 46 48  1  0  0  0  0
 47 49  1  0  0  0  0
 47 50  1  0  0  0  0
 48 52  1  0  0  0  0
 49 54  1  0  0  0  0
 50 68  1  0  0  0  0
 51 54  1  0  0  0  0
 51 68  1  0  0  0  0
 52 73  1  0  0  0  0
 53 67  1  0  0  0  0
 54 66  1  0  0  0  0
 56 63  1  0  0  0  0
 57 64  1  0  0  0  0
 58 64  1  0  0  0  0
 59 64  1  0  0  0  0
 60 76  1  0  0  0  0
 61 75  1  0  0  0  0
 62 64  1  0  0  0  0
 62 74  1  0  0  0  0
 63 76  1  0  0  0  0
 65 66  1  0  0  0  0
M  CHG  1  76   1
M  ISO  4  34 101  42 100  75 100  86 101
M  END
> <Batch ID>
0166

> <Smiles>
CNC(C)C(=O)NC(C(=O)N1Cc2cc([101O:1][101CH2:1]C(=O)C(=O)Nc3cc(N)c(C(C)=O)c(C[100NH:0][100C:0](=O)N4CCCC(n5nc(-c6ccc(Oc7ccc(F)cc7F)cc6)c(C(N)=O)c5N)C4)c3)ccc2CC1C(=O)NC1CCCc2ccccc21)C(C)(C)C

> <Shape>
0.226

> <Color>
0.054

> <Negative vol penalty>
0.000

$$$$

  -OEChem-04052304083D

 85 94  0     1  0  0  0  0  0999 V2000
  -29.8199  -34.4665   26.0707 C   0  0  0  0  0  0  0  0  0  0  0  0
  -29.4710  -33.2291   25.5390 C   0  0  0  0  0  0  0  0  0  0  0  0
  -22.6324   -9.4977   19.9273 C   0  0  0  0  0  0  0  0  0  0  0  0
  -24.3985   -8.8127   21.4268 C   0  0  0  0  0  0  0  0  0  0  0  0
  -28.8289  -35.4023   26.3641 C   0  0  0  0  0  0  0  0  0  0  0  0
  -28.1307  -32.9264   25.3015 C   0  0  0  0  0  0  0  0  0  0  0  0
  -27.4022  -30.7414   20.7915 C   0  0  0  0  0  0  0  0  0  0  0  0
  -21.6896   -8.9042   20.7665 C   0  0  0  0  0  0  0  0  0  0  0  0
  -23.4557   -8.2192   22.2661 C   0  0  0  0  0  0  0  0  0  0  0  0
  -27.7199  -29.3885   20.6807 C   0  0  0  0  0  0  0  0  0  0  0  0
  -21.6543   -5.3596   22.3608 C   0  0  0  0  0  0  0  0  0  0  0  0
  -21.9356   -4.0849   22.8524 C   0  0  0  0  0  0  0  0  0  0  0  0
  -25.3856  -28.8273   20.9159 C   0  0  0  0  0  0  0  0  0  0  0  0
  -21.8306   -4.9333   25.1122 C   0  0  0  0  0  0  0  0  0  0  0  0
  -27.2837  -18.9566   20.0427 C   0  0  0  0  0  0  0  0  0  0  0  0
  -23.9869   -9.4519   20.2574 C   0  0  0  0  0  0  0  0  0  0  0  0
  -25.2171   -9.7494   18.0425 C   0  0  0  0  0  0  0  0  0  0  0  0
  -27.4765  -35.1146   26.1211 C   0  0  0  0  0  0  0  0  0  0  0  0
  -26.0728  -31.1476   20.9765 C   0  0  0  0  0  0  0  0  0  0  0  0
  -27.1205  -33.8588   25.5932 C   0  0  0  0  0  0  0  0  0  0  0  0
  -25.0534  -30.1862   21.0262 C   0  0  0  0  0  0  0  0  0  0  0  0
  -28.5228  -18.3497   20.0680 C   0  0  0  0  0  0  0  0  0  0  0  0
  -22.1012   -8.2650   21.9360 C   0  0  0  0  0  0  0  0  0  0  0  0
  -26.7119  -28.4310   20.7458 C   0  0  0  0  0  0  0  0  0  0  0  0
  -21.4613   -6.4212   23.2449 C   0  0  0  0  0  0  0  0  0  0  0  0
  -22.0237   -3.8717   24.2281 C   0  0  0  0  0  0  0  0  0  0  0  0
  -21.5494   -6.2080   24.6205 C   0  0  0  0  0  0  0  0  0  0  0  0
  -24.9614  -10.0643   19.3905 C   0  0  0  0  0  0  0  0  0  0  0  0
  -29.6046  -19.2038   20.1364 C   0  0  0  0  0  0  0  0  0  0  0  0
  -26.2248  -10.6072   17.6746 C   0  0  0  0  0  0  0  0  0  0  0  0
  -28.2354  -21.0182   20.1471 C   0  0  0  0  0  0  0  0  0  0  0  0
  -28.4867  -25.2733   20.3727 C   0  0  0  0  0  0  0  0  0  0  0  0
  -24.5990   -8.7692   17.1982 C   0  0  0  0  0  0  0  0  0  0  0  0
  -24.4998  -32.7038   23.2585 C   0  0  0  0  0  0  0  0  0  0  0  0
  -22.0549  -32.5582   21.1317 C   0  0  0  0  0  0  0  0  0  0  0  0
  -20.6321  -30.9887   18.4560 C   0  0  0  0  0  0  0  0  0  0  0  0
  -27.6153  -15.9943   19.9554 C   0  0  0  0  0  0  0  0  0  0  0  0
  -26.4370  -36.1400   26.4985 C   0  0  0  0  0  0  0  0  0  0  0  0
  -25.7436  -32.6124   21.0675 C   0  0  0  0  0  0  0  0  0  0  0  0
  -23.6081  -30.5713   21.2034 C   0  0  0  0  0  0  0  0  0  0  0  0
  -28.3686  -24.6669   19.0005 C   0  0  0  0  0  0  0  0  0  0  0  0
  -25.0709  -35.8832   25.8676 C   0  0  0  0  0  0  0  0  0  0  0  0
  -29.6855  -12.7785   20.2677 C   0  0  0  0  0  0  0  0  0  0  0  0
  -24.6804  -34.4164   26.0184 C   0  0  0  0  0  0  0  0  0  0  0  0
  -28.9244  -11.8907   19.2859 C   0  0  0  0  0  0  0  0  0  0  0  0
  -28.7188  -23.1458   21.4281 C   0  0  0  0  0  0  0  0  0  0  0  0
  -29.4852  -14.2612   19.9804 C   0  0  0  0  0  0  0  0  0  0  0  0
  -27.0851  -13.5656   19.8708 C   0  0  0  0  0  0  0  0  0  0  0  0
  -25.6796  -33.5027   25.2983 C   0  0  1  0  0  0  0  0  0  0  0  0
  -28.0735  -22.5214   20.1917 C   0  0  1  0  0  0  0  0  0  0  0  0
  -24.4164  -32.8841   21.7692 C   0  0  1  0  0  0  0  0  0  0  0  0
  -27.5390  -12.4540   18.9119 C   0  0  2  0  0  0  0  0  0  0  0  0
  -18.6153  -31.0753   16.9651 C   0  0  0  0  0  0  0  0  0  0  0  0
  -20.3657  -31.3165   23.3486 C   0  0  0  0  0  0  0  0  0  0  0  0
  -18.7413  -30.5685   21.5964 C   0  0  0  0  0  0  0  0  0  0  0  0
  -19.1665  -33.0020   21.9431 C   0  0  0  0  0  0  0  0  0  0  0  0
  -22.2881  -31.4586   16.0486 C   0  0  0  0  0  0  0  0  0  0  0  0
  -28.3951  -26.7753   20.4610 C   0  0  0  0  0  0  0  0  0  1  0  0
  -20.9436  -31.5772   20.8458 C   0  0  1  0  0  0  0  0  0  0  0  0
  -20.0531  -31.5303   17.1614 C   0  0  2  0  0  0  0  0  0  0  0  0
  -19.8316  -31.6084   21.9321 C   0  0  0  0  0  0  0  0  0  0  0  0
  -27.1026  -20.2930   20.0809 N   0  0  0  0  0  0  0  0  0  0  0  0
  -25.7437  -11.0454   19.8482 N   0  0  0  0  0  0  0  0  0  0  0  0
  -29.4969  -20.5481   20.1775 N   0  0  0  0  0  0  0  0  0  0  0  0
  -28.6149  -24.6064   21.4664 N   0  0  0  0  0  0  0  0  0  0  0  0
  -26.5009  -11.3544   18.7817 N   0  0  0  0  0  0  0  0  0  0  0  0
  -23.3376  -32.0157   21.2937 N   0  0  0  0  0  0  0  0  0  0  0  0
  -28.0692  -14.6528   19.9272 N   0  0  0  0  0  0  0  0  0  0  0  0
  -30.9056  -18.6427   20.1655 N   0  0  0  0  0  0  0  0  0  0  0  0
  -26.8928  -10.7876   16.5155 N   0  0  0  0  0  0  0  0  0  0  0  0
  -25.1481   -7.4803   17.1579 N   0  0  0  0  0  0  0  0  0  0  0  0
  -28.6434  -16.9382   20.0250 N   0  0  0  0  0  0  0  0  0  0  0  0
  -25.4369  -33.5134   23.8716 N   0  0  0  0  0  0  0  0  0  0  0  0
  -20.4712  -31.8769   19.4984 N   0  0  0  0  0  0  0  0  0  0  0  0
  -28.6726  -23.2141   19.0044 N   0  3  0  0  0  0  0  0  0  0  0  0
  -20.8576  -31.0611   15.9980 N   0  3  0  0  0  0  0  0  0  0  0  0
  -23.5995   -9.0332   16.4877 O   0  0  0  0  0  0  0  0  0  0  0  0
  -23.7671  -31.8915   23.8108 O   0  0  0  0  0  0  0  0  0  0  0  0
  -21.7957  -33.7622   21.2014 O   0  0  0  0  0  0  0  0  0  0  0  0
  -21.1697  -29.8864   18.5355 O   0  0  0  0  0  0  0  0  0  0  0  0
  -26.4154  -16.2733   19.9083 O   0  0  0  0  0  0  0  0  0  0  0  0
  -21.1814   -7.6859   22.7553 O   0  0  0  0  0  0  0  0  0  0  0  0
  -27.0193  -27.1097   20.6387 O   0  0  0  0  0  0  0  0  0  1  0  0
  -22.2922   -2.6473   24.7000 F   0  0  0  0  0  0  0  0  0  0  0  0
  -21.3638   -7.2237   25.4748 F   0  0  0  0  0  0  0  0  0  0  0  0
  1  2  1  0  0  0  0
  1  5  2  0  0  0  0
  2  6  2  0  0  0  0
  3  8  2  0  0  0  0
  3 16  1  0  0  0  0
  4  9  1  0  0  0  0
  4 16  2  0  0  0  0
  5 18  1  0  0  0  0
  6 20  1  0  0  0  0
  7 10  2  0  0  0  0
  7 19  1  0  0  0  0
  8 23  1  0  0  0  0
  9 23  2  0  0  0  0
 10 24  1  0  0  0  0
 11 12  2  0  0  0  0
 11 25  1  0  0  0  0
 12 26  1  0  0  0  0
 13 21  1  0  0  0  0
 13 24  2  0  0  0  0
 14 26  2  0  0  0  0
 14 27  1  0  0  0  0
 15 22  1  0  0  0  0
 15 62  2  0  0  0  0
 16 28  1  0  0  0  0
 17 28  1  0  0  0  0
 17 30  2  0  0  0  0
 17 33  1  0  0  0  0
 18 20  2  0  0  0  0
 18 38  1  0  0  0  0
 19 21  2  0  0  0  0
 19 39  1  0  0  0  0
 20 49  1  0  0  0  0
 21 40  1  0  0  0  0
 22 29  2  0  0  0  0
 22 72  1  0  0  0  0
 23 82  1  0  0  0  0
 24 83  1  0  0  0  0
 25 27  2  0  0  0  0
 25 82  1  0  0  0  0
 26 84  1  0  0  0  0
 27 85  1  0  0  0  0
 28 63  2  0  0  0  0
 29 64  1  0  0  0  0
 29 69  1  0  0  0  0
 30 66  1  0  0  0  0
 30 70  1  0  0  0  0
 31 50  1  0  0  0  0
 31 62  1  0  0  0  0
 31 64  2  0  0  0  0
 32 41  1  0  0  0  0
 32 58  1  0  0  0  0
 32 65  2  0  0  0  0
 33 71  1  0  0  0  0
 33 77  2  0  0  0  0
 34 51  1  0  0  0  0
 34 73  1  0  0  0  0
 34 78  2  0  0  0  0
 35 59  1  0  0  0  0
 35 67  1  0  0  0  0
 35 79  2  0  0  0  0
 36 60  1  0  0  0  0
 36 74  1  0  0  0  0
 36 80  2  0  0  0  0
 37 68  1  0  0  0  0
 37 72  1  0  0  0  0
 37 81  2  0  0  0  0
 38 42  1  0  0  0  0
 39 51  1  0  0  0  0
 40 67  1  0  0  0  0
 41 75  1  0  0  0  0
 42 44  1  0  0  0  0
 43 45  1  0  0  0  0
 43 47  1  0  0  0  0
 44 49  1  0  0  0  0
 45 52  1  0  0  0  0
 46 50  1  0  0  0  0
 46 65  1  0  0  0  0
 47 68  1  0  0  0  0
 48 52  1  0  0  0  0
 48 68  1  0  0  0  0
 49 73  1  0  0  0  0
 50 75  1  0  0  0  0
 51 67  1  0  0  0  0
 52 66  1  0  0  0  0
 53 60  1  0  0  0  0
 54 61  1  0  0  0  0
 55 61  1  0  0  0  0
 56 61  1  0  0  0  0
 57 76  1  0  0  0  0
 58 83  1  0  0  0  0
 59 61  1  0  0  0  0
 59 74  1  0  0  0  0
 60 76  1  0  0  0  0
 63 66  1  0  0  0  0
M  CHG  2  75   1  76   1
M  ISO  4  37 100  58 101  72 100  83 101
M  END
> <Batch ID>
0166

> <Smiles>
CNC(C)C(=O)NC(C(=O)N1Cc2cc([101O:1][101CH2:1]C3=NCC(c4ncc([100NH:0][100C:0](=O)N5CCCC(n6nc(-c7ccc(Oc8ccc(F)cc8F)cc7)c(C(N)=O)c6N)C5)c(N)n4)NC3)ccc2CC1C(=O)NC1CCCc2ccccc21)C(C)(C)C

> <Shape>
0.301

> <Color>
0.109

> <Negative vol penalty>
0.000

$$$$

  -OEChem-04052304083D

 85 93  0     1  0  0  0  0  0999 V2000
  -31.3297  -23.1725   16.2577 C   0  0  0  0  0  0  0  0  0  0  0  0
  -30.4977  -24.2767   16.1117 C   0  0  0  0  0  0  0  0  0  0  0  0
  -26.5740  -13.0347   21.5966 C   0  0  0  0  0  0  0  0  0  0  0  0
  -25.9873  -14.0743   19.4961 C   0  0  0  0  0  0  0  0  0  0  0  0
  -23.0545  -22.6555   18.2527 C   0  0  0  0  0  0  0  0  0  0  0  0
  -31.2311  -22.3760   17.3966 C   0  0  0  0  0  0  0  0  0  0  0  0
  -29.5751  -24.5917   17.1099 C   0  0  0  0  0  0  0  0  0  0  0  0
  -25.3004  -28.9284   17.3273 C   0  0  0  0  0  0  0  0  0  0  0  0
  -23.9372  -21.9326   19.0550 C   0  0  0  0  0  0  0  0  0  0  0  0
  -25.9327  -11.8627   21.1957 C   0  0  0  0  0  0  0  0  0  0  0  0
  -25.3461  -12.9023   19.0951 C   0  0  0  0  0  0  0  0  0  0  0  0
  -23.9513  -29.0608   17.0015 C   0  0  0  0  0  0  0  0  0  0  0  0
  -22.7649  -10.7018   20.9922 C   0  0  0  0  0  0  0  0  0  0  0  0
  -21.9323  -10.0707   21.9164 C   0  0  0  0  0  0  0  0  0  0  0  0
  -23.3594  -28.6151   19.2972 C   0  0  0  0  0  0  0  0  0  0  0  0
  -22.9516  -22.9189   21.0281 C   0  0  0  0  0  0  0  0  0  0  0  0
  -23.3043   -8.0856   21.7969 C   0  0  0  0  0  0  0  0  0  0  0  0
  -26.6013  -14.1405   20.7469 C   0  0  0  0  0  0  0  0  0  0  0  0
  -22.1204  -23.5102   18.8380 C   0  0  0  0  0  0  0  0  0  0  0  0
  -28.6123  -15.6963   20.9542 C   0  0  0  0  0  0  0  0  0  0  0  0
  -30.2980  -22.6749   18.4030 C   0  0  0  0  0  0  0  0  0  0  0  0
  -25.6893  -28.6271   18.6405 C   0  0  0  0  0  0  0  0  0  0  0  0
  -29.4769  -23.8140   18.2779 C   0  0  0  0  0  0  0  0  0  0  0  0
  -24.7142  -28.4819   19.6376 C   0  0  0  0  0  0  0  0  0  0  0  0
  -22.0689  -23.6418   20.2257 C   0  0  0  0  0  0  0  0  0  0  0  0
  -23.8858  -22.0643   20.4427 C   0  0  0  0  0  0  0  0  0  0  0  0
  -25.3188  -11.7964   19.9450 C   0  0  0  0  0  0  0  0  0  0  0  0
  -22.9804  -28.9013   17.9859 C   0  0  0  0  0  0  0  0  0  0  0  0
  -23.8671  -10.0247   20.4702 C   0  0  0  0  0  0  0  0  0  0  0  0
  -22.2020   -8.7627   22.3188 C   0  0  0  0  0  0  0  0  0  0  0  0
  -24.1368   -8.7167   20.8726 C   0  0  0  0  0  0  0  0  0  0  0  0
  -27.2630  -15.3517   21.1607 C   0  0  0  0  0  0  0  0  0  0  0  0
  -28.7420  -16.9362   21.5307 C   0  0  0  0  0  0  0  0  0  0  0  0
  -21.1930  -24.2682   17.9591 C   0  0  0  0  0  0  0  0  0  0  0  0
  -29.6550  -14.9614   20.2998 C   0  0  0  0  0  0  0  0  0  0  0  0
  -27.2372  -26.2209   20.0253 C   0  0  0  0  0  0  0  0  0  0  0  0
  -27.0452  -28.1198   22.6482 C   0  0  0  0  0  0  0  0  0  0  0  0
  -25.4404  -30.6500   24.2820 C   0  0  0  0  0  0  0  0  0  0  0  0
  -24.8656  -21.3440   22.6490 C   0  0  0  0  0  0  0  0  0  0  0  0
  -30.2391  -21.7836   19.6185 C   0  0  0  0  0  0  0  0  0  0  0  0
  -27.1499  -28.5140   18.9812 C   0  0  0  0  0  0  0  0  0  0  0  0
  -25.0804  -28.1780   21.0666 C   0  0  0  0  0  0  0  0  0  0  0  0
  -28.9409  -21.9352   20.4046 C   0  0  0  0  0  0  0  0  0  0  0  0
  -26.9095  -19.6524   25.0234 C   0  0  0  0  0  0  0  0  0  0  0  0
  -28.6556  -23.4080   20.6576 C   0  0  0  0  0  0  0  0  0  0  0  0
  -27.3599  -18.3919   24.2814 C   0  0  0  0  0  0  0  0  0  0  0  0
  -25.4729  -20.0346   24.6718 C   0  0  0  0  0  0  0  0  0  0  0  0
  -25.6479  -18.8987   22.4928 C   0  0  0  0  0  0  0  0  0  0  0  0
  -28.4448  -24.1583   19.3364 C   0  0  1  0  0  0  0  0  0  0  0  0
  -27.4074  -27.6977   20.2440 C   0  0  1  0  0  0  0  0  0  0  0  0
  -27.1105  -18.5112   22.7651 C   0  0  2  0  0  0  0  0  0  0  0  0
  -21.0791  -24.5511   20.8780 C   0  0  0  0  0  0  0  0  0  0  0  0
  -25.4902  -31.9549   26.4249 C   0  0  0  0  0  0  0  0  0  0  0  0
  -19.8063  -29.2193   19.1757 C   0  0  0  0  0  0  0  0  0  0  0  0
  -25.7936  -25.7548   24.1146 C   0  0  0  0  0  0  0  0  0  0  0  0
  -25.0128  -27.3511   25.8782 C   0  0  0  0  0  0  0  0  0  0  0  0
  -27.4539  -27.0553   25.4586 C   0  0  0  0  0  0  0  0  0  0  0  0
  -25.9187  -33.1981   22.8546 C   0  0  0  0  0  0  0  0  0  0  0  0
  -19.9486  -27.3164   17.5211 C   0  0  0  0  0  0  0  0  0  0  0  0
  -20.8393  -26.3805   16.7064 C   0  0  0  0  0  0  0  0  0  0  0  0
  -26.0473  -28.3005   23.7665 C   0  0  1  0  0  0  0  0  0  0  0  0
  -25.9662  -31.8901   24.9820 C   0  0  2  0  0  0  0  0  0  0  0  0
  -20.7341  -28.2636   18.4370 C   0  0  1  0  0  0  0  0  0  1  0  0
  -26.0696  -27.1192   24.7772 C   0  0  0  0  0  0  0  0  0  0  0  0
  -26.5842  -16.2962   21.8172 N   0  0  0  0  0  0  0  0  0  0  0  0
  -27.5107  -17.2466   22.0283 N   0  0  0  0  0  0  0  0  0  0  0  0
  -26.5214  -28.0706   21.3486 N   0  0  0  0  0  0  0  0  0  0  0  0
  -25.3126  -20.1334   23.2194 N   0  0  0  0  0  0  0  0  0  0  0  0
  -29.7881  -17.7803   21.6554 N   0  0  0  0  0  0  0  0  0  0  0  0
  -29.3501  -13.7032   19.7630 N   0  0  0  0  0  0  0  0  0  0  0  0
  -24.7829  -21.3295   21.2570 N   0  0  0  0  0  0  0  0  0  0  0  0
  -21.6322  -25.5187   17.5386 N   0  0  0  0  0  0  0  0  0  0  0  0
  -28.3859  -25.5784   19.6042 N   0  0  0  0  0  0  0  0  0  0  0  0
  -26.3324  -29.6016   24.3617 N   0  0  0  0  0  0  0  0  0  0  0  0
  -25.5012  -33.1187   24.2781 N   0  3  0  0  0  0  0  0  0  0  0  0
  -20.1046  -23.7779   17.6704 O   0  0  0  0  0  0  0  0  0  0  0  0
  -30.8266  -15.4002   20.2085 O   0  0  0  0  0  0  0  0  0  0  0  0
  -26.1450  -25.7024   20.2252 O   0  0  0  0  0  0  0  0  0  0  0  0
  -28.2459  -28.0328   22.9173 O   0  0  0  0  0  0  0  0  0  0  0  0
  -24.3460  -30.6137   23.7238 O   0  0  0  0  0  0  0  0  0  0  0  0
  -24.6035  -22.3302   23.3422 O   0  0  0  0  0  0  0  0  0  0  0  0
  -24.6931  -10.6529   19.5533 O   0  0  0  0  0  0  0  0  0  0  0  0
  -21.6628  -29.0293   17.6705 O   0  0  0  0  0  0  0  0  0  1  0  0
  -21.4033   -8.1573   23.2075 F   0  0  0  0  0  0  0  0  0  0  0  0
  -25.1949   -8.0616   20.3755 F   0  0  0  0  0  0  0  0  0  0  0  0
  1  2  1  0  0  0  0
  1  6  2  0  0  0  0
  2  7  2  0  0  0  0
  3 10  2  0  0  0  0
  3 18  1  0  0  0  0
  4 11  1  0  0  0  0
  4 18  2  0  0  0  0
  5  9  2  0  0  0  0
  5 19  1  0  0  0  0
  6 21  1  0  0  0  0
  7 23  1  0  0  0  0
  8 12  2  0  0  0  0
  8 22  1  0  0  0  0
  9 26  1  0  0  0  0
 10 27  1  0  0  0  0
 11 27  2  0  0  0  0
 12 28  1  0  0  0  0
 13 14  2  0  0  0  0
 13 29  1  0  0  0  0
 14 30  1  0  0  0  0
 15 24  1  0  0  0  0
 15 28  2  0  0  0  0
 16 25  1  0  0  0  0
 16 26  2  0  0  0  0
 17 30  2  0  0  0  0
 17 31  1  0  0  0  0
 18 32  1  0  0  0  0
 19 25  2  0  0  0  0
 19 34  1  0  0  0  0
 20 32  1  0  0  0  0
 20 33  2  0  0  0  0
 20 35  1  0  0  0  0
 21 23  2  0  0  0  0
 21 40  1  0  0  0  0
 22 24  2  0  0  0  0
 22 41  1  0  0  0  0
 23 49  1  0  0  0  0
 24 42  1  0  0  0  0
 25 52  1  0  0  0  0
 26 71  1  0  0  0  0
 27 82  1  0  0  0  0
 28 83  1  0  0  0  0
 29 31  2  0  0  0  0
 29 82  1  0  0  0  0
 30 84  1  0  0  0  0
 31 85  1  0  0  0  0
 32 65  2  0  0  0  0
 33 66  1  0  0  0  0
 33 69  1  0  0  0  0
 34 72  1  0  0  0  0
 34 76  2  0  0  0  0
 35 70  1  0  0  0  0
 35 77  2  0  0  0  0
 36 50  1  0  0  0  0
 36 73  1  0  0  0  0
 36 78  2  0  0  0  0
 37 61  1  0  0  0  0
 37 67  1  0  0  0  0
 37 79  2  0  0  0  0
 38 62  1  0  0  0  0
 38 74  1  0  0  0  0
 38 80  2  0  0  0  0
 39 68  1  0  0  0  0
 39 71  1  0  0  0  0
 39 81  2  0  0  0  0
 40 43  1  0  0  0  0
 41 50  1  0  0  0  0
 42 67  1  0  0  0  0
 43 45  1  0  0  0  0
 44 46  1  0  0  0  0
 44 47  1  0  0  0  0
 45 49  1  0  0  0  0
 46 51  1  0  0  0  0
 47 68  1  0  0  0  0
 48 51  1  0  0  0  0
 48 68  1  0  0  0  0
 49 73  1  0  0  0  0
 50 67  1  0  0  0  0
 51 66  1  0  0  0  0
 53 62  1  0  0  0  0
 54 63  1  0  0  0  0
 55 64  1  0  0  0  0
 56 64  1  0  0  0  0
 57 64  1  0  0  0  0
 58 75  1  0  0  0  0
 59 60  1  0  0  0  0
 59 63  1  0  0  0  0
 60 72  1  0  0  0  0
 61 64  1  0  0  0  0
 61 74  1  0  0  0  0
 62 75  1  0  0  0  0
 63 83  1  0  0  0  0
 65 66  1  0  0  0  0
M  CHG  1  75   1
M  ISO  4  39 100  63 101  71 100  83 101
M  END
> <Batch ID>
0166

> <Smiles>
CNC(C)C(=O)NC(C(=O)N1Cc2cc([101O:1][101CH:1](C)CCNC(=O)c3ccc([100NH:0][100C:0](=O)N4CCCC(n5nc(-c6ccc(Oc7ccc(F)cc7F)cc6)c(C(N)=O)c5N)C4)cc3C)ccc2CC1C(=O)NC1CCCc2ccccc21)C(C)(C)C

> <Shape>
0.217

> <Color>
0.063

> <Negative vol penalty>
0.000

$$$$

  -OEChem-04052304083D

 90 98  0     1  0  0  0  0  0999 V2000
  -23.1470   -8.0757   22.2511 C   0  0  0  0  0  0  0  0  0  0  0  0
  -24.0792   -9.0994   22.3872 C   0  0  0  0  0  0  0  0  0  0  0  0
  -24.2164  -17.1298   17.5646 C   0  0  0  0  0  0  0  0  0  0  0  0
  -24.2116  -29.4132   20.9235 C   0  0  0  0  0  0  0  0  0  0  0  0
  -24.2542  -27.6964   22.6228 C   0  0  0  0  0  0  0  0  0  0  0  0
  -25.5361  -16.8932   17.9491 C   0  0  0  0  0  0  0  0  0  0  0  0
  -21.9630   -8.3012   21.5503 C   0  0  0  0  0  0  0  0  0  0  0  0
  -23.8283  -10.3490   21.8215 C   0  0  0  0  0  0  0  0  0  0  0  0
  -25.4673  -15.8044   24.0706 C   0  0  0  0  0  0  0  0  0  0  0  0
  -23.7586  -18.4385   17.4114 C   0  0  0  0  0  0  0  0  0  0  0  0
  -23.9309  -30.3708   21.8979 C   0  0  0  0  0  0  0  0  0  0  0  0
  -23.9735  -28.6540   23.5973 C   0  0  0  0  0  0  0  0  0  0  0  0
  -26.5338  -16.6552   23.7836 C   0  0  0  0  0  0  0  0  0  0  0  0
  -23.5600  -33.3236   23.9858 C   0  0  0  0  0  0  0  0  0  0  0  0
  -24.2682  -34.5243   23.9380 C   0  0  0  0  0  0  0  0  0  0  0  0
  -25.1243  -17.9037   22.2757 C   0  0  0  0  0  0  0  0  0  0  0  0
  -26.3416  -33.3117   24.1980 C   0  0  0  0  0  0  0  0  0  0  0  0
  -24.3732  -28.0759   21.2859 C   0  0  0  0  0  0  0  0  0  0  0  0
  -26.3980  -17.9652   18.1805 C   0  0  0  0  0  0  0  0  0  0  0  0
  -25.9325  -26.6747   19.8323 C   0  0  0  0  0  0  0  0  0  0  0  0
  -21.6932   -9.5570   20.9839 C   0  0  0  0  0  0  0  0  0  0  0  0
  -24.2222  -15.9905   23.4529 C   0  0  0  0  0  0  0  0  0  0  0  0
  -22.6402  -10.5911   21.1112 C   0  0  0  0  0  0  0  0  0  0  0  0
  -24.0428  -17.0554   22.5585 C   0  0  0  0  0  0  0  0  0  0  0  0
  -24.6205  -19.5105   17.6428 C   0  0  0  0  0  0  0  0  0  0  0  0
  -23.8118  -29.9913   23.2349 C   0  0  0  0  0  0  0  0  0  0  0  0
  -26.3632  -17.7033   22.8839 C   0  0  0  0  0  0  0  0  0  0  0  0
  -24.2426  -32.1169   24.1397 C   0  0  0  0  0  0  0  0  0  0  0  0
  -25.6590  -34.5184   24.0441 C   0  0  0  0  0  0  0  0  0  0  0  0
  -25.6334  -32.1110   24.2458 C   0  0  0  0  0  0  0  0  0  0  0  0
  -25.9402  -19.2739   18.0273 C   0  0  0  0  0  0  0  0  0  0  0  0
  -24.6627  -27.0861   20.2796 C   0  0  0  0  0  0  0  0  0  0  0  0
  -25.6686  -25.7225   18.8782 C   0  0  0  0  0  0  0  0  0  0  0  0
  -27.7951  -17.7110   18.5869 C   0  0  0  0  0  0  0  0  0  0  0  0
  -27.2342  -27.1138   20.2427 C   0  0  0  0  0  0  0  0  0  0  0  0
  -22.4019  -14.2571   21.5073 C   0  0  0  0  0  0  0  0  0  0  0  0
  -29.4487  -20.2227   21.7161 C   0  0  0  0  0  0  0  0  0  0  0  0
  -20.2826  -16.6676   21.9768 C   0  0  0  0  0  0  0  0  0  0  0  0
  -19.7471  -19.9330   22.8116 C   0  0  0  0  0  0  0  0  0  0  0  0
  -29.5309  -18.0688   20.3333 C   0  0  0  0  0  0  0  0  0  0  0  0
  -22.8727  -21.2444   17.1085 C   0  0  0  0  0  0  0  0  0  0  0  0
  -20.4208   -9.7393   20.1949 C   0  0  0  0  0  0  0  0  0  0  0  0
  -23.0743  -15.0802   23.7934 C   0  0  0  0  0  0  0  0  0  0  0  0
  -22.7205  -17.3104   21.8841 C   0  0  0  0  0  0  0  0  0  0  0  0
  -20.0625  -11.2022   19.9463 C   0  0  0  0  0  0  0  0  0  0  0  0
  -21.3185  -24.4141   16.6454 C   0  0  0  0  0  0  0  0  0  0  0  0
  -21.2868  -11.9783   19.4712 C   0  0  0  0  0  0  0  0  0  0  0  0
  -22.1544  -25.3580   17.5128 C   0  0  0  0  0  0  0  0  0  0  0  0
  -21.1631  -23.0385   17.2914 C   0  0  0  0  0  0  0  0  0  0  0  0
  -23.2572  -23.3366   18.5544 C   0  0  0  0  0  0  0  0  0  0  0  0
  -22.3930  -11.9676   20.5331 C   0  0  1  0  0  0  0  0  0  0  0  0
  -21.9946  -15.0514   22.7160 C   0  0  1  0  0  0  0  0  0  0  0  0
  -23.4958  -24.7141   17.9149 C   0  0  2  0  0  0  0  0  0  0  0  0
  -29.2522  -22.4356   22.9171 C   0  0  0  0  0  0  0  0  0  0  0  0
  -17.9117  -21.6246   23.0707 C   0  0  0  0  0  0  0  0  0  0  0  0
  -31.1225  -18.4563   22.2253 C   0  0  0  0  0  0  0  0  0  0  0  0
  -20.0990  -16.9295   18.9424 C   0  0  0  0  0  0  0  0  0  0  0  0
  -19.0424  -19.1755   19.2700 C   0  0  0  0  0  0  0  0  0  0  0  0
  -17.9130  -17.1288   20.1408 C   0  0  0  0  0  0  0  0  0  0  0  0
  -20.3545  -20.3240   25.6817 C   0  0  0  0  0  0  0  0  0  0  0  0
  -29.5215  -20.9474   23.0557 C   0  0  0  0  0  0  0  0  0  0  0  0
  -28.7163  -17.9812   22.6797 C   0  0  0  0  0  0  0  0  0  1  0  0
  -19.9927  -17.9838   21.2968 C   0  0  1  0  0  0  0  0  0  0  0  0
  -18.7650  -20.5792   23.7720 C   0  0  2  0  0  0  0  0  0  0  0  0
  -29.6893  -18.6973   21.7189 C   0  0  1  0  0  0  0  0  0  0  0  0
  -19.2874  -17.7987   19.9236 C   0  0  0  0  0  0  0  0  0  0  0  0
  -23.6661  -26.4478   19.6604 N   0  0  0  0  0  0  0  0  0  0  0  0
  -24.3097  -25.6256   18.8142 N   0  0  0  0  0  0  0  0  0  0  0  0
  -21.6303  -16.3891   22.2449 N   0  0  0  0  0  0  0  0  0  0  0  0
  -22.4746  -22.4887   17.6414 N   0  0  0  0  0  0  0  0  0  0  0  0
  -26.4688  -24.9672   18.0961 N   0  0  0  0  0  0  0  0  0  0  0  0
  -27.3248  -28.0994   21.2351 N   0  0  0  0  0  0  0  0  0  0  0  0
  -24.1526  -20.8387   17.4854 N   0  0  0  0  0  0  0  0  0  0  0  0
  -28.2065  -18.2009   19.7639 N   0  0  0  0  0  0  0  0  0  0  0  0
  -22.0914  -12.9129   21.5866 N   0  0  0  0  0  0  0  0  0  0  0  0
  -19.2343  -18.7802   22.2555 N   0  0  0  0  0  0  0  0  0  0  0  0
  -28.5652  -17.0081   17.7573 N   0  3  0  0  0  0  0  0  0  0  0  0
  -19.4938  -21.2409   24.8909 N   0  3  0  0  0  0  0  0  0  0  0  0
  -28.2856  -26.6578   19.7325 O   0  0  0  0  0  0  0  0  0  0  0  0
  -22.9554  -14.8222   20.5714 O   0  0  0  0  0  0  0  0  0  0  0  0
  -29.1612  -20.8302   20.6830 O   0  0  0  0  0  0  0  0  0  0  0  0
  -19.3471  -15.9174   22.2661 O   0  0  0  0  0  0  0  0  0  0  0  0
  -20.8568  -20.4058   22.5754 O   0  0  0  0  0  0  0  0  0  0  0  0
  -30.4132  -17.4638   19.7388 O   0  0  0  0  0  0  0  0  0  0  0  0
  -22.1435  -20.6000   16.3502 O   0  0  0  0  0  0  0  0  0  0  0  0
  -23.5381  -30.9256   24.1861 O   0  0  0  0  0  0  0  0  0  0  0  0
  -27.4095  -18.5403   22.5997 O   0  0  0  0  0  0  0  0  0  1  0  0
  -26.3390  -35.6714   23.9967 F   0  0  0  0  0  0  0  0  0  0  0  0
  -26.2948  -30.9547   24.3926 F   0  0  0  0  0  0  0  0  0  0  0  0
  -26.7707  -20.3039   18.2500 F   0  0  0  0  0  0  0  0  0  0  0  0
  1  2  1  0  0  0  0
  1  7  2  0  0  0  0
  2  8  2  0  0  0  0
  3  6  2  0  0  0  0
  3 10  1  0  0  0  0
  4 11  2  0  0  0  0
  4 18  1  0  0  0  0
  5 12  1  0  0  0  0
  5 18  2  0  0  0  0
  6 19  1  0  0  0  0
  7 21  1  0  0  0  0
  8 23  1  0  0  0  0
  9 13  2  0  0  0  0
  9 22  1  0  0  0  0
 10 25  2  0  0  0  0
 11 26  1  0  0  0  0
 12 26  2  0  0  0  0
 13 27  1  0  0  0  0
 14 15  2  0  0  0  0
 14 28  1  0  0  0  0
 15 29  1  0  0  0  0
 16 24  1  0  0  0  0
 16 27  2  0  0  0  0
 17 29  2  0  0  0  0
 17 30  1  0  0  0  0
 18 32  1  0  0  0  0
 19 31  2  0  0  0  0
 19 34  1  0  0  0  0
 20 32  1  0  0  0  0
 20 33  2  0  0  0  0
 20 35  1  0  0  0  0
 21 23  2  0  0  0  0
 21 42  1  0  0  0  0
 22 24  2  0  0  0  0
 22 43  1  0  0  0  0
 23 51  1  0  0  0  0
 24 44  1  0  0  0  0
 25 31  1  0  0  0  0
 25 73  1  0  0  0  0
 26 86  1  0  0  0  0
 27 87  1  0  0  0  0
 28 30  2  0  0  0  0
 28 86  1  0  0  0  0
 29 88  1  0  0  0  0
 30 89  1  0  0  0  0
 31 90  1  0  0  0  0
 32 67  2  0  0  0  0
 33 68  1  0  0  0  0
 33 71  1  0  0  0  0
 34 74  1  0  0  0  0
 34 77  2  0  0  0  0
 35 72  1  0  0  0  0
 35 79  2  0  0  0  0
 36 52  1  0  0  0  0
 36 75  1  0  0  0  0
 36 80  2  0  0  0  0
 37 61  1  0  0  0  0
 37 65  1  0  0  0  0
 37 81  2  0  0  0  0
 38 63  1  0  0  0  0
 38 69  1  0  0  0  0
 38 82  2  0  0  0  0
 39 64  1  0  0  0  0
 39 76  1  0  0  0  0
 39 83  2  0  0  0  0
 40 65  1  0  0  0  0
 40 74  1  0  0  0  0
 40 84  2  0  0  0  0
 41 70  1  0  0  0  0
 41 73  1  0  0  0  0
 41 85  2  0  0  0  0
 42 45  1  0  0  0  0
 43 52  1  0  0  0  0
 44 69  1  0  0  0  0
 45 47  1  0  0  0  0
 46 48  1  0  0  0  0
 46 49  1  0  0  0  0
 47 51  1  0  0  0  0
 48 53  1  0  0  0  0
 49 70  1  0  0  0  0
 50 53  1  0  0  0  0
 50 70  1  0  0  0  0
 51 75  1  0  0  0  0
 52 69  1  0  0  0  0
 53 68  1  0  0  0  0
 54 61  1  0  0  0  0
 55 64  1  0  0  0  0
 56 65  1  0  0  0  0
 57 66  1  0  0  0  0
 58 66  1  0  0  0  0
 59 66  1  0  0  0  0
 60 78  1  0  0  0  0
 62 65  1  0  0  0  0
 62 87  1  0  0  0  0
 63 66  1  0  0  0  0
 63 76  1  0  0  0  0
 64 78  1  0  0  0  0
 67 68  1  0  0  0  0
M  CHG  2  77   1  78   1
M  ISO  4  41 100  62 101  73 100  87 101
M  END
> <Batch ID>
0166

> <Smiles>
CCC(=O)C(C)(C(=O)NC(=N)c1cccc([100NH:0][100C:0](=O)N2CCCC(n3nc(-c4ccc(Oc5ccc(F)cc5F)cc4)c(C(N)=O)c3N)C2)c1F)[101CH2:1][101O:1]c1ccc2c(c1)CN(C(=O)C(NC(=O)C(C)NC)C(C)(C)C)C(C(=O)NC1CCCc3ccccc31)C2

> <Shape>
0.193

> <Color>
0.086

> <Negative vol penalty>
0.000

$$$$

  -OEChem-04052304083D

 82 90  0     1  0  0  0  0  0999 V2000
  -27.2497  -12.4108   17.1589 C   0  0  0  0  0  0  0  0  0  0  0  0
  -26.6855  -13.6651   16.9491 C   0  0  0  0  0  0  0  0  0  0  0  0
  -30.3667  -20.8068   21.4798 C   0  0  0  0  0  0  0  0  0  0  0  0
  -28.8238  -20.5526   19.6381 C   0  0  0  0  0  0  0  0  0  0  0  0
  -26.9748  -11.7117   18.3334 C   0  0  0  0  0  0  0  0  0  0  0  0
  -25.8452  -14.2205   17.9134 C   0  0  0  0  0  0  0  0  0  0  0  0
  -25.3262  -20.1457   19.3721 C   0  0  0  0  0  0  0  0  0  0  0  0
  -30.8655  -19.5267   21.2388 C   0  0  0  0  0  0  0  0  0  0  0  0
  -29.3226  -19.2725   19.3970 C   0  0  0  0  0  0  0  0  0  0  0  0
  -24.4075  -21.1263   19.0002 C   0  0  0  0  0  0  0  0  0  0  0  0
  -29.9436  -16.3359   21.8658 C   0  0  0  0  0  0  0  0  0  0  0  0
  -30.1367  -15.4988   22.9646 C   0  0  0  0  0  0  0  0  0  0  0  0
  -18.2682  -27.2493   21.8481 C   0  0  0  0  0  0  0  0  0  0  0  0
  -23.1527  -20.7070   21.0173 C   0  0  0  0  0  0  0  0  0  0  0  0
  -32.4893  -15.3474   22.4359 C   0  0  0  0  0  0  0  0  0  0  0  0
  -17.8540  -28.0506   22.8892 C   0  0  0  0  0  0  0  0  0  0  0  0
  -29.3458  -21.3198   20.6796 C   0  0  0  0  0  0  0  0  0  0  0  0
  -29.2899  -23.8520   20.3757 C   0  0  0  0  0  0  0  0  0  0  0  0
  -26.1385  -12.2630   19.3169 C   0  0  0  0  0  0  0  0  0  0  0  0
  -25.1588  -19.4296   20.5661 C   0  0  0  0  0  0  0  0  0  0  0  0
  -25.5578  -13.5275   19.1016 C   0  0  0  0  0  0  0  0  0  0  0  0
  -24.0720  -19.7196   21.4033 C   0  0  0  0  0  0  0  0  0  0  0  0
  -19.6865  -27.2378   21.7129 C   0  0  0  0  0  0  0  0  0  0  0  0
  -30.3435  -18.7596   20.1973 C   0  0  0  0  0  0  0  0  0  0  0  0
  -23.3190  -21.4050   19.8215 C   0  0  0  0  0  0  0  0  0  0  0  0
  -31.0233  -16.6787   21.0518 C   0  0  0  0  0  0  0  0  0  0  0  0
  -31.4096  -15.0046   23.2497 C   0  0  0  0  0  0  0  0  0  0  0  0
  -32.2961  -16.1845   21.3369 C   0  0  0  0  0  0  0  0  0  0  0  0
  -28.8298  -22.6418   20.9285 C   0  0  0  0  0  0  0  0  0  0  0  0
  -20.3025  -28.0312   22.6559 C   0  0  0  0  0  0  0  0  0  0  0  0
  -28.4752  -24.8119   20.9246 C   0  0  0  0  0  0  0  0  0  0  0  0
  -20.6872  -25.2978   21.0596 C   0  0  0  0  0  0  0  0  0  0  0  0
  -30.3582  -24.0874   19.4488 C   0  0  0  0  0  0  0  0  0  0  0  0
  -21.4088  -24.4534   20.0602 C   0  0  0  0  0  0  0  0  0  0  0  0
  -24.7067  -16.3707   21.3026 C   0  0  0  0  0  0  0  0  0  0  0  0
  -25.0141  -17.4606   24.3423 C   0  0  0  0  0  0  0  0  0  0  0  0
  -24.7881  -20.0806   26.5175 C   0  0  0  0  0  0  0  0  0  0  0  0
  -23.4856  -26.6196   22.2598 C   0  0  0  0  0  0  0  0  0  0  0  0
  -25.8328  -11.4491   20.5494 C   0  0  0  0  0  0  0  0  0  0  0  0
  -26.1732  -18.3936   20.9660 C   0  0  0  0  0  0  0  0  0  0  0  0
  -23.8581  -18.9934   22.7054 C   0  0  0  0  0  0  0  0  0  0  0  0
  -25.2313  -12.2697   21.6874 C   0  0  0  0  0  0  0  0  0  0  0  0
  -25.1303  -24.5232   24.7087 C   0  0  0  0  0  0  0  0  0  0  0  0
  -24.1200  -13.1741   21.1641 C   0  0  0  0  0  0  0  0  0  0  0  0
  -26.2846  -23.9451   23.8880 C   0  0  0  0  0  0  0  0  0  0  0  0
  -23.8644  -24.6534   23.8670 C   0  0  0  0  0  0  0  0  0  0  0  0
  -25.1858  -24.8764   21.7987 C   0  0  0  0  0  0  0  0  0  0  0  0
  -24.6611  -14.1740   20.1351 C   0  0  1  0  0  0  0  0  0  0  0  0
  -25.6231  -17.3684   21.9528 C   0  0  1  0  0  0  0  0  0  0  0  0
  -26.5011  -24.7410   22.5873 C   0  0  2  0  0  0  0  0  0  0  0  0
  -24.9967  -21.3360   28.6804 C   0  0  0  0  0  0  0  0  0  0  0  0
  -22.3477  -16.1131   24.9622 C   0  0  0  0  0  0  0  0  0  0  0  0
  -22.2180  -17.4875   27.0508 C   0  0  0  0  0  0  0  0  0  0  0  0
  -24.0836  -15.8601   26.7446 C   0  0  0  0  0  0  0  0  0  0  0  0
  -27.5651  -20.9020   25.9072 C   0  0  0  0  0  0  0  0  0  0  0  0
  -21.7467  -28.2871   22.8538 C   0  0  0  0  0  0  0  0  0  0  0  0
  -21.7608  -23.0632   20.5134 C   0  0  0  0  0  0  0  0  0  1  0  0
  -24.0648  -17.9936   25.3881 C   0  0  1  0  0  0  0  0  0  0  0  0
  -25.7408  -20.5892   27.5843 C   0  0  2  0  0  0  0  0  0  0  0  0
  -23.1812  -16.8761   26.0110 C   0  0  0  0  0  0  0  0  0  0  0  0
  -27.8026  -22.8145   21.7645 N   0  0  0  0  0  0  0  0  0  0  0  0
  -20.3596  -26.4977   20.7264 N   0  0  0  0  0  0  0  0  0  0  0  0
  -27.6105  -24.1444   21.7412 N   0  0  0  0  0  0  0  0  0  0  0  0
  -24.8739  -17.9848   23.0495 N   0  0  0  0  0  0  0  0  0  0  0  0
  -24.1340  -25.4372   22.6533 N   0  0  0  0  0  0  0  0  0  0  0  0
  -28.4213  -26.1534   20.7836 N   0  0  0  0  0  0  0  0  0  0  0  0
  -31.0944  -22.9887   18.9848 N   0  0  0  0  0  0  0  0  0  0  0  0
  -25.3530  -15.2580   20.7990 N   0  0  0  0  0  0  0  0  0  0  0  0
  -24.8855  -18.7149   26.3549 N   0  0  0  0  0  0  0  0  0  0  0  0
  -22.4972  -27.0803   23.1210 N   0  0  0  0  0  0  0  0  0  0  0  0
  -26.7447  -21.5130   26.9845 N   0  3  0  0  0  0  0  0  0  0  0  0
  -30.6618  -25.2396   19.0568 O   0  0  0  0  0  0  0  0  0  0  0  0
  -21.6467  -24.9330   18.9629 O   0  0  0  0  0  0  0  0  0  0  0  0
  -23.5024  -16.5933   21.2623 O   0  0  0  0  0  0  0  0  0  0  0  0
  -25.8540  -16.6158   24.6624 O   0  0  0  0  0  0  0  0  0  0  0  0
  -24.0304  -20.8204   25.8937 O   0  0  0  0  0  0  0  0  0  0  0  0
  -23.7702  -27.2237   21.2200 O   0  0  0  0  0  0  0  0  0  0  0  0
  -30.8301  -17.5105   19.9617 O   0  0  0  0  0  0  0  0  0  0  0  0
  -22.4204  -22.3612   19.4605 O   0  0  0  0  0  0  0  0  0  1  0  0
  -31.5951  -14.2021   24.3060 F   0  0  0  0  0  0  0  0  0  0  0  0
  -33.3375  -16.5113   20.5593 F   0  0  0  0  0  0  0  0  0  0  0  0
  -19.1724  -28.7850   23.6985 S   0  0  0  0  0  0  0  0  0  0  0  0
  1  2  1  0  0  0  0
  1  5  2  0  0  0  0
  2  6  2  0  0  0  0
  3  8  2  0  0  0  0
  3 17  1  0  0  0  0
  4  9  1  0  0  0  0
  4 17  2  0  0  0  0
  5 19  1  0  0  0  0
  6 21  1  0  0  0  0
  7 10  2  0  0  0  0
  7 20  1  0  0  0  0
  8 24  1  0  0  0  0
  9 24  2  0  0  0  0
 10 25  1  0  0  0  0
 11 12  2  0  0  0  0
 11 26  1  0  0  0  0
 12 27  1  0  0  0  0
 13 16  2  0  0  0  0
 13 23  1  0  0  0  0
 14 22  1  0  0  0  0
 14 25  2  0  0  0  0
 15 27  2  0  0  0  0
 15 28  1  0  0  0  0
 16 82  1  0  0  0  0
 17 29  1  0  0  0  0
 18 29  1  0  0  0  0
 18 31  2  0  0  0  0
 18 33  1  0  0  0  0
 19 21  2  0  0  0  0
 19 39  1  0  0  0  0
 20 22  2  0  0  0  0
 20 40  1  0  0  0  0
 21 48  1  0  0  0  0
 22 41  1  0  0  0  0
 23 30  2  0  0  0  0
 23 62  1  0  0  0  0
 24 78  1  0  0  0  0
 25 79  1  0  0  0  0
 26 28  2  0  0  0  0
 26 78  1  0  0  0  0
 27 80  1  0  0  0  0
 28 81  1  0  0  0  0
 29 61  2  0  0  0  0
 30 56  1  0  0  0  0
 30 82  1  0  0  0  0
 31 63  1  0  0  0  0
 31 66  1  0  0  0  0
 32 34  1  0  0  0  0
 32 62  2  0  0  0  0
 33 67  1  0  0  0  0
 33 72  2  0  0  0  0
 34 57  1  0  0  0  0
 34 73  2  0  0  0  0
 35 49  1  0  0  0  0
 35 68  1  0  0  0  0
 35 74  2  0  0  0  0
 36 58  1  0  0  0  0
 36 64  1  0  0  0  0
 36 75  2  0  0  0  0
 37 59  1  0  0  0  0
 37 69  1  0  0  0  0
 37 76  2  0  0  0  0
 38 65  1  0  0  0  0
 38 70  1  0  0  0  0
 38 77  2  0  0  0  0
 39 42  1  0  0  0  0
 40 49  1  0  0  0  0
 41 64  1  0  0  0  0
 42 44  1  0  0  0  0
 43 45  1  0  0  0  0
 43 46  1  0  0  0  0
 44 48  1  0  0  0  0
 45 50  1  0  0  0  0
 46 65  1  0  0  0  0
 47 50  1  0  0  0  0
 47 65  1  0  0  0  0
 48 68  1  0  0  0  0
 49 64  1  0  0  0  0
 50 63  1  0  0  0  0
 51 59  1  0  0  0  0
 52 60  1  0  0  0  0
 53 60  1  0  0  0  0
 54 60  1  0  0  0  0
 55 71  1  0  0  0  0
 56 70  1  0  0  0  0
 57 79  1  0  0  0  0
 58 60  1  0  0  0  0
 58 69  1  0  0  0  0
 59 71  1  0  0  0  0
 61 63  1  0  0  0  0
M  CHG  1  71   1
M  ISO  4  38 100  57 101  70 100  79 101
M  END
> <Batch ID>
0166

> <Smiles>
CNC(C)C(=O)NC(C(=O)N1Cc2cc([101O:1][101CH2:1]C(=O)CNc3ccsc3C=[100N:0][100C:0](=O)N3CCCC(n4nc(-c5ccc(Oc6ccc(F)cc6F)cc5)c(C(N)=O)c4N)C3)ccc2CC1C(=O)NC1CCCc2ccccc21)C(C)(C)C

> <Shape>
0.181

> <Color>
0.090

> <Negative vol penalty>
0.000

$$$$

  -OEChem-04052304083D

 84 92  0     1  0  0  0  0  0999 V2000
  -23.9703   -8.0431   22.0592 C   0  0  0  0  0  0  0  0  0  0  0  0
  -24.6496   -9.1355   21.5296 C   0  0  0  0  0  0  0  0  0  0  0  0
  -20.3605  -28.4188   23.6895 C   0  0  0  0  0  0  0  0  0  0  0  0
  -19.8670  -26.7601   22.0036 C   0  0  0  0  0  0  0  0  0  0  0  0
  -22.5790   -8.0648   22.1475 C   0  0  0  0  0  0  0  0  0  0  0  0
  -23.9378  -10.2499   21.0869 C   0  0  0  0  0  0  0  0  0  0  0  0
  -26.0051  -14.6107   22.6214 C   0  0  0  0  0  0  0  0  0  0  0  0
  -19.0074  -28.7499   23.7599 C   0  0  0  0  0  0  0  0  0  0  0  0
  -18.5138  -27.0912   22.0740 C   0  0  0  0  0  0  0  0  0  0  0  0
  -27.1279  -15.0616   21.9287 C   0  0  0  0  0  0  0  0  0  0  0  0
  -16.7938  -30.5747   21.9726 C   0  0  0  0  0  0  0  0  0  0  0  0
  -16.4587  -31.9286   21.9896 C   0  0  0  0  0  0  0  0  0  0  0  0
  -25.7376  -16.5877   20.6807 C   0  0  0  0  0  0  0  0  0  0  0  0
  -15.3949  -31.6382   24.1393 C   0  0  0  0  0  0  0  0  0  0  0  0
  -28.6683  -22.9642   19.8012 C   0  0  0  0  0  0  0  0  0  0  0  0
  -20.7903  -27.4239   22.8113 C   0  0  0  0  0  0  0  0  0  0  0  0
  -22.8662  -26.1088   23.4962 C   0  0  0  0  0  0  0  0  0  0  0  0
  -21.8505   -9.1839   21.7146 C   0  0  0  0  0  0  0  0  0  0  0  0
  -24.7364  -15.1381   22.3409 C   0  0  0  0  0  0  0  0  0  0  0  0
  -22.5354  -10.2861   21.1683 C   0  0  0  0  0  0  0  0  0  0  0  0
  -24.6007  -16.1436   21.3731 C   0  0  0  0  0  0  0  0  0  0  0  0
  -18.0840  -28.0861   22.9522 C   0  0  0  0  0  0  0  0  0  0  0  0
  -26.9938  -16.0482   20.9561 C   0  0  0  0  0  0  0  0  0  0  0  0
  -16.4294  -29.7525   23.0388 C   0  0  0  0  0  0  0  0  0  0  0  0
  -15.7593  -32.4603   23.0730 C   0  0  0  0  0  0  0  0  0  0  0  0
  -15.7300  -30.2843   24.1222 C   0  0  0  0  0  0  0  0  0  0  0  0
  -22.1881  -27.0818   22.7377 C   0  0  0  0  0  0  0  0  0  0  0  0
  -29.6816  -22.0436   19.6284 C   0  0  0  0  0  0  0  0  0  0  0  0
  -28.8933  -24.2099   19.2518 C   0  0  0  0  0  0  0  0  0  0  0  0
  -24.1647  -26.1716   23.0530 C   0  0  0  0  0  0  0  0  0  0  0  0
  -30.9303  -23.5579   18.4818 C   0  0  0  0  0  0  0  0  0  0  0  0
  -29.6035  -19.7920   19.2870 C   0  0  0  0  0  0  0  0  0  0  0  0
  -22.3670  -25.2271   24.5105 C   0  0  0  0  0  0  0  0  0  0  0  0
  -29.4707  -18.3848   19.7716 C   0  0  0  0  0  0  0  0  0  0  0  0
  -22.0002  -13.9411   21.2527 C   0  0  0  0  0  0  0  0  0  0  0  0
  -20.8923  -16.9217   21.8939 C   0  0  0  0  0  0  0  0  0  0  0  0
  -21.5777  -20.2374   22.3222 C   0  0  0  0  0  0  0  0  0  0  0  0
  -27.8945  -26.5004   18.9319 C   0  0  0  0  0  0  0  0  0  0  0  0
  -20.3446   -9.1420   21.7865 C   0  0  0  0  0  0  0  0  0  0  0  0
  -23.5391  -14.6600   23.1157 C   0  0  0  0  0  0  0  0  0  0  0  0
  -23.2638  -16.7568   21.0487 C   0  0  0  0  0  0  0  0  0  0  0  0
  -19.6894  -10.5131   21.6412 C   0  0  0  0  0  0  0  0  0  0  0  0
  -26.4695  -29.5558   20.0769 C   0  0  0  0  0  0  0  0  0  0  0  0
  -20.3039  -11.2772   20.4727 C   0  0  0  0  0  0  0  0  0  0  0  0
  -25.2844  -29.1045   20.9336 C   0  0  0  0  0  0  0  0  0  0  0  0
  -26.6622  -28.6570   18.8568 C   0  0  0  0  0  0  0  0  0  0  0  0
  -25.5744  -26.7705   20.0088 C   0  0  0  0  0  0  0  0  0  0  0  0
  -21.8003  -11.5233   20.7003 C   0  0  1  0  0  0  0  0  0  0  0  0
  -22.2207  -14.9013   22.3872 C   0  0  1  0  0  0  0  0  0  0  0  0
  -25.3805  -27.6067   21.2843 C   0  0  2  0  0  0  0  0  0  0  0  0
  -31.9892  -23.8955   16.2343 C   0  0  0  0  0  0  0  0  0  0  0  0
  -20.4619  -22.4339   22.7991 C   0  0  0  0  0  0  0  0  0  0  0  0
  -19.8759  -17.0267   19.0189 C   0  0  0  0  0  0  0  0  0  0  0  0
  -19.6458  -19.5077   19.2646 C   0  0  0  0  0  0  0  0  0  0  0  0
  -18.3071  -17.9829   20.7156 C   0  0  0  0  0  0  0  0  0  0  0  0
  -23.1136  -20.6063   24.8250 C   0  0  0  0  0  0  0  0  0  0  0  0
  -32.1859  -23.8871   17.7481 C   0  0  0  0  0  0  0  0  0  0  0  0
  -28.0689  -17.8426   19.8245 C   0  0  0  0  0  0  0  0  0  1  0  0
  -20.7919  -18.2142   21.1205 C   0  0  1  0  0  0  0  0  0  0  0  0
  -21.1577  -21.2219   23.3987 C   0  0  2  0  0  0  0  0  0  0  0  0
  -19.6802  -18.1702   20.0344 C   0  0  0  0  0  0  0  0  0  0  0  0
  -22.9896  -27.7164   21.8781 N   0  0  0  0  0  0  0  0  0  0  0  0
  -30.8302  -22.3075   18.9716 N   0  0  0  0  0  0  0  0  0  0  0  0
  -30.0171  -24.5425   18.5832 N   0  0  0  0  0  0  0  0  0  0  0  0
  -29.5533  -20.7456   20.1509 N   0  0  0  0  0  0  0  0  0  0  0  0
  -24.1847  -27.1409   22.0937 N   0  0  0  0  0  0  0  0  0  0  0  0
  -22.1222  -16.2515   21.8290 N   0  0  0  0  0  0  0  0  0  0  0  0
  -26.7492  -27.2535   19.2663 N   0  0  0  0  0  0  0  0  0  0  0  0
  -25.2800  -25.4918   23.3943 N   0  0  0  0  0  0  0  0  0  0  0  0
  -21.0073  -25.2939   24.8438 N   0  0  0  0  0  0  0  0  0  0  0  0
  -27.8791  -25.1878   19.4025 N   0  0  0  0  0  0  0  0  0  0  0  0
  -21.9972  -12.6125   21.6327 N   0  0  0  0  0  0  0  0  0  0  0  0
  -20.6174  -19.2705   22.1117 N   0  0  0  0  0  0  0  0  0  0  0  0
  -22.3475  -21.6931   24.1624 N   0  3  0  0  0  0  0  0  0  0  0  0
  -23.1081  -24.4156   25.1153 O   0  0  0  0  0  0  0  0  0  0  0  0
  -30.4871  -17.7789   20.0720 O   0  0  0  0  0  0  0  0  0  0  0  0
  -21.8429  -14.3736   20.1170 O   0  0  0  0  0  0  0  0  0  0  0  0
  -19.9179  -16.5250   22.5379 O   0  0  0  0  0  0  0  0  0  0  0  0
  -22.6487  -20.3201   21.7251 O   0  0  0  0  0  0  0  0  0  0  0  0
  -28.8329  -26.9923   18.2998 O   0  0  0  0  0  0  0  0  0  0  0  0
  -16.7635  -28.4088   23.0208 O   0  0  0  0  0  0  0  0  0  0  0  0
  -28.0880  -16.4897   20.2780 O   0  0  0  0  0  0  0  0  0  1  0  0
  -15.4389  -33.7608   23.0899 F   0  0  0  0  0  0  0  0  0  0  0  0
  -15.3782  -29.4996   25.1500 F   0  0  0  0  0  0  0  0  0  0  0  0
  1  2  1  0  0  0  0
  1  5  2  0  0  0  0
  2  6  2  0  0  0  0
  3  8  2  0  0  0  0
  3 16  1  0  0  0  0
  4  9  1  0  0  0  0
  4 16  2  0  0  0  0
  5 18  1  0  0  0  0
  6 20  1  0  0  0  0
  7 10  2  0  0  0  0
  7 19  1  0  0  0  0
  8 22  1  0  0  0  0
  9 22  2  0  0  0  0
 10 23  1  0  0  0  0
 11 12  2  0  0  0  0
 11 24  1  0  0  0  0
 12 25  1  0  0  0  0
 13 21  1  0  0  0  0
 13 23  2  0  0  0  0
 14 25  2  0  0  0  0
 14 26  1  0  0  0  0
 15 28  1  0  0  0  0
 15 29  2  0  0  0  0
 16 27  1  0  0  0  0
 17 27  1  0  0  0  0
 17 30  2  0  0  0  0
 17 33  1  0  0  0  0
 18 20  2  0  0  0  0
 18 39  1  0  0  0  0
 19 21  2  0  0  0  0
 19 40  1  0  0  0  0
 20 48  1  0  0  0  0
 21 41  1  0  0  0  0
 22 81  1  0  0  0  0
 23 82  1  0  0  0  0
 24 26  2  0  0  0  0
 24 81  1  0  0  0  0
 25 83  1  0  0  0  0
 26 84  1  0  0  0  0
 27 62  2  0  0  0  0
 28 63  2  0  0  0  0
 28 65  1  0  0  0  0
 29 64  1  0  0  0  0
 29 71  1  0  0  0  0
 30 66  1  0  0  0  0
 30 69  1  0  0  0  0
 31 57  1  0  0  0  0
 31 63  1  0  0  0  0
 31 64  2  0  0  0  0
 32 34  1  0  0  0  0
 32 65  2  0  0  0  0
 33 70  1  0  0  0  0
 33 75  2  0  0  0  0
 34 58  1  0  0  0  0
 34 76  2  0  0  0  0
 35 49  1  0  0  0  0
 35 72  1  0  0  0  0
 35 77  2  0  0  0  0
 36 59  1  0  0  0  0
 36 67  1  0  0  0  0
 36 78  2  0  0  0  0
 37 60  1  0  0  0  0
 37 73  1  0  0  0  0
 37 79  2  0  0  0  0
 38 68  1  0  0  0  0
 38 71  1  0  0  0  0
 38 80  2  0  0  0  0
 39 42  1  0  0  0  0
 40 49  1  0  0  0  0
 41 67  1  0  0  0  0
 42 44  1  0  0  0  0
 43 45  1  0  0  0  0
 43 46  1  0  0  0  0
 44 48  1  0  0  0  0
 45 50  1  0  0  0  0
 46 68  1  0  0  0  0
 47 50  1  0  0  0  0
 47 68  1  0  0  0  0
 48 72  1  0  0  0  0
 49 67  1  0  0  0  0
 50 66  1  0  0  0  0
 51 57  1  0  0  0  0
 52 60  1  0  0  0  0
 53 61  1  0  0  0  0
 54 61  1  0  0  0  0
 55 61  1  0  0  0  0
 56 74  1  0  0  0  0
 58 82  1  0  0  0  0
 59 61  1  0  0  0  0
 59 73  1  0  0  0  0
 60 74  1  0  0  0  0
 62 66  1  0  0  0  0
M  CHG  1  74   1
M  ISO  4  38 100  58 101  71 100  82 101
M  END
> <Batch ID>
0166

> <Smiles>
C=Cc1nc(NCC(=O)[101CH2:1][101O:1]c2ccc3c(c2)CN(C(=O)C(NC(=O)C(C)NC)C(C)(C)C)C(C(=O)NC2CCCc4ccccc42)C3)cc([100NH:0][100C:0](=O)N2CCCC(n3nc(-c4ccc(Oc5ccc(F)cc5F)cc4)c(C(N)=O)c3N)C2)n1

> <Shape>
0.229

> <Color>
0.117

> <Negative vol penalty>
0.000

$$$$

  -OEChem-04052304083D

 89 97  0     1  0  0  0  0  0999 V2000
  -34.0585  -26.6622   17.8347 C   0  0  0  0  0  0  0  0  0  0  0  0
  -33.0673  -25.9407   18.4922 C   0  0  0  0  0  0  0  0  0  0  0  0
  -24.5516   -8.6896   21.4612 C   0  0  0  0  0  0  0  0  0  0  0  0
  -23.6491  -10.5839   22.6587 C   0  0  0  0  0  0  0  0  0  0  0  0
  -34.3474  -27.9676   18.2303 C   0  0  0  0  0  0  0  0  0  0  0  0
  -32.3650  -26.5237   19.5464 C   0  0  0  0  0  0  0  0  0  0  0  0
  -27.3788  -25.6876   19.2571 C   0  0  0  0  0  0  0  0  0  0  0  0
  -24.0648   -7.8333   22.4488 C   0  0  0  0  0  0  0  0  0  0  0  0
  -23.1622   -9.7276   23.6463 C   0  0  0  0  0  0  0  0  0  0  0  0
  -26.9195  -24.4327   19.6547 C   0  0  0  0  0  0  0  0  0  0  0  0
  -21.1010   -6.4503   23.3067 C   0  0  0  0  0  0  0  0  0  0  0  0
  -20.4486   -5.2887   22.8936 C   0  0  0  0  0  0  0  0  0  0  0  0
  -26.2672  -25.3537   21.7867 C   0  0  0  0  0  0  0  0  0  0  0  0
  -28.9373  -19.1766   24.2916 C   0  0  0  0  0  0  0  0  0  0  0  0
  -27.5694  -17.7050   22.9499 C   0  0  0  0  0  0  0  0  0  0  0  0
  -29.9758  -17.6382   22.7450 C   0  0  0  0  0  0  0  0  0  0  0  0
  -22.0910   -3.9523   24.0571 C   0  0  0  0  0  0  0  0  0  0  0  0
  -24.3438  -10.0649   21.5661 C   0  0  0  0  0  0  0  0  0  0  0  0
  -24.1797  -11.3696   19.3802 C   0  0  0  0  0  0  0  0  0  0  0  0
  -33.6417  -28.5703   19.2836 C   0  0  0  0  0  0  0  0  0  0  0  0
  -27.2956  -26.7845   20.1268 C   0  0  0  0  0  0  0  0  0  0  0  0
  -32.6457  -27.8379   19.9573 C   0  0  0  0  0  0  0  0  0  0  0  0
  -26.7238  -26.6220   21.3968 C   0  0  0  0  0  0  0  0  0  0  0  0
  -27.6792  -18.7083   23.9127 C   0  0  0  0  0  0  0  0  0  0  0  0
  -30.0856  -18.6415   23.7077 C   0  0  0  0  0  0  0  0  0  0  0  0
  -28.7177  -17.1699   22.3660 C   0  0  0  0  0  0  0  0  0  0  0  0
  -23.3701   -8.3523   23.5413 C   0  0  0  0  0  0  0  0  0  0  0  0
  -26.3663  -24.2650   20.9207 C   0  0  0  0  0  0  0  0  0  0  0  0
  -22.2485   -6.3629   24.0950 C   0  0  0  0  0  0  0  0  0  0  0  0
  -20.9436   -4.0398   23.2687 C   0  0  0  0  0  0  0  0  0  0  0  0
  -22.7435   -5.1139   24.4702 C   0  0  0  0  0  0  0  0  0  0  0  0
  -24.8470  -10.9500   20.5466 C   0  0  0  0  0  0  0  0  0  0  0  0
  -25.0771  -12.1967   18.7499 C   0  0  0  0  0  0  0  0  0  0  0  0
  -22.8661  -11.0413   18.9086 C   0  0  0  0  0  0  0  0  0  0  0  0
  -33.7295  -19.4278   24.2462 C   0  0  0  0  0  0  0  0  0  0  0  0
  -32.5818  -18.6998   23.6060 C   0  0  0  0  0  0  0  0  0  0  0  0
  -29.4069  -28.7241   21.4993 C   0  0  0  0  0  0  0  0  0  0  0  0
  -26.1987  -21.2554   22.9245 C   0  0  0  0  0  0  0  0  0  0  0  0
  -26.7426  -30.2873   22.4895 C   0  0  0  0  0  0  0  0  0  0  0  0
  -23.4064  -30.1646   23.1975 C   0  0  0  0  0  0  0  0  0  0  0  0
  -29.6447  -15.5135   20.7097 C   0  0  0  0  0  0  0  0  0  0  0  0
  -34.0218  -29.9673   19.7064 C   0  0  0  0  0  0  0  0  0  0  0  0
  -27.7711  -28.1373   19.6729 C   0  0  0  0  0  0  0  0  0  0  0  0
  -26.5930  -27.7720   22.3605 C   0  0  0  0  0  0  0  0  0  0  0  0
  -32.9746  -30.6431   20.5877 C   0  0  0  0  0  0  0  0  0  0  0  0
  -29.7833  -12.9348   18.2585 C   0  0  0  0  0  0  0  0  0  0  0  0
  -32.5068  -29.6927   21.6853 C   0  0  0  0  0  0  0  0  0  0  0  0
  -28.4696  -12.1751   18.4569 C   0  0  0  0  0  0  0  0  0  0  0  0
  -30.3652  -13.4176   19.5859 C   0  0  0  0  0  0  0  0  0  0  0  0
  -28.1292  -13.4373   20.6198 C   0  0  0  0  0  0  0  0  0  0  0  0
  -31.8450  -28.4445   21.0892 C   0  0  1  0  0  0  0  0  0  0  0  0
  -28.1070  -29.0721   20.8309 C   0  0  1  0  0  0  0  0  0  0  0  0
  -27.4714  -12.9874   19.3050 C   0  0  2  0  0  0  0  0  0  0  0  0
  -33.7584  -20.9197   24.1034 C   0  0  0  0  0  0  0  0  0  0  0  0
  -21.5140  -31.5910   24.0231 C   0  0  0  0  0  0  0  0  0  0  0  0
  -27.8273  -30.0759   25.3336 C   0  0  0  0  0  0  0  0  0  0  0  0
  -25.5355  -30.6313   26.1745 C   0  0  0  0  0  0  0  0  0  0  0  0
  -26.7824  -32.2787   24.7766 C   0  0  0  0  0  0  0  0  0  0  0  0
  -21.8834  -29.8011   20.6861 C   0  0  0  0  0  0  0  0  0  0  0  0
  -26.2999  -20.8113   24.3777 C   0  0  0  0  0  0  0  0  0  0  0  0
  -25.9832  -22.7399   22.7049 C   0  0  0  0  0  0  0  0  0  1  0  0
  -26.4326  -19.2906   24.5460 C   0  0  2  0  0  0  0  0  0  0  0  0
  -25.8367  -30.1989   23.6939 C   0  0  1  0  0  0  0  0  0  0  0  0
  -22.2584  -31.0754   22.8013 C   0  0  2  0  0  0  0  0  0  0  0  0
  -26.4996  -30.7739   24.9775 C   0  0  0  0  0  0  0  0  0  0  0  0
  -26.0737  -11.4676   20.6533 N   0  0  0  0  0  0  0  0  0  0  0  0
  -26.1843  -12.2209   19.5459 N   0  0  0  0  0  0  0  0  0  0  0  0
  -27.0781  -29.0736   21.8727 N   0  0  0  0  0  0  0  0  0  0  0  0
  -29.3647  -14.1830   20.3329 N   0  0  0  0  0  0  0  0  0  0  0  0
  -25.0192  -12.8982   17.5980 N   0  0  0  0  0  0  0  0  0  0  0  0
  -22.0763  -10.1770   19.6791 N   0  0  0  0  0  0  0  0  0  0  0  0
  -31.3438  -19.1104   24.0870 N   0  0  0  0  0  0  0  0  0  0  0  0
  -28.6061  -16.1517   21.3870 N   0  0  0  0  0  0  0  0  0  0  0  0
  -30.4986  -28.7460   20.6525 N   0  0  0  0  0  0  0  0  0  0  0  0
  -24.5915  -30.8591   23.3174 N   0  0  0  0  0  0  0  0  0  0  0  0
  -26.3656  -18.9898   26.0129 N   0  3  0  0  0  0  0  0  0  0  0  0
  -21.2910  -30.3431   21.9360 N   0  3  0  0  0  0  0  0  0  0  0  0
  -22.4126  -11.4877   17.8276 O   0  0  0  0  0  0  0  0  0  0  0  0
  -34.5703  -18.7641   24.8341 O   0  0  0  0  0  0  0  0  0  0  0  0
  -32.8663  -17.8810   22.7475 O   0  0  0  0  0  0  0  0  0  0  0  0
  -29.4188  -28.4571   22.6953 O   0  0  0  0  0  0  0  0  0  0  0  0
  -26.2532  -20.4643   21.9843 O   0  0  0  0  0  0  0  0  0  0  0  0
  -27.1322  -31.3929   22.1057 O   0  0  0  0  0  0  0  0  0  0  0  0
  -23.2651  -28.9583   23.3857 O   0  0  0  0  0  0  0  0  0  0  0  0
  -30.7158  -16.0564   20.4268 O   0  0  0  0  0  0  0  0  0  0  0  0
  -22.8946   -7.5170   24.5051 O   0  0  0  0  0  0  0  0  0  0  0  0
  -25.9178  -23.0411   21.3116 O   0  0  0  0  0  0  0  0  0  1  0  0
  -20.3160   -2.9244   22.8732 F   0  0  0  0  0  0  0  0  0  0  0  0
  -23.8447   -5.0237   25.2284 F   0  0  0  0  0  0  0  0  0  0  0  0
  1  2  1  0  0  0  0
  1  5  2  0  0  0  0
  2  6  2  0  0  0  0
  3  8  2  0  0  0  0
  3 18  1  0  0  0  0
  4  9  1  0  0  0  0
  4 18  2  0  0  0  0
  5 20  1  0  0  0  0
  6 22  1  0  0  0  0
  7 10  2  0  0  0  0
  7 21  1  0  0  0  0
  8 27  1  0  0  0  0
  9 27  2  0  0  0  0
 10 28  1  0  0  0  0
 11 12  2  0  0  0  0
 11 29  1  0  0  0  0
 12 30  1  0  0  0  0
 13 23  1  0  0  0  0
 13 28  2  0  0  0  0
 14 24  1  0  0  0  0
 14 25  2  0  0  0  0
 15 24  2  0  0  0  0
 15 26  1  0  0  0  0
 16 25  1  0  0  0  0
 16 26  2  0  0  0  0
 17 30  2  0  0  0  0
 17 31  1  0  0  0  0
 18 32  1  0  0  0  0
 19 32  1  0  0  0  0
 19 33  2  0  0  0  0
 19 34  1  0  0  0  0
 20 22  2  0  0  0  0
 20 42  1  0  0  0  0
 21 23  2  0  0  0  0
 21 43  1  0  0  0  0
 22 51  1  0  0  0  0
 23 44  1  0  0  0  0
 24 62  1  0  0  0  0
 25 72  1  0  0  0  0
 26 73  1  0  0  0  0
 27 86  1  0  0  0  0
 28 87  1  0  0  0  0
 29 31  2  0  0  0  0
 29 86  1  0  0  0  0
 30 88  1  0  0  0  0
 31 89  1  0  0  0  0
 32 66  2  0  0  0  0
 33 67  1  0  0  0  0
 33 70  1  0  0  0  0
 34 71  1  0  0  0  0
 34 78  2  0  0  0  0
 35 36  1  0  0  0  0
 35 54  1  0  0  0  0
 35 79  2  0  0  0  0
 36 72  1  0  0  0  0
 36 80  2  0  0  0  0
 37 52  1  0  0  0  0
 37 74  1  0  0  0  0
 37 81  2  0  0  0  0
 38 60  1  0  0  0  0
 38 61  1  0  0  0  0
 38 82  2  0  0  0  0
 39 63  1  0  0  0  0
 39 68  1  0  0  0  0
 39 83  2  0  0  0  0
 40 64  1  0  0  0  0
 40 75  1  0  0  0  0
 40 84  2  0  0  0  0
 41 69  1  0  0  0  0
 41 73  1  0  0  0  0
 41 85  2  0  0  0  0
 42 45  1  0  0  0  0
 43 52  1  0  0  0  0
 44 68  1  0  0  0  0
 45 47  1  0  0  0  0
 46 48  1  0  0  0  0
 46 49  1  0  0  0  0
 47 51  1  0  0  0  0
 48 53  1  0  0  0  0
 49 69  1  0  0  0  0
 50 53  1  0  0  0  0
 50 69  1  0  0  0  0
 51 74  1  0  0  0  0
 52 68  1  0  0  0  0
 53 67  1  0  0  0  0
 55 64  1  0  0  0  0
 56 65  1  0  0  0  0
 57 65  1  0  0  0  0
 58 65  1  0  0  0  0
 59 77  1  0  0  0  0
 60 62  1  0  0  0  0
 61 87  1  0  0  0  0
 62 76  1  0  0  0  0
 63 65  1  0  0  0  0
 63 75  1  0  0  0  0
 64 77  1  0  0  0  0
 66 67  1  0  0  0  0
M  CHG  2  76   1  77   1
M  ISO  4  41 100  61 101  73 100  87 101
M  END
> <Batch ID>
0166

> <Smiles>
CNC(C)C(=O)NC(C(=O)N1Cc2cc([101O:1][101CH2:1]C(=O)CC(N)c3cc(NC(=O)C(C)=O)cc([100NH:0][100C:0](=O)N4CCCC(n5nc(-c6ccc(Oc7ccc(F)cc7F)cc6)c(C(N)=O)c5N)C4)c3)ccc2CC1C(=O)NC1CCCc2ccccc21)C(C)(C)C

> <Shape>
0.244

> <Color>
0.095

> <Negative vol penalty>
0.000

$$$$

  -OEChem-04052304083D

 85 93  0     1  0  0  0  0  0999 V2000
  -16.6517  -29.4266   24.1182 C   0  0  0  0  0  0  0  0  0  0  0  0
  -17.7522  -29.7236   24.9158 C   0  0  0  0  0  0  0  0  0  0  0  0
  -24.4131  -15.5582   20.3238 C   0  0  0  0  0  0  0  0  0  0  0  0
  -25.4665  -15.3914   22.4917 C   0  0  0  0  0  0  0  0  0  0  0  0
  -16.8229  -28.7090   22.9352 C   0  0  0  0  0  0  0  0  0  0  0  0
  -19.0245  -29.3020   24.5314 C   0  0  0  0  0  0  0  0  0  0  0  0
  -24.3119  -32.2565   25.4373 C   0  0  0  0  0  0  0  0  0  0  0  0
  -24.7395  -14.2274   20.0629 C   0  0  0  0  0  0  0  0  0  0  0  0
  -25.7929  -14.0606   22.2308 C   0  0  0  0  0  0  0  0  0  0  0  0
  -25.3102  -32.1188   26.4007 C   0  0  0  0  0  0  0  0  0  0  0  0
  -24.9785  -10.7681   18.9716 C   0  0  0  0  0  0  0  0  0  0  0  0
  -23.9912   -9.9555   18.4145 C   0  0  0  0  0  0  0  0  0  0  0  0
  -26.5635  -30.7140   24.8923 C   0  0  0  0  0  0  0  0  0  0  0  0
  -24.7229  -24.1898   26.6458 C   0  0  0  0  0  0  0  0  0  0  0  0
  -22.5805  -10.3525   20.3353 C   0  0  0  0  0  0  0  0  0  0  0  0
  -26.6520  -25.3874   25.9381 C   0  0  0  0  0  0  0  0  0  0  0  0
  -24.7767  -16.1402   21.5382 C   0  0  0  0  0  0  0  0  0  0  0  0
  -23.2666  -17.9995   22.4160 C   0  0  0  0  0  0  0  0  0  0  0  0
  -18.0993  -28.2867   22.5312 C   0  0  0  0  0  0  0  0  0  0  0  0
  -24.4269  -31.6141   24.1961 C   0  0  0  0  0  0  0  0  0  0  0  0
  -19.2128  -28.5768   23.3425 C   0  0  0  0  0  0  0  0  0  0  0  0
  -25.5664  -30.8473   23.9140 C   0  0  0  0  0  0  0  0  0  0  0  0
  -25.6815  -24.4358   25.6691 C   0  0  0  0  0  0  0  0  0  0  0  0
  -25.4293  -13.4786   21.0163 C   0  0  0  0  0  0  0  0  0  0  0  0
  -26.4349  -31.3451   26.1293 C   0  0  0  0  0  0  0  0  0  0  0  0
  -24.7669  -11.3728   20.2107 C   0  0  0  0  0  0  0  0  0  0  0  0
  -22.7922   -9.7477   19.0963 C   0  0  0  0  0  0  0  0  0  0  0  0
  -24.7636  -24.8930   27.8446 C   0  0  0  0  0  0  0  0  0  0  0  0
  -23.5679  -11.1651   20.8924 C   0  0  0  0  0  0  0  0  0  0  0  0
  -24.4404  -17.5150   21.8082 C   0  0  0  0  0  0  0  0  0  0  0  0
  -25.7754  -25.8239   28.0163 C   0  0  0  0  0  0  0  0  0  0  0  0
  -23.4310  -19.3629   22.4420 C   0  0  0  0  0  0  0  0  0  0  0  0
  -22.1295  -17.2813   22.9128 C   0  0  0  0  0  0  0  0  0  0  0  0
  -22.7483  -29.3999   22.6524 C   0  0  0  0  0  0  0  0  0  0  0  0
  -26.4363  -28.8313   28.8810 C   0  0  0  0  0  0  0  0  0  0  0  0
  -24.8182  -30.0662   20.2454 C   0  0  0  0  0  0  0  0  0  0  0  0
  -27.8699  -31.2639   19.2968 C   0  0  0  0  0  0  0  0  0  0  0  0
  -26.5569  -23.8753   23.3744 C   0  0  0  0  0  0  0  0  0  0  0  0
  -18.2286  -27.4727   21.2681 C   0  0  0  0  0  0  0  0  0  0  0  0
  -23.3538  -31.7944   23.1577 C   0  0  0  0  0  0  0  0  0  0  0  0
  -25.7473  -30.1535   22.5894 C   0  0  0  0  0  0  0  0  0  0  0  0
  -19.6593  -27.3867   20.7427 C   0  0  0  0  0  0  0  0  0  0  0  0
  -26.8791  -22.3084   20.1935 C   0  0  0  0  0  0  0  0  0  0  0  0
  -20.6257  -27.0599   21.8767 C   0  0  0  0  0  0  0  0  0  0  0  0
  -26.1768  -20.9615   20.3800 C   0  0  0  0  0  0  0  0  0  0  0  0
  -27.6368  -22.7318   21.4506 C   0  0  0  0  0  0  0  0  0  0  0  0
  -26.1379  -21.3881   22.8707 C   0  0  0  0  0  0  0  0  0  0  0  0
  -20.6122  -28.1583   22.9467 C   0  0  1  0  0  0  0  0  0  0  0  0
  -23.3334  -30.6770   22.1193 C   0  0  1  0  0  0  0  0  0  0  0  0
  -25.3077  -20.9506   21.6529 C   0  0  2  0  0  0  0  0  0  0  0  0
  -29.2906  -31.6470   17.2640 C   0  0  0  0  0  0  0  0  0  0  0  0
  -27.7054  -32.4764   29.0588 C   0  0  0  0  0  0  0  0  0  0  0  0
  -25.4319  -27.0802   20.1144 C   0  0  0  0  0  0  0  0  0  0  0  0
  -27.4812  -27.6305   18.7857 C   0  0  0  0  0  0  0  0  0  0  0  0
  -25.2246  -28.2012   17.8885 C   0  0  0  0  0  0  0  0  0  0  0  0
  -27.9695  -34.1830   19.7739 C   0  0  0  0  0  0  0  0  0  0  0  0
  -27.4013  -29.9798   29.1498 C   0  0  0  0  0  0  0  0  0  0  0  0
  -26.7931  -27.5154   29.5423 C   0  0  0  0  0  0  0  0  0  0  0  0
  -26.1659  -29.5376   19.8172 C   0  0  1  0  0  0  0  0  0  0  0  0
  -28.2728  -32.2528   18.2179 C   0  0  2  0  0  0  0  0  0  0  0  0
  -27.0094  -31.2743   28.4360 C   0  0  2  0  0  0  0  0  0  1  0  0
  -26.0719  -28.1237   19.1772 C   0  0  0  0  0  0  0  0  0  0  0  0
  -26.7239  -26.0903   27.0906 N   0  0  0  0  0  0  0  0  0  0  0  0
  -25.2877  -18.4913   21.4721 N   0  0  0  0  0  0  0  0  0  0  0  0
  -24.6457  -19.6028   21.8701 N   0  0  0  0  0  0  0  0  0  0  0  0
  -24.6676  -30.3552   21.6090 N   0  0  0  0  0  0  0  0  0  0  0  0
  -26.7493  -22.7018   22.6151 N   0  0  0  0  0  0  0  0  0  0  0  0
  -22.6534  -20.3678   22.8979 N   0  0  0  0  0  0  0  0  0  0  0  0
  -22.1236  -15.8837   22.8073 N   0  0  0  0  0  0  0  0  0  0  0  0
  -25.6663  -23.7343   24.4381 N   0  0  0  0  0  0  0  0  0  0  0  0
  -25.8053  -26.5186   29.2170 N   0  0  0  0  0  0  0  0  0  0  0  0
  -21.3777  -29.3041   22.5045 N   0  0  0  0  0  0  0  0  0  0  0  0
  -26.7432  -30.5523   18.9423 N   0  0  0  0  0  0  0  0  0  0  0  0
  -28.8709  -33.4726   18.8306 N   0  3  0  0  0  0  0  0  0  0  0  0
  -21.1405  -17.8628   23.4199 O   0  0  0  0  0  0  0  0  0  0  0  0
  -23.4859  -28.5626   23.1589 O   0  0  0  0  0  0  0  0  0  0  0  0
  -25.4383  -28.9649   28.1742 O   0  0  0  0  0  0  0  0  0  0  0  0
  -23.9340  -30.2239   19.3998 O   0  0  0  0  0  0  0  0  0  0  0  0
  -28.4944  -31.1328   20.3472 O   0  0  0  0  0  0  0  0  0  0  0  0
  -27.1183  -24.9350   23.0847 O   0  0  0  0  0  0  0  0  0  0  0  0
  -25.7478  -12.1799   20.7621 O   0  0  0  0  0  0  0  0  0  0  0  0
  -27.4105  -31.2084   27.0681 O   0  0  0  0  0  0  0  0  0  1  0  0
  -21.8435   -8.9686   18.5604 F   0  0  0  0  0  0  0  0  0  0  0  0
  -23.8472  -24.6664   28.7944 F   0  0  0  0  0  0  0  0  0  0  0  0
  -23.3583  -11.7444   22.0826 F   0  0  0  0  0  0  0  0  0  0  0  0
  1  2  1  0  0  0  0
  1  5  2  0  0  0  0
  2  6  2  0  0  0  0
  3  8  2  0  0  0  0
  3 17  1  0  0  0  0
  4  9  1  0  0  0  0
  4 17  2  0  0  0  0
  5 19  1  0  0  0  0
  6 21  1  0  0  0  0
  7 10  2  0  0  0  0
  7 20  1  0  0  0  0
  8 24  1  0  0  0  0
  9 24  2  0  0  0  0
 10 25  1  0  0  0  0
 11 12  2  0  0  0  0
 11 26  1  0  0  0  0
 12 27  1  0  0  0  0
 13 22  1  0  0  0  0
 13 25  2  0  0  0  0
 14 23  2  0  0  0  0
 14 28  1  0  0  0  0
 15 27  2  0  0  0  0
 15 29  1  0  0  0  0
 16 23  1  0  0  0  0
 16 63  2  0  0  0  0
 17 30  1  0  0  0  0
 18 30  1  0  0  0  0
 18 32  2  0  0  0  0
 18 33  1  0  0  0  0
 19 21  2  0  0  0  0
 19 39  1  0  0  0  0
 20 22  2  0  0  0  0
 20 40  1  0  0  0  0
 21 48  1  0  0  0  0
 22 41  1  0  0  0  0
 23 70  1  0  0  0  0
 24 81  1  0  0  0  0
 25 82  1  0  0  0  0
 26 29  2  0  0  0  0
 26 81  1  0  0  0  0
 27 83  1  0  0  0  0
 28 31  2  0  0  0  0
 28 84  1  0  0  0  0
 29 85  1  0  0  0  0
 30 64  2  0  0  0  0
 31 63  1  0  0  0  0
 31 71  1  0  0  0  0
 32 65  1  0  0  0  0
 32 68  1  0  0  0  0
 33 69  1  0  0  0  0
 33 75  2  0  0  0  0
 34 49  1  0  0  0  0
 34 72  1  0  0  0  0
 34 76  2  0  0  0  0
 35 57  1  0  0  0  0
 35 58  1  0  0  0  0
 35 77  2  0  0  0  0
 36 59  1  0  0  0  0
 36 66  1  0  0  0  0
 36 78  2  0  0  0  0
 37 60  1  0  0  0  0
 37 73  1  0  0  0  0
 37 79  2  0  0  0  0
 38 67  1  0  0  0  0
 38 70  1  0  0  0  0
 38 80  2  0  0  0  0
 39 42  1  0  0  0  0
 40 49  1  0  0  0  0
 41 66  1  0  0  0  0
 42 44  1  0  0  0  0
 43 45  1  0  0  0  0
 43 46  1  0  0  0  0
 44 48  1  0  0  0  0
 45 50  1  0  0  0  0
 46 67  1  0  0  0  0
 47 50  1  0  0  0  0
 47 67  1  0  0  0  0
 48 72  1  0  0  0  0
 49 66  1  0  0  0  0
 50 65  1  0  0  0  0
 51 60  1  0  0  0  0
 52 61  1  0  0  0  0
 53 62  1  0  0  0  0
 54 62  1  0  0  0  0
 55 62  1  0  0  0  0
 56 74  1  0  0  0  0
 57 61  1  0  0  0  0
 58 71  1  0  0  0  0
 59 62  1  0  0  0  0
 59 73  1  0  0  0  0
 60 74  1  0  0  0  0
 61 82  1  0  0  0  0
 64 65  1  0  0  0  0
M  CHG  1  74   1
M  ISO  4  38 100  61 101  70 100  82 101
M  END
> <Batch ID>
0166

> <Smiles>
CNC(C)C(=O)NC(C(=O)N1Cc2cc([101O:1][101CH:1](C)CC(=O)CNc3ncc([100NH:0][100C:0](=O)N4CCCC(n5nc(-c6ccc(Oc7ccc(F)cc7F)cc6)c(C(N)=O)c5N)C4)cc3F)ccc2CC1C(=O)NC1CCCc2ccccc21)C(C)(C)C

> <Shape>
0.219

> <Color>
0.080

> <Negative vol penalty>
0.000

$$$$

  -OEChem-04052304083D

 87 95  0     1  0  0  0  0  0999 V2000
  -17.5608  -32.0637   23.9120 C   0  0  0  0  0  0  0  0  0  0  0  0
  -18.7899  -32.0323   24.5630 C   0  0  0  0  0  0  0  0  0  0  0  0
  -25.0321  -14.7869   20.3485 C   0  0  0  0  0  0  0  0  0  0  0  0
  -27.1387  -14.5136   21.4994 C   0  0  0  0  0  0  0  0  0  0  0  0
  -17.2061  -31.0313   23.0446 C   0  0  0  0  0  0  0  0  0  0  0  0
  -19.6646  -30.9679   24.3477 C   0  0  0  0  0  0  0  0  0  0  0  0
  -25.7826  -31.2020   24.2036 C   0  0  0  0  0  0  0  0  0  0  0  0
  -24.9216  -13.4023   20.2219 C   0  0  0  0  0  0  0  0  0  0  0  0
  -27.0281  -13.1289   21.3730 C   0  0  0  0  0  0  0  0  0  0  0  0
  -26.7553  -30.9082   25.1582 C   0  0  0  0  0  0  0  0  0  0  0  0
  -23.9085   -9.9246   19.9147 C   0  0  0  0  0  0  0  0  0  0  0  0
  -22.6734   -9.3437   20.2020 C   0  0  0  0  0  0  0  0  0  0  0  0
  -26.9991  -28.6987   24.2212 C   0  0  0  0  0  0  0  0  0  0  0  0
  -31.9727  -23.5782   21.7002 C   0  0  0  0  0  0  0  0  0  0  0  0
  -32.3788  -24.9038   23.6788 C   0  0  0  0  0  0  0  0  0  0  0  0
  -22.7932  -10.2042   22.4564 C   0  0  0  0  0  0  0  0  0  0  0  0
  -26.1407  -15.3427   20.9872 C   0  0  0  0  0  0  0  0  0  0  0  0
  -25.7813  -17.5710   22.1759 C   0  0  0  0  0  0  0  0  0  0  0  0
  -18.0810  -29.9586   22.8111 C   0  0  0  0  0  0  0  0  0  0  0  0
  -25.4024  -30.2410   23.2557 C   0  0  0  0  0  0  0  0  0  0  0  0
  -19.3207  -29.9196   23.4773 C   0  0  0  0  0  0  0  0  0  0  0  0
  -26.0232  -28.9837   23.2539 C   0  0  0  0  0  0  0  0  0  0  0  0
  -30.1757  -24.0062   23.2572 C   0  0  0  0  0  0  0  0  0  0  0  0
  -30.6394  -23.4217   22.0786 C   0  0  0  0  0  0  0  0  0  0  0  0
  -31.0454  -24.7473   24.0573 C   0  0  0  0  0  0  0  0  0  0  0  0
  -25.9195  -12.5732   20.7342 C   0  0  0  0  0  0  0  0  0  0  0  0
  -27.3616  -29.6555   25.1690 C   0  0  0  0  0  0  0  0  0  0  0  0
  -24.5861  -10.6452   20.8982 C   0  0  0  0  0  0  0  0  0  0  0  0
  -22.1157   -9.4835   21.4729 C   0  0  0  0  0  0  0  0  0  0  0  0
  -32.8424  -24.3192   22.5003 C   0  0  0  0  0  0  0  0  0  0  0  0
  -24.0283  -10.7851   22.1691 C   0  0  0  0  0  0  0  0  0  0  0  0
  -26.2558  -16.7730   21.1176 C   0  0  0  0  0  0  0  0  0  0  0  0
  -26.1385  -18.8507   21.8278 C   0  0  0  0  0  0  0  0  0  0  0  0
  -25.0805  -17.1895   23.3671 C   0  0  0  0  0  0  0  0  0  0  0  0
  -30.6173  -26.5921   27.2640 C   0  0  0  0  0  0  0  0  0  0  0  0
  -29.9011  -27.9142   27.1601 C   0  0  0  0  0  0  0  0  0  0  0  0
  -22.6952  -28.7298   22.5552 C   0  0  0  0  0  0  0  0  0  0  0  0
  -24.4348  -27.5824   20.0693 C   0  0  0  0  0  0  0  0  0  0  0  0
  -27.5074  -26.8531   18.7756 C   0  0  0  0  0  0  0  0  0  0  0  0
  -29.8498  -22.5092   19.8672 C   0  0  0  0  0  0  0  0  0  0  0  0
  -17.6338  -28.8420   21.9012 C   0  0  0  0  0  0  0  0  0  0  0  0
  -24.3708  -30.5827   22.2158 C   0  0  0  0  0  0  0  0  0  0  0  0
  -25.6652  -27.9240   22.2453 C   0  0  0  0  0  0  0  0  0  0  0  0
  -18.7746  -27.9389   21.4394 C   0  0  0  0  0  0  0  0  0  0  0  0
  -27.9355  -20.6996   17.4719 C   0  0  0  0  0  0  0  0  0  0  0  0
  -19.6624  -27.5549   22.6188 C   0  0  0  0  0  0  0  0  0  0  0  0
  -27.2888  -19.5823   18.2939 C   0  0  0  0  0  0  0  0  0  0  0  0
  -29.3532  -21.0079   17.9503 C   0  0  0  0  0  0  0  0  0  0  0  0
  -28.8295  -20.1730   20.2082 C   0  0  0  0  0  0  0  0  0  0  0  0
  -20.3071  -28.7945   23.2506 C   0  0  1  0  0  0  0  0  0  0  0  0
  -23.6928  -29.3527   21.6201 C   0  0  1  0  0  0  0  0  0  0  0  0
  -27.3767  -19.8715   19.8053 C   0  0  2  0  0  0  0  0  0  0  0  0
  -28.5748  -22.8114   24.7724 C   0  0  0  0  0  0  0  0  0  0  0  0
  -28.6082  -25.8892   16.7368 C   0  0  0  0  0  0  0  0  0  0  0  0
  -23.6321  -24.7781   20.9646 C   0  0  0  0  0  0  0  0  0  0  0  0
  -25.4732  -23.8692   19.5320 C   0  0  0  0  0  0  0  0  0  0  0  0
  -23.5928  -25.1342   18.4895 C   0  0  0  0  0  0  0  0  0  0  0  0
  -28.9647  -29.3705   18.2300 C   0  0  0  0  0  0  0  0  0  0  0  0
  -28.7434  -23.8415   23.6617 C   0  0  0  0  0  0  0  0  0  0  0  0
  -31.4445  -26.1134   26.1067 C   0  0  0  0  0  0  0  0  0  0  0  0
  -28.8907  -28.0628   26.0530 C   0  0  0  0  0  0  0  0  0  1  0  0
  -25.3216  -26.3806   19.8496 C   0  0  1  0  0  0  0  0  0  0  0  0
  -28.1301  -27.1582   17.4252 C   0  0  2  0  0  0  0  0  0  0  0  0
  -24.5105  -25.0596   19.7293 C   0  0  0  0  0  0  0  0  0  0  0  0
  -26.8675  -17.4861   20.1683 N   0  0  0  0  0  0  0  0  0  0  0  0
  -30.4755  -25.9244   28.3604 N   0  0  0  0  0  0  0  0  0  0  0  0
  -26.7799  -18.7456   20.6287 N   0  0  0  0  0  0  0  0  0  0  0  0
  -24.6464  -28.3039   21.2527 N   0  0  0  0  0  0  0  0  0  0  0  0
  -29.3582  -21.2758   19.3902 N   0  0  0  0  0  0  0  0  0  0  0  0
  -25.9633  -20.0444   22.4334 N   0  0  0  0  0  0  0  0  0  0  0  0
  -24.7938  -15.8324   23.5680 N   0  0  0  0  0  0  0  0  0  0  0  0
  -29.7743  -22.6637   21.2510 N   0  0  0  0  0  0  0  0  0  0  0  0
  -30.6034  -25.3365   25.2336 N   0  0  0  0  0  0  0  0  0  0  0  0
  -21.4201  -29.2510   22.4461 N   0  0  0  0  0  0  0  0  0  0  0  0
  -26.1418  -26.6865   18.6825 N   0  0  0  0  0  0  0  0  0  0  0  0
  -29.2955  -28.0728   17.5869 N   0  3  0  0  0  0  0  0  0  0  0  0
  -24.7047  -18.0292   24.2199 O   0  0  0  0  0  0  0  0  0  0  0  0
  -30.1994  -28.7873   27.9625 O   0  0  0  0  0  0  0  0  0  0  0  0
  -23.0553  -27.8410   23.3181 O   0  0  0  0  0  0  0  0  0  0  0  0
  -23.5904  -27.8744   19.2188 O   0  0  0  0  0  0  0  0  0  0  0  0
  -28.1671  -26.7671   19.8091 O   0  0  0  0  0  0  0  0  0  0  0  0
  -30.2792  -23.3764   19.1019 O   0  0  0  0  0  0  0  0  0  0  0  0
  -25.8118  -11.2220   20.6112 O   0  0  0  0  0  0  0  0  0  0  0  0
  -28.3108  -29.3659   26.1001 O   0  0  0  0  0  0  0  0  0  1  0  0
  -20.9288   -8.9269   21.7482 F   0  0  0  0  0  0  0  0  0  0  0  0
  -34.1229  -24.4692   22.1365 F   0  0  0  0  0  0  0  0  0  0  0  0
  -24.6740  -11.4773   23.1177 F   0  0  0  0  0  0  0  0  0  0  0  0
  1  2  1  0  0  0  0
  1  5  2  0  0  0  0
  2  6  2  0  0  0  0
  3  8  2  0  0  0  0
  3 17  1  0  0  0  0
  4  9  1  0  0  0  0
  4 17  2  0  0  0  0
  5 19  1  0  0  0  0
  6 21  1  0  0  0  0
  7 10  2  0  0  0  0
  7 20  1  0  0  0  0
  8 26  1  0  0  0  0
  9 26  2  0  0  0  0
 10 27  1  0  0  0  0
 11 12  2  0  0  0  0
 11 28  1  0  0  0  0
 12 29  1  0  0  0  0
 13 22  1  0  0  0  0
 13 27  2  0  0  0  0
 14 24  1  0  0  0  0
 14 30  2  0  0  0  0
 15 25  2  0  0  0  0
 15 30  1  0  0  0  0
 16 29  2  0  0  0  0
 16 31  1  0  0  0  0
 17 32  1  0  0  0  0
 18 32  1  0  0  0  0
 18 33  2  0  0  0  0
 18 34  1  0  0  0  0
 19 21  2  0  0  0  0
 19 41  1  0  0  0  0
 20 22  2  0  0  0  0
 20 42  1  0  0  0  0
 21 50  1  0  0  0  0
 22 43  1  0  0  0  0
 23 24  2  0  0  0  0
 23 25  1  0  0  0  0
 23 59  1  0  0  0  0
 24 72  1  0  0  0  0
 25 73  1  0  0  0  0
 26 83  1  0  0  0  0
 27 84  1  0  0  0  0
 28 31  2  0  0  0  0
 28 83  1  0  0  0  0
 29 85  1  0  0  0  0
 30 86  1  0  0  0  0
 31 87  1  0  0  0  0
 32 65  2  0  0  0  0
 33 67  1  0  0  0  0
 33 70  1  0  0  0  0
 34 71  1  0  0  0  0
 34 77  2  0  0  0  0
 35 36  1  0  0  0  0
 35 60  1  0  0  0  0
 35 66  2  0  0  0  0
 36 61  1  0  0  0  0
 36 78  2  0  0  0  0
 37 51  1  0  0  0  0
 37 74  1  0  0  0  0
 37 79  2  0  0  0  0
 38 62  1  0  0  0  0
 38 68  1  0  0  0  0
 38 80  2  0  0  0  0
 39 63  1  0  0  0  0
 39 75  1  0  0  0  0
 39 81  2  0  0  0  0
 40 69  1  0  0  0  0
 40 72  1  0  0  0  0
 40 82  2  0  0  0  0
 41 44  1  0  0  0  0
 42 51  1  0  0  0  0
 43 68  1  0  0  0  0
 44 46  1  0  0  0  0
 45 47  1  0  0  0  0
 45 48  1  0  0  0  0
 46 50  1  0  0  0  0
 47 52  1  0  0  0  0
 48 69  1  0  0  0  0
 49 52  1  0  0  0  0
 49 69  1  0  0  0  0
 50 74  1  0  0  0  0
 51 68  1  0  0  0  0
 52 67  1  0  0  0  0
 53 59  1  0  0  0  0
 54 63  1  0  0  0  0
 55 64  1  0  0  0  0
 56 64  1  0  0  0  0
 57 64  1  0  0  0  0
 58 76  1  0  0  0  0
 60 73  1  0  0  0  0
 61 84  1  0  0  0  0
 62 64  1  0  0  0  0
 62 75  1  0  0  0  0
 63 76  1  0  0  0  0
 65 67  1  0  0  0  0
M  CHG  1  76   1
M  ISO  4  40 100  61 101  72 100  84 101
M  END
> <Batch ID>
0166

> <Smiles>
CCc1c(NCC(=N)C(=O)[101CH2:1][101O:1]c2ccc3c(c2)CN(C(=O)C(NC(=O)C(C)NC)C(C)(C)C)C(C(=O)NC2CCCc4ccccc42)C3)cc(F)cc1[100NH:0][100C:0](=O)N1CCCC(n2nc(-c3ccc(Oc4ccc(F)cc4F)cc3)c(C(N)=O)c2N)C1

> <Shape>
0.245

> <Color>
0.077

> <Negative vol penalty>
0.000

$$$$

  -OEChem-04052304083D

 86 94  0     1  0  0  0  0  0999 V2000
  -25.8347  -34.0864   27.1915 C   0  0  0  0  0  0  0  0  0  0  0  0
  -26.4987  -33.0694   26.5131 C   0  0  0  0  0  0  0  0  0  0  0  0
  -24.6324   -8.7686   21.5694 C   0  0  0  0  0  0  0  0  0  0  0  0
  -22.8887  -10.3866   21.1466 C   0  0  0  0  0  0  0  0  0  0  0  0
  -24.4420  -34.0859   27.2562 C   0  0  0  0  0  0  0  0  0  0  0  0
  -25.7702  -32.0507   25.8998 C   0  0  0  0  0  0  0  0  0  0  0  0
  -27.1712  -29.1427   20.6953 C   0  0  0  0  0  0  0  0  0  0  0  0
  -23.7960   -8.1009   22.4639 C   0  0  0  0  0  0  0  0  0  0  0  0
  -22.0523   -9.7189   22.0412 C   0  0  0  0  0  0  0  0  0  0  0  0
  -27.7843  -27.9165   20.4418 C   0  0  0  0  0  0  0  0  0  0  0  0
  -21.2037   -5.9356   22.3081 C   0  0  0  0  0  0  0  0  0  0  0  0
  -21.1417   -4.5448   22.2229 C   0  0  0  0  0  0  0  0  0  0  0  0
  -25.6152  -26.8842   20.2215 C   0  0  0  0  0  0  0  0  0  0  0  0
  -21.9305   -4.3700   24.4998 C   0  0  0  0  0  0  0  0  0  0  0  0
  -24.7105  -18.2872   19.4762 C   0  0  0  0  0  0  0  0  0  0  0  0
  -24.1788   -9.9114   20.9107 C   0  0  0  0  0  0  0  0  0  0  0  0
  -25.1645  -10.3722   18.6034 C   0  0  0  0  0  0  0  0  0  0  0  0
  -23.6957  -33.0720   26.6352 C   0  0  0  0  0  0  0  0  0  0  0  0
  -25.7731  -29.2467   20.7247 C   0  0  0  0  0  0  0  0  0  0  0  0
  -24.3663  -32.0359   25.9574 C   0  0  0  0  0  0  0  0  0  0  0  0
  -24.9868  -28.1134   20.4732 C   0  0  0  0  0  0  0  0  0  0  0  0
  -22.5060   -8.5761   22.6999 C   0  0  0  0  0  0  0  0  0  0  0  0
  -27.0064  -26.7864   20.2077 C   0  0  0  0  0  0  0  0  0  0  0  0
  -21.6292   -6.5437   23.4892 C   0  0  0  0  0  0  0  0  0  0  0  0
  -21.5050   -3.7620   23.3187 C   0  0  0  0  0  0  0  0  0  0  0  0
  -21.9925   -5.7609   24.5850 C   0  0  0  0  0  0  0  0  0  0  0  0
  -25.0425  -10.6019   19.9869 C   0  0  0  0  0  0  0  0  0  0  0  0
  -24.9553  -20.5448   19.2067 C   0  0  0  0  0  0  0  0  0  0  0  0
  -26.0567  -18.1733   19.7452 C   0  0  0  0  0  0  0  0  0  0  0  0
  -26.3014  -20.4311   19.4764 C   0  0  0  0  0  0  0  0  0  0  0  0
  -26.1070  -11.2801   18.1864 C   0  0  0  0  0  0  0  0  0  0  0  0
  -24.3153  -21.8164   18.9066 C   0  0  0  0  0  0  0  0  0  0  0  0
  -24.4865   -9.4230   17.7697 C   0  0  0  0  0  0  0  0  0  0  0  0
  -29.0047  -23.0462   19.5738 C   0  0  0  0  0  0  0  0  0  0  0  0
  -28.4706  -21.6493   19.7066 C   0  0  0  0  0  0  0  0  0  0  0  0
  -23.6294  -30.0496   22.9301 C   0  0  0  0  0  0  0  0  0  0  0  0
  -21.5583  -29.8084   20.4452 C   0  0  0  0  0  0  0  0  0  0  0  0
  -20.8525  -28.4845   17.3799 C   0  0  0  0  0  0  0  0  0  0  0  0
  -27.9085  -16.5640   20.3172 C   0  0  0  0  0  0  0  0  0  0  0  0
  -22.1939  -33.0882   26.7725 C   0  0  0  0  0  0  0  0  0  0  0  0
  -25.1271  -30.5821   20.9733 C   0  0  0  0  0  0  0  0  0  0  0  0
  -23.4820  -28.1762   20.4735 C   0  0  0  0  0  0  0  0  0  0  0  0
  -21.4813  -32.1760   25.7772 C   0  0  0  0  0  0  0  0  0  0  0  0
  -29.9356  -13.6913   19.7554 C   0  0  0  0  0  0  0  0  0  0  0  0
  -22.1556  -30.8086   25.7290 C   0  0  0  0  0  0  0  0  0  0  0  0
  -28.9217  -12.5531   19.6190 C   0  0  0  0  0  0  0  0  0  0  0  0
  -29.4996  -14.7172   20.7999 C   0  0  0  0  0  0  0  0  0  0  0  0
  -27.1320  -14.1172   20.4779 C   0  0  0  0  0  0  0  0  0  0  0  0
  -23.6102  -30.9270   25.2584 C   0  0  1  0  0  0  0  0  0  0  0  0
  -23.6957  -30.4669   21.4882 C   0  0  1  0  0  0  0  0  0  0  0  0
  -27.4961  -13.0927   19.3909 C   0  0  2  0  0  0  0  0  0  0  0  0
  -19.0668  -28.4393   15.6175 C   0  0  0  0  0  0  0  0  0  0  0  0
  -19.9134  -27.8982   22.1643 C   0  0  0  0  0  0  0  0  0  0  0  0
  -18.7201  -27.1681   20.0880 C   0  0  0  0  0  0  0  0  0  0  0  0
  -18.5640  -29.5397   20.8455 C   0  0  0  0  0  0  0  0  0  0  0  0
  -22.6555  -29.6762   15.3580 C   0  0  0  0  0  0  0  0  0  0  0  0
  -29.0442  -23.8733   20.8401 C   0  0  0  0  0  0  0  0  0  0  0  0
  -28.8755  -25.3595   20.5631 C   0  0  0  0  0  0  0  0  0  1  0  0
  -20.7292  -28.6969   19.8486 C   0  0  1  0  0  0  0  0  0  0  0  0
  -20.3366  -29.1214   16.1022 C   0  0  2  0  0  0  0  0  0  0  0  0
  -19.5100  -28.3238   20.7384 C   0  0  0  0  0  0  0  0  0  0  0  0
  -24.1357  -19.4750   19.2021 N   0  0  0  0  0  0  0  0  0  0  0  0
  -25.8435  -11.5790   20.4200 N   0  0  0  0  0  0  0  0  0  0  0  0
  -26.8763  -19.2432   19.7501 N   0  0  0  0  0  0  0  0  0  0  0  0
  -23.0466  -21.9365   18.6507 N   0  0  0  0  0  0  0  0  0  0  0  0
  -26.4780  -11.9713   19.3021 N   0  0  0  0  0  0  0  0  0  0  0  0
  -22.8973  -29.5032   20.7277 N   0  0  0  0  0  0  0  0  0  0  0  0
  -28.1415  -15.1869   20.5172 N   0  0  0  0  0  0  0  0  0  0  0  0
  -26.6463  -11.5467   16.9779 N   0  0  0  0  0  0  0  0  0  0  0  0
  -23.5484   -8.5653   18.3601 N   0  0  0  0  0  0  0  0  0  0  0  0
  -27.1147  -21.5882   19.4674 N   0  0  0  0  0  0  0  0  0  0  0  0
  -26.5844  -16.8880   20.0232 N   0  0  0  0  0  0  0  0  0  0  0  0
  -23.6642  -31.1037   23.8230 N   0  0  0  0  0  0  0  0  0  0  0  0
  -20.3752  -29.1298   18.5011 N   0  0  0  0  0  0  0  0  0  0  0  0
  -21.3621  -29.0257   15.0250 N   0  3  0  0  0  0  0  0  0  0  0  0
  -24.7179   -9.3270   16.5406 O   0  0  0  0  0  0  0  0  0  0  0  0
  -29.3740  -23.4010   18.4646 O   0  0  0  0  0  0  0  0  0  0  0  0
  -29.2812  -20.7776   19.9731 O   0  0  0  0  0  0  0  0  0  0  0  0
  -23.5510  -28.8596   23.2118 O   0  0  0  0  0  0  0  0  0  0  0  0
  -21.0391  -30.9091   20.6463 O   0  0  0  0  0  0  0  0  0  0  0  0
  -21.6009  -27.5096   17.3832 O   0  0  0  0  0  0  0  0  0  0  0  0
  -28.8217  -17.3916   20.3738 O   0  0  0  0  0  0  0  0  0  0  0  0
  -21.6894   -7.9247   23.5725 O   0  0  0  0  0  0  0  0  0  0  0  0
  -27.6023  -25.5882   19.9606 O   0  0  0  0  0  0  0  0  0  1  0  0
  -21.4440   -2.4264   23.2372 F   0  0  0  0  0  0  0  0  0  0  0  0
  -22.4010   -6.3394   25.7227 F   0  0  0  0  0  0  0  0  0  0  0  0
  1  2  1  0  0  0  0
  1  5  2  0  0  0  0
  2  6  2  0  0  0  0
  3  8  2  0  0  0  0
  3 16  1  0  0  0  0
  4  9  1  0  0  0  0
  4 16  2  0  0  0  0
  5 18  1  0  0  0  0
  6 20  1  0  0  0  0
  7 10  2  0  0  0  0
  7 19  1  0  0  0  0
  8 22  1  0  0  0  0
  9 22  2  0  0  0  0
 10 23  1  0  0  0  0
 11 12  2  0  0  0  0
 11 24  1  0  0  0  0
 12 25  1  0  0  0  0
 13 21  1  0  0  0  0
 13 23  2  0  0  0  0
 14 25  2  0  0  0  0
 14 26  1  0  0  0  0
 15 29  1  0  0  0  0
 15 62  2  0  0  0  0
 16 27  1  0  0  0  0
 17 27  1  0  0  0  0
 17 31  2  0  0  0  0
 17 33  1  0  0  0  0
 18 20  2  0  0  0  0
 18 40  1  0  0  0  0
 19 21  2  0  0  0  0
 19 41  1  0  0  0  0
 20 49  1  0  0  0  0
 21 42  1  0  0  0  0
 22 83  1  0  0  0  0
 23 84  1  0  0  0  0
 24 26  2  0  0  0  0
 24 83  1  0  0  0  0
 25 85  1  0  0  0  0
 26 86  1  0  0  0  0
 27 63  2  0  0  0  0
 28 30  2  0  0  0  0
 28 32  1  0  0  0  0
 28 62  1  0  0  0  0
 29 64  2  0  0  0  0
 29 72  1  0  0  0  0
 30 64  1  0  0  0  0
 30 71  1  0  0  0  0
 31 66  1  0  0  0  0
 31 69  1  0  0  0  0
 32 65  2  0  0  0  0
 33 70  1  0  0  0  0
 33 76  2  0  0  0  0
 34 35  1  0  0  0  0
 34 57  1  0  0  0  0
 34 77  2  0  0  0  0
 35 71  1  0  0  0  0
 35 78  2  0  0  0  0
 36 50  1  0  0  0  0
 36 73  1  0  0  0  0
 36 79  2  0  0  0  0
 37 59  1  0  0  0  0
 37 67  1  0  0  0  0
 37 80  2  0  0  0  0
 38 60  1  0  0  0  0
 38 74  1  0  0  0  0
 38 81  2  0  0  0  0
 39 68  1  0  0  0  0
 39 72  1  0  0  0  0
 39 82  2  0  0  0  0
 40 43  1  0  0  0  0
 41 50  1  0  0  0  0
 42 67  1  0  0  0  0
 43 45  1  0  0  0  0
 44 46  1  0  0  0  0
 44 47  1  0  0  0  0
 45 49  1  0  0  0  0
 46 51  1  0  0  0  0
 47 68  1  0  0  0  0
 48 51  1  0  0  0  0
 48 68  1  0  0  0  0
 49 73  1  0  0  0  0
 50 67  1  0  0  0  0
 51 66  1  0  0  0  0
 52 60  1  0  0  0  0
 53 61  1  0  0  0  0
 54 61  1  0  0  0  0
 55 61  1  0  0  0  0
 56 75  1  0  0  0  0
 57 58  1  0  0  0  0
 58 84  1  0  0  0  0
 59 61  1  0  0  0  0
 59 74  1  0  0  0  0
 60 75  1  0  0  0  0
 63 66  1  0  0  0  0
M  CHG  1  75   1
M  ISO  4  39 100  58 101  72 100  84 101
M  END
> <Batch ID>
0166

> <Smiles>
CNC(C)C(=O)NC(C(=O)N1Cc2cc([101O:1][101CH2:1]CC(=O)C(=O)Nc3nc([100NH:0][100C:0](=O)N4CCCC(n5nc(-c6ccc(Oc7ccc(F)cc7F)cc6)c(C(N)=O)c5N)C4)cnc3C=N)ccc2CC1C(=O)NC1CCCc2ccccc21)C(C)(C)C

> <Shape>
0.285

> <Color>
0.123

> <Negative vol penalty>
0.000

$$$$

  -OEChem-04052304083D

 88 96  0     1  0  0  0  0  0999 V2000
  -18.9629  -24.5904   22.9515 C   0  0  0  0  0  0  0  0  0  0  0  0
  -20.0368  -24.7119   22.0755 C   0  0  0  0  0  0  0  0  0  0  0  0
  -24.1932  -14.6559   18.7473 C   0  0  0  0  0  0  0  0  0  0  0  0
  -25.8450  -14.5884   16.9854 C   0  0  0  0  0  0  0  0  0  0  0  0
  -18.3105  -25.7320   23.4153 C   0  0  0  0  0  0  0  0  0  0  0  0
  -20.4584  -25.9751   21.6620 C   0  0  0  0  0  0  0  0  0  0  0  0
  -26.2043  -27.7350   20.4815 C   0  0  0  0  0  0  0  0  0  0  0  0
  -23.3074  -13.9375   17.9443 C   0  0  0  0  0  0  0  0  0  0  0  0
  -24.9592  -13.8699   16.1825 C   0  0  0  0  0  0  0  0  0  0  0  0
  -26.9198  -27.8652   19.2921 C   0  0  0  0  0  0  0  0  0  0  0  0
  -22.2654  -14.5196   14.2453 C   0  0  0  0  0  0  0  0  0  0  0  0
  -22.1357  -14.9107   12.9127 C   0  0  0  0  0  0  0  0  0  0  0  0
  -26.3806  -30.2157   19.2320 C   0  0  0  0  0  0  0  0  0  0  0  0
  -30.7759  -20.8895   15.5206 C   0  0  0  0  0  0  0  0  0  0  0  0
  -29.9501  -23.0830   16.1066 C   0  0  0  0  0  0  0  0  0  0  0  0
  -22.8724  -12.7233   12.1990 C   0  0  0  0  0  0  0  0  0  0  0  0
  -25.4621  -14.9814   18.2678 C   0  0  0  0  0  0  0  0  0  0  0  0
  -31.2273  -22.7750   14.0791 C   0  0  0  0  0  0  0  0  0  0  0  0
  -27.3210  -15.2010   20.0010 C   0  0  0  0  0  0  0  0  0  0  0  0
  -18.7305  -27.0103   23.0148 C   0  0  0  0  0  0  0  0  0  0  0  0
  -25.5613  -28.8438   21.0504 C   0  0  0  0  0  0  0  0  0  0  0  0
  -19.8102  -27.1348   22.1198 C   0  0  0  0  0  0  0  0  0  0  0  0
  -25.6597  -30.0975   20.4301 C   0  0  0  0  0  0  0  0  0  0  0  0
  -31.3521  -21.4153   14.3643 C   0  0  0  0  0  0  0  0  0  0  0  0
  -30.0749  -21.7233   16.3918 C   0  0  0  0  0  0  0  0  0  0  0  0
  -30.5263  -23.6089   14.9502 C   0  0  0  0  0  0  0  0  0  0  0  0
  -23.6903  -13.5445   16.6619 C   0  0  0  0  0  0  0  0  0  0  0  0
  -27.0056  -29.1050   18.6656 C   0  0  0  0  0  0  0  0  0  0  0  0
  -22.6987  -13.2303   14.5547 C   0  0  0  0  0  0  0  0  0  0  0  0
  -22.4391  -14.0126   11.8895 C   0  0  0  0  0  0  0  0  0  0  0  0
  -23.0021  -12.3322   13.5316 C   0  0  0  0  0  0  0  0  0  0  0  0
  -26.3774  -15.7240   19.0966 C   0  0  0  0  0  0  0  0  0  0  0  0
  -27.9358  -16.3076   20.5339 C   0  0  0  0  0  0  0  0  0  0  0  0
  -31.8322  -23.3204   12.8673 C   0  0  0  0  0  0  0  0  0  0  0  0
  -27.6154  -13.8369   20.3299 C   0  0  0  0  0  0  0  0  0  0  0  0
  -29.7291  -27.2633   14.9511 C   0  0  0  0  0  0  0  0  0  0  0  0
  -29.0319  -28.3860   15.6942 C   0  0  0  0  0  0  0  0  0  0  0  0
  -22.5444  -29.5878   21.7199 C   0  0  0  0  0  0  0  0  0  0  0  0
  -23.9025  -32.1849   23.1103 C   0  0  0  0  0  0  0  0  0  0  0  0
  -26.5597  -34.3190   23.2879 C   0  0  0  0  0  0  0  0  0  0  0  0
  -28.7610  -21.8781   18.5356 C   0  0  0  0  0  0  0  0  0  0  0  0
  -17.9642  -28.2130   23.5057 C   0  0  0  0  0  0  0  0  0  0  0  0
  -24.8158  -28.6923   22.3480 C   0  0  0  0  0  0  0  0  0  0  0  0
  -25.0046  -31.3231   21.0107 C   0  0  0  0  0  0  0  0  0  0  0  0
  -18.7106  -29.5307   23.3137 C   0  0  0  0  0  0  0  0  0  0  0  0
  -27.1255  -20.9171   21.5487 C   0  0  0  0  0  0  0  0  0  0  0  0
  -19.2969  -29.6122   21.9078 C   0  0  0  0  0  0  0  0  0  0  0  0
  -26.8394  -19.4273   21.3467 C   0  0  0  0  0  0  0  0  0  0  0  0
  -26.9701  -21.7058   20.2497 C   0  0  0  0  0  0  0  0  0  0  0  0
  -27.4525  -19.6956   18.9096 C   0  0  0  0  0  0  0  0  0  0  0  0
  -20.3127  -28.4888   21.6678 C   0  0  1  0  0  0  0  0  0  0  0  0
  -23.7702  -29.7814   22.5670 C   0  0  1  0  0  0  0  0  0  0  0  0
  -27.6595  -18.8496   20.1765 C   0  0  2  0  0  0  0  0  0  0  0  0
  -32.0970  -20.4969   13.4506 C   0  0  0  0  0  0  0  0  0  0  0  0
  -30.9932  -23.3334   11.6258 C   0  0  0  0  0  0  0  0  0  0  0  0
  -27.3640  -36.3673   24.4941 C   0  0  0  0  0  0  0  0  0  0  0  0
  -22.0359  -33.9094   21.4215 C   0  0  0  0  0  0  0  0  0  0  0  0
  -23.4991  -35.8746   21.9365 C   0  0  0  0  0  0  0  0  0  0  0  0
  -22.3190  -34.6826   23.7829 C   0  0  0  0  0  0  0  0  0  0  0  0
  -28.8960  -32.8857   24.4043 C   0  0  0  0  0  0  0  0  0  0  0  0
  -29.6782  -25.8790   15.5443 C   0  0  0  0  0  0  0  0  0  0  0  0
  -28.3216  -28.0591   16.9833 C   0  0  0  0  0  0  0  0  0  1  0  0
  -24.2837  -33.5697   22.6455 C   0  0  1  0  0  0  0  0  0  0  0  0
  -27.3504  -34.8467   24.4714 C   0  0  2  0  0  0  0  0  0  0  0  0
  -23.0453  -34.4858   22.4344 C   0  0  0  0  0  0  0  0  0  0  0  0
  -26.3881  -17.0589   19.0548 N   0  0  0  0  0  0  0  0  0  0  0  0
  -27.3459  -17.3841   19.9397 N   0  0  0  0  0  0  0  0  0  0  0  0
  -24.2818  -31.1225   22.2776 N   0  0  0  0  0  0  0  0  0  0  0  0
  -27.7787  -21.1031   19.1877 N   0  0  0  0  0  0  0  0  0  0  0  0
  -28.9180  -16.4550   21.4481 N   0  0  0  0  0  0  0  0  0  0  0  0
  -26.8896  -12.8235   19.6893 N   0  0  0  0  0  0  0  0  0  0  0  0
  -29.4893  -21.1892   17.5663 N   0  0  0  0  0  0  0  0  0  0  0  0
  -30.3893  -24.9633   14.6866 N   0  0  0  0  0  0  0  0  0  0  0  0
  -21.5724  -28.8012   22.3081 N   0  0  0  0  0  0  0  0  0  0  0  0
  -25.2434  -34.0775   23.6199 N   0  0  0  0  0  0  0  0  0  0  0  0
  -28.7594  -34.3650   24.4092 N   0  3  0  0  0  0  0  0  0  0  0  0
  -32.9770  -23.7628   12.7936 O   0  0  0  0  0  0  0  0  0  0  0  0
  -28.4847  -13.5264   21.1793 O   0  0  0  0  0  0  0  0  0  0  0  0
  -30.2963  -27.5556   13.9059 O   0  0  0  0  0  0  0  0  0  0  0  0
  -29.0826  -29.5055   15.2012 O   0  0  0  0  0  0  0  0  0  0  0  0
  -22.4842  -30.1144   20.6150 O   0  0  0  0  0  0  0  0  0  0  0  0
  -23.2969  -32.0502   24.1765 O   0  0  0  0  0  0  0  0  0  0  0  0
  -27.0588  -34.1424   22.1787 O   0  0  0  0  0  0  0  0  0  0  0  0
  -28.9612  -23.0580   18.8354 O   0  0  0  0  0  0  0  0  0  0  0  0
  -22.8262  -12.8433   15.8782 O   0  0  0  0  0  0  0  0  0  0  0  0
  -27.7028  -29.2347   17.5041 O   0  0  0  0  0  0  0  0  0  1  0  0
  -22.3130  -14.3878   10.6099 F   0  0  0  0  0  0  0  0  0  0  0  0
  -23.4177  -11.0918   13.8227 F   0  0  0  0  0  0  0  0  0  0  0  0
  1  2  1  0  0  0  0
  1  5  2  0  0  0  0
  2  6  2  0  0  0  0
  3  8  2  0  0  0  0
  3 17  1  0  0  0  0
  4  9  1  0  0  0  0
  4 17  2  0  0  0  0
  5 20  1  0  0  0  0
  6 22  1  0  0  0  0
  7 10  2  0  0  0  0
  7 21  1  0  0  0  0
  8 27  1  0  0  0  0
  9 27  2  0  0  0  0
 10 28  1  0  0  0  0
 11 12  2  0  0  0  0
 11 29  1  0  0  0  0
 12 30  1  0  0  0  0
 13 23  1  0  0  0  0
 13 28  2  0  0  0  0
 14 24  2  0  0  0  0
 14 25  1  0  0  0  0
 15 25  2  0  0  0  0
 15 26  1  0  0  0  0
 16 30  2  0  0  0  0
 16 31  1  0  0  0  0
 17 32  1  0  0  0  0
 18 24  1  0  0  0  0
 18 26  2  0  0  0  0
 18 34  1  0  0  0  0
 19 32  1  0  0  0  0
 19 33  2  0  0  0  0
 19 35  1  0  0  0  0
 20 22  2  0  0  0  0
 20 42  1  0  0  0  0
 21 23  2  0  0  0  0
 21 43  1  0  0  0  0
 22 51  1  0  0  0  0
 23 44  1  0  0  0  0
 24 54  1  0  0  0  0
 25 72  1  0  0  0  0
 26 73  1  0  0  0  0
 27 85  1  0  0  0  0
 28 86  1  0  0  0  0
 29 31  2  0  0  0  0
 29 85  1  0  0  0  0
 30 87  1  0  0  0  0
 31 88  1  0  0  0  0
 32 66  2  0  0  0  0
 33 67  1  0  0  0  0
 33 70  1  0  0  0  0
 34 55  1  0  0  0  0
 34 77  2  0  0  0  0
 35 71  1  0  0  0  0
 35 78  2  0  0  0  0
 36 37  1  0  0  0  0
 36 61  1  0  0  0  0
 36 79  2  0  0  0  0
 37 62  1  0  0  0  0
 37 80  2  0  0  0  0
 38 52  1  0  0  0  0
 38 74  1  0  0  0  0
 38 81  2  0  0  0  0
 39 63  1  0  0  0  0
 39 68  1  0  0  0  0
 39 82  2  0  0  0  0
 40 64  1  0  0  0  0
 40 75  1  0  0  0  0
 40 83  2  0  0  0  0
 41 69  1  0  0  0  0
 41 72  1  0  0  0  0
 41 84  2  0  0  0  0
 42 45  1  0  0  0  0
 43 52  1  0  0  0  0
 44 68  1  0  0  0  0
 45 47  1  0  0  0  0
 46 48  1  0  0  0  0
 46 49  1  0  0  0  0
 47 51  1  0  0  0  0
 48 53  1  0  0  0  0
 49 69  1  0  0  0  0
 50 53  1  0  0  0  0
 50 69  1  0  0  0  0
 51 74  1  0  0  0  0
 52 68  1  0  0  0  0
 53 67  1  0  0  0  0
 56 64  1  0  0  0  0
 57 65  1  0  0  0  0
 58 65  1  0  0  0  0
 59 65  1  0  0  0  0
 60 76  1  0  0  0  0
 61 73  1  0  0  0  0
 62 86  1  0  0  0  0
 63 65  1  0  0  0  0
 63 75  1  0  0  0  0
 64 76  1  0  0  0  0
 66 67  1  0  0  0  0
M  CHG  1  76   1
M  ISO  4  41 100  62 101  72 100  86 101
M  END
> <Batch ID>
0166

> <Smiles>
CNC(C)C(=O)NC(C(=O)N1Cc2cc([101O:1][101CH2:1]C(=O)C(=O)CNc3cc([100NH:0][100C:0](=O)N4CCCC(n5nc(-c6ccc(Oc7ccc(F)cc7F)cc6)c(C(N)=O)c5N)C4)cc(C)c3C(C)=O)ccc2CC1C(=O)NC1CCCc2ccccc21)C(C)(C)C

> <Shape>
0.210

> <Color>
0.102

> <Negative vol penalty>
0.000

$$$$

  -OEChem-04052304083D

 85 93  0     1  0  0  0  0  0999 V2000
  -20.2616  -31.0491   22.7423 C   0  0  0  0  0  0  0  0  0  0  0  0
  -21.5382  -30.5080   22.6290 C   0  0  0  0  0  0  0  0  0  0  0  0
  -25.6713  -13.4976   21.8712 C   0  0  0  0  0  0  0  0  0  0  0  0
  -25.3625  -14.3162   19.6192 C   0  0  0  0  0  0  0  0  0  0  0  0
  -19.1496  -30.2086   22.7719 C   0  0  0  0  0  0  0  0  0  0  0  0
  -21.7036  -29.1259   22.5462 C   0  0  0  0  0  0  0  0  0  0  0  0
  -25.0077  -27.7762   18.9537 C   0  0  0  0  0  0  0  0  0  0  0  0
  -24.6168  -12.6027   21.6905 C   0  0  0  0  0  0  0  0  0  0  0  0
  -24.3080  -13.4213   19.4384 C   0  0  0  0  0  0  0  0  0  0  0  0
  -26.3629  -27.9133   19.2511 C   0  0  0  0  0  0  0  0  0  0  0  0
  -24.1156   -9.6134   20.1920 C   0  0  0  0  0  0  0  0  0  0  0  0
  -24.2985   -8.3001   20.6248 C   0  0  0  0  0  0  0  0  0  0  0  0
  -30.8123  -23.4344   19.0680 C   0  0  0  0  0  0  0  0  0  0  0  0
  -32.4156  -23.5246   17.2630 C   0  0  0  0  0  0  0  0  0  0  0  0
  -26.4894  -25.5534   19.7346 C   0  0  0  0  0  0  0  0  0  0  0  0
  -31.9018  -21.4127   18.3179 C   0  0  0  0  0  0  0  0  0  0  0  0
  -22.4242   -8.5354   22.1310 C   0  0  0  0  0  0  0  0  0  0  0  0
  -26.0442  -14.3544   20.8355 C   0  0  0  0  0  0  0  0  0  0  0  0
  -31.5181  -24.1685   18.1148 C   0  0  0  0  0  0  0  0  0  0  0  0
  -28.4962  -15.0533   20.7524 C   0  0  0  0  0  0  0  0  0  0  0  0
  -19.3008  -28.8160   22.6797 C   0  0  0  0  0  0  0  0  0  0  0  0
  -24.3796  -26.5266   19.0552 C   0  0  0  0  0  0  0  0  0  0  0  0
  -20.5926  -28.2659   22.5759 C   0  0  0  0  0  0  0  0  0  0  0  0
  -25.1267  -25.4026   19.4355 C   0  0  0  0  0  0  0  0  0  0  0  0
  -31.0042  -22.0565   19.1696 C   0  0  0  0  0  0  0  0  0  0  0  0
  -23.9351  -12.5645   20.4742 C   0  0  0  0  0  0  0  0  0  0  0  0
  -27.1033  -26.8024   19.6444 C   0  0  0  0  0  0  0  0  0  0  0  0
  -23.0870  -10.3878   20.7287 C   0  0  0  0  0  0  0  0  0  0  0  0
  -23.4528   -7.7611   21.5943 C   0  0  0  0  0  0  0  0  0  0  0  0
  -32.6075  -22.1467   17.3645 C   0  0  0  0  0  0  0  0  0  0  0  0
  -22.2413   -9.8488   21.6982 C   0  0  0  0  0  0  0  0  0  0  0  0
  -27.1331  -15.2795   21.0217 C   0  0  0  0  0  0  0  0  0  0  0  0
  -29.1140  -16.2312   21.0950 C   0  0  0  0  0  0  0  0  0  0  0  0
  -31.3163  -25.6274   18.0076 C   0  0  0  0  0  0  0  0  0  0  0  0
  -29.1459  -13.8831   20.2384 C   0  0  0  0  0  0  0  0  0  0  0  0
  -22.0056  -25.3452   20.8079 C   0  0  0  0  0  0  0  0  0  0  0  0
  -30.4551  -28.1515   20.1689 C   0  0  0  0  0  0  0  0  0  0  0  0
  -22.4291  -22.7404   18.9216 C   0  0  0  0  0  0  0  0  0  0  0  0
  -24.5058  -20.9259   16.9112 C   0  0  0  0  0  0  0  0  0  0  0  0
  -29.3576  -21.7938   21.0580 C   0  0  0  0  0  0  0  0  0  0  0  0
  -18.0721  -27.9453   22.7636 C   0  0  0  0  0  0  0  0  0  0  0  0
  -22.9232  -26.3904   18.7051 C   0  0  0  0  0  0  0  0  0  0  0  0
  -24.5043  -24.0351   19.5403 C   0  0  0  0  0  0  0  0  0  0  0  0
  -18.3079  -26.5123   22.2935 C   0  0  0  0  0  0  0  0  0  0  0  0
  -27.3505  -20.2752   23.5764 C   0  0  0  0  0  0  0  0  0  0  0  0
  -19.5915  -25.9555   22.9012 C   0  0  0  0  0  0  0  0  0  0  0  0
  -27.2271  -18.8216   23.1142 C   0  0  0  0  0  0  0  0  0  0  0  0
  -27.3377  -21.2480   22.3986 C   0  0  0  0  0  0  0  0  0  0  0  0
  -28.1954  -19.5060   20.8823 C   0  0  0  0  0  0  0  0  0  0  0  0
  -20.8112  -26.7730   22.4588 C   0  0  1  0  0  0  0  0  0  0  0  0
  -22.2681  -25.1672   19.3392 C   0  0  1  0  0  0  0  0  0  0  0  0
  -28.2689  -18.4848   22.0293 C   0  0  2  0  0  0  0  0  0  0  0  0
  -24.5815  -18.8239   15.5425 C   0  0  0  0  0  0  0  0  0  0  0  0
  -22.6983  -21.0908   21.4743 C   0  0  0  0  0  0  0  0  0  0  0  0
  -23.6955  -19.2523   20.0981 C   0  0  0  0  0  0  0  0  0  0  0  0
  -21.3562  -20.0031   19.6660 C   0  0  0  0  0  0  0  0  0  0  0  0
  -25.0171  -22.4316   14.4152 C   0  0  0  0  0  0  0  0  0  0  0  0
  -31.4462  -27.8452   19.0853 C   0  0  0  0  0  0  0  0  0  0  0  0
  -28.9909  -28.2386   19.8175 C   0  0  0  0  0  0  0  0  0  1  0  0
  -23.2817  -21.4966   18.9921 C   0  0  1  0  0  0  0  0  0  0  0  0
  -24.2985  -20.3181   15.5357 C   0  0  2  0  0  0  0  0  0  0  0  0
  -22.7695  -20.4867   20.0576 C   0  0  0  0  0  0  0  0  0  0  0  0
  -26.8981  -16.5047   21.4988 N   0  0  0  0  0  0  0  0  0  0  0  0
  -30.8673  -28.3296   21.3819 N   0  0  0  0  0  0  0  0  0  0  0  0
  -28.1220  -17.0590   21.5320 N   0  0  0  0  0  0  0  0  0  0  0  0
  -23.0757  -23.9544   19.1937 N   0  0  0  0  0  0  0  0  0  0  0  0
  -28.3530  -20.8690   21.4135 N   0  0  0  0  0  0  0  0  0  0  0  0
  -30.4035  -16.6293   21.0621 N   0  0  0  0  0  0  0  0  0  0  0  0
  -28.3617  -12.7607   19.9388 N   0  0  0  0  0  0  0  0  0  0  0  0
  -30.2864  -21.3104   20.1370 N   0  0  0  0  0  0  0  0  0  0  0  0
  -31.5879  -26.3990   19.0751 N   0  0  0  0  0  0  0  0  0  0  0  0
  -21.1922  -26.4213   21.1077 N   0  0  0  0  0  0  0  0  0  0  0  0
  -23.3336  -20.9599   17.6365 N   0  0  0  0  0  0  0  0  0  0  0  0
  -30.8688  -26.1164   16.8509 N   0  3  0  0  0  0  0  0  0  0  0  0
  -25.2033  -20.9632   14.5427 N   0  3  0  0  0  0  0  0  0  0  0  0
  -30.3872  -13.8285   20.0659 O   0  0  0  0  0  0  0  0  0  0  0  0
  -22.5029  -24.5631   21.6097 O   0  0  0  0  0  0  0  0  0  0  0  0
  -21.2351  -22.6394   18.6286 O   0  0  0  0  0  0  0  0  0  0  0  0
  -25.5991  -21.3267   17.3045 O   0  0  0  0  0  0  0  0  0  0  0  0
  -29.4071  -22.9215   21.5558 O   0  0  0  0  0  0  0  0  0  0  0  0
  -22.9062  -11.6912   20.2974 O   0  0  0  0  0  0  0  0  0  0  0  0
  -28.4261  -26.9335   19.9358 O   0  0  0  0  0  0  0  0  0  1  0  0
  -23.6276   -6.4994   22.0087 F   0  0  0  0  0  0  0  0  0  0  0  0
  -33.4695  -21.5285   16.5467 F   0  0  0  0  0  0  0  0  0  0  0  0
  -21.2507  -10.5875   22.2167 F   0  0  0  0  0  0  0  0  0  0  0  0
  1  2  1  0  0  0  0
  1  5  2  0  0  0  0
  2  6  2  0  0  0  0
  3  8  2  0  0  0  0
  3 18  1  0  0  0  0
  4  9  1  0  0  0  0
  4 18  2  0  0  0  0
  5 21  1  0  0  0  0
  6 23  1  0  0  0  0
  7 10  2  0  0  0  0
  7 22  1  0  0  0  0
  8 26  1  0  0  0  0
  9 26  2  0  0  0  0
 10 27  1  0  0  0  0
 11 12  2  0  0  0  0
 11 28  1  0  0  0  0
 12 29  1  0  0  0  0
 13 19  2  0  0  0  0
 13 25  1  0  0  0  0
 14 19  1  0  0  0  0
 14 30  2  0  0  0  0
 15 24  1  0  0  0  0
 15 27  2  0  0  0  0
 16 25  2  0  0  0  0
 16 30  1  0  0  0  0
 17 29  2  0  0  0  0
 17 31  1  0  0  0  0
 18 32  1  0  0  0  0
 19 34  1  0  0  0  0
 20 32  1  0  0  0  0
 20 33  2  0  0  0  0
 20 35  1  0  0  0  0
 21 23  2  0  0  0  0
 21 41  1  0  0  0  0
 22 24  2  0  0  0  0
 22 42  1  0  0  0  0
 23 50  1  0  0  0  0
 24 43  1  0  0  0  0
 25 70  1  0  0  0  0
 26 81  1  0  0  0  0
 27 82  1  0  0  0  0
 28 31  2  0  0  0  0
 28 81  1  0  0  0  0
 29 83  1  0  0  0  0
 30 84  1  0  0  0  0
 31 85  1  0  0  0  0
 32 63  2  0  0  0  0
 33 65  1  0  0  0  0
 33 68  1  0  0  0  0
 34 71  1  0  0  0  0
 34 74  2  0  0  0  0
 35 69  1  0  0  0  0
 35 76  2  0  0  0  0
 36 51  1  0  0  0  0
 36 72  1  0  0  0  0
 36 77  2  0  0  0  0
 37 58  1  0  0  0  0
 37 59  1  0  0  0  0
 37 64  2  0  0  0  0
 38 60  1  0  0  0  0
 38 66  1  0  0  0  0
 38 78  2  0  0  0  0
 39 61  1  0  0  0  0
 39 73  1  0  0  0  0
 39 79  2  0  0  0  0
 40 67  1  0  0  0  0
 40 70  1  0  0  0  0
 40 80  2  0  0  0  0
 41 44  1  0  0  0  0
 42 51  1  0  0  0  0
 43 66  1  0  0  0  0
 44 46  1  0  0  0  0
 45 47  1  0  0  0  0
 45 48  1  0  0  0  0
 46 50  1  0  0  0  0
 47 52  1  0  0  0  0
 48 67  1  0  0  0  0
 49 52  1  0  0  0  0
 49 67  1  0  0  0  0
 50 72  1  0  0  0  0
 51 66  1  0  0  0  0
 52 65  1  0  0  0  0
 53 61  1  0  0  0  0
 54 62  1  0  0  0  0
 55 62  1  0  0  0  0
 56 62  1  0  0  0  0
 57 75  1  0  0  0  0
 58 71  1  0  0  0  0
 59 82  1  0  0  0  0
 60 62  1  0  0  0  0
 60 73  1  0  0  0  0
 61 75  1  0  0  0  0
 63 65  1  0  0  0  0
M  CHG  2  74   1  75   1
M  ISO  4  40 100  59 101  70 100  82 101
M  END
> <Batch ID>
0166

> <Smiles>
CNC(C)C(=O)NC(C(=O)N1Cc2cc([101O:1][101CH2:1]C(=N)CNC(=N)c3cc(F)cc([100NH:0][100C:0](=O)N4CCCC(n5nc(-c6ccc(Oc7ccc(F)cc7F)cc6)c(C(N)=O)c5N)C4)c3)ccc2CC1C(=O)NC1CCCc2ccccc21)C(C)(C)C

> <Shape>
0.261

> <Color>
0.064

> <Negative vol penalty>
0.000

$$$$

  -OEChem-04052304083D

 89 97  0     1  0  0  0  0  0999 V2000
  -32.4648  -13.5969   20.7536 C   0  0  0  0  0  0  0  0  0  0  0  0
  -31.7463  -14.7716   20.9517 C   0  0  0  0  0  0  0  0  0  0  0  0
  -29.8815  -24.3845   21.2970 C   0  0  0  0  0  0  0  0  0  0  0  0
  -28.8542  -23.7974   19.1905 C   0  0  0  0  0  0  0  0  0  0  0  0
  -31.8363  -12.4811   20.2023 C   0  0  0  0  0  0  0  0  0  0  0  0
  -30.3989  -14.8315   20.5975 C   0  0  0  0  0  0  0  0  0  0  0  0
  -25.9769  -17.9602   23.4546 C   0  0  0  0  0  0  0  0  0  0  0  0
  -29.8643  -23.0432   21.6792 C   0  0  0  0  0  0  0  0  0  0  0  0
  -28.8371  -22.4560   19.5728 C   0  0  0  0  0  0  0  0  0  0  0  0
  -25.3882  -19.1978   23.1988 C   0  0  0  0  0  0  0  0  0  0  0  0
  -31.0249  -19.8854   19.7335 C   0  0  0  0  0  0  0  0  0  0  0  0
  -31.4371  -18.9401   18.7943 C   0  0  0  0  0  0  0  0  0  0  0  0
  -23.5955  -18.0948   22.0204 C   0  0  0  0  0  0  0  0  0  0  0  0
  -24.1624  -26.6383   18.7444 C   0  0  0  0  0  0  0  0  0  0  0  0
  -29.2666  -17.8847   18.9037 C   0  0  0  0  0  0  0  0  0  0  0  0
  -24.6881  -24.8406   17.2787 C   0  0  0  0  0  0  0  0  0  0  0  0
  -29.3764  -24.7616   20.0526 C   0  0  0  0  0  0  0  0  0  0  0  0
  -30.4190  -26.8223   18.9689 C   0  0  0  0  0  0  0  0  0  0  0  0
  -30.4781  -12.5244   19.8501 C   0  0  0  0  0  0  0  0  0  0  0  0
  -25.3840  -16.7793   22.9851 C   0  0  0  0  0  0  0  0  0  0  0  0
  -29.7519  -13.7157   20.0397 C   0  0  0  0  0  0  0  0  0  0  0  0
  -24.1773  -16.8432   22.2738 C   0  0  0  0  0  0  0  0  0  0  0  0
  -24.5175  -27.5256   17.7344 C   0  0  0  0  0  0  0  0  0  0  0  0
  -24.2465  -25.2687   18.5202 C   0  0  0  0  0  0  0  0  0  0  0  0
  -29.3421  -22.0789   20.8171 C   0  0  0  0  0  0  0  0  0  0  0  0
  -24.1989  -19.2655   22.4791 C   0  0  0  0  0  0  0  0  0  0  0  0
  -29.7335  -19.8303   20.2579 C   0  0  0  0  0  0  0  0  0  0  0  0
  -30.5580  -17.9398   18.3794 C   0  0  0  0  0  0  0  0  0  0  0  0
  -28.8543  -18.8300   19.8430 C   0  0  0  0  0  0  0  0  0  0  0  0
  -29.3933  -26.1471   19.6574 C   0  0  0  0  0  0  0  0  0  0  0  0
  -24.9473  -26.9965   16.5281 C   0  0  0  0  0  0  0  0  0  0  0  0
  -29.9547  -28.1080   18.8360 C   0  0  0  0  0  0  0  0  0  0  0  0
  -23.9762  -21.1278   21.0816 C   0  0  0  0  0  0  0  0  0  1  0  0
  -31.6787  -26.3310   18.4920 C   0  0  0  0  0  0  0  0  0  0  0  0
  -23.4726  -22.3184   20.7348 C   0  0  0  0  0  0  0  0  0  0  0  0
  -23.9252  -22.9549   19.4548 C   0  0  0  0  0  0  0  0  0  0  0  0
  -26.2600  -14.4725   20.9813 C   0  0  0  0  0  0  0  0  0  0  0  0
  -23.5021  -13.0898   21.9833 C   0  0  0  0  0  0  0  0  0  0  0  0
  -20.3885  -13.4764   23.3262 C   0  0  0  0  0  0  0  0  0  0  0  0
  -24.1718  -29.9710   20.2891 C   0  0  0  0  0  0  0  0  0  0  0  0
  -29.8541  -11.3078   19.2136 C   0  0  0  0  0  0  0  0  0  0  0  0
  -26.0176  -15.4502   23.2925 C   0  0  0  0  0  0  0  0  0  0  0  0
  -23.4900  -15.6033   21.7652 C   0  0  0  0  0  0  0  0  0  0  0  0
  -28.3278  -11.3362   19.2123 C   0  0  0  0  0  0  0  0  0  0  0  0
  -27.4646  -31.6562   20.4289 C   0  0  0  0  0  0  0  0  0  0  0  0
  -27.8196  -12.6968   18.7460 C   0  0  0  0  0  0  0  0  0  0  0  0
  -28.4417  -30.4898   20.2923 C   0  0  0  0  0  0  0  0  0  0  0  0
  -26.1501  -31.2227   21.0708 C   0  0  0  0  0  0  0  0  0  0  0  0
  -26.4682  -28.9139   20.2448 C   0  0  0  0  0  0  0  0  0  0  0  0
  -28.2825  -13.8121   19.6912 C   0  0  1  0  0  0  0  0  0  0  0  0
  -25.5966  -14.3493   22.3239 C   0  0  1  0  0  0  0  0  0  0  0  0
  -27.7853  -29.3071   19.5590 C   0  0  2  0  0  0  0  0  0  0  0  0
  -18.3536  -12.1672   23.9913 C   0  0  0  0  0  0  0  0  0  0  0  0
  -24.1565  -28.2398   14.5063 C   0  0  0  0  0  0  0  0  0  0  0  0
  -22.7112  -12.8322   19.0477 C   0  0  0  0  0  0  0  0  0  0  0  0
  -20.3556  -12.4229   19.7903 C   0  0  0  0  0  0  0  0  0  0  0  0
  -22.1640  -10.8382   20.4543 C   0  0  0  0  0  0  0  0  0  0  0  0
  -22.2053  -29.2042   19.0145 C   0  0  0  0  0  0  0  0  0  0  0  0
  -20.6369  -14.3064   26.1561 C   0  0  0  0  0  0  0  0  0  0  0  0
  -24.4300  -28.9939   17.9694 C   0  0  0  0  0  0  0  0  0  0  0  0
  -22.0626  -13.1241   21.5296 C   0  0  1  0  0  0  0  0  0  0  0  0
  -19.6806  -12.7481   24.4544 C   0  0  2  0  0  0  0  0  0  0  0  0
  -25.3412  -27.9008   15.4065 C   0  0  0  0  0  0  0  0  0  0  0  0
  -21.8371  -12.3280   20.2133 C   0  0  0  0  0  0  0  0  0  0  0  0
  -25.0420  -25.6722   16.2732 N   0  0  0  0  0  0  0  0  0  0  0  0
  -28.3558  -26.9386   19.9423 N   0  0  0  0  0  0  0  0  0  0  0  0
  -28.7271  -28.1244   19.4302 N   0  0  0  0  0  0  0  0  0  0  0  0
  -24.1519  -14.3280   22.0859 N   0  0  0  0  0  0  0  0  0  0  0  0
  -25.5699  -30.0702   20.3807 N   0  0  0  0  0  0  0  0  0  0  0  0
  -30.4808  -29.2150   18.2701 N   0  0  0  0  0  0  0  0  0  0  0  0
  -31.9975  -24.9842   18.7127 N   0  0  0  0  0  0  0  0  0  0  0  0
  -23.8919  -24.3406   19.5289 N   0  0  0  0  0  0  0  0  0  0  0  0
  -27.4764  -13.8229   20.8931 N   0  0  0  0  0  0  0  0  0  0  0  0
  -21.2677  -12.6509   22.6577 N   0  0  0  0  0  0  0  0  0  0  0  0
  -23.6492  -29.3220   19.1602 N   0  0  0  0  0  0  0  0  0  0  0  0
  -19.4161  -13.6800   25.5869 N   0  3  0  0  0  0  0  0  0  0  0  0
  -32.5044  -27.0687   17.9024 O   0  0  0  0  0  0  0  0  0  0  0  0
  -24.2694  -22.2697   18.4978 O   0  0  0  0  0  0  0  0  0  0  0  0
  -25.7084  -15.1086   20.0909 O   0  0  0  0  0  0  0  0  0  0  0  0
  -24.0282  -12.0051   22.2443 O   0  0  0  0  0  0  0  0  0  0  0  0
  -20.1796  -14.6584   23.0618 O   0  0  0  0  0  0  0  0  0  0  0  0
  -23.4326  -30.4444   21.1617 O   0  0  0  0  0  0  0  0  0  0  0  0
  -22.5478  -22.9875   21.5105 O   0  0  0  0  0  0  0  0  0  0  0  0
  -29.3254  -20.7699   21.1897 O   0  0  0  0  0  0  0  0  0  0  0  0
  -23.6225  -20.4723   22.2274 O   0  0  0  0  0  0  0  0  0  1  0  0
  -30.9535  -17.0331   17.4763 F   0  0  0  0  0  0  0  0  0  0  0  0
  -27.6121  -18.7726   20.3423 F   0  0  0  0  0  0  0  0  0  0  0  0
  -26.3155  -27.3646   14.6050 F   0  0  0  0  0  0  0  0  0  0  0  0
  -25.8712  -29.0888   15.8392 F   0  0  0  0  0  0  0  0  0  0  0  0
  1  2  1  0  0  0  0
  1  5  2  0  0  0  0
  2  6  2  0  0  0  0
  3  8  2  0  0  0  0
  3 17  1  0  0  0  0
  4  9  1  0  0  0  0
  4 17  2  0  0  0  0
  5 19  1  0  0  0  0
  6 21  1  0  0  0  0
  7 10  2  0  0  0  0
  7 20  1  0  0  0  0
  8 25  1  0  0  0  0
  9 25  2  0  0  0  0
 10 26  1  0  0  0  0
 11 12  2  0  0  0  0
 11 27  1  0  0  0  0
 12 28  1  0  0  0  0
 13 22  1  0  0  0  0
 13 26  2  0  0  0  0
 14 23  1  0  0  0  0
 14 24  2  0  0  0  0
 15 28  2  0  0  0  0
 15 29  1  0  0  0  0
 16 24  1  0  0  0  0
 16 65  2  0  0  0  0
 17 30  1  0  0  0  0
 18 30  1  0  0  0  0
 18 32  2  0  0  0  0
 18 34  1  0  0  0  0
 19 21  2  0  0  0  0
 19 41  1  0  0  0  0
 20 22  2  0  0  0  0
 20 42  1  0  0  0  0
 21 50  1  0  0  0  0
 22 43  1  0  0  0  0
 23 31  2  0  0  0  0
 23 60  1  0  0  0  0
 24 72  1  0  0  0  0
 25 84  1  0  0  0  0
 26 85  1  0  0  0  0
 27 29  2  0  0  0  0
 27 84  1  0  0  0  0
 28 86  1  0  0  0  0
 29 87  1  0  0  0  0
 30 66  2  0  0  0  0
 31 63  1  0  0  0  0
 31 65  1  0  0  0  0
 32 67  1  0  0  0  0
 32 70  1  0  0  0  0
 33 35  2  0  0  0  0
 33 85  1  0  0  0  0
 34 71  1  0  0  0  0
 34 77  2  0  0  0  0
 35 36  1  0  0  0  0
 35 83  1  0  0  0  0
 36 72  1  0  0  0  0
 36 78  2  0  0  0  0
 37 51  1  0  0  0  0
 37 73  1  0  0  0  0
 37 79  2  0  0  0  0
 38 61  1  0  0  0  0
 38 68  1  0  0  0  0
 38 80  2  0  0  0  0
 39 62  1  0  0  0  0
 39 74  1  0  0  0  0
 39 81  2  0  0  0  0
 40 69  1  0  0  0  0
 40 75  1  0  0  0  0
 40 82  2  0  0  0  0
 41 44  1  0  0  0  0
 42 51  1  0  0  0  0
 43 68  1  0  0  0  0
 44 46  1  0  0  0  0
 45 47  1  0  0  0  0
 45 48  1  0  0  0  0
 46 50  1  0  0  0  0
 47 52  1  0  0  0  0
 48 69  1  0  0  0  0
 49 52  1  0  0  0  0
 49 69  1  0  0  0  0
 50 73  1  0  0  0  0
 51 68  1  0  0  0  0
 52 67  1  0  0  0  0
 53 62  1  0  0  0  0
 54 63  1  0  0  0  0
 55 64  1  0  0  0  0
 56 64  1  0  0  0  0
 57 64  1  0  0  0  0
 58 75  1  0  0  0  0
 59 76  1  0  0  0  0
 60 75  1  0  0  0  0
 61 64  1  0  0  0  0
 61 74  1  0  0  0  0
 62 76  1  0  0  0  0
 63 88  1  0  0  0  0
 63 89  1  0  0  0  0
 66 67  1  0  0  0  0
M  CHG  1  76   1
M  ISO  4  33 101  40 100  75 100  85 101
M  END
> <Batch ID>
0166

> <Smiles>
CNC(C)C(=O)NC(C(=O)N1Cc2cc([101O:1][101CH2:1]C(=O)C(=O)Nc3cnc(C(C)(F)F)c(C[100N:0](C)[100C:0](=O)N4CCCC(n5nc(-c6ccc(Oc7ccc(F)cc7F)cc6)c(C(N)=O)c5N)C4)c3)ccc2CC1C(=O)NC1CCCc2ccccc21)C(C)(C)C

> <Shape>
0.242

> <Color>
0.061

> <Negative vol penalty>
0.000

$$$$

  -OEChem-04052304083D

 88 96  0     1  0  0  0  0  0999 V2000
  -27.7601  -33.9310   27.7206 C   0  0  0  0  0  0  0  0  0  0  0  0
  -28.3734  -33.0772   26.8094 C   0  0  0  0  0  0  0  0  0  0  0  0
  -24.4804   -6.7361   22.5540 C   0  0  0  0  0  0  0  0  0  0  0  0
  -22.5091   -7.4339   23.7640 C   0  0  0  0  0  0  0  0  0  0  0  0
  -26.4069  -33.7755   28.0181 C   0  0  0  0  0  0  0  0  0  0  0  0
  -27.6339  -32.0667   26.1958 C   0  0  0  0  0  0  0  0  0  0  0  0
  -27.1624  -28.4522   20.0290 C   0  0  0  0  0  0  0  0  0  0  0  0
  -24.6393   -5.6635   23.4315 C   0  0  0  0  0  0  0  0  0  0  0  0
  -22.6679   -6.3613   24.6415 C   0  0  0  0  0  0  0  0  0  0  0  0
  -27.1260  -27.1444   19.5472 C   0  0  0  0  0  0  0  0  0  0  0  0
  -22.0444   -3.0399   24.6512 C   0  0  0  0  0  0  0  0  0  0  0  0
  -20.9098   -2.2962   24.9753 C   0  0  0  0  0  0  0  0  0  0  0  0
  -27.9035  -18.2421   19.8254 C   0  0  0  0  0  0  0  0  0  0  0  0
  -24.7762  -27.0203   20.0787 C   0  0  0  0  0  0  0  0  0  0  0  0
  -21.2099   -2.8542   27.3067 C   0  0  0  0  0  0  0  0  0  0  0  0
  -29.7666  -19.7158   19.7090 C   0  0  0  0  0  0  0  0  0  0  0  0
  -23.4153   -7.6213   22.7203 C   0  0  0  0  0  0  0  0  0  0  0  0
  -28.7911  -17.1782   19.9419 C   0  0  0  0  0  0  0  0  0  0  0  0
  -22.5181   -8.7441   20.6127 C   0  0  0  0  0  0  0  0  0  0  0  0
  -25.6482  -32.7687   27.4007 C   0  0  0  0  0  0  0  0  0  0  0  0
  -26.0065  -29.0511   20.5502 C   0  0  0  0  0  0  0  0  0  0  0  0
  -26.2695  -31.8967   26.4864 C   0  0  0  0  0  0  0  0  0  0  0  0
  -24.8000  -28.3367   20.5641 C   0  0  0  0  0  0  0  0  0  0  0  0
  -28.3925  -19.5382   19.7062 C   0  0  0  0  0  0  0  0  0  0  0  0
  -23.7331   -5.4761   24.4752 C   0  0  0  0  0  0  0  0  0  0  0  0
  -25.9335  -26.4273   19.5746 C   0  0  0  0  0  0  0  0  0  0  0  0
  -22.7619   -3.6908   25.6549 C   0  0  0  0  0  0  0  0  0  0  0  0
  -20.4925   -2.2033   26.3031 C   0  0  0  0  0  0  0  0  0  0  0  0
  -22.3446   -3.5979   26.9826 C   0  0  0  0  0  0  0  0  0  0  0  0
  -23.2509   -8.7298   21.8146 C   0  0  0  0  0  0  0  0  0  0  0  0
  -30.1474  -17.4613   19.9338 C   0  0  0  0  0  0  0  0  0  0  0  0
  -22.6734  -10.0210   20.1311 C   0  0  0  0  0  0  0  0  0  0  0  0
  -28.2777  -15.8229   20.0660 C   0  0  0  0  0  0  0  0  0  0  0  0
  -27.4557  -15.3832   21.0425 C   0  0  0  0  0  0  0  0  0  0  0  0
  -21.7642   -7.6969   19.9877 C   0  0  0  0  0  0  0  0  0  0  0  0
  -27.0115  -13.9749   21.0254 C   0  0  0  0  0  0  0  0  0  0  0  0
  -25.1671  -30.2148   23.3866 C   0  0  0  0  0  0  0  0  0  0  0  0
  -26.7740  -22.9051   19.3497 C   0  0  0  0  0  0  0  0  0  0  0  0
  -22.5046  -31.1429   21.7828 C   0  0  0  0  0  0  0  0  0  0  0  0
  -20.4090  -30.6737   19.1304 C   0  0  0  0  0  0  0  0  0  0  0  0
  -24.1997  -32.6095   27.7897 C   0  0  0  0  0  0  0  0  0  0  0  0
  -26.0562  -30.4719   21.0415 C   0  0  0  0  0  0  0  0  0  0  0  0
  -23.5266  -28.9412   21.0947 C   0  0  0  0  0  0  0  0  0  0  0  0
  -23.3980  -31.7509   26.8148 C   0  0  0  0  0  0  0  0  0  0  0  0
  -23.4258  -14.5085   21.5634 C   0  0  0  0  0  0  0  0  0  0  0  0
  -24.1643  -30.4778   26.4700 C   0  0  0  0  0  0  0  0  0  0  0  0
  -22.9207  -13.0694   21.6248 C   0  0  0  0  0  0  0  0  0  0  0  0
  -24.8258  -14.6489   22.1588 C   0  0  0  0  0  0  0  0  0  0  0  0
  -25.3208  -12.2823   21.6164 C   0  0  0  0  0  0  0  0  0  0  0  0
  -25.4951  -30.8042   25.7816 C   0  0  1  0  0  0  0  0  0  0  0  0
  -24.9370  -30.8040   22.0237 C   0  0  1  0  0  0  0  0  0  0  0  0
  -23.9329  -12.1093   20.9799 C   0  0  1  0  0  0  0  0  0  0  0  0
  -18.2971  -31.5626   18.1072 C   0  0  0  0  0  0  0  0  0  0  0  0
  -32.6221  -17.4589   21.7847 C   0  0  0  0  0  0  0  0  0  0  0  0
  -30.7610  -15.9899   22.5604 C   0  0  0  0  0  0  0  0  0  0  0  0
  -32.7880  -14.9889   21.4759 C   0  0  0  0  0  0  0  0  0  0  0  0
  -20.8680  -29.7128   23.9243 C   0  0  0  0  0  0  0  0  0  0  0  0
  -18.8974  -29.8078   22.3829 C   0  0  0  0  0  0  0  0  0  0  0  0
  -19.9401  -31.9204   23.2031 C   0  0  0  0  0  0  0  0  0  0  0  0
  -21.8022  -31.4351   16.6328 C   0  0  0  0  0  0  0  0  0  0  0  0
  -31.1565  -16.3651   20.0549 C   0  0  0  0  0  0  0  0  0  0  0  0
  -27.9714  -21.9854   19.4613 C   0  0  0  0  0  0  0  0  0  0  0  0
  -27.0925  -24.3816   19.2167 C   0  0  0  0  0  0  0  0  0  1  0  0
  -21.1615  -30.5192   21.4893 C   0  0  1  0  0  0  0  0  0  0  0  0
  -19.8152  -31.6498   18.1309 C   0  0  2  0  0  0  0  0  0  0  0  0
  -31.8176  -16.1827   21.4588 C   0  0  0  0  0  0  0  0  0  0  0  0
  -20.2410  -30.4777   22.7416 C   0  0  0  0  0  0  0  0  0  0  0  0
  -30.6599  -18.7072   19.8201 N   0  0  0  0  0  0  0  0  0  0  0  0
  -23.8290   -9.9043   22.0801 N   0  0  0  0  0  0  0  0  0  0  0  0
  -23.4595  -10.6685   21.0382 N   0  0  0  0  0  0  0  0  0  0  0  0
  -25.7618  -13.6808   21.5677 N   0  0  0  0  0  0  0  0  0  0  0  0
  -23.6277  -30.3311   21.5695 N   0  0  0  0  0  0  0  0  0  0  0  0
  -22.2129  -10.6418   19.0243 N   0  0  0  0  0  0  0  0  0  0  0  0
  -21.7089   -6.4461   20.6175 N   0  0  0  0  0  0  0  0  0  0  0  0
  -27.5311  -20.6196   19.5879 N   0  0  0  0  0  0  0  0  0  0  0  0
  -25.2742  -31.1538   24.3947 N   0  0  0  0  0  0  0  0  0  0  0  0
  -20.6047  -31.2604   20.3628 N   0  0  0  0  0  0  0  0  0  0  0  0
  -20.3240  -31.3613   16.7602 N   0  3  0  0  0  0  0  0  0  0  0  0
  -21.1712   -7.8606   18.8945 O   0  0  0  0  0  0  0  0  0  0  0  0
  -27.7774  -13.1430   20.5355 O   0  0  0  0  0  0  0  0  0  0  0  0
  -25.2404  -28.9983   23.5144 O   0  0  0  0  0  0  0  0  0  0  0  0
  -25.6148  -22.4930   19.3650 O   0  0  0  0  0  0  0  0  0  0  0  0
  -22.5558  -32.3097   22.1796 O   0  0  0  0  0  0  0  0  0  0  0  0
  -20.6695  -29.5064   18.8474 O   0  0  0  0  0  0  0  0  0  0  0  0
  -23.8877   -4.4294   25.3314 O   0  0  0  0  0  0  0  0  0  0  0  0
  -25.8954  -25.1504   19.1055 O   0  0  0  0  0  0  0  0  0  1  0  0
  -19.4020   -1.4904   26.6140 F   0  0  0  0  0  0  0  0  0  0  0  0
  -23.0291   -4.2220   27.9510 F   0  0  0  0  0  0  0  0  0  0  0  0
  1  2  1  0  0  0  0
  1  5  2  0  0  0  0
  2  6  2  0  0  0  0
  3  8  2  0  0  0  0
  3 17  1  0  0  0  0
  4  9  1  0  0  0  0
  4 17  2  0  0  0  0
  5 20  1  0  0  0  0
  6 22  1  0  0  0  0
  7 10  2  0  0  0  0
  7 21  1  0  0  0  0
  8 25  1  0  0  0  0
  9 25  2  0  0  0  0
 10 26  1  0  0  0  0
 11 12  2  0  0  0  0
 11 27  1  0  0  0  0
 12 28  1  0  0  0  0
 13 18  1  0  0  0  0
 13 24  2  0  0  0  0
 14 23  1  0  0  0  0
 14 26  2  0  0  0  0
 15 28  2  0  0  0  0
 15 29  1  0  0  0  0
 16 24  1  0  0  0  0
 16 68  2  0  0  0  0
 17 30  1  0  0  0  0
 18 31  2  0  0  0  0
 18 33  1  0  0  0  0
 19 30  1  0  0  0  0
 19 32  2  0  0  0  0
 19 35  1  0  0  0  0
 20 22  2  0  0  0  0
 20 41  1  0  0  0  0
 21 23  2  0  0  0  0
 21 42  1  0  0  0  0
 22 50  1  0  0  0  0
 23 43  1  0  0  0  0
 24 75  1  0  0  0  0
 25 85  1  0  0  0  0
 26 86  1  0  0  0  0
 27 29  2  0  0  0  0
 27 85  1  0  0  0  0
 28 87  1  0  0  0  0
 29 88  1  0  0  0  0
 30 69  2  0  0  0  0
 31 61  1  0  0  0  0
 31 68  1  0  0  0  0
 32 70  1  0  0  0  0
 32 73  1  0  0  0  0
 33 34  2  0  0  0  0
 34 36  1  0  0  0  0
 35 74  1  0  0  0  0
 35 79  2  0  0  0  0
 36 71  1  0  0  0  0
 36 80  2  0  0  0  0
 37 51  1  0  0  0  0
 37 76  1  0  0  0  0
 37 81  2  0  0  0  0
 38 62  1  0  0  0  0
 38 63  1  0  0  0  0
 38 82  2  0  0  0  0
 39 64  1  0  0  0  0
 39 72  1  0  0  0  0
 39 83  2  0  0  0  0
 40 65  1  0  0  0  0
 40 77  1  0  0  0  0
 40 84  2  0  0  0  0
 41 44  1  0  0  0  0
 42 51  1  0  0  0  0
 43 72  1  0  0  0  0
 44 46  1  0  0  0  0
 45 47  1  0  0  0  0
 45 48  1  0  0  0  0
 46 50  1  0  0  0  0
 47 52  1  0  0  0  0
 48 71  1  0  0  0  0
 49 52  1  0  0  0  0
 49 71  1  0  0  0  0
 50 76  1  0  0  0  0
 51 72  1  0  0  0  0
 52 70  1  0  0  0  0
 53 65  1  0  0  0  0
 54 66  1  0  0  0  0
 55 66  1  0  0  0  0
 56 66  1  0  0  0  0
 57 67  1  0  0  0  0
 58 67  1  0  0  0  0
 59 67  1  0  0  0  0
 60 78  1  0  0  0  0
 61 66  1  0  0  0  0
 62 75  1  0  0  0  0
 63 86  1  0  0  0  0
 64 67  1  0  0  0  0
 64 77  1  0  0  0  0
 65 78  1  0  0  0  0
 69 70  1  0  0  0  0
M  CHG  1  78   1
M  ISO  4  34 100  36 100  63 101  86 101
M  END
> <Batch ID>
0166

> <Smiles>
CNC(C)C(=O)NC(C(=O)N1Cc2cc([101O:1][101CH2:1]C(=O)CNc3cnc(CC(C)(C)C)c(C=[100CH:0][100C:0](=O)N4CCCC(n5nc(-c6ccc(Oc7ccc(F)cc7F)cc6)c(C(N)=O)c5N)C4)c3)ccc2CC1C(=O)NC1CCCc2ccccc21)C(C)(C)C

> <Shape>
0.302

> <Color>
0.054

> <Negative vol penalty>
0.000

$$$$

  -OEChem-04052304083D

 85 93  0     1  0  0  0  0  0999 V2000
  -16.7982  -29.2831   24.5461 C   0  0  0  0  0  0  0  0  0  0  0  0
  -17.8300  -28.3509   24.5882 C   0  0  0  0  0  0  0  0  0  0  0  0
  -32.5367  -17.5339   23.4462 C   0  0  0  0  0  0  0  0  0  0  0  0
  -23.0230   -9.8092   19.9847 C   0  0  0  0  0  0  0  0  0  0  0  0
  -23.6612   -9.9727   22.3091 C   0  0  0  0  0  0  0  0  0  0  0  0
  -31.7185  -18.4652   24.0855 C   0  0  0  0  0  0  0  0  0  0  0  0
  -16.8006  -30.2804   23.5717 C   0  0  0  0  0  0  0  0  0  0  0  0
  -18.8643  -28.4148   23.6552 C   0  0  0  0  0  0  0  0  0  0  0  0
  -24.7538  -27.0175   24.5867 C   0  0  0  0  0  0  0  0  0  0  0  0
  -31.9791  -16.5949   22.5783 C   0  0  0  0  0  0  0  0  0  0  0  0
  -22.2467   -8.6878   20.2767 C   0  0  0  0  0  0  0  0  0  0  0  0
  -22.8848   -8.8513   22.6012 C   0  0  0  0  0  0  0  0  0  0  0  0
  -25.5014  -25.8736   24.3105 C   0  0  0  0  0  0  0  0  0  0  0  0
  -23.1457   -5.4938   22.3009 C   0  0  0  0  0  0  0  0  0  0  0  0
  -23.7043   -4.5151   23.1228 C   0  0  0  0  0  0  0  0  0  0  0  0
  -26.2528  -26.8704   22.2463 C   0  0  0  0  0  0  0  0  0  0  0  0
  -21.9188   -4.8361   24.7185 C   0  0  0  0  0  0  0  0  0  0  0  0
  -23.7304  -10.4517   21.0009 C   0  0  0  0  0  0  0  0  0  0  0  0
  -30.3425  -18.4575   23.8570 C   0  0  0  0  0  0  0  0  0  0  0  0
  -24.1228  -12.9564   20.7179 C   0  0  0  0  0  0  0  0  0  0  0  0
  -17.8405  -30.3623   22.6323 C   0  0  0  0  0  0  0  0  0  0  0  0
  -24.7413  -28.0939   23.6880 C   0  0  0  0  0  0  0  0  0  0  0  0
  -18.8800  -29.4132   22.6666 C   0  0  0  0  0  0  0  0  0  0  0  0
  -25.5061  -28.0278   22.5146 C   0  0  0  0  0  0  0  0  0  0  0  0
  -30.6031  -16.5873   22.3499 C   0  0  0  0  0  0  0  0  0  0  0  0
  -22.1776   -8.2088   21.5849 C   0  0  0  0  0  0  0  0  0  0  0  0
  -26.2488  -25.7987   23.1388 C   0  0  0  0  0  0  0  0  0  0  0  0
  -21.9737   -6.1438   22.6878 C   0  0  0  0  0  0  0  0  0  0  0  0
  -23.0908   -4.1862   24.3316 C   0  0  0  0  0  0  0  0  0  0  0  0
  -21.3602   -5.8149   23.8966 C   0  0  0  0  0  0  0  0  0  0  0  0
  -29.7847  -17.5186   22.9892 C   0  0  0  0  0  0  0  0  0  0  0  0
  -24.5329  -11.6098   20.6998 C   0  0  0  0  0  0  0  0  0  0  0  0
  -25.2457  -13.6622   20.3608 C   0  0  0  0  0  0  0  0  0  0  0  0
  -29.4791  -19.4453   24.5349 C   0  0  0  0  0  0  0  0  0  0  0  0
  -22.8414  -13.5189   21.0297 C   0  0  0  0  0  0  0  0  0  0  0  0
  -22.5043  -29.5474   21.9599 C   0  0  0  0  0  0  0  0  0  0  0  0
  -27.8117  -22.4697   23.3930 C   0  0  0  0  0  0  0  0  0  0  0  0
  -24.9222  -31.5959   21.2671 C   0  0  0  0  0  0  0  0  0  0  0  0
  -28.2833  -32.1324   21.0187 C   0  0  0  0  0  0  0  0  0  0  0  0
  -30.7128  -14.6417   20.7533 C   0  0  0  0  0  0  0  0  0  0  0  0
  -17.7754  -31.4294   21.5685 C   0  0  0  0  0  0  0  0  0  0  0  0
  -23.9508  -29.3315   24.0134 C   0  0  0  0  0  0  0  0  0  0  0  0
  -25.5427  -29.1643   21.5268 C   0  0  0  0  0  0  0  0  0  0  0  0
  -19.1029  -31.6543   20.8492 C   0  0  0  0  0  0  0  0  0  0  0  0
  -29.6818  -12.0775   18.5085 C   0  0  0  0  0  0  0  0  0  0  0  0
  -19.7275  -30.3205   20.4520 C   0  0  0  0  0  0  0  0  0  0  0  0
  -28.2166  -11.8380   18.8800 C   0  0  0  0  0  0  0  0  0  0  0  0
  -30.5364  -12.3805   19.7380 C   0  0  0  0  0  0  0  0  0  0  0  0
  -28.5726  -13.2300   20.9591 C   0  0  0  0  0  0  0  0  0  0  0  0
  -20.0325  -29.4646   21.6872 C   0  0  1  0  0  0  0  0  0  0  0  0
  -23.6038  -30.1602   22.7804 C   0  0  1  0  0  0  0  0  0  0  0  0
  -27.6601  -12.9850   19.7462 C   0  0  2  0  0  0  0  0  0  0  0  0
  -29.9557  -33.8951   20.3915 C   0  0  0  0  0  0  0  0  0  0  0  0
  -24.3096  -31.1233   18.3156 C   0  0  0  0  0  0  0  0  0  0  0  0
  -26.5428  -32.1125   17.7654 C   0  0  0  0  0  0  0  0  0  0  0  0
  -24.8136  -33.4999   18.9088 C   0  0  0  0  0  0  0  0  0  0  0  0
  -29.4806  -32.1242   23.7253 C   0  0  0  0  0  0  0  0  0  0  0  0
  -27.8564  -21.2958   24.3357 C   0  0  0  0  0  0  0  0  0  0  0  0
  -26.9335  -23.6271   23.8252 C   0  0  0  0  0  0  0  0  0  1  0  0
  -25.9875  -31.6705   20.2001 C   0  0  1  0  0  0  0  0  0  0  0  0
  -29.1632  -33.2615   21.5242 C   0  0  2  0  0  0  0  0  0  0  0  0
  -25.4114  -32.0792   18.8149 C   0  0  0  0  0  0  0  0  0  0  0  0
  -25.8161  -11.4662   20.3581 N   0  0  0  0  0  0  0  0  0  0  0  0
  -26.2220  -12.7317   20.1581 N   0  0  0  0  0  0  0  0  0  0  0  0
  -24.7482  -30.3503   21.8868 N   0  0  0  0  0  0  0  0  0  0  0  0
  -29.9504  -13.4801   20.5076 N   0  0  0  0  0  0  0  0  0  0  0  0
  -25.4832  -14.9817   20.2036 N   0  0  0  0  0  0  0  0  0  0  0  0
  -21.7971  -12.6509   21.3767 N   0  0  0  0  0  0  0  0  0  0  0  0
  -30.0398  -15.6328   21.4670 N   0  0  0  0  0  0  0  0  0  0  0  0
  -28.7539  -20.2942   23.7851 N   0  0  0  0  0  0  0  0  0  0  0  0
  -21.2341  -29.9339   22.3431 N   0  0  0  0  0  0  0  0  0  0  0  0
  -27.0137  -32.5732   20.7103 N   0  0  0  0  0  0  0  0  0  0  0  0
  -29.4594  -19.4526   25.8678 N   0  3  0  0  0  0  0  0  0  0  0  0
  -30.1244  -32.7527   22.5431 N   0  3  0  0  0  0  0  0  0  0  0  0
  -22.6243  -14.7536   20.9855 O   0  0  0  0  0  0  0  0  0  0  0  0
  -22.7873  -28.7820   21.0458 O   0  0  0  0  0  0  0  0  0  0  0  0
  -28.4442  -22.4952   22.3382 O   0  0  0  0  0  0  0  0  0  0  0  0
  -24.2733  -32.6074   21.5456 O   0  0  0  0  0  0  0  0  0  0  0  0
  -28.6834  -30.9759   20.9051 O   0  0  0  0  0  0  0  0  0  0  0  0
  -31.8677  -14.7602   20.3361 O   0  0  0  0  0  0  0  0  0  0  0  0
  -21.4199   -7.1147   21.8702 O   0  0  0  0  0  0  0  0  0  0  0  0
  -26.9789  -24.6831   22.8664 O   0  0  0  0  0  0  0  0  0  1  0  0
  -23.6265   -3.2452   25.1201 F   0  0  0  0  0  0  0  0  0  0  0  0
  -20.2335   -6.4351   24.2730 F   0  0  0  0  0  0  0  0  0  0  0  0
  -28.4610  -17.5128   22.7703 F   0  0  0  0  0  0  0  0  0  0  0  0
  1  2  1  0  0  0  0
  1  7  2  0  0  0  0
  2  8  2  0  0  0  0
  3  6  2  0  0  0  0
  3 10  1  0  0  0  0
  4 11  2  0  0  0  0
  4 18  1  0  0  0  0
  5 12  1  0  0  0  0
  5 18  2  0  0  0  0
  6 19  1  0  0  0  0
  7 21  1  0  0  0  0
  8 23  1  0  0  0  0
  9 13  2  0  0  0  0
  9 22  1  0  0  0  0
 10 25  2  0  0  0  0
 11 26  1  0  0  0  0
 12 26  2  0  0  0  0
 13 27  1  0  0  0  0
 14 15  2  0  0  0  0
 14 28  1  0  0  0  0
 15 29  1  0  0  0  0
 16 24  1  0  0  0  0
 16 27  2  0  0  0  0
 17 29  2  0  0  0  0
 17 30  1  0  0  0  0
 18 32  1  0  0  0  0
 19 31  2  0  0  0  0
 19 34  1  0  0  0  0
 20 32  1  0  0  0  0
 20 33  2  0  0  0  0
 20 35  1  0  0  0  0
 21 23  2  0  0  0  0
 21 41  1  0  0  0  0
 22 24  2  0  0  0  0
 22 42  1  0  0  0  0
 23 50  1  0  0  0  0
 24 43  1  0  0  0  0
 25 31  1  0  0  0  0
 25 69  1  0  0  0  0
 26 81  1  0  0  0  0
 27 82  1  0  0  0  0
 28 30  2  0  0  0  0
 28 81  1  0  0  0  0
 29 83  1  0  0  0  0
 30 84  1  0  0  0  0
 31 85  1  0  0  0  0
 32 63  2  0  0  0  0
 33 64  1  0  0  0  0
 33 67  1  0  0  0  0
 34 70  1  0  0  0  0
 34 73  2  0  0  0  0
 35 68  1  0  0  0  0
 35 75  2  0  0  0  0
 36 51  1  0  0  0  0
 36 71  1  0  0  0  0
 36 76  2  0  0  0  0
 37 58  1  0  0  0  0
 37 59  1  0  0  0  0
 37 77  2  0  0  0  0
 38 60  1  0  0  0  0
 38 65  1  0  0  0  0
 38 78  2  0  0  0  0
 39 61  1  0  0  0  0
 39 72  1  0  0  0  0
 39 79  2  0  0  0  0
 40 66  1  0  0  0  0
 40 69  1  0  0  0  0
 40 80  2  0  0  0  0
 41 44  1  0  0  0  0
 42 51  1  0  0  0  0
 43 65  1  0  0  0  0
 44 46  1  0  0  0  0
 45 47  1  0  0  0  0
 45 48  1  0  0  0  0
 46 50  1  0  0  0  0
 47 52  1  0  0  0  0
 48 66  1  0  0  0  0
 49 52  1  0  0  0  0
 49 66  1  0  0  0  0
 50 71  1  0  0  0  0
 51 65  1  0  0  0  0
 52 64  1  0  0  0  0
 53 61  1  0  0  0  0
 54 62  1  0  0  0  0
 55 62  1  0  0  0  0
 56 62  1  0  0  0  0
 57 74  1  0  0  0  0
 58 70  1  0  0  0  0
 59 82  1  0  0  0  0
 60 62  1  0  0  0  0
 60 72  1  0  0  0  0
 61 74  1  0  0  0  0
 63 64  1  0  0  0  0
M  CHG  2  73   1  74   1
M  ISO  4  40 100  59 101  69 100  82 101
M  END
> <Batch ID>
0166

> <Smiles>
CNC(C)C(=O)NC(C(=O)N1Cc2cc([101O:1][101CH2:1]C(=O)CNC(=N)c3cccc([100NH:0][100C:0](=O)N4CCCC(n5nc(-c6ccc(Oc7ccc(F)cc7F)cc6)c(C(N)=O)c5N)C4)c3F)ccc2CC1C(=O)NC1CCCc2ccccc21)C(C)(C)C

> <Shape>
0.281

> <Color>
0.229

> <Negative vol penalty>
0.000

$$$$

  -OEChem-04052304083D

 87 95  0     1  0  0  0  0  0999 V2000
  -17.0138  -30.9786   23.8377 C   0  0  0  0  0  0  0  0  0  0  0  0
  -18.3660  -30.6922   23.6803 C   0  0  0  0  0  0  0  0  0  0  0  0
  -27.0291  -12.7048   21.0601 C   0  0  0  0  0  0  0  0  0  0  0  0
  -26.6813  -13.2799   18.7395 C   0  0  0  0  0  0  0  0  0  0  0  0
  -31.8877  -23.0230   17.3476 C   0  0  0  0  0  0  0  0  0  0  0  0
  -16.0630  -29.9777   23.6421 C   0  0  0  0  0  0  0  0  0  0  0  0
  -18.7684  -29.4043   23.3283 C   0  0  0  0  0  0  0  0  0  0  0  0
  -22.3054  -29.3966   19.7041 C   0  0  0  0  0  0  0  0  0  0  0  0
  -26.3344  -11.5105   20.8682 C   0  0  0  0  0  0  0  0  0  0  0  0
  -25.9866  -12.0857   18.5476 C   0  0  0  0  0  0  0  0  0  0  0  0
  -23.6124  -29.6919   20.0893 C   0  0  0  0  0  0  0  0  0  0  0  0
  -24.3411   -8.4762   21.0761 C   0  0  0  0  0  0  0  0  0  0  0  0
  -23.3975   -8.1116   22.0364 C   0  0  0  0  0  0  0  0  0  0  0  0
  -31.0027  -22.0635   17.8266 C   0  0  0  0  0  0  0  0  0  0  0  0
  -24.1372  -27.3373   20.0917 C   0  0  0  0  0  0  0  0  0  0  0  0
  -22.1681  -10.1452   21.6006 C   0  0  0  0  0  0  0  0  0  0  0  0
  -27.2025  -13.5895   19.9957 C   0  0  0  0  0  0  0  0  0  0  0  0
  -31.7022  -24.3600   17.6811 C   0  0  0  0  0  0  0  0  0  0  0  0
  -29.3024  -15.0374   20.0390 C   0  0  0  0  0  0  0  0  0  0  0  0
  -16.4533  -28.6793   23.2781 C   0  0  0  0  0  0  0  0  0  0  0  0
  -21.9008  -28.0666   19.5201 C   0  0  0  0  0  0  0  0  0  0  0  0
  -17.8220  -28.3848   23.1289 C   0  0  0  0  0  0  0  0  0  0  0  0
  -22.8252  -27.0280   19.7016 C   0  0  0  0  0  0  0  0  0  0  0  0
  -25.8132  -11.2010   19.6120 C   0  0  0  0  0  0  0  0  0  0  0  0
  -24.5277  -28.6620   20.2860 C   0  0  0  0  0  0  0  0  0  0  0  0
  -24.1982   -9.6754   20.3780 C   0  0  0  0  0  0  0  0  0  0  0  0
  -22.3110   -8.9460   22.2987 C   0  0  0  0  0  0  0  0  0  0  0  0
  -23.1117  -10.5099   20.6403 C   0  0  0  0  0  0  0  0  0  0  0  0
  -27.9196  -14.8235   20.1935 C   0  0  0  0  0  0  0  0  0  0  0  0
  -29.9565  -22.4893   18.6291 C   0  0  0  0  0  0  0  0  0  0  0  0
  -30.6246  -24.6830   18.4900 C   0  0  0  0  0  0  0  0  0  0  0  0
  -29.4803  -16.3655   20.3407 C   0  0  0  0  0  0  0  0  0  0  0  0
  -32.6344  -25.3576   17.1743 C   0  0  0  0  0  0  0  0  0  0  0  0
  -30.3339  -14.1177   19.6570 C   0  0  0  0  0  0  0  0  0  0  0  0
  -29.3309  -28.0263   19.5571 C   0  0  0  0  0  0  0  0  0  0  0  0
  -28.1191  -28.7947   20.0472 C   0  0  0  0  0  0  0  0  0  0  0  0
  -19.7420  -26.1702   20.8789 C   0  0  0  0  0  0  0  0  0  0  0  0
  -20.6345  -24.1206   18.5284 C   0  0  0  0  0  0  0  0  0  0  0  0
  -23.0208  -23.1329   16.2976 C   0  0  0  0  0  0  0  0  0  0  0  0
  -27.9464  -21.7021   19.9276 C   0  0  0  0  0  0  0  0  0  0  0  0
  -15.3922  -27.6187   23.1237 C   0  0  0  0  0  0  0  0  0  0  0  0
  -20.4947  -27.7663   19.0785 C   0  0  0  0  0  0  0  0  0  0  0  0
  -22.4465  -25.5846   19.4973 C   0  0  0  0  0  0  0  0  0  0  0  0
  -15.8782  -26.3738   22.3860 C   0  0  0  0  0  0  0  0  0  0  0  0
  -26.3065  -19.7300   22.3971 C   0  0  0  0  0  0  0  0  0  0  0  0
  -17.2299  -25.9239   22.9311 C   0  0  0  0  0  0  0  0  0  0  0  0
  -26.6937  -18.2953   22.0313 C   0  0  0  0  0  0  0  0  0  0  0  0
  -26.0920  -20.5937   21.1555 C   0  0  0  0  0  0  0  0  0  0  0  0
  -27.5922  -19.1563   19.8316 C   0  0  0  0  0  0  0  0  0  0  0  0
  -18.2963  -27.0061   22.7235 C   0  0  1  0  0  0  0  0  0  0  0  0
  -20.0516  -26.3469   19.4193 C   0  0  1  0  0  0  0  0  0  0  0  0
  -27.8822  -18.2651   21.0503 C   0  0  2  0  0  0  0  0  0  0  0  0
  -34.0490  -24.9215   16.9308 C   0  0  0  0  0  0  0  0  0  0  0  0
  -23.4769  -21.4030   14.5378 C   0  0  0  0  0  0  0  0  0  0  0  0
  -21.1487  -22.0453   20.7053 C   0  0  0  0  0  0  0  0  0  0  0  0
  -22.4670  -20.7238   19.0368 C   0  0  0  0  0  0  0  0  0  0  0  0
  -20.0395  -21.1492   18.6507 C   0  0  0  0  0  0  0  0  0  0  0  0
  -23.2994  -25.1872   14.1854 C   0  0  0  0  0  0  0  0  0  0  0  0
  -29.1766  -26.5517   19.2881 C   0  0  0  0  0  0  0  0  0  0  0  0
  -26.8242  -28.0458   20.2354 C   0  0  0  0  0  0  0  0  0  1  0  0
  -21.6877  -23.0483   18.3880 C   0  0  1  0  0  0  0  0  0  0  0  0
  -22.9406  -22.7980   14.8191 C   0  0  2  0  0  0  0  0  0  0  0  0
  -21.3426  -21.7686   19.2010 C   0  0  0  0  0  0  0  0  0  0  0  0
  -27.2654  -15.9273   20.5646 N   0  0  0  0  0  0  0  0  0  0  0  0
  -29.7439  -23.7789   18.9744 N   0  0  0  0  0  0  0  0  0  0  0  0
  -28.2415  -16.8475   20.6459 N   0  0  0  0  0  0  0  0  0  0  0  0
  -21.0582  -25.3418   19.0717 N   0  0  0  0  0  0  0  0  0  0  0  0
  -27.2599  -20.5194   20.2749 N   0  0  0  0  0  0  0  0  0  0  0  0
  -30.5739  -17.1562   20.3721 N   0  0  0  0  0  0  0  0  0  0  0  0
  -29.9774  -12.7904   19.3822 N   0  0  0  0  0  0  0  0  0  0  0  0
  -29.0600  -21.5040   19.1120 N   0  0  0  0  0  0  0  0  0  0  0  0
  -30.4328  -26.0145   18.8264 N   0  0  0  0  0  0  0  0  0  0  0  0
  -18.7511  -27.0106   21.3496 N   0  0  0  0  0  0  0  0  0  0  0  0
  -21.8503  -22.8207   16.9562 N   0  0  0  0  0  0  0  0  0  0  0  0
  -23.7343  -23.7760   14.0226 N   0  3  0  0  0  0  0  0  0  0  0  0
  -32.3487  -26.5318   16.9359 O   0  0  0  0  0  0  0  0  0  0  0  0
  -31.5384  -14.4588   19.5780 O   0  0  0  0  0  0  0  0  0  0  0  0
  -30.3692  -28.6589   19.4106 O   0  0  0  0  0  0  0  0  0  0  0  0
  -28.2596  -29.9917   20.2628 O   0  0  0  0  0  0  0  0  0  0  0  0
  -20.3554  -25.3324   21.5296 O   0  0  0  0  0  0  0  0  0  0  0  0
  -19.4800  -23.8860   18.1627 O   0  0  0  0  0  0  0  0  0  0  0  0
  -24.0230  -23.6191   16.8170 O   0  0  0  0  0  0  0  0  0  0  0  0
  -27.5898  -22.8063   20.3466 O   0  0  0  0  0  0  0  0  0  0  0  0
  -25.1354  -10.0356   19.4243 O   0  0  0  0  0  0  0  0  0  0  0  0
  -25.8039  -28.9474   20.6627 O   0  0  0  0  0  0  0  0  0  1  0  0
  -21.4041   -8.5950   23.2198 F   0  0  0  0  0  0  0  0  0  0  0  0
  -22.9685  -11.6626   19.9720 F   0  0  0  0  0  0  0  0  0  0  0  0
  1  2  1  0  0  0  0
  1  6  2  0  0  0  0
  2  7  2  0  0  0  0
  3  9  2  0  0  0  0
  3 17  1  0  0  0  0
  4 10  1  0  0  0  0
  4 17  2  0  0  0  0
  5 14  2  0  0  0  0
  5 18  1  0  0  0  0
  6 20  1  0  0  0  0
  7 22  1  0  0  0  0
  8 11  2  0  0  0  0
  8 21  1  0  0  0  0
  9 24  1  0  0  0  0
 10 24  2  0  0  0  0
 11 25  1  0  0  0  0
 12 13  2  0  0  0  0
 12 26  1  0  0  0  0
 13 27  1  0  0  0  0
 14 30  1  0  0  0  0
 15 23  1  0  0  0  0
 15 25  2  0  0  0  0
 16 27  2  0  0  0  0
 16 28  1  0  0  0  0
 17 29  1  0  0  0  0
 18 31  2  0  0  0  0
 18 33  1  0  0  0  0
 19 29  1  0  0  0  0
 19 32  2  0  0  0  0
 19 34  1  0  0  0  0
 20 22  2  0  0  0  0
 20 41  1  0  0  0  0
 21 23  2  0  0  0  0
 21 42  1  0  0  0  0
 22 50  1  0  0  0  0
 23 43  1  0  0  0  0
 24 84  1  0  0  0  0
 25 85  1  0  0  0  0
 26 28  2  0  0  0  0
 26 84  1  0  0  0  0
 27 86  1  0  0  0  0
 28 87  1  0  0  0  0
 29 64  2  0  0  0  0
 30 65  2  0  0  0  0
 30 71  1  0  0  0  0
 31 65  1  0  0  0  0
 31 72  1  0  0  0  0
 32 66  1  0  0  0  0
 32 69  1  0  0  0  0
 33 53  1  0  0  0  0
 33 76  2  0  0  0  0
 34 70  1  0  0  0  0
 34 77  2  0  0  0  0
 35 36  1  0  0  0  0
 35 59  1  0  0  0  0
 35 78  2  0  0  0  0
 36 60  1  0  0  0  0
 36 79  2  0  0  0  0
 37 51  1  0  0  0  0
 37 73  1  0  0  0  0
 37 80  2  0  0  0  0
 38 61  1  0  0  0  0
 38 67  1  0  0  0  0
 38 81  2  0  0  0  0
 39 62  1  0  0  0  0
 39 74  1  0  0  0  0
 39 82  2  0  0  0  0
 40 68  1  0  0  0  0
 40 71  1  0  0  0  0
 40 83  2  0  0  0  0
 41 44  1  0  0  0  0
 42 51  1  0  0  0  0
 43 67  1  0  0  0  0
 44 46  1  0  0  0  0
 45 47  1  0  0  0  0
 45 48  1  0  0  0  0
 46 50  1  0  0  0  0
 47 52  1  0  0  0  0
 48 68  1  0  0  0  0
 49 52  1  0  0  0  0
 49 68  1  0  0  0  0
 50 73  1  0  0  0  0
 51 67  1  0  0  0  0
 52 66  1  0  0  0  0
 54 62  1  0  0  0  0
 55 63  1  0  0  0  0
 56 63  1  0  0  0  0
 57 63  1  0  0  0  0
 58 75  1  0  0  0  0
 59 72  1  0  0  0  0
 60 85  1  0  0  0  0
 61 63  1  0  0  0  0
 61 74  1  0  0  0  0
 62 75  1  0  0  0  0
 64 66  1  0  0  0  0
M  CHG  1  75   1
M  ISO  4  40 100  60 101  71 100  85 101
M  END
> <Batch ID>
0166

> <Smiles>
CNC(C)C(=O)NC(C(=O)N1Cc2cc([101O:1][101CH2:1]C(=O)C(=O)CNc3nc([100NH:0][100C:0](=O)N4CCCC(n5nc(-c6ccc(Oc7ccc(F)cc7F)cc6)c(C(N)=O)c5N)C4)ccc3C(C)=O)ccc2CC1C(=O)NC1CCCc2ccccc21)C(C)(C)C

> <Shape>
0.283

> <Color>
0.064

> <Negative vol penalty>
0.000

$$$$

  -OEChem-04052304083D

 85 93  0     1  0  0  0  0  0999 V2000
  -16.7640  -29.1949   24.5986 C   0  0  0  0  0  0  0  0  0  0  0  0
  -17.8053  -28.2729   24.6308 C   0  0  0  0  0  0  0  0  0  0  0  0
  -23.0894   -9.8065   20.0147 C   0  0  0  0  0  0  0  0  0  0  0  0
  -23.7552   -9.9787   22.3308 C   0  0  0  0  0  0  0  0  0  0  0  0
  -16.7459  -30.1905   23.6227 C   0  0  0  0  0  0  0  0  0  0  0  0
  -18.8285  -28.3453   23.6863 C   0  0  0  0  0  0  0  0  0  0  0  0
  -24.7414  -27.0073   24.5547 C   0  0  0  0  0  0  0  0  0  0  0  0
  -22.3226   -8.6818   20.3188 C   0  0  0  0  0  0  0  0  0  0  0  0
  -22.9883   -8.8540   22.6349 C   0  0  0  0  0  0  0  0  0  0  0  0
  -25.4971  -25.8703   24.2721 C   0  0  0  0  0  0  0  0  0  0  0  0
  -19.3085   -8.0215   21.7017 C   0  0  0  0  0  0  0  0  0  0  0  0
  -18.0220   -7.9503   21.1674 C   0  0  0  0  0  0  0  0  0  0  0  0
  -29.8447  -17.5559   22.9179 C   0  0  0  0  0  0  0  0  0  0  0  0
  -31.7837  -18.5198   23.9892 C   0  0  0  0  0  0  0  0  0  0  0  0
  -26.2157  -26.8709   22.1980 C   0  0  0  0  0  0  0  0  0  0  0  0
  -32.0410  -16.6479   22.4836 C   0  0  0  0  0  0  0  0  0  0  0  0
  -18.6125   -5.9089   20.0179 C   0  0  0  0  0  0  0  0  0  0  0  0
  -23.8058  -10.4550   21.0207 C   0  0  0  0  0  0  0  0  0  0  0  0
  -30.4053  -18.5012   23.7768 C   0  0  0  0  0  0  0  0  0  0  0  0
  -24.1817  -12.9610   20.7272 C   0  0  0  0  0  0  0  0  0  0  0  0
  -17.7745  -30.2810   22.6717 C   0  0  0  0  0  0  0  0  0  0  0  0
  -24.7084  -28.0820   23.6544 C   0  0  0  0  0  0  0  0  0  0  0  0
  -18.8235  -29.3422   22.6959 C   0  0  0  0  0  0  0  0  0  0  0  0
  -25.4608  -28.0214   22.4727 C   0  0  0  0  0  0  0  0  0  0  0  0
  -30.6625  -16.6292   22.2713 C   0  0  0  0  0  0  0  0  0  0  0  0
  -22.2720   -8.2055   21.6288 C   0  0  0  0  0  0  0  0  0  0  0  0
  -26.2321  -25.8008   23.0922 C   0  0  0  0  0  0  0  0  0  0  0  0
  -20.2470   -7.0364   21.3941 C   0  0  0  0  0  0  0  0  0  0  0  0
  -17.6740   -6.8940   20.3255 C   0  0  0  0  0  0  0  0  0  0  0  0
  -32.6016  -17.5931   23.3426 C   0  0  0  0  0  0  0  0  0  0  0  0
  -19.8990   -5.9801   20.5522 C   0  0  0  0  0  0  0  0  0  0  0  0
  -24.5986  -11.6165   20.7072 C   0  0  0  0  0  0  0  0  0  0  0  0
  -25.2964  -13.6717   20.3548 C   0  0  0  0  0  0  0  0  0  0  0  0
  -29.5398  -19.4816   24.4626 C   0  0  0  0  0  0  0  0  0  0  0  0
  -22.9013  -13.5176   21.0534 C   0  0  0  0  0  0  0  0  0  0  0  0
  -22.4382  -29.5106   21.9489 C   0  0  0  0  0  0  0  0  0  0  0  0
  -27.8303  -22.4877   23.3345 C   0  0  0  0  0  0  0  0  0  0  0  0
  -24.8281  -31.5814   21.2260 C   0  0  0  0  0  0  0  0  0  0  0  0
  -28.1809  -32.1504   20.9396 C   0  0  0  0  0  0  0  0  0  0  0  0
  -30.7628  -14.6805   20.6780 C   0  0  0  0  0  0  0  0  0  0  0  0
  -17.6871  -31.3456   21.6069 C   0  0  0  0  0  0  0  0  0  0  0  0
  -23.9095  -29.3123   23.9866 C   0  0  0  0  0  0  0  0  0  0  0  0
  -25.4753  -29.1564   21.4828 C   0  0  0  0  0  0  0  0  0  0  0  0
  -19.0043  -31.5822   20.8726 C   0  0  0  0  0  0  0  0  0  0  0  0
  -29.7178  -12.1057   18.4519 C   0  0  0  0  0  0  0  0  0  0  0  0
  -19.6375  -30.2539   20.4706 C   0  0  0  0  0  0  0  0  0  0  0  0
  -28.2585  -11.8595   18.8418 C   0  0  0  0  0  0  0  0  0  0  0  0
  -30.5857  -12.4160   19.6701 C   0  0  0  0  0  0  0  0  0  0  0  0
  -28.6326  -13.2583   20.9132 C   0  0  0  0  0  0  0  0  0  0  0  0
  -19.9645  -29.4031   21.7038 C   0  0  1  0  0  0  0  0  0  0  0  0
  -23.5408  -30.1355   22.7562 C   0  0  1  0  0  0  0  0  0  0  0  0
  -27.7067  -13.0056   19.7122 C   0  0  2  0  0  0  0  0  0  0  0  0
  -29.8289  -33.9282   20.2910 C   0  0  0  0  0  0  0  0  0  0  0  0
  -24.1876  -31.0978   18.2823 C   0  0  0  0  0  0  0  0  0  0  0  0
  -26.4048  -32.1078   17.7058 C   0  0  0  0  0  0  0  0  0  0  0  0
  -24.6748  -33.4803   18.8661 C   0  0  0  0  0  0  0  0  0  0  0  0
  -29.4081  -32.1586   23.6327 C   0  0  0  0  0  0  0  0  0  0  0  0
  -27.8969  -21.3158   24.2785 C   0  0  0  0  0  0  0  0  0  0  0  0
  -26.9457  -23.6371   23.7745 C   0  0  0  0  0  0  0  0  0  1  0  0
  -25.8808  -31.6646   20.1471 C   0  0  1  0  0  0  0  0  0  0  0  0
  -29.0552  -33.2889   21.4335 C   0  0  2  0  0  0  0  0  0  0  0  0
  -25.2854  -32.0653   18.7679 C   0  0  0  0  0  0  0  0  0  0  0  0
  -25.8783  -11.4788   20.3501 N   0  0  0  0  0  0  0  0  0  0  0  0
  -26.2751  -12.7458   20.1422 N   0  0  0  0  0  0  0  0  0  0  0  0
  -24.6732  -30.3353   21.8496 N   0  0  0  0  0  0  0  0  0  0  0  0
  -30.0035  -13.5144   20.4443 N   0  0  0  0  0  0  0  0  0  0  0  0
  -25.5252  -14.9921   20.1916 N   0  0  0  0  0  0  0  0  0  0  0  0
  -21.8659  -12.6450   21.4152 N   0  0  0  0  0  0  0  0  0  0  0  0
  -30.0934  -15.6698   21.3976 N   0  0  0  0  0  0  0  0  0  0  0  0
  -28.7980  -20.3221   23.7196 N   0  0  0  0  0  0  0  0  0  0  0  0
  -21.1687  -29.8853   22.3456 N   0  0  0  0  0  0  0  0  0  0  0  0
  -26.9037  -32.5782   20.6445 N   0  0  0  0  0  0  0  0  0  0  0  0
  -29.5348  -19.4910   25.7957 N   0  3  0  0  0  0  0  0  0  0  0  0
  -30.0326  -32.7912   22.4425 N   0  3  0  0  0  0  0  0  0  0  0  0
  -22.6773  -14.7511   21.0091 O   0  0  0  0  0  0  0  0  0  0  0  0
  -22.7186  -28.7464   21.0329 O   0  0  0  0  0  0  0  0  0  0  0  0
  -28.4508  -22.5175   22.2727 O   0  0  0  0  0  0  0  0  0  0  0  0
  -24.1725  -32.5870   21.5101 O   0  0  0  0  0  0  0  0  0  0  0  0
  -28.5910  -30.9977   20.8234 O   0  0  0  0  0  0  0  0  0  0  0  0
  -31.9119  -14.8040   20.2464 O   0  0  0  0  0  0  0  0  0  0  0  0
  -21.5236   -7.1081   21.9260 O   0  0  0  0  0  0  0  0  0  0  0  0
  -26.9701  -24.6919   22.8136 O   0  0  0  0  0  0  0  0  0  1  0  0
  -16.4381   -6.8249   19.8137 F   0  0  0  0  0  0  0  0  0  0  0  0
  -33.9253  -17.6111   23.5466 F   0  0  0  0  0  0  0  0  0  0  0  0
  -20.7959   -5.0302   20.2540 F   0  0  0  0  0  0  0  0  0  0  0  0
  1  2  1  0  0  0  0
  1  5  2  0  0  0  0
  2  6  2  0  0  0  0
  3  8  2  0  0  0  0
  3 18  1  0  0  0  0
  4  9  1  0  0  0  0
  4 18  2  0  0  0  0
  5 21  1  0  0  0  0
  6 23  1  0  0  0  0
  7 10  2  0  0  0  0
  7 22  1  0  0  0  0
  8 26  1  0  0  0  0
  9 26  2  0  0  0  0
 10 27  1  0  0  0  0
 11 12  2  0  0  0  0
 11 28  1  0  0  0  0
 12 29  1  0  0  0  0
 13 19  2  0  0  0  0
 13 25  1  0  0  0  0
 14 19  1  0  0  0  0
 14 30  2  0  0  0  0
 15 24  1  0  0  0  0
 15 27  2  0  0  0  0
 16 25  2  0  0  0  0
 16 30  1  0  0  0  0
 17 29  2  0  0  0  0
 17 31  1  0  0  0  0
 18 32  1  0  0  0  0
 19 34  1  0  0  0  0
 20 32  1  0  0  0  0
 20 33  2  0  0  0  0
 20 35  1  0  0  0  0
 21 23  2  0  0  0  0
 21 41  1  0  0  0  0
 22 24  2  0  0  0  0
 22 42  1  0  0  0  0
 23 50  1  0  0  0  0
 24 43  1  0  0  0  0
 25 69  1  0  0  0  0
 26 81  1  0  0  0  0
 27 82  1  0  0  0  0
 28 31  2  0  0  0  0
 28 81  1  0  0  0  0
 29 83  1  0  0  0  0
 30 84  1  0  0  0  0
 31 85  1  0  0  0  0
 32 63  2  0  0  0  0
 33 64  1  0  0  0  0
 33 67  1  0  0  0  0
 34 70  1  0  0  0  0
 34 73  2  0  0  0  0
 35 68  1  0  0  0  0
 35 75  2  0  0  0  0
 36 51  1  0  0  0  0
 36 71  1  0  0  0  0
 36 76  2  0  0  0  0
 37 58  1  0  0  0  0
 37 59  1  0  0  0  0
 37 77  2  0  0  0  0
 38 60  1  0  0  0  0
 38 65  1  0  0  0  0
 38 78  2  0  0  0  0
 39 61  1  0  0  0  0
 39 72  1  0  0  0  0
 39 79  2  0  0  0  0
 40 66  1  0  0  0  0
 40 69  1  0  0  0  0
 40 80  2  0  0  0  0
 41 44  1  0  0  0  0
 42 51  1  0  0  0  0
 43 65  1  0  0  0  0
 44 46  1  0  0  0  0
 45 47  1  0  0  0  0
 45 48  1  0  0  0  0
 46 50  1  0  0  0  0
 47 52  1  0  0  0  0
 48 66  1  0  0  0  0
 49 52  1  0  0  0  0
 49 66  1  0  0  0  0
 50 71  1  0  0  0  0
 51 65  1  0  0  0  0
 52 64  1  0  0  0  0
 53 61  1  0  0  0  0
 54 62  1  0  0  0  0
 55 62  1  0  0  0  0
 56 62  1  0  0  0  0
 57 74  1  0  0  0  0
 58 70  1  0  0  0  0
 59 82  1  0  0  0  0
 60 62  1  0  0  0  0
 60 72  1  0  0  0  0
 61 74  1  0  0  0  0
 63 64  1  0  0  0  0
M  CHG  2  73   1  74   1
M  ISO  4  40 100  59 101  69 100  82 101
M  END
> <Batch ID>
0166

> <Smiles>
CNC(C)C(=O)NC(C(=O)N1Cc2cc([101O:1][101CH2:1]C(=O)CNC(=N)c3cc(F)cc([100NH:0][100C:0](=O)N4CCCC(n5nc(-c6ccc(Oc7ccc(F)cc7F)cc6)c(C(N)=O)c5N)C4)c3)ccc2CC1C(=O)NC1CCCc2ccccc21)C(C)(C)C

> <Shape>
0.250

> <Color>
0.219

> <Negative vol penalty>
0.000

$$$$

  -OEChem-04052304083D

 85 94  0     1  0  0  0  0  0999 V2000
  -28.7962  -33.0817   25.4060 C   0  0  0  0  0  0  0  0  0  0  0  0
  -28.7496  -31.8428   24.7749 C   0  0  0  0  0  0  0  0  0  0  0  0
  -25.6115  -19.2982   17.9868 C   0  0  0  0  0  0  0  0  0  0  0  0
  -23.0243   -9.9655   19.8869 C   0  0  0  0  0  0  0  0  0  0  0  0
  -24.6223   -9.2001   21.5293 C   0  0  0  0  0  0  0  0  0  0  0  0
  -27.6286  -33.6465   25.9175 C   0  0  0  0  0  0  0  0  0  0  0  0
  -27.5355  -31.1674   24.6560 C   0  0  0  0  0  0  0  0  0  0  0  0
  -26.5352  -20.3380   18.0920 C   0  0  0  0  0  0  0  0  0  0  0  0
  -26.8368  -29.2268   20.0309 C   0  0  0  0  0  0  0  0  0  0  0  0
  -25.9544  -18.0149   18.4128 C   0  0  0  0  0  0  0  0  0  0  0  0
  -21.9830   -9.4554   20.6622 C   0  0  0  0  0  0  0  0  0  0  0  0
  -23.5811   -8.6900   22.3047 C   0  0  0  0  0  0  0  0  0  0  0  0
  -27.5146  -28.0472   19.7263 C   0  0  0  0  0  0  0  0  0  0  0  0
  -21.5882   -5.9589   22.3132 C   0  0  0  0  0  0  0  0  0  0  0  0
  -21.7447   -4.6801   22.8480 C   0  0  0  0  0  0  0  0  0  0  0  0
  -28.1447  -18.8114   19.0491 C   0  0  0  0  0  0  0  0  0  0  0  0
  -25.5025  -26.7875   20.1554 C   0  0  0  0  0  0  0  0  0  0  0  0
  -21.5281   -5.5859   25.0773 C   0  0  0  0  0  0  0  0  0  0  0  0
  -24.3439   -9.8379   20.3204 C   0  0  0  0  0  0  0  0  0  0  0  0
  -25.7543  -10.0018   18.2010 C   0  0  0  0  0  0  0  0  0  0  0  0
  -27.8019  -20.0946   18.6232 C   0  0  0  0  0  0  0  0  0  0  0  0
  -26.3980  -32.9821   25.7963 C   0  0  0  0  0  0  0  0  0  0  0  0
  -25.4874  -29.1945   20.4113 C   0  0  0  0  0  0  0  0  0  0  0  0
  -26.3505  -31.7232   25.1676 C   0  0  0  0  0  0  0  0  0  0  0  0
  -24.8092  -27.9683   20.4619 C   0  0  0  0  0  0  0  0  0  0  0  0
  -27.2210  -17.7716   18.9439 C   0  0  0  0  0  0  0  0  0  0  0  0
  -22.2614   -8.8176   21.8711 C   0  0  0  0  0  0  0  0  0  0  0  0
  -26.8482  -26.8270   19.7914 C   0  0  0  0  0  0  0  0  0  0  0  0
  -21.4016   -7.0511   23.1605 C   0  0  0  0  0  0  0  0  0  0  0  0
  -21.7146   -4.4936   24.2300 C   0  0  0  0  0  0  0  0  0  0  0  0
  -21.3716   -6.8646   24.5425 C   0  0  0  0  0  0  0  0  0  0  0  0
  -25.4200  -10.3642   19.5196 C   0  0  0  0  0  0  0  0  0  0  0  0
  -26.8425  -10.7822   17.8959 C   0  0  0  0  0  0  0  0  0  0  0  0
  -29.3917  -24.3959   18.8507 C   0  0  0  0  0  0  0  0  0  0  0  0
  -25.1363   -9.0452   17.3299 C   0  0  0  0  0  0  0  0  0  0  0  0
  -23.8729  -30.0152   23.0235 C   0  0  0  0  0  0  0  0  0  0  0  0
  -21.2982  -29.3026   21.1836 C   0  0  0  0  0  0  0  0  0  0  0  0
  -20.0257  -27.5913   18.5192 C   0  0  0  0  0  0  0  0  0  0  0  0
  -28.7820  -16.0563   19.9275 C   0  0  0  0  0  0  0  0  0  0  0  0
  -25.1704  -33.6107   26.4068 C   0  0  0  0  0  0  0  0  0  0  0  0
  -24.7633  -30.4784   20.7108 C   0  0  0  0  0  0  0  0  0  0  0  0
  -23.3552  -27.8815   20.8450 C   0  0  0  0  0  0  0  0  0  0  0  0
  -29.3335  -23.3986   19.9862 C   0  0  0  0  0  0  0  0  0  0  0  0
  -23.8623  -33.0020   25.9080 C   0  0  0  0  0  0  0  0  0  0  0  0
  -28.2982  -22.3151   19.7047 C   0  0  0  0  0  0  0  0  0  0  0  0
  -30.5704  -12.9776   19.9496 C   0  0  0  0  0  0  0  0  0  0  0  0
  -23.9406  -31.4788   25.9279 C   0  0  0  0  0  0  0  0  0  0  0  0
  -29.4838  -11.9255   19.7157 C   0  0  0  0  0  0  0  0  0  0  0  0
  -29.1847  -21.7691   17.3427 C   0  0  0  0  0  0  0  0  0  0  0  0
  -30.3194  -22.7907   17.3728 C   0  0  0  0  0  0  0  0  0  0  0  0
  -30.0684  -14.1272   20.8214 C   0  0  0  0  0  0  0  0  0  0  0  0
  -27.7428  -13.7116   20.1227 C   0  0  0  0  0  0  0  0  0  0  0  0
  -28.8098  -21.2300   18.7378 C   0  0  2  0  0  0  0  0  0  0  0  0
  -25.0485  -30.9711   24.9971 C   0  0  1  0  0  0  0  0  0  0  0  0
  -23.5290  -30.2784   21.5847 C   0  0  1  0  0  0  0  0  0  0  0  0
  -28.1817  -12.5659   19.1962 C   0  0  2  0  0  0  0  0  0  0  0  0
  -17.8795  -27.1791   17.2858 C   0  0  0  0  0  0  0  0  0  0  0  0
  -20.3773  -27.4363   23.4149 C   0  0  0  0  0  0  0  0  0  0  0  0
  -18.8074  -26.3712   21.7811 C   0  0  0  0  0  0  0  0  0  0  0  0
  -18.5523  -28.7837   22.3621 C   0  0  0  0  0  0  0  0  0  0  0  0
  -21.1123  -28.7297   16.0127 C   0  0  0  0  0  0  0  0  0  0  0  0
  -28.8811  -25.7879   19.1253 C   0  0  0  0  0  0  0  0  0  1  0  0
  -20.4909  -28.0564   20.9112 C   0  0  1  0  0  0  0  0  0  0  0  0
  -19.1357  -28.0320   17.3710 C   0  0  2  0  0  0  0  0  0  0  0  0
  -19.5849  -27.6630   22.1119 C   0  0  0  0  0  0  0  0  0  0  0  0
  -26.2303  -11.3018   20.0179 N   0  0  0  0  0  0  0  0  0  0  0  0
  -29.8235  -24.1318   17.6668 N   0  0  0  0  0  0  0  0  0  0  0  0
  -27.0847  -11.5351   19.0071 N   0  0  0  0  0  0  0  0  0  0  0  0
  -22.6925  -29.1639   21.1349 N   0  0  0  0  0  0  0  0  0  0  0  0
  -28.8347  -14.6874   20.2654 N   0  0  0  0  0  0  0  0  0  0  0  0
  -27.6063  -10.8910   16.7881 N   0  0  0  0  0  0  0  0  0  0  0  0
  -25.5983   -7.7223   17.3552 N   0  0  0  0  0  0  0  0  0  0  0  0
  -27.5687  -16.4680   19.3772 N   0  0  0  0  0  0  0  0  0  0  0  0
  -24.6120  -31.0200   23.6182 N   0  0  0  0  0  0  0  0  0  0  0  0
  -19.7644  -28.3038   19.6704 N   0  0  0  0  0  0  0  0  0  0  0  0
  -19.8670  -27.9222   16.0771 N   0  3  0  0  0  0  0  0  0  0  0  0
  -24.2132   -9.3582   16.5403 O   0  0  0  0  0  0  0  0  0  0  0  0
  -23.4945  -28.9780   23.5552 O   0  0  0  0  0  0  0  0  0  0  0  0
  -20.7132  -30.3618   21.4235 O   0  0  0  0  0  0  0  0  0  0  0  0
  -20.8660  -26.7014   18.4070 O   0  0  0  0  0  0  0  0  0  0  0  0
  -29.7517  -16.8020   20.0874 O   0  0  0  0  0  0  0  0  0  0  0  0
  -21.2456   -8.3199   22.6281 O   0  0  0  0  0  0  0  0  0  0  0  0
  -27.5076  -25.6740   19.4952 O   0  0  0  0  0  0  0  0  0  1  0  0
  -21.8634   -3.2654   24.7433 F   0  0  0  0  0  0  0  0  0  0  0  0
  -21.1915   -7.9099   25.3615 F   0  0  0  0  0  0  0  0  0  0  0  0
  1  2  1  0  0  0  0
  1  6  2  0  0  0  0
  2  7  2  0  0  0  0
  3  8  2  0  0  0  0
  3 10  1  0  0  0  0
  4 11  2  0  0  0  0
  4 19  1  0  0  0  0
  5 12  1  0  0  0  0
  5 19  2  0  0  0  0
  6 22  1  0  0  0  0
  7 24  1  0  0  0  0
  8 21  1  0  0  0  0
  9 13  2  0  0  0  0
  9 23  1  0  0  0  0
 10 26  2  0  0  0  0
 11 27  1  0  0  0  0
 12 27  2  0  0  0  0
 13 28  1  0  0  0  0
 14 15  2  0  0  0  0
 14 29  1  0  0  0  0
 15 30  1  0  0  0  0
 16 21  2  0  0  0  0
 16 26  1  0  0  0  0
 17 25  1  0  0  0  0
 17 28  2  0  0  0  0
 18 30  2  0  0  0  0
 18 31  1  0  0  0  0
 19 32  1  0  0  0  0
 20 32  1  0  0  0  0
 20 33  2  0  0  0  0
 20 35  1  0  0  0  0
 21 53  1  0  0  0  0
 22 24  2  0  0  0  0
 22 40  1  0  0  0  0
 23 25  2  0  0  0  0
 23 41  1  0  0  0  0
 24 54  1  0  0  0  0
 25 42  1  0  0  0  0
 26 73  1  0  0  0  0
 27 82  1  0  0  0  0
 28 83  1  0  0  0  0
 29 31  2  0  0  0  0
 29 82  1  0  0  0  0
 30 84  1  0  0  0  0
 31 85  1  0  0  0  0
 32 66  2  0  0  0  0
 33 68  1  0  0  0  0
 33 71  1  0  0  0  0
 34 43  1  0  0  0  0
 34 62  1  0  0  0  0
 34 67  2  0  0  0  0
 35 72  1  0  0  0  0
 35 77  2  0  0  0  0
 36 55  1  0  0  0  0
 36 74  1  0  0  0  0
 36 78  2  0  0  0  0
 37 63  1  0  0  0  0
 37 69  1  0  0  0  0
 37 79  2  0  0  0  0
 38 64  1  0  0  0  0
 38 75  1  0  0  0  0
 38 80  2  0  0  0  0
 39 70  1  0  0  0  0
 39 73  1  0  0  0  0
 39 81  2  0  0  0  0
 40 44  1  0  0  0  0
 41 55  1  0  0  0  0
 42 69  1  0  0  0  0
 43 45  1  0  0  0  0
 44 47  1  0  0  0  0
 45 53  1  0  0  0  0
 46 48  1  0  0  0  0
 46 51  1  0  0  0  0
 47 54  1  0  0  0  0
 48 56  1  0  0  0  0
 49 50  1  0  0  0  0
 49 53  1  0  0  0  0
 50 67  1  0  0  0  0
 51 70  1  0  0  0  0
 52 56  1  0  0  0  0
 52 70  1  0  0  0  0
 54 74  1  0  0  0  0
 55 69  1  0  0  0  0
 56 68  1  0  0  0  0
 57 64  1  0  0  0  0
 58 65  1  0  0  0  0
 59 65  1  0  0  0  0
 60 65  1  0  0  0  0
 61 76  1  0  0  0  0
 62 83  1  0  0  0  0
 63 65  1  0  0  0  0
 63 75  1  0  0  0  0
 64 76  1  0  0  0  0
 66 68  1  0  0  0  0
M  CHG  1  76   1
M  ISO  4  39 100  62 101  73 100  83 101
M  END
> <Batch ID>
0166

> <Smiles>
CNC(C)C(=O)NC(C(=O)N1Cc2cc([101O:1][101CH2:1]C3=NCCC(c4cccc([100NH:0][100C:0](=O)N5CCCC(n6nc(-c7ccc(Oc8ccc(F)cc8F)cc7)c(C(N)=O)c6N)C5)c4)CC3)ccc2CC1C(=O)NC1CCCc2ccccc21)C(C)(C)C

> <Shape>
0.363

> <Color>
0.108

> <Negative vol penalty>
0.000

$$$$

  -OEChem-04052304083D

 84 92  0     1  0  0  0  0  0999 V2000
  -22.6564  -10.7678   18.7787 C   0  0  0  0  0  0  0  0  0  0  0  0
  -22.1614  -12.0679   18.7704 C   0  0  0  0  0  0  0  0  0  0  0  0
  -29.0894  -25.9200   19.6712 C   0  0  0  0  0  0  0  0  0  0  0  0
  -30.4617  -27.0493   21.3079 C   0  0  0  0  0  0  0  0  0  0  0  0
  -23.8152  -10.4689   19.4940 C   0  0  0  0  0  0  0  0  0  0  0  0
  -22.8245  -13.0697   19.4782 C   0  0  0  0  0  0  0  0  0  0  0  0
  -23.3458  -18.9641   17.8999 C   0  0  0  0  0  0  0  0  0  0  0  0
  -30.2368  -25.5067   18.9943 C   0  0  0  0  0  0  0  0  0  0  0  0
  -31.6092  -26.6359   20.6309 C   0  0  0  0  0  0  0  0  0  0  0  0
  -22.6476  -20.1054   18.2919 C   0  0  0  0  0  0  0  0  0  0  0  0
  -33.3460  -27.5557   17.8799 C   0  0  0  0  0  0  0  0  0  0  0  0
  -34.3517  -28.4998   17.6727 C   0  0  0  0  0  0  0  0  0  0  0  0
  -20.6586  -26.5954   22.7011 C   0  0  0  0  0  0  0  0  0  0  0  0
  -24.3553  -20.5806   19.9281 C   0  0  0  0  0  0  0  0  0  0  0  0
  -35.8970  -27.1285   18.9251 C   0  0  0  0  0  0  0  0  0  0  0  0
  -29.2019  -26.6913   20.8280 C   0  0  0  0  0  0  0  0  0  0  0  0
  -19.8647  -27.7646   22.7761 C   0  0  0  0  0  0  0  0  0  0  0  0
  -27.3467  -26.4368   22.5604 C   0  0  0  0  0  0  0  0  0  0  0  0
  -24.4982  -11.4695   20.2031 C   0  0  0  0  0  0  0  0  0  0  0  0
  -24.5505  -18.6160   18.5276 C   0  0  0  0  0  0  0  0  0  0  0  0
  -23.9928  -12.7837   20.2048 C   0  0  0  0  0  0  0  0  0  0  0  0
  -25.0681  -19.4358   19.5405 C   0  0  0  0  0  0  0  0  0  0  0  0
  -31.4967  -25.8647   19.4741 C   0  0  0  0  0  0  0  0  0  0  0  0
  -23.1508  -20.9123   19.3082 C   0  0  0  0  0  0  0  0  0  0  0  0
  -33.6158  -26.3980   18.6098 C   0  0  0  0  0  0  0  0  0  0  0  0
  -35.6272  -28.2862   18.1953 C   0  0  0  0  0  0  0  0  0  0  0  0
  -34.8913  -26.1844   19.1324 C   0  0  0  0  0  0  0  0  0  0  0  0
  -28.0170  -27.1191   21.5274 C   0  0  0  0  0  0  0  0  0  0  0  0
  -18.6460  -27.3676   23.2752 C   0  0  0  0  0  0  0  0  0  0  0  0
  -26.2910  -27.2540   22.8831 C   0  0  0  0  0  0  0  0  0  0  0  0
  -19.8686  -25.5671   23.1601 C   0  0  0  0  0  0  0  0  0  0  0  0
  -20.2335  -29.1543   22.4022 C   0  0  0  0  0  0  0  0  0  0  0  0
  -27.6513  -25.1771   23.1736 C   0  0  0  0  0  0  0  0  0  0  0  0
  -25.5504  -16.1341   20.2434 C   0  0  0  0  0  0  0  0  0  0  0  0
  -21.3420  -23.1136   21.5417 C   0  0  0  0  0  0  0  0  0  0  0  0
  -28.4118  -17.6498   20.0491 C   0  0  0  0  0  0  0  0  0  0  0  0
  -30.1183  -20.5713   19.6028 C   0  0  0  0  0  0  0  0  0  0  0  0
  -22.0593  -30.5384   21.4671 C   0  0  0  0  0  0  0  0  0  0  0  0
  -25.7205  -11.0887   21.0003 C   0  0  0  0  0  0  0  0  0  0  0  0
  -25.3051  -17.3962   18.0748 C   0  0  0  0  0  0  0  0  0  0  0  0
  -26.3675  -19.1171   20.2321 C   0  0  0  0  0  0  0  0  0  0  0  0
  -26.5723  -12.2847   21.4179 C   0  0  0  0  0  0  0  0  0  0  0  0
  -25.2689  -32.0195   21.5048 C   0  0  0  0  0  0  0  0  0  0  0  0
  -25.6932  -13.3928   21.9890 C   0  0  0  0  0  0  0  0  0  0  0  0
  -26.2179  -30.8223   21.6071 C   0  0  0  0  0  0  0  0  0  0  0  0
  -24.0665  -31.7157   20.6122 C   0  0  0  0  0  0  0  0  0  0  0  0
  -24.2744  -29.3040   21.0579 C   0  0  0  0  0  0  0  0  0  0  0  0
  -24.6977  -13.9029   20.9401 C   0  0  1  0  0  0  0  0  0  0  0  0
  -26.2611  -16.8574   19.1346 C   0  0  1  0  0  0  0  0  0  0  0  0
  -25.4651  -29.5359   22.0021 C   0  0  1  0  0  0  0  0  0  0  0  0
  -17.3994  -28.0824   23.5899 C   0  0  0  0  0  0  0  0  0  0  0  0
  -32.4482  -21.5009   19.5343 C   0  0  0  0  0  0  0  0  0  0  0  0
  -28.5646  -17.4847   23.0920 C   0  0  0  0  0  0  0  0  0  0  0  0
  -30.3708  -19.2171   23.0257 C   0  0  0  0  0  0  0  0  0  0  0  0
  -30.7184  -17.0121   21.9121 C   0  0  0  0  0  0  0  0  0  0  0  0
  -29.7996  -21.4757   16.8029 C   0  0  0  0  0  0  0  0  0  0  0  0
  -21.3623  -23.5764   22.9830 C   0  0  0  0  0  0  0  0  0  0  0  0
  -22.6058  -22.4314   21.0549 C   0  0  0  0  0  0  0  0  0  1  0  0
  -29.1310  -18.6863   20.8781 C   0  0  1  0  0  0  0  0  0  0  0  0
  -31.3023  -20.9214   18.7196 C   0  0  2  0  0  0  0  0  0  0  0  0
  -29.6707  -18.1053   22.2155 C   0  0  0  0  0  0  0  0  0  0  0  0
  -27.4357  -28.2802   21.2144 N   0  0  0  0  0  0  0  0  0  0  0  0
  -26.3890  -28.3338   22.0557 N   0  0  0  0  0  0  0  0  0  0  0  0
  -27.0652  -17.9104   19.7582 N   0  0  0  0  0  0  0  0  0  0  0  0
  -23.4033  -30.4890   21.0580 N   0  0  0  0  0  0  0  0  0  0  0  0
  -25.2976  -27.1470   23.7909 N   0  0  0  0  0  0  0  0  0  0  0  0
  -28.7725  -24.4678   22.7218 N   0  0  0  0  0  0  0  0  0  0  0  0
  -20.1112  -24.2095   23.3129 N   0  0  0  0  0  0  0  0  0  0  0  0
  -21.5300  -29.3230   21.9154 N   0  0  0  0  0  0  0  0  0  0  0  0
  -25.3584  -14.7868   20.0038 N   0  0  0  0  0  0  0  0  0  0  0  0
  -30.1604  -19.2564   20.0156 N   0  0  0  0  0  0  0  0  0  0  0  0
  -30.9029  -21.9235   17.6912 N   0  3  0  0  0  0  0  0  0  0  0  0
  -19.3922  -30.0434   22.5009 O   0  0  0  0  0  0  0  0  0  0  0  0
  -26.9405  -24.6870   24.0836 O   0  0  0  0  0  0  0  0  0  0  0  0
  -25.2034  -16.7522   21.2429 O   0  0  0  0  0  0  0  0  0  0  0  0
  -20.3702  -23.2752   20.8047 O   0  0  0  0  0  0  0  0  0  0  0  0
  -29.0242  -16.6494   19.6674 O   0  0  0  0  0  0  0  0  0  0  0  0
  -29.2456  -21.3841   19.9001 O   0  0  0  0  0  0  0  0  0  0  0  0
  -21.3986  -31.5818   21.4695 O   0  0  0  0  0  0  0  0  0  0  0  0
  -18.6403  -26.0295   23.5121 O   0  0  0  0  0  0  0  0  0  0  0  0
  -32.6165  -25.4613   18.8139 O   0  0  0  0  0  0  0  0  0  0  0  0
  -22.4710  -22.0265   19.6932 O   0  0  0  0  0  0  0  0  0  1  0  0
  -36.5932  -29.1922   17.9950 F   0  0  0  0  0  0  0  0  0  0  0  0
  -35.1568  -25.0736   19.8334 F   0  0  0  0  0  0  0  0  0  0  0  0
  1  2  1  0  0  0  0
  1  5  2  0  0  0  0
  2  6  2  0  0  0  0
  3  8  2  0  0  0  0
  3 16  1  0  0  0  0
  4  9  1  0  0  0  0
  4 16  2  0  0  0  0
  5 19  1  0  0  0  0
  6 21  1  0  0  0  0
  7 10  2  0  0  0  0
  7 20  1  0  0  0  0
  8 23  1  0  0  0  0
  9 23  2  0  0  0  0
 10 24  1  0  0  0  0
 11 12  2  0  0  0  0
 11 25  1  0  0  0  0
 12 26  1  0  0  0  0
 13 17  1  0  0  0  0
 13 31  2  0  0  0  0
 14 22  1  0  0  0  0
 14 24  2  0  0  0  0
 15 26  2  0  0  0  0
 15 27  1  0  0  0  0
 16 28  1  0  0  0  0
 17 29  2  0  0  0  0
 17 32  1  0  0  0  0
 18 28  1  0  0  0  0
 18 30  2  0  0  0  0
 18 33  1  0  0  0  0
 19 21  2  0  0  0  0
 19 39  1  0  0  0  0
 20 22  2  0  0  0  0
 20 40  1  0  0  0  0
 21 48  1  0  0  0  0
 22 41  1  0  0  0  0
 23 81  1  0  0  0  0
 24 82  1  0  0  0  0
 25 27  2  0  0  0  0
 25 81  1  0  0  0  0
 26 83  1  0  0  0  0
 27 84  1  0  0  0  0
 28 62  2  0  0  0  0
 29 51  1  0  0  0  0
 29 80  1  0  0  0  0
 30 63  1  0  0  0  0
 30 66  1  0  0  0  0
 31 68  1  0  0  0  0
 31 80  1  0  0  0  0
 32 69  1  0  0  0  0
 32 73  2  0  0  0  0
 33 67  1  0  0  0  0
 33 74  2  0  0  0  0
 34 49  1  0  0  0  0
 34 70  1  0  0  0  0
 34 75  2  0  0  0  0
 35 57  1  0  0  0  0
 35 58  1  0  0  0  0
 35 76  2  0  0  0  0
 36 59  1  0  0  0  0
 36 64  1  0  0  0  0
 36 77  2  0  0  0  0
 37 60  1  0  0  0  0
 37 71  1  0  0  0  0
 37 78  2  0  0  0  0
 38 65  1  0  0  0  0
 38 69  1  0  0  0  0
 38 79  2  0  0  0  0
 39 42  1  0  0  0  0
 40 49  1  0  0  0  0
 41 64  1  0  0  0  0
 42 44  1  0  0  0  0
 43 45  1  0  0  0  0
 43 46  1  0  0  0  0
 44 48  1  0  0  0  0
 45 50  1  0  0  0  0
 46 65  1  0  0  0  0
 47 50  1  0  0  0  0
 47 65  1  0  0  0  0
 48 70  1  0  0  0  0
 49 64  1  0  0  0  0
 50 63  1  0  0  0  0
 52 60  1  0  0  0  0
 53 61  1  0  0  0  0
 54 61  1  0  0  0  0
 55 61  1  0  0  0  0
 56 72  1  0  0  0  0
 57 68  1  0  0  0  0
 58 82  1  0  0  0  0
 59 61  1  0  0  0  0
 59 71  1  0  0  0  0
 60 72  1  0  0  0  0
 62 63  1  0  0  0  0
M  CHG  1  72   1
M  ISO  4  38 100  58 101  69 100  82 101
M  END
> <Batch ID>
0166

> <Smiles>
CNC(C)C(=O)NC(C(=O)N1Cc2cc([101O:1][101CH2:1]C(=O)CNc3cc(C(=O)[100NH:0][100C:0](=O)N4CCCC(n5nc(-c6ccc(Oc7ccc(F)cc7F)cc6)c(C(N)=O)c5N)C4)c(C)o3)ccc2CC1C(=O)NC1CCCc2ccccc21)C(C)(C)C

> <Shape>
0.229

> <Color>
0.073

> <Negative vol penalty>
0.000

$$$$

  -OEChem-04052304083D

 84 93  0     1  0  0  0  0  0999 V2000
  -18.6631  -31.0483   26.3426 C   0  0  0  0  0  0  0  0  0  0  0  0
  -20.0387  -30.8411   26.3474 C   0  0  0  0  0  0  0  0  0  0  0  0
  -28.4969  -20.1849   15.9799 C   0  0  0  0  0  0  0  0  0  0  0  0
  -26.3768  -10.7011   20.6381 C   0  0  0  0  0  0  0  0  0  0  0  0
  -25.8903  -11.7910   18.5375 C   0  0  0  0  0  0  0  0  0  0  0  0
  -17.8764  -30.4756   25.3440 C   0  0  0  0  0  0  0  0  0  0  0  0
  -20.6285  -30.0602   25.3540 C   0  0  0  0  0  0  0  0  0  0  0  0
  -28.5173  -21.4621   16.5401 C   0  0  0  0  0  0  0  0  0  0  0  0
  -26.6740  -29.4915   21.5534 C   0  0  0  0  0  0  0  0  0  0  0  0
  -28.9688  -19.0948   16.7112 C   0  0  0  0  0  0  0  0  0  0  0  0
  -25.0741  -10.2044   20.6821 C   0  0  0  0  0  0  0  0  0  0  0  0
  -24.5876  -11.2943   18.5815 C   0  0  0  0  0  0  0  0  0  0  0  0
  -27.6486  -28.5541   21.2139 C   0  0  0  0  0  0  0  0  0  0  0  0
  -23.3200   -7.6846   19.2655 C   0  0  0  0  0  0  0  0  0  0  0  0
  -23.1486   -6.3445   19.6126 C   0  0  0  0  0  0  0  0  0  0  0  0
  -29.4816  -20.5593   18.5631 C   0  0  0  0  0  0  0  0  0  0  0  0
  -26.2005  -27.6803   19.4939 C   0  0  0  0  0  0  0  0  0  0  0  0
  -21.8131   -7.0077   21.5136 C   0  0  0  0  0  0  0  0  0  0  0  0
  -26.7849  -11.4945   19.5659 C   0  0  0  0  0  0  0  0  0  0  0  0
  -29.2559  -11.3934   18.9402 C   0  0  0  0  0  0  0  0  0  0  0  0
  -29.0097  -21.6493   17.8317 C   0  0  0  0  0  0  0  0  0  0  0  0
  -18.4581  -29.6952   24.3324 C   0  0  0  0  0  0  0  0  0  0  0  0
  -25.4489  -29.5232   20.8718 C   0  0  0  0  0  0  0  0  0  0  0  0
  -19.8487  -29.4754   24.3417 C   0  0  0  0  0  0  0  0  0  0  0  0
  -25.2130  -28.6207   19.8250 C   0  0  0  0  0  0  0  0  0  0  0  0
  -29.4611  -19.2820   18.0028 C   0  0  0  0  0  0  0  0  0  0  0  0
  -24.1796  -10.5009   19.6537 C   0  0  0  0  0  0  0  0  0  0  0  0
  -27.4108  -27.6465   20.1859 C   0  0  0  0  0  0  0  0  0  0  0  0
  -22.7380   -8.6862   20.0425 C   0  0  0  0  0  0  0  0  0  0  0  0
  -22.3951   -6.0061   20.7366 C   0  0  0  0  0  0  0  0  0  0  0  0
  -21.9845   -8.3478   21.1665 C   0  0  0  0  0  0  0  0  0  0  0  0
  -28.1302  -12.0084   19.5202 C   0  0  0  0  0  0  0  0  0  0  0  0
  -30.2826  -12.2786   19.1608 C   0  0  0  0  0  0  0  0  0  0  0  0
  -28.4455  -23.9437   20.5622 C   0  0  0  0  0  0  0  0  0  0  0  0
  -29.3638  -10.1345   18.2625 C   0  0  0  0  0  0  0  0  0  0  0  0
  -22.4086  -29.1103   21.7023 C   0  0  0  0  0  0  0  0  0  0  0  0
  -21.8545  -30.0120   18.6359 C   0  0  0  0  0  0  0  0  0  0  0  0
  -23.0203  -30.2824   15.4399 C   0  0  0  0  0  0  0  0  0  0  0  0
  -30.4610  -18.1864   20.0390 C   0  0  0  0  0  0  0  0  0  0  0  0
  -17.5611  -29.0578   23.3010 C   0  0  0  0  0  0  0  0  0  0  0  0
  -24.4185  -30.5579   21.2324 C   0  0  0  0  0  0  0  0  0  0  0  0
  -23.9223  -28.6265   19.0487 C   0  0  0  0  0  0  0  0  0  0  0  0
  -18.3105  -28.5525   22.0709 C   0  0  0  0  0  0  0  0  0  0  0  0
  -31.7095  -15.6698   22.2264 C   0  0  0  0  0  0  0  0  0  0  0  0
  -19.5510  -27.7681   22.4863 C   0  0  0  0  0  0  0  0  0  0  0  0
  -31.0405  -14.3883   21.7241 C   0  0  0  0  0  0  0  0  0  0  0  0
  -30.7753  -16.8743   22.1258 C   0  0  0  0  0  0  0  0  0  0  0  0
  -29.5132  -15.8094   20.2976 C   0  0  0  0  0  0  0  0  0  0  0  0
  -30.4672  -23.4526   18.7496 C   0  0  0  0  0  0  0  0  0  0  0  0
  -29.0316  -23.0390   18.4407 C   0  0  2  0  0  0  0  0  0  0  0  0
  -20.5285  -28.6549   23.2671 C   0  0  1  0  0  0  0  0  0  0  0  0
  -29.6446  -24.8514   20.6127 C   0  0  2  0  0  0  0  0  0  0  0  0
  -23.0051  -30.1649   20.8136 C   0  0  1  0  0  0  0  0  0  0  0  0
  -30.4375  -14.5810   20.3188 C   0  0  2  0  0  0  0  0  0  0  0  0
  -22.3244  -31.0222   13.1452 C   0  0  0  0  0  0  0  0  0  0  0  0
  -20.2109  -27.4614   18.3148 C   0  0  0  0  0  0  0  0  0  0  0  0
  -20.3492  -27.7677   15.8338 C   0  0  0  0  0  0  0  0  0  0  0  0
  -19.2138  -29.4874   17.2396 C   0  0  0  0  0  0  0  0  0  0  0  0
  -25.1351  -32.3504   15.3388 C   0  0  0  0  0  0  0  0  0  0  0  0
  -29.2266  -26.2843   20.8955 C   0  0  0  0  0  0  0  0  0  1  0  0
  -21.7333  -29.2913   17.3150 C   0  0  1  0  0  0  0  0  0  0  0  0
  -22.9886  -31.4330   14.4501 C   0  0  2  0  0  0  0  0  0  0  0  0
  -20.4005  -28.5003   17.1915 C   0  0  0  0  0  0  0  0  0  0  0  0
  -28.4148  -13.1927   20.0682 N   0  0  0  0  0  0  0  0  0  0  0  0
  -28.1592  -23.1103   19.6235 N   0  0  0  0  0  0  0  0  0  0  0  0
  -29.7310  -13.3290   19.8336 N   0  0  0  0  0  0  0  0  0  0  0  0
  -22.9435  -29.6532   19.4430 N   0  0  0  0  0  0  0  0  0  0  0  0
  -30.2458  -16.9963   20.7658 N   0  0  0  0  0  0  0  0  0  0  0  0
  -31.5944  -12.2532   18.8430 N   0  0  0  0  0  0  0  0  0  0  0  0
  -28.2109   -9.3497   18.1231 N   0  0  0  0  0  0  0  0  0  0  0  0
  -29.9398  -18.1744   18.7457 N   0  0  0  0  0  0  0  0  0  0  0  0
  -21.2642  -29.5133   22.3637 N   0  0  0  0  0  0  0  0  0  0  0  0
  -21.9270  -30.3010   16.2799 N   0  0  0  0  0  0  0  0  0  0  0  0
  -30.4151  -24.8183   19.3370 N   0  3  0  0  0  0  0  0  0  0  0  0
  -24.3730  -31.8945   14.1478 N   0  3  0  0  0  0  0  0  0  0  0  0
  -30.4537   -9.7104   17.8088 O   0  0  0  0  0  0  0  0  0  0  0  0
  -22.9459  -28.0117   21.7808 O   0  0  0  0  0  0  0  0  0  0  0  0
  -21.0181  -30.8670   18.9374 O   0  0  0  0  0  0  0  0  0  0  0  0
  -23.9227  -29.4483   15.4630 O   0  0  0  0  0  0  0  0  0  0  0  0
  -31.0869  -19.1353   20.5183 O   0  0  0  0  0  0  0  0  0  0  0  0
  -22.9084  -10.0162   19.6962 O   0  0  0  0  0  0  0  0  0  0  0  0
  -28.3602  -26.7301   19.8529 O   0  0  0  0  0  0  0  0  0  1  0  0
  -22.2293   -4.7192   21.0690 F   0  0  0  0  0  0  0  0  0  0  0  0
  -21.4220   -9.3056   21.9162 F   0  0  0  0  0  0  0  0  0  0  0  0
  1  2  1  0  0  0  0
  1  6  2  0  0  0  0
  2  7  2  0  0  0  0
  3  8  2  0  0  0  0
  3 10  1  0  0  0  0
  4 11  2  0  0  0  0
  4 19  1  0  0  0  0
  5 12  1  0  0  0  0
  5 19  2  0  0  0  0
  6 22  1  0  0  0  0
  7 24  1  0  0  0  0
  8 21  1  0  0  0  0
  9 13  2  0  0  0  0
  9 23  1  0  0  0  0
 10 26  2  0  0  0  0
 11 27  1  0  0  0  0
 12 27  2  0  0  0  0
 13 28  1  0  0  0  0
 14 15  2  0  0  0  0
 14 29  1  0  0  0  0
 15 30  1  0  0  0  0
 16 21  2  0  0  0  0
 16 26  1  0  0  0  0
 17 25  1  0  0  0  0
 17 28  2  0  0  0  0
 18 30  2  0  0  0  0
 18 31  1  0  0  0  0
 19 32  1  0  0  0  0
 20 32  1  0  0  0  0
 20 33  2  0  0  0  0
 20 35  1  0  0  0  0
 21 50  1  0  0  0  0
 22 24  2  0  0  0  0
 22 40  1  0  0  0  0
 23 25  2  0  0  0  0
 23 41  1  0  0  0  0
 24 51  1  0  0  0  0
 25 42  1  0  0  0  0
 26 71  1  0  0  0  0
 27 81  1  0  0  0  0
 28 82  1  0  0  0  0
 29 31  2  0  0  0  0
 29 81  1  0  0  0  0
 30 83  1  0  0  0  0
 31 84  1  0  0  0  0
 32 64  2  0  0  0  0
 33 66  1  0  0  0  0
 33 69  1  0  0  0  0
 34 52  1  0  0  0  0
 34 65  2  0  0  0  0
 35 70  1  0  0  0  0
 35 76  2  0  0  0  0
 36 53  1  0  0  0  0
 36 72  1  0  0  0  0
 36 77  2  0  0  0  0
 37 61  1  0  0  0  0
 37 67  1  0  0  0  0
 37 78  2  0  0  0  0
 38 62  1  0  0  0  0
 38 73  1  0  0  0  0
 38 79  2  0  0  0  0
 39 68  1  0  0  0  0
 39 71  1  0  0  0  0
 39 80  2  0  0  0  0
 40 43  1  0  0  0  0
 41 53  1  0  0  0  0
 42 67  1  0  0  0  0
 43 45  1  0  0  0  0
 44 46  1  0  0  0  0
 44 47  1  0  0  0  0
 45 51  1  0  0  0  0
 46 54  1  0  0  0  0
 47 68  1  0  0  0  0
 48 54  1  0  0  0  0
 48 68  1  0  0  0  0
 49 50  1  0  0  0  0
 49 74  1  0  0  0  0
 50 65  1  0  0  0  0
 51 72  1  0  0  0  0
 52 60  1  0  0  0  0
 52 74  1  0  0  0  0
 53 67  1  0  0  0  0
 54 66  1  0  0  0  0
 55 62  1  0  0  0  0
 56 63  1  0  0  0  0
 57 63  1  0  0  0  0
 58 63  1  0  0  0  0
 59 75  1  0  0  0  0
 60 82  1  0  0  0  0
 61 63  1  0  0  0  0
 61 73  1  0  0  0  0
 62 75  1  0  0  0  0
 64 66  1  0  0  0  0
M  CHG  2  74   1  75   1
M  ISO  4  39 100  60 101  71 100  82 101
M  END
> <Batch ID>
0166

> <Smiles>
CNC(C)C(=O)NC(C(=O)N1Cc2cc([101O:1][101CH2:1]C3=NCC(c4cccc([100NH:0][100C:0](=O)N5CCCC(n6nc(-c7ccc(Oc8ccc(F)cc8F)cc7)c(C(N)=O)c6N)C5)c4)NC3)ccc2CC1C(=O)NC1CCCc2ccccc21)C(C)(C)C

> <Shape>
0.302

> <Color>
0.083

> <Negative vol penalty>
0.000

$$$$

  -OEChem-04052304083D

 84 92  0     1  0  0  0  0  0999 V2000
  -20.6658  -22.8889   22.1960 C   0  0  0  0  0  0  0  0  0  0  0  0
  -22.0083  -22.6720   21.9027 C   0  0  0  0  0  0  0  0  0  0  0  0
  -30.7138  -22.7202   23.8195 C   0  0  0  0  0  0  0  0  0  0  0  0
  -21.9178  -28.2994   21.0557 C   0  0  0  0  0  0  0  0  0  0  0  0
  -23.2594  -27.9750   23.0386 C   0  0  0  0  0  0  0  0  0  0  0  0
  -19.9276  -21.9019   22.8478 C   0  0  0  0  0  0  0  0  0  0  0  0
  -22.6137  -21.4683   22.2619 C   0  0  0  0  0  0  0  0  0  0  0  0
  -26.9841  -18.4823   19.1816 C   0  0  0  0  0  0  0  0  0  0  0  0
  -31.0957  -21.4294   23.4540 C   0  0  0  0  0  0  0  0  0  0  0  0
  -30.0819  -23.5493   22.8927 C   0  0  0  0  0  0  0  0  0  0  0  0
  -20.7588  -28.2312   21.8287 C   0  0  0  0  0  0  0  0  0  0  0  0
  -22.1004  -27.9069   23.8117 C   0  0  0  0  0  0  0  0  0  0  0  0
  -28.3689  -18.4283   19.3338 C   0  0  0  0  0  0  0  0  0  0  0  0
  -19.0146  -30.2684   23.8879 C   0  0  0  0  0  0  0  0  0  0  0  0
  -18.0218  -31.2196   23.6530 C   0  0  0  0  0  0  0  0  0  0  0  0
  -28.1426  -16.3996   20.6193 C   0  0  0  0  0  0  0  0  0  0  0  0
  -30.2137  -21.7968   21.2349 C   0  0  0  0  0  0  0  0  0  0  0  0
  -16.4654  -29.4576   23.0962 C   0  0  0  0  0  0  0  0  0  0  0  0
  -23.1682  -28.1713   21.6607 C   0  0  0  0  0  0  0  0  0  0  0  0
  -25.1111  -29.3929   20.5470 C   0  0  0  0  0  0  0  0  0  0  0  0
  -20.5217  -20.6817   23.2066 C   0  0  0  0  0  0  0  0  0  0  0  0
  -26.1660  -17.4995   19.7573 C   0  0  0  0  0  0  0  0  0  0  0  0
  -21.8831  -20.4646   22.9203 C   0  0  0  0  0  0  0  0  0  0  0  0
  -26.7479  -16.4419   20.4707 C   0  0  0  0  0  0  0  0  0  0  0  0
  -30.8456  -20.9677   22.1617 C   0  0  0  0  0  0  0  0  0  0  0  0
  -29.8318  -23.0876   21.6004 C   0  0  0  0  0  0  0  0  0  0  0  0
  -20.8500  -28.0350   23.2067 C   0  0  0  0  0  0  0  0  0  0  0  0
  -28.9482  -17.3885   20.0552 C   0  0  0  0  0  0  0  0  0  0  0  0
  -18.7328  -28.9118   23.7269 C   0  0  0  0  0  0  0  0  0  0  0  0
  -16.7472  -30.8142   23.2572 C   0  0  0  0  0  0  0  0  0  0  0  0
  -17.4582  -28.5064   23.3311 C   0  0  0  0  0  0  0  0  0  0  0  0
  -24.3658  -28.2411   20.8626 C   0  0  0  0  0  0  0  0  0  0  0  0
  -26.1464  -28.9303   19.7719 C   0  0  0  0  0  0  0  0  0  0  0  0
  -24.8877  -30.7588   20.9211 C   0  0  0  0  0  0  0  0  0  0  0  0
  -23.8615  -17.4997   21.9466 C   0  0  0  0  0  0  0  0  0  0  0  0
  -23.5856  -14.3825   21.0926 C   0  0  0  0  0  0  0  0  0  0  0  0
  -25.0463  -11.6066   19.7482 C   0  0  0  0  0  0  0  0  0  0  0  0
  -31.8678  -18.7011   22.5801 C   0  0  0  0  0  0  0  0  0  0  0  0
  -28.8673  -23.6282   19.3369 C   0  0  0  0  0  0  0  0  0  0  0  0
  -19.6957  -19.6635   23.9520 C   0  0  0  0  0  0  0  0  0  0  0  0
  -24.6758  -17.5574   19.5613 C   0  0  0  0  0  0  0  0  0  0  0  0
  -25.9152  -15.3510   21.0912 C   0  0  0  0  0  0  0  0  0  0  0  0
  -20.3145  -18.2680   23.9640 C   0  0  0  0  0  0  0  0  0  0  0  0
  -27.2544  -25.4155   16.7137 C   0  0  0  0  0  0  0  0  0  0  0  0
  -21.7971  -18.3445   24.3144 C   0  0  0  0  0  0  0  0  0  0  0  0
  -26.4031  -26.4517   17.4510 C   0  0  0  0  0  0  0  0  0  0  0  0
  -27.3017  -24.0844   17.4618 C   0  0  0  0  0  0  0  0  0  0  0  0
  -26.8599  -25.2136   19.6063 C   0  0  0  0  0  0  0  0  0  0  0  0
  -22.5689  -19.1622   23.2718 C   0  0  1  0  0  0  0  0  0  0  0  0
  -23.9028  -16.7848   20.6257 C   0  0  1  0  0  0  0  0  0  0  0  0
  -26.8353  -26.5910   18.9239 C   0  0  2  0  0  0  0  0  0  0  0  0
  -24.5829   -9.1982   19.2172 C   0  0  0  0  0  0  0  0  0  0  0  0
  -32.8484  -16.3864   22.7749 C   0  0  0  0  0  0  0  0  0  0  0  0
  -33.0061  -17.6264   20.5853 C   0  0  0  0  0  0  0  0  0  0  0  0
  -23.8818  -13.6768   24.0463 C   0  0  0  0  0  0  0  0  0  0  0  0
  -24.3634  -11.3170   23.3625 C   0  0  0  0  0  0  0  0  0  0  0  0
  -22.1549  -12.3439   22.8234 C   0  0  0  0  0  0  0  0  0  0  0  0
  -25.4945  -12.0379   16.8547 C   0  0  0  0  0  0  0  0  0  0  0  0
  -30.7961  -16.7275   21.3984 C   0  0  0  0  0  0  0  0  0  1  0  0
  -24.2108  -13.0882   21.5541 C   0  0  1  0  0  0  0  0  0  0  0  0
  -24.5656  -10.6259   18.6938 C   0  0  2  0  0  0  0  0  0  0  0  0
  -32.1366  -17.3695   21.8288 C   0  0  0  0  0  0  0  0  0  0  0  0
  -23.6685  -12.6280   22.9367 C   0  0  0  0  0  0  0  0  0  0  0  0
  -24.8835  -27.1303   20.3313 N   0  0  0  0  0  0  0  0  0  0  0  0
  -25.9651  -27.5821   19.6739 N   0  0  0  0  0  0  0  0  0  0  0  0
  -24.4624  -15.4552   20.8771 N   0  0  0  0  0  0  0  0  0  0  0  0
  -27.7231  -24.2939   18.8487 N   0  0  0  0  0  0  0  0  0  0  0  0
  -27.1849  -29.5493   19.1714 N   0  0  0  0  0  0  0  0  0  0  0  0
  -23.7767  -31.0594   21.7210 N   0  0  0  0  0  0  0  0  0  0  0  0
  -31.2332  -19.6566   21.7915 N   0  0  0  0  0  0  0  0  0  0  0  0
  -29.1897  -23.9303   20.6595 N   0  0  0  0  0  0  0  0  0  0  0  0
  -22.7994  -18.3735   22.0805 N   0  0  0  0  0  0  0  0  0  0  0  0
  -23.9982  -12.1259   20.4784 N   0  0  0  0  0  0  0  0  0  0  0  0
  -25.4370  -10.6947   17.4868 N   0  3  0  0  0  0  0  0  0  0  0  0
  -25.6413  -31.6877   20.5432 O   0  0  0  0  0  0  0  0  0  0  0  0
  -24.7283  -17.2742   22.7830 O   0  0  0  0  0  0  0  0  0  0  0  0
  -22.3650  -14.4376   20.9226 O   0  0  0  0  0  0  0  0  0  0  0  0
  -26.2331  -11.8815   19.9105 O   0  0  0  0  0  0  0  0  0  0  0  0
  -32.2104  -18.8484   23.7518 O   0  0  0  0  0  0  0  0  0  0  0  0
  -29.5293  -22.8686   18.6250 O   0  0  0  0  0  0  0  0  0  0  0  0
  -19.7193  -27.9686   23.9613 O   0  0  0  0  0  0  0  0  0  0  0  0
  -30.2996  -17.3339   20.2058 O   0  0  0  0  0  0  0  0  0  1  0  0
  -15.7935  -31.7277   23.0331 F   0  0  0  0  0  0  0  0  0  0  0  0
  -17.1812  -27.2045   23.1760 F   0  0  0  0  0  0  0  0  0  0  0  0
  1  2  1  0  0  0  0
  1  6  2  0  0  0  0
  2  7  2  0  0  0  0
  3  9  2  0  0  0  0
  3 10  1  0  0  0  0
  4 11  2  0  0  0  0
  4 19  1  0  0  0  0
  5 12  1  0  0  0  0
  5 19  2  0  0  0  0
  6 21  1  0  0  0  0
  7 23  1  0  0  0  0
  8 13  2  0  0  0  0
  8 22  1  0  0  0  0
  9 25  1  0  0  0  0
 10 26  2  0  0  0  0
 11 27  1  0  0  0  0
 12 27  2  0  0  0  0
 13 28  1  0  0  0  0
 14 15  2  0  0  0  0
 14 29  1  0  0  0  0
 15 30  1  0  0  0  0
 16 24  1  0  0  0  0
 16 28  2  0  0  0  0
 17 25  2  0  0  0  0
 17 26  1  0  0  0  0
 18 30  2  0  0  0  0
 18 31  1  0  0  0  0
 19 32  1  0  0  0  0
 20 32  1  0  0  0  0
 20 33  2  0  0  0  0
 20 34  1  0  0  0  0
 21 23  2  0  0  0  0
 21 40  1  0  0  0  0
 22 24  2  0  0  0  0
 22 41  1  0  0  0  0
 23 49  1  0  0  0  0
 24 42  1  0  0  0  0
 25 70  1  0  0  0  0
 26 71  1  0  0  0  0
 27 81  1  0  0  0  0
 28 82  1  0  0  0  0
 29 31  2  0  0  0  0
 29 81  1  0  0  0  0
 30 83  1  0  0  0  0
 31 84  1  0  0  0  0
 32 64  2  0  0  0  0
 33 65  1  0  0  0  0
 33 68  1  0  0  0  0
 34 69  1  0  0  0  0
 34 75  2  0  0  0  0
 35 50  1  0  0  0  0
 35 72  1  0  0  0  0
 35 76  2  0  0  0  0
 36 60  1  0  0  0  0
 36 66  1  0  0  0  0
 36 77  2  0  0  0  0
 37 61  1  0  0  0  0
 37 73  1  0  0  0  0
 37 78  2  0  0  0  0
 38 62  1  0  0  0  0
 38 70  1  0  0  0  0
 38 79  2  0  0  0  0
 39 67  1  0  0  0  0
 39 71  1  0  0  0  0
 39 80  2  0  0  0  0
 40 43  1  0  0  0  0
 41 50  1  0  0  0  0
 42 66  1  0  0  0  0
 43 45  1  0  0  0  0
 44 46  1  0  0  0  0
 44 47  1  0  0  0  0
 45 49  1  0  0  0  0
 46 51  1  0  0  0  0
 47 67  1  0  0  0  0
 48 51  1  0  0  0  0
 48 67  1  0  0  0  0
 49 72  1  0  0  0  0
 50 66  1  0  0  0  0
 51 65  1  0  0  0  0
 52 61  1  0  0  0  0
 53 62  1  0  0  0  0
 54 62  1  0  0  0  0
 55 63  1  0  0  0  0
 56 63  1  0  0  0  0
 57 63  1  0  0  0  0
 58 74  1  0  0  0  0
 59 62  1  0  0  0  0
 59 82  1  0  0  0  0
 60 63  1  0  0  0  0
 60 73  1  0  0  0  0
 61 74  1  0  0  0  0
 64 65  1  0  0  0  0
M  CHG  1  74   1
M  ISO  4  39 100  59 101  71 100  82 101
M  END
> <Batch ID>
0166

> <Smiles>
CNC(C)C(=O)NC(C(=O)N1Cc2cc([101O:1][101CH2:1]C(C)(C)C(=O)Nc3cccc([100NH:0][100C:0](=O)N4CCCC(n5nc(-c6ccc(Oc7ccc(F)cc7F)cc6)c(C(N)=O)c5N)C4)c3)ccc2CC1C(=O)NC1CCCc2ccccc21)C(C)(C)C

> <Shape>
0.233

> <Color>
0.083

> <Negative vol penalty>
0.000

$$$$

  -OEChem-04052304083D

 88 97  0     1  0  0  0  0  0999 V2000
  -17.9357  -31.1697   23.1796 C   0  0  0  0  0  0  0  0  0  0  0  0
  -19.1272  -30.4801   23.3797 C   0  0  0  0  0  0  0  0  0  0  0  0
  -23.2664   -9.6286   19.9966 C   0  0  0  0  0  0  0  0  0  0  0  0
  -23.7869   -9.9443   22.3346 C   0  0  0  0  0  0  0  0  0  0  0  0
  -16.7262  -30.5975   23.5716 C   0  0  0  0  0  0  0  0  0  0  0  0
  -19.1101  -29.2183   23.9730 C   0  0  0  0  0  0  0  0  0  0  0  0
  -22.8217  -24.5106   22.7211 C   0  0  0  0  0  0  0  0  0  0  0  0
  -22.5559   -8.4703   20.3111 C   0  0  0  0  0  0  0  0  0  0  0  0
  -23.0764   -8.7859   22.6492 C   0  0  0  0  0  0  0  0  0  0  0  0
  -23.9710  -24.0301   23.3470 C   0  0  0  0  0  0  0  0  0  0  0  0
  -19.8446   -7.8747   23.0311 C   0  0  0  0  0  0  0  0  0  0  0  0
  -18.9748   -7.9255   24.1203 C   0  0  0  0  0  0  0  0  0  0  0  0
  -31.6132  -17.1415   22.6235 C   0  0  0  0  0  0  0  0  0  0  0  0
  -22.6357  -22.4216   24.5507 C   0  0  0  0  0  0  0  0  0  0  0  0
  -29.3451  -17.9215   22.8930 C   0  0  0  0  0  0  0  0  0  0  0  0
  -20.2241   -6.1620   25.2003 C   0  0  0  0  0  0  0  0  0  0  0  0
  -23.8820  -10.3656   21.0083 C   0  0  0  0  0  0  0  0  0  0  0  0
  -24.1153  -12.8759   20.6184 C   0  0  0  0  0  0  0  0  0  0  0  0
  -16.6933  -29.3240   24.1613 C   0  0  0  0  0  0  0  0  0  0  0  0
  -21.5672  -23.9565   23.0139 C   0  0  0  0  0  0  0  0  0  0  0  0
  -17.8991  -28.6291   24.3745 C   0  0  0  0  0  0  0  0  0  0  0  0
  -32.0764  -18.1610   23.4664 C   0  0  0  0  0  0  0  0  0  0  0  0
  -21.4723  -22.8951   23.9252 C   0  0  0  0  0  0  0  0  0  0  0  0
  -31.1578  -19.0544   24.0446 C   0  0  0  0  0  0  0  0  0  0  0  0
  -30.2535  -17.0244   22.3370 C   0  0  0  0  0  0  0  0  0  0  0  0
  -29.7946  -18.9342   23.7401 C   0  0  0  0  0  0  0  0  0  0  0  0
  -22.4609   -8.0489   21.6374 C   0  0  0  0  0  0  0  0  0  0  0  0
  -23.8778  -22.9874   24.2642 C   0  0  0  0  0  0  0  0  0  0  0  0
  -20.9042   -6.9675   23.0265 C   0  0  0  0  0  0  0  0  0  0  0  0
  -19.1645   -7.0692   25.2049 C   0  0  0  0  0  0  0  0  0  0  0  0
  -21.0939   -6.1112   24.1111 C   0  0  0  0  0  0  0  0  0  0  0  0
  -24.6166  -11.5620   20.6840 C   0  0  0  0  0  0  0  0  0  0  0  0
  -25.2024  -13.6413   20.2739 C   0  0  0  0  0  0  0  0  0  0  0  0
  -25.6804  -21.4969   24.2756 C   0  0  0  0  0  0  0  0  0  1  0  0
  -22.7859  -13.3610   20.8484 C   0  0  0  0  0  0  0  0  0  0  0  0
  -26.7928  -20.9581   24.7892 C   0  0  0  0  0  0  0  0  0  0  0  0
  -27.4686  -19.8420   24.0504 C   0  0  0  0  0  0  0  0  0  0  0  0
  -18.8626  -25.0637   24.2640 C   0  0  0  0  0  0  0  0  0  0  0  0
  -17.7535  -22.1158   23.4880 C   0  0  0  0  0  0  0  0  0  0  0  0
  -18.4461  -18.8370   22.8429 C   0  0  0  0  0  0  0  0  0  0  0  0
  -30.5670  -15.0192   20.8446 C   0  0  0  0  0  0  0  0  0  0  0  0
  -15.3662  -28.7666   24.6117 C   0  0  0  0  0  0  0  0  0  0  0  0
  -20.3403  -24.4683   22.3101 C   0  0  0  0  0  0  0  0  0  0  0  0
  -31.6260  -20.1785   24.9334 C   0  0  0  0  0  0  0  0  0  0  0  0
  -20.1518  -22.2522   24.2591 C   0  0  0  0  0  0  0  0  0  0  0  0
  -33.5443  -18.2502   23.7833 C   0  0  0  0  0  0  0  0  0  0  0  0
  -15.3991  -27.2664   24.8917 C   0  0  0  0  0  0  0  0  0  0  0  0
  -29.8150  -12.2874   18.6884 C   0  0  0  0  0  0  0  0  0  0  0  0
  -16.6201  -26.9069   25.7323 C   0  0  0  0  0  0  0  0  0  0  0  0
  -28.3542  -11.9633   19.0100 C   0  0  0  0  0  0  0  0  0  0  0  0
  -30.5908  -12.7065   19.9359 C   0  0  0  0  0  0  0  0  0  0  0  0
  -28.5208  -13.4720   21.0307 C   0  0  0  0  0  0  0  0  0  0  0  0
  -33.0050  -19.9354   25.5368 C   0  0  0  0  0  0  0  0  0  0  0  0
  -17.9192  -27.2478   24.9923 C   0  0  1  0  0  0  0  0  0  0  0  0
  -19.0498  -24.1732   23.0683 C   0  0  1  0  0  0  0  0  0  0  0  0
  -27.6826  -13.1074   19.7945 C   0  0  2  0  0  0  0  0  0  0  0  0
  -17.3294  -16.6620   22.2771 C   0  0  0  0  0  0  0  0  0  0  0  0
  -16.8390  -21.8343   26.3853 C   0  0  0  0  0  0  0  0  0  0  0  0
  -16.6174  -19.3700   26.0029 C   0  0  0  0  0  0  0  0  0  0  0  0
  -15.2183  -20.9648   24.6907 C   0  0  0  0  0  0  0  0  0  0  0  0
  -35.3860  -19.5314   24.8897 C   0  0  0  0  0  0  0  0  0  0  0  0
  -19.8960  -18.6282   20.2713 C   0  0  0  0  0  0  0  0  0  0  0  0
  -17.6890  -20.7795   24.1874 C   0  0  1  0  0  0  0  0  0  0  0  0
  -17.9955  -17.9131   21.7258 C   0  0  2  0  0  0  0  0  0  0  0  0
  -16.6157  -20.7503   25.3119 C   0  0  0  0  0  0  0  0  0  0  0  0
  -25.9207  -11.4931   20.4035 N   0  0  0  0  0  0  0  0  0  0  0  0
  -26.2480  -12.7732   20.1582 N   0  0  0  0  0  0  0  0  0  0  0  0
  -18.9802  -22.7920   23.5495 N   0  0  0  0  0  0  0  0  0  0  0  0
  -29.8973  -13.7969   20.6251 N   0  0  0  0  0  0  0  0  0  0  0  0
  -25.3564  -14.9656   20.0615 N   0  0  0  0  0  0  0  0  0  0  0  0
  -21.7886  -12.4389   21.1941 N   0  0  0  0  0  0  0  0  0  0  0  0
  -28.8393  -19.8352   24.2694 N   0  0  0  0  0  0  0  0  0  0  0  0
  -29.7967  -15.9927   21.4798 N   0  0  0  0  0  0  0  0  0  0  0  0
  -18.2055  -26.2472   23.9867 N   0  0  0  0  0  0  0  0  0  0  0  0
  -17.4872  -19.7813   23.1427 N   0  0  0  0  0  0  0  0  0  0  0  0
  -33.9562  -19.5571   24.4299 N   0  3  1  0  0  0  0  0  0  0  0  0
  -19.1611  -17.4979   20.8952 N   0  3  0  0  0  0  0  0  0  0  0  0
  -22.4875  -14.5740   20.7342 O   0  0  0  0  0  0  0  0  0  0  0  0
  -26.8232  -19.0656   23.3543 O   0  0  0  0  0  0  0  0  0  0  0  0
  -19.2818  -24.7030   25.3575 O   0  0  0  0  0  0  0  0  0  0  0  0
  -16.7544  -22.5407   22.9024 O   0  0  0  0  0  0  0  0  0  0  0  0
  -19.5379  -18.7291   23.3969 O   0  0  0  0  0  0  0  0  0  0  0  0
  -31.7288  -15.1989   20.4705 O   0  0  0  0  0  0  0  0  0  0  0  0
  -27.3473  -21.3910   25.9765 O   0  0  0  0  0  0  0  0  0  0  0  0
  -21.7674   -6.9188   21.9447 O   0  0  0  0  0  0  0  0  0  0  0  0
  -24.9981  -22.5169   24.8771 O   0  0  0  0  0  0  0  0  0  1  0  0
  -18.3300   -7.1192   26.2515 F   0  0  0  0  0  0  0  0  0  0  0  0
  -22.1108   -5.2383   24.1129 F   0  0  0  0  0  0  0  0  0  0  0  0
  1  2  1  0  0  0  0
  1  5  2  0  0  0  0
  2  6  2  0  0  0  0
  3  8  2  0  0  0  0
  3 17  1  0  0  0  0
  4  9  1  0  0  0  0
  4 17  2  0  0  0  0
  5 19  1  0  0  0  0
  6 21  1  0  0  0  0
  7 10  2  0  0  0  0
  7 20  1  0  0  0  0
  8 27  1  0  0  0  0
  9 27  2  0  0  0  0
 10 28  1  0  0  0  0
 11 12  2  0  0  0  0
 11 29  1  0  0  0  0
 12 30  1  0  0  0  0
 13 22  2  0  0  0  0
 13 25  1  0  0  0  0
 14 23  1  0  0  0  0
 14 28  2  0  0  0  0
 15 25  2  0  0  0  0
 15 26  1  0  0  0  0
 16 30  2  0  0  0  0
 16 31  1  0  0  0  0
 17 32  1  0  0  0  0
 18 32  1  0  0  0  0
 18 33  2  0  0  0  0
 18 35  1  0  0  0  0
 19 21  2  0  0  0  0
 19 42  1  0  0  0  0
 20 23  2  0  0  0  0
 20 43  1  0  0  0  0
 21 54  1  0  0  0  0
 22 24  1  0  0  0  0
 22 46  1  0  0  0  0
 23 45  1  0  0  0  0
 24 26  2  0  0  0  0
 24 44  1  0  0  0  0
 25 73  1  0  0  0  0
 26 72  1  0  0  0  0
 27 85  1  0  0  0  0
 28 86  1  0  0  0  0
 29 31  2  0  0  0  0
 29 85  1  0  0  0  0
 30 87  1  0  0  0  0
 31 88  1  0  0  0  0
 32 66  2  0  0  0  0
 33 67  1  0  0  0  0
 33 70  1  0  0  0  0
 34 36  2  0  0  0  0
 34 86  1  0  0  0  0
 35 71  1  0  0  0  0
 35 78  2  0  0  0  0
 36 37  1  0  0  0  0
 36 84  1  0  0  0  0
 37 72  1  0  0  0  0
 37 79  2  0  0  0  0
 38 55  1  0  0  0  0
 38 74  1  0  0  0  0
 38 80  2  0  0  0  0
 39 63  1  0  0  0  0
 39 68  1  0  0  0  0
 39 81  2  0  0  0  0
 40 64  1  0  0  0  0
 40 75  1  0  0  0  0
 40 82  2  0  0  0  0
 41 69  1  0  0  0  0
 41 73  1  0  0  0  0
 41 83  2  0  0  0  0
 42 47  1  0  0  0  0
 43 55  1  0  0  0  0
 44 53  1  0  0  0  0
 45 68  1  0  0  0  0
 46 76  1  0  0  0  0
 47 49  1  0  0  0  0
 48 50  1  0  0  0  0
 48 51  1  0  0  0  0
 49 54  1  0  0  0  0
 50 56  1  0  0  0  0
 51 69  1  0  0  0  0
 52 56  1  0  0  0  0
 52 69  1  0  0  0  0
 53 76  1  0  0  0  0
 54 74  1  0  0  0  0
 55 68  1  0  0  0  0
 56 67  1  0  0  0  0
 57 64  1  0  0  0  0
 58 65  1  0  0  0  0
 59 65  1  0  0  0  0
 60 65  1  0  0  0  0
 61 76  1  0  0  0  0
 62 77  1  0  0  0  0
 63 65  1  0  0  0  0
 63 75  1  0  0  0  0
 64 77  1  0  0  0  0
 66 67  1  0  0  0  0
M  CHG  2  76   1  77   1
M  ISO  4  34 101  41 100  73 100  86 101
M  END
> <Batch ID>
0166

> <Smiles>
CNC(C)C(=O)NC(C(=O)N1Cc2cc([101O:1][101CH2:1]C(=O)C(=O)Nc3cc([100NH:0][100C:0](=O)N4CCCC(n5nc(-c6ccc(Oc7ccc(F)cc7F)cc6)c(C(N)=O)c5N)C4)cc4c3CCN(C)C4)ccc2CC1C(=O)NC1CCCc2ccccc21)C(C)(C)C

> <Shape>
0.198

> <Color>
0.175

> <Negative vol penalty>
0.000

$$$$

  -OEChem-04052304083D

 90 98  0     1  0  0  0  0  0999 V2000
  -14.8641  -21.1280   26.3804 C   0  0  0  0  0  0  0  0  0  0  0  0
  -16.2537  -21.1827   26.3408 C   0  0  0  0  0  0  0  0  0  0  0  0
  -23.1614   -9.7112   19.8601 C   0  0  0  0  0  0  0  0  0  0  0  0
  -23.9530   -9.6520   22.1420 C   0  0  0  0  0  0  0  0  0  0  0  0
  -14.1129  -21.8281   25.4374 C   0  0  0  0  0  0  0  0  0  0  0  0
  -16.8929  -21.9367   25.3573 C   0  0  0  0  0  0  0  0  0  0  0  0
  -20.6901  -24.7280   27.2108 C   0  0  0  0  0  0  0  0  0  0  0  0
  -29.0553  -18.9134   22.4375 C   0  0  0  0  0  0  0  0  0  0  0  0
  -28.2144  -19.6647   23.2585 C   0  0  0  0  0  0  0  0  0  0  0  0
  -22.4753   -8.5145   20.0670 C   0  0  0  0  0  0  0  0  0  0  0  0
  -23.2668   -8.4553   22.3490 C   0  0  0  0  0  0  0  0  0  0  0  0
  -21.8909  -24.0720   27.4782 C   0  0  0  0  0  0  0  0  0  0  0  0
  -20.0880   -7.4812   22.9544 C   0  0  0  0  0  0  0  0  0  0  0  0
  -19.3505   -7.3539   24.1315 C   0  0  0  0  0  0  0  0  0  0  0  0
  -22.7951  -24.8921   25.3975 C   0  0  0  0  0  0  0  0  0  0  0  0
  -20.6906   -5.4460   24.7648 C   0  0  0  0  0  0  0  0  0  0  0  0
  -23.9003  -10.2799   20.8976 C   0  0  0  0  0  0  0  0  0  0  0  0
  -28.6555  -18.1546   25.0922 C   0  0  0  0  0  0  0  0  0  0  0  0
  -24.1233  -12.8211   20.8872 C   0  0  0  0  0  0  0  0  0  0  0  0
  -14.7431  -22.5989   24.4477 C   0  0  0  0  0  0  0  0  0  0  0  0
  -20.5287  -25.4631   26.0277 C   0  0  0  0  0  0  0  0  0  0  0  0
  -16.1494  -22.6467   24.3993 C   0  0  0  0  0  0  0  0  0  0  0  0
  -21.5921  -25.5585   25.1187 C   0  0  0  0  0  0  0  0  0  0  0  0
  -29.6962  -17.7826   22.9438 C   0  0  0  0  0  0  0  0  0  0  0  0
  -29.4963  -17.4033   24.2711 C   0  0  0  0  0  0  0  0  0  0  0  0
  -28.0146  -19.2854   24.5858 C   0  0  0  0  0  0  0  0  0  0  0  0
  -22.5280   -7.8866   21.3114 C   0  0  0  0  0  0  0  0  0  0  0  0
  -22.9426  -24.1516   26.5701 C   0  0  0  0  0  0  0  0  0  0  0  0
  -21.1267   -6.5908   22.6824 C   0  0  0  0  0  0  0  0  0  0  0  0
  -19.6518   -6.3364   25.0367 C   0  0  0  0  0  0  0  0  0  0  0  0
  -21.4280   -5.5732   23.5876 C   0  0  0  0  0  0  0  0  0  0  0  0
  -24.6097  -11.5158   20.6844 C   0  0  0  0  0  0  0  0  0  0  0  0
  -25.1743  -13.6363   20.5447 C   0  0  0  0  0  0  0  0  0  0  0  0
  -28.4469  -17.7557   26.4815 C   0  0  0  0  0  0  0  0  0  0  0  0
  -22.8364  -13.2578   21.3444 C   0  0  0  0  0  0  0  0  0  0  0  0
  -27.8617  -16.4056   26.8253 C   0  0  0  0  0  0  0  0  0  0  0  0
  -18.6007  -25.2640   23.5083 C   0  0  0  0  0  0  0  0  0  0  0  0
  -25.6510  -21.8067   26.0482 C   0  0  0  0  0  0  0  0  0  0  0  0
  -20.0246  -28.0606   22.6875 C   0  0  0  0  0  0  0  0  0  0  0  0
  -22.7297  -30.1235   22.9590 C   0  0  0  0  0  0  0  0  0  0  0  0
  -30.6072  -14.9017   20.7116 C   0  0  0  0  0  0  0  0  0  0  0  0
  -13.8897  -23.3004   23.4209 C   0  0  0  0  0  0  0  0  0  0  0  0
  -19.2363  -26.1870   25.7667 C   0  0  0  0  0  0  0  0  0  0  0  0
  -21.4767  -26.3517   23.8436 C   0  0  0  0  0  0  0  0  0  0  0  0
  -14.6381  -24.3777   22.6402 C   0  0  0  0  0  0  0  0  0  0  0  0
  -29.5470  -12.5748   18.2340 C   0  0  0  0  0  0  0  0  0  0  0  0
  -15.9919  -23.8539   22.1714 C   0  0  0  0  0  0  0  0  0  0  0  0
  -28.1310  -12.1952   18.6709 C   0  0  0  0  0  0  0  0  0  0  0  0
  -30.4700  -12.7848   19.4323 C   0  0  0  0  0  0  0  0  0  0  0  0
  -28.5566  -13.3638   20.8736 C   0  0  0  0  0  0  0  0  0  0  0  0
  -16.8790  -23.4737   23.3630 C   0  0  1  0  0  0  0  0  0  0  0  0
  -19.0053  -26.4830   24.2880 C   0  0  1  0  0  0  0  0  0  0  0  0
  -27.5748  -13.1962   19.7013 C   0  0  2  0  0  0  0  0  0  0  0  0
  -26.4908  -16.1173   26.2951 C   0  0  0  0  0  0  0  0  0  0  0  0
  -31.3840  -16.5453   25.6807 C   0  0  0  0  0  0  0  0  0  0  0  0
  -23.6196  -32.3230   22.1419 C   0  0  0  0  0  0  0  0  0  0  0  0
  -20.6792  -26.7914   19.9912 C   0  0  0  0  0  0  0  0  0  0  0  0
  -22.3405  -28.6252   19.6098 C   0  0  0  0  0  0  0  0  0  0  0  0
  -19.9201  -29.1710   19.8672 C   0  0  0  0  0  0  0  0  0  0  0  0
  -22.8515  -31.2255   25.7030 C   0  0  0  0  0  0  0  0  0  0  0  0
  -30.1864  -16.1884   24.8074 C   0  0  0  0  0  0  0  0  0  0  0  0
  -30.5912  -16.9960   22.0432 C   0  0  0  0  0  0  0  0  0  0  0  0
  -26.4821  -21.2252   24.9244 C   0  0  0  0  0  0  0  0  0  0  0  0
  -24.8703  -23.0604   25.7044 C   0  0  0  0  0  0  0  0  0  1  0  0
  -21.2487  -28.4438   21.8915 C   0  0  1  0  0  0  0  0  0  0  0  0
  -22.8375  -31.6123   23.2355 C   0  0  2  0  0  0  0  0  0  0  0  0
  -21.0490  -28.2412   20.3629 C   0  0  0  0  0  0  0  0  0  0  0  0
  -25.8716  -11.4979   20.2467 N   0  0  0  0  0  0  0  0  0  0  0  0
  -28.7397  -18.5186   27.4969 N   0  0  0  0  0  0  0  0  0  0  0  0
  -26.1868  -12.8022   20.1717 N   0  0  0  0  0  0  0  0  0  0  0  0
  -20.1909  -27.0365   23.6305 N   0  0  0  0  0  0  0  0  0  0  0  0
  -29.8853  -13.7461   20.3704 N   0  0  0  0  0  0  0  0  0  0  0  0
  -25.3218  -14.9781   20.5291 N   0  0  0  0  0  0  0  0  0  0  0  0
  -21.8726  -12.2882   21.6528 N   0  0  0  0  0  0  0  0  0  0  0  0
  -27.1738  -20.0480   25.3838 N   0  0  0  0  0  0  0  0  0  0  0  0
  -17.4469  -24.6589   23.9688 N   0  0  0  0  0  0  0  0  0  0  0  0
  -21.5731  -29.8134   22.2754 N   0  0  0  0  0  0  0  0  0  0  0  0
  -29.9778  -15.7631   21.6019 N   0  0  0  0  0  0  0  0  0  0  0  0
  -23.5262  -31.8492   24.5356 N   0  3  0  0  0  0  0  0  0  0  0  0
  -22.5444  -14.4722   21.4600 O   0  0  0  0  0  0  0  0  0  0  0  0
  -28.5375  -15.6384   27.4931 O   0  0  0  0  0  0  0  0  0  0  0  0
  -19.2840  -24.9002   22.5583 O   0  0  0  0  0  0  0  0  0  0  0  0
  -25.6047  -21.3041   27.1703 O   0  0  0  0  0  0  0  0  0  0  0  0
  -18.9618  -28.6533   22.4853 O   0  0  0  0  0  0  0  0  0  0  0  0
  -23.5877  -29.3169   23.3108 O   0  0  0  0  0  0  0  0  0  0  0  0
  -31.7272  -15.1501   20.2525 O   0  0  0  0  0  0  0  0  0  0  0  0
  -21.8584   -6.7190   21.5137 O   0  0  0  0  0  0  0  0  0  0  0  0
  -24.1156  -23.5118   26.8283 O   0  0  0  0  0  0  0  0  0  1  0  0
  -18.9446   -6.2152   26.1678 F   0  0  0  0  0  0  0  0  0  0  0  0
  -22.4256   -4.7156   23.3323 F   0  0  0  0  0  0  0  0  0  0  0  0
  1  2  1  0  0  0  0
  1  5  2  0  0  0  0
  2  6  2  0  0  0  0
  3 10  2  0  0  0  0
  3 17  1  0  0  0  0
  4 11  1  0  0  0  0
  4 17  2  0  0  0  0
  5 20  1  0  0  0  0
  6 22  1  0  0  0  0
  7 12  2  0  0  0  0
  7 21  1  0  0  0  0
  8  9  1  0  0  0  0
  8 24  2  0  0  0  0
  9 26  2  0  0  0  0
 10 27  1  0  0  0  0
 11 27  2  0  0  0  0
 12 28  1  0  0  0  0
 13 14  2  0  0  0  0
 13 29  1  0  0  0  0
 14 30  1  0  0  0  0
 15 23  1  0  0  0  0
 15 28  2  0  0  0  0
 16 30  2  0  0  0  0
 16 31  1  0  0  0  0
 17 32  1  0  0  0  0
 18 25  2  0  0  0  0
 18 26  1  0  0  0  0
 18 34  1  0  0  0  0
 19 32  1  0  0  0  0
 19 33  2  0  0  0  0
 19 35  1  0  0  0  0
 20 22  2  0  0  0  0
 20 42  1  0  0  0  0
 21 23  2  0  0  0  0
 21 43  1  0  0  0  0
 22 51  1  0  0  0  0
 23 44  1  0  0  0  0
 24 25  1  0  0  0  0
 24 62  1  0  0  0  0
 25 61  1  0  0  0  0
 26 75  1  0  0  0  0
 27 87  1  0  0  0  0
 28 88  1  0  0  0  0
 29 31  2  0  0  0  0
 29 87  1  0  0  0  0
 30 89  1  0  0  0  0
 31 90  1  0  0  0  0
 32 68  2  0  0  0  0
 33 70  1  0  0  0  0
 33 73  1  0  0  0  0
 34 36  1  0  0  0  0
 34 69  2  0  0  0  0
 35 74  1  0  0  0  0
 35 80  2  0  0  0  0
 36 54  1  0  0  0  0
 36 81  2  0  0  0  0
 37 52  1  0  0  0  0
 37 76  1  0  0  0  0
 37 82  2  0  0  0  0
 38 63  1  0  0  0  0
 38 64  1  0  0  0  0
 38 83  2  0  0  0  0
 39 65  1  0  0  0  0
 39 71  1  0  0  0  0
 39 84  2  0  0  0  0
 40 66  1  0  0  0  0
 40 77  1  0  0  0  0
 40 85  2  0  0  0  0
 41 72  1  0  0  0  0
 41 78  1  0  0  0  0
 41 86  2  0  0  0  0
 42 45  1  0  0  0  0
 43 52  1  0  0  0  0
 44 71  1  0  0  0  0
 45 47  1  0  0  0  0
 46 48  1  0  0  0  0
 46 49  1  0  0  0  0
 47 51  1  0  0  0  0
 48 53  1  0  0  0  0
 49 72  1  0  0  0  0
 50 53  1  0  0  0  0
 50 72  1  0  0  0  0
 51 76  1  0  0  0  0
 52 71  1  0  0  0  0
 53 70  1  0  0  0  0
 55 61  1  0  0  0  0
 56 66  1  0  0  0  0
 57 67  1  0  0  0  0
 58 67  1  0  0  0  0
 59 67  1  0  0  0  0
 60 79  1  0  0  0  0
 62 78  1  0  0  0  0
 63 75  1  0  0  0  0
 64 88  1  0  0  0  0
 65 67  1  0  0  0  0
 65 77  1  0  0  0  0
 66 79  1  0  0  0  0
 68 70  1  0  0  0  0
M  CHG  1  79   1
M  ISO  4  41 100  64 101  78 100  88 101
M  END
> <Batch ID>
0166

> <Smiles>
CCc1c(C[100NH:0][100C:0](=O)N2CCCC(n3nc(-c4ccc(Oc5ccc(F)cc5F)cc4)c(C(N)=O)c3N)C2)ccc(NCC(=O)[101CH2:1][101O:1]c2ccc3c(c2)CN(C(=O)C(NC(=O)C(C)NC)C(C)(C)C)C(C(=O)NC2CCCc4ccccc42)C3)c1C(=N)C(C)=O

> <Shape>
0.244

> <Color>
0.201

> <Negative vol penalty>
0.000

$$$$

  -OEChem-04052304083D

 85 93  0     1  0  0  0  0  0999 V2000
  -22.3304  -20.4034   22.5002 C   0  0  0  0  0  0  0  0  0  0  0  0
  -23.5567  -20.9413   22.1228 C   0  0  0  0  0  0  0  0  0  0  0  0
  -26.2851  -24.1411   18.1057 C   0  0  0  0  0  0  0  0  0  0  0  0
  -23.4634  -12.6833   20.6349 C   0  0  0  0  0  0  0  0  0  0  0  0
  -22.6795  -14.3567   22.1913 C   0  0  0  0  0  0  0  0  0  0  0  0
  -27.4789  -24.8574   18.0207 C   0  0  0  0  0  0  0  0  0  0  0  0
  -21.1567  -21.1218   22.2763 C   0  0  0  0  0  0  0  0  0  0  0  0
  -23.6098  -22.1976   21.5201 C   0  0  0  0  0  0  0  0  0  0  0  0
  -28.0116  -26.4065   22.1640 C   0  0  0  0  0  0  0  0  0  0  0  0
  -26.2881  -22.8362   18.5986 C   0  0  0  0  0  0  0  0  0  0  0  0
  -22.8412  -11.6893   21.3901 C   0  0  0  0  0  0  0  0  0  0  0  0
  -22.0572  -13.3626   22.9465 C   0  0  0  0  0  0  0  0  0  0  0  0
  -29.1098  -26.7437   21.3741 C   0  0  0  0  0  0  0  0  0  0  0  0
  -19.7144  -10.4750   21.8161 C   0  0  0  0  0  0  0  0  0  0  0  0
  -18.9785   -9.5069   21.1329 C   0  0  0  0  0  0  0  0  0  0  0  0
  -28.6791  -22.9638   18.9214 C   0  0  0  0  0  0  0  0  0  0  0  0
  -27.8237  -28.5090   20.3500 C   0  0  0  0  0  0  0  0  0  0  0  0
  -20.4162   -7.7831   22.0265 C   0  0  0  0  0  0  0  0  0  0  0  0
  -23.3826  -14.0170   21.0355 C   0  0  0  0  0  0  0  0  0  0  0  0
  -28.6759  -24.2687   18.4285 C   0  0  0  0  0  0  0  0  0  0  0  0
  -23.4694  -15.7758   19.1897 C   0  0  0  0  0  0  0  0  0  0  0  0
  -21.1964  -22.3917   21.6793 C   0  0  0  0  0  0  0  0  0  0  0  0
  -26.8057  -27.1123   22.0449 C   0  0  0  0  0  0  0  0  0  0  0  0
  -22.4354  -22.9331   21.2867 C   0  0  0  0  0  0  0  0  0  0  0  0
  -26.7124  -28.1805   21.1414 C   0  0  0  0  0  0  0  0  0  0  0  0
  -27.4852  -22.2476   19.0064 C   0  0  0  0  0  0  0  0  0  0  0  0
  -22.1380  -12.0290   22.5459 C   0  0  0  0  0  0  0  0  0  0  0  0
  -29.0151  -27.7931   20.4648 C   0  0  0  0  0  0  0  0  0  0  0  0
  -20.8013  -10.0971   22.6046 C   0  0  0  0  0  0  0  0  0  0  0  0
  -19.3293   -8.1610   21.2381 C   0  0  0  0  0  0  0  0  0  0  0  0
  -21.1522   -8.7512   22.7098 C   0  0  0  0  0  0  0  0  0  0  0  0
  -24.0257  -15.0442   20.2561 C   0  0  0  0  0  0  0  0  0  0  0  0
  -24.4764  -16.6202   18.7905 C   0  0  0  0  0  0  0  0  0  0  0  0
  -29.9468  -25.0328   18.3374 C   0  0  0  0  0  0  0  0  0  0  0  0
  -22.1595  -15.6990   18.6118 C   0  0  0  0  0  0  0  0  0  0  0  0
  -23.8349  -26.3519   21.2083 C   0  0  0  0  0  0  0  0  0  0  0  0
  -30.9037  -28.3056   17.4214 C   0  0  0  0  0  0  0  0  0  0  0  0
  -23.2183  -29.4115   22.0924 C   0  0  0  0  0  0  0  0  0  0  0  0
  -24.3931  -32.5774   22.5856 C   0  0  0  0  0  0  0  0  0  0  0  0
  -28.5878  -20.1903   19.9541 C   0  0  0  0  0  0  0  0  0  0  0  0
  -19.8970  -23.1103   21.4145 C   0  0  0  0  0  0  0  0  0  0  0  0
  -25.6386  -26.7535   22.9233 C   0  0  0  0  0  0  0  0  0  0  0  0
  -25.4467  -28.9826   20.9897 C   0  0  0  0  0  0  0  0  0  0  0  0
  -20.0734  -24.5960   21.1114 C   0  0  0  0  0  0  0  0  0  0  0  0
  -29.3806  -16.7202   20.0395 C   0  0  0  0  0  0  0  0  0  0  0  0
  -21.1964  -24.8049   20.1005 C   0  0  0  0  0  0  0  0  0  0  0  0
  -28.0124  -16.0350   20.0158 C   0  0  0  0  0  0  0  0  0  0  0  0
  -29.3558  -18.0079   20.8610 C   0  0  0  0  0  0  0  0  0  0  0  0
  -26.9406  -18.2804   20.4590 C   0  0  0  0  0  0  0  0  0  0  0  0
  -22.5362  -24.3036   20.6528 C   0  0  1  0  0  0  0  0  0  0  0  0
  -24.2990  -27.2083   22.3524 C   0  0  1  0  0  0  0  0  0  0  0  0
  -26.8997  -17.0129   19.5899 C   0  0  2  0  0  0  0  0  0  0  0  0
  -31.6784  -26.6325   15.7146 C   0  0  0  0  0  0  0  0  0  0  0  0
  -23.6442  -34.8715   23.2737 C   0  0  0  0  0  0  0  0  0  0  0  0
  -21.9404  -29.8139   19.3510 C   0  0  0  0  0  0  0  0  0  0  0  0
  -22.0799  -32.2853   19.7260 C   0  0  0  0  0  0  0  0  0  0  0  0
  -20.6978  -30.8709   21.2465 C   0  0  0  0  0  0  0  0  0  0  0  0
  -26.2104  -32.5965   24.9215 C   0  0  0  0  0  0  0  0  0  0  0  0
  -29.8113  -28.6801   18.4068 C   0  0  0  0  0  0  0  0  0  1  0  0
  -31.1660  -26.8273   17.1336 C   0  0  2  0  0  0  0  0  0  0  0  0
  -23.2190  -30.7479   21.3903 C   0  0  1  0  0  0  0  0  0  0  0  0
  -24.2237  -33.5459   23.7423 C   0  0  2  0  0  0  0  0  0  0  0  0
  -22.0077  -30.9133   20.4297 C   0  0  0  0  0  0  0  0  0  0  0  0
  -25.2881  -15.3932   20.5177 N   0  0  0  0  0  0  0  0  0  0  0  0
  -25.5335  -16.3532   19.6098 N   0  0  0  0  0  0  0  0  0  0  0  0
  -24.3313  -28.5892   21.8664 N   0  0  0  0  0  0  0  0  0  0  0  0
  -28.2797  -18.8870   20.3984 N   0  0  0  0  0  0  0  0  0  0  0  0
  -24.5518  -17.5575   17.8219 N   0  0  0  0  0  0  0  0  0  0  0  0
  -21.2478  -14.7765   19.1432 N   0  0  0  0  0  0  0  0  0  0  0  0
  -27.4880  -20.9221   19.5073 N   0  0  0  0  0  0  0  0  0  0  0  0
  -29.9971  -26.0198   17.3610 N   0  0  0  0  0  0  0  0  0  0  0  0
  -23.0840  -25.2576   21.5931 N   0  0  0  0  0  0  0  0  0  0  0  0
  -23.2927  -31.7597   22.4388 N   0  0  0  0  0  0  0  0  0  0  0  0
  -25.5381  -33.8111   24.3926 N   0  3  0  0  0  0  0  0  0  0  0  0
  -30.8724  -24.7501   19.0936 O   0  0  0  0  0  0  0  0  0  0  0  0
  -21.8133  -16.4153   17.6420 O   0  0  0  0  0  0  0  0  0  0  0  0
  -24.1345  -26.6619   20.0612 O   0  0  0  0  0  0  0  0  0  0  0  0
  -31.6066  -29.1742   16.8976 O   0  0  0  0  0  0  0  0  0  0  0  0
  -22.2687  -29.1112   22.8202 O   0  0  0  0  0  0  0  0  0  0  0  0
  -25.3994  -32.5516   21.8804 O   0  0  0  0  0  0  0  0  0  0  0  0
  -29.7458  -20.6154   19.9433 O   0  0  0  0  0  0  0  0  0  0  0  0
  -21.5305  -11.0593   23.2829 O   0  0  0  0  0  0  0  0  0  0  0  0
  -30.0853  -28.1238   19.6921 O   0  0  0  0  0  0  0  0  0  1  0  0
  -18.6215   -7.2314   20.5831 F   0  0  0  0  0  0  0  0  0  0  0  0
  -22.1946   -8.3820   23.4666 F   0  0  0  0  0  0  0  0  0  0  0  0
  1  2  1  0  0  0  0
  1  7  2  0  0  0  0
  2  8  2  0  0  0  0
  3  6  2  0  0  0  0
  3 10  1  0  0  0  0
  4 11  2  0  0  0  0
  4 19  1  0  0  0  0
  5 12  1  0  0  0  0
  5 19  2  0  0  0  0
  6 20  1  0  0  0  0
  7 22  1  0  0  0  0
  8 24  1  0  0  0  0
  9 13  2  0  0  0  0
  9 23  1  0  0  0  0
 10 26  2  0  0  0  0
 11 27  1  0  0  0  0
 12 27  2  0  0  0  0
 13 28  1  0  0  0  0
 14 15  2  0  0  0  0
 14 29  1  0  0  0  0
 15 30  1  0  0  0  0
 16 20  2  0  0  0  0
 16 26  1  0  0  0  0
 17 25  1  0  0  0  0
 17 28  2  0  0  0  0
 18 30  2  0  0  0  0
 18 31  1  0  0  0  0
 19 32  1  0  0  0  0
 20 34  1  0  0  0  0
 21 32  1  0  0  0  0
 21 33  2  0  0  0  0
 21 35  1  0  0  0  0
 22 24  2  0  0  0  0
 22 41  1  0  0  0  0
 23 25  2  0  0  0  0
 23 42  1  0  0  0  0
 24 50  1  0  0  0  0
 25 43  1  0  0  0  0
 26 70  1  0  0  0  0
 27 82  1  0  0  0  0
 28 83  1  0  0  0  0
 29 31  2  0  0  0  0
 29 82  1  0  0  0  0
 30 84  1  0  0  0  0
 31 85  1  0  0  0  0
 32 64  2  0  0  0  0
 33 65  1  0  0  0  0
 33 68  1  0  0  0  0
 34 71  1  0  0  0  0
 34 75  2  0  0  0  0
 35 69  1  0  0  0  0
 35 76  2  0  0  0  0
 36 51  1  0  0  0  0
 36 72  1  0  0  0  0
 36 77  2  0  0  0  0
 37 59  1  0  0  0  0
 37 60  1  0  0  0  0
 37 78  2  0  0  0  0
 38 61  1  0  0  0  0
 38 66  1  0  0  0  0
 38 79  2  0  0  0  0
 39 62  1  0  0  0  0
 39 73  1  0  0  0  0
 39 80  2  0  0  0  0
 40 67  1  0  0  0  0
 40 70  1  0  0  0  0
 40 81  2  0  0  0  0
 41 44  1  0  0  0  0
 42 51  1  0  0  0  0
 43 66  1  0  0  0  0
 44 46  1  0  0  0  0
 45 47  1  0  0  0  0
 45 48  1  0  0  0  0
 46 50  1  0  0  0  0
 47 52  1  0  0  0  0
 48 67  1  0  0  0  0
 49 52  1  0  0  0  0
 49 67  1  0  0  0  0
 50 72  1  0  0  0  0
 51 66  1  0  0  0  0
 52 65  1  0  0  0  0
 53 60  1  0  0  0  0
 54 62  1  0  0  0  0
 55 63  1  0  0  0  0
 56 63  1  0  0  0  0
 57 63  1  0  0  0  0
 58 74  1  0  0  0  0
 59 83  1  0  0  0  0
 60 71  1  0  0  0  0
 61 63  1  0  0  0  0
 61 73  1  0  0  0  0
 62 74  1  0  0  0  0
 64 65  1  0  0  0  0
M  CHG  1  74   1
M  ISO  4  40 100  59 101  70 100  83 101
M  END
> <Batch ID>
0166

> <Smiles>
CNC(C)C(=O)NC(C(=O)N1Cc2cc([101O:1][101CH2:1]C(=O)C(C)NC(=O)c3cccc([100NH:0][100C:0](=O)N4CCCC(n5nc(-c6ccc(Oc7ccc(F)cc7F)cc6)c(C(N)=O)c5N)C4)c3)ccc2CC1C(=O)NC1CCCc2ccccc21)C(C)(C)C

> <Shape>
0.222

> <Color>
0.067

> <Negative vol penalty>
0.000

$$$$

  -OEChem-04052304083D

 86 94  0     1  0  0  0  0  0999 V2000
  -23.1796  -34.6912   27.8817 C   0  0  0  0  0  0  0  0  0  0  0  0
  -22.8897  -33.3308   27.8539 C   0  0  0  0  0  0  0  0  0  0  0  0
  -22.7997  -10.4851   21.1298 C   0  0  0  0  0  0  0  0  0  0  0  0
  -24.6383   -9.0192   21.6847 C   0  0  0  0  0  0  0  0  0  0  0  0
  -27.4174  -20.7297   20.6142 C   0  0  0  0  0  0  0  0  0  0  0  0
  -23.5652  -35.3446   26.7119 C   0  0  0  0  0  0  0  0  0  0  0  0
  -22.9842  -32.6233   26.6560 C   0  0  0  0  0  0  0  0  0  0  0  0
  -24.7614  -26.8057   25.9468 C   0  0  0  0  0  0  0  0  0  0  0  0
  -26.8932  -21.5328   21.6270 C   0  0  0  0  0  0  0  0  0  0  0  0
  -21.9333   -9.3921   21.1129 C   0  0  0  0  0  0  0  0  0  0  0  0
  -23.7719   -7.9261   21.6679 C   0  0  0  0  0  0  0  0  0  0  0  0
  -24.0466  -25.6188   25.7917 C   0  0  0  0  0  0  0  0  0  0  0  0
  -21.9762   -4.7982   22.1256 C   0  0  0  0  0  0  0  0  0  0  0  0
  -22.0745   -3.8756   23.1671 C   0  0  0  0  0  0  0  0  0  0  0  0
  -24.2875  -25.7935   23.3978 C   0  0  0  0  0  0  0  0  0  0  0  0
  -24.9872  -20.0593   21.8089 C   0  0  0  0  0  0  0  0  0  0  0  0
  -21.5646   -5.6194   24.7597 C   0  0  0  0  0  0  0  0  0  0  0  0
  -24.1522  -10.2986   21.4156 C   0  0  0  0  0  0  0  0  0  0  0  0
  -26.7264  -19.5915   20.1986 C   0  0  0  0  0  0  0  0  0  0  0  0
  -25.3662  -12.2433   22.5347 C   0  0  0  0  0  0  0  0  0  0  0  0
  -23.6738  -34.6427   25.5011 C   0  0  0  0  0  0  0  0  0  0  0  0
  -25.2360  -27.5023   24.8261 C   0  0  0  0  0  0  0  0  0  0  0  0
  -23.3703  -33.2682   25.4687 C   0  0  0  0  0  0  0  0  0  0  0  0
  -25.0103  -26.9877   23.5415 C   0  0  0  0  0  0  0  0  0  0  0  0
  -25.6781  -21.1976   22.2244 C   0  0  0  0  0  0  0  0  0  0  0  0
  -25.5113  -19.2563   20.7959 C   0  0  0  0  0  0  0  0  0  0  0  0
  -22.4194   -8.1126   21.3820 C   0  0  0  0  0  0  0  0  0  0  0  0
  -23.8070  -25.1140   24.5170 C   0  0  0  0  0  0  0  0  0  0  0  0
  -21.6722   -6.1314   22.4011 C   0  0  0  0  0  0  0  0  0  0  0  0
  -21.8687   -4.2862   24.4842 C   0  0  0  0  0  0  0  0  0  0  0  0
  -21.4664   -6.5419   23.7181 C   0  0  0  0  0  0  0  0  0  0  0  0
  -25.0478  -11.4272   21.4326 C   0  0  0  0  0  0  0  0  0  0  0  0
  -26.2531  -13.1650   22.0345 C   0  0  0  0  0  0  0  0  0  0  0  0
  -27.3076  -18.7656   19.1253 C   0  0  0  0  0  0  0  0  0  0  0  0
  -24.9017  -12.1743   23.8894 C   0  0  0  0  0  0  0  0  0  0  0  0
  -24.7164  -30.3847   23.5909 C   0  0  0  0  0  0  0  0  0  0  0  0
  -27.0876  -29.5122   21.5566 C   0  0  0  0  0  0  0  0  0  0  0  0
  -23.5809  -17.6472   20.8893 C   0  0  0  0  0  0  0  0  0  0  0  0
  -28.8383  -26.9958   20.0566 C   0  0  0  0  0  0  0  0  0  0  0  0
  -27.6815  -16.7789   18.0279 C   0  0  0  0  0  0  0  0  0  0  0  0
  -24.0486  -35.4020   24.2530 C   0  0  0  0  0  0  0  0  0  0  0  0
  -26.0285  -28.7672   25.0115 C   0  0  0  0  0  0  0  0  0  0  0  0
  -25.5160  -27.6868   22.3070 C   0  0  0  0  0  0  0  0  0  0  0  0
  -24.4870  -34.5016   23.1009 C   0  0  0  0  0  0  0  0  0  0  0  0
  -28.6955  -13.3426   17.6166 C   0  0  0  0  0  0  0  0  0  0  0  0
  -23.5166  -33.3364   22.9350 C   0  0  0  0  0  0  0  0  0  0  0  0
  -27.8356  -12.6021   18.6407 C   0  0  0  0  0  0  0  0  0  0  0  0
  -27.9450  -14.5201   17.0020 C   0  0  0  0  0  0  0  0  0  0  0  0
  -26.5457  -14.7467   19.0366 C   0  0  0  0  0  0  0  0  0  0  0  0
  -23.4852  -32.4611   24.1937 C   0  0  1  0  0  0  0  0  0  0  0  0
  -26.0213  -29.6633   23.7769 C   0  0  1  0  0  0  0  0  0  0  0  0
  -27.2815  -13.5705   19.7010 C   0  0  1  0  0  0  0  0  0  0  0  0
  -23.1493  -16.3828   20.1896 C   0  0  0  0  0  0  0  0  0  0  0  0
  -30.6922  -26.5932   18.4140 C   0  0  0  0  0  0  0  0  0  0  0  0
  -22.6496  -22.2942   26.0045 C   0  0  0  0  0  0  0  0  0  0  0  0
  -25.1978  -30.1940   19.2601 C   0  0  0  0  0  0  0  0  0  0  0  0
  -26.7037  -28.9054   17.7305 C   0  0  0  0  0  0  0  0  0  0  0  0
  -27.5646  -30.9247   18.9154 C   0  0  0  0  0  0  0  0  0  0  0  0
  -30.4878  -25.6054   22.0826 C   0  0  0  0  0  0  0  0  0  0  0  0
  -23.9067  -21.7246   23.9007 C   0  0  0  0  0  0  0  0  0  0  0  0
  -27.1470  -28.8029   20.2253 C   0  0  1  0  0  0  0  0  0  0  0  0
  -30.3293  -26.7724   19.8800 C   0  0  2  0  0  0  0  0  0  0  0  0
  -23.6521  -22.7845   24.9700 C   0  0  1  0  0  0  0  0  0  1  0  0
  -26.6419  -29.6944   19.0558 C   0  0  0  0  0  0  0  0  0  0  0  0
  -25.6809  -11.7980   20.3165 N   0  0  0  0  0  0  0  0  0  0  0  0
  -27.1038  -17.4906   19.0618 N   0  0  0  0  0  0  0  0  0  0  0  0
  -26.4059  -12.8572   20.7146 N   0  0  0  0  0  0  0  0  0  0  0  0
  -26.2801  -28.9234   22.5400 N   0  0  0  0  0  0  0  0  0  0  0  0
  -27.4051  -15.3994   18.0400 N   0  0  0  0  0  0  0  0  0  0  0  0
  -26.9094  -14.2007   22.5993 N   0  0  0  0  0  0  0  0  0  0  0  0
  -23.9922  -11.1649   24.2332 N   0  0  0  0  0  0  0  0  0  0  0  0
  -24.8025  -18.1201   20.3959 N   0  0  0  0  0  0  0  0  0  0  0  0
  -25.1568  -21.9966   23.2283 N   0  0  0  0  0  0  0  0  0  0  0  0
  -24.6489  -31.6021   24.2412 N   0  0  0  0  0  0  0  0  0  0  0  0
  -28.5211  -28.3377   20.0716 N   0  0  0  0  0  0  0  0  0  0  0  0
  -30.7625  -25.5556   20.6235 N   0  3  0  0  0  0  0  0  0  0  0  0
  -25.2694  -12.9938   24.7650 O   0  0  0  0  0  0  0  0  0  0  0  0
  -23.8365  -29.8752   22.9069 O   0  0  0  0  0  0  0  0  0  0  0  0
  -27.7395  -30.5466   21.7203 O   0  0  0  0  0  0  0  0  0  0  0  0
  -22.8894  -18.1437   21.7725 O   0  0  0  0  0  0  0  0  0  0  0  0
  -28.0347  -26.0724   20.1664 O   0  0  0  0  0  0  0  0  0  0  0  0
  -28.3819  -17.2883   17.1498 O   0  0  0  0  0  0  0  0  0  0  0  0
  -21.5742   -7.0459   21.3659 O   0  0  0  0  0  0  0  0  0  0  0  0
  -23.1090  -23.9561   24.3628 O   0  0  0  0  0  0  0  0  0  1  0  0
  -21.9616   -3.3999   25.4841 F   0  0  0  0  0  0  0  0  0  0  0  0
  -21.1728   -7.8211   23.9889 F   0  0  0  0  0  0  0  0  0  0  0  0
  1  2  1  0  0  0  0
  1  6  2  0  0  0  0
  2  7  2  0  0  0  0
  3 10  2  0  0  0  0
  3 18  1  0  0  0  0
  4 11  1  0  0  0  0
  4 18  2  0  0  0  0
  5  9  2  0  0  0  0
  5 19  1  0  0  0  0
  6 21  1  0  0  0  0
  7 23  1  0  0  0  0
  8 12  2  0  0  0  0
  8 22  1  0  0  0  0
  9 25  1  0  0  0  0
 10 27  1  0  0  0  0
 11 27  2  0  0  0  0
 12 28  1  0  0  0  0
 13 14  2  0  0  0  0
 13 29  1  0  0  0  0
 14 30  1  0  0  0  0
 15 24  1  0  0  0  0
 15 28  2  0  0  0  0
 16 25  2  0  0  0  0
 16 26  1  0  0  0  0
 17 30  2  0  0  0  0
 17 31  1  0  0  0  0
 18 32  1  0  0  0  0
 19 26  2  0  0  0  0
 19 34  1  0  0  0  0
 20 32  1  0  0  0  0
 20 33  2  0  0  0  0
 20 35  1  0  0  0  0
 21 23  2  0  0  0  0
 21 41  1  0  0  0  0
 22 24  2  0  0  0  0
 22 42  1  0  0  0  0
 23 50  1  0  0  0  0
 24 43  1  0  0  0  0
 25 73  1  0  0  0  0
 26 72  1  0  0  0  0
 27 83  1  0  0  0  0
 28 84  1  0  0  0  0
 29 31  2  0  0  0  0
 29 83  1  0  0  0  0
 30 85  1  0  0  0  0
 31 86  1  0  0  0  0
 32 65  2  0  0  0  0
 33 67  1  0  0  0  0
 33 70  1  0  0  0  0
 34 66  2  0  0  0  0
 35 71  1  0  0  0  0
 35 77  2  0  0  0  0
 36 51  1  0  0  0  0
 36 74  1  0  0  0  0
 36 78  2  0  0  0  0
 37 61  1  0  0  0  0
 37 68  1  0  0  0  0
 37 79  2  0  0  0  0
 38 53  1  0  0  0  0
 38 72  1  0  0  0  0
 38 80  2  0  0  0  0
 39 62  1  0  0  0  0
 39 75  1  0  0  0  0
 39 81  2  0  0  0  0
 40 66  1  0  0  0  0
 40 69  1  0  0  0  0
 40 82  2  0  0  0  0
 41 44  1  0  0  0  0
 42 51  1  0  0  0  0
 43 68  1  0  0  0  0
 44 46  1  0  0  0  0
 45 47  1  0  0  0  0
 45 48  1  0  0  0  0
 46 50  1  0  0  0  0
 47 52  1  0  0  0  0
 48 69  1  0  0  0  0
 49 52  1  0  0  0  0
 49 69  1  0  0  0  0
 50 74  1  0  0  0  0
 51 68  1  0  0  0  0
 52 67  1  0  0  0  0
 54 62  1  0  0  0  0
 55 63  1  0  0  0  0
 56 64  1  0  0  0  0
 57 64  1  0  0  0  0
 58 64  1  0  0  0  0
 59 76  1  0  0  0  0
 60 63  1  0  0  0  0
 60 73  1  0  0  0  0
 61 64  1  0  0  0  0
 61 75  1  0  0  0  0
 62 76  1  0  0  0  0
 63 84  1  0  0  0  0
 65 67  1  0  0  0  0
M  CHG  1  76   1
M  ISO  4  40 100  63 101  66 100  84 101
M  END
> <Batch ID>
0166

> <Smiles>
CNC(C)C(=O)NC(C(=O)N1Cc2cc([101O:1][101CH:1](C)CNc3ccc(C=[100N:0][100C:0](=O)N4CCCC(n5nc(-c6ccc(Oc7ccc(F)cc7F)cc6)c(C(N)=O)c5N)C4)c(NC(C)=O)c3)ccc2CC1C(=O)NC1CCCc2ccccc21)C(C)(C)C

> <Shape>
0.233

> <Color>
0.093

> <Negative vol penalty>
0.000

$$$$

  -OEChem-04052304083D

 88 97  0     1  0  0  0  0  0999 V2000
  -16.3366  -28.9323   23.7926 C   0  0  0  0  0  0  0  0  0  0  0  0
  -17.1965  -28.0381   23.1628 C   0  0  0  0  0  0  0  0  0  0  0  0
  -23.0569  -10.2628   20.0682 C   0  0  0  0  0  0  0  0  0  0  0  0
  -24.6240   -8.7895   21.1686 C   0  0  0  0  0  0  0  0  0  0  0  0
  -16.7440  -30.2459   24.0211 C   0  0  0  0  0  0  0  0  0  0  0  0
  -18.4639  -28.4575   22.7602 C   0  0  0  0  0  0  0  0  0  0  0  0
  -23.6044  -25.1288   22.7250 C   0  0  0  0  0  0  0  0  0  0  0  0
  -28.5820  -18.1713   18.1237 C   0  0  0  0  0  0  0  0  0  0  0  0
  -22.0010   -9.4553   20.4907 C   0  0  0  0  0  0  0  0  0  0  0  0
  -23.5680   -7.9820   21.5911 C   0  0  0  0  0  0  0  0  0  0  0  0
  -24.2672  -24.4373   21.7119 C   0  0  0  0  0  0  0  0  0  0  0  0
  -21.2176   -8.0263   24.0190 C   0  0  0  0  0  0  0  0  0  0  0  0
  -21.2255   -7.5928   25.3447 C   0  0  0  0  0  0  0  0  0  0  0  0
  -28.5651  -19.4792   17.6521 C   0  0  0  0  0  0  0  0  0  0  0  0
  -25.7117  -26.3384   21.3676 C   0  0  0  0  0  0  0  0  0  0  0  0
  -21.2653   -5.2968   24.5938 C   0  0  0  0  0  0  0  0  0  0  0  0
  -29.5236  -18.9715   20.1559 C   0  0  0  0  0  0  0  0  0  0  0  0
  -24.3685   -9.9299   20.4071 C   0  0  0  0  0  0  0  0  0  0  0  0
  -25.8164  -11.0709   18.6438 C   0  0  0  0  0  0  0  0  0  0  0  0
  -18.0207  -30.6790   23.6298 C   0  0  0  0  0  0  0  0  0  0  0  0
  -23.9838  -26.4365   23.0602 C   0  0  0  0  0  0  0  0  0  0  0  0
  -18.8883  -29.7786   22.9825 C   0  0  0  0  0  0  0  0  0  0  0  0
  -25.0538  -27.0434   22.3871 C   0  0  0  0  0  0  0  0  0  0  0  0
  -29.0688  -17.9041   19.3984 C   0  0  0  0  0  0  0  0  0  0  0  0
  -22.2565   -8.3150   21.2522 C   0  0  0  0  0  0  0  0  0  0  0  0
  -25.3191  -25.0432   21.0310 C   0  0  0  0  0  0  0  0  0  0  0  0
  -21.2335   -7.0950   22.9806 C   0  0  0  0  0  0  0  0  0  0  0  0
  -21.2494   -6.2281   25.6322 C   0  0  0  0  0  0  0  0  0  0  0  0
  -21.2573   -5.7303   23.2680 C   0  0  0  0  0  0  0  0  0  0  0  0
  -25.4597  -10.7633   19.9704 C   0  0  0  0  0  0  0  0  0  0  0  0
  -29.0422  -20.4761   18.4878 C   0  0  0  0  0  0  0  0  0  0  0  0
  -26.9116  -11.8909   18.7640 C   0  0  0  0  0  0  0  0  0  0  0  0
  -25.2117  -10.6529   17.4128 C   0  0  0  0  0  0  0  0  0  0  0  0
  -22.5483  -29.2720   23.0069 C   0  0  0  0  0  0  0  0  0  0  0  0
  -25.2765  -30.2454   24.4670 C   0  0  0  0  0  0  0  0  0  0  0  0
  -28.5946  -29.7109   25.0601 C   0  0  0  0  0  0  0  0  0  0  0  0
  -29.5554  -16.1673   21.1570 C   0  0  0  0  0  0  0  0  0  0  0  0
  -18.3989  -32.1214   23.8556 C   0  0  0  0  0  0  0  0  0  0  0  0
  -23.2762  -27.1590   24.1736 C   0  0  0  0  0  0  0  0  0  0  0  0
  -25.5131  -28.4380   22.7227 C   0  0  0  0  0  0  0  0  0  0  0  0
  -19.8978  -32.3843   23.7349 C   0  0  0  0  0  0  0  0  0  0  0  0
  -29.7600  -13.0126   22.7952 C   0  0  0  0  0  0  0  0  0  0  0  0
  -20.4591  -31.7106   22.4868 C   0  0  0  0  0  0  0  0  0  0  0  0
  -28.6888  -12.1715   22.0972 C   0  0  0  0  0  0  0  0  0  0  0  0
  -29.6115  -24.8095   18.3285 C   0  0  0  0  0  0  0  0  0  0  0  0
  -30.4779  -22.4731   17.9996 C   0  0  0  0  0  0  0  0  0  0  0  0
  -29.3234  -14.4678   22.9551 C   0  0  0  0  0  0  0  0  0  0  0  0
  -27.8110  -14.2821   21.0193 C   0  0  0  0  0  0  0  0  0  0  0  0
  -28.1841  -24.2842   18.3151 C   0  0  0  0  0  0  0  0  0  0  0  0
  -20.2802  -30.1891   22.5534 C   0  0  1  0  0  0  0  0  0  0  0  0
  -29.0392  -21.9175   18.0052 C   0  0  2  0  0  0  0  0  0  0  0  0
  -23.4115  -28.6758   24.0825 C   0  0  1  0  0  0  0  0  0  0  0  0
  -28.2318  -12.8233   20.7774 C   0  0  2  0  0  0  0  0  0  0  0  0
  -30.5919  -23.9364   17.5242 C   0  0  0  0  0  0  0  0  0  0  0  0
  -32.0282  -24.4354   17.7740 C   0  0  0  0  0  0  0  0  0  0  0  0
  -30.3123  -24.0446   16.0129 C   0  0  0  0  0  0  0  0  0  0  0  0
  -30.5649  -30.6975   26.2608 C   0  0  0  0  0  0  0  0  0  0  0  0
  -26.7029  -22.5709   21.4665 C   0  0  0  0  0  0  0  0  0  0  0  0
  -25.5314  -32.3734   22.2952 C   0  0  0  0  0  0  0  0  0  0  0  0
  -27.9229  -32.6772   22.9712 C   0  0  0  0  0  0  0  0  0  0  0  0
  -26.0969  -33.1621   24.6001 C   0  0  0  0  0  0  0  0  0  0  0  0
  -28.9131  -27.3058   26.7550 C   0  0  0  0  0  0  0  0  0  0  0  0
  -26.7159  -22.3846   18.9152 C   0  0  0  0  0  0  0  0  0  0  0  0
  -26.6148  -30.7621   23.9970 C   0  0  1  0  0  0  0  0  0  0  0  0
  -29.4024  -29.7206   26.3453 C   0  0  2  0  0  0  0  0  0  0  0  0
  -26.0288  -22.9496   20.1542 C   0  0  2  0  0  0  0  0  0  1  0  0
  -26.5318  -32.2181   23.4580 C   0  0  0  0  0  0  0  0  0  0  0  0
  -29.5229  -20.2552   19.7319 N   0  0  0  0  0  0  0  0  0  0  0  0
  -26.2633  -11.3407   20.8675 N   0  0  0  0  0  0  0  0  0  0  0  0
  -27.1359  -12.0194   20.1032 N   0  0  0  0  0  0  0  0  0  0  0  0
  -24.7855  -29.1056   23.8146 N   0  0  0  0  0  0  0  0  0  0  0  0
  -28.9085  -15.0203   21.6638 N   0  0  0  0  0  0  0  0  0  0  0  0
  -27.6951  -12.5074   17.8538 N   0  0  0  0  0  0  0  0  0  0  0  0
  -25.6701   -9.4736   16.8099 N   0  0  0  0  0  0  0  0  0  0  0  0
  -29.0984  -16.5817   19.9065 N   0  0  0  0  0  0  0  0  0  0  0  0
  -21.2735  -29.6012   23.4264 N   0  0  0  0  0  0  0  0  0  0  0  0
  -27.5345  -30.5909   25.1165 N   0  0  0  0  0  0  0  0  0  0  0  0
  -28.1479  -22.8595   18.8239 N   0  3  2  0  0  0  0  0  0  0  0  0
  -29.9491  -28.3625   26.6237 N   0  3  0  0  0  0  0  0  0  0  0  0
  -24.3033  -11.3144   16.8553 O   0  0  0  0  0  0  0  0  0  0  0  0
  -23.0055  -29.4237   21.8801 O   0  0  0  0  0  0  0  0  0  0  0  0
  -24.6918  -30.8273   25.3841 O   0  0  0  0  0  0  0  0  0  0  0  0
  -28.8779  -28.9971   24.1006 O   0  0  0  0  0  0  0  0  0  0  0  0
  -30.4676  -16.7236   21.7738 O   0  0  0  0  0  0  0  0  0  0  0  0
  -21.2263   -7.5269   21.6649 O   0  0  0  0  0  0  0  0  0  0  0  0
  -25.9673  -24.3708   20.0413 O   0  0  0  0  0  0  0  0  0  1  0  0
  -21.2586   -5.8121   26.9053 F   0  0  0  0  0  0  0  0  0  0  0  0
  -21.2738   -4.8309   22.2747 F   0  0  0  0  0  0  0  0  0  0  0  0
  1  2  1  0  0  0  0
  1  5  2  0  0  0  0
  2  6  2  0  0  0  0
  3  9  2  0  0  0  0
  3 18  1  0  0  0  0
  4 10  1  0  0  0  0
  4 18  2  0  0  0  0
  5 20  1  0  0  0  0
  6 22  1  0  0  0  0
  7 11  2  0  0  0  0
  7 21  1  0  0  0  0
  8 14  2  0  0  0  0
  8 24  1  0  0  0  0
  9 25  1  0  0  0  0
 10 25  2  0  0  0  0
 11 26  1  0  0  0  0
 12 13  2  0  0  0  0
 12 27  1  0  0  0  0
 13 28  1  0  0  0  0
 14 31  1  0  0  0  0
 15 23  1  0  0  0  0
 15 26  2  0  0  0  0
 16 28  2  0  0  0  0
 16 29  1  0  0  0  0
 17 24  2  0  0  0  0
 17 68  1  0  0  0  0
 18 30  1  0  0  0  0
 19 30  1  0  0  0  0
 19 32  2  0  0  0  0
 19 33  1  0  0  0  0
 20 22  2  0  0  0  0
 20 38  1  0  0  0  0
 21 23  2  0  0  0  0
 21 39  1  0  0  0  0
 22 50  1  0  0  0  0
 23 40  1  0  0  0  0
 24 75  1  0  0  0  0
 25 85  1  0  0  0  0
 26 86  1  0  0  0  0
 27 29  2  0  0  0  0
 27 85  1  0  0  0  0
 28 87  1  0  0  0  0
 29 88  1  0  0  0  0
 30 69  2  0  0  0  0
 31 51  1  0  0  0  0
 31 68  2  0  0  0  0
 32 70  1  0  0  0  0
 32 73  1  0  0  0  0
 33 74  1  0  0  0  0
 33 80  2  0  0  0  0
 34 52  1  0  0  0  0
 34 76  1  0  0  0  0
 34 81  2  0  0  0  0
 35 64  1  0  0  0  0
 35 71  1  0  0  0  0
 35 82  2  0  0  0  0
 36 65  1  0  0  0  0
 36 77  1  0  0  0  0
 36 83  2  0  0  0  0
 37 72  1  0  0  0  0
 37 75  1  0  0  0  0
 37 84  2  0  0  0  0
 38 41  1  0  0  0  0
 39 52  1  0  0  0  0
 40 71  1  0  0  0  0
 41 43  1  0  0  0  0
 42 44  1  0  0  0  0
 42 47  1  0  0  0  0
 43 50  1  0  0  0  0
 44 53  1  0  0  0  0
 45 49  1  0  0  0  0
 45 54  1  0  0  0  0
 46 51  1  0  0  0  0
 46 54  1  0  0  0  0
 47 72  1  0  0  0  0
 48 53  1  0  0  0  0
 48 72  1  0  0  0  0
 49 78  1  0  0  0  0
 50 76  1  0  0  0  0
 51 78  1  0  0  0  0
 52 71  1  0  0  0  0
 53 70  1  0  0  0  0
 54 55  1  0  0  0  0
 54 56  1  0  0  0  0
 57 65  1  0  0  0  0
 58 66  1  0  0  0  0
 59 67  1  0  0  0  0
 60 67  1  0  0  0  0
 61 67  1  0  0  0  0
 62 79  1  0  0  0  0
 63 66  1  0  0  0  0
 63 78  1  0  0  0  0
 64 67  1  0  0  0  0
 64 77  1  0  0  0  0
 65 79  1  0  0  0  0
 66 86  1  0  0  0  0
 69 70  1  0  0  0  0
M  CHG  2  78   1  79   1
M  ISO  4  37 100  66 101  75 100  86 101
M  END
> <Batch ID>
0166

> <Smiles>
CNC(C)C(=O)NC(C(=O)N1Cc2cc([101O:1][101CH:1](C)CN3CCC(C)(C)CC3c3ccc([100NH:0][100C:0](=O)N4CCCC(n5nc(-c6ccc(Oc7ccc(F)cc7F)cc6)c(C(N)=O)c5N)C4)cn3)ccc2CC1C(=O)NC1CCCc2ccccc21)C(C)(C)C

> <Shape>
0.319

> <Color>
0.082

> <Negative vol penalty>
0.000

$$$$

  -OEChem-04052304083D

 89 98  0     1  0  0  0  0  0999 V2000
  -21.8279  -28.1705   32.5281 C   0  0  0  0  0  0  0  0  0  0  0  0
  -22.1619  -27.3803   31.4329 C   0  0  0  0  0  0  0  0  0  0  0  0
  -23.0959   -9.9251   21.5442 C   0  0  0  0  0  0  0  0  0  0  0  0
  -23.8081  -10.9140   23.6303 C   0  0  0  0  0  0  0  0  0  0  0  0
  -21.5921  -29.5339   32.3565 C   0  0  0  0  0  0  0  0  0  0  0  0
  -22.2591  -27.9528   30.1652 C   0  0  0  0  0  0  0  0  0  0  0  0
  -26.4525  -26.4055   27.6131 C   0  0  0  0  0  0  0  0  0  0  0  0
  -22.3646   -8.9680   22.2476 C   0  0  0  0  0  0  0  0  0  0  0  0
  -23.0768   -9.9570   24.3337 C   0  0  0  0  0  0  0  0  0  0  0  0
  -26.4388  -25.1442   27.0192 C   0  0  0  0  0  0  0  0  0  0  0  0
  -22.9809   -6.0943   23.9167 C   0  0  0  0  0  0  0  0  0  0  0  0
  -23.0826   -4.7670   23.5002 C   0  0  0  0  0  0  0  0  0  0  0  0
  -25.8933  -26.1554   24.8983 C   0  0  0  0  0  0  0  0  0  0  0  0
  -29.6634  -18.4166   20.8456 C   0  0  0  0  0  0  0  0  0  0  0  0
  -20.7036   -4.7158   23.0820 C   0  0  0  0  0  0  0  0  0  0  0  0
  -31.7239  -17.6084   19.9752 C   0  0  0  0  0  0  0  0  0  0  0  0
  -23.8178  -10.8981   22.2356 C   0  0  0  0  0  0  0  0  0  0  0  0
  -24.1238  -13.1450   21.0670 C   0  0  0  0  0  0  0  0  0  0  0  0
  -21.6960  -30.1253   31.0876 C   0  0  0  0  0  0  0  0  0  0  0  0
  -26.1761  -27.5527   26.8552 C   0  0  0  0  0  0  0  0  0  0  0  0
  -22.0232  -29.3252   29.9762 C   0  0  0  0  0  0  0  0  0  0  0  0
  -25.9089  -27.4304   25.4840 C   0  0  0  0  0  0  0  0  0  0  0  0
  -30.4549  -17.3397   20.4621 C   0  0  0  0  0  0  0  0  0  0  0  0
  -30.1581  -19.7111   20.7320 C   0  0  0  0  0  0  0  0  0  0  0  0
  -22.3549   -8.9840   23.6423 C   0  0  0  0  0  0  0  0  0  0  0  0
  -26.1569  -25.0188   25.6621 C   0  0  0  0  0  0  0  0  0  0  0  0
  -21.7405   -6.7323   23.9160 C   0  0  0  0  0  0  0  0  0  0  0  0
  -21.9440   -4.0777   23.0828 C   0  0  0  0  0  0  0  0  0  0  0  0
  -20.6019   -6.0431   23.4986 C   0  0  0  0  0  0  0  0  0  0  0  0
  -24.5739  -11.8867   21.5096 C   0  0  0  0  0  0  0  0  0  0  0  0
  -31.4406  -19.8736   20.2332 C   0  0  0  0  0  0  0  0  0  0  0  0
  -25.2117  -13.6961   20.4353 C   0  0  0  0  0  0  0  0  0  0  0  0
  -22.8373  -13.7606   21.2139 C   0  0  0  0  0  0  0  0  0  0  0  0
  -23.9860  -29.8867   26.8964 C   0  0  0  0  0  0  0  0  0  0  0  0
  -27.1254  -22.3756   23.3757 C   0  0  0  0  0  0  0  0  0  0  0  0
  -25.9473  -31.0590   24.4814 C   0  0  0  0  0  0  0  0  0  0  0  0
  -28.0710  -20.7820   21.6376 C   0  0  0  0  0  0  0  0  0  0  0  0
  -24.3373  -34.0590   24.6993 C   0  0  0  0  0  0  0  0  0  0  0  0
  -30.6567  -14.8402   20.2206 C   0  0  0  0  0  0  0  0  0  0  0  0
  -21.3856  -31.5942   30.9437 C   0  0  0  0  0  0  0  0  0  0  0  0
  -26.2258  -28.9072   27.5089 C   0  0  0  0  0  0  0  0  0  0  0  0
  -25.6098  -28.6306   24.6269 C   0  0  0  0  0  0  0  0  0  0  0  0
  -21.8760  -32.1944   29.6285 C   0  0  0  0  0  0  0  0  0  0  0  0
  -32.9317  -21.5030   17.8590 C   0  0  0  0  0  0  0  0  0  0  0  0
  -34.1234  -21.5307   18.8060 C   0  0  0  0  0  0  0  0  0  0  0  0
  -29.6280  -11.6294   19.0763 C   0  0  0  0  0  0  0  0  0  0  0  0
  -21.5016  -31.2916   28.4573 C   0  0  0  0  0  0  0  0  0  0  0  0
  -31.7463  -21.8958   18.7258 C   0  0  0  0  0  0  0  0  0  0  0  0
  -33.5658  -21.3333   20.2184 C   0  0  0  0  0  0  0  0  0  0  0  0
  -28.1844  -11.5136   19.5709 C   0  0  0  0  0  0  0  0  0  0  0  0
  -30.5146  -12.3633   20.0808 C   0  0  0  0  0  0  0  0  0  0  0  0
  -28.5688  -13.5590   21.0046 C   0  0  0  0  0  0  0  0  0  0  0  0
  -22.1627  -29.9142   28.5892 C   0  0  1  0  0  0  0  0  0  0  0  0
  -32.0368  -21.2582   20.0885 C   0  0  0  0  0  0  0  0  0  0  0  0
  -25.4760  -29.9875   26.7321 C   0  0  1  0  0  0  0  0  0  0  0  0
  -27.6232  -12.8842   19.9976 C   0  0  2  0  0  0  0  0  0  0  0  0
  -24.4634  -36.4265   23.8768 C   0  0  0  0  0  0  0  0  0  0  0  0
  -28.2261  -31.6119   26.4326 C   0  0  0  0  0  0  0  0  0  0  0  0
  -27.6709  -34.0484   26.2807 C   0  0  0  0  0  0  0  0  0  0  0  0
  -28.4111  -32.8105   24.2454 C   0  0  0  0  0  0  0  0  0  0  0  0
  -21.7030  -33.8585   23.3654 C   0  0  0  0  0  0  0  0  0  0  0  0
  -27.5409  -22.1718   21.9335 C   0  0  0  0  0  0  0  0  0  0  0  0
  -26.5043  -23.7191   23.7010 C   0  0  0  0  0  0  0  0  0  1  0  0
  -26.1025  -32.3846   25.1840 C   0  0  1  0  0  0  0  0  0  0  0  0
  -23.8871  -35.0406   23.6324 C   0  0  2  0  0  0  0  0  0  0  0  0
  -27.5829  -32.6950   25.5437 C   0  0  0  0  0  0  0  0  0  0  0  0
  -32.2390  -18.8520   19.8504 N   0  0  0  0  0  0  0  0  0  0  0  0
  -25.8484  -11.6520   21.1863 N   0  0  0  0  0  0  0  0  0  0  0  0
  -26.2084  -12.7703   20.5337 N   0  0  0  0  0  0  0  0  0  0  0  0
  -25.7537  -29.9326   25.2912 N   0  0  0  0  0  0  0  0  0  0  0  0
  -29.9221  -13.6549   20.4352 N   0  0  0  0  0  0  0  0  0  0  0  0
  -25.4034  -14.8774   19.8106 N   0  0  0  0  0  0  0  0  0  0  0  0
  -21.8325  -13.0555   21.8903 N   0  0  0  0  0  0  0  0  0  0  0  0
  -29.3590  -20.8133   21.1196 N   0  0  0  0  0  0  0  0  0  0  0  0
  -29.9787  -16.0091   20.5650 N   0  0  0  0  0  0  0  0  0  0  0  0
  -23.5565  -29.9838   28.2062 N   0  0  0  0  0  0  0  0  0  0  0  0
  -25.4760  -33.3799   24.3206 N   0  0  0  0  0  0  0  0  0  0  0  0
  -22.4005  -35.1454   23.6191 N   0  3  0  0  0  0  0  0  0  0  0  0
  -22.5813  -14.8953   20.7445 O   0  0  0  0  0  0  0  0  0  0  0  0
  -23.2781  -29.7337   25.9079 O   0  0  0  0  0  0  0  0  0  0  0  0
  -27.2876  -21.5089   24.2335 O   0  0  0  0  0  0  0  0  0  0  0  0
  -26.0036  -31.0195   23.2492 O   0  0  0  0  0  0  0  0  0  0  0  0
  -27.3858  -19.7931   21.8850 O   0  0  0  0  0  0  0  0  0  0  0  0
  -23.7408  -33.9123   25.7638 O   0  0  0  0  0  0  0  0  0  0  0  0
  -31.7925  -14.8216   19.7394 O   0  0  0  0  0  0  0  0  0  0  0  0
  -21.6412   -8.0504   24.3290 O   0  0  0  0  0  0  0  0  0  0  0  0
  -26.1434  -23.7889   25.0798 O   0  0  0  0  0  0  0  0  0  1  0  0
  -22.0422   -2.8036   22.6814 F   0  0  0  0  0  0  0  0  0  0  0  0
  -19.4077   -6.6512   23.4945 F   0  0  0  0  0  0  0  0  0  0  0  0
  1  2  1  0  0  0  0
  1  5  2  0  0  0  0
  2  6  2  0  0  0  0
  3  8  2  0  0  0  0
  3 17  1  0  0  0  0
  4  9  1  0  0  0  0
  4 17  2  0  0  0  0
  5 19  1  0  0  0  0
  6 21  1  0  0  0  0
  7 10  2  0  0  0  0
  7 20  1  0  0  0  0
  8 25  1  0  0  0  0
  9 25  2  0  0  0  0
 10 26  1  0  0  0  0
 11 12  2  0  0  0  0
 11 27  1  0  0  0  0
 12 28  1  0  0  0  0
 13 22  1  0  0  0  0
 13 26  2  0  0  0  0
 14 23  2  0  0  0  0
 14 24  1  0  0  0  0
 15 28  2  0  0  0  0
 15 29  1  0  0  0  0
 16 23  1  0  0  0  0
 16 67  2  0  0  0  0
 17 30  1  0  0  0  0
 18 30  1  0  0  0  0
 18 32  2  0  0  0  0
 18 33  1  0  0  0  0
 19 21  2  0  0  0  0
 19 40  1  0  0  0  0
 20 22  2  0  0  0  0
 20 41  1  0  0  0  0
 21 53  1  0  0  0  0
 22 42  1  0  0  0  0
 23 75  1  0  0  0  0
 24 31  2  0  0  0  0
 24 74  1  0  0  0  0
 25 86  1  0  0  0  0
 26 87  1  0  0  0  0
 27 29  2  0  0  0  0
 27 86  1  0  0  0  0
 28 88  1  0  0  0  0
 29 89  1  0  0  0  0
 30 68  2  0  0  0  0
 31 54  1  0  0  0  0
 31 67  1  0  0  0  0
 32 69  1  0  0  0  0
 32 72  1  0  0  0  0
 33 73  1  0  0  0  0
 33 79  2  0  0  0  0
 34 55  1  0  0  0  0
 34 76  1  0  0  0  0
 34 80  2  0  0  0  0
 35 62  1  0  0  0  0
 35 63  1  0  0  0  0
 35 81  2  0  0  0  0
 36 64  1  0  0  0  0
 36 70  1  0  0  0  0
 36 82  2  0  0  0  0
 37 62  1  0  0  0  0
 37 74  1  0  0  0  0
 37 83  2  0  0  0  0
 38 65  1  0  0  0  0
 38 77  1  0  0  0  0
 38 84  2  0  0  0  0
 39 71  1  0  0  0  0
 39 75  1  0  0  0  0
 39 85  2  0  0  0  0
 40 43  1  0  0  0  0
 41 55  1  0  0  0  0
 42 70  1  0  0  0  0
 43 47  1  0  0  0  0
 44 45  1  0  0  0  0
 44 48  1  0  0  0  0
 45 49  1  0  0  0  0
 46 50  1  0  0  0  0
 46 51  1  0  0  0  0
 47 53  1  0  0  0  0
 48 54  1  0  0  0  0
 49 54  1  0  0  0  0
 50 56  1  0  0  0  0
 51 71  1  0  0  0  0
 52 56  1  0  0  0  0
 52 71  1  0  0  0  0
 53 76  1  0  0  0  0
 55 70  1  0  0  0  0
 56 69  1  0  0  0  0
 57 65  1  0  0  0  0
 58 66  1  0  0  0  0
 59 66  1  0  0  0  0
 60 66  1  0  0  0  0
 61 78  1  0  0  0  0
 63 87  1  0  0  0  0
 64 66  1  0  0  0  0
 64 77  1  0  0  0  0
 65 78  1  0  0  0  0
 68 69  1  0  0  0  0
M  CHG  1  78   1
M  ISO  4  39 100  63 101  75 100  87 101
M  END
> <Batch ID>
0166

> <Smiles>
CNC(C)C(=O)NC(C(=O)N1Cc2cc([101O:1][101CH2:1]C(=O)CC(=O)Nc3cc([100NH:0][100C:0](=O)N4CCCC(n5nc(-c6ccc(Oc7ccc(F)cc7F)cc6)c(C(N)=O)c5N)C4)cnc3C3CCCC3)ccc2CC1C(=O)NC1CCCc2ccccc21)C(C)(C)C

> <Shape>
0.251

> <Color>
0.155

> <Negative vol penalty>
0.000

$$$$

  -OEChem-04052304083D

 88 96  0     1  0  0  0  0  0999 V2000
  -17.3113  -32.5807   22.6675 C   0  0  0  0  0  0  0  0  0  0  0  0
  -18.4944  -32.7645   23.3760 C   0  0  0  0  0  0  0  0  0  0  0  0
  -25.1414  -13.8062   21.5032 C   0  0  0  0  0  0  0  0  0  0  0  0
  -26.6220  -13.4540   19.6268 C   0  0  0  0  0  0  0  0  0  0  0  0
  -16.9777  -31.3154   22.1862 C   0  0  0  0  0  0  0  0  0  0  0  0
  -19.3441  -31.6827   23.6045 C   0  0  0  0  0  0  0  0  0  0  0  0
  -26.2948  -30.0906   24.2900 C   0  0  0  0  0  0  0  0  0  0  0  0
  -24.3431  -12.7468   21.0722 C   0  0  0  0  0  0  0  0  0  0  0  0
  -25.8237  -12.3944   19.1958 C   0  0  0  0  0  0  0  0  0  0  0  0
  -27.1706  -29.4425   25.1598 C   0  0  0  0  0  0  0  0  0  0  0  0
  -24.4137   -9.3681   21.1854 C   0  0  0  0  0  0  0  0  0  0  0  0
  -23.9851   -8.4484   22.1424 C   0  0  0  0  0  0  0  0  0  0  0  0
  -26.5299  -27.3184   24.2127 C   0  0  0  0  0  0  0  0  0  0  0  0
  -31.7189  -24.3231   24.2894 C   0  0  0  0  0  0  0  0  0  0  0  0
  -32.2733  -23.0724   22.2981 C   0  0  0  0  0  0  0  0  0  0  0  0
  -30.8266  -25.0016   22.1492 C   0  0  0  0  0  0  0  0  0  0  0  0
  -21.6861   -8.9812   21.6249 C   0  0  0  0  0  0  0  0  0  0  0  0
  -26.2809  -14.1599   20.7805 C   0  0  0  0  0  0  0  0  0  0  0  0
  -28.2037  -15.1896   22.1033 C   0  0  0  0  0  0  0  0  0  0  0  0
  -17.8284  -30.2195   22.4006 C   0  0  0  0  0  0  0  0  0  0  0  0
  -25.5206  -29.3554   23.3808 C   0  0  0  0  0  0  0  0  0  0  0  0
  -19.0209  -30.4013   23.1268 C   0  0  0  0  0  0  0  0  0  0  0  0
  -25.6469  -27.9598   23.3306 C   0  0  0  0  0  0  0  0  0  0  0  0
  -32.3859  -23.2631   23.6753 C   0  0  0  0  0  0  0  0  0  0  0  0
  -30.9392  -25.1923   23.5264 C   0  0  0  0  0  0  0  0  0  0  0  0
  -24.6842  -12.0408   19.9185 C   0  0  0  0  0  0  0  0  0  0  0  0
  -27.2861  -28.0560   25.1233 C   0  0  0  0  0  0  0  0  0  0  0  0
  -23.4785  -10.0945   20.4481 C   0  0  0  0  0  0  0  0  0  0  0  0
  -22.6214   -8.2549   22.3621 C   0  0  0  0  0  0  0  0  0  0  0  0
  -22.1147   -9.9010   20.6679 C   0  0  0  0  0  0  0  0  0  0  0  0
  -31.4937  -23.9416   21.5351 C   0  0  0  0  0  0  0  0  0  0  0  0
  -27.1056  -15.2546   21.2248 C   0  0  0  0  0  0  0  0  0  0  0  0
  -28.6407  -16.4879   22.2033 C   0  0  0  0  0  0  0  0  0  0  0  0
  -28.7775  -14.0570   22.7693 C   0  0  0  0  0  0  0  0  0  0  0  0
  -22.4047  -28.9319   22.9169 C   0  0  0  0  0  0  0  0  0  0  0  0
  -23.4118  -27.3067   20.2964 C   0  0  0  0  0  0  0  0  0  0  0  0
  -25.9042  -25.5626   18.7497 C   0  0  0  0  0  0  0  0  0  0  0  0
  -30.0205  -21.2417   19.8874 C   0  0  0  0  0  0  0  0  0  0  0  0
  -17.4024  -28.8614   21.9020 C   0  0  0  0  0  0  0  0  0  0  0  0
  -24.6003  -30.0716   22.4309 C   0  0  0  0  0  0  0  0  0  0  0  0
  -24.8531  -27.1262   22.3593 C   0  0  0  0  0  0  0  0  0  0  0  0
  -18.5387  -27.8428   21.8633 C   0  0  0  0  0  0  0  0  0  0  0  0
  -26.5220  -20.8088   20.6526 C   0  0  0  0  0  0  0  0  0  0  0  0
  -19.3355  -27.8822   23.1634 C   0  0  0  0  0  0  0  0  0  0  0  0
  -26.4548  -19.3080   20.9393 C   0  0  0  0  0  0  0  0  0  0  0  0
  -27.4917  -21.1160   19.5142 C   0  0  0  0  0  0  0  0  0  0  0  0
  -28.7995  -19.0842   20.0043 C   0  0  0  0  0  0  0  0  0  0  0  0
  -19.9806  -29.2575   23.3736 C   0  0  1  0  0  0  0  0  0  0  0  0
  -23.4809  -29.1822   21.8987 C   0  0  1  0  0  0  0  0  0  0  0  0
  -27.8595  -18.7200   21.1670 C   0  0  2  0  0  0  0  0  0  0  0  0
  -26.4189  -24.3250   16.6281 C   0  0  0  0  0  0  0  0  0  0  0  0
  -29.9380  -28.3628   27.2155 C   0  0  0  0  0  0  0  0  0  0  0  0
  -21.7314  -24.9515   21.2656 C   0  0  0  0  0  0  0  0  0  0  0  0
  -23.0029  -23.4839   19.6852 C   0  0  0  0  0  0  0  0  0  0  0  0
  -21.6241  -25.3656   18.8016 C   0  0  0  0  0  0  0  0  0  0  0  0
  -28.1186  -27.4064   18.0745 C   0  0  0  0  0  0  0  0  0  0  0  0
  -33.4459  -20.0845   25.5343 C   0  0  0  0  0  0  0  0  0  0  0  0
  -31.1978  -21.1299   25.3018 C   0  0  0  0  0  0  0  0  0  0  0  0
  -33.2207  -22.3343   24.4905 C   0  0  0  0  0  0  0  0  0  0  0  0
  -30.3389  -26.5157   25.5547 C   0  0  0  0  0  0  0  0  0  0  0  0
  -23.7880  -25.8738   20.0063 C   0  0  1  0  0  0  0  0  0  0  0  0
  -26.4844  -25.6617   17.3504 C   0  0  2  0  0  0  0  0  0  0  0  0
  -29.5218  -27.7640   25.8798 C   0  0  1  0  0  0  0  0  0  1  0  0
  -22.5503  -24.9339   19.9594 C   0  0  0  0  0  0  0  0  0  0  0  0
  -26.8600  -16.4960   20.7974 N   0  0  0  0  0  0  0  0  0  0  0  0
  -27.8099  -17.2230   21.4099 N   0  0  0  0  0  0  0  0  0  0  0  0
  -23.9622  -27.8723   21.4553 N   0  0  0  0  0  0  0  0  0  0  0  0
  -28.8105  -20.5354   19.7918 N   0  0  0  0  0  0  0  0  0  0  0  0
  -29.6507  -17.0610   22.8918 N   0  0  0  0  0  0  0  0  0  0  0  0
  -28.2052  -12.7956   22.5555 N   0  0  0  0  0  0  0  0  0  0  0  0
  -30.2773  -26.2448   24.1363 N   0  0  0  0  0  0  0  0  0  0  0  0
  -21.1578  -29.3958   22.5433 N   0  0  0  0  0  0  0  0  0  0  0  0
  -24.5670  -25.8980   18.7730 N   0  0  0  0  0  0  0  0  0  0  0  0
  -29.9836  -22.6680   19.7101 N   0  0  0  0  0  0  0  0  0  0  0  0
  -27.9093  -26.0943   17.4099 N   0  3  0  0  0  0  0  0  0  0  0  0
  -32.5812  -21.0086   24.7162 N   0  3  0  0  0  0  0  0  0  0  0  0
  -29.7582  -14.1628   23.5443 O   0  0  0  0  0  0  0  0  0  0  0  0
  -22.6845  -28.3589   23.9634 O   0  0  0  0  0  0  0  0  0  0  0  0
  -22.6630  -27.9045   19.5195 O   0  0  0  0  0  0  0  0  0  0  0  0
  -26.5697  -25.2182   19.7238 O   0  0  0  0  0  0  0  0  0  0  0  0
  -31.0904  -20.6794   20.1243 O   0  0  0  0  0  0  0  0  0  0  0  0
  -31.0109  -24.9890   19.2176 O   0  0  0  0  0  0  0  0  0  0  0  0
  -32.5244  -22.9793   19.3346 O   0  0  0  0  0  0  0  0  0  0  0  0
  -23.9056  -11.0068   19.4978 O   0  0  0  0  0  0  0  0  0  0  0  0
  -28.1398  -27.4208   25.9716 O   0  0  0  0  0  0  0  0  0  1  0  0
  -22.2099   -7.3704   23.2801 F   0  0  0  0  0  0  0  0  0  0  0  0
  -21.2116  -10.5951   19.9619 F   0  0  0  0  0  0  0  0  0  0  0  0
  -31.3518  -23.7009   19.7900 S   0  0  0  0  0  0  0  0  0  0  0  0
  1  2  1  0  0  0  0
  1  5  2  0  0  0  0
  2  6  2  0  0  0  0
  3  8  2  0  0  0  0
  3 18  1  0  0  0  0
  4  9  1  0  0  0  0
  4 18  2  0  0  0  0
  5 20  1  0  0  0  0
  6 22  1  0  0  0  0
  7 10  2  0  0  0  0
  7 21  1  0  0  0  0
  8 26  1  0  0  0  0
  9 26  2  0  0  0  0
 10 27  1  0  0  0  0
 11 12  2  0  0  0  0
 11 28  1  0  0  0  0
 12 29  1  0  0  0  0
 13 23  1  0  0  0  0
 13 27  2  0  0  0  0
 14 24  2  0  0  0  0
 14 25  1  0  0  0  0
 15 24  1  0  0  0  0
 15 31  2  0  0  0  0
 16 25  2  0  0  0  0
 16 31  1  0  0  0  0
 17 29  2  0  0  0  0
 17 30  1  0  0  0  0
 18 32  1  0  0  0  0
 19 32  1  0  0  0  0
 19 33  2  0  0  0  0
 19 34  1  0  0  0  0
 20 22  2  0  0  0  0
 20 39  1  0  0  0  0
 21 23  2  0  0  0  0
 21 40  1  0  0  0  0
 22 48  1  0  0  0  0
 23 41  1  0  0  0  0
 24 59  1  0  0  0  0
 25 71  1  0  0  0  0
 26 84  1  0  0  0  0
 27 85  1  0  0  0  0
 28 30  2  0  0  0  0
 28 84  1  0  0  0  0
 29 86  1  0  0  0  0
 30 87  1  0  0  0  0
 31 88  1  0  0  0  0
 32 65  2  0  0  0  0
 33 66  1  0  0  0  0
 33 69  1  0  0  0  0
 34 70  1  0  0  0  0
 34 77  2  0  0  0  0
 35 49  1  0  0  0  0
 35 72  1  0  0  0  0
 35 78  2  0  0  0  0
 36 61  1  0  0  0  0
 36 67  1  0  0  0  0
 36 79  2  0  0  0  0
 37 62  1  0  0  0  0
 37 73  1  0  0  0  0
 37 80  2  0  0  0  0
 38 68  1  0  0  0  0
 38 74  1  0  0  0  0
 38 81  2  0  0  0  0
 39 42  1  0  0  0  0
 40 49  1  0  0  0  0
 41 67  1  0  0  0  0
 42 44  1  0  0  0  0
 43 45  1  0  0  0  0
 43 46  1  0  0  0  0
 44 48  1  0  0  0  0
 45 50  1  0  0  0  0
 46 68  1  0  0  0  0
 47 50  1  0  0  0  0
 47 68  1  0  0  0  0
 48 72  1  0  0  0  0
 49 67  1  0  0  0  0
 50 66  1  0  0  0  0
 51 62  1  0  0  0  0
 52 63  1  0  0  0  0
 53 64  1  0  0  0  0
 54 64  1  0  0  0  0
 55 64  1  0  0  0  0
 56 75  1  0  0  0  0
 57 76  1  0  0  0  0
 58 76  1  0  0  0  0
 59 76  1  0  0  0  0
 60 63  1  0  0  0  0
 60 71  1  0  0  0  0
 61 64  1  0  0  0  0
 61 73  1  0  0  0  0
 62 75  1  0  0  0  0
 63 85  1  0  0  0  0
 65 66  1  0  0  0  0
 74 88  1  0  0  0  0
 82 88  2  0  0  0  0
 83 88  2  0  0  0  0
M  CHG  2  75   1  76   1
M  ISO  4  38 100  63 101  74 100  85 101
M  END
> <Batch ID>
0166

> <Smiles>
CNC(C)C(=O)NC(C(=O)N1Cc2cc([101O:1][101CH:1](C)CNc3cc(CN(C)C)cc(S(=O)(=O)[100NH:0][100C:0](=O)N4CCCC(n5nc(-c6ccc(Oc7ccc(F)cc7F)cc6)c(C(N)=O)c5N)C4)c3)ccc2CC1C(=O)NC1CCCc2ccccc21)C(C)(C)C

> <Shape>
0.230

> <Color>
0.073

> <Negative vol penalty>
0.000

$$$$

  -OEChem-04052304083D

 93102  0     1  0  0  0  0  0999 V2000
  -27.3389  -32.5103   27.7413 C   0  0  0  0  0  0  0  0  0  0  0  0
  -27.6568  -31.5494   26.7868 C   0  0  0  0  0  0  0  0  0  0  0  0
  -23.7852   -9.1866   19.9108 C   0  0  0  0  0  0  0  0  0  0  0  0
  -24.2082   -9.3059   22.2865 C   0  0  0  0  0  0  0  0  0  0  0  0
  -26.0038  -32.8084   28.0110 C   0  0  0  0  0  0  0  0  0  0  0  0
  -26.6397  -30.8852   26.1022 C   0  0  0  0  0  0  0  0  0  0  0  0
  -27.5426  -30.5489   21.1306 C   0  0  0  0  0  0  0  0  0  0  0  0
  -23.5458   -7.8169   20.0222 C   0  0  0  0  0  0  0  0  0  0  0  0
  -23.9689   -7.9362   22.3979 C   0  0  0  0  0  0  0  0  0  0  0  0
  -28.4495  -29.5760   20.7126 C   0  0  0  0  0  0  0  0  0  0  0  0
  -21.2903   -5.8797   22.5250 C   0  0  0  0  0  0  0  0  0  0  0  0
  -20.4843   -5.4478   23.5783 C   0  0  0  0  0  0  0  0  0  0  0  0
  -29.7667  -21.1064   21.9083 C   0  0  0  0  0  0  0  0  0  0  0  0
  -26.6134  -28.1358   20.1012 C   0  0  0  0  0  0  0  0  0  0  0  0
  -22.3075   -4.1065   24.4233 C   0  0  0  0  0  0  0  0  0  0  0  0
  -31.5348  -20.7730   20.3528 C   0  0  0  0  0  0  0  0  0  0  0  0
  -24.1164   -9.9311   21.0430 C   0  0  0  0  0  0  0  0  0  0  0  0
  -29.9496  -19.8006   22.3497 C   0  0  0  0  0  0  0  0  0  0  0  0
  -23.4228  -12.3860   21.0441 C   0  0  0  0  0  0  0  0  0  0  0  0
  -24.9700  -32.1544   27.3223 C   0  0  0  0  0  0  0  0  0  0  0  0
  -26.1620  -30.3179   21.0471 C   0  0  0  0  0  0  0  0  0  0  0  0
  -25.2895  -31.1739   26.3638 C   0  0  0  0  0  0  0  0  0  0  0  0
  -25.6911  -29.1084   20.5165 C   0  0  0  0  0  0  0  0  0  0  0  0
  -30.5703  -21.6095   20.8912 C   0  0  0  0  0  0  0  0  0  0  0  0
  -23.6377   -7.1918   21.2657 C   0  0  0  0  0  0  0  0  0  0  0  0
  -27.9850  -28.3681   20.2005 C   0  0  0  0  0  0  0  0  0  0  0  0
  -22.6048   -5.4250   22.4207 C   0  0  0  0  0  0  0  0  0  0  0  0
  -20.9929   -4.5612   24.5274 C   0  0  0  0  0  0  0  0  0  0  0  0
  -23.1135   -4.5384   23.3699 C   0  0  0  0  0  0  0  0  0  0  0  0
  -24.3643  -11.3458   20.9285 C   0  0  0  0  0  0  0  0  0  0  0  0
  -30.9417  -19.0450   21.7458 C   0  0  0  0  0  0  0  0  0  0  0  0
  -24.1541  -13.5334   20.8571 C   0  0  0  0  0  0  0  0  0  0  0  0
  -28.8215  -26.1947   20.4184 C   0  0  0  0  0  0  0  0  0  1  0  0
  -29.1097  -19.2724   23.4139 C   0  0  0  0  0  0  0  0  0  0  0  0
  -22.0132  -12.3207   21.2979 C   0  0  0  0  0  0  0  0  0  0  0  0
  -29.6338  -25.1762   20.1110 C   0  0  0  0  0  0  0  0  0  0  0  0
  -29.4951  -23.8840   20.8588 C   0  0  0  0  0  0  0  0  0  0  0  0
  -23.7866  -30.1371   23.1514 C   0  0  0  0  0  0  0  0  0  0  0  0
  -21.9562  -29.9319   20.4812 C   0  0  0  0  0  0  0  0  0  0  0  0
  -21.7409  -29.1310   17.1708 C   0  0  0  0  0  0  0  0  0  0  0  0
  -30.1322  -14.3038   21.6367 C   0  0  0  0  0  0  0  0  0  0  0  0
  -23.5411  -32.4765   27.6818 C   0  0  0  0  0  0  0  0  0  0  0  0
  -25.1967  -31.3881   21.4773 C   0  0  0  0  0  0  0  0  0  0  0  0
  -24.2186  -28.8193   20.3868 C   0  0  0  0  0  0  0  0  0  0  0  0
  -22.5290  -31.9957   26.6451 C   0  0  0  0  0  0  0  0  0  0  0  0
  -28.0524  -15.1861   18.6532 C   0  0  0  0  0  0  0  0  0  0  0  0
  -22.8299  -30.5585   26.2319 C   0  0  0  0  0  0  0  0  0  0  0  0
  -26.8178  -14.3189   18.8936 C   0  0  0  0  0  0  0  0  0  0  0  0
  -32.8212  -15.8852   23.0836 C   0  0  0  0  0  0  0  0  0  0  0  0
  -29.2976  -14.5587   19.2689 C   0  0  0  0  0  0  0  0  0  0  0  0
  -32.4939  -14.9993   21.8884 C   0  0  0  0  0  0  0  0  0  0  0  0
  -30.8763  -16.6450   21.0201 C   0  0  0  0  0  0  0  0  0  0  0  0
  -27.9337  -13.3948   20.9747 C   0  0  0  0  0  0  0  0  0  0  0  0
  -24.2148  -30.4496   25.5824 C   0  0  1  0  0  0  0  0  0  0  0  0
  -31.1897  -17.6102   22.1850 C   0  0  1  0  0  0  0  0  0  0  0  0
  -23.8152  -30.8421   21.8248 C   0  0  1  0  0  0  0  0  0  0  0  0
  -32.6164  -17.3746   22.7515 C   0  0  1  0  0  0  0  0  0  0  0  0
  -26.6493  -14.0047   20.3897 C   0  0  2  0  0  0  0  0  0  0  0  0
  -32.8875  -18.2172   24.0023 C   0  0  0  0  0  0  0  0  0  0  0  0
  -27.3965  -17.4749   24.0083 C   0  0  0  0  0  0  0  0  0  0  0  0
  -20.1050  -29.0318   15.2704 C   0  0  0  0  0  0  0  0  0  0  0  0
  -20.7533  -27.3844   21.6530 C   0  0  0  0  0  0  0  0  0  0  0  0
  -19.8740  -26.8346   19.3742 C   0  0  0  0  0  0  0  0  0  0  0  0
  -19.1046  -28.9009   20.5409 C   0  0  0  0  0  0  0  0  0  0  0  0
  -23.2876  -31.0930   15.5842 C   0  0  0  0  0  0  0  0  0  0  0  0
  -27.7978  -18.5717   23.0343 C   0  0  0  0  0  0  0  0  0  0  0  0
  -21.4545  -28.8034   19.6131 C   0  0  1  0  0  0  0  0  0  0  0  0
  -21.1442  -29.8767   15.9908 C   0  0  2  0  0  0  0  0  0  0  0  0
  -20.3244  -27.9852   20.2994 C   0  0  0  0  0  0  0  0  0  0  0  0
  -31.7419  -19.4992   20.7554 N   0  0  0  0  0  0  0  0  0  0  0  0
  -25.5995  -11.7929   20.6865 N   0  0  0  0  0  0  0  0  0  0  0  0
  -25.4391  -13.1267   20.6486 N   0  0  0  0  0  0  0  0  0  0  0  0
  -23.3145  -29.8946   20.8269 N   0  0  0  0  0  0  0  0  0  0  0  0
  -29.0981  -14.2352   20.6884 N   0  0  0  0  0  0  0  0  0  0  0  0
  -31.1387  -15.2541   21.4085 N   0  0  0  0  0  0  0  0  0  0  0  0
  -23.8168  -14.8406   20.8522 N   0  0  0  0  0  0  0  0  0  0  0  0
  -21.4221  -11.0610   21.4657 N   0  0  0  0  0  0  0  0  0  0  0  0
  -30.4108  -22.9133   20.4281 N   0  0  0  0  0  0  0  0  0  0  0  0
  -24.1717  -30.9278   24.2172 N   0  0  0  0  0  0  0  0  0  0  0  0
  -21.0680  -29.4067   18.3423 N   0  0  0  0  0  0  0  0  0  0  0  0
  -22.2107  -30.2419   15.0160 N   0  3  0  0  0  0  0  0  0  0  0  0
  -29.4068  -19.3639   24.6168 O   0  0  0  0  0  0  0  0  0  0  0  0
  -21.2960  -13.3482   21.3574 O   0  0  0  0  0  0  0  0  0  0  0  0
  -28.6527  -23.7535   21.7405 O   0  0  0  0  0  0  0  0  0  0  0  0
  -23.4393  -28.9631   23.2044 O   0  0  0  0  0  0  0  0  0  0  0  0
  -21.1735  -30.8179   20.8335 O   0  0  0  0  0  0  0  0  0  0  0  0
  -22.7050  -28.3763   17.0633 O   0  0  0  0  0  0  0  0  0  0  0  0
  -30.1511  -13.5642   22.6283 O   0  0  0  0  0  0  0  0  0  0  0  0
  -30.5980  -25.2665   19.1278 O   0  0  0  0  0  0  0  0  0  0  0  0
  -23.4039   -5.8553   21.3748 O   0  0  0  0  0  0  0  0  0  0  0  0
  -28.8742  -27.4098   19.7895 O   0  0  0  0  0  0  0  0  0  1  0  0
  -20.2194   -4.1477   25.5398 F   0  0  0  0  0  0  0  0  0  0  0  0
  -24.3760   -4.0990   23.2757 F   0  0  0  0  0  0  0  0  0  0  0  0
  1  2  1  0  0  0  0
  1  5  2  0  0  0  0
  2  6  2  0  0  0  0
  3  8  2  0  0  0  0
  3 17  1  0  0  0  0
  4  9  1  0  0  0  0
  4 17  2  0  0  0  0
  5 20  1  0  0  0  0
  6 22  1  0  0  0  0
  7 10  2  0  0  0  0
  7 21  1  0  0  0  0
  8 25  1  0  0  0  0
  9 25  2  0  0  0  0
 10 26  1  0  0  0  0
 11 12  2  0  0  0  0
 11 27  1  0  0  0  0
 12 28  1  0  0  0  0
 13 18  1  0  0  0  0
 13 24  2  0  0  0  0
 14 23  1  0  0  0  0
 14 26  2  0  0  0  0
 15 28  2  0  0  0  0
 15 29  1  0  0  0  0
 16 24  1  0  0  0  0
 16 70  2  0  0  0  0
 17 30  1  0  0  0  0
 18 31  2  0  0  0  0
 18 34  1  0  0  0  0
 19 30  1  0  0  0  0
 19 32  2  0  0  0  0
 19 35  1  0  0  0  0
 20 22  2  0  0  0  0
 20 42  1  0  0  0  0
 21 23  2  0  0  0  0
 21 43  1  0  0  0  0
 22 54  1  0  0  0  0
 23 44  1  0  0  0  0
 24 78  1  0  0  0  0
 25 90  1  0  0  0  0
 26 91  1  0  0  0  0
 27 29  2  0  0  0  0
 27 90  1  0  0  0  0
 28 92  1  0  0  0  0
 29 93  1  0  0  0  0
 30 71  2  0  0  0  0
 31 55  1  0  0  0  0
 31 70  1  0  0  0  0
 32 72  1  0  0  0  0
 32 76  1  0  0  0  0
 33 36  2  0  0  0  0
 33 91  1  0  0  0  0
 34 66  1  0  0  0  0
 34 82  2  0  0  0  0
 35 77  1  0  0  0  0
 35 83  2  0  0  0  0
 36 37  1  0  0  0  0
 36 89  1  0  0  0  0
 37 78  1  0  0  0  0
 37 84  2  0  0  0  0
 38 56  1  0  0  0  0
 38 79  1  0  0  0  0
 38 85  2  0  0  0  0
 39 67  1  0  0  0  0
 39 73  1  0  0  0  0
 39 86  2  0  0  0  0
 40 68  1  0  0  0  0
 40 80  1  0  0  0  0
 40 87  2  0  0  0  0
 41 74  1  0  0  0  0
 41 75  1  0  0  0  0
 41 88  2  0  0  0  0
 42 45  1  0  0  0  0
 43 56  1  0  0  0  0
 44 73  1  0  0  0  0
 45 47  1  0  0  0  0
 46 48  1  0  0  0  0
 46 50  1  0  0  0  0
 47 54  1  0  0  0  0
 48 58  1  0  0  0  0
 49 51  1  0  0  0  0
 49 57  1  0  0  0  0
 50 74  1  0  0  0  0
 51 75  1  0  0  0  0
 52 55  1  0  0  0  0
 52 75  1  0  0  0  0
 53 58  1  0  0  0  0
 53 74  1  0  0  0  0
 54 79  1  0  0  0  0
 55 57  1  0  0  0  0
 56 73  1  0  0  0  0
 57 59  1  0  0  0  0
 58 72  1  0  0  0  0
 60 66  1  0  0  0  0
 61 68  1  0  0  0  0
 62 69  1  0  0  0  0
 63 69  1  0  0  0  0
 64 69  1  0  0  0  0
 65 81  1  0  0  0  0
 67 69  1  0  0  0  0
 67 80  1  0  0  0  0
 68 81  1  0  0  0  0
 71 72  1  0  0  0  0
M  CHG  1  81   1
M  ISO  4  33 101  41 100  75 100  91 101
M  END
> <Batch ID>
0166

> <Smiles>
CCC(=O)c1cc(NC(=O)C(=O)[101CH2:1][101O:1]c2ccc3c(c2)CN(C(=O)C(NC(=O)C(C)NC)C(C)(C)C)C(C(=O)NC2CCCc4ccccc42)C3)cnc1C1C[100N:0]([100C:0](=O)N2CCCC(n3nc(-c4ccc(Oc5ccc(F)cc5F)cc4)c(C(N)=O)c3N)C2)CCC1C

> <Shape>
0.327

> <Color>
0.104

> <Negative vol penalty>
0.000

$$$$
