
  -OEChem-04052304113D

 87 95  0     1  0  0  0  0  0999 V2000
  -28.9608  -32.9058   27.9909 C   0  0  0  0  0  0  0  0  0  0  0  0
  -28.8894  -31.7851   27.1696 C   0  0  0  0  0  0  0  0  0  0  0  0
  -23.0765   -9.8669   19.9412 C   0  0  0  0  0  0  0  0  0  0  0  0
  -23.8346   -9.8758   22.2352 C   0  0  0  0  0  0  0  0  0  0  0  0
  -30.0575  -33.0824   28.8335 C   0  0  0  0  0  0  0  0  0  0  0  0
  -29.9154  -30.8410   27.1896 C   0  0  0  0  0  0  0  0  0  0  0  0
  -28.1777  -26.0859   27.3079 C   0  0  0  0  0  0  0  0  0  0  0  0
  -22.3324   -8.7139   20.1916 C   0  0  0  0  0  0  0  0  0  0  0  0
  -23.0905   -8.7228   22.4855 C   0  0  0  0  0  0  0  0  0  0  0  0
  -27.7151  -25.5470   26.1082 C   0  0  0  0  0  0  0  0  0  0  0  0
  -19.8619   -7.9254   23.0863 C   0  0  0  0  0  0  0  0  0  0  0  0
  -19.1041   -7.8865   24.2566 C   0  0  0  0  0  0  0  0  0  0  0  0
  -31.8551  -18.3608   24.1993 C   0  0  0  0  0  0  0  0  0  0  0  0
  -29.8093  -24.3824   25.8305 C   0  0  0  0  0  0  0  0  0  0  0  0
  -32.0617  -16.6085   22.5489 C   0  0  0  0  0  0  0  0  0  0  0  0
  -20.3450   -5.9496   24.9956 C   0  0  0  0  0  0  0  0  0  0  0  0
  -23.8276  -10.4478   20.9630 C   0  0  0  0  0  0  0  0  0  0  0  0
  -30.4692  -18.3451   24.0425 C   0  0  0  0  0  0  0  0  0  0  0  0
  -24.1695  -12.9729   20.8412 C   0  0  0  0  0  0  0  0  0  0  0  0
  -31.0928  -32.1351   28.8709 C   0  0  0  0  0  0  0  0  0  0  0  0
  -29.4659  -25.7852   27.7733 C   0  0  0  0  0  0  0  0  0  0  0  0
  -31.0277  -31.0059   28.0325 C   0  0  0  0  0  0  0  0  0  0  0  0
  -30.2850  -24.9167   27.0377 C   0  0  0  0  0  0  0  0  0  0  0  0
  -30.6758  -16.5927   22.3922 C   0  0  0  0  0  0  0  0  0  0  0  0
  -22.3394   -8.1419   21.4637 C   0  0  0  0  0  0  0  0  0  0  0  0
  -28.5319  -24.6975   25.3678 C   0  0  0  0  0  0  0  0  0  0  0  0
  -20.8613   -6.9765   22.8705 C   0  0  0  0  0  0  0  0  0  0  0  0
  -19.3456   -6.8986   25.2113 C   0  0  0  0  0  0  0  0  0  0  0  0
  -32.6514  -17.4925   23.4524 C   0  0  0  0  0  0  0  0  0  0  0  0
  -21.1028   -5.9886   23.8252 C   0  0  0  0  0  0  0  0  0  0  0  0
  -29.8795  -17.4610   23.1390 C   0  0  0  0  0  0  0  0  0  0  0  0
  -24.5969  -11.6385   20.7049 C   0  0  0  0  0  0  0  0  0  0  0  0
  -25.2619  -13.7221   20.4781 C   0  0  0  0  0  0  0  0  0  0  0  0
  -29.6288  -19.2657   24.8355 C   0  0  0  0  0  0  0  0  0  0  0  0
  -22.8987  -13.4890   21.2587 C   0  0  0  0  0  0  0  0  0  0  0  0
  -32.0833  -27.4823   28.3838 C   0  0  0  0  0  0  0  0  0  0  0  0
  -33.1839  -24.6497   29.5184 C   0  0  0  0  0  0  0  0  0  0  0  0
  -27.9847  -21.1287   24.7718 C   0  0  0  0  0  0  0  0  0  0  0  0
  -32.9905  -21.2426   29.4830 C   0  0  0  0  0  0  0  0  0  0  0  0
  -30.7279  -14.7679   20.6561 C   0  0  0  0  0  0  0  0  0  0  0  0
  -32.2809  -32.3931   29.7633 C   0  0  0  0  0  0  0  0  0  0  0  0
  -29.9402  -26.3533   29.0827 C   0  0  0  0  0  0  0  0  0  0  0  0
  -31.6685  -24.5464   27.5039 C   0  0  0  0  0  0  0  0  0  0  0  0
  -33.1456  -31.1573   29.9988 C   0  0  0  0  0  0  0  0  0  0  0  0
  -29.6154  -12.3521   18.2890 C   0  0  0  0  0  0  0  0  0  0  0  0
  -33.4147  -30.4354   28.6823 C   0  0  0  0  0  0  0  0  0  0  0  0
  -28.1754  -12.0609   18.7177 C   0  0  0  0  0  0  0  0  0  0  0  0
  -30.5296  -12.5819   19.4911 C   0  0  0  0  0  0  0  0  0  0  0  0
  -28.6215  -13.3075   20.8703 C   0  0  0  0  0  0  0  0  0  0  0  0
  -32.1088  -29.9470   28.0439 C   0  0  1  0  0  0  0  0  0  0  0  0
  -31.4606  -26.3877   29.2035 C   0  0  1  0  0  0  0  0  0  0  0  0
  -27.6496  -13.1333   19.6919 C   0  0  2  0  0  0  0  0  0  0  0  0
  -34.0447  -19.1992   30.4882 C   0  0  0  0  0  0  0  0  0  0  0  0
  -25.8285  -24.0067   23.4014 C   0  0  0  0  0  0  0  0  0  0  0  0
  -35.5974  -24.9954   27.6840 C   0  0  0  0  0  0  0  0  0  0  0  0
  -36.1025  -22.5645   28.0058 C   0  0  0  0  0  0  0  0  0  0  0  0
  -36.1358  -24.1130   29.9612 C   0  0  0  0  0  0  0  0  0  0  0  0
  -30.4391  -20.3920   30.7182 C   0  0  0  0  0  0  0  0  0  0  0  0
  -27.2570  -21.9634   23.7412 C   0  0  0  0  0  0  0  0  0  0  0  0
  -33.9205  -23.4736   28.9242 C   0  0  1  0  0  0  0  0  0  0  0  0
  -32.9288  -20.2255   30.6082 C   0  0  2  0  0  0  0  0  0  0  0  0
  -26.9105  -23.3595   24.2557 C   0  0  1  0  0  0  0  0  0  1  0  0
  -35.4138  -23.7949   28.6338 C   0  0  0  0  0  0  0  0  0  0  0  0
  -25.8620  -11.5423   20.2876 N   0  0  0  0  0  0  0  0  0  0  0  0
  -26.2390  -12.8258   20.1585 N   0  0  0  0  0  0  0  0  0  0  0  0
  -32.0892  -25.1324   28.7873 N   0  0  0  0  0  0  0  0  0  0  0  0
  -29.9699  -13.6135   20.3672 N   0  0  0  0  0  0  0  0  0  0  0  0
  -25.4723  -15.0535   20.4041 N   0  0  0  0  0  0  0  0  0  0  0  0
  -21.8865  -12.5801   21.5959 N   0  0  0  0  0  0  0  0  0  0  0  0
  -30.0799  -15.6936   21.4733 N   0  0  0  0  0  0  0  0  0  0  0  0
  -28.8610  -20.1452   24.1774 N   0  0  0  0  0  0  0  0  0  0  0  0
  -31.6385  -28.7500   28.7075 N   0  0  0  0  0  0  0  0  0  0  0  0
  -33.7169  -22.3582   29.8422 N   0  0  0  0  0  0  0  0  0  0  0  0
  -29.6819  -19.1658   26.1633 N   0  3  0  0  0  0  0  0  0  0  0  0
  -31.6240  -19.5059   30.5850 N   0  3  0  0  0  0  0  0  0  0  0  0
  -22.6623  -14.7196   21.3148 O   0  0  0  0  0  0  0  0  0  0  0  0
  -32.9074  -27.1980   27.5226 O   0  0  0  0  0  0  0  0  0  0  0  0
  -33.5613  -25.1182   30.5953 O   0  0  0  0  0  0  0  0  0  0  0  0
  -27.8731  -21.2368   25.9841 O   0  0  0  0  0  0  0  0  0  0  0  0
  -32.4516  -21.0637   28.3930 O   0  0  0  0  0  0  0  0  0  0  0  0
  -31.8574  -14.9363   20.1892 O   0  0  0  0  0  0  0  0  0  0  0  0
  -21.6133   -7.0170   21.7084 O   0  0  0  0  0  0  0  0  0  0  0  0
  -28.0830  -24.1707   24.1961 O   0  0  0  0  0  0  0  0  0  1  0  0
  -18.6188   -6.8622   26.3359 F   0  0  0  0  0  0  0  0  0  0  0  0
  -33.9821  -17.5075   23.6032 F   0  0  0  0  0  0  0  0  0  0  0  0
  -22.0623   -5.0750   23.6241 F   0  0  0  0  0  0  0  0  0  0  0  0
  -28.5464  -17.4473   22.9890 F   0  0  0  0  0  0  0  0  0  0  0  0
  1  2  1  0  0  0  0
  1  5  2  0  0  0  0
  2  6  2  0  0  0  0
  3  8  2  0  0  0  0
  3 17  1  0  0  0  0
  4  9  1  0  0  0  0
  4 17  2  0  0  0  0
  5 20  1  0  0  0  0
  6 22  1  0  0  0  0
  7 10  2  0  0  0  0
  7 21  1  0  0  0  0
  8 25  1  0  0  0  0
  9 25  2  0  0  0  0
 10 26  1  0  0  0  0
 11 12  2  0  0  0  0
 11 27  1  0  0  0  0
 12 28  1  0  0  0  0
 13 18  1  0  0  0  0
 13 29  2  0  0  0  0
 14 23  1  0  0  0  0
 14 26  2  0  0  0  0
 15 24  2  0  0  0  0
 15 29  1  0  0  0  0
 16 28  2  0  0  0  0
 16 30  1  0  0  0  0
 17 32  1  0  0  0  0
 18 31  2  0  0  0  0
 18 34  1  0  0  0  0
 19 32  1  0  0  0  0
 19 33  2  0  0  0  0
 19 35  1  0  0  0  0
 20 22  2  0  0  0  0
 20 41  1  0  0  0  0
 21 23  2  0  0  0  0
 21 42  1  0  0  0  0
 22 50  1  0  0  0  0
 23 43  1  0  0  0  0
 24 31  1  0  0  0  0
 24 70  1  0  0  0  0
 25 82  1  0  0  0  0
 26 83  1  0  0  0  0
 27 30  2  0  0  0  0
 27 82  1  0  0  0  0
 28 84  1  0  0  0  0
 29 85  1  0  0  0  0
 30 86  1  0  0  0  0
 31 87  1  0  0  0  0
 32 64  2  0  0  0  0
 33 65  1  0  0  0  0
 33 68  1  0  0  0  0
 34 71  1  0  0  0  0
 34 74  2  0  0  0  0
 35 69  1  0  0  0  0
 35 76  2  0  0  0  0
 36 51  1  0  0  0  0
 36 72  1  0  0  0  0
 36 77  2  0  0  0  0
 37 60  1  0  0  0  0
 37 66  1  0  0  0  0
 37 78  2  0  0  0  0
 38 59  1  0  0  0  0
 38 71  1  0  0  0  0
 38 79  2  0  0  0  0
 39 61  1  0  0  0  0
 39 73  1  0  0  0  0
 39 80  2  0  0  0  0
 40 67  1  0  0  0  0
 40 70  1  0  0  0  0
 40 81  2  0  0  0  0
 41 44  1  0  0  0  0
 42 51  1  0  0  0  0
 43 66  1  0  0  0  0
 44 46  1  0  0  0  0
 45 47  1  0  0  0  0
 45 48  1  0  0  0  0
 46 50  1  0  0  0  0
 47 52  1  0  0  0  0
 48 67  1  0  0  0  0
 49 52  1  0  0  0  0
 49 67  1  0  0  0  0
 50 72  1  0  0  0  0
 51 66  1  0  0  0  0
 52 65  1  0  0  0  0
 53 61  1  0  0  0  0
 54 62  1  0  0  0  0
 55 63  1  0  0  0  0
 56 63  1  0  0  0  0
 57 63  1  0  0  0  0
 58 75  1  0  0  0  0
 59 62  1  0  0  0  0
 60 63  1  0  0  0  0
 60 73  1  0  0  0  0
 61 75  1  0  0  0  0
 62 83  1  0  0  0  0
 64 65  1  0  0  0  0
M  CHG  2  74   1  75   1
M  ISO  4  40 100  62 101  70 100  83 101
M  END
> <Batch ID>
0167

> <Smiles>
CNC(C)C(=O)NC(C(=O)N1Cc2cc([101O:1][101CH:1](C)CC(=O)NC(=N)c3cc(F)cc([100NH:0][100C:0](=O)N4CCCC(n5nc(-c6ccc(Oc7ccc(F)cc7F)cc6)c(C(N)=O)c5N)C4)c3F)ccc2CC1C(=O)NC1CCCc2ccccc21)C(C)(C)C

> <Shape>
0.169

> <Color>
0.187

> <Negative vol penalty>
0.000

$$$$

  -OEChem-04052304113D

 75 82  0     1  0  0  0  0  0999 V2000
  -33.8070  -30.5861   25.4356 C   0  0  0  0  0  0  0  0  0  0  0  0
  -34.1698  -29.2508   25.2913 C   0  0  0  0  0  0  0  0  0  0  0  0
  -23.0680   -9.8819   19.9610 C   0  0  0  0  0  0  0  0  0  0  0  0
  -23.8429   -9.8945   22.2493 C   0  0  0  0  0  0  0  0  0  0  0  0
  -32.6128  -31.0465   24.8828 C   0  0  0  0  0  0  0  0  0  0  0  0
  -33.3378  -28.3748   24.5949 C   0  0  0  0  0  0  0  0  0  0  0  0
  -33.6022  -22.6011   20.3628 C   0  0  0  0  0  0  0  0  0  0  0  0
  -22.3115   -8.7398   20.2234 C   0  0  0  0  0  0  0  0  0  0  0  0
  -23.0863   -8.7525   22.5118 C   0  0  0  0  0  0  0  0  0  0  0  0
  -33.0659  -21.3186   20.2558 C   0  0  0  0  0  0  0  0  0  0  0  0
  -19.8524   -7.9991   23.1404 C   0  0  0  0  0  0  0  0  0  0  0  0
  -19.1027   -7.9764   24.3164 C   0  0  0  0  0  0  0  0  0  0  0  0
  -31.0652  -22.2436   19.2755 C   0  0  0  0  0  0  0  0  0  0  0  0
  -20.3246   -6.0285   25.0578 C   0  0  0  0  0  0  0  0  0  0  0  0
  -23.8338  -10.4592   20.9739 C   0  0  0  0  0  0  0  0  0  0  0  0
  -24.2063  -12.9790   20.8348 C   0  0  0  0  0  0  0  0  0  0  0  0
  -31.7704  -30.1779   24.1710 C   0  0  0  0  0  0  0  0  0  0  0  0
  -32.8684  -23.7173   19.9363 C   0  0  0  0  0  0  0  0  0  0  0  0
  -32.1305  -28.8238   24.0332 C   0  0  0  0  0  0  0  0  0  0  0  0
  -31.5955  -23.5389   19.3759 C   0  0  0  0  0  0  0  0  0  0  0  0
  -22.3206   -8.1751   21.4988 C   0  0  0  0  0  0  0  0  0  0  0  0
  -31.7960  -21.1400   19.7148 C   0  0  0  0  0  0  0  0  0  0  0  0
  -20.8382   -7.0364   22.9230 C   0  0  0  0  0  0  0  0  0  0  0  0
  -19.3388   -6.9911   25.2751 C   0  0  0  0  0  0  0  0  0  0  0  0
  -21.0743   -6.0512   23.8818 C   0  0  0  0  0  0  0  0  0  0  0  0
  -24.6160  -11.6386   20.7033 C   0  0  0  0  0  0  0  0  0  0  0  0
  -25.3053  -13.7124   20.4595 C   0  0  0  0  0  0  0  0  0  0  0  0
  -22.9451  -13.5135   21.2584 C   0  0  0  0  0  0  0  0  0  0  0  0
  -31.7063  -26.3135   21.3552 C   0  0  0  0  0  0  0  0  0  0  0  0
  -30.5830  -17.9092   20.8245 C   0  0  0  0  0  0  0  0  0  0  0  0
  -30.9405  -27.1555   18.3176 C   0  0  0  0  0  0  0  0  0  0  0  0
  -30.2656  -26.1700   15.1207 C   0  0  0  0  0  0  0  0  0  0  0  0
  -30.8024  -14.6640   20.6058 C   0  0  0  0  0  0  0  0  0  0  0  0
  -30.4666  -30.7109   23.6319 C   0  0  0  0  0  0  0  0  0  0  0  0
  -33.4719  -25.0916   20.0339 C   0  0  0  0  0  0  0  0  0  0  0  0
  -30.7752  -24.7026   18.8845 C   0  0  0  0  0  0  0  0  0  0  0  0
  -29.8227  -29.8028   22.5874 C   0  0  0  0  0  0  0  0  0  0  0  0
  -29.6197  -12.2781   18.2424 C   0  0  0  0  0  0  0  0  0  0  0  0
  -29.8326  -28.3530   23.0616 C   0  0  0  0  0  0  0  0  0  0  0  0
  -28.1815  -12.0053   18.6865 C   0  0  0  0  0  0  0  0  0  0  0  0
  -30.5473  -12.4954   19.4359 C   0  0  0  0  0  0  0  0  0  0  0  0
  -28.6639  -13.2594   20.8297 C   0  0  0  0  0  0  0  0  0  0  0  0
  -31.2666  -27.8484   23.2634 C   0  0  1  0  0  0  0  0  0  0  0  0
  -32.4276  -26.2037   20.0416 C   0  0  1  0  0  0  0  0  0  0  0  0
  -27.6800  -13.0892   19.6595 C   0  0  2  0  0  0  0  0  0  0  0  0
  -29.6373  -27.0827   12.8691 C   0  0  0  0  0  0  0  0  0  0  0  0
  -28.0778  -27.5717   19.2878 C   0  0  0  0  0  0  0  0  0  0  0  0
  -27.3371  -27.5428   16.8964 C   0  0  0  0  0  0  0  0  0  0  0  0
  -28.9027  -29.3135   17.6940 C   0  0  0  0  0  0  0  0  0  0  0  0
  -32.7362  -25.1183   13.8761 C   0  0  0  0  0  0  0  0  0  0  0  0
  -30.9031  -16.8217   21.8278 C   0  0  0  0  0  0  0  0  0  0  0  0
  -31.6776  -18.9294   20.5837 C   0  0  0  0  0  0  0  0  0  1  0  0
  -29.7457  -26.9458   17.4190 C   0  0  1  0  0  0  0  0  0  0  0  0
  -30.7806  -26.6693   13.7828 C   0  0  2  0  0  0  0  0  0  0  0  0
  -28.5302  -27.8215   17.8353 C   0  0  0  0  0  0  0  0  0  0  0  0
  -25.8768  -11.5242   20.2775 N   0  0  0  0  0  0  0  0  0  0  0  0
  -26.2688  -12.8021   20.1382 N   0  0  0  0  0  0  0  0  0  0  0  0
  -31.4063  -26.0271   19.0072 N   0  0  0  0  0  0  0  0  0  0  0  0
  -30.0154  -13.5366   20.3184 N   0  0  0  0  0  0  0  0  0  0  0  0
  -25.5318  -15.0406   20.3762 N   0  0  0  0  0  0  0  0  0  0  0  0
  -21.9241  -12.6193   21.6082 N   0  0  0  0  0  0  0  0  0  0  0  0
  -31.8743  -27.5297   21.9892 N   0  0  0  0  0  0  0  0  0  0  0  0
  -30.2130  -27.1808   16.0571 N   0  0  0  0  0  0  0  0  0  0  0  0
  -30.2204  -15.6058   21.4454 N   0  0  0  0  0  0  0  0  0  0  0  0
  -31.5661  -25.6030   13.0995 N   0  3  0  0  0  0  0  0  0  0  0  0
  -22.7246  -14.7473   21.3090 O   0  0  0  0  0  0  0  0  0  0  0  0
  -31.0451  -25.3656   21.7625 O   0  0  0  0  0  0  0  0  0  0  0  0
  -29.4848  -17.9949   20.2756 O   0  0  0  0  0  0  0  0  0  0  0  0
  -31.4465  -28.2775   18.3989 O   0  0  0  0  0  0  0  0  0  0  0  0
  -29.9389  -25.0012   15.3146 O   0  0  0  0  0  0  0  0  0  0  0  0
  -31.9375  -14.8222   20.1437 O   0  0  0  0  0  0  0  0  0  0  0  0
  -21.5823   -7.0608   21.7554 O   0  0  0  0  0  0  0  0  0  0  0  0
  -31.2699  -19.8894   19.6098 O   0  0  0  0  0  0  0  0  0  1  0  0
  -18.6198   -6.9704   26.4050 F   0  0  0  0  0  0  0  0  0  0  0  0
  -22.0209   -5.1244   23.6791 F   0  0  0  0  0  0  0  0  0  0  0  0
  1  2  1  0  0  0  0
  1  5  2  0  0  0  0
  2  6  2  0  0  0  0
  3  8  2  0  0  0  0
  3 15  1  0  0  0  0
  4  9  1  0  0  0  0
  4 15  2  0  0  0  0
  5 17  1  0  0  0  0
  6 19  1  0  0  0  0
  7 10  2  0  0  0  0
  7 18  1  0  0  0  0
  8 21  1  0  0  0  0
  9 21  2  0  0  0  0
 10 22  1  0  0  0  0
 11 12  2  0  0  0  0
 11 23  1  0  0  0  0
 12 24  1  0  0  0  0
 13 20  1  0  0  0  0
 13 22  2  0  0  0  0
 14 24  2  0  0  0  0
 14 25  1  0  0  0  0
 15 26  1  0  0  0  0
 16 26  1  0  0  0  0
 16 27  2  0  0  0  0
 16 28  1  0  0  0  0
 17 19  2  0  0  0  0
 17 34  1  0  0  0  0
 18 20  2  0  0  0  0
 18 35  1  0  0  0  0
 19 43  1  0  0  0  0
 20 36  1  0  0  0  0
 21 72  1  0  0  0  0
 22 73  1  0  0  0  0
 23 25  2  0  0  0  0
 23 72  1  0  0  0  0
 24 74  1  0  0  0  0
 25 75  1  0  0  0  0
 26 56  2  0  0  0  0
 27 57  1  0  0  0  0
 27 60  1  0  0  0  0
 28 61  1  0  0  0  0
 28 66  2  0  0  0  0
 29 44  1  0  0  0  0
 29 62  1  0  0  0  0
 29 67  2  0  0  0  0
 30 51  1  0  0  0  0
 30 52  1  0  0  0  0
 30 68  2  0  0  0  0
 31 53  1  0  0  0  0
 31 58  1  0  0  0  0
 31 69  2  0  0  0  0
 32 54  1  0  0  0  0
 32 63  1  0  0  0  0
 32 70  2  0  0  0  0
 33 59  1  0  0  0  0
 33 64  1  0  0  0  0
 33 71  2  0  0  0  0
 34 37  1  0  0  0  0
 35 44  1  0  0  0  0
 36 58  1  0  0  0  0
 37 39  1  0  0  0  0
 38 40  1  0  0  0  0
 38 41  1  0  0  0  0
 39 43  1  0  0  0  0
 40 45  1  0  0  0  0
 41 59  1  0  0  0  0
 42 45  1  0  0  0  0
 42 59  1  0  0  0  0
 43 62  1  0  0  0  0
 44 58  1  0  0  0  0
 45 57  1  0  0  0  0
 46 54  1  0  0  0  0
 47 55  1  0  0  0  0
 48 55  1  0  0  0  0
 49 55  1  0  0  0  0
 50 65  1  0  0  0  0
 51 64  1  0  0  0  0
 52 73  1  0  0  0  0
 53 55  1  0  0  0  0
 53 63  1  0  0  0  0
 54 65  1  0  0  0  0
 56 57  1  0  0  0  0
M  CHG  1  65   1
M  ISO  4  33 100  52 101  64 100  73 101
M  END
> <Batch ID>
0167

> <Smiles>
CNC(C)C(=O)NC(C(=O)N1Cc2cc([101O:1][101CH2:1]C(=O)C[100NH:0][100C:0](=O)N3CCCC(n4nc(-c5ccc(Oc6ccc(F)cc6F)cc5)c(C(N)=O)c4N)C3)ccc2CC1C(=O)NC1CCCc2ccccc21)C(C)(C)C

> <Shape>
0.229

> <Color>
0.210

> <Negative vol penalty>
0.000

$$$$

  -OEChem-04052304113D

 85 93  0     1  0  0  0  0  0999 V2000
  -25.5447  -34.5683   27.1176 C   0  0  0  0  0  0  0  0  0  0  0  0
  -26.1851  -33.4464   26.6011 C   0  0  0  0  0  0  0  0  0  0  0  0
  -24.5588   -9.0612   21.5527 C   0  0  0  0  0  0  0  0  0  0  0  0
  -24.0634  -10.6264   23.3252 C   0  0  0  0  0  0  0  0  0  0  0  0
  -24.1622  -34.6991   26.9938 C   0  0  0  0  0  0  0  0  0  0  0  0
  -25.4431  -32.4541   25.9614 C   0  0  0  0  0  0  0  0  0  0  0  0
  -27.5952  -30.8930   21.6514 C   0  0  0  0  0  0  0  0  0  0  0  0
  -26.9377  -21.7188   20.3485 C   0  0  0  0  0  0  0  0  0  0  0  0
  -24.1994   -8.0027   22.3870 C   0  0  0  0  0  0  0  0  0  0  0  0
  -23.7040   -9.5679   24.1595 C   0  0  0  0  0  0  0  0  0  0  0  0
  -28.6691  -30.0104   21.7592 C   0  0  0  0  0  0  0  0  0  0  0  0
  -21.3487   -6.5515   23.4826 C   0  0  0  0  0  0  0  0  0  0  0  0
  -25.8899  -20.8595   20.0181 C   0  0  0  0  0  0  0  0  0  0  0  0
  -20.5344   -5.5528   22.9486 C   0  0  0  0  0  0  0  0  0  0  0  0
  -27.1961  -28.1667   21.2586 C   0  0  0  0  0  0  0  0  0  0  0  0
  -28.4653  -19.8472   20.3720 C   0  0  0  0  0  0  0  0  0  0  0  0
  -22.2508   -3.9130   23.3979 C   0  0  0  0  0  0  0  0  0  0  0  0
  -24.4908  -10.3731   22.0218 C   0  0  0  0  0  0  0  0  0  0  0  0
  -24.0223  -12.1869   20.2903 C   0  0  0  0  0  0  0  0  0  0  0  0
  -23.4040  -33.7126   26.3438 C   0  0  0  0  0  0  0  0  0  0  0  0
  -26.3095  -30.4171   21.3567 C   0  0  0  0  0  0  0  0  0  0  0  0
  -24.0489  -32.5713   25.8300 C   0  0  0  0  0  0  0  0  0  0  0  0
  -26.1081  -29.0457   21.1451 C   0  0  0  0  0  0  0  0  0  0  0  0
  -28.2254  -21.2127   20.5254 C   0  0  0  0  0  0  0  0  0  0  0  0
  -27.4174  -18.9878   20.0416 C   0  0  0  0  0  0  0  0  0  0  0  0
  -23.7720   -8.2560   23.6904 C   0  0  0  0  0  0  0  0  0  0  0  0
  -28.4691  -28.6467   21.5657 C   0  0  0  0  0  0  0  0  0  0  0  0
  -22.6141   -6.2310   23.9742 C   0  0  0  0  0  0  0  0  0  0  0  0
  -20.9854   -4.2336   22.9063 C   0  0  0  0  0  0  0  0  0  0  0  0
  -26.1297  -19.4940   19.8647 C   0  0  0  0  0  0  0  0  0  0  0  0
  -23.0651   -4.9117   23.9319 C   0  0  0  0  0  0  0  0  0  0  0  0
  -24.8624  -11.4669   21.1607 C   0  0  0  0  0  0  0  0  0  0  0  0
  -24.8489  -13.1138   19.7039 C   0  0  0  0  0  0  0  0  0  0  0  0
  -22.6200  -12.0317   20.0348 C   0  0  0  0  0  0  0  0  0  0  0  0
  -30.4446  -24.1004   21.3776 C   0  0  0  0  0  0  0  0  0  0  0  0
  -30.5088  -25.5987   21.6008 C   0  0  0  0  0  0  0  0  0  0  0  0
  -23.5110  -30.4345   22.8639 C   0  0  0  0  0  0  0  0  0  0  0  0
  -22.4399  -29.1801   20.0708 C   0  0  0  0  0  0  0  0  0  0  0  0
  -23.1433  -27.4570   17.2102 C   0  0  0  0  0  0  0  0  0  0  0  0
  -28.8826  -16.9385   20.0271 C   0  0  0  0  0  0  0  0  0  0  0  0
  -21.9061  -33.8754   26.2760 C   0  0  0  0  0  0  0  0  0  0  0  0
  -25.1668  -31.3852   21.2175 C   0  0  0  0  0  0  0  0  0  0  0  0
  -24.7513  -28.4863   20.8066 C   0  0  0  0  0  0  0  0  0  0  0  0
  -21.2394  -32.9582   25.2539 C   0  0  0  0  0  0  0  0  0  0  0  0
  -29.8929  -13.5345   19.7640 C   0  0  0  0  0  0  0  0  0  0  0  0
  -21.7741  -31.5356   25.3844 C   0  0  0  0  0  0  0  0  0  0  0  0
  -28.6051  -12.7524   20.0323 C   0  0  0  0  0  0  0  0  0  0  0  0
  -29.9826  -14.7924   20.6263 C   0  0  0  0  0  0  0  0  0  0  0  0
  -27.5288  -14.8997   20.8183 C   0  0  0  0  0  0  0  0  0  0  0  0
  -23.2815  -31.4853   25.1076 C   0  0  1  0  0  0  0  0  0  0  0  0
  -23.8028  -30.7326   21.4204 C   0  0  1  0  0  0  0  0  0  0  0  0
  -27.3629  -13.6586   19.9262 C   0  0  2  0  0  0  0  0  0  0  0  0
  -22.0555  -26.5519   15.1377 C   0  0  0  0  0  0  0  0  0  0  0  0
  -21.2371  -26.8987   21.7013 C   0  0  0  0  0  0  0  0  0  0  0  0
  -21.0173  -25.5901   19.5783 C   0  0  0  0  0  0  0  0  0  0  0  0
  -19.7803  -27.7392   19.8505 C   0  0  0  0  0  0  0  0  0  0  0  0
  -24.8388  -29.1271   15.4509 C   0  0  0  0  0  0  0  0  0  0  0  0
  -29.1114  -23.4898   21.0307 C   0  0  0  0  0  0  0  0  0  0  0  0
  -29.2387  -26.3990   21.4602 C   0  0  0  0  0  0  0  0  0  1  0  0
  -22.2857  -27.7851   19.5148 C   0  0  1  0  0  0  0  0  0  0  0  0
  -22.7922  -27.7287   15.7585 C   0  0  2  0  0  0  0  0  0  0  0  0
  -21.1054  -27.0133   20.1695 C   0  0  0  0  0  0  0  0  0  0  0  0
  -26.1259  -11.8991   21.1327 N   0  0  0  0  0  0  0  0  0  0  0  0
  -26.0859  -12.9007   20.2376 N   0  0  0  0  0  0  0  0  0  0  0  0
  -23.6645  -29.4724   20.6877 N   0  0  0  0  0  0  0  0  0  0  0  0
  -28.7733  -15.6038   20.4714 N   0  0  0  0  0  0  0  0  0  0  0  0
  -24.6312  -14.0822   18.7888 N   0  0  0  0  0  0  0  0  0  0  0  0
  -21.9223  -11.0301   20.7234 N   0  0  0  0  0  0  0  0  0  0  0  0
  -27.6636  -17.6010   19.8864 N   0  0  0  0  0  0  0  0  0  0  0  0
  -29.2671  -22.0671   20.8532 N   0  0  0  0  0  0  0  0  0  0  0  0
  -23.5363  -31.5462   23.6843 N   0  0  0  0  0  0  0  0  0  0  0  0
  -22.1738  -27.9324   18.0677 N   0  0  0  0  0  0  0  0  0  0  0  0
  -24.0283  -27.9808   14.9650 N   0  3  0  0  0  0  0  0  0  0  0  0
  -22.0075  -12.7490   19.2079 O   0  0  0  0  0  0  0  0  0  0  0  0
  -31.4907  -23.4747   21.4956 O   0  0  0  0  0  0  0  0  0  0  0  0
  -31.5982  -26.0808   21.8832 O   0  0  0  0  0  0  0  0  0  0  0  0
  -23.2785  -29.2815   23.2077 O   0  0  0  0  0  0  0  0  0  0  0  0
  -21.5107  -29.9832   19.9554 O   0  0  0  0  0  0  0  0  0  0  0  0
  -24.1727  -26.8775   17.5493 O   0  0  0  0  0  0  0  0  0  0  0  0
  -29.9750  -17.4472   19.7630 O   0  0  0  0  0  0  0  0  0  0  0  0
  -23.4210   -7.2234   24.5047 O   0  0  0  0  0  0  0  0  0  0  0  0
  -29.5153  -27.7829   21.6709 O   0  0  0  0  0  0  0  0  0  1  0  0
  -20.2027   -3.2744   22.3949 F   0  0  0  0  0  0  0  0  0  0  0  0
  -25.1148  -18.6774   19.5473 F   0  0  0  0  0  0  0  0  0  0  0  0
  -24.2794   -4.5975   24.4037 F   0  0  0  0  0  0  0  0  0  0  0  0
  1  2  1  0  0  0  0
  1  5  2  0  0  0  0
  2  6  2  0  0  0  0
  3  9  2  0  0  0  0
  3 18  1  0  0  0  0
  4 10  1  0  0  0  0
  4 18  2  0  0  0  0
  5 20  1  0  0  0  0
  6 22  1  0  0  0  0
  7 11  2  0  0  0  0
  7 21  1  0  0  0  0
  8 13  2  0  0  0  0
  8 24  1  0  0  0  0
  9 26  1  0  0  0  0
 10 26  2  0  0  0  0
 11 27  1  0  0  0  0
 12 14  2  0  0  0  0
 12 28  1  0  0  0  0
 13 30  1  0  0  0  0
 14 29  1  0  0  0  0
 15 23  1  0  0  0  0
 15 27  2  0  0  0  0
 16 24  2  0  0  0  0
 16 25  1  0  0  0  0
 17 29  2  0  0  0  0
 17 31  1  0  0  0  0
 18 32  1  0  0  0  0
 19 32  1  0  0  0  0
 19 33  2  0  0  0  0
 19 34  1  0  0  0  0
 20 22  2  0  0  0  0
 20 41  1  0  0  0  0
 21 23  2  0  0  0  0
 21 42  1  0  0  0  0
 22 50  1  0  0  0  0
 23 43  1  0  0  0  0
 24 70  1  0  0  0  0
 25 30  2  0  0  0  0
 25 69  1  0  0  0  0
 26 81  1  0  0  0  0
 27 82  1  0  0  0  0
 28 31  2  0  0  0  0
 28 81  1  0  0  0  0
 29 83  1  0  0  0  0
 30 84  1  0  0  0  0
 31 85  1  0  0  0  0
 32 63  2  0  0  0  0
 33 64  1  0  0  0  0
 33 67  1  0  0  0  0
 34 68  1  0  0  0  0
 34 74  2  0  0  0  0
 35 36  1  0  0  0  0
 35 58  1  0  0  0  0
 35 75  2  0  0  0  0
 36 59  1  0  0  0  0
 36 76  2  0  0  0  0
 37 51  1  0  0  0  0
 37 71  1  0  0  0  0
 37 77  2  0  0  0  0
 38 60  1  0  0  0  0
 38 65  1  0  0  0  0
 38 78  2  0  0  0  0
 39 61  1  0  0  0  0
 39 72  1  0  0  0  0
 39 79  2  0  0  0  0
 40 66  1  0  0  0  0
 40 69  1  0  0  0  0
 40 80  2  0  0  0  0
 41 44  1  0  0  0  0
 42 51  1  0  0  0  0
 43 65  1  0  0  0  0
 44 46  1  0  0  0  0
 45 47  1  0  0  0  0
 45 48  1  0  0  0  0
 46 50  1  0  0  0  0
 47 52  1  0  0  0  0
 48 66  1  0  0  0  0
 49 52  1  0  0  0  0
 49 66  1  0  0  0  0
 50 71  1  0  0  0  0
 51 65  1  0  0  0  0
 52 64  1  0  0  0  0
 53 61  1  0  0  0  0
 54 62  1  0  0  0  0
 55 62  1  0  0  0  0
 56 62  1  0  0  0  0
 57 73  1  0  0  0  0
 58 70  1  0  0  0  0
 59 82  1  0  0  0  0
 60 62  1  0  0  0  0
 60 72  1  0  0  0  0
 61 73  1  0  0  0  0
 63 64  1  0  0  0  0
M  CHG  1  73   1
M  ISO  4  40 100  59 101  69 100  82 101
M  END
> <Batch ID>
0167

> <Smiles>
CNC(C)C(=O)NC(C(=O)N1Cc2cc([101O:1][101CH2:1]C(=O)C(=O)CNc3ccc(F)c([100NH:0][100C:0](=O)N4CCCC(n5nc(-c6ccc(Oc7ccc(F)cc7F)cc6)c(C(N)=O)c5N)C4)c3)ccc2CC1C(=O)NC1CCCc2ccccc21)C(C)(C)C

> <Shape>
0.288

> <Color>
0.099

> <Negative vol penalty>
0.000

$$$$

  -OEChem-04052304113D

 86 94  0     1  0  0  0  0  0999 V2000
  -30.6868  -34.5085   18.9351 C   0  0  0  0  0  0  0  0  0  0  0  0
  -30.2838  -33.1975   18.7020 C   0  0  0  0  0  0  0  0  0  0  0  0
  -22.8691  -10.5196   21.1741 C   0  0  0  0  0  0  0  0  0  0  0  0
  -23.2133  -12.1981   22.8773 C   0  0  0  0  0  0  0  0  0  0  0  0
  -30.4418  -35.1023   20.1726 C   0  0  0  0  0  0  0  0  0  0  0  0
  -29.6365  -32.4791   19.7067 C   0  0  0  0  0  0  0  0  0  0  0  0
  -25.2092  -28.3101   18.9828 C   0  0  0  0  0  0  0  0  0  0  0  0
  -21.9419   -9.8771   21.9946 C   0  0  0  0  0  0  0  0  0  0  0  0
  -22.2860  -11.5557   23.6978 C   0  0  0  0  0  0  0  0  0  0  0  0
  -25.2291  -26.9163   18.9526 C   0  0  0  0  0  0  0  0  0  0  0  0
  -19.7500   -7.5946   23.7860 C   0  0  0  0  0  0  0  0  0  0  0  0
  -19.8329   -6.2068   23.8981 C   0  0  0  0  0  0  0  0  0  0  0  0
  -24.6458  -26.8633   21.2927 C   0  0  0  0  0  0  0  0  0  0  0  0
  -30.1297  -20.3454   20.7842 C   0  0  0  0  0  0  0  0  0  0  0  0
  -22.0749   -6.4114   24.7749 C   0  0  0  0  0  0  0  0  0  0  0  0
  -23.5048  -11.6800   21.6155 C   0  0  0  0  0  0  0  0  0  0  0  0
  -24.2059  -13.3554   19.8240 C   0  0  0  0  0  0  0  0  0  0  0  0
  -29.7825  -34.3941   21.1897 C   0  0  0  0  0  0  0  0  0  0  0  0
  -24.9177  -28.9921   20.1728 C   0  0  0  0  0  0  0  0  0  0  0  0
  -29.3836  -33.0636   20.9594 C   0  0  0  0  0  0  0  0  0  0  0  0
  -24.6204  -28.2657   21.3348 C   0  0  0  0  0  0  0  0  0  0  0  0
  -31.0059  -19.2449   20.5581 C   0  0  0  0  0  0  0  0  0  0  0  0
  -21.6504  -10.3952   23.2564 C   0  0  0  0  0  0  0  0  0  0  0  0
  -24.9502  -26.1928   20.1083 C   0  0  0  0  0  0  0  0  0  0  0  0
  -20.8296   -8.3909   24.1683 C   0  0  0  0  0  0  0  0  0  0  0  0
  -20.9953   -5.6152   24.3925 C   0  0  0  0  0  0  0  0  0  0  0  0
  -21.9920   -7.7993   24.6628 C   0  0  0  0  0  0  0  0  0  0  0  0
  -24.4632  -12.3438   20.7687 C   0  0  0  0  0  0  0  0  0  0  0  0
  -30.4565  -18.3126   19.7057 C   0  0  0  0  0  0  0  0  0  0  0  0
  -25.4369  -13.6469   19.2892 C   0  0  0  0  0  0  0  0  0  0  0  0
  -28.9438  -20.2125   20.0957 C   0  0  0  0  0  0  0  0  0  0  0  0
  -26.1492  -24.2001   20.3585 C   0  0  0  0  0  0  0  0  0  1  0  0
  -22.9651  -13.9761   19.4624 C   0  0  0  0  0  0  0  0  0  0  0  0
  -26.2823  -22.8683   20.3608 C   0  0  0  0  0  0  0  0  0  0  0  0
  -27.6206  -22.2715   20.6787 C   0  0  0  0  0  0  0  0  0  0  0  0
  -26.4968  -31.0249   22.0378 C   0  0  0  0  0  0  0  0  0  0  0  0
  -23.6556  -31.1975   23.5935 C   0  0  0  0  0  0  0  0  0  0  0  0
  -20.6685  -29.7268   24.3424 C   0  0  0  0  0  0  0  0  0  0  0  0
  -30.8920  -14.6556   19.8971 C   0  0  0  0  0  0  0  0  0  0  0  0
  -29.5820  -35.0622   22.5269 C   0  0  0  0  0  0  0  0  0  0  0  0
  -24.8741  -30.4956   20.1824 C   0  0  0  0  0  0  0  0  0  0  0  0
  -24.2815  -28.9501   22.6329 C   0  0  0  0  0  0  0  0  0  0  0  0
  -28.5565  -34.3583   23.4118 C   0  0  0  0  0  0  0  0  0  0  0  0
  -29.8691  -11.2494   19.7296 C   0  0  0  0  0  0  0  0  0  0  0  0
  -28.8040  -32.8531   23.4222 C   0  0  0  0  0  0  0  0  0  0  0  0
  -28.3519  -11.3136   19.9133 C   0  0  0  0  0  0  0  0  0  0  0  0
  -30.5856  -12.2947   20.5817 C   0  0  0  0  0  0  0  0  0  0  0  0
  -28.5908  -13.7420   20.5800 C   0  0  0  0  0  0  0  0  0  0  0  0
  -28.6566  -32.2601   22.0157 C   0  0  1  0  0  0  0  0  0  0  0  0
  -25.0692  -31.0902   21.5737 C   0  0  1  0  0  0  0  0  0  0  0  0
  -27.8211  -12.7438   19.6983 C   0  0  2  0  0  0  0  0  0  0  0  0
  -32.3773  -18.1448   22.3458 C   0  0  0  0  0  0  0  0  0  0  0  0
  -31.1892  -16.9841   17.6908 C   0  0  0  0  0  0  0  0  0  0  0  0
  -18.5700  -30.0933   25.6687 C   0  0  0  0  0  0  0  0  0  0  0  0
  -25.1615  -30.5193   26.1591 C   0  0  0  0  0  0  0  0  0  0  0  0
  -22.9624  -29.9697   27.2221 C   0  0  0  0  0  0  0  0  0  0  0  0
  -23.4105  -32.2866   26.4135 C   0  0  0  0  0  0  0  0  0  0  0  0
  -18.9802  -29.6427   21.9131 C   0  0  0  0  0  0  0  0  0  0  0  0
  -32.3492  -19.1280   21.1739 C   0  0  0  0  0  0  0  0  0  0  0  0
  -31.0371  -17.0394   19.2221 C   0  0  2  0  0  0  0  0  0  0  0  0
  -23.0120  -30.4420   24.7310 C   0  0  1  0  0  0  0  0  0  0  0  0
  -19.2481  -30.2619   24.3180 C   0  0  2  0  0  0  0  0  0  0  0  0
  -23.6448  -30.7912   26.1076 C   0  0  0  0  0  0  0  0  0  0  0  0
  -25.7561  -12.0147   20.8325 N   0  0  0  0  0  0  0  0  0  0  0  0
  -26.3222  -12.8240   19.9211 N   0  0  0  0  0  0  0  0  0  0  0  0
  -24.2578  -30.4216   22.5930 N   0  0  0  0  0  0  0  0  0  0  0  0
  -30.0362  -13.6290   20.3293 N   0  0  0  0  0  0  0  0  0  0  0  0
  -25.8377  -14.5242   18.3447 N   0  0  0  0  0  0  0  0  0  0  0  0
  -21.7948  -13.5576   20.1103 N   0  0  0  0  0  0  0  0  0  0  0  0
  -27.8094  -21.0572   20.0332 N   0  0  0  0  0  0  0  0  0  0  0  0
  -27.2582  -32.1182   21.6711 N   0  0  0  0  0  0  0  0  0  0  0  0
  -21.5814  -30.7150   24.6446 N   0  0  0  0  0  0  0  0  0  0  0  0
  -30.2893  -15.8877   19.6750 N   0  0  0  0  0  0  0  0  0  0  0  0
  -18.4406  -29.5412   23.2935 N   0  3  0  0  0  0  0  0  0  0  0  0
  -22.8938  -14.8637   18.5789 O   0  0  0  0  0  0  0  0  0  0  0  0
  -28.4040  -22.8446   21.4281 O   0  0  0  0  0  0  0  0  0  0  0  0
  -26.8788  -30.0551   22.6822 O   0  0  0  0  0  0  0  0  0  0  0  0
  -23.6190  -32.4305   23.5892 O   0  0  0  0  0  0  0  0  0  0  0  0
  -20.9406  -28.5491   24.1196 O   0  0  0  0  0  0  0  0  0  0  0  0
  -32.1026  -14.4852   19.7170 O   0  0  0  0  0  0  0  0  0  0  0  0
  -25.2324  -22.0170   20.0822 O   0  0  0  0  0  0  0  0  0  0  0  0
  -20.7455   -9.7687   24.0572 O   0  0  0  0  0  0  0  0  0  0  0  0
  -24.9696  -24.8323   20.0818 O   0  0  0  0  0  0  0  0  0  1  0  0
  -21.0742   -4.2825   24.5016 F   0  0  0  0  0  0  0  0  0  0  0  0
  -23.0320   -8.5592   25.0327 F   0  0  0  0  0  0  0  0  0  0  0  0
  -28.8904  -18.7654   19.1817 S   0  0  0  0  0  0  0  0  0  0  0  0
  1  2  1  0  0  0  0
  1  5  2  0  0  0  0
  2  6  2  0  0  0  0
  3  8  2  0  0  0  0
  3 16  1  0  0  0  0
  4  9  1  0  0  0  0
  4 16  2  0  0  0  0
  5 18  1  0  0  0  0
  6 20  1  0  0  0  0
  7 10  2  0  0  0  0
  7 19  1  0  0  0  0
  8 23  1  0  0  0  0
  9 23  2  0  0  0  0
 10 24  1  0  0  0  0
 11 12  2  0  0  0  0
 11 25  1  0  0  0  0
 12 26  1  0  0  0  0
 13 21  1  0  0  0  0
 13 24  2  0  0  0  0
 14 22  1  0  0  0  0
 14 31  2  0  0  0  0
 15 26  2  0  0  0  0
 15 27  1  0  0  0  0
 16 28  1  0  0  0  0
 17 28  1  0  0  0  0
 17 30  2  0  0  0  0
 17 33  1  0  0  0  0
 18 20  2  0  0  0  0
 18 40  1  0  0  0  0
 19 21  2  0  0  0  0
 19 41  1  0  0  0  0
 20 49  1  0  0  0  0
 21 42  1  0  0  0  0
 22 29  2  0  0  0  0
 22 59  1  0  0  0  0
 23 82  1  0  0  0  0
 24 83  1  0  0  0  0
 25 27  2  0  0  0  0
 25 82  1  0  0  0  0
 26 84  1  0  0  0  0
 27 85  1  0  0  0  0
 28 64  2  0  0  0  0
 29 60  1  0  0  0  0
 29 86  1  0  0  0  0
 30 65  1  0  0  0  0
 30 68  1  0  0  0  0
 31 70  1  0  0  0  0
 31 86  1  0  0  0  0
 32 34  2  0  0  0  0
 32 83  1  0  0  0  0
 33 69  1  0  0  0  0
 33 75  2  0  0  0  0
 34 35  1  0  0  0  0
 34 81  1  0  0  0  0
 35 70  1  0  0  0  0
 35 76  2  0  0  0  0
 36 50  1  0  0  0  0
 36 71  1  0  0  0  0
 36 77  2  0  0  0  0
 37 61  1  0  0  0  0
 37 66  1  0  0  0  0
 37 78  2  0  0  0  0
 38 62  1  0  0  0  0
 38 72  1  0  0  0  0
 38 79  2  0  0  0  0
 39 67  1  0  0  0  0
 39 73  1  0  0  0  0
 39 80  2  0  0  0  0
 40 43  1  0  0  0  0
 41 50  1  0  0  0  0
 42 66  1  0  0  0  0
 43 45  1  0  0  0  0
 44 46  1  0  0  0  0
 44 47  1  0  0  0  0
 45 49  1  0  0  0  0
 46 51  1  0  0  0  0
 47 67  1  0  0  0  0
 48 51  1  0  0  0  0
 48 67  1  0  0  0  0
 49 71  1  0  0  0  0
 50 66  1  0  0  0  0
 51 65  1  0  0  0  0
 52 59  1  0  0  0  0
 53 60  1  0  0  0  0
 54 62  1  0  0  0  0
 55 63  1  0  0  0  0
 56 63  1  0  0  0  0
 57 63  1  0  0  0  0
 58 74  1  0  0  0  0
 60 73  1  0  0  0  0
 61 63  1  0  0  0  0
 61 72  1  0  0  0  0
 62 74  1  0  0  0  0
 64 65  1  0  0  0  0
M  CHG  1  74   1
M  ISO  4  32 101  39 100  73 100  83 101
M  END
> <Batch ID>
0167

> <Smiles>
CCc1cc(NC(=O)C(=O)[101CH2:1][101O:1]c2ccc3c(c2)CN(C(=O)C(NC(=O)C(C)NC)C(C)(C)C)C(C(=O)NC2CCCc4ccccc42)C3)sc1C(C)[100NH:0][100C:0](=O)N1CCCC(n2nc(-c3ccc(Oc4ccc(F)cc4F)cc3)c(C(N)=O)c2N)C1

> <Shape>
0.272

> <Color>
0.091

> <Negative vol penalty>
0.000

$$$$

  -OEChem-04052304113D

 89 97  0     1  0  0  0  0  0999 V2000
  -26.6621  -38.8560   24.4540 C   0  0  0  0  0  0  0  0  0  0  0  0
  -27.4653  -37.8472   24.9761 C   0  0  0  0  0  0  0  0  0  0  0  0
  -24.6672   -8.6980   21.5092 C   0  0  0  0  0  0  0  0  0  0  0  0
  -22.9501  -10.3485   21.1041 C   0  0  0  0  0  0  0  0  0  0  0  0
  -24.3868  -19.4508   18.8419 C   0  0  0  0  0  0  0  0  0  0  0  0
  -25.3120  -38.6122   24.2057 C   0  0  0  0  0  0  0  0  0  0  0  0
  -26.9185  -36.5943   25.2513 C   0  0  0  0  0  0  0  0  0  0  0  0
  -29.5142  -30.6473   22.1229 C   0  0  0  0  0  0  0  0  0  0  0  0
  -24.8893  -18.1771   19.1081 C   0  0  0  0  0  0  0  0  0  0  0  0
  -23.8523   -8.0834   22.4599 C   0  0  0  0  0  0  0  0  0  0  0  0
  -22.1351   -9.7340   22.0548 C   0  0  0  0  0  0  0  0  0  0  0  0
  -30.0910  -29.4403   21.7270 C   0  0  0  0  0  0  0  0  0  0  0  0
  -21.2001   -5.9863   22.4855 C   0  0  0  0  0  0  0  0  0  0  0  0
  -21.0983   -4.5956   22.4503 C   0  0  0  0  0  0  0  0  0  0  0  0
  -28.3409  -28.2187   22.8640 C   0  0  0  0  0  0  0  0  0  0  0  0
  -27.1155  -19.0957   19.3009 C   0  0  0  0  0  0  0  0  0  0  0  0
  -21.9779   -4.4744   24.6973 C   0  0  0  0  0  0  0  0  0  0  0  0
  -24.2161   -9.8306   20.8313 C   0  0  0  0  0  0  0  0  0  0  0  0
  -25.2487  -20.5469   18.8051 C   0  0  0  0  0  0  0  0  0  0  0  0
  -25.1151  -10.1877   18.4708 C   0  0  0  0  0  0  0  0  0  0  0  0
  -24.7506  -37.3528   24.4689 C   0  0  0  0  0  0  0  0  0  0  0  0
  -28.3386  -30.6447   22.8787 C   0  0  0  0  0  0  0  0  0  0  0  0
  -25.5593  -36.3339   25.0075 C   0  0  0  0  0  0  0  0  0  0  0  0
  -27.7517  -29.4247   23.2529 C   0  0  0  0  0  0  0  0  0  0  0  0
  -26.2536  -17.9995   19.3376 C   0  0  0  0  0  0  0  0  0  0  0  0
  -26.6130  -20.3694   19.0346 C   0  0  0  0  0  0  0  0  0  0  0  0
  -22.5862   -8.6014   22.7327 C   0  0  0  0  0  0  0  0  0  0  0  0
  -29.5059  -28.2291   22.0968 C   0  0  0  0  0  0  0  0  0  0  0  0
  -21.6909   -6.6211   23.6265 C   0  0  0  0  0  0  0  0  0  0  0  0
  -21.4871   -3.8397   23.5562 C   0  0  0  0  0  0  0  0  0  0  0  0
  -22.0797   -5.8651   24.7324 C   0  0  0  0  0  0  0  0  0  0  0  0
  -25.0577  -10.4661   19.8496 C   0  0  0  0  0  0  0  0  0  0  0  0
  -26.0624  -11.0551   17.9845 C   0  0  0  0  0  0  0  0  0  0  0  0
  -24.6913  -21.8641   18.5238 C   0  0  0  0  0  0  0  0  0  0  0  0
  -24.3779   -9.2305   17.6988 C   0  0  0  0  0  0  0  0  0  0  0  0
  -25.6823  -32.6642   24.5938 C   0  0  0  0  0  0  0  0  0  0  0  0
  -29.7327  -25.0189   20.4331 C   0  0  0  0  0  0  0  0  0  0  0  0
  -24.2687  -30.3081   23.2294 C   0  0  0  0  0  0  0  0  0  0  0  0
  -28.8829  -21.4483   19.2075 C   0  0  0  0  0  0  0  0  0  0  0  0
  -23.0534  -27.8203   21.2367 C   0  0  0  0  0  0  0  0  0  0  0  0
  -28.0897  -16.3549   19.8574 C   0  0  0  0  0  0  0  0  0  0  0  0
  -23.2754  -37.1510   24.2284 C   0  0  0  0  0  0  0  0  0  0  0  0
  -27.7164  -31.9199   23.3794 C   0  0  0  0  0  0  0  0  0  0  0  0
  -26.5065  -29.4699   24.0957 C   0  0  0  0  0  0  0  0  0  0  0  0
  -22.8587  -35.6827   24.1965 C   0  0  0  0  0  0  0  0  0  0  0  0
  -30.0156  -13.4106   19.3104 C   0  0  0  0  0  0  0  0  0  0  0  0
  -23.4771  -34.9268   25.3683 C   0  0  0  0  0  0  0  0  0  0  0  0
  -28.9675  -12.2968   19.2551 C   0  0  0  0  0  0  0  0  0  0  0  0
  -29.6510  -14.4820   20.3366 C   0  0  0  0  0  0  0  0  0  0  0  0
  -27.2571  -13.9370   20.1335 C   0  0  0  0  0  0  0  0  0  0  0  0
  -25.0086  -34.9542   25.2959 C   0  0  1  0  0  0  0  0  0  0  0  0
  -26.1790  -31.8634   23.4261 C   0  0  1  0  0  0  0  0  0  0  0  0
  -27.5480  -12.8676   19.0679 C   0  0  2  0  0  0  0  0  0  0  0  0
  -23.4513  -22.0114   17.6453 C   0  0  0  0  0  0  0  0  0  0  0  0
  -29.2787  -23.3701   17.6609 C   0  0  0  0  0  0  0  0  0  0  0  0
  -20.9046  -26.7287   20.5380 C   0  0  0  0  0  0  0  0  0  0  0  0
  -24.1352  -28.8626   25.9120 C   0  0  0  0  0  0  0  0  0  0  0  0
  -22.6333  -27.1681   24.8438 C   0  0  0  0  0  0  0  0  0  0  0  0
  -21.9166  -29.5531   24.9871 C   0  0  0  0  0  0  0  0  0  0  0  0
  -23.4748  -28.5422   18.3976 C   0  0  0  0  0  0  0  0  0  0  0  0
  -28.8688  -23.8049   20.1206 C   0  0  0  0  0  0  0  0  0  0  0  0
  -29.1947  -25.9463   21.5055 C   0  0  0  0  0  0  0  0  0  1  0  0
  -23.7398  -28.9023   23.3609 C   0  0  1  0  0  0  0  0  0  0  0  0
  -29.4873  -22.8527   19.0859 C   0  0  1  0  0  0  0  0  0  0  0  0
  -21.9295  -27.8051   20.2163 C   0  0  2  0  0  0  0  0  0  0  0  0
  -23.1321  -28.6268   24.7653 C   0  0  0  0  0  0  0  0  0  0  0  0
  -25.9016  -11.4346   20.2156 N   0  0  0  0  0  0  0  0  0  0  0  0
  -25.2369  -22.9585   18.9968 N   0  0  0  0  0  0  0  0  0  0  0  0
  -26.4982  -11.7723   19.0596 N   0  0  0  0  0  0  0  0  0  0  0  0
  -25.6023  -30.5195   23.6001 N   0  0  0  0  0  0  0  0  0  0  0  0
  -28.2949  -14.9792   20.0944 N   0  0  0  0  0  0  0  0  0  0  0  0
  -26.5569  -11.2667   16.7463 N   0  0  0  0  0  0  0  0  0  0  0  0
  -23.4435   -8.4188   18.3564 N   0  0  0  0  0  0  0  0  0  0  0  0
  -27.5062  -21.4668   19.0017 N   0  0  0  0  0  0  0  0  0  0  0  0
  -26.7633  -16.7053   19.6076 N   0  0  0  0  0  0  0  0  0  0  0  0
  -25.4853  -34.0031   24.3147 N   0  0  0  0  0  0  0  0  0  0  0  0
  -22.8044  -28.7132   22.2575 N   0  0  0  0  0  0  0  0  0  0  0  0
  -22.4715  -27.5455   18.8526 N   0  3  0  0  0  0  0  0  0  0  0  0
  -24.5545   -9.0877   16.4651 O   0  0  0  0  0  0  0  0  0  0  0  0
  -25.4899  -32.1089   25.6691 O   0  0  0  0  0  0  0  0  0  0  0  0
  -30.8050  -25.2348   19.8710 O   0  0  0  0  0  0  0  0  0  0  0  0
  -23.5204  -31.1978   22.8150 O   0  0  0  0  0  0  0  0  0  0  0  0
  -29.5770  -20.4715   19.4750 O   0  0  0  0  0  0  0  0  0  0  0  0
  -24.0506  -27.1084   21.1399 O   0  0  0  0  0  0  0  0  0  0  0  0
  -29.0257  -17.1585   19.8479 O   0  0  0  0  0  0  0  0  0  0  0  0
  -21.7906   -8.0019   23.6601 O   0  0  0  0  0  0  0  0  0  0  0  0
  -30.0717  -27.0545   21.7031 O   0  0  0  0  0  0  0  0  0  1  0  0
  -21.3879   -2.5043   23.5229 F   0  0  0  0  0  0  0  0  0  0  0  0
  -22.5508   -6.4694   25.8318 F   0  0  0  0  0  0  0  0  0  0  0  0
  1  2  1  0  0  0  0
  1  6  2  0  0  0  0
  2  7  2  0  0  0  0
  3 10  2  0  0  0  0
  3 18  1  0  0  0  0
  4 11  1  0  0  0  0
  4 18  2  0  0  0  0
  5  9  2  0  0  0  0
  5 19  1  0  0  0  0
  6 21  1  0  0  0  0
  7 23  1  0  0  0  0
  8 12  2  0  0  0  0
  8 22  1  0  0  0  0
  9 25  1  0  0  0  0
 10 27  1  0  0  0  0
 11 27  2  0  0  0  0
 12 28  1  0  0  0  0
 13 14  2  0  0  0  0
 13 29  1  0  0  0  0
 14 30  1  0  0  0  0
 15 24  1  0  0  0  0
 15 28  2  0  0  0  0
 16 25  2  0  0  0  0
 16 26  1  0  0  0  0
 17 30  2  0  0  0  0
 17 31  1  0  0  0  0
 18 32  1  0  0  0  0
 19 26  2  0  0  0  0
 19 34  1  0  0  0  0
 20 32  1  0  0  0  0
 20 33  2  0  0  0  0
 20 35  1  0  0  0  0
 21 23  2  0  0  0  0
 21 42  1  0  0  0  0
 22 24  2  0  0  0  0
 22 43  1  0  0  0  0
 23 51  1  0  0  0  0
 24 44  1  0  0  0  0
 25 75  1  0  0  0  0
 26 74  1  0  0  0  0
 27 86  1  0  0  0  0
 28 87  1  0  0  0  0
 29 31  2  0  0  0  0
 29 86  1  0  0  0  0
 30 88  1  0  0  0  0
 31 89  1  0  0  0  0
 32 67  2  0  0  0  0
 33 69  1  0  0  0  0
 33 72  1  0  0  0  0
 34 54  1  0  0  0  0
 34 68  2  0  0  0  0
 35 73  1  0  0  0  0
 35 79  2  0  0  0  0
 36 52  1  0  0  0  0
 36 76  1  0  0  0  0
 36 80  2  0  0  0  0
 37 61  1  0  0  0  0
 37 62  1  0  0  0  0
 37 81  2  0  0  0  0
 38 63  1  0  0  0  0
 38 70  1  0  0  0  0
 38 82  2  0  0  0  0
 39 64  1  0  0  0  0
 39 74  1  0  0  0  0
 39 83  2  0  0  0  0
 40 65  1  0  0  0  0
 40 77  1  0  0  0  0
 40 84  2  0  0  0  0
 41 71  1  0  0  0  0
 41 75  1  0  0  0  0
 41 85  2  0  0  0  0
 42 45  1  0  0  0  0
 43 52  1  0  0  0  0
 44 70  1  0  0  0  0
 45 47  1  0  0  0  0
 46 48  1  0  0  0  0
 46 49  1  0  0  0  0
 47 51  1  0  0  0  0
 48 53  1  0  0  0  0
 49 71  1  0  0  0  0
 50 53  1  0  0  0  0
 50 71  1  0  0  0  0
 51 76  1  0  0  0  0
 52 70  1  0  0  0  0
 53 69  1  0  0  0  0
 55 64  1  0  0  0  0
 56 65  1  0  0  0  0
 57 66  1  0  0  0  0
 58 66  1  0  0  0  0
 59 66  1  0  0  0  0
 60 78  1  0  0  0  0
 61 64  1  0  0  0  0
 62 87  1  0  0  0  0
 63 66  1  0  0  0  0
 63 77  1  0  0  0  0
 65 78  1  0  0  0  0
 67 69  1  0  0  0  0
M  CHG  1  78   1
M  ISO  4  41 100  62 101  75 100  87 101
M  END
> <Batch ID>
0167

> <Smiles>
CNC(C)C(=O)NC(C(=O)N1Cc2cc([101O:1][101CH2:1]C(=O)CC(C)C(=O)Nc3cc([100NH:0][100C:0](=O)N4CCCC(n5nc(-c6ccc(Oc7ccc(F)cc7F)cc6)c(C(N)=O)c5N)C4)ccc3C(C)=N)ccc2CC1C(=O)NC1CCCc2ccccc21)C(C)(C)C

> <Shape>
0.311

> <Color>
0.108

> <Negative vol penalty>
0.000

$$$$

  -OEChem-04052304113D

 87 95  0     1  0  0  0  0  0999 V2000
  -29.7234  -33.8534   25.5265 C   0  0  0  0  0  0  0  0  0  0  0  0
  -29.5348  -32.6103   24.9312 C   0  0  0  0  0  0  0  0  0  0  0  0
  -22.7547  -11.1458   19.1482 C   0  0  0  0  0  0  0  0  0  0  0  0
  -22.7966   -9.9780   21.2628 C   0  0  0  0  0  0  0  0  0  0  0  0
  -31.1744  -18.2412   20.3694 C   0  0  0  0  0  0  0  0  0  0  0  0
  -28.6271  -34.5692   26.0056 C   0  0  0  0  0  0  0  0  0  0  0  0
  -28.2497  -32.0816   24.8158 C   0  0  0  0  0  0  0  0  0  0  0  0
  -27.3688  -30.0981   20.2403 C   0  0  0  0  0  0  0  0  0  0  0  0
  -30.4904  -19.4563   20.4033 C   0  0  0  0  0  0  0  0  0  0  0  0
  -21.6165  -10.4306   18.7758 C   0  0  0  0  0  0  0  0  0  0  0  0
  -21.6584   -9.2628   20.8904 C   0  0  0  0  0  0  0  0  0  0  0  0
  -27.9032  -28.8371   19.9794 C   0  0  0  0  0  0  0  0  0  0  0  0
  -18.3242   -9.7927   20.7399 C   0  0  0  0  0  0  0  0  0  0  0  0
  -17.3064   -9.6596   21.6844 C   0  0  0  0  0  0  0  0  0  0  0  0
  -25.7505  -27.8407   20.4180 C   0  0  0  0  0  0  0  0  0  0  0  0
  -28.6933  -18.4806   19.1165 C   0  0  0  0  0  0  0  0  0  0  0  0
  -17.5339   -7.2562   21.5910 C   0  0  0  0  0  0  0  0  0  0  0  0
  -23.3447  -10.9194   20.3917 C   0  0  0  0  0  0  0  0  0  0  0  0
  -30.6180  -17.1458   19.7089 C   0  0  0  0  0  0  0  0  0  0  0  0
  -24.5666  -12.8895   21.4564 C   0  0  0  0  0  0  0  0  0  0  0  0
  -27.3269  -34.0533   25.8873 C   0  0  0  0  0  0  0  0  0  0  0  0
  -26.0216  -30.2390   20.6033 C   0  0  0  0  0  0  0  0  0  0  0  0
  -27.1350  -32.7905   25.2950 C   0  0  0  0  0  0  0  0  0  0  0  0
  -25.2008  -29.1048   20.6805 C   0  0  0  0  0  0  0  0  0  0  0  0
  -29.2498  -19.5760   19.7770 C   0  0  0  0  0  0  0  0  0  0  0  0
  -21.0684   -9.4891   19.6469 C   0  0  0  0  0  0  0  0  0  0  0  0
  -27.0947  -27.7078   20.0710 C   0  0  0  0  0  0  0  0  0  0  0  0
  -18.9468   -8.6575   20.2209 C   0  0  0  0  0  0  0  0  0  0  0  0
  -16.9113   -8.3914   22.1099 C   0  0  0  0  0  0  0  0  0  0  0  0
  -29.3775  -17.2655   19.0825 C   0  0  0  0  0  0  0  0  0  0  0  0
  -18.5517   -7.3892   20.6464 C   0  0  0  0  0  0  0  0  0  0  0  0
  -24.5208  -11.6575   20.7767 C   0  0  0  0  0  0  0  0  0  0  0  0
  -25.9068  -13.1628   21.5818 C   0  0  0  0  0  0  0  0  0  0  0  0
  -27.9433  -23.0699   20.2292 C   0  0  0  0  0  0  0  0  0  0  0  0
  -31.3515  -15.8545   19.6730 C   0  0  0  0  0  0  0  0  0  0  0  0
  -23.4937  -13.7131   21.9320 C   0  0  0  0  0  0  0  0  0  0  0  0
  -28.0806  -24.3147   20.7139 C   0  0  0  0  0  0  0  0  0  0  0  0
  -28.9633  -21.9910   20.4205 C   0  0  0  0  0  0  0  0  0  0  0  0
  -24.4916  -31.3263   23.1686 C   0  0  0  0  0  0  0  0  0  0  0  0
  -21.8682  -30.8707   21.3159 C   0  0  0  0  0  0  0  0  0  0  0  0
  -20.4259  -29.2433   18.6857 C   0  0  0  0  0  0  0  0  0  0  0  0
  -31.0458  -13.4033   19.5248 C   0  0  0  0  0  0  0  0  0  0  0  0
  -26.1776  -34.8425   26.4627 C   0  0  0  0  0  0  0  0  0  0  0  0
  -25.4538  -31.6088   20.8555 C   0  0  0  0  0  0  0  0  0  0  0  0
  -23.7432  -29.2042   21.0465 C   0  0  0  0  0  0  0  0  0  0  0  0
  -24.8109  -34.3797   25.9644 C   0  0  0  0  0  0  0  0  0  0  0  0
  -29.9607  -10.2543   20.7095 C   0  0  0  0  0  0  0  0  0  0  0  0
  -24.7058  -32.8593   26.0297 C   0  0  0  0  0  0  0  0  0  0  0  0
  -28.4524  -10.4393   20.8973 C   0  0  0  0  0  0  0  0  0  0  0  0
  -30.4732  -10.9918   19.4732 C   0  0  0  0  0  0  0  0  0  0  0  0
  -28.6087  -12.5944   19.5877 C   0  0  0  0  0  0  0  0  0  0  0  0
  -25.7539  -32.1946   25.1291 C   0  0  1  0  0  0  0  0  0  0  0  0
  -24.1959  -31.5846   21.7183 C   0  0  1  0  0  0  0  0  0  0  0  0
  -28.0560  -11.9289   20.8584 C   0  0  1  0  0  0  0  0  0  0  0  0
  -18.2580  -29.0530   17.4362 C   0  0  0  0  0  0  0  0  0  0  0  0
  -20.7083  -29.1970   23.5881 C   0  0  0  0  0  0  0  0  0  0  0  0
  -19.0381  -28.2778   21.9652 C   0  0  0  0  0  0  0  0  0  0  0  0
  -19.0684  -30.7201   22.4721 C   0  0  0  0  0  0  0  0  0  0  0  0
  -21.6657  -30.1664   16.1619 C   0  0  0  0  0  0  0  0  0  0  0  0
  -27.0352  -25.3716   20.5119 C   0  0  0  0  0  0  0  0  0  1  0  0
  -20.9200  -29.7223   21.0692 C   0  0  1  0  0  0  0  0  0  0  0  0
  -19.6065  -29.7518   17.5134 C   0  0  2  0  0  0  0  0  0  0  0  0
  -19.9616  -29.4769   22.2686 C   0  0  0  0  0  0  0  0  0  0  0  0
  -25.7353  -11.1812   20.4902 N   0  0  0  0  0  0  0  0  0  0  0  0
  -26.5569  -12.1188   20.9922 N   0  0  0  0  0  0  0  0  0  0  0  0
  -23.2363  -30.5648   21.2900 N   0  0  0  0  0  0  0  0  0  0  0  0
  -30.0643  -12.3968   19.5173 N   0  0  0  0  0  0  0  0  0  0  0  0
  -26.5808  -14.1920   22.1376 N   0  0  0  0  0  0  0  0  0  0  0  0
  -22.1767  -13.2831   21.7198 N   0  0  0  0  0  0  0  0  0  0  0  0
  -28.5551  -20.8103   19.8116 N   0  0  0  0  0  0  0  0  0  0  0  0
  -30.5548  -14.7108   19.6114 N   0  0  0  0  0  0  0  0  0  0  0  0
  -25.3399  -32.2532   23.7436 N   0  0  0  0  0  0  0  0  0  0  0  0
  -20.2406  -30.0167   19.8121 N   0  0  0  0  0  0  0  0  0  0  0  0
  -20.3320  -29.5159   16.2332 N   0  3  0  0  0  0  0  0  0  0  0  0
  -32.5794  -15.8643   19.6593 O   0  0  0  0  0  0  0  0  0  0  0  0
  -23.6966  -14.8062   22.5130 O   0  0  0  0  0  0  0  0  0  0  0  0
  -30.0000  -22.1890   21.0420 O   0  0  0  0  0  0  0  0  0  0  0  0
  -23.9864  -30.3585   23.7252 O   0  0  0  0  0  0  0  0  0  0  0  0
  -21.4121  -31.9991   21.5170 O   0  0  0  0  0  0  0  0  0  0  0  0
  -21.1544  -28.2562   18.6109 O   0  0  0  0  0  0  0  0  0  0  0  0
  -32.2558  -13.1580   19.4956 O   0  0  0  0  0  0  0  0  0  0  0  0
  -29.1836  -24.7032   21.4479 O   0  0  0  0  0  0  0  0  0  0  0  0
  -19.9576   -8.7912   19.2839 O   0  0  0  0  0  0  0  0  0  0  0  0
  -27.6140  -26.4758   19.8175 O   0  0  0  0  0  0  0  0  0  1  0  0
  -15.9349   -8.2638   23.0180 F   0  0  0  0  0  0  0  0  0  0  0  0
  -28.8333  -16.2194   18.4444 F   0  0  0  0  0  0  0  0  0  0  0  0
  -19.1469   -6.2950   20.1523 F   0  0  0  0  0  0  0  0  0  0  0  0
  1  2  1  0  0  0  0
  1  6  2  0  0  0  0
  2  7  2  0  0  0  0
  3 10  2  0  0  0  0
  3 18  1  0  0  0  0
  4 11  1  0  0  0  0
  4 18  2  0  0  0  0
  5  9  2  0  0  0  0
  5 19  1  0  0  0  0
  6 21  1  0  0  0  0
  7 23  1  0  0  0  0
  8 12  2  0  0  0  0
  8 22  1  0  0  0  0
  9 25  1  0  0  0  0
 10 26  1  0  0  0  0
 11 26  2  0  0  0  0
 12 27  1  0  0  0  0
 13 14  2  0  0  0  0
 13 28  1  0  0  0  0
 14 29  1  0  0  0  0
 15 24  1  0  0  0  0
 15 27  2  0  0  0  0
 16 25  2  0  0  0  0
 16 30  1  0  0  0  0
 17 29  2  0  0  0  0
 17 31  1  0  0  0  0
 18 32  1  0  0  0  0
 19 30  2  0  0  0  0
 19 35  1  0  0  0  0
 20 32  1  0  0  0  0
 20 33  2  0  0  0  0
 20 36  1  0  0  0  0
 21 23  2  0  0  0  0
 21 43  1  0  0  0  0
 22 24  2  0  0  0  0
 22 44  1  0  0  0  0
 23 52  1  0  0  0  0
 24 45  1  0  0  0  0
 25 70  1  0  0  0  0
 26 83  1  0  0  0  0
 27 84  1  0  0  0  0
 28 31  2  0  0  0  0
 28 83  1  0  0  0  0
 29 85  1  0  0  0  0
 30 86  1  0  0  0  0
 31 87  1  0  0  0  0
 32 64  2  0  0  0  0
 33 65  1  0  0  0  0
 33 68  1  0  0  0  0
 34 37  2  0  0  0  0
 34 38  1  0  0  0  0
 35 71  1  0  0  0  0
 35 75  2  0  0  0  0
 36 69  1  0  0  0  0
 36 76  2  0  0  0  0
 37 60  1  0  0  0  0
 37 82  1  0  0  0  0
 38 70  1  0  0  0  0
 38 77  2  0  0  0  0
 39 53  1  0  0  0  0
 39 72  1  0  0  0  0
 39 78  2  0  0  0  0
 40 61  1  0  0  0  0
 40 66  1  0  0  0  0
 40 79  2  0  0  0  0
 41 62  1  0  0  0  0
 41 73  1  0  0  0  0
 41 80  2  0  0  0  0
 42 67  1  0  0  0  0
 42 71  1  0  0  0  0
 42 81  2  0  0  0  0
 43 46  1  0  0  0  0
 44 53  1  0  0  0  0
 45 66  1  0  0  0  0
 46 48  1  0  0  0  0
 47 49  1  0  0  0  0
 47 50  1  0  0  0  0
 48 52  1  0  0  0  0
 49 54  1  0  0  0  0
 50 67  1  0  0  0  0
 51 54  1  0  0  0  0
 51 67  1  0  0  0  0
 52 72  1  0  0  0  0
 53 66  1  0  0  0  0
 54 65  1  0  0  0  0
 55 62  1  0  0  0  0
 56 63  1  0  0  0  0
 57 63  1  0  0  0  0
 58 63  1  0  0  0  0
 59 74  1  0  0  0  0
 60 84  1  0  0  0  0
 61 63  1  0  0  0  0
 61 73  1  0  0  0  0
 62 74  1  0  0  0  0
 64 65  1  0  0  0  0
M  CHG  1  74   1
M  ISO  4  42 100  60 101  71 100  84 101
M  END
> <Batch ID>
0167

> <Smiles>
CNC(C)C(=O)NC(C(=O)N1Cc2cc([101O:1][101CH2:1]C(=O)CC(=O)Nc3ccc(C(=O)[100NH:0][100C:0](=O)N4CCCC(n5nc(-c6ccc(Oc7ccc(F)cc7F)cc6)c(C(N)=O)c5N)C4)c(F)c3)ccc2CC1C(=O)NC1CCCc2ccccc21)C(C)(C)C

> <Shape>
0.316

> <Color>
0.084

> <Negative vol penalty>
0.000

$$$$

  -OEChem-04052304113D

 86 94  0     1  0  0  0  0  0999 V2000
  -21.9080   -9.7935   21.0358 C   0  0  0  0  0  0  0  0  0  0  0  0
  -22.0402  -11.1613   21.2525 C   0  0  0  0  0  0  0  0  0  0  0  0
  -25.2068  -30.4290   20.2817 C   0  0  0  0  0  0  0  0  0  0  0  0
  -24.3287  -28.5525   21.5245 C   0  0  0  0  0  0  0  0  0  0  0  0
  -26.3544  -19.1817   16.2808 C   0  0  0  0  0  0  0  0  0  0  0  0
  -23.0360   -8.9741   21.0511 C   0  0  0  0  0  0  0  0  0  0  0  0
  -23.3006  -11.7105   21.4856 C   0  0  0  0  0  0  0  0  0  0  0  0
  -25.3001  -17.2213   19.7141 C   0  0  0  0  0  0  0  0  0  0  0  0
  -24.7396  -31.2997   21.2661 C   0  0  0  0  0  0  0  0  0  0  0  0
  -23.8615  -29.4232   22.5090 C   0  0  0  0  0  0  0  0  0  0  0  0
  -25.4054  -18.4403   20.3824 C   0  0  0  0  0  0  0  0  0  0  0  0
  -24.0951  -33.9858   23.6293 C   0  0  0  0  0  0  0  0  0  0  0  0
  -25.4726  -18.3785   15.5579 C   0  0  0  0  0  0  0  0  0  0  0  0
  -24.9538  -34.9962   24.0619 C   0  0  0  0  0  0  0  0  0  0  0  0
  -27.7173  -17.9621   20.8780 C   0  0  0  0  0  0  0  0  0  0  0  0
  -24.3258  -20.3515   14.7647 C   0  0  0  0  0  0  0  0  0  0  0  0
  -26.5514  -33.3315   24.7789 C   0  0  0  0  0  0  0  0  0  0  0  0
  -25.0013  -29.0553   20.4108 C   0  0  0  0  0  0  0  0  0  0  0  0
  -26.2220  -20.5698   16.2458 C   0  0  0  0  0  0  0  0  0  0  0  0
  -26.7431  -27.5298   19.3401 C   0  0  0  0  0  0  0  0  0  0  0  0
  -24.3119   -9.5150   21.2749 C   0  0  0  0  0  0  0  0  0  0  0  0
  -26.4015  -16.3572   19.6320 C   0  0  0  0  0  0  0  0  0  0  0  0
  -24.4466  -10.8974   21.5052 C   0  0  0  0  0  0  0  0  0  0  0  0
  -27.6241  -16.7338   20.2059 C   0  0  0  0  0  0  0  0  0  0  0  0
  -25.2077  -21.1547   15.4877 C   0  0  0  0  0  0  0  0  0  0  0  0
  -24.0670  -30.7968   22.3798 C   0  0  0  0  0  0  0  0  0  0  0  0
  -26.6133  -18.8096   20.9670 C   0  0  0  0  0  0  0  0  0  0  0  0
  -24.4645  -32.6482   23.7715 C   0  0  0  0  0  0  0  0  0  0  0  0
  -24.4582  -18.9634   14.7998 C   0  0  0  0  0  0  0  0  0  0  0  0
  -26.1820  -34.6691   24.6367 C   0  0  0  0  0  0  0  0  0  0  0  0
  -25.6926  -32.3211   24.3463 C   0  0  0  0  0  0  0  0  0  0  0  0
  -25.4832  -28.1554   19.3940 C   0  0  0  0  0  0  0  0  0  0  0  0
  -26.7066  -26.7828   18.1881 C   0  0  0  0  0  0  0  0  0  0  0  0
  -27.1690  -21.3981   17.0202 C   0  0  0  0  0  0  0  0  0  0  0  0
  -27.8477  -27.6162   20.2501 C   0  0  0  0  0  0  0  0  0  0  0  0
  -27.0176  -13.4065   20.6406 C   0  0  0  0  0  0  0  0  0  0  0  0
  -29.7532  -13.8168   18.9464 C   0  0  0  0  0  0  0  0  0  0  0  0
  -27.6417  -22.5007   19.1966 C   0  0  0  0  0  0  0  0  0  0  0  0
  -32.0326  -15.9715   17.6016 C   0  0  0  0  0  0  0  0  0  0  0  0
  -24.0949  -23.2847   14.7319 C   0  0  0  0  0  0  0  0  0  0  0  0
  -25.4962   -8.5827   21.3292 C   0  0  0  0  0  0  0  0  0  0  0  0
  -26.2791  -15.0577   18.8845 C   0  0  0  0  0  0  0  0  0  0  0  0
  -28.8419  -15.8510   20.1283 C   0  0  0  0  0  0  0  0  0  0  0  0
  -26.8399   -9.2974   21.2113 C   0  0  0  0  0  0  0  0  0  0  0  0
  -23.3648  -26.7524   14.3864 C   0  0  0  0  0  0  0  0  0  0  0  0
  -26.8783  -10.5165   22.1274 C   0  0  0  0  0  0  0  0  0  0  0  0
  -23.9544  -27.3751   15.6540 C   0  0  0  0  0  0  0  0  0  0  0  0
  -22.7572  -25.3777   14.6597 C   0  0  0  0  0  0  0  0  0  0  0  0
  -24.2414  -25.0485   16.5982 C   0  0  0  0  0  0  0  0  0  0  0  0
  -25.7997  -11.5341   21.7370 C   0  0  1  0  0  0  0  0  0  0  0  0
  -27.3208  -14.0257   19.3056 C   0  0  1  0  0  0  0  0  0  0  0  0
  -24.9228  -26.4059   16.3600 C   0  0  2  0  0  0  0  0  0  0  0  0
  -34.1817  -16.0098   16.3065 C   0  0  0  0  0  0  0  0  0  0  0  0
  -31.2841  -13.0384   21.4684 C   0  0  0  0  0  0  0  0  0  0  0  0
  -33.3491  -13.9972   20.4269 C   0  0  0  0  0  0  0  0  0  0  0  0
  -32.1948  -12.0641   19.3528 C   0  0  0  0  0  0  0  0  0  0  0  0
  -30.7870  -17.4400   15.3541 C   0  0  0  0  0  0  0  0  0  0  0  0
  -26.9789  -22.6890   20.5413 C   0  0  0  0  0  0  0  0  0  0  0  0
  -27.8017  -22.1384   21.7012 C   0  0  0  0  0  0  0  0  0  0  0  0
  -27.9987  -20.6293   21.6192 C   0  0  0  0  0  0  0  0  0  1  0  0
  -31.1299  -14.3550   19.2528 C   0  0  1  0  0  0  0  0  0  0  0  0
  -32.6635  -16.0387   16.2225 C   0  0  2  0  0  0  0  0  0  0  0  0
  -31.9662  -13.3797   20.1286 C   0  0  0  0  0  0  0  0  0  0  0  0
  -24.7032  -27.8339   18.3585 N   0  0  0  0  0  0  0  0  0  0  0  0
  -25.4751  -26.9982   17.6430 N   0  0  0  0  0  0  0  0  0  0  0  0
  -28.6702  -14.5876   19.3921 N   0  0  0  0  0  0  0  0  0  0  0  0
  -23.7331  -24.5124   15.3258 N   0  0  0  0  0  0  0  0  0  0  0  0
  -27.6082  -25.9693   17.5983 N   0  0  0  0  0  0  0  0  0  0  0  0
  -27.7172  -28.4294   21.3841 N   0  0  0  0  0  0  0  0  0  0  0  0
  -25.0552  -22.5626   15.4397 N   0  0  0  0  0  0  0  0  0  0  0  0
  -26.8503  -21.7068   18.2848 N   0  0  0  0  0  0  0  0  0  0  0  0
  -26.2123  -12.2857   20.5710 N   0  0  0  0  0  0  0  0  0  0  0  0
  -31.7390  -14.6745   17.9662 N   0  0  0  0  0  0  0  0  0  0  0  0
  -28.2878  -21.7928   16.4130 N   0  3  0  0  0  0  0  0  0  0  0  0
  -32.2551  -17.2917   15.5266 N   0  3  0  0  0  0  0  0  0  0  0  0
  -28.9248  -27.0037   20.0546 O   0  0  0  0  0  0  0  0  0  0  0  0
  -27.4812  -13.9075   21.6583 O   0  0  0  0  0  0  0  0  0  0  0  0
  -29.6428  -12.7552   18.3279 O   0  0  0  0  0  0  0  0  0  0  0  0
  -28.7180  -22.9748   18.8634 O   0  0  0  0  0  0  0  0  0  0  0  0
  -31.8246  -16.9693   18.2883 O   0  0  0  0  0  0  0  0  0  0  0  0
  -23.6102  -22.9149   13.6594 O   0  0  0  0  0  0  0  0  0  0  0  0
  -23.6112  -31.6462   23.3407 O   0  0  0  0  0  0  0  0  0  0  0  0
  -26.7186  -19.9986   21.6205 O   0  0  0  0  0  0  0  0  0  1  0  0
  -23.6115  -18.1917   14.1058 F   0  0  0  0  0  0  0  0  0  0  0  0
  -27.0072  -35.6396   25.0507 F   0  0  0  0  0  0  0  0  0  0  0  0
  -26.0534  -31.0379   24.4844 F   0  0  0  0  0  0  0  0  0  0  0  0
  1  2  1  0  0  0  0
  1  6  2  0  0  0  0
  2  7  2  0  0  0  0
  3  9  2  0  0  0  0
  3 18  1  0  0  0  0
  4 10  1  0  0  0  0
  4 18  2  0  0  0  0
  5 13  2  0  0  0  0
  5 19  1  0  0  0  0
  6 21  1  0  0  0  0
  7 23  1  0  0  0  0
  8 11  2  0  0  0  0
  8 22  1  0  0  0  0
  9 26  1  0  0  0  0
 10 26  2  0  0  0  0
 11 27  1  0  0  0  0
 12 14  2  0  0  0  0
 12 28  1  0  0  0  0
 13 29  1  0  0  0  0
 14 30  1  0  0  0  0
 15 24  1  0  0  0  0
 15 27  2  0  0  0  0
 16 25  1  0  0  0  0
 16 29  2  0  0  0  0
 17 30  2  0  0  0  0
 17 31  1  0  0  0  0
 18 32  1  0  0  0  0
 19 25  2  0  0  0  0
 19 34  1  0  0  0  0
 20 32  1  0  0  0  0
 20 33  2  0  0  0  0
 20 35  1  0  0  0  0
 21 23  2  0  0  0  0
 21 41  1  0  0  0  0
 22 24  2  0  0  0  0
 22 42  1  0  0  0  0
 23 50  1  0  0  0  0
 24 43  1  0  0  0  0
 25 70  1  0  0  0  0
 26 82  1  0  0  0  0
 27 83  1  0  0  0  0
 28 31  2  0  0  0  0
 28 82  1  0  0  0  0
 29 84  1  0  0  0  0
 30 85  1  0  0  0  0
 31 86  1  0  0  0  0
 32 64  2  0  0  0  0
 33 65  1  0  0  0  0
 33 68  1  0  0  0  0
 34 71  1  0  0  0  0
 34 74  2  0  0  0  0
 35 69  1  0  0  0  0
 35 76  2  0  0  0  0
 36 51  1  0  0  0  0
 36 72  1  0  0  0  0
 36 77  2  0  0  0  0
 37 61  1  0  0  0  0
 37 66  1  0  0  0  0
 37 78  2  0  0  0  0
 38 58  1  0  0  0  0
 38 71  1  0  0  0  0
 38 79  2  0  0  0  0
 39 62  1  0  0  0  0
 39 73  1  0  0  0  0
 39 80  2  0  0  0  0
 40 67  1  0  0  0  0
 40 70  1  0  0  0  0
 40 81  2  0  0  0  0
 41 44  1  0  0  0  0
 42 51  1  0  0  0  0
 43 66  1  0  0  0  0
 44 46  1  0  0  0  0
 45 47  1  0  0  0  0
 45 48  1  0  0  0  0
 46 50  1  0  0  0  0
 47 52  1  0  0  0  0
 48 67  1  0  0  0  0
 49 52  1  0  0  0  0
 49 67  1  0  0  0  0
 50 72  1  0  0  0  0
 51 66  1  0  0  0  0
 52 65  1  0  0  0  0
 53 62  1  0  0  0  0
 54 63  1  0  0  0  0
 55 63  1  0  0  0  0
 56 63  1  0  0  0  0
 57 75  1  0  0  0  0
 58 59  1  0  0  0  0
 59 60  1  0  0  0  0
 60 83  1  0  0  0  0
 61 63  1  0  0  0  0
 61 73  1  0  0  0  0
 62 75  1  0  0  0  0
 64 65  1  0  0  0  0
M  CHG  2  74   1  75   1
M  ISO  4  40 100  60 101  70 100  83 101
M  END
> <Batch ID>
0167

> <Smiles>
CNC(C)C(=O)NC(C(=O)N1Cc2cc([101O:1][101CH2:1]CCC(=O)NC(=N)c3ccc(F)cc3[100NH:0][100C:0](=O)N3CCCC(n4nc(-c5ccc(Oc6ccc(F)cc6F)cc5)c(C(N)=O)c4N)C3)ccc2CC1C(=O)NC1CCCc2ccccc21)C(C)(C)C

> <Shape>
0.235

> <Color>
0.064

> <Negative vol penalty>
0.000

$$$$

  -OEChem-04052304113D

 87 95  0     1  0  0  0  0  0999 V2000
  -17.0061  -25.9079   20.4149 C   0  0  0  0  0  0  0  0  0  0  0  0
  -18.1286  -25.1002   20.2632 C   0  0  0  0  0  0  0  0  0  0  0  0
  -29.7773  -23.9751   21.3267 C   0  0  0  0  0  0  0  0  0  0  0  0
  -27.4636  -23.3141   21.1102 C   0  0  0  0  0  0  0  0  0  0  0  0
  -17.0598  -27.0249   21.2477 C   0  0  0  0  0  0  0  0  0  0  0  0
  -19.3059  -25.4097   20.9433 C   0  0  0  0  0  0  0  0  0  0  0  0
  -21.4412  -21.3451   23.0796 C   0  0  0  0  0  0  0  0  0  0  0  0
  -26.4009  -11.5975   20.9167 C   0  0  0  0  0  0  0  0  0  0  0  0
  -29.3922  -25.3155   21.3496 C   0  0  0  0  0  0  0  0  0  0  0  0
  -27.0785  -24.6546   21.1331 C   0  0  0  0  0  0  0  0  0  0  0  0
  -22.1574  -20.4889   22.2442 C   0  0  0  0  0  0  0  0  0  0  0  0
  -27.0019  -27.2618   18.9820 C   0  0  0  0  0  0  0  0  0  0  0  0
  -25.1540  -10.9763   20.8459 C   0  0  0  0  0  0  0  0  0  0  0  0
  -26.0591  -27.6814   18.0435 C   0  0  0  0  0  0  0  0  0  0  0  0
  -24.2184  -21.5012   22.9836 C   0  0  0  0  0  0  0  0  0  0  0  0
  -24.1037  -13.1240   20.4975 C   0  0  0  0  0  0  0  0  0  0  0  0
  -24.5714  -28.3365   19.8309 C   0  0  0  0  0  0  0  0  0  0  0  0
  -28.8130  -22.9744   21.2069 C   0  0  0  0  0  0  0  0  0  0  0  0
  -29.3532  -20.7267   22.2858 C   0  0  0  0  0  0  0  0  0  0  0  0
  -18.2355  -27.3427   21.9459 C   0  0  0  0  0  0  0  0  0  0  0  0
  -22.1087  -22.2947   23.8665 C   0  0  0  0  0  0  0  0  0  0  0  0
  -19.3758  -26.5327   21.7851 C   0  0  0  0  0  0  0  0  0  0  0  0
  -23.5086  -22.3665   23.8301 C   0  0  0  0  0  0  0  0  0  0  0  0
  -26.4991  -12.9821   20.7780 C   0  0  0  0  0  0  0  0  0  0  0  0
  -25.3506  -13.7452   20.5684 C   0  0  0  0  0  0  0  0  0  0  0  0
  -28.0428  -25.6553   21.2529 C   0  0  0  0  0  0  0  0  0  0  0  0
  -23.5459  -20.5689   22.1939 C   0  0  0  0  0  0  0  0  0  0  0  0
  -26.7294  -27.3795   20.3449 C   0  0  0  0  0  0  0  0  0  0  0  0
  -24.0055  -11.7395   20.6362 C   0  0  0  0  0  0  0  0  0  0  0  0
  -24.8439  -28.2187   18.4679 C   0  0  0  0  0  0  0  0  0  0  0  0
  -25.5142  -27.9169   20.7694 C   0  0  0  0  0  0  0  0  0  0  0  0
  -29.2102  -21.5895   21.1827 C   0  0  0  0  0  0  0  0  0  0  0  0
  -29.7455  -19.5302   21.7372 C   0  0  0  0  0  0  0  0  0  0  0  0
  -29.1496  -20.9838   23.6815 C   0  0  0  0  0  0  0  0  0  0  0  0
  -22.1079  -25.4689   24.0339 C   0  0  0  0  0  0  0  0  0  0  0  0
  -24.7885  -17.4237   20.8936 C   0  0  0  0  0  0  0  0  0  0  0  0
  -24.0069  -24.9446   26.6109 C   0  0  0  0  0  0  0  0  0  0  0  0
  -28.5049  -13.7689   19.4769 C   0  0  0  0  0  0  0  0  0  0  0  0
  -26.1748  -22.8714   28.2385 C   0  0  0  0  0  0  0  0  0  0  0  0
  -29.2616  -15.5549   17.9225 C   0  0  0  0  0  0  0  0  0  0  0  0
  -18.2599  -28.5871   22.7977 C   0  0  0  0  0  0  0  0  0  0  0  0
  -21.3234  -23.1929   24.7824 C   0  0  0  0  0  0  0  0  0  0  0  0
  -24.2740  -23.3548   24.6702 C   0  0  0  0  0  0  0  0  0  0  0  0
  -19.4318  -28.6333   23.7748 C   0  0  0  0  0  0  0  0  0  0  0  0
  -31.2407  -18.3738   17.0355 C   0  0  0  0  0  0  0  0  0  0  0  0
  -20.7301  -28.2536   23.0698 C   0  0  0  0  0  0  0  0  0  0  0  0
  -30.9049  -19.3983   18.1236 C   0  0  0  0  0  0  0  0  0  0  0  0
  -30.0216  -17.5405   16.6405 C   0  0  0  0  0  0  0  0  0  0  0  0
  -28.9832  -17.9282   18.8415 C   0  0  0  0  0  0  0  0  0  0  0  0
  -20.6637  -26.8215   22.5253 C   0  0  1  0  0  0  0  0  0  0  0  0
  -22.0724  -24.4687   25.1546 C   0  0  1  0  0  0  0  0  0  0  0  0
  -30.1977  -18.7359   19.3229 C   0  0  2  0  0  0  0  0  0  0  0  0
  -28.7845  -12.8752   21.8275 C   0  0  0  0  0  0  0  0  0  0  0  0
  -27.5920  -22.7328   30.3048 C   0  0  0  0  0  0  0  0  0  0  0  0
  -26.0385  -26.8342   25.3414 C   0  0  0  0  0  0  0  0  0  0  0  0
  -27.7605  -25.9301   26.9180 C   0  0  0  0  0  0  0  0  0  0  0  0
  -25.7543  -27.1141   27.8102 C   0  0  0  0  0  0  0  0  0  0  0  0
  -24.7081  -20.4980   29.2256 C   0  0  0  0  0  0  0  0  0  0  0  0
  -24.3101  -16.0123   20.6264 C   0  0  0  0  0  0  0  0  0  0  0  0
  -23.6982  -18.4533   21.1182 C   0  0  0  0  0  0  0  0  0  1  0  0
  -27.8691  -13.6320   20.8623 C   0  0  2  0  0  0  0  0  0  0  0  0
  -25.4931  -24.7977   26.8316 C   0  0  1  0  0  0  0  0  0  0  0  0
  -26.2395  -22.4169   29.6854 C   0  0  2  0  0  0  0  0  0  0  0  0
  -26.2473  -26.1516   26.7079 C   0  0  0  0  0  0  0  0  0  0  0  0
  -29.4891  -20.9920   20.0211 N   0  0  0  0  0  0  0  0  0  0  0  0
  -29.8114  -19.7410   20.3913 N   0  0  0  0  0  0  0  0  0  0  0  0
  -23.4608  -24.2156   25.5451 N   0  0  0  0  0  0  0  0  0  0  0  0
  -29.4053  -16.9500   17.8287 N   0  0  0  0  0  0  0  0  0  0  0  0
  -30.0372  -18.3289   22.2796 N   0  0  0  0  0  0  0  0  0  0  0  0
  -28.7469  -22.2680   24.0726 N   0  0  0  0  0  0  0  0  0  0  0  0
  -25.4308  -15.1478   20.4270 N   0  0  0  0  0  0  0  0  0  0  0  0
  -20.8594  -25.8651   23.5937 N   0  0  0  0  0  0  0  0  0  0  0  0
  -28.7059  -15.1074   19.1256 N   0  0  0  0  0  0  0  0  0  0  0  0
  -25.6508  -24.1418   28.1252 N   0  0  0  0  0  0  0  0  0  0  0  0
  -26.0124  -20.9468   29.7772 N   0  3  0  0  0  0  0  0  0  0  0  0
  -29.3357  -20.1054   24.5575 O   0  0  0  0  0  0  0  0  0  0  0  0
  -23.1880  -25.8538   23.6016 O   0  0  0  0  0  0  0  0  0  0  0  0
  -25.9804  -17.7268   20.9284 O   0  0  0  0  0  0  0  0  0  0  0  0
  -23.3533  -25.6737   27.3612 O   0  0  0  0  0  0  0  0  0  0  0  0
  -28.7906  -12.8033   18.7731 O   0  0  0  0  0  0  0  0  0  0  0  0
  -26.5548  -22.1712   27.3027 O   0  0  0  0  0  0  0  0  0  0  0  0
  -29.6339  -14.7768   17.0397 O   0  0  0  0  0  0  0  0  0  0  0  0
  -27.6667  -26.9632   21.2754 O   0  0  0  0  0  0  0  0  0  0  0  0
  -24.2546  -19.7262   21.3704 O   0  0  0  0  0  0  0  0  0  1  0  0
  -22.8081  -11.1428   20.5678 F   0  0  0  0  0  0  0  0  0  0  0  0
  -23.9393  -28.6231   17.5666 F   0  0  0  0  0  0  0  0  0  0  0  0
  -25.2472  -28.0335   22.0774 F   0  0  0  0  0  0  0  0  0  0  0  0
  1  2  1  0  0  0  0
  1  5  2  0  0  0  0
  2  6  2  0  0  0  0
  3  9  2  0  0  0  0
  3 18  1  0  0  0  0
  4 10  1  0  0  0  0
  4 18  2  0  0  0  0
  5 20  1  0  0  0  0
  6 22  1  0  0  0  0
  7 11  2  0  0  0  0
  7 21  1  0  0  0  0
  8 13  2  0  0  0  0
  8 24  1  0  0  0  0
  9 26  1  0  0  0  0
 10 26  2  0  0  0  0
 11 27  1  0  0  0  0
 12 14  2  0  0  0  0
 12 28  1  0  0  0  0
 13 29  1  0  0  0  0
 14 30  1  0  0  0  0
 15 23  1  0  0  0  0
 15 27  2  0  0  0  0
 16 25  1  0  0  0  0
 16 29  2  0  0  0  0
 17 30  2  0  0  0  0
 17 31  1  0  0  0  0
 18 32  1  0  0  0  0
 19 32  1  0  0  0  0
 19 33  2  0  0  0  0
 19 34  1  0  0  0  0
 20 22  2  0  0  0  0
 20 41  1  0  0  0  0
 21 23  2  0  0  0  0
 21 42  1  0  0  0  0
 22 50  1  0  0  0  0
 23 43  1  0  0  0  0
 24 25  2  0  0  0  0
 24 61  1  0  0  0  0
 25 71  1  0  0  0  0
 26 83  1  0  0  0  0
 27 84  1  0  0  0  0
 28 31  2  0  0  0  0
 28 83  1  0  0  0  0
 29 85  1  0  0  0  0
 30 86  1  0  0  0  0
 31 87  1  0  0  0  0
 32 65  2  0  0  0  0
 33 66  1  0  0  0  0
 33 69  1  0  0  0  0
 34 70  1  0  0  0  0
 34 76  2  0  0  0  0
 35 51  1  0  0  0  0
 35 72  1  0  0  0  0
 35 77  2  0  0  0  0
 36 59  1  0  0  0  0
 36 60  1  0  0  0  0
 36 78  2  0  0  0  0
 37 62  1  0  0  0  0
 37 67  1  0  0  0  0
 37 79  2  0  0  0  0
 38 61  1  0  0  0  0
 38 73  1  0  0  0  0
 38 80  2  0  0  0  0
 39 63  1  0  0  0  0
 39 74  1  0  0  0  0
 39 81  2  0  0  0  0
 40 68  1  0  0  0  0
 40 73  1  0  0  0  0
 40 82  2  0  0  0  0
 41 44  1  0  0  0  0
 42 51  1  0  0  0  0
 43 67  1  0  0  0  0
 44 46  1  0  0  0  0
 45 47  1  0  0  0  0
 45 48  1  0  0  0  0
 46 50  1  0  0  0  0
 47 52  1  0  0  0  0
 48 68  1  0  0  0  0
 49 52  1  0  0  0  0
 49 68  1  0  0  0  0
 50 72  1  0  0  0  0
 51 67  1  0  0  0  0
 52 66  1  0  0  0  0
 53 61  1  0  0  0  0
 54 63  1  0  0  0  0
 55 64  1  0  0  0  0
 56 64  1  0  0  0  0
 57 64  1  0  0  0  0
 58 75  1  0  0  0  0
 59 71  1  0  0  0  0
 60 84  1  0  0  0  0
 62 64  1  0  0  0  0
 62 74  1  0  0  0  0
 63 75  1  0  0  0  0
 65 66  1  0  0  0  0
M  CHG  1  75   1
M  ISO  4  40 100  60 101  73 100  84 101
M  END
> <Batch ID>
0167

> <Smiles>
CNC(C)C(=O)NC(C(=O)N1Cc2cc([101O:1][101CH2:1]C(=O)CNc3cc(F)ccc3C(C)C(=O)[100NH:0][100C:0](=O)N3CCCC(n4nc(-c5ccc(Oc6ccc(F)cc6F)cc5)c(C(N)=O)c4N)C3)ccc2CC1C(=O)NC1CCCc2ccccc21)C(C)(C)C

> <Shape>
0.213

> <Color>
0.078

> <Negative vol penalty>
0.000

$$$$

  -OEChem-04052304113D

 88 96  0     1  0  0  0  0  0999 V2000
  -17.1619  -32.0570   21.4335 C   0  0  0  0  0  0  0  0  0  0  0  0
  -18.4430  -32.3109   20.9541 C   0  0  0  0  0  0  0  0  0  0  0  0
  -25.8444  -12.7100   19.5213 C   0  0  0  0  0  0  0  0  0  0  0  0
  -24.7958  -14.2694   21.0398 C   0  0  0  0  0  0  0  0  0  0  0  0
  -16.9822  -31.2020   22.5200 C   0  0  0  0  0  0  0  0  0  0  0  0
  -19.5452  -31.7105   21.5616 C   0  0  0  0  0  0  0  0  0  0  0  0
  -26.0510  -29.1346   20.0267 C   0  0  0  0  0  0  0  0  0  0  0  0
  -25.4736  -11.6523   20.3515 C   0  0  0  0  0  0  0  0  0  0  0  0
  -24.4249  -13.2116   21.8700 C   0  0  0  0  0  0  0  0  0  0  0  0
  -27.3787  -29.2485   20.4365 C   0  0  0  0  0  0  0  0  0  0  0  0
  -22.6869   -9.8478   20.9928 C   0  0  0  0  0  0  0  0  0  0  0  0
  -22.1400   -8.7137   20.3925 C   0  0  0  0  0  0  0  0  0  0  0  0
  -26.9412  -27.7270   22.2566 C   0  0  0  0  0  0  0  0  0  0  0  0
  -26.2805  -23.1617   17.3580 C   0  0  0  0  0  0  0  0  0  0  0  0
  -28.3955  -23.8885   18.2720 C   0  0  0  0  0  0  0  0  0  0  0  0
  -23.9396   -7.3725   21.2868 C   0  0  0  0  0  0  0  0  0  0  0  0
  -25.5056  -14.0187   19.8655 C   0  0  0  0  0  0  0  0  0  0  0  0
  -25.1493  -15.6546   17.9409 C   0  0  0  0  0  0  0  0  0  0  0  0
  -18.0820  -30.5833   23.1351 C   0  0  0  0  0  0  0  0  0  0  0  0
  -25.1542  -28.3232   20.7364 C   0  0  0  0  0  0  0  0  0  0  0  0
  -19.3802  -30.8474   22.6582 C   0  0  0  0  0  0  0  0  0  0  0  0
  -25.6033  -27.6025   21.8522 C   0  0  0  0  0  0  0  0  0  0  0  0
  -25.8283  -24.4812   17.3550 C   0  0  0  0  0  0  0  0  0  0  0  0
  -27.5641  -22.8653   17.8166 C   0  0  0  0  0  0  0  0  0  0  0  0
  -27.9433  -25.2081   18.2689 C   0  0  0  0  0  0  0  0  0  0  0  0
  -24.7638  -11.9030   21.5258 C   0  0  0  0  0  0  0  0  0  0  0  0
  -27.8233  -28.5469   21.5533 C   0  0  0  0  0  0  0  0  0  0  0  0
  -23.8603   -9.7443   21.7400 C   0  0  0  0  0  0  0  0  0  0  0  0
  -22.7663   -7.4761   20.5396 C   0  0  0  0  0  0  0  0  0  0  0  0
  -24.4866   -8.5067   21.8870 C   0  0  0  0  0  0  0  0  0  0  0  0
  -26.6597  -25.5044   17.8104 C   0  0  0  0  0  0  0  0  0  0  0  0
  -25.8888  -15.1118   19.0087 C   0  0  0  0  0  0  0  0  0  0  0  0
  -25.9419  -16.6645   17.4526 C   0  0  0  0  0  0  0  0  0  0  0  0
  -23.8610  -15.2796   17.4356 C   0  0  0  0  0  0  0  0  0  0  0  0
  -30.6557  -27.4335   19.6105 C   0  0  0  0  0  0  0  0  0  0  0  0
  -30.0728  -26.1120   19.2122 C   0  0  0  0  0  0  0  0  0  0  0  0
  -22.4611  -28.8316   22.3465 C   0  0  0  0  0  0  0  0  0  0  0  0
  -22.4213  -25.5935   22.5358 C   0  0  0  0  0  0  0  0  0  0  0  0
  -23.9980  -22.3784   22.9764 C   0  0  0  0  0  0  0  0  0  0  0  0
  -29.2685  -21.0594   18.2409 C   0  0  0  0  0  0  0  0  0  0  0  0
  -17.8419  -29.7038   24.3366 C   0  0  0  0  0  0  0  0  0  0  0  0
  -23.7318  -28.1902   20.2657 C   0  0  0  0  0  0  0  0  0  0  0  0
  -24.6854  -26.7021   22.6366 C   0  0  0  0  0  0  0  0  0  0  0  0
  -19.0314  -28.8137   24.6873 C   0  0  0  0  0  0  0  0  0  0  0  0
  -30.7663  -17.8355   18.4404 C   0  0  0  0  0  0  0  0  0  0  0  0
  -20.3256  -29.6209   24.6701 C   0  0  0  0  0  0  0  0  0  0  0  0
  -29.5701  -16.8842   18.5182 C   0  0  0  0  0  0  0  0  0  0  0  0
  -30.5092  -19.1336   19.2036 C   0  0  0  0  0  0  0  0  0  0  0  0
  -28.0754  -18.8830   18.9154 C   0  0  0  0  0  0  0  0  0  0  0  0
  -20.5988  -30.1957   23.2749 C   0  0  1  0  0  0  0  0  0  0  0  0
  -22.7779  -27.7373   21.3668 C   0  0  1  0  0  0  0  0  0  0  0  0
  -28.2622  -17.5885   18.1071 C   0  0  2  0  0  0  0  0  0  0  0  0
  -24.3660  -24.7740   15.3394 C   0  0  0  0  0  0  0  0  0  0  0  0
  -23.0359  -20.0626   22.8804 C   0  0  0  0  0  0  0  0  0  0  0  0
  -30.3540  -27.2146   23.4161 C   0  0  0  0  0  0  0  0  0  0  0  0
  -22.1384  -25.8986   25.5585 C   0  0  0  0  0  0  0  0  0  0  0  0
  -22.7923  -23.4932   25.7924 C   0  0  0  0  0  0  0  0  0  0  0  0
  -20.7153  -24.1044   24.5534 C   0  0  0  0  0  0  0  0  0  0  0  0
  -25.9480  -21.5283   20.9188 C   0  0  0  0  0  0  0  0  0  0  0  0
  -24.4553  -24.7943   16.8630 C   0  0  0  0  0  0  0  0  0  0  0  0
  -31.0847  -27.6235   21.0428 C   0  0  0  0  0  0  0  0  0  0  0  0
  -22.9675  -24.5724   23.5043 C   0  0  1  0  0  0  0  0  0  0  0  0
  -23.7932  -21.1410   22.1212 C   0  0  2  0  0  0  0  0  0  0  0  0
  -29.8934  -27.4589   21.9854 C   0  0  2  0  0  0  0  0  0  1  0  0
  -22.1704  -24.5356   24.8387 C   0  0  0  0  0  0  0  0  0  0  0  0
  -27.0613  -15.7259   19.1886 N   0  0  0  0  0  0  0  0  0  0  0  0
  -30.7895  -28.3326   18.6941 N   0  0  0  0  0  0  0  0  0  0  0  0
  -27.0645  -16.6649   18.2272 N   0  0  0  0  0  0  0  0  0  0  0  0
  -23.3023  -26.6101   22.1406 N   0  0  0  0  0  0  0  0  0  0  0  0
  -29.2560  -19.7469   18.7584 N   0  0  0  0  0  0  0  0  0  0  0  0
  -25.7813  -17.5432   16.4404 N   0  0  0  0  0  0  0  0  0  0  0  0
  -23.1832  -14.2202   18.0542 N   0  0  0  0  0  0  0  0  0  0  0  0
  -28.7880  -26.2436   18.7314 N   0  0  0  0  0  0  0  0  0  0  0  0
  -28.0234  -21.5249   17.8193 N   0  0  0  0  0  0  0  0  0  0  0  0
  -21.1222  -29.1694   22.3990 N   0  0  0  0  0  0  0  0  0  0  0  0
  -22.9918  -23.3020   22.7874 N   0  0  0  0  0  0  0  0  0  0  0  0
  -25.1076  -20.5816   21.6964 N   0  3  0  0  0  0  0  0  0  0  0  0
  -23.3340  -15.8558   16.4539 O   0  0  0  0  0  0  0  0  0  0  0  0
  -30.7873  -25.1326   19.3456 O   0  0  0  0  0  0  0  0  0  0  0  0
  -23.3642  -29.3314   23.0070 O   0  0  0  0  0  0  0  0  0  0  0  0
  -21.2580  -25.4888   22.1389 O   0  0  0  0  0  0  0  0  0  0  0  0
  -24.9529  -22.5106   23.7388 O   0  0  0  0  0  0  0  0  0  0  0  0
  -30.3118  -21.7117   18.1511 O   0  0  0  0  0  0  0  0  0  0  0  0
  -24.4016  -10.8710   22.3359 O   0  0  0  0  0  0  0  0  0  0  0  0
  -29.1186  -28.6568   21.9558 O   0  0  0  0  0  0  0  0  0  1  0  0
  -22.2401   -6.3868   19.9644 F   0  0  0  0  0  0  0  0  0  0  0  0
  -25.6133   -8.4008   22.6047 F   0  0  0  0  0  0  0  0  0  0  0  0
  -26.2224  -26.7727   17.8071 F   0  0  0  0  0  0  0  0  0  0  0  0
  1  2  1  0  0  0  0
  1  5  2  0  0  0  0
  2  6  2  0  0  0  0
  3  8  2  0  0  0  0
  3 17  1  0  0  0  0
  4  9  1  0  0  0  0
  4 17  2  0  0  0  0
  5 19  1  0  0  0  0
  6 21  1  0  0  0  0
  7 10  2  0  0  0  0
  7 20  1  0  0  0  0
  8 26  1  0  0  0  0
  9 26  2  0  0  0  0
 10 27  1  0  0  0  0
 11 12  2  0  0  0  0
 11 28  1  0  0  0  0
 12 29  1  0  0  0  0
 13 22  1  0  0  0  0
 13 27  2  0  0  0  0
 14 23  1  0  0  0  0
 14 24  2  0  0  0  0
 15 24  1  0  0  0  0
 15 25  2  0  0  0  0
 16 29  2  0  0  0  0
 16 30  1  0  0  0  0
 17 32  1  0  0  0  0
 18 32  1  0  0  0  0
 18 33  2  0  0  0  0
 18 34  1  0  0  0  0
 19 21  2  0  0  0  0
 19 41  1  0  0  0  0
 20 22  2  0  0  0  0
 20 42  1  0  0  0  0
 21 50  1  0  0  0  0
 22 43  1  0  0  0  0
 23 31  2  0  0  0  0
 23 60  1  0  0  0  0
 24 74  1  0  0  0  0
 25 31  1  0  0  0  0
 25 73  1  0  0  0  0
 26 84  1  0  0  0  0
 27 85  1  0  0  0  0
 28 30  2  0  0  0  0
 28 84  1  0  0  0  0
 29 86  1  0  0  0  0
 30 87  1  0  0  0  0
 31 88  1  0  0  0  0
 32 66  2  0  0  0  0
 33 68  1  0  0  0  0
 33 71  1  0  0  0  0
 34 72  1  0  0  0  0
 34 78  2  0  0  0  0
 35 36  1  0  0  0  0
 35 61  1  0  0  0  0
 35 67  2  0  0  0  0
 36 73  1  0  0  0  0
 36 79  2  0  0  0  0
 37 51  1  0  0  0  0
 37 75  1  0  0  0  0
 37 80  2  0  0  0  0
 38 62  1  0  0  0  0
 38 69  1  0  0  0  0
 38 81  2  0  0  0  0
 39 63  1  0  0  0  0
 39 76  1  0  0  0  0
 39 82  2  0  0  0  0
 40 70  1  0  0  0  0
 40 74  1  0  0  0  0
 40 83  2  0  0  0  0
 41 44  1  0  0  0  0
 42 51  1  0  0  0  0
 43 69  1  0  0  0  0
 44 46  1  0  0  0  0
 45 47  1  0  0  0  0
 45 48  1  0  0  0  0
 46 50  1  0  0  0  0
 47 52  1  0  0  0  0
 48 70  1  0  0  0  0
 49 52  1  0  0  0  0
 49 70  1  0  0  0  0
 50 75  1  0  0  0  0
 51 69  1  0  0  0  0
 52 68  1  0  0  0  0
 53 60  1  0  0  0  0
 54 63  1  0  0  0  0
 55 64  1  0  0  0  0
 56 65  1  0  0  0  0
 57 65  1  0  0  0  0
 58 65  1  0  0  0  0
 59 77  1  0  0  0  0
 61 64  1  0  0  0  0
 62 65  1  0  0  0  0
 62 76  1  0  0  0  0
 63 77  1  0  0  0  0
 64 85  1  0  0  0  0
 66 68  1  0  0  0  0
M  CHG  1  77   1
M  ISO  4  40 100  64 101  74 100  85 101
M  END
> <Batch ID>
0167

> <Smiles>
CCc1cc([100NH:0][100C:0](=O)N2CCCC(n3nc(-c4ccc(Oc5ccc(F)cc5F)cc4)c(C(N)=O)c3N)C2)cc(NC(=O)C(=N)C[101CH:1](C)[101O:1]c2ccc3c(c2)CN(C(=O)C(NC(=O)C(C)NC)C(C)(C)C)C(C(=O)NC2CCCc4ccccc42)C3)c1F

> <Shape>
0.219

> <Color>
0.083

> <Negative vol penalty>
0.000

$$$$

  -OEChem-04052304113D

 85 93  0     1  0  0  0  0  0999 V2000
  -27.3459  -35.9020   19.1906 C   0  0  0  0  0  0  0  0  0  0  0  0
  -27.7193  -34.6242   19.5945 C   0  0  0  0  0  0  0  0  0  0  0  0
  -23.7561   -8.8735   20.1963 C   0  0  0  0  0  0  0  0  0  0  0  0
  -22.8997  -10.8655   21.2618 C   0  0  0  0  0  0  0  0  0  0  0  0
  -26.1601  -36.4626   19.6635 C   0  0  0  0  0  0  0  0  0  0  0  0
  -26.9077  -33.9066   20.4724 C   0  0  0  0  0  0  0  0  0  0  0  0
  -26.2925  -29.0858   19.0488 C   0  0  0  0  0  0  0  0  0  0  0  0
  -22.8672   -8.0949   20.9374 C   0  0  0  0  0  0  0  0  0  0  0  0
  -22.0106  -10.0870   22.0028 C   0  0  0  0  0  0  0  0  0  0  0  0
  -27.3416  -28.2057   19.3107 C   0  0  0  0  0  0  0  0  0  0  0  0
  -22.6551   -6.8652   24.0786 C   0  0  0  0  0  0  0  0  0  0  0  0
  -23.1503   -5.7031   24.6700 C   0  0  0  0  0  0  0  0  0  0  0  0
  -26.1673  -27.3943   21.2554 C   0  0  0  0  0  0  0  0  0  0  0  0
  -28.0413  -18.3640   17.7165 C   0  0  0  0  0  0  0  0  0  0  0  0
  -21.5686   -4.3856   23.4053 C   0  0  0  0  0  0  0  0  0  0  0  0
  -29.9333  -18.5624   19.1440 C   0  0  0  0  0  0  0  0  0  0  0  0
  -23.7724  -10.2588   20.3586 C   0  0  0  0  0  0  0  0  0  0  0  0
  -24.4654  -11.6425   18.3306 C   0  0  0  0  0  0  0  0  0  0  0  0
  -25.3287  -35.7477   20.5401 C   0  0  0  0  0  0  0  0  0  0  0  0
  -25.1760  -29.1345   19.8958 C   0  0  0  0  0  0  0  0  0  0  0  0
  -25.7104  -34.4587   20.9585 C   0  0  0  0  0  0  0  0  0  0  0  0
  -25.1042  -28.2740   21.0006 C   0  0  0  0  0  0  0  0  0  0  0  0
  -28.9859  -17.7551   18.5352 C   0  0  0  0  0  0  0  0  0  0  0  0
  -21.9944   -8.7016   21.8406 C   0  0  0  0  0  0  0  0  0  0  0  0
  -27.2805  -27.3618   20.4158 C   0  0  0  0  0  0  0  0  0  0  0  0
  -21.6166   -6.7876   23.1505 C   0  0  0  0  0  0  0  0  0  0  0  0
  -22.6070   -4.4633   24.3334 C   0  0  0  0  0  0  0  0  0  0  0  0
  -28.0725  -19.7421   17.5342 C   0  0  0  0  0  0  0  0  0  0  0  0
  -21.0734   -5.5478   22.8139 C   0  0  0  0  0  0  0  0  0  0  0  0
  -24.6909  -11.0636   19.5938 C   0  0  0  0  0  0  0  0  0  0  0  0
  -29.0606  -20.4604   18.1880 C   0  0  0  0  0  0  0  0  0  0  0  0
  -25.6352  -12.3014   18.0410 C   0  0  0  0  0  0  0  0  0  0  0  0
  -23.3024  -11.5896   17.4937 C   0  0  0  0  0  0  0  0  0  0  0  0
  -29.1445  -21.9357   18.0337 C   0  0  0  0  0  0  0  0  0  0  0  0
  -23.8572  -31.3598   21.7431 C   0  0  0  0  0  0  0  0  0  0  0  0
  -29.5770  -24.6247   19.8250 C   0  0  0  0  0  0  0  0  0  0  0  0
  -21.5486  -29.1144   22.1317 C   0  0  0  0  0  0  0  0  0  0  0  0
  -20.6743  -25.8163   22.0647 C   0  0  0  0  0  0  0  0  0  0  0  0
  -29.8583  -15.6111   19.5293 C   0  0  0  0  0  0  0  0  0  0  0  0
  -24.0802  -36.4138   21.0617 C   0  0  0  0  0  0  0  0  0  0  0  0
  -24.0406  -30.0706   19.5843 C   0  0  0  0  0  0  0  0  0  0  0  0
  -23.9185  -28.2730   21.9293 C   0  0  0  0  0  0  0  0  0  0  0  0
  -23.0895  -35.4402   21.6948 C   0  0  0  0  0  0  0  0  0  0  0  0
  -30.1511  -12.1525   20.3228 C   0  0  0  0  0  0  0  0  0  0  0  0
  -23.8100  -34.4858   22.6418 C   0  0  0  0  0  0  0  0  0  0  0  0
  -28.7381  -11.6085   20.0999 C   0  0  0  0  0  0  0  0  0  0  0  0
  -30.1299  -13.5627   20.9097 C   0  0  0  0  0  0  0  0  0  0  0  0
  -27.9051  -13.9892   19.9416 C   0  0  0  0  0  0  0  0  0  0  0  0
  -24.8442  -33.6390   21.8902 C   0  0  1  0  0  0  0  0  0  0  0  0
  -23.1849  -30.3986   20.8040 C   0  0  1  0  0  0  0  0  0  0  0  0
  -27.8750  -12.5965   19.2911 C   0  0  2  0  0  0  0  0  0  0  0  0
  -18.7259  -24.2863   22.4653 C   0  0  0  0  0  0  0  0  0  0  0  0
  -21.9202  -29.4336   25.1434 C   0  0  0  0  0  0  0  0  0  0  0  0
  -20.6899  -27.2753   25.4536 C   0  0  0  0  0  0  0  0  0  0  0  0
  -19.5409  -29.2239   24.4023 C   0  0  0  0  0  0  0  0  0  0  0  0
  -20.7103  -24.8485   19.2681 C   0  0  0  0  0  0  0  0  0  0  0  0
  -30.3660  -23.9900   18.6997 C   0  0  0  0  0  0  0  0  0  0  0  0
  -29.0423  -26.0167   19.5540 C   0  0  0  0  0  0  0  0  0  1  0  0
  -21.3135  -27.9790   23.0984 C   0  0  1  0  0  0  0  0  0  0  0  0
  -19.4934  -25.0998   21.4348 C   0  0  2  0  0  0  0  0  0  0  0  0
  -20.8895  -28.4791   24.5082 C   0  0  0  0  0  0  0  0  0  0  0  0
  -29.9952  -19.9041   18.9910 N   0  0  0  0  0  0  0  0  0  0  0  0
  -25.9084  -11.3310   20.0736 N   0  0  0  0  0  0  0  0  0  0  0  0
  -26.4584  -12.0852   19.1068 N   0  0  0  0  0  0  0  0  0  0  0  0
  -22.8366  -29.2107   21.5861 N   0  0  0  0  0  0  0  0  0  0  0  0
  -29.2966  -14.4440   20.0888 N   0  0  0  0  0  0  0  0  0  0  0  0
  -26.0298  -13.0387   16.9813 N   0  0  0  0  0  0  0  0  0  0  0  0
  -22.1878  -10.8688   17.9436 N   0  0  0  0  0  0  0  0  0  0  0  0
  -28.9794  -16.3532   18.7411 N   0  0  0  0  0  0  0  0  0  0  0  0
  -30.1703  -22.5711   18.7289 N   0  0  0  0  0  0  0  0  0  0  0  0
  -24.1915  -32.5698   21.1656 N   0  0  0  0  0  0  0  0  0  0  0  0
  -20.3436  -27.0948   22.4614 N   0  0  0  0  0  0  0  0  0  0  0  0
  -19.9598  -24.1779   20.3608 N   0  3  0  0  0  0  0  0  0  0  0  0
  -23.2590  -12.1507   16.3727 O   0  0  0  0  0  0  0  0  0  0  0  0
  -28.3155  -22.5141   17.3360 O   0  0  0  0  0  0  0  0  0  0  0  0
  -24.0565  -31.0287   22.9060 O   0  0  0  0  0  0  0  0  0  0  0  0
  -29.4220  -24.0711   20.9132 O   0  0  0  0  0  0  0  0  0  0  0  0
  -20.6216  -29.8832   21.8649 O   0  0  0  0  0  0  0  0  0  0  0  0
  -21.7785  -25.2927   22.1954 O   0  0  0  0  0  0  0  0  0  0  0  0
  -31.0401  -15.9144   19.7120 O   0  0  0  0  0  0  0  0  0  0  0  0
  -21.1267   -7.9422   22.5637 O   0  0  0  0  0  0  0  0  0  0  0  0
  -28.3034  -26.5023   20.6741 O   0  0  0  0  0  0  0  0  0  1  0  0
  -23.0837   -3.3472   24.9002 F   0  0  0  0  0  0  0  0  0  0  0  0
  -27.1709  -20.3457   16.7499 F   0  0  0  0  0  0  0  0  0  0  0  0
  -20.0764   -5.4667   21.9221 F   0  0  0  0  0  0  0  0  0  0  0  0
  1  2  1  0  0  0  0
  1  5  2  0  0  0  0
  2  6  2  0  0  0  0
  3  8  2  0  0  0  0
  3 17  1  0  0  0  0
  4  9  1  0  0  0  0
  4 17  2  0  0  0  0
  5 19  1  0  0  0  0
  6 21  1  0  0  0  0
  7 10  2  0  0  0  0
  7 20  1  0  0  0  0
  8 24  1  0  0  0  0
  9 24  2  0  0  0  0
 10 25  1  0  0  0  0
 11 12  2  0  0  0  0
 11 26  1  0  0  0  0
 12 27  1  0  0  0  0
 13 22  1  0  0  0  0
 13 25  2  0  0  0  0
 14 23  2  0  0  0  0
 14 28  1  0  0  0  0
 15 27  2  0  0  0  0
 15 29  1  0  0  0  0
 16 23  1  0  0  0  0
 16 62  2  0  0  0  0
 17 30  1  0  0  0  0
 18 30  1  0  0  0  0
 18 32  2  0  0  0  0
 18 33  1  0  0  0  0
 19 21  2  0  0  0  0
 19 40  1  0  0  0  0
 20 22  2  0  0  0  0
 20 41  1  0  0  0  0
 21 49  1  0  0  0  0
 22 42  1  0  0  0  0
 23 69  1  0  0  0  0
 24 81  1  0  0  0  0
 25 82  1  0  0  0  0
 26 29  2  0  0  0  0
 26 81  1  0  0  0  0
 27 83  1  0  0  0  0
 28 31  2  0  0  0  0
 28 84  1  0  0  0  0
 29 85  1  0  0  0  0
 30 63  2  0  0  0  0
 31 34  1  0  0  0  0
 31 62  1  0  0  0  0
 32 64  1  0  0  0  0
 32 67  1  0  0  0  0
 33 68  1  0  0  0  0
 33 74  2  0  0  0  0
 34 70  1  0  0  0  0
 34 75  2  0  0  0  0
 35 50  1  0  0  0  0
 35 71  1  0  0  0  0
 35 76  2  0  0  0  0
 36 57  1  0  0  0  0
 36 58  1  0  0  0  0
 36 77  2  0  0  0  0
 37 59  1  0  0  0  0
 37 65  1  0  0  0  0
 37 78  2  0  0  0  0
 38 60  1  0  0  0  0
 38 72  1  0  0  0  0
 38 79  2  0  0  0  0
 39 66  1  0  0  0  0
 39 69  1  0  0  0  0
 39 80  2  0  0  0  0
 40 43  1  0  0  0  0
 41 50  1  0  0  0  0
 42 65  1  0  0  0  0
 43 45  1  0  0  0  0
 44 46  1  0  0  0  0
 44 47  1  0  0  0  0
 45 49  1  0  0  0  0
 46 51  1  0  0  0  0
 47 66  1  0  0  0  0
 48 51  1  0  0  0  0
 48 66  1  0  0  0  0
 49 71  1  0  0  0  0
 50 65  1  0  0  0  0
 51 64  1  0  0  0  0
 52 60  1  0  0  0  0
 53 61  1  0  0  0  0
 54 61  1  0  0  0  0
 55 61  1  0  0  0  0
 56 73  1  0  0  0  0
 57 70  1  0  0  0  0
 58 82  1  0  0  0  0
 59 61  1  0  0  0  0
 59 72  1  0  0  0  0
 60 73  1  0  0  0  0
 63 64  1  0  0  0  0
M  CHG  1  73   1
M  ISO  4  39 100  58 101  69 100  82 101
M  END
> <Batch ID>
0167

> <Smiles>
CNC(C)C(=O)NC(C(=O)N1Cc2cc([101O:1][101CH2:1]C(=O)CNC(=O)c3ncc([100NH:0][100C:0](=O)N4CCCC(n5nc(-c6ccc(Oc7ccc(F)cc7F)cc6)c(C(N)=O)c5N)C4)cc3F)ccc2CC1C(=O)NC1CCCc2ccccc21)C(C)(C)C

> <Shape>
0.298

> <Color>
0.101

> <Negative vol penalty>
0.000

$$$$

  -OEChem-04052304113D

 85 93  0     1  0  0  0  0  0999 V2000
  -25.7853  -37.8460   18.7336 C   0  0  0  0  0  0  0  0  0  0  0  0
  -26.5071  -36.6637   18.6045 C   0  0  0  0  0  0  0  0  0  0  0  0
  -23.9447   -9.3830   21.2713 C   0  0  0  0  0  0  0  0  0  0  0  0
  -24.6106  -10.3539   23.3811 C   0  0  0  0  0  0  0  0  0  0  0  0
  -24.9461  -38.0328   19.8312 C   0  0  0  0  0  0  0  0  0  0  0  0
  -26.3908  -35.6679   19.5737 C   0  0  0  0  0  0  0  0  0  0  0  0
  -26.5909  -29.6135   18.6736 C   0  0  0  0  0  0  0  0  0  0  0  0
  -23.5077   -8.2375   21.9364 C   0  0  0  0  0  0  0  0  0  0  0  0
  -24.1736   -9.2084   24.0462 C   0  0  0  0  0  0  0  0  0  0  0  0
  -27.6125  -28.6764   18.8217 C   0  0  0  0  0  0  0  0  0  0  0  0
  -20.8132   -7.2798   23.7407 C   0  0  0  0  0  0  0  0  0  0  0  0
  -19.5748   -6.7513   23.3764 C   0  0  0  0  0  0  0  0  0  0  0  0
  -26.7914  -28.1385   21.0253 C   0  0  0  0  0  0  0  0  0  0  0  0
  -20.6439   -4.6768   22.7515 C   0  0  0  0  0  0  0  0  0  0  0  0
  -28.3684  -19.1085   20.8566 C   0  0  0  0  0  0  0  0  0  0  0  0
  -24.4962  -10.4413   21.9937 C   0  0  0  0  0  0  0  0  0  0  0  0
  -24.1953  -12.7775   21.0144 C   0  0  0  0  0  0  0  0  0  0  0  0
  -24.8121  -37.0348   20.8093 C   0  0  0  0  0  0  0  0  0  0  0  0
  -25.6668  -29.8282   19.7063 C   0  0  0  0  0  0  0  0  0  0  0  0
  -25.5501  -35.8420   20.6861 C   0  0  0  0  0  0  0  0  0  0  0  0
  -25.7575  -29.0770   20.8868 C   0  0  0  0  0  0  0  0  0  0  0  0
  -23.6221   -8.1501   23.3238 C   0  0  0  0  0  0  0  0  0  0  0  0
  -27.7146  -27.9408   19.9988 C   0  0  0  0  0  0  0  0  0  0  0  0
  -21.9670   -6.5068   23.6103 C   0  0  0  0  0  0  0  0  0  0  0  0
  -19.4902   -5.4499   22.8818 C   0  0  0  0  0  0  0  0  0  0  0  0
  -21.8823   -5.2053   23.1158 C   0  0  0  0  0  0  0  0  0  0  0  0
  -24.9483  -11.6246   21.3071 C   0  0  0  0  0  0  0  0  0  0  0  0
  -30.5250  -20.2066   19.7296 C   0  0  0  0  0  0  0  0  0  0  0  0
  -29.3591  -18.3256   20.3061 C   0  0  0  0  0  0  0  0  0  0  0  0
  -29.5339  -20.9894   20.2795 C   0  0  0  0  0  0  0  0  0  0  0  0
  -25.0741  -13.6040   20.3577 C   0  0  0  0  0  0  0  0  0  0  0  0
  -28.3615  -25.7223   20.3598 C   0  0  0  0  0  0  0  0  0  1  0  0
  -22.8242  -13.0749   21.3098 C   0  0  0  0  0  0  0  0  0  0  0  0
  -29.2579  -24.7409   20.5183 C   0  0  0  0  0  0  0  0  0  0  0  0
  -28.7713  -23.3412   20.7466 C   0  0  0  0  0  0  0  0  0  0  0  0
  -24.8793  -32.3083   21.5319 C   0  0  0  0  0  0  0  0  0  0  0  0
  -22.5525  -30.3036   22.5756 C   0  0  0  0  0  0  0  0  0  0  0  0
  -21.4730  -27.0955   23.0115 C   0  0  0  0  0  0  0  0  0  0  0  0
  -30.0940  -15.9592   19.8516 C   0  0  0  0  0  0  0  0  0  0  0  0
  -23.9289  -37.3016   22.0024 C   0  0  0  0  0  0  0  0  0  0  0  0
  -24.5546  -30.8236   19.5204 C   0  0  0  0  0  0  0  0  0  0  0  0
  -24.7784  -29.2553   22.0174 C   0  0  0  0  0  0  0  0  0  0  0  0
  -23.5750  -36.0437   22.7916 C   0  0  0  0  0  0  0  0  0  0  0  0
  -29.6927  -12.6902   18.4989 C   0  0  0  0  0  0  0  0  0  0  0  0
  -24.8199  -35.1952   23.0301 C   0  0  0  0  0  0  0  0  0  0  0  0
  -28.3607  -12.2164   19.0848 C   0  0  0  0  0  0  0  0  0  0  0  0
  -30.4851  -13.5308   19.4986 C   0  0  0  0  0  0  0  0  0  0  0  0
  -28.4174  -14.1869   20.6662 C   0  0  0  0  0  0  0  0  0  0  0  0
  -25.4317  -34.7282   21.7037 C   0  0  1  0  0  0  0  0  0  0  0  0
  -23.9765  -31.3270   20.8394 C   0  0  1  0  0  0  0  0  0  0  0  0
  -27.5545  -13.3907   19.6737 C   0  0  2  0  0  0  0  0  0  0  0  0
  -31.4509  -21.3551   17.7022 C   0  0  0  0  0  0  0  0  0  0  0  0
  -19.5467  -25.7724   23.9260 C   0  0  0  0  0  0  0  0  0  0  0  0
  -23.5250  -30.8545   25.4147 C   0  0  0  0  0  0  0  0  0  0  0  0
  -22.2437  -28.8405   26.1698 C   0  0  0  0  0  0  0  0  0  0  0  0
  -21.0383  -30.7771   25.1604 C   0  0  0  0  0  0  0  0  0  0  0  0
  -20.9000  -25.8861   20.3719 C   0  0  0  0  0  0  0  0  0  0  0  0
  -31.7369  -20.8018   19.0958 C   0  0  0  0  0  0  0  0  0  0  0  0
  -22.4387  -29.2807   23.6800 C   0  0  1  0  0  0  0  0  0  0  0  0
  -20.1485  -26.4262   22.6918 C   0  0  2  0  0  0  0  0  0  0  0  0
  -22.3312  -29.9360   25.0859 C   0  0  0  0  0  0  0  0  0  0  0  0
  -28.4380  -20.4544   20.8532 N   0  0  0  0  0  0  0  0  0  0  0  0
  -26.2083  -11.7075   20.8719 N   0  0  0  0  0  0  0  0  0  0  0  0
  -30.4553  -18.8606   19.7327 N   0  0  0  0  0  0  0  0  0  0  0  0
  -26.2539  -12.9223   20.2990 N   0  0  0  0  0  0  0  0  0  0  0  0
  -23.7125  -30.2451   21.7902 N   0  0  0  0  0  0  0  0  0  0  0  0
  -29.6592  -14.6264   20.0108 N   0  0  0  0  0  0  0  0  0  0  0  0
  -24.9449  -14.8400   19.8305 N   0  0  0  0  0  0  0  0  0  0  0  0
  -22.0640  -12.1144   21.9909 N   0  0  0  0  0  0  0  0  0  0  0  0
  -29.6594  -22.3992   20.2457 N   0  0  0  0  0  0  0  0  0  0  0  0
  -29.2110  -16.9171   20.3490 N   0  0  0  0  0  0  0  0  0  0  0  0
  -24.6732  -33.6227   21.1588 N   0  0  0  0  0  0  0  0  0  0  0  0
  -21.3085  -28.4268   23.3307 N   0  0  0  0  0  0  0  0  0  0  0  0
  -20.3361  -25.3782   21.6490 N   0  3  0  0  0  0  0  0  0  0  0  0
  -22.2844  -14.1535   20.9651 O   0  0  0  0  0  0  0  0  0  0  0  0
  -27.7058  -23.1295   21.3155 O   0  0  0  0  0  0  0  0  0  0  0  0
  -25.7010  -31.9031   22.3458 O   0  0  0  0  0  0  0  0  0  0  0  0
  -21.6422  -31.1197   22.4111 O   0  0  0  0  0  0  0  0  0  0  0  0
  -22.5457  -26.4963   22.9847 O   0  0  0  0  0  0  0  0  0  0  0  0
  -31.1576  -16.2321   19.2892 O   0  0  0  0  0  0  0  0  0  0  0  0
  -30.6190  -24.9655   20.4786 O   0  0  0  0  0  0  0  0  0  0  0  0
  -23.1956   -7.0326   23.9732 O   0  0  0  0  0  0  0  0  0  0  0  0
  -28.7113  -27.0260   20.1463 O   0  0  0  0  0  0  0  0  0  1  0  0
  -18.3007   -4.9420   22.5335 F   0  0  0  0  0  0  0  0  0  0  0  0
  -22.9871   -4.4574   22.9894 F   0  0  0  0  0  0  0  0  0  0  0  0
  1  2  1  0  0  0  0
  1  5  2  0  0  0  0
  2  6  2  0  0  0  0
  3  8  2  0  0  0  0
  3 16  1  0  0  0  0
  4  9  1  0  0  0  0
  4 16  2  0  0  0  0
  5 18  1  0  0  0  0
  6 20  1  0  0  0  0
  7 10  2  0  0  0  0
  7 19  1  0  0  0  0
  8 22  1  0  0  0  0
  9 22  2  0  0  0  0
 10 23  1  0  0  0  0
 11 12  2  0  0  0  0
 11 24  1  0  0  0  0
 12 25  1  0  0  0  0
 13 21  1  0  0  0  0
 13 23  2  0  0  0  0
 14 25  2  0  0  0  0
 14 26  1  0  0  0  0
 15 29  1  0  0  0  0
 15 62  2  0  0  0  0
 16 27  1  0  0  0  0
 17 27  1  0  0  0  0
 17 31  2  0  0  0  0
 17 33  1  0  0  0  0
 18 20  2  0  0  0  0
 18 40  1  0  0  0  0
 19 21  2  0  0  0  0
 19 41  1  0  0  0  0
 20 49  1  0  0  0  0
 21 42  1  0  0  0  0
 22 82  1  0  0  0  0
 23 83  1  0  0  0  0
 24 26  2  0  0  0  0
 24 82  1  0  0  0  0
 25 84  1  0  0  0  0
 26 85  1  0  0  0  0
 27 63  2  0  0  0  0
 28 30  2  0  0  0  0
 28 58  1  0  0  0  0
 28 64  1  0  0  0  0
 29 64  2  0  0  0  0
 29 71  1  0  0  0  0
 30 62  1  0  0  0  0
 30 70  1  0  0  0  0
 31 65  1  0  0  0  0
 31 68  1  0  0  0  0
 32 34  2  0  0  0  0
 32 83  1  0  0  0  0
 33 69  1  0  0  0  0
 33 75  2  0  0  0  0
 34 35  1  0  0  0  0
 34 81  1  0  0  0  0
 35 70  1  0  0  0  0
 35 76  2  0  0  0  0
 36 50  1  0  0  0  0
 36 72  1  0  0  0  0
 36 77  2  0  0  0  0
 37 59  1  0  0  0  0
 37 66  1  0  0  0  0
 37 78  2  0  0  0  0
 38 60  1  0  0  0  0
 38 73  1  0  0  0  0
 38 79  2  0  0  0  0
 39 67  1  0  0  0  0
 39 71  1  0  0  0  0
 39 80  2  0  0  0  0
 40 43  1  0  0  0  0
 41 50  1  0  0  0  0
 42 66  1  0  0  0  0
 43 45  1  0  0  0  0
 44 46  1  0  0  0  0
 44 47  1  0  0  0  0
 45 49  1  0  0  0  0
 46 51  1  0  0  0  0
 47 67  1  0  0  0  0
 48 51  1  0  0  0  0
 48 67  1  0  0  0  0
 49 72  1  0  0  0  0
 50 66  1  0  0  0  0
 51 65  1  0  0  0  0
 52 58  1  0  0  0  0
 53 60  1  0  0  0  0
 54 61  1  0  0  0  0
 55 61  1  0  0  0  0
 56 61  1  0  0  0  0
 57 74  1  0  0  0  0
 59 61  1  0  0  0  0
 59 73  1  0  0  0  0
 60 74  1  0  0  0  0
 63 65  1  0  0  0  0
M  CHG  1  74   1
M  ISO  4  32 101  39 100  71 100  83 101
M  END
> <Batch ID>
0167

> <Smiles>
CCc1nc([100NH:0][100C:0](=O)N2CCCC(n3nc(-c4ccc(Oc5ccc(F)cc5F)cc4)c(C(N)=O)c3N)C2)cnc1NC(=O)C(=O)[101CH2:1][101O:1]c1ccc2c(c1)CN(C(=O)C(NC(=O)C(C)NC)C(C)(C)C)C(C(=O)NC1CCCc3ccccc31)C2

> <Shape>
0.348

> <Color>
0.154

> <Negative vol penalty>
0.000

$$$$

  -OEChem-04052304113D

 90 98  0     1  0  0  0  0  0999 V2000
  -26.5960  -33.9551   27.2405 C   0  0  0  0  0  0  0  0  0  0  0  0
  -26.5843  -32.5665   27.3252 C   0  0  0  0  0  0  0  0  0  0  0  0
  -23.0989   -9.8271   21.0836 C   0  0  0  0  0  0  0  0  0  0  0  0
  -23.8150  -10.5943   23.2597 C   0  0  0  0  0  0  0  0  0  0  0  0
  -25.7145  -34.6073   26.3795 C   0  0  0  0  0  0  0  0  0  0  0  0
  -25.6902  -31.8294   26.5496 C   0  0  0  0  0  0  0  0  0  0  0  0
  -26.6594  -26.3258   24.0442 C   0  0  0  0  0  0  0  0  0  0  0  0
  -22.3529   -8.8142   21.6862 C   0  0  0  0  0  0  0  0  0  0  0  0
  -23.0690   -9.5815   23.8624 C   0  0  0  0  0  0  0  0  0  0  0  0
  -26.3040  -25.0380   24.4428 C   0  0  0  0  0  0  0  0  0  0  0  0
  -19.3793   -8.5149   23.2677 C   0  0  0  0  0  0  0  0  0  0  0  0
  -18.0820   -8.3008   22.8022 C   0  0  0  0  0  0  0  0  0  0  0  0
  -24.3583  -25.1412   23.0205 C   0  0  0  0  0  0  0  0  0  0  0  0
  -18.6710   -6.0356   22.2028 C   0  0  0  0  0  0  0  0  0  0  0  0
  -29.4291  -19.9071   22.5736 C   0  0  0  0  0  0  0  0  0  0  0  0
  -23.8300  -10.7171   21.8704 C   0  0  0  0  0  0  0  0  0  0  0  0
  -28.7075  -18.7645   20.7987 C   0  0  0  0  0  0  0  0  0  0  0  0
  -24.1687  -13.0650   20.9321 C   0  0  0  0  0  0  0  0  0  0  0  0
  -24.8157  -33.8773   25.5858 C   0  0  0  0  0  0  0  0  0  0  0  0
  -25.8598  -27.0364   23.1375 C   0  0  0  0  0  0  0  0  0  0  0  0
  -24.7948  -32.4725   25.6781 C   0  0  0  0  0  0  0  0  0  0  0  0
  -24.7072  -26.4369   22.6100 C   0  0  0  0  0  0  0  0  0  0  0  0
  -28.3921  -19.8319   21.6730 C   0  0  0  0  0  0  0  0  0  0  0  0
  -22.3379   -8.6914   23.0756 C   0  0  0  0  0  0  0  0  0  0  0  0
  -25.1518  -24.4466   23.9332 C   0  0  0  0  0  0  0  0  0  0  0  0
  -20.3225   -7.4894   23.2006 C   0  0  0  0  0  0  0  0  0  0  0  0
  -17.7278   -7.0611   22.2697 C   0  0  0  0  0  0  0  0  0  0  0  0
  -19.9683   -6.2497   22.6682 C   0  0  0  0  0  0  0  0  0  0  0  0
  -24.6013  -11.7633   21.2485 C   0  0  0  0  0  0  0  0  0  0  0  0
  -29.9148  -18.2637   21.2272 C   0  0  0  0  0  0  0  0  0  0  0  0
  -25.2659  -13.6623   20.3613 C   0  0  0  0  0  0  0  0  0  0  0  0
  -27.9588  -18.2675   19.6811 C   0  0  0  0  0  0  0  0  0  0  0  0
  -22.8893  -13.6794   21.1359 C   0  0  0  0  0  0  0  0  0  0  0  0
  -23.8479  -21.1931   23.4861 C   0  0  0  0  0  0  0  0  0  0  0  0
  -24.7039  -22.2237   23.3596 C   0  0  0  0  0  0  0  0  0  1  0  0
  -22.9562  -21.0901   24.6848 C   0  0  0  0  0  0  0  0  0  0  0  0
  -24.2052  -29.7480   23.2527 C   0  0  0  0  0  0  0  0  0  0  0  0
  -23.7653  -29.1587   20.0934 C   0  0  0  0  0  0  0  0  0  0  0  0
  -26.9636  -21.7169   22.5300 C   0  0  0  0  0  0  0  0  0  0  0  0
  -23.6603  -26.8752   17.5593 C   0  0  0  0  0  0  0  0  0  0  0  0
  -30.7429  -14.7321   20.2985 C   0  0  0  0  0  0  0  0  0  0  0  0
  -23.8494  -34.6288   24.7049 C   0  0  0  0  0  0  0  0  0  0  0  0
  -26.2713  -28.4145   22.6971 C   0  0  0  0  0  0  0  0  0  0  0  0
  -23.8256  -27.1497   21.6184 C   0  0  0  0  0  0  0  0  0  0  0  0
  -23.1906  -33.7558   23.6399 C   0  0  0  0  0  0  0  0  0  0  0  0
  -29.6560  -11.6858   18.8100 C   0  0  0  0  0  0  0  0  0  0  0  0
  -22.6943  -32.4498   24.2523 C   0  0  0  0  0  0  0  0  0  0  0  0
  -28.2112  -11.5389   19.2906 C   0  0  0  0  0  0  0  0  0  0  0  0
  -30.5497  -12.2970   19.8870 C   0  0  0  0  0  0  0  0  0  0  0  0
  -28.6203  -13.4277   20.9228 C   0  0  0  0  0  0  0  0  0  0  0  0
  -23.8567  -31.6367   24.8345 C   0  0  1  0  0  0  0  0  0  0  0  0
  -25.1075  -29.2433   22.1624 C   0  0  1  0  0  0  0  0  0  0  0  0
  -27.6691  -12.8673   19.8515 C   0  0  2  0  0  0  0  0  0  0  0  0
  -26.4537  -18.3910   19.7187 C   0  0  0  0  0  0  0  0  0  0  0  0
  -21.6220  -20.4123   24.5059 C   0  0  0  0  0  0  0  0  0  0  0  0
  -23.2393  -26.6880   15.0925 C   0  0  0  0  0  0  0  0  0  0  0  0
  -20.7674  -29.4414   20.5860 C   0  0  0  0  0  0  0  0  0  0  0  0
  -20.3704  -28.3315   18.3773 C   0  0  0  0  0  0  0  0  0  0  0  0
  -21.5832  -30.5090   18.4768 C   0  0  0  0  0  0  0  0  0  0  0  0
  -26.3881  -25.8441   17.0543 C   0  0  0  0  0  0  0  0  0  0  0  0
  -30.7805  -17.1703   20.7599 C   0  0  0  0  0  0  0  0  0  0  0  0
  -25.6415  -22.3903   22.1932 C   0  0  0  0  0  0  0  0  0  0  0  0
  -22.7395  -28.4085   19.2785 C   0  0  1  0  0  0  0  0  0  0  0  0
  -24.2886  -26.8745   16.1773 C   0  0  2  0  0  0  0  0  0  0  0  0
  -21.3805  -29.1597   19.1998 C   0  0  0  0  0  0  0  0  0  0  0  0
  -25.8741  -11.5457   20.9069 N   0  0  0  0  0  0  0  0  0  0  0  0
  -26.2506  -12.7187   20.3699 N   0  0  0  0  0  0  0  0  0  0  0  0
  -24.2669  -28.4976   21.2235 N   0  0  0  0  0  0  0  0  0  0  0  0
  -29.9801  -13.5551   20.3756 N   0  0  0  0  0  0  0  0  0  0  0  0
  -25.4748  -14.8974   19.8579 N   0  0  0  0  0  0  0  0  0  0  0  0
  -21.8731  -12.9234   21.7361 N   0  0  0  0  0  0  0  0  0  0  0  0
  -27.2540  -20.6736   21.6595 N   0  0  0  0  0  0  0  0  0  0  0  0
  -24.5853  -30.9684   23.7777 N   0  0  0  0  0  0  0  0  0  0  0  0
  -23.3566  -28.1522   17.9816 N   0  0  0  0  0  0  0  0  0  0  0  0
  -30.1258  -15.8812   20.7776 N   0  0  0  0  0  0  0  0  0  0  0  0
  -25.2850  -25.7723   16.0619 N   0  3  0  0  0  0  0  0  0  0  0  0
  -28.4385  -17.7300   18.6663 O   0  0  0  0  0  0  0  0  0  0  0  0
  -22.6494  -14.8584   20.7811 O   0  0  0  0  0  0  0  0  0  0  0  0
  -23.2849  -21.5556   25.7748 O   0  0  0  0  0  0  0  0  0  0  0  0
  -23.2351  -29.0804   23.5916 O   0  0  0  0  0  0  0  0  0  0  0  0
  -24.1141  -30.2867   19.7362 O   0  0  0  0  0  0  0  0  0  0  0  0
  -27.6330  -22.0997   23.4864 O   0  0  0  0  0  0  0  0  0  0  0  0
  -23.4558  -25.8456   18.1985 O   0  0  0  0  0  0  0  0  0  0  0  0
  -31.8869  -14.7580   19.8321 O   0  0  0  0  0  0  0  0  0  0  0  0
  -30.3615  -18.9547   22.3086 O   0  0  0  0  0  0  0  0  0  0  0  0
  -23.7809  -20.1977   22.5309 O   0  0  0  0  0  0  0  0  0  0  0  0
  -21.6099   -7.7033   23.6639 O   0  0  0  0  0  0  0  0  0  0  0  0
  -24.8022  -23.1899   24.3211 O   0  0  0  0  0  0  0  0  0  1  0  0
  -16.4815   -6.8552   21.8242 F   0  0  0  0  0  0  0  0  0  0  0  0
  -20.8698   -5.2604   22.6023 F   0  0  0  0  0  0  0  0  0  0  0  0
  1  2  1  0  0  0  0
  1  5  2  0  0  0  0
  2  6  2  0  0  0  0
  3  8  2  0  0  0  0
  3 16  1  0  0  0  0
  4  9  1  0  0  0  0
  4 16  2  0  0  0  0
  5 19  1  0  0  0  0
  6 21  1  0  0  0  0
  7 10  2  0  0  0  0
  7 20  1  0  0  0  0
  8 24  1  0  0  0  0
  9 24  2  0  0  0  0
 10 25  1  0  0  0  0
 11 12  2  0  0  0  0
 11 26  1  0  0  0  0
 12 27  1  0  0  0  0
 13 22  1  0  0  0  0
 13 25  2  0  0  0  0
 14 27  2  0  0  0  0
 14 28  1  0  0  0  0
 15 23  2  0  0  0  0
 15 85  1  0  0  0  0
 16 29  1  0  0  0  0
 17 23  1  0  0  0  0
 17 30  2  0  0  0  0
 17 32  1  0  0  0  0
 18 29  1  0  0  0  0
 18 31  2  0  0  0  0
 18 33  1  0  0  0  0
 19 21  2  0  0  0  0
 19 42  1  0  0  0  0
 20 22  2  0  0  0  0
 20 43  1  0  0  0  0
 21 51  1  0  0  0  0
 22 44  1  0  0  0  0
 23 72  1  0  0  0  0
 24 87  1  0  0  0  0
 25 88  1  0  0  0  0
 26 28  2  0  0  0  0
 26 87  1  0  0  0  0
 27 89  1  0  0  0  0
 28 90  1  0  0  0  0
 29 66  2  0  0  0  0
 30 61  1  0  0  0  0
 30 85  1  0  0  0  0
 31 67  1  0  0  0  0
 31 70  1  0  0  0  0
 32 54  1  0  0  0  0
 32 77  2  0  0  0  0
 33 71  1  0  0  0  0
 33 78  2  0  0  0  0
 34 35  2  0  0  0  0
 34 36  1  0  0  0  0
 34 86  1  0  0  0  0
 35 62  1  0  0  0  0
 35 88  1  0  0  0  0
 36 55  1  0  0  0  0
 36 79  2  0  0  0  0
 37 52  1  0  0  0  0
 37 73  1  0  0  0  0
 37 80  2  0  0  0  0
 38 63  1  0  0  0  0
 38 68  1  0  0  0  0
 38 81  2  0  0  0  0
 39 62  1  0  0  0  0
 39 72  1  0  0  0  0
 39 82  2  0  0  0  0
 40 64  1  0  0  0  0
 40 74  1  0  0  0  0
 40 83  2  0  0  0  0
 41 69  1  0  0  0  0
 41 75  1  0  0  0  0
 41 84  2  0  0  0  0
 42 45  1  0  0  0  0
 43 52  1  0  0  0  0
 44 68  1  0  0  0  0
 45 47  1  0  0  0  0
 46 48  1  0  0  0  0
 46 49  1  0  0  0  0
 47 51  1  0  0  0  0
 48 53  1  0  0  0  0
 49 69  1  0  0  0  0
 50 53  1  0  0  0  0
 50 69  1  0  0  0  0
 51 73  1  0  0  0  0
 52 68  1  0  0  0  0
 53 67  1  0  0  0  0
 56 64  1  0  0  0  0
 57 65  1  0  0  0  0
 58 65  1  0  0  0  0
 59 65  1  0  0  0  0
 60 76  1  0  0  0  0
 61 75  1  0  0  0  0
 63 65  1  0  0  0  0
 63 74  1  0  0  0  0
 64 76  1  0  0  0  0
 66 67  1  0  0  0  0
M  CHG  1  76   1
M  ISO  4  35 101  41 100  75 100  88 101
M  END
> <Batch ID>
0167

> <Smiles>
CNC(C)C(=O)NC(C(=O)N1Cc2cc([101O:1][101CH:1](CC(=O)Nc3coc(C[100NH:0][100C:0](=O)N4CCCC(n5nc(-c6ccc(Oc7ccc(F)cc7F)cc6)c(C(N)=O)c5N)C4)c3C(C)=O)C(=O)C(C)=O)ccc2CC1C(=O)NC1CCCc2ccccc21)C(C)(C)C

> <Shape>
0.247

> <Color>
0.149

> <Negative vol penalty>
0.000

$$$$

  -OEChem-04052304113D

 85 93  0     1  0  0  0  0  0999 V2000
  -29.5542  -24.3432   17.7288 C   0  0  0  0  0  0  0  0  0  0  0  0
  -28.4093  -25.1091   17.5408 C   0  0  0  0  0  0  0  0  0  0  0  0
  -25.7641  -15.2977   19.4992 C   0  0  0  0  0  0  0  0  0  0  0  0
  -23.8317  -15.0110   20.9207 C   0  0  0  0  0  0  0  0  0  0  0  0
  -30.1106  -24.2289   19.0010 C   0  0  0  0  0  0  0  0  0  0  0  0
  -27.8272  -25.7708   18.6226 C   0  0  0  0  0  0  0  0  0  0  0  0
  -22.7073  -29.0563   18.9675 C   0  0  0  0  0  0  0  0  0  0  0  0
  -26.1479  -13.9814   19.7554 C   0  0  0  0  0  0  0  0  0  0  0  0
  -24.2154  -13.6946   21.1769 C   0  0  0  0  0  0  0  0  0  0  0  0
  -21.3630  -28.8386   19.2659 C   0  0  0  0  0  0  0  0  0  0  0  0
  -24.4916  -10.1462   21.9186 C   0  0  0  0  0  0  0  0  0  0  0  0
  -23.5061   -9.1605   21.8652 C   0  0  0  0  0  0  0  0  0  0  0  0
  -21.7581  -29.5495   21.5369 C   0  0  0  0  0  0  0  0  0  0  0  0
  -21.4362  -23.6697   24.7044 C   0  0  0  0  0  0  0  0  0  0  0  0
  -19.1962  -23.3122   25.5357 C   0  0  0  0  0  0  0  0  0  0  0  0
  -20.6051  -21.4217   25.0088 C   0  0  0  0  0  0  0  0  0  0  0  0
  -23.0742   -9.7175   19.5543 C   0  0  0  0  0  0  0  0  0  0  0  0
  -24.6060  -15.8125   20.0819 C   0  0  0  0  0  0  0  0  0  0  0  0
  -23.3768  -17.6286   18.7786 C   0  0  0  0  0  0  0  0  0  0  0  0
  -29.5272  -24.8797   20.1007 C   0  0  0  0  0  0  0  0  0  0  0  0
  -23.5910  -29.5127   19.9561 C   0  0  0  0  0  0  0  0  0  0  0  0
  -28.3876  -25.6872   19.9101 C   0  0  0  0  0  0  0  0  0  0  0  0
  -23.1126  -29.7747   21.2479 C   0  0  0  0  0  0  0  0  0  0  0  0
  -20.2199  -24.1807   25.1571 C   0  0  0  0  0  0  0  0  0  0  0  0
  -21.6288  -22.2902   24.6302 C   0  0  0  0  0  0  0  0  0  0  0  0
  -25.3735  -13.1798   20.5942 C   0  0  0  0  0  0  0  0  0  0  0  0
  -20.8888  -29.0824   20.5515 C   0  0  0  0  0  0  0  0  0  0  0  0
  -24.7684  -10.9176   20.7899 C   0  0  0  0  0  0  0  0  0  0  0  0
  -22.7975   -8.9461   20.6831 C   0  0  0  0  0  0  0  0  0  0  0  0
  -19.3888  -21.9327   25.4616 C   0  0  0  0  0  0  0  0  0  0  0  0
  -24.0597  -10.7032   19.6077 C   0  0  0  0  0  0  0  0  0  0  0  0
  -24.2094  -17.1723   19.8181 C   0  0  0  0  0  0  0  0  0  0  0  0
  -23.3102  -18.9879   18.9636 C   0  0  0  0  0  0  0  0  0  0  0  0
  -22.7222  -16.8897   17.7388 C   0  0  0  0  0  0  0  0  0  0  0  0
  -26.2105  -28.3518   21.3324 C   0  0  0  0  0  0  0  0  0  0  0  0
  -26.3023  -31.2781   22.7291 C   0  0  0  0  0  0  0  0  0  0  0  0
  -19.6743  -26.5768   22.9435 C   0  0  0  0  0  0  0  0  0  0  0  0
  -24.6073  -34.0682   23.7238 C   0  0  0  0  0  0  0  0  0  0  0  0
  -23.9827  -22.4934   23.7558 C   0  0  0  0  0  0  0  0  0  0  0  0
  -30.1754  -24.7282   21.4543 C   0  0  0  0  0  0  0  0  0  0  0  0
  -25.0326  -29.7682   19.6112 C   0  0  0  0  0  0  0  0  0  0  0  0
  -24.0161  -30.2848   22.3397 C   0  0  0  0  0  0  0  0  0  0  0  0
  -29.2437  -25.0968   22.6042 C   0  0  0  0  0  0  0  0  0  0  0  0
  -25.8377  -22.6564   20.7211 C   0  0  0  0  0  0  0  0  0  0  0  0
  -28.5953  -26.4466   22.3355 C   0  0  0  0  0  0  0  0  0  0  0  0
  -25.5500  -21.3125   20.0477 C   0  0  0  0  0  0  0  0  0  0  0  0
  -25.9503  -22.5179   22.2383 C   0  0  0  0  0  0  0  0  0  0  0  0
  -24.5260  -20.5079   22.2135 C   0  0  0  0  0  0  0  0  0  0  0  0
  -27.7195  -26.3911   21.0774 C   0  0  1  0  0  0  0  0  0  0  0  0
  -25.9516  -29.7435   20.8287 C   0  0  1  0  0  0  0  0  0  0  0  0
  -24.3395  -20.6076   20.6907 C   0  0  2  0  0  0  0  0  0  0  0  0
  -24.9456  -36.2740   24.8715 C   0  0  0  0  0  0  0  0  0  0  0  0
  -17.9665  -27.5787   19.6294 C   0  0  0  0  0  0  0  0  0  0  0  0
  -26.4632  -29.8502   25.4208 C   0  0  0  0  0  0  0  0  0  0  0  0
  -25.8450  -32.0104   26.5251 C   0  0  0  0  0  0  0  0  0  0  0  0
  -27.9565  -31.8449   25.2072 C   0  0  0  0  0  0  0  0  0  0  0  0
  -23.7167  -35.5772   21.3387 C   0  0  0  0  0  0  0  0  0  0  0  0
  -20.0122  -25.6655   25.2377 C   0  0  0  0  0  0  0  0  0  0  0  0
  -18.5600  -27.0365   22.0147 C   0  0  0  0  0  0  0  0  0  0  0  0
  -25.7381  -31.8768   23.9949 C   0  0  1  0  0  0  0  0  0  0  0  0
  -24.9018  -35.5457   23.5372 C   0  0  2  0  0  0  0  0  0  0  0  0
  -19.0784  -27.5446   20.6696 C   0  0  2  0  0  0  0  0  0  1  0  0
  -26.4839  -31.3841   25.2671 C   0  0  0  0  0  0  0  0  0  0  0  0
  -24.6408  -18.1616   20.6050 N   0  0  0  0  0  0  0  0  0  0  0  0
  -24.0773  -19.2530   20.0597 N   0  0  0  0  0  0  0  0  0  0  0  0
  -25.4187  -30.5130   21.9548 N   0  0  0  0  0  0  0  0  0  0  0  0
  -24.7666  -21.8452   22.7779 N   0  0  0  0  0  0  0  0  0  0  0  0
  -22.6709  -19.9704   18.2939 N   0  0  0  0  0  0  0  0  0  0  0  0
  -22.8971  -15.4998   17.6951 N   0  0  0  0  0  0  0  0  0  0  0  0
  -22.8643  -21.7708   24.1701 N   0  0  0  0  0  0  0  0  0  0  0  0
  -27.2933  -27.7312   20.7394 N   0  0  0  0  0  0  0  0  0  0  0  0
  -19.1738  -26.1532   24.1665 N   0  0  0  0  0  0  0  0  0  0  0  0
  -25.7647  -33.3236   23.8093 N   0  0  0  0  0  0  0  0  0  0  0  0
  -23.8528  -36.1799   22.6897 N   0  3  0  0  0  0  0  0  0  0  0  0
  -22.0166  -17.4475   16.8644 O   0  0  0  0  0  0  0  0  0  0  0  0
  -25.4826  -27.8768   22.1963 O   0  0  0  0  0  0  0  0  0  0  0  0
  -27.4817  -31.4877   22.4345 O   0  0  0  0  0  0  0  0  0  0  0  0
  -20.8614  -26.5887   22.6301 O   0  0  0  0  0  0  0  0  0  0  0  0
  -23.4649  -33.6199   23.7909 O   0  0  0  0  0  0  0  0  0  0  0  0
  -24.2664  -23.6190   24.1736 O   0  0  0  0  0  0  0  0  0  0  0  0
  -25.7476  -11.8953   20.8443 O   0  0  0  0  0  0  0  0  0  0  0  0
  -19.5772  -28.8700   20.8455 O   0  0  0  0  0  0  0  0  0  1  0  0
  -21.8522   -7.9985   20.6315 F   0  0  0  0  0  0  0  0  0  0  0  0
  -18.4057  -21.0988   25.8253 F   0  0  0  0  0  0  0  0  0  0  0  0
  -24.3219  -11.4404   18.5198 F   0  0  0  0  0  0  0  0  0  0  0  0
  1  2  1  0  0  0  0
  1  5  2  0  0  0  0
  2  6  2  0  0  0  0
  3  8  2  0  0  0  0
  3 18  1  0  0  0  0
  4  9  1  0  0  0  0
  4 18  2  0  0  0  0
  5 20  1  0  0  0  0
  6 22  1  0  0  0  0
  7 10  2  0  0  0  0
  7 21  1  0  0  0  0
  8 26  1  0  0  0  0
  9 26  2  0  0  0  0
 10 27  1  0  0  0  0
 11 12  2  0  0  0  0
 11 28  1  0  0  0  0
 12 29  1  0  0  0  0
 13 23  1  0  0  0  0
 13 27  2  0  0  0  0
 14 24  2  0  0  0  0
 14 25  1  0  0  0  0
 15 24  1  0  0  0  0
 15 30  2  0  0  0  0
 16 25  2  0  0  0  0
 16 30  1  0  0  0  0
 17 29  2  0  0  0  0
 17 31  1  0  0  0  0
 18 32  1  0  0  0  0
 19 32  1  0  0  0  0
 19 33  2  0  0  0  0
 19 34  1  0  0  0  0
 20 22  2  0  0  0  0
 20 40  1  0  0  0  0
 21 23  2  0  0  0  0
 21 41  1  0  0  0  0
 22 49  1  0  0  0  0
 23 42  1  0  0  0  0
 24 58  1  0  0  0  0
 25 70  1  0  0  0  0
 26 81  1  0  0  0  0
 27 82  1  0  0  0  0
 28 31  2  0  0  0  0
 28 81  1  0  0  0  0
 29 83  1  0  0  0  0
 30 84  1  0  0  0  0
 31 85  1  0  0  0  0
 32 64  2  0  0  0  0
 33 65  1  0  0  0  0
 33 68  1  0  0  0  0
 34 69  1  0  0  0  0
 34 75  2  0  0  0  0
 35 50  1  0  0  0  0
 35 71  1  0  0  0  0
 35 76  2  0  0  0  0
 36 60  1  0  0  0  0
 36 66  1  0  0  0  0
 36 77  2  0  0  0  0
 37 59  1  0  0  0  0
 37 72  1  0  0  0  0
 37 78  2  0  0  0  0
 38 61  1  0  0  0  0
 38 73  1  0  0  0  0
 38 79  2  0  0  0  0
 39 67  1  0  0  0  0
 39 70  1  0  0  0  0
 39 80  2  0  0  0  0
 40 43  1  0  0  0  0
 41 50  1  0  0  0  0
 42 66  1  0  0  0  0
 43 45  1  0  0  0  0
 44 46  1  0  0  0  0
 44 47  1  0  0  0  0
 45 49  1  0  0  0  0
 46 51  1  0  0  0  0
 47 67  1  0  0  0  0
 48 51  1  0  0  0  0
 48 67  1  0  0  0  0
 49 71  1  0  0  0  0
 50 66  1  0  0  0  0
 51 65  1  0  0  0  0
 52 61  1  0  0  0  0
 53 62  1  0  0  0  0
 54 63  1  0  0  0  0
 55 63  1  0  0  0  0
 56 63  1  0  0  0  0
 57 74  1  0  0  0  0
 58 72  1  0  0  0  0
 59 62  1  0  0  0  0
 60 63  1  0  0  0  0
 60 73  1  0  0  0  0
 61 74  1  0  0  0  0
 62 82  1  0  0  0  0
 64 65  1  0  0  0  0
M  CHG  1  74   1
M  ISO  4  39 100  62 101  70 100  82 101
M  END
> <Batch ID>
0167

> <Smiles>
CNC(C)C(=O)NC(C(=O)N1Cc2cc([101O:1][101CH:1](C)CC(=O)NCc3cc(F)cc([100NH:0][100C:0](=O)N4CCCC(n5nc(-c6ccc(Oc7ccc(F)cc7F)cc6)c(C(N)=O)c5N)C4)c3)ccc2CC1C(=O)NC1CCCc2ccccc21)C(C)(C)C

> <Shape>
0.272

> <Color>
0.073

> <Negative vol penalty>
0.000

$$$$

  -OEChem-04052304113D

 85 93  0     1  0  0  0  0  0999 V2000
  -30.4447  -24.7125   17.9679 C   0  0  0  0  0  0  0  0  0  0  0  0
  -29.0630  -24.6580   18.1207 C   0  0  0  0  0  0  0  0  0  0  0  0
  -24.9138  -13.3412   19.4315 C   0  0  0  0  0  0  0  0  0  0  0  0
  -25.2236  -13.1915   21.8229 C   0  0  0  0  0  0  0  0  0  0  0  0
  -31.2260  -25.3568   18.9262 C   0  0  0  0  0  0  0  0  0  0  0  0
  -28.4618  -25.2469   19.2326 C   0  0  0  0  0  0  0  0  0  0  0  0
  -23.0052  -28.0203   19.4305 C   0  0  0  0  0  0  0  0  0  0  0  0
  -25.1578  -11.9729   19.3142 C   0  0  0  0  0  0  0  0  0  0  0  0
  -25.4676  -11.8232   21.7056 C   0  0  0  0  0  0  0  0  0  0  0  0
  -21.7462  -27.5850   19.8419 C   0  0  0  0  0  0  0  0  0  0  0  0
  -25.8165   -8.2235   22.0782 C   0  0  0  0  0  0  0  0  0  0  0  0
  -25.1908   -7.3720   22.9887 C   0  0  0  0  0  0  0  0  0  0  0  0
  -22.1218  -28.5692   22.0120 C   0  0  0  0  0  0  0  0  0  0  0  0
  -23.0318   -8.1421   22.2252 C   0  0  0  0  0  0  0  0  0  0  0  0
  -22.0158  -23.9241   24.1328 C   0  0  0  0  0  0  0  0  0  0  0  0
  -24.9467  -13.9505   20.6859 C   0  0  0  0  0  0  0  0  0  0  0  0
  -23.6596  -23.7951   22.6303 C   0  0  0  0  0  0  0  0  0  0  0  0
  -23.4515  -15.9921   21.0082 C   0  0  0  0  0  0  0  0  0  0  0  0
  -30.6332  -25.9623   20.0455 C   0  0  0  0  0  0  0  0  0  0  0  0
  -23.8378  -28.7249   20.3118 C   0  0  0  0  0  0  0  0  0  0  0  0
  -29.2360  -25.8988   20.2075 C   0  0  0  0  0  0  0  0  0  0  0  0
  -23.3898  -29.0144   21.6086 C   0  0  0  0  0  0  0  0  0  0  0  0
  -22.3125  -24.1877   22.8158 C   0  0  0  0  0  0  0  0  0  0  0  0
  -25.4347  -11.2139   20.4513 C   0  0  0  0  0  0  0  0  0  0  0  0
  -21.3054  -27.8569   21.1337 C   0  0  0  0  0  0  0  0  0  0  0  0
  -25.0499   -9.0344   21.2412 C   0  0  0  0  0  0  0  0  0  0  0  0
  -23.7985   -7.3313   23.0622 C   0  0  0  0  0  0  0  0  0  0  0  0
  -23.6576   -8.9936   21.3147 C   0  0  0  0  0  0  0  0  0  0  0  0
  -24.6953  -15.3641   20.8076 C   0  0  0  0  0  0  0  0  0  0  0  0
  -24.0901  -23.3200   23.8472 C   0  0  0  0  0  0  0  0  0  0  0  0
  -23.7472  -17.3326   21.0547 C   0  0  0  0  0  0  0  0  0  0  0  0
  -24.4593  -23.8588   21.4410 C   0  0  0  0  0  0  0  0  0  0  0  0
  -22.1456  -15.4153   21.1408 C   0  0  0  0  0  0  0  0  0  0  0  0
  -26.7031  -28.2083   21.5871 C   0  0  0  0  0  0  0  0  0  0  0  0
  -26.3080  -31.2194   22.7270 C   0  0  0  0  0  0  0  0  0  0  0  0
  -24.1661  -33.7262   23.6072 C   0  0  0  0  0  0  0  0  0  0  0  0
  -26.9351  -21.5543   22.8321 C   0  0  0  0  0  0  0  0  0  0  0  0
  -31.5232  -26.6062   21.0789 C   0  0  0  0  0  0  0  0  0  0  0  0
  -25.1823  -29.2107   19.8441 C   0  0  0  0  0  0  0  0  0  0  0  0
  -24.2372  -29.7851   22.5866 C   0  0  0  0  0  0  0  0  0  0  0  0
  -30.7749  -27.5300   22.0366 C   0  0  0  0  0  0  0  0  0  0  0  0
  -28.0138  -19.8038   19.9254 C   0  0  0  0  0  0  0  0  0  0  0  0
  -29.5034  -26.8568   22.5433 C   0  0  0  0  0  0  0  0  0  0  0  0
  -27.1487  -18.5423   19.9161 C   0  0  0  0  0  0  0  0  0  0  0  0
  -28.3960  -20.2156   21.3454 C   0  0  0  0  0  0  0  0  0  0  0  0
  -26.3942  -19.1089   22.2631 C   0  0  0  0  0  0  0  0  0  0  0  0
  -28.5448  -26.5472   21.3872 C   0  0  1  0  0  0  0  0  0  0  0  0
  -26.1545  -29.4733   20.9901 C   0  0  1  0  0  0  0  0  0  0  0  0
  -25.9370  -18.6863   20.8564 C   0  0  2  0  0  0  0  0  0  0  0  0
  -24.6596  -23.1274   18.9841 C   0  0  0  0  0  0  0  0  0  0  0  0
  -24.1370  -36.0551   24.5414 C   0  0  0  0  0  0  0  0  0  0  0  0
  -18.7415  -26.8186   23.4108 C   0  0  0  0  0  0  0  0  0  0  0  0
  -26.8880  -30.1081   25.5088 C   0  0  0  0  0  0  0  0  0  0  0  0
  -25.9282  -32.2101   26.4725 C   0  0  0  0  0  0  0  0  0  0  0  0
  -27.9564  -32.3168   25.0241 C   0  0  0  0  0  0  0  0  0  0  0  0
  -22.8723  -34.8099   21.1760 C   0  0  0  0  0  0  0  0  0  0  0  0
  -25.3680  -22.7692   24.3246 C   0  0  0  0  0  0  0  0  0  0  0  0
  -23.7732  -23.7302   20.0628 C   0  0  0  0  0  0  0  0  0  0  0  0
  -20.0850  -25.0993   22.1579 C   0  0  0  0  0  0  0  0  0  0  0  0
  -25.7098  -31.8197   23.9763 C   0  0  1  0  0  0  0  0  0  0  0  0
  -24.1606  -35.2082   23.2785 C   0  0  2  0  0  0  0  0  0  0  0  0
  -20.0319  -26.5429   22.6527 C   0  0  1  0  0  0  0  0  0  1  0  0
  -26.6052  -31.5974   25.2279 C   0  0  0  0  0  0  0  0  0  0  0  0
  -25.7059  -16.2341   20.7316 N   0  0  0  0  0  0  0  0  0  0  0  0
  -25.0975  -17.4225   20.8853 N   0  0  0  0  0  0  0  0  0  0  0  0
  -25.5465  -30.2331   22.0842 N   0  0  0  0  0  0  0  0  0  0  0  0
  -27.2019  -20.3363   22.1854 N   0  0  0  0  0  0  0  0  0  0  0  0
  -22.9813  -18.4313   21.2234 N   0  0  0  0  0  0  0  0  0  0  0  0
  -22.0204  -14.0212   21.0690 N   0  0  0  0  0  0  0  0  0  0  0  0
  -21.4527  -24.7280   21.8742 N   0  0  0  0  0  0  0  0  0  0  0  0
  -27.8507  -27.7469   20.9709 N   0  0  0  0  0  0  0  0  0  0  0  0
  -25.4478  -33.2219   23.6704 N   0  0  0  0  0  0  0  0  0  0  0  0
  -25.7799  -21.5854   23.6036 N   0  0  0  0  0  0  0  0  0  0  0  0
  -22.9642  -35.5526   22.4592 N   0  3  0  0  0  0  0  0  0  0  0  0
  -25.7032  -24.0143   21.4467 O   0  0  0  0  0  0  0  0  0  0  0  0
  -21.1179  -16.1165   21.3013 O   0  0  0  0  0  0  0  0  0  0  0  0
  -26.1287  -27.6900   22.5374 O   0  0  0  0  0  0  0  0  0  0  0  0
  -27.4071  -31.6162   22.3319 O   0  0  0  0  0  0  0  0  0  0  0  0
  -23.1365  -33.0813   23.7932 O   0  0  0  0  0  0  0  0  0  0  0  0
  -27.6691  -22.5427   22.7254 O   0  0  0  0  0  0  0  0  0  0  0  0
  -23.0940  -23.3952   24.7685 O   0  0  0  0  0  0  0  0  0  0  0  0
  -25.6726   -9.8786   20.3372 O   0  0  0  0  0  0  0  0  0  0  0  0
  -20.0773  -27.4327   21.5380 O   0  0  0  0  0  0  0  0  0  1  0  0
  -23.1977   -6.5125   23.9356 F   0  0  0  0  0  0  0  0  0  0  0  0
  -22.9158   -9.7694   20.5123 F   0  0  0  0  0  0  0  0  0  0  0  0
  1  2  1  0  0  0  0
  1  5  2  0  0  0  0
  2  6  2  0  0  0  0
  3  8  2  0  0  0  0
  3 16  1  0  0  0  0
  4  9  1  0  0  0  0
  4 16  2  0  0  0  0
  5 19  1  0  0  0  0
  6 21  1  0  0  0  0
  7 10  2  0  0  0  0
  7 20  1  0  0  0  0
  8 24  1  0  0  0  0
  9 24  2  0  0  0  0
 10 25  1  0  0  0  0
 11 12  2  0  0  0  0
 11 26  1  0  0  0  0
 12 27  1  0  0  0  0
 13 22  1  0  0  0  0
 13 25  2  0  0  0  0
 14 27  2  0  0  0  0
 14 28  1  0  0  0  0
 15 23  2  0  0  0  0
 15 81  1  0  0  0  0
 16 29  1  0  0  0  0
 17 23  1  0  0  0  0
 17 30  2  0  0  0  0
 17 32  1  0  0  0  0
 18 29  1  0  0  0  0
 18 31  2  0  0  0  0
 18 33  1  0  0  0  0
 19 21  2  0  0  0  0
 19 38  1  0  0  0  0
 20 22  2  0  0  0  0
 20 39  1  0  0  0  0
 21 47  1  0  0  0  0
 22 40  1  0  0  0  0
 23 70  1  0  0  0  0
 24 82  1  0  0  0  0
 25 83  1  0  0  0  0
 26 28  2  0  0  0  0
 26 82  1  0  0  0  0
 27 84  1  0  0  0  0
 28 85  1  0  0  0  0
 29 64  2  0  0  0  0
 30 57  1  0  0  0  0
 30 81  1  0  0  0  0
 31 65  1  0  0  0  0
 31 68  1  0  0  0  0
 32 58  1  0  0  0  0
 32 75  2  0  0  0  0
 33 69  1  0  0  0  0
 33 76  2  0  0  0  0
 34 48  1  0  0  0  0
 34 71  1  0  0  0  0
 34 77  2  0  0  0  0
 35 60  1  0  0  0  0
 35 66  1  0  0  0  0
 35 78  2  0  0  0  0
 36 61  1  0  0  0  0
 36 72  1  0  0  0  0
 36 79  2  0  0  0  0
 37 67  1  0  0  0  0
 37 73  1  0  0  0  0
 37 80  2  0  0  0  0
 38 41  1  0  0  0  0
 39 48  1  0  0  0  0
 40 66  1  0  0  0  0
 41 43  1  0  0  0  0
 42 44  1  0  0  0  0
 42 45  1  0  0  0  0
 43 47  1  0  0  0  0
 44 49  1  0  0  0  0
 45 67  1  0  0  0  0
 46 49  1  0  0  0  0
 46 67  1  0  0  0  0
 47 71  1  0  0  0  0
 48 66  1  0  0  0  0
 49 65  1  0  0  0  0
 50 58  1  0  0  0  0
 51 61  1  0  0  0  0
 52 62  1  0  0  0  0
 53 63  1  0  0  0  0
 54 63  1  0  0  0  0
 55 63  1  0  0  0  0
 56 74  1  0  0  0  0
 57 73  1  0  0  0  0
 59 62  1  0  0  0  0
 59 70  1  0  0  0  0
 60 63  1  0  0  0  0
 60 72  1  0  0  0  0
 61 74  1  0  0  0  0
 62 83  1  0  0  0  0
 64 65  1  0  0  0  0
M  CHG  1  74   1
M  ISO  4  37 100  62 101  73 100  83 101
M  END
> <Batch ID>
0167

> <Smiles>
CCC(=O)c1c(NC[101CH:1](C)[101O:1]c2ccc3c(c2)CN(C(=O)C(NC(=O)C(C)NC)C(C)(C)C)C(C(=O)NC2CCCc4ccccc42)C3)coc1C[100NH:0][100C:0](=O)N1CCCC(n2nc(-c3ccc(Oc4ccc(F)cc4F)cc3)c(C(N)=O)c2N)C1

> <Shape>
0.289

> <Color>
0.069

> <Negative vol penalty>
0.000

$$$$

  -OEChem-04052304113D

 84 92  0     1  0  0  0  0  0999 V2000
  -26.4494  -18.7105   18.6062 C   0  0  0  0  0  0  0  0  0  0  0  0
  -25.6667  -19.8413   18.8159 C   0  0  0  0  0  0  0  0  0  0  0  0
  -16.9577  -29.4737   24.2613 C   0  0  0  0  0  0  0  0  0  0  0  0
  -23.5639  -17.3911   22.6217 C   0  0  0  0  0  0  0  0  0  0  0  0
  -25.8725  -18.0693   22.8396 C   0  0  0  0  0  0  0  0  0  0  0  0
  -17.4307  -28.1619   24.2929 C   0  0  0  0  0  0  0  0  0  0  0  0
  -27.7272  -18.6362   19.1590 C   0  0  0  0  0  0  0  0  0  0  0  0
  -26.1610  -20.8981   19.5796 C   0  0  0  0  0  0  0  0  0  0  0  0
  -25.0824  -26.8677   18.7387 C   0  0  0  0  0  0  0  0  0  0  0  0
  -17.5829  -30.4213   23.4508 C   0  0  0  0  0  0  0  0  0  0  0  0
  -23.9367  -16.4205   21.6919 C   0  0  0  0  0  0  0  0  0  0  0  0
  -26.2453  -17.0987   21.9098 C   0  0  0  0  0  0  0  0  0  0  0  0
  -24.1919  -27.7542   19.3428 C   0  0  0  0  0  0  0  0  0  0  0  0
  -25.3095  -13.3308   21.7308 C   0  0  0  0  0  0  0  0  0  0  0  0
  -24.7586  -12.0567   21.8674 C   0  0  0  0  0  0  0  0  0  0  0  0
  -19.1543  -28.7452   22.7035 C   0  0  0  0  0  0  0  0  0  0  0  0
  -25.9342  -28.4672   20.8511 C   0  0  0  0  0  0  0  0  0  0  0  0
  -23.7752  -12.2462   19.6687 C   0  0  0  0  0  0  0  0  0  0  0  0
  -24.5318  -18.2155   23.1956 C   0  0  0  0  0  0  0  0  0  0  0  0
  -18.5290  -27.7977   23.5141 C   0  0  0  0  0  0  0  0  0  0  0  0
  -24.0595  -19.0689   25.5527 C   0  0  0  0  0  0  0  0  0  0  0  0
  -28.2411  -19.6967   19.9218 C   0  0  0  0  0  0  0  0  0  0  0  0
  -26.4048  -26.7663   19.1942 C   0  0  0  0  0  0  0  0  0  0  0  0
  -27.4463  -20.8374   20.1442 C   0  0  0  0  0  0  0  0  0  0  0  0
  -26.8402  -27.5806   20.2494 C   0  0  0  0  0  0  0  0  0  0  0  0
  -18.6812  -30.0570   22.6719 C   0  0  0  0  0  0  0  0  0  0  0  0
  -25.2774  -16.2743   21.3359 C   0  0  0  0  0  0  0  0  0  0  0  0
  -24.6169  -28.5520   20.4010 C   0  0  0  0  0  0  0  0  0  0  0  0
  -25.0933  -14.0627   20.5632 C   0  0  0  0  0  0  0  0  0  0  0  0
  -23.9914  -11.5144   20.8364 C   0  0  0  0  0  0  0  0  0  0  0  0
  -24.3261  -13.5204   19.5322 C   0  0  0  0  0  0  0  0  0  0  0  0
  -24.1472  -19.2187   24.1557 C   0  0  0  0  0  0  0  0  0  0  0  0
  -23.6557  -20.3012   26.0055 C   0  0  0  0  0  0  0  0  0  0  0  0
  -19.0216  -26.4296   23.5470 C   0  0  0  0  0  0  0  0  0  0  0  0
  -20.2550  -26.0318   23.1684 C   0  0  0  0  0  0  0  0  0  0  0  0
  -24.3200  -17.9188   26.3683 C   0  0  0  0  0  0  0  0  0  0  0  0
  -20.6099  -24.6020   23.2707 C   0  0  0  0  0  0  0  0  0  0  0  0
  -28.1678  -24.4470   20.4655 C   0  0  0  0  0  0  0  0  0  0  0  0
  -21.5840  -30.4809   21.2228 C   0  0  0  0  0  0  0  0  0  0  0  0
  -30.5459  -26.6358   20.1899 C   0  0  0  0  0  0  0  0  0  0  0  0
  -31.4498  -29.9187   19.9624 C   0  0  0  0  0  0  0  0  0  0  0  0
  -29.6097  -19.5508   20.5385 C   0  0  0  0  0  0  0  0  0  0  0  0
  -27.3604  -25.8244   18.5145 C   0  0  0  0  0  0  0  0  0  0  0  0
  -28.2552  -27.5244   20.7626 C   0  0  0  0  0  0  0  0  0  0  0  0
  -30.2035  -20.8711   21.0226 C   0  0  0  0  0  0  0  0  0  0  0  0
  -23.8571  -24.9454   24.9349 C   0  0  0  0  0  0  0  0  0  0  0  0
  -29.1691  -21.6624   21.8167 C   0  0  0  0  0  0  0  0  0  0  0  0
  -24.3070  -23.4885   25.0044 C   0  0  0  0  0  0  0  0  0  0  0  0
  -23.0505  -25.2350   23.6700 C   0  0  0  0  0  0  0  0  0  0  0  0
  -22.3352  -22.8653   23.5539 C   0  0  0  0  0  0  0  0  0  0  0  0
  -27.9569  -22.0148   20.9462 C   0  0  1  0  0  0  0  0  0  0  0  0
  -28.5425  -25.4335   19.3959 C   0  0  1  0  0  0  0  0  0  0  0  0
  -23.1084  -22.5403   24.8415 C   0  0  1  0  0  0  0  0  0  0  0  0
  -33.4691  -31.3984   19.7867 C   0  0  0  0  0  0  0  0  0  0  0  0
  -31.1182  -26.2026   23.1555 C   0  0  0  0  0  0  0  0  0  0  0  0
  -32.4450  -28.3258   23.1382 C   0  0  0  0  0  0  0  0  0  0  0  0
  -33.1551  -26.4017   21.7182 C   0  0  0  0  0  0  0  0  0  0  0  0
  -19.1251  -32.4383   22.1308 C   0  0  0  0  0  0  0  0  0  0  0  0
  -30.5753  -30.9981   17.3491 C   0  0  0  0  0  0  0  0  0  0  0  0
  -20.1514  -30.6220   20.7537 C   0  0  0  0  0  0  0  0  0  0  0  0
  -22.4189  -29.4568   20.4789 C   0  0  0  0  0  0  0  0  0  1  0  0
  -31.1016  -27.7275   21.0721 C   0  0  1  0  0  0  0  0  0  0  0  0
  -32.3968  -30.6398   19.0202 C   0  0  2  0  0  0  0  0  0  0  0  0
  -31.9277  -27.1643   22.2628 C   0  0  0  0  0  0  0  0  0  0  0  0
  -23.8248  -20.4489   23.7478 N   0  0  0  0  0  0  0  0  0  0  0  0
  -23.5305  -21.0835   24.8953 N   0  0  0  0  0  0  0  0  0  0  0  0
  -21.9452  -24.2789   23.5058 N   0  0  0  0  0  0  0  0  0  0  0  0
  -29.1501  -26.5831   20.0693 N   0  0  0  0  0  0  0  0  0  0  0  0
  -23.3989  -20.7810   27.2409 N   0  0  0  0  0  0  0  0  0  0  0  0
  -24.7266  -16.7333   25.7412 N   0  0  0  0  0  0  0  0  0  0  0  0
  -28.2679  -23.1260   20.0726 N   0  0  0  0  0  0  0  0  0  0  0  0
  -31.8508  -28.6200   20.1943 N   0  0  0  0  0  0  0  0  0  0  0  0
  -19.3099  -31.0108   21.8564 N   0  0  3  0  0  0  0  0  0  0  0  0
  -31.6466  -31.6117   18.1754 N   0  3  0  0  0  0  0  0  0  0  0  0
  -24.1799  -17.9372   27.6147 O   0  0  0  0  0  0  0  0  0  0  0  0
  -19.7019  -23.7797   23.1367 O   0  0  0  0  0  0  0  0  0  0  0  0
  -27.8153  -24.8542   21.5663 O   0  0  0  0  0  0  0  0  0  0  0  0
  -22.0506  -31.1475   22.1457 O   0  0  0  0  0  0  0  0  0  0  0  0
  -31.3221  -25.8627   19.6229 O   0  0  0  0  0  0  0  0  0  0  0  0
  -30.4560  -30.4552   20.4473 O   0  0  0  0  0  0  0  0  0  0  0  0
  -25.6416  -15.3272   20.4288 O   0  0  0  0  0  0  0  0  0  0  0  0
  -23.7495  -29.4176   20.9929 O   0  0  0  0  0  0  0  0  0  1  0  0
  -23.4637  -10.2902   20.9670 F   0  0  0  0  0  0  0  0  0  0  0  0
  -24.1159  -14.2182   18.4076 F   0  0  0  0  0  0  0  0  0  0  0  0
  1  2  1  0  0  0  0
  1  7  2  0  0  0  0
  2  8  2  0  0  0  0
  3  6  1  0  0  0  0
  3 10  2  0  0  0  0
  4 11  2  0  0  0  0
  4 19  1  0  0  0  0
  5 12  1  0  0  0  0
  5 19  2  0  0  0  0
  6 20  2  0  0  0  0
  7 22  1  0  0  0  0
  8 24  1  0  0  0  0
  9 13  2  0  0  0  0
  9 23  1  0  0  0  0
 10 26  1  0  0  0  0
 11 27  1  0  0  0  0
 12 27  2  0  0  0  0
 13 28  1  0  0  0  0
 14 15  2  0  0  0  0
 14 29  1  0  0  0  0
 15 30  1  0  0  0  0
 16 20  1  0  0  0  0
 16 26  2  0  0  0  0
 17 25  1  0  0  0  0
 17 28  2  0  0  0  0
 18 30  2  0  0  0  0
 18 31  1  0  0  0  0
 19 32  1  0  0  0  0
 20 34  1  0  0  0  0
 21 32  1  0  0  0  0
 21 33  2  0  0  0  0
 21 36  1  0  0  0  0
 22 24  2  0  0  0  0
 22 42  1  0  0  0  0
 23 25  2  0  0  0  0
 23 43  1  0  0  0  0
 24 51  1  0  0  0  0
 25 44  1  0  0  0  0
 26 73  1  0  0  0  0
 27 81  1  0  0  0  0
 28 82  1  0  0  0  0
 29 31  2  0  0  0  0
 29 81  1  0  0  0  0
 30 83  1  0  0  0  0
 31 84  1  0  0  0  0
 32 65  2  0  0  0  0
 33 66  1  0  0  0  0
 33 69  1  0  0  0  0
 34 35  2  0  0  0  0
 35 37  1  0  0  0  0
 36 70  1  0  0  0  0
 36 75  2  0  0  0  0
 37 67  1  0  0  0  0
 37 76  2  0  0  0  0
 38 52  1  0  0  0  0
 38 71  1  0  0  0  0
 38 77  2  0  0  0  0
 39 60  1  0  0  0  0
 39 61  1  0  0  0  0
 39 78  2  0  0  0  0
 40 62  1  0  0  0  0
 40 68  1  0  0  0  0
 40 79  2  0  0  0  0
 41 63  1  0  0  0  0
 41 72  1  0  0  0  0
 41 80  2  0  0  0  0
 42 45  1  0  0  0  0
 43 52  1  0  0  0  0
 44 68  1  0  0  0  0
 45 47  1  0  0  0  0
 46 48  1  0  0  0  0
 46 49  1  0  0  0  0
 47 51  1  0  0  0  0
 48 53  1  0  0  0  0
 49 67  1  0  0  0  0
 50 53  1  0  0  0  0
 50 67  1  0  0  0  0
 51 71  1  0  0  0  0
 52 68  1  0  0  0  0
 53 66  1  0  0  0  0
 54 63  1  0  0  0  0
 55 64  1  0  0  0  0
 56 64  1  0  0  0  0
 57 64  1  0  0  0  0
 58 73  1  0  0  0  0
 59 74  1  0  0  0  0
 60 73  1  0  0  0  0
 61 82  1  0  0  0  0
 62 64  1  0  0  0  0
 62 72  1  0  0  0  0
 63 74  1  0  0  0  0
 65 66  1  0  0  0  0
M  CHG  1  74   1
M  ISO  4  35 100  37 100  61 101  82 101
M  END
> <Batch ID>
0167

> <Smiles>
CNC(C)C(=O)NC(C(=O)N1Cc2cc([101O:1][101CH2:1]C(=O)CN(C)c3cccc(C=[100CH:0][100C:0](=O)N4CCCC(n5nc(-c6ccc(Oc7ccc(F)cc7F)cc6)c(C(N)=O)c5N)C4)c3)ccc2CC1C(=O)NC1CCCc2ccccc21)C(C)(C)C

> <Shape>
0.211

> <Color>
0.068

> <Negative vol penalty>
0.000

$$$$

  -OEChem-04052304113D

 86 94  0     1  0  0  0  0  0999 V2000
  -30.8280  -28.3095   26.6140 C   0  0  0  0  0  0  0  0  0  0  0  0
  -30.4489  -27.0699   26.1091 C   0  0  0  0  0  0  0  0  0  0  0  0
  -29.8082  -23.3637   19.2253 C   0  0  0  0  0  0  0  0  0  0  0  0
  -27.5284  -23.0890   19.9762 C   0  0  0  0  0  0  0  0  0  0  0  0
  -29.8698  -29.1588   27.1658 C   0  0  0  0  0  0  0  0  0  0  0  0
  -29.1114  -26.6783   26.1567 C   0  0  0  0  0  0  0  0  0  0  0  0
  -24.2800  -22.8551   22.5020 C   0  0  0  0  0  0  0  0  0  0  0  0
  -29.4319  -24.4910   18.4952 C   0  0  0  0  0  0  0  0  0  0  0  0
  -27.1521  -24.2164   19.2462 C   0  0  0  0  0  0  0  0  0  0  0  0
  -23.3590  -21.8248   22.6863 C   0  0  0  0  0  0  0  0  0  0  0  0
  -25.6605  -27.2325   17.8692 C   0  0  0  0  0  0  0  0  0  0  0  0
  -24.8280  -28.1618   18.4929 C   0  0  0  0  0  0  0  0  0  0  0  0
  -21.7788  -23.4073   23.5906 C   0  0  0  0  0  0  0  0  0  0  0  0
  -24.3220  -15.5437   21.3328 C   0  0  0  0  0  0  0  0  0  0  0  0
  -25.3838  -13.4925   20.6242 C   0  0  0  0  0  0  0  0  0  0  0  0
  -26.4958  -28.5058   20.2067 C   0  0  0  0  0  0  0  0  0  0  0  0
  -28.8564  -22.6626   19.9658 C   0  0  0  0  0  0  0  0  0  0  0  0
  -29.6888  -21.4583   22.0549 C   0  0  0  0  0  0  0  0  0  0  0  0
  -28.5184  -28.7815   27.2115 C   0  0  0  0  0  0  0  0  0  0  0  0
  -23.9608  -24.1697   22.8714 C   0  0  0  0  0  0  0  0  0  0  0  0
  -28.1344  -27.5228   26.7109 C   0  0  0  0  0  0  0  0  0  0  0  0
  -22.6966  -24.4529   23.4077 C   0  0  0  0  0  0  0  0  0  0  0  0
  -25.4262  -14.8751   20.8043 C   0  0  0  0  0  0  0  0  0  0  0  0
  -23.1754  -14.8297   21.6812 C   0  0  0  0  0  0  0  0  0  0  0  0
  -23.1331  -13.4472   21.5012 C   0  0  0  0  0  0  0  0  0  0  0  0
  -28.1038  -24.9174   18.5056 C   0  0  0  0  0  0  0  0  0  0  0  0
  -22.1092  -22.1003   23.2333 C   0  0  0  0  0  0  0  0  0  0  0  0
  -26.9106  -26.9398   18.4143 C   0  0  0  0  0  0  0  0  0  0  0  0
  -25.2456  -28.7985   19.6616 C   0  0  0  0  0  0  0  0  0  0  0  0
  -24.2373  -12.7786   20.9727 C   0  0  0  0  0  0  0  0  0  0  0  0
  -27.3283  -27.5765   19.5830 C   0  0  0  0  0  0  0  0  0  0  0  0
  -29.2444  -21.4976   20.7197 C   0  0  0  0  0  0  0  0  0  0  0  0
  -29.9283  -20.1279   22.2981 C   0  0  0  0  0  0  0  0  0  0  0  0
  -29.8688  -22.5287   22.9917 C   0  0  0  0  0  0  0  0  0  0  0  0
  -20.7352  -17.3397   22.9988 C   0  0  0  0  0  0  0  0  0  0  0  0
  -20.5003  -18.8052   23.3083 C   0  0  0  0  0  0  0  0  0  0  0  0
  -25.1383  -26.2634   24.9532 C   0  0  0  0  0  0  0  0  0  0  0  0
  -22.9968  -28.2627   23.5607 C   0  0  0  0  0  0  0  0  0  0  0  0
  -20.0965  -28.6306   21.8000 C   0  0  0  0  0  0  0  0  0  0  0  0
  -27.7732  -15.0900   19.9146 C   0  0  0  0  0  0  0  0  0  0  0  0
  -27.5261  -29.7135   27.8605 C   0  0  0  0  0  0  0  0  0  0  0  0
  -24.9556  -25.2742   22.6414 C   0  0  0  0  0  0  0  0  0  0  0  0
  -22.2974  -25.8506   23.8019 C   0  0  0  0  0  0  0  0  0  0  0  0
  -26.0729  -29.3799   27.5329 C   0  0  0  0  0  0  0  0  0  0  0  0
  -31.1894  -16.0815   20.0686 C   0  0  0  0  0  0  0  0  0  0  0  0
  -25.8201  -27.8839   27.6902 C   0  0  0  0  0  0  0  0  0  0  0  0
  -31.1189  -17.5781   20.3806 C   0  0  0  0  0  0  0  0  0  0  0  0
  -30.0654  -15.6440   19.1311 C   0  0  0  0  0  0  0  0  0  0  0  0
  -28.6426  -17.5105   19.8801 C   0  0  0  0  0  0  0  0  0  0  0  0
  -26.6897  -27.0727   26.7221 C   0  0  1  0  0  0  0  0  0  0  0  0
  -24.7138  -26.4906   23.5298 C   0  0  1  0  0  0  0  0  0  0  0  0
  -29.7162  -17.9857   20.8726 C   0  0  2  0  0  0  0  0  0  0  0  0
  -18.5825  -30.3881   20.8430 C   0  0  0  0  0  0  0  0  0  0  0  0
  -21.9204  -28.8531   26.3541 C   0  0  0  0  0  0  0  0  0  0  0  0
  -19.8741  -29.8215   25.2851 C   0  0  0  0  0  0  0  0  0  0  0  0
  -22.1060  -30.8526   24.8635 C   0  0  0  0  0  0  0  0  0  0  0  0
  -20.4903  -27.6329   19.0416 C   0  0  0  0  0  0  0  0  0  0  0  0
  -22.0667  -16.9404   22.4170 C   0  0  0  0  0  0  0  0  0  0  0  0
  -21.6104  -19.7846   23.0225 C   0  0  0  0  0  0  0  0  0  1  0  0
  -21.5519  -28.6226   23.8091 C   0  0  1  0  0  0  0  0  0  0  0  0
  -19.7598  -29.4633   20.5762 C   0  0  2  0  0  0  0  0  0  0  0  0
  -21.3710  -29.5107   25.0724 C   0  0  0  0  0  0  0  0  0  0  0  0
  -29.2033  -20.2883   20.1541 N   0  0  0  0  0  0  0  0  0  0  0  0
  -29.6250  -19.4766   21.1387 N   0  0  0  0  0  0  0  0  0  0  0  0
  -23.3069  -26.8954   23.5633 N   0  0  0  0  0  0  0  0  0  0  0  0
  -28.7663  -16.0604   19.6637 N   0  0  0  0  0  0  0  0  0  0  0  0
  -21.9801  -12.7075   21.8477 N   0  0  0  0  0  0  0  0  0  0  0  0
  -30.3667  -19.4633   23.3883 N   0  0  0  0  0  0  0  0  0  0  0  0
  -29.5758  -23.8352   22.5778 N   0  0  0  0  0  0  0  0  0  0  0  0
  -26.5913  -15.5999   20.4509 N   0  0  0  0  0  0  0  0  0  0  0  0
  -22.0892  -15.5141   22.2051 N   0  0  0  0  0  0  0  0  0  0  0  0
  -26.1350  -27.1170   25.3861 N   0  0  0  0  0  0  0  0  0  0  0  0
  -21.0651  -29.2315   22.5759 N   0  0  0  0  0  0  0  0  0  0  0  0
  -19.4123  -28.5793   19.4278 N   0  3  0  0  0  0  0  0  0  0  0  0
  -30.2931  -22.3342   24.1561 O   0  0  0  0  0  0  0  0  0  0  0  0
  -19.8183  -16.5653   23.2425 O   0  0  0  0  0  0  0  0  0  0  0  0
  -19.4135  -19.1151   23.7794 O   0  0  0  0  0  0  0  0  0  0  0  0
  -24.6003  -25.3800   25.6104 O   0  0  0  0  0  0  0  0  0  0  0  0
  -23.8186  -29.1614   23.3643 O   0  0  0  0  0  0  0  0  0  0  0  0
  -19.5520  -27.5564   22.0452 O   0  0  0  0  0  0  0  0  0  0  0  0
  -27.9676  -13.8913   19.6971 O   0  0  0  0  0  0  0  0  0  0  0  0
  -27.7363  -26.0176   17.7935 O   0  0  0  0  0  0  0  0  0  0  0  0
  -21.2086  -21.0964   23.4148 O   0  0  0  0  0  0  0  0  0  1  0  0
  -24.4467  -29.6920   20.2595 F   0  0  0  0  0  0  0  0  0  0  0  0
  -24.2078  -11.4500   20.7950 F   0  0  0  0  0  0  0  0  0  0  0  0
  -28.5287  -27.3003   20.1107 F   0  0  0  0  0  0  0  0  0  0  0  0
  1  2  1  0  0  0  0
  1  5  2  0  0  0  0
  2  6  2  0  0  0  0
  3  8  2  0  0  0  0
  3 17  1  0  0  0  0
  4  9  1  0  0  0  0
  4 17  2  0  0  0  0
  5 19  1  0  0  0  0
  6 21  1  0  0  0  0
  7 10  2  0  0  0  0
  7 20  1  0  0  0  0
  8 26  1  0  0  0  0
  9 26  2  0  0  0  0
 10 27  1  0  0  0  0
 11 12  2  0  0  0  0
 11 28  1  0  0  0  0
 12 29  1  0  0  0  0
 13 22  1  0  0  0  0
 13 27  2  0  0  0  0
 14 23  2  0  0  0  0
 14 24  1  0  0  0  0
 15 23  1  0  0  0  0
 15 30  2  0  0  0  0
 16 29  2  0  0  0  0
 16 31  1  0  0  0  0
 17 32  1  0  0  0  0
 18 32  1  0  0  0  0
 18 33  2  0  0  0  0
 18 34  1  0  0  0  0
 19 21  2  0  0  0  0
 19 41  1  0  0  0  0
 20 22  2  0  0  0  0
 20 42  1  0  0  0  0
 21 50  1  0  0  0  0
 22 43  1  0  0  0  0
 23 70  1  0  0  0  0
 24 25  2  0  0  0  0
 24 71  1  0  0  0  0
 25 30  1  0  0  0  0
 25 67  1  0  0  0  0
 26 82  1  0  0  0  0
 27 83  1  0  0  0  0
 28 31  2  0  0  0  0
 28 82  1  0  0  0  0
 29 84  1  0  0  0  0
 30 85  1  0  0  0  0
 31 86  1  0  0  0  0
 32 63  2  0  0  0  0
 33 64  1  0  0  0  0
 33 68  1  0  0  0  0
 34 69  1  0  0  0  0
 34 75  2  0  0  0  0
 35 36  1  0  0  0  0
 35 58  1  0  0  0  0
 35 76  2  0  0  0  0
 36 59  1  0  0  0  0
 36 77  2  0  0  0  0
 37 51  1  0  0  0  0
 37 72  1  0  0  0  0
 37 78  2  0  0  0  0
 38 60  1  0  0  0  0
 38 65  1  0  0  0  0
 38 79  2  0  0  0  0
 39 61  1  0  0  0  0
 39 73  1  0  0  0  0
 39 80  2  0  0  0  0
 40 66  1  0  0  0  0
 40 70  1  0  0  0  0
 40 81  2  0  0  0  0
 41 44  1  0  0  0  0
 42 51  1  0  0  0  0
 43 65  1  0  0  0  0
 44 46  1  0  0  0  0
 45 47  1  0  0  0  0
 45 48  1  0  0  0  0
 46 50  1  0  0  0  0
 47 52  1  0  0  0  0
 48 66  1  0  0  0  0
 49 52  1  0  0  0  0
 49 66  1  0  0  0  0
 50 72  1  0  0  0  0
 51 65  1  0  0  0  0
 52 64  1  0  0  0  0
 53 61  1  0  0  0  0
 54 62  1  0  0  0  0
 55 62  1  0  0  0  0
 56 62  1  0  0  0  0
 57 74  1  0  0  0  0
 58 71  1  0  0  0  0
 59 83  1  0  0  0  0
 60 62  1  0  0  0  0
 60 73  1  0  0  0  0
 61 74  1  0  0  0  0
 63 64  1  0  0  0  0
M  CHG  1  74   1
M  ISO  4  40 100  59 101  70 100  83 101
M  END
> <Batch ID>
0167

> <Smiles>
CNC(C)C(=O)NC(C(=O)N1Cc2cc([101O:1][101CH2:1]C(=O)C(=O)CNc3cc([100NH:0][100C:0](=O)N4CCCC(n5nc(-c6ccc(Oc7ccc(F)cc7F)cc6)c(C(N)=O)c5N)C4)cc(F)c3N)ccc2CC1C(=O)NC1CCCc2ccccc21)C(C)(C)C

> <Shape>
0.201

> <Color>
0.073

> <Negative vol penalty>
0.000

$$$$

  -OEChem-04052304113D

 89 97  0     1  0  0  0  0  0999 V2000
  -28.5320  -37.5448   23.5889 C   0  0  0  0  0  0  0  0  0  0  0  0
  -28.4904  -36.4411   22.7430 C   0  0  0  0  0  0  0  0  0  0  0  0
  -23.9602   -9.2279   23.1106 C   0  0  0  0  0  0  0  0  0  0  0  0
  -23.8353   -9.9430   20.8063 C   0  0  0  0  0  0  0  0  0  0  0  0
  -28.0630  -37.4367   24.8974 C   0  0  0  0  0  0  0  0  0  0  0  0
  -27.9807  -35.2284   23.2054 C   0  0  0  0  0  0  0  0  0  0  0  0
  -24.8113  -31.0978   19.9808 C   0  0  0  0  0  0  0  0  0  0  0  0
  -22.9681   -8.2776   22.8695 C   0  0  0  0  0  0  0  0  0  0  0  0
  -22.8432   -8.9926   20.5651 C   0  0  0  0  0  0  0  0  0  0  0  0
  -25.1853  -29.9109   19.3521 C   0  0  0  0  0  0  0  0  0  0  0  0
  -22.7450   -5.2120   21.4606 C   0  0  0  0  0  0  0  0  0  0  0  0
  -22.9423   -3.9266   21.9651 C   0  0  0  0  0  0  0  0  0  0  0  0
  -24.4802  -28.6667   21.2948 C   0  0  0  0  0  0  0  0  0  0  0  0
  -30.1552  -17.2871   19.8269 C   0  0  0  0  0  0  0  0  0  0  0  0
  -28.9097  -19.2816   20.3817 C   0  0  0  0  0  0  0  0  0  0  0  0
  -20.9226   -4.1308   23.2752 C   0  0  0  0  0  0  0  0  0  0  0  0
  -24.3938  -10.0607   22.0790 C   0  0  0  0  0  0  0  0  0  0  0  0
  -30.6762  -19.3790   18.7363 C   0  0  0  0  0  0  0  0  0  0  0  0
  -26.8095  -10.8716   22.1987 C   0  0  0  0  0  0  0  0  0  0  0  0
  -27.5383  -36.2247   25.3732 C   0  0  0  0  0  0  0  0  0  0  0  0
  -24.2781  -31.0789   21.2776 C   0  0  0  0  0  0  0  0  0  0  0  0
  -27.5054  -35.1037   24.5220 C   0  0  0  0  0  0  0  0  0  0  0  0
  -24.0978  -29.8545   21.9367 C   0  0  0  0  0  0  0  0  0  0  0  0
  -30.9176  -18.0168   18.9149 C   0  0  0  0  0  0  0  0  0  0  0  0
  -29.1512  -17.9195   20.5603 C   0  0  0  0  0  0  0  0  0  0  0  0
  -29.6722  -20.0114   19.4697 C   0  0  0  0  0  0  0  0  0  0  0  0
  -22.4096   -8.1599   21.5968 C   0  0  0  0  0  0  0  0  0  0  0  0
  -25.0224  -28.6954   20.0102 C   0  0  0  0  0  0  0  0  0  0  0  0
  -21.6365   -5.9568   21.8635 C   0  0  0  0  0  0  0  0  0  0  0  0
  -22.0311   -3.3860   22.8724 C   0  0  0  0  0  0  0  0  0  0  0  0
  -20.7254   -5.4162   22.7708 C   0  0  0  0  0  0  0  0  0  0  0  0
  -25.4182  -11.0430   22.3275 C   0  0  0  0  0  0  0  0  0  0  0  0
  -27.3393  -12.0899   22.5472 C   0  0  0  0  0  0  0  0  0  0  0  0
  -31.4770  -20.1383   17.7803 C   0  0  0  0  0  0  0  0  0  0  0  0
  -27.5563   -9.7145   21.7996 C   0  0  0  0  0  0  0  0  0  0  0  0
  -25.1636  -32.2792   24.0846 C   0  0  0  0  0  0  0  0  0  0  0  0
  -28.3828  -23.5346   19.6100 C   0  0  0  0  0  0  0  0  0  0  0  0
  -26.8265  -25.5891   19.5152 C   0  0  0  0  0  0  0  0  0  0  0  0
  -22.2744  -31.1539   25.0376 C   0  0  0  0  0  0  0  0  0  0  0  0
  -19.7139  -28.9535   24.5382 C   0  0  0  0  0  0  0  0  0  0  0  0
  -27.3426  -17.6522   22.2935 C   0  0  0  0  0  0  0  0  0  0  0  0
  -27.0868  -36.1433   26.8099 C   0  0  0  0  0  0  0  0  0  0  0  0
  -23.8548  -32.3656   21.9316 C   0  0  0  0  0  0  0  0  0  0  0  0
  -23.5112  -29.7784   23.3218 C   0  0  0  0  0  0  0  0  0  0  0  0
  -26.2164  -34.9249   27.1068 C   0  0  0  0  0  0  0  0  0  0  0  0
  -25.1695  -16.1387   24.6734 C   0  0  0  0  0  0  0  0  0  0  0  0
  -26.8355  -33.6672   26.5053 C   0  0  0  0  0  0  0  0  0  0  0  0
  -25.1550  -14.6640   24.2647 C   0  0  0  0  0  0  0  0  0  0  0  0
  -25.2283  -17.0633   23.4588 C   0  0  0  0  0  0  0  0  0  0  0  0
  -26.3038  -15.3066   22.1073 C   0  0  0  0  0  0  0  0  0  0  0  0
  -26.9369  -33.7778   24.9792 C   0  0  1  0  0  0  0  0  0  0  0  0
  -23.8001  -32.2727   23.4533 C   0  0  1  0  0  0  0  0  0  0  0  0
  -26.3105  -14.3354   23.2991 C   0  0  2  0  0  0  0  0  0  0  0  0
  -31.9860  -17.3115   18.1441 C   0  0  0  0  0  0  0  0  0  0  0  0
  -30.9755  -20.2144   16.3703 C   0  0  0  0  0  0  0  0  0  0  0  0
  -17.5076  -28.2468   25.5025 C   0  0  0  0  0  0  0  0  0  0  0  0
  -23.7289  -29.6717   27.2730 C   0  0  0  0  0  0  0  0  0  0  0  0
  -21.6749  -28.2755   27.5891 C   0  0  0  0  0  0  0  0  0  0  0  0
  -21.5746  -30.7404   27.9595 C   0  0  0  0  0  0  0  0  0  0  0  0
  -18.2672  -29.6780   22.0600 C   0  0  0  0  0  0  0  0  0  0  0  0
  -27.3528  -24.4062   20.3032 C   0  0  0  0  0  0  0  0  0  0  0  0
  -28.3939  -22.0790   20.0322 C   0  0  0  0  0  0  0  0  0  0  0  0
  -25.8257  -26.4687   20.2394 C   0  0  0  0  0  0  0  0  0  1  0  0
  -21.7688  -29.8481   25.6019 C   0  0  1  0  0  0  0  0  0  0  0  0
  -18.2092  -29.1507   24.5008 C   0  0  2  0  0  0  0  0  0  0  0  0
  -22.1997  -29.6352   27.0805 C   0  0  0  0  0  0  0  0  0  0  0  0
  -25.0850  -12.2733   22.7269 N   0  0  0  0  0  0  0  0  0  0  0  0
  -26.2746  -12.8859   22.8520 N   0  0  0  0  0  0  0  0  0  0  0  0
  -23.1185  -31.0643   23.9217 N   0  0  0  0  0  0  0  0  0  0  0  0
  -26.3497  -16.6951   22.5917 N   0  0  0  0  0  0  0  0  0  0  0  0
  -28.6074  -12.5472   22.6196 N   0  0  0  0  0  0  0  0  0  0  0  0
  -26.8544   -8.5454   21.4757 N   0  0  0  0  0  0  0  0  0  0  0  0
  -28.3764  -17.1782   21.4865 N   0  0  0  0  0  0  0  0  0  0  0  0
  -29.4144  -21.3651   19.3081 N   0  0  0  0  0  0  0  0  0  0  0  0
  -25.6461  -33.5425   24.3686 N   0  0  0  0  0  0  0  0  0  0  0  0
  -20.3248  -29.8455   25.3940 N   0  0  0  0  0  0  0  0  0  0  0  0
  -17.6804  -28.8453   23.1413 N   0  3  0  0  0  0  0  0  0  0  0  0
  -32.5306  -20.7125   18.0488 O   0  0  0  0  0  0  0  0  0  0  0  0
  -28.8096   -9.7124   21.7481 O   0  0  0  0  0  0  0  0  0  0  0  0
  -25.7350  -31.2166   24.2995 O   0  0  0  0  0  0  0  0  0  0  0  0
  -29.1812  -23.9872   18.7909 O   0  0  0  0  0  0  0  0  0  0  0  0
  -27.1543  -25.8095   18.3504 O   0  0  0  0  0  0  0  0  0  0  0  0
  -21.9272  -32.2145   25.5630 O   0  0  0  0  0  0  0  0  0  0  0  0
  -20.2894  -28.0918   23.8773 O   0  0  0  0  0  0  0  0  0  0  0  0
  -27.2946  -18.7994   22.7446 O   0  0  0  0  0  0  0  0  0  0  0  0
  -21.4416   -7.2325   21.3611 O   0  0  0  0  0  0  0  0  0  0  0  0
  -25.3873  -27.5355   19.3991 O   0  0  0  0  0  0  0  0  0  1  0  0
  -22.2199   -2.1511   23.3555 F   0  0  0  0  0  0  0  0  0  0  0  0
  -19.6580   -6.1265   23.1606 F   0  0  0  0  0  0  0  0  0  0  0  0
  1  2  1  0  0  0  0
  1  5  2  0  0  0  0
  2  6  2  0  0  0  0
  3  8  2  0  0  0  0
  3 17  1  0  0  0  0
  4  9  1  0  0  0  0
  4 17  2  0  0  0  0
  5 20  1  0  0  0  0
  6 22  1  0  0  0  0
  7 10  2  0  0  0  0
  7 21  1  0  0  0  0
  8 27  1  0  0  0  0
  9 27  2  0  0  0  0
 10 28  1  0  0  0  0
 11 12  2  0  0  0  0
 11 29  1  0  0  0  0
 12 30  1  0  0  0  0
 13 23  1  0  0  0  0
 13 28  2  0  0  0  0
 14 24  2  0  0  0  0
 14 25  1  0  0  0  0
 15 25  2  0  0  0  0
 15 26  1  0  0  0  0
 16 30  2  0  0  0  0
 16 31  1  0  0  0  0
 17 32  1  0  0  0  0
 18 24  1  0  0  0  0
 18 26  2  0  0  0  0
 18 34  1  0  0  0  0
 19 32  1  0  0  0  0
 19 33  2  0  0  0  0
 19 35  1  0  0  0  0
 20 22  2  0  0  0  0
 20 42  1  0  0  0  0
 21 23  2  0  0  0  0
 21 43  1  0  0  0  0
 22 51  1  0  0  0  0
 23 44  1  0  0  0  0
 24 54  1  0  0  0  0
 25 73  1  0  0  0  0
 26 74  1  0  0  0  0
 27 86  1  0  0  0  0
 28 87  1  0  0  0  0
 29 31  2  0  0  0  0
 29 86  1  0  0  0  0
 30 88  1  0  0  0  0
 31 89  1  0  0  0  0
 32 67  2  0  0  0  0
 33 68  1  0  0  0  0
 33 71  1  0  0  0  0
 34 55  1  0  0  0  0
 34 78  2  0  0  0  0
 35 72  1  0  0  0  0
 35 79  2  0  0  0  0
 36 52  1  0  0  0  0
 36 75  1  0  0  0  0
 36 80  2  0  0  0  0
 37 61  1  0  0  0  0
 37 62  1  0  0  0  0
 37 81  2  0  0  0  0
 38 61  1  0  0  0  0
 38 63  1  0  0  0  0
 38 82  2  0  0  0  0
 39 64  1  0  0  0  0
 39 69  1  0  0  0  0
 39 83  2  0  0  0  0
 40 65  1  0  0  0  0
 40 76  1  0  0  0  0
 40 84  2  0  0  0  0
 41 70  1  0  0  0  0
 41 73  1  0  0  0  0
 41 85  2  0  0  0  0
 42 45  1  0  0  0  0
 43 52  1  0  0  0  0
 44 69  1  0  0  0  0
 45 47  1  0  0  0  0
 46 48  1  0  0  0  0
 46 49  1  0  0  0  0
 47 51  1  0  0  0  0
 48 53  1  0  0  0  0
 49 70  1  0  0  0  0
 50 53  1  0  0  0  0
 50 70  1  0  0  0  0
 51 75  1  0  0  0  0
 52 69  1  0  0  0  0
 53 68  1  0  0  0  0
 56 65  1  0  0  0  0
 57 66  1  0  0  0  0
 58 66  1  0  0  0  0
 59 66  1  0  0  0  0
 60 77  1  0  0  0  0
 62 74  1  0  0  0  0
 63 87  1  0  0  0  0
 64 66  1  0  0  0  0
 64 76  1  0  0  0  0
 65 77  1  0  0  0  0
 67 68  1  0  0  0  0
M  CHG  1  77   1
M  ISO  4  41 100  63 101  73 100  87 101
M  END
> <Batch ID>
0167

> <Smiles>
CNC(C)C(=O)NC(C(=O)N1Cc2cc([101O:1][101CH2:1]C(=O)CC(=O)CNc3cc([100NH:0][100C:0](=O)N4CCCC(n5nc(-c6ccc(Oc7ccc(F)cc7F)cc6)c(C(N)=O)c5N)C4)cc(C)c3C(C)=O)ccc2CC1C(=O)NC1CCCc2ccccc21)C(C)(C)C

> <Shape>
0.271

> <Color>
0.067

> <Negative vol penalty>
0.000

$$$$

  -OEChem-04052304113D

 88 96  0     1  0  0  0  0  0999 V2000
  -28.5987  -24.8937   10.2617 C   0  0  0  0  0  0  0  0  0  0  0  0
  -29.3950  -24.1497   11.1263 C   0  0  0  0  0  0  0  0  0  0  0  0
  -23.0048   -9.8877   19.9733 C   0  0  0  0  0  0  0  0  0  0  0  0
  -23.7341   -9.9296   22.2762 C   0  0  0  0  0  0  0  0  0  0  0  0
  -28.4292  -26.2611   10.4746 C   0  0  0  0  0  0  0  0  0  0  0  0
  -30.0233  -24.7730   12.2039 C   0  0  0  0  0  0  0  0  0  0  0  0
  -29.6075  -22.1179   16.4960 C   0  0  0  0  0  0  0  0  0  0  0  0
  -22.2422   -8.7496   20.2355 C   0  0  0  0  0  0  0  0  0  0  0  0
  -22.9715   -8.7915   22.5384 C   0  0  0  0  0  0  0  0  0  0  0  0
  -30.4514  -21.0187   16.6491 C   0  0  0  0  0  0  0  0  0  0  0  0
  -21.5016   -5.6882   23.7294 C   0  0  0  0  0  0  0  0  0  0  0  0
  -22.0921   -4.6705   24.4786 C   0  0  0  0  0  0  0  0  0  0  0  0
  -31.9105  -22.3406   18.0429 C   0  0  0  0  0  0  0  0  0  0  0  0
  -23.8161   -4.4367   22.8021 C   0  0  0  0  0  0  0  0  0  0  0  0
  -29.7497  -17.6956   22.6911 C   0  0  0  0  0  0  0  0  0  0  0  0
  -23.7508  -10.4777   20.9936 C   0  0  0  0  0  0  0  0  0  0  0  0
  -24.1282  -12.9953   20.8292 C   0  0  0  0  0  0  0  0  0  0  0  0
  -29.0479  -26.8997   11.5609 C   0  0  0  0  0  0  0  0  0  0  0  0
  -29.9149  -23.3418   17.1074 C   0  0  0  0  0  0  0  0  0  0  0  0
  -29.8631  -26.1505   12.4308 C   0  0  0  0  0  0  0  0  0  0  0  0
  -31.0675  -23.4531   17.8982 C   0  0  0  0  0  0  0  0  0  0  0  0
  -31.5096  -19.3347   22.7185 C   0  0  0  0  0  0  0  0  0  0  0  0
  -22.2255   -8.2015   21.5180 C   0  0  0  0  0  0  0  0  0  0  0  0
  -31.6046  -21.1308   17.4202 C   0  0  0  0  0  0  0  0  0  0  0  0
  -22.0683   -6.0801   22.5165 C   0  0  0  0  0  0  0  0  0  0  0  0
  -23.2493   -4.0448   24.0150 C   0  0  0  0  0  0  0  0  0  0  0  0
  -23.2255   -5.4544   22.0530 C   0  0  0  0  0  0  0  0  0  0  0  0
  -30.2358  -18.9313   23.1033 C   0  0  0  0  0  0  0  0  0  0  0  0
  -24.5392  -11.6530   20.7233 C   0  0  0  0  0  0  0  0  0  0  0  0
  -30.5702  -16.9066   21.9011 C   0  0  0  0  0  0  0  0  0  0  0  0
  -32.2514  -18.4722   21.9274 C   0  0  0  0  0  0  0  0  0  0  0  0
  -25.2351  -13.7230   20.4663 C   0  0  0  0  0  0  0  0  0  0  0  0
  -22.8593  -13.5360   21.2207 C   0  0  0  0  0  0  0  0  0  0  0  0
  -30.5413  -26.2772   16.0608 C   0  0  0  0  0  0  0  0  0  0  0  0
  -33.4456  -18.5256   19.1484 C   0  0  0  0  0  0  0  0  0  0  0  0
  -30.4943  -26.9945   19.2240 C   0  0  0  0  0  0  0  0  0  0  0  0
  -30.8412  -25.9190   22.4442 C   0  0  0  0  0  0  0  0  0  0  0  0
  -30.7121  -14.6996   20.6949 C   0  0  0  0  0  0  0  0  0  0  0  0
  -28.8734  -28.3889   11.7231 C   0  0  0  0  0  0  0  0  0  0  0  0
  -28.9804  -24.5105   16.9544 C   0  0  0  0  0  0  0  0  0  0  0  0
  -31.4320  -24.7392   18.5921 C   0  0  0  0  0  0  0  0  0  0  0  0
  -29.2714  -28.9020   13.1046 C   0  0  0  0  0  0  0  0  0  0  0  0
  -29.5969  -12.2546   18.3591 C   0  0  0  0  0  0  0  0  0  0  0  0
  -30.6146  -28.3143   13.5258 C   0  0  0  0  0  0  0  0  0  0  0  0
  -28.1479  -11.9906   18.7746 C   0  0  0  0  0  0  0  0  0  0  0  0
  -30.4989  -12.4949   19.5684 C   0  0  0  0  0  0  0  0  0  0  0  0
  -28.5837  -13.2714   20.9092 C   0  0  0  0  0  0  0  0  0  0  0  0
  -30.5411  -26.7859   13.6253 C   0  0  1  0  0  0  0  0  0  0  0  0
  -29.6589  -25.8544   17.2012 C   0  0  1  0  0  0  0  0  0  0  0  0
  -27.6244  -13.0880   19.7219 C   0  0  2  0  0  0  0  0  0  0  0  0
  -30.7834  -26.7436   24.8135 C   0  0  0  0  0  0  0  0  0  0  0  0
  -31.3668  -20.4881   25.5885 C   0  0  0  0  0  0  0  0  0  0  0  0
  -33.6293  -19.6820   24.9144 C   0  0  0  0  0  0  0  0  0  0  0  0
  -33.1256  -22.1380   24.9492 C   0  0  0  0  0  0  0  0  0  0  0  0
  -33.2531  -28.2443   18.8537 C   0  0  0  0  0  0  0  0  0  0  0  0
  -33.5384  -28.1817   21.3402 C   0  0  0  0  0  0  0  0  0  0  0  0
  -31.7088  -29.5439   20.3304 C   0  0  0  0  0  0  0  0  0  0  0  0
  -28.5809  -24.1365   23.1319 C   0  0  0  0  0  0  0  0  0  0  0  0
  -32.0309  -20.6589   23.1628 C   0  0  0  0  0  0  0  0  0  0  0  0
  -34.2345  -18.3078   20.4221 C   0  0  0  0  0  0  0  0  0  0  0  0
  -33.1649  -19.9722   18.7910 C   0  0  0  0  0  0  0  0  0  1  0  0
  -31.5222  -27.0225   20.3293 C   0  0  1  0  0  0  0  0  0  0  0  0
  -29.9801  -26.1328   23.6759 C   0  0  2  0  0  0  0  0  0  0  0  0
  -32.5528  -20.7450   24.6348 C   0  0  0  0  0  0  0  0  0  0  0  0
  -32.5000  -28.2243   20.1989 C   0  0  0  0  0  0  0  0  0  0  0  0
  -25.8082  -11.5323   20.3241 N   0  0  0  0  0  0  0  0  0  0  0  0
  -31.8130  -17.2644   21.5072 N   0  0  0  0  0  0  0  0  0  0  0  0
  -26.2040  -12.8080   20.1760 N   0  0  0  0  0  0  0  0  0  0  0  0
  -30.4898  -25.8551   18.4070 N   0  0  0  0  0  0  0  0  0  0  0  0
  -29.9422  -13.5500   20.4179 N   0  0  0  0  0  0  0  0  0  0  0  0
  -25.4644  -15.0499   20.3702 N   0  0  0  0  0  0  0  0  0  0  0  0
  -21.8308  -12.6470   21.5618 N   0  0  0  0  0  0  0  0  0  0  0  0
  -30.0664  -15.6490   21.4863 N   0  0  0  0  0  0  0  0  0  0  0  0
  -33.5236  -18.8698   21.5419 N   0  0  0  0  0  0  0  0  0  0  0  0
  -29.8822  -26.3903   14.8516 N   0  0  0  0  0  0  0  0  0  0  0  0
  -30.7753  -26.9931   21.5821 N   0  0  0  0  0  0  0  0  0  0  0  0
  -29.4140  -24.8360   24.1437 N   0  3  0  0  0  0  0  0  0  0  0  0
  -22.6389  -14.7705   21.2509 O   0  0  0  0  0  0  0  0  0  0  0  0
  -31.7315  -26.4867   16.2634 O   0  0  0  0  0  0  0  0  0  0  0  0
  -33.0528  -17.5977   18.4423 O   0  0  0  0  0  0  0  0  0  0  0  0
  -29.7191  -27.9453   19.0949 O   0  0  0  0  0  0  0  0  0  0  0  0
  -31.5087  -24.9024   22.2664 O   0  0  0  0  0  0  0  0  0  0  0  0
  -31.8495  -14.8441   20.2394 O   0  0  0  0  0  0  0  0  0  0  0  0
  -21.4813   -7.0911   21.7743 O   0  0  0  0  0  0  0  0  0  0  0  0
  -32.4304  -20.0596   17.5707 O   0  0  0  0  0  0  0  0  0  1  0  0
  -23.8171   -3.0686   24.7353 F   0  0  0  0  0  0  0  0  0  0  0  0
  -23.7752   -5.8274   20.8891 F   0  0  0  0  0  0  0  0  0  0  0  0
  -29.4724  -19.7227   23.8697 F   0  0  0  0  0  0  0  0  0  0  0  0
  1  2  1  0  0  0  0
  1  5  2  0  0  0  0
  2  6  2  0  0  0  0
  3  8  2  0  0  0  0
  3 16  1  0  0  0  0
  4  9  1  0  0  0  0
  4 16  2  0  0  0  0
  5 18  1  0  0  0  0
  6 20  1  0  0  0  0
  7 10  2  0  0  0  0
  7 19  1  0  0  0  0
  8 23  1  0  0  0  0
  9 23  2  0  0  0  0
 10 24  1  0  0  0  0
 11 12  2  0  0  0  0
 11 25  1  0  0  0  0
 12 26  1  0  0  0  0
 13 21  1  0  0  0  0
 13 24  2  0  0  0  0
 14 26  2  0  0  0  0
 14 27  1  0  0  0  0
 15 28  2  0  0  0  0
 15 30  1  0  0  0  0
 16 29  1  0  0  0  0
 17 29  1  0  0  0  0
 17 32  2  0  0  0  0
 17 33  1  0  0  0  0
 18 20  2  0  0  0  0
 18 39  1  0  0  0  0
 19 21  2  0  0  0  0
 19 40  1  0  0  0  0
 20 48  1  0  0  0  0
 21 41  1  0  0  0  0
 22 28  1  0  0  0  0
 22 31  2  0  0  0  0
 22 59  1  0  0  0  0
 23 84  1  0  0  0  0
 24 85  1  0  0  0  0
 25 27  2  0  0  0  0
 25 84  1  0  0  0  0
 26 86  1  0  0  0  0
 27 87  1  0  0  0  0
 28 88  1  0  0  0  0
 29 66  2  0  0  0  0
 30 67  2  0  0  0  0
 30 73  1  0  0  0  0
 31 67  1  0  0  0  0
 31 74  1  0  0  0  0
 32 68  1  0  0  0  0
 32 71  1  0  0  0  0
 33 72  1  0  0  0  0
 33 78  2  0  0  0  0
 34 49  1  0  0  0  0
 34 75  1  0  0  0  0
 34 79  2  0  0  0  0
 35 60  1  0  0  0  0
 35 61  1  0  0  0  0
 35 80  2  0  0  0  0
 36 62  1  0  0  0  0
 36 69  1  0  0  0  0
 36 81  2  0  0  0  0
 37 63  1  0  0  0  0
 37 76  1  0  0  0  0
 37 82  2  0  0  0  0
 38 70  1  0  0  0  0
 38 73  1  0  0  0  0
 38 83  2  0  0  0  0
 39 42  1  0  0  0  0
 40 49  1  0  0  0  0
 41 69  1  0  0  0  0
 42 44  1  0  0  0  0
 43 45  1  0  0  0  0
 43 46  1  0  0  0  0
 44 48  1  0  0  0  0
 45 50  1  0  0  0  0
 46 70  1  0  0  0  0
 47 50  1  0  0  0  0
 47 70  1  0  0  0  0
 48 75  1  0  0  0  0
 49 69  1  0  0  0  0
 50 68  1  0  0  0  0
 51 63  1  0  0  0  0
 52 64  1  0  0  0  0
 53 64  1  0  0  0  0
 54 64  1  0  0  0  0
 55 65  1  0  0  0  0
 56 65  1  0  0  0  0
 57 65  1  0  0  0  0
 58 77  1  0  0  0  0
 59 64  1  0  0  0  0
 60 74  1  0  0  0  0
 61 85  1  0  0  0  0
 62 65  1  0  0  0  0
 62 76  1  0  0  0  0
 63 77  1  0  0  0  0
 66 68  1  0  0  0  0
M  CHG  1  77   1
M  ISO  4  38 100  61 101  73 100  85 101
M  END
> <Batch ID>
0167

> <Smiles>
CNC(C)C(=O)NC(C(=O)N1Cc2cc([101O:1][101CH2:1]C(=O)CNc3nc([100NH:0][100C:0](=O)N4CCCC(n5nc(-c6ccc(Oc7ccc(F)cc7F)cc6)c(C(N)=O)c5N)C4)cc(F)c3CC(C)(C)C)ccc2CC1C(=O)NC1CCCc2ccccc21)C(C)(C)C

> <Shape>
0.235

> <Color>
0.190

> <Negative vol penalty>
0.000

$$$$

  -OEChem-04052304113D

 90 98  0     1  0  0  0  0  0999 V2000
  -26.5558  -33.0536   26.7782 C   0  0  0  0  0  0  0  0  0  0  0  0
  -26.3343  -31.7447   26.3621 C   0  0  0  0  0  0  0  0  0  0  0  0
  -23.1372   -9.7352   19.9805 C   0  0  0  0  0  0  0  0  0  0  0  0
  -23.8355   -9.8649   22.2898 C   0  0  0  0  0  0  0  0  0  0  0  0
  -26.1064  -34.1176   25.9972 C   0  0  0  0  0  0  0  0  0  0  0  0
  -25.6623  -31.4991   25.1652 C   0  0  0  0  0  0  0  0  0  0  0  0
  -27.9043  -27.9138   22.3788 C   0  0  0  0  0  0  0  0  0  0  0  0
  -22.4159   -8.5754   20.2638 C   0  0  0  0  0  0  0  0  0  0  0  0
  -23.1141   -8.7052   22.5730 C   0  0  0  0  0  0  0  0  0  0  0  0
  -27.6962  -26.5888   22.7591 C   0  0  0  0  0  0  0  0  0  0  0  0
  -19.8919   -7.8513   23.1291 C   0  0  0  0  0  0  0  0  0  0  0  0
  -19.1054   -7.8443   24.2810 C   0  0  0  0  0  0  0  0  0  0  0  0
  -31.8812  -16.8195   22.5072 C   0  0  0  0  0  0  0  0  0  0  0  0
  -31.5819  -18.6353   24.0725 C   0  0  0  0  0  0  0  0  0  0  0  0
  -26.0242  -26.3627   21.0350 C   0  0  0  0  0  0  0  0  0  0  0  0
  -29.6613  -17.6350   23.0012 C   0  0  0  0  0  0  0  0  0  0  0  0
  -20.3746   -5.9748   25.1362 C   0  0  0  0  0  0  0  0  0  0  0  0
  -23.8470  -10.3799   20.9935 C   0  0  0  0  0  0  0  0  0  0  0  0
  -32.4216  -17.7582   23.3860 C   0  0  0  0  0  0  0  0  0  0  0  0
  -24.1289  -12.9052   20.7673 C   0  0  0  0  0  0  0  0  0  0  0  0
  -25.4371  -33.8850   24.7854 C   0  0  0  0  0  0  0  0  0  0  0  0
  -27.1649  -28.4775   21.3290 C   0  0  0  0  0  0  0  0  0  0  0  0
  -25.2024  -32.5610   24.3680 C   0  0  0  0  0  0  0  0  0  0  0  0
  -26.2266  -27.6944   20.6416 C   0  0  0  0  0  0  0  0  0  0  0  0
  -30.5010  -16.7579   22.3147 C   0  0  0  0  0  0  0  0  0  0  0  0
  -30.2017  -18.5737   23.8801 C   0  0  0  0  0  0  0  0  0  0  0  0
  -22.4043   -8.0604   21.5600 C   0  0  0  0  0  0  0  0  0  0  0  0
  -26.7541  -25.8138   22.0892 C   0  0  0  0  0  0  0  0  0  0  0  0
  -20.9198   -6.9201   22.9807 C   0  0  0  0  0  0  0  0  0  0  0  0
  -19.3467   -6.9061   25.2845 C   0  0  0  0  0  0  0  0  0  0  0  0
  -21.1612   -5.9819   23.9843 C   0  0  0  0  0  0  0  0  0  0  0  0
  -24.5928  -11.5777   20.7014 C   0  0  0  0  0  0  0  0  0  0  0  0
  -25.2114  -13.6658   20.3981 C   0  0  0  0  0  0  0  0  0  0  0  0
  -33.8606  -17.8223   23.5873 C   0  0  0  0  0  0  0  0  0  0  0  0
  -22.8353  -13.4060   21.1299 C   0  0  0  0  0  0  0  0  0  0  0  0
  -25.1051  -30.8853   21.0763 C   0  0  0  0  0  0  0  0  0  0  0  0
  -26.9739  -22.5807   23.8476 C   0  0  0  0  0  0  0  0  0  0  0  0
  -27.6703  -20.1810   26.7823 C   0  0  0  0  0  0  0  0  0  0  0  0
  -25.2985  -30.2058   17.9103 C   0  0  0  0  0  0  0  0  0  0  0  0
  -25.9823  -27.9144   15.4754 C   0  0  0  0  0  0  0  0  0  0  0  0
  -30.6433  -14.8604   20.6639 C   0  0  0  0  0  0  0  0  0  0  0  0
  -24.9283  -35.0669   23.9987 C   0  0  0  0  0  0  0  0  0  0  0  0
  -27.4202  -29.9003   20.9134 C   0  0  0  0  0  0  0  0  0  0  0  0
  -25.4213  -28.2461   19.4947 C   0  0  0  0  0  0  0  0  0  0  0  0
  -24.5548  -34.7247   22.5586 C   0  0  0  0  0  0  0  0  0  0  0  0
  -29.6526  -12.3144   18.3805 C   0  0  0  0  0  0  0  0  0  0  0  0
  -23.7155  -33.4518   22.5129 C   0  0  0  0  0  0  0  0  0  0  0  0
  -28.2098  -12.0050   18.7861 C   0  0  0  0  0  0  0  0  0  0  0  0
  -30.5295  -12.6207   19.5933 C   0  0  0  0  0  0  0  0  0  0  0  0
  -28.5691  -13.3565   20.8912 C   0  0  0  0  0  0  0  0  0  0  0  0
  -24.4991  -32.2542   23.0636 C   0  0  1  0  0  0  0  0  0  0  0  0
  -26.2454  -30.5246   20.1667 C   0  0  1  0  0  0  0  0  0  0  0  0
  -27.6325  -13.1052   19.6982 C   0  0  2  0  0  0  0  0  0  0  0  0
  -27.2058  -18.9347   28.9329 C   0  0  0  0  0  0  0  0  0  0  0  0
  -26.0145  -27.6405   12.9811 C   0  0  0  0  0  0  0  0  0  0  0  0
  -22.2541  -30.0020   17.8958 C   0  0  0  0  0  0  0  0  0  0  0  0
  -22.4130  -28.8238   15.6925 C   0  0  0  0  0  0  0  0  0  0  0  0
  -23.2310  -31.1702   15.9120 C   0  0  0  0  0  0  0  0  0  0  0  0
  -28.8847  -27.3358   15.4601 C   0  0  0  0  0  0  0  0  0  0  0  0
  -27.7404  -21.9424   24.9986 C   0  0  0  0  0  0  0  0  0  0  0  0
  -26.7444  -19.2241   27.5160 C   0  0  0  0  0  0  0  0  0  0  0  0
  -27.3331  -24.0218   23.5415 C   0  0  0  0  0  0  0  0  0  1  0  0
  -27.9308  -19.4523   24.4247 C   0  0  0  0  0  0  0  0  0  0  0  0
  -27.2953  -20.5088   25.3362 C   0  0  1  0  0  0  0  0  0  0  0  0
  -24.5556  -29.2921   16.9656 C   0  0  1  0  0  0  0  0  0  0  0  0
  -26.8247  -28.0041   14.2157 C   0  0  2  0  0  0  0  0  0  0  0  0
  -23.1271  -29.8119   16.6393 C   0  0  0  0  0  0  0  0  0  0  0  0
  -25.8703  -11.4962   20.3202 N   0  0  0  0  0  0  0  0  0  0  0  0
  -34.7038  -17.0383   22.9837 N   0  0  0  0  0  0  0  0  0  0  0  0
  -26.2184  -12.7821   20.1432 N   0  0  0  0  0  0  0  0  0  0  0  0
  -25.7027  -29.6444   19.1299 N   0  0  0  0  0  0  0  0  0  0  0  0
  -29.9219  -13.6750   20.4083 N   0  0  0  0  0  0  0  0  0  0  0  0
  -25.3904  -14.9977   20.2699 N   0  0  0  0  0  0  0  0  0  0  0  0
  -21.8378  -12.4868   21.4824 N   0  0  0  0  0  0  0  0  0  0  0  0
  -29.9516  -15.8040   21.4226 N   0  0  0  0  0  0  0  0  0  0  0  0
  -29.3668  -19.4452   24.5623 N   0  0  0  0  0  0  0  0  0  0  0  0
  -25.4446  -31.7731   22.0792 N   0  0  0  0  0  0  0  0  0  0  0  0
  -25.4134  -29.1285   15.7970 N   0  0  0  0  0  0  0  0  0  0  0  0
  -27.9885  -27.0774   14.3038 N   0  3  0  0  0  0  0  0  0  0  0  0
  -22.5671  -14.6314   21.1251 O   0  0  0  0  0  0  0  0  0  0  0  0
  -23.9988  -30.3955   20.8816 O   0  0  0  0  0  0  0  0  0  0  0  0
  -26.0993  -21.9869   23.2194 O   0  0  0  0  0  0  0  0  0  0  0  0
  -28.6835  -20.6454   27.3055 O   0  0  0  0  0  0  0  0  0  0  0  0
  -25.5185  -31.3724   17.5754 O   0  0  0  0  0  0  0  0  0  0  0  0
  -25.8399  -26.8706   16.1086 O   0  0  0  0  0  0  0  0  0  0  0  0
  -31.7798  -15.0373   20.2179 O   0  0  0  0  0  0  0  0  0  0  0  0
  -21.7003   -6.9289   21.8368 O   0  0  0  0  0  0  0  0  0  0  0  0
  -26.5485  -24.5204   22.4588 O   0  0  0  0  0  0  0  0  0  1  0  0
  -18.5923   -6.9004   26.3913 F   0  0  0  0  0  0  0  0  0  0  0  0
  -22.1480   -5.0855   23.8479 F   0  0  0  0  0  0  0  0  0  0  0  0
  1  2  1  0  0  0  0
  1  5  2  0  0  0  0
  2  6  2  0  0  0  0
  3  8  2  0  0  0  0
  3 18  1  0  0  0  0
  4  9  1  0  0  0  0
  4 18  2  0  0  0  0
  5 21  1  0  0  0  0
  6 23  1  0  0  0  0
  7 10  2  0  0  0  0
  7 22  1  0  0  0  0
  8 27  1  0  0  0  0
  9 27  2  0  0  0  0
 10 28  1  0  0  0  0
 11 12  2  0  0  0  0
 11 29  1  0  0  0  0
 12 30  1  0  0  0  0
 13 19  1  0  0  0  0
 13 25  2  0  0  0  0
 14 19  2  0  0  0  0
 14 26  1  0  0  0  0
 15 24  1  0  0  0  0
 15 28  2  0  0  0  0
 16 25  1  0  0  0  0
 16 26  2  0  0  0  0
 17 30  2  0  0  0  0
 17 31  1  0  0  0  0
 18 32  1  0  0  0  0
 19 34  1  0  0  0  0
 20 32  1  0  0  0  0
 20 33  2  0  0  0  0
 20 35  1  0  0  0  0
 21 23  2  0  0  0  0
 21 42  1  0  0  0  0
 22 24  2  0  0  0  0
 22 43  1  0  0  0  0
 23 51  1  0  0  0  0
 24 44  1  0  0  0  0
 25 75  1  0  0  0  0
 26 76  1  0  0  0  0
 27 87  1  0  0  0  0
 28 88  1  0  0  0  0
 29 31  2  0  0  0  0
 29 87  1  0  0  0  0
 30 89  1  0  0  0  0
 31 90  1  0  0  0  0
 32 68  2  0  0  0  0
 33 70  1  0  0  0  0
 33 73  1  0  0  0  0
 34 69  2  0  0  0  0
 35 74  1  0  0  0  0
 35 80  2  0  0  0  0
 36 52  1  0  0  0  0
 36 77  1  0  0  0  0
 36 81  2  0  0  0  0
 37 60  1  0  0  0  0
 37 62  1  0  0  0  0
 37 82  2  0  0  0  0
 38 61  1  0  0  0  0
 38 64  1  0  0  0  0
 38 83  2  0  0  0  0
 39 65  1  0  0  0  0
 39 71  1  0  0  0  0
 39 84  2  0  0  0  0
 40 66  1  0  0  0  0
 40 78  1  0  0  0  0
 40 85  2  0  0  0  0
 41 72  1  0  0  0  0
 41 75  1  0  0  0  0
 41 86  2  0  0  0  0
 42 45  1  0  0  0  0
 43 52  1  0  0  0  0
 44 71  1  0  0  0  0
 45 47  1  0  0  0  0
 46 48  1  0  0  0  0
 46 49  1  0  0  0  0
 47 51  1  0  0  0  0
 48 53  1  0  0  0  0
 49 72  1  0  0  0  0
 50 53  1  0  0  0  0
 50 72  1  0  0  0  0
 51 77  1  0  0  0  0
 52 71  1  0  0  0  0
 53 70  1  0  0  0  0
 54 61  1  0  0  0  0
 55 66  1  0  0  0  0
 56 67  1  0  0  0  0
 57 67  1  0  0  0  0
 58 67  1  0  0  0  0
 59 79  1  0  0  0  0
 60 64  1  0  0  0  0
 62 88  1  0  0  0  0
 63 64  1  0  0  0  0
 63 76  1  0  0  0  0
 65 67  1  0  0  0  0
 65 78  1  0  0  0  0
 66 79  1  0  0  0  0
 68 70  1  0  0  0  0
M  CHG  1  79   1
M  ISO  4  41 100  62 101  75 100  88 101
M  END
> <Batch ID>
0167

> <Smiles>
CCC(=O)C(CNc1cc(C=N)cc([100NH:0][100C:0](=O)N2CCCC(n3nc(-c4ccc(Oc5ccc(F)cc5F)cc4)c(C(N)=O)c3N)C2)c1)CC(=O)[101CH2:1][101O:1]c1ccc2c(c1)CN(C(=O)C(NC(=O)C(C)NC)C(C)(C)C)C(C(=O)NC1CCCc3ccccc31)C2

> <Shape>
0.284

> <Color>
0.184

> <Negative vol penalty>
0.000

$$$$

  -OEChem-04052304113D

 87 95  0     1  0  0  0  0  0999 V2000
  -22.6749  -35.5325   16.0241 C   0  0  0  0  0  0  0  0  0  0  0  0
  -23.3193  -34.3023   15.9408 C   0  0  0  0  0  0  0  0  0  0  0  0
  -23.8890  -11.5307   23.6330 C   0  0  0  0  0  0  0  0  0  0  0  0
  -24.4191  -13.8717   23.9086 C   0  0  0  0  0  0  0  0  0  0  0  0
  -22.8240  -36.3203   17.1647 C   0  0  0  0  0  0  0  0  0  0  0  0
  -24.1140  -33.8598   16.9977 C   0  0  0  0  0  0  0  0  0  0  0  0
  -24.8388  -28.0806   18.8901 C   0  0  0  0  0  0  0  0  0  0  0  0
  -31.8828  -17.9394   21.2174 C   0  0  0  0  0  0  0  0  0  0  0  0
  -31.3782  -19.1620   21.6601 C   0  0  0  0  0  0  0  0  0  0  0  0
  -23.3775  -11.4938   24.9301 C   0  0  0  0  0  0  0  0  0  0  0  0
  -23.9075  -13.8348   25.2057 C   0  0  0  0  0  0  0  0  0  0  0  0
  -25.8337  -27.1334   18.6518 C   0  0  0  0  0  0  0  0  0  0  0  0
  -21.6026  -10.8729   28.0413 C   0  0  0  0  0  0  0  0  0  0  0  0
  -20.3845  -10.2230   28.2397 C   0  0  0  0  0  0  0  0  0  0  0  0
  -29.5240  -18.9524   20.1255 C   0  0  0  0  0  0  0  0  0  0  0  0
  -26.9109  -27.7535   20.7192 C   0  0  0  0  0  0  0  0  0  0  0  0
  -19.3154  -11.7604   26.7132 C   0  0  0  0  0  0  0  0  0  0  0  0
  -24.4099  -12.7197   23.1222 C   0  0  0  0  0  0  0  0  0  0  0  0
  -30.0287  -17.7298   19.6827 C   0  0  0  0  0  0  0  0  0  0  0  0
  -24.2368  -13.0568   20.5995 C   0  0  0  0  0  0  0  0  0  0  0  0
  -23.6131  -35.8829   18.2401 C   0  0  0  0  0  0  0  0  0  0  0  0
  -24.8785  -28.8804   20.0413 C   0  0  0  0  0  0  0  0  0  0  0  0
  -24.2749  -34.6432   18.1532 C   0  0  0  0  0  0  0  0  0  0  0  0
  -25.9140  -28.7084   20.9711 C   0  0  0  0  0  0  0  0  0  0  0  0
  -31.2081  -17.2233   20.2286 C   0  0  0  0  0  0  0  0  0  0  0  0
  -30.1987  -19.6685   21.1142 C   0  0  0  0  0  0  0  0  0  0  0  0
  -23.3867  -12.6459   25.7165 C   0  0  0  0  0  0  0  0  0  0  0  0
  -26.8715  -26.9717   19.5650 C   0  0  0  0  0  0  0  0  0  0  0  0
  -21.6771  -11.9666   27.1788 C   0  0  0  0  0  0  0  0  0  0  0  0
  -19.2409  -10.6667   27.5757 C   0  0  0  0  0  0  0  0  0  0  0  0
  -20.5336  -12.4104   26.5147 C   0  0  0  0  0  0  0  0  0  0  0  0
  -24.9390  -12.7583   21.7826 C   0  0  0  0  0  0  0  0  0  0  0  0
  -25.1807  -12.9608   19.6064 C   0  0  0  0  0  0  0  0  0  0  0  0
  -30.1036  -21.9441   20.9193 C   0  0  0  0  0  0  0  0  0  0  0  0
  -29.3043  -17.0025   18.6491 C   0  0  0  0  0  0  0  0  0  0  0  0
  -22.8548  -13.3910   20.4148 C   0  0  0  0  0  0  0  0  0  0  0  0
  -25.1106  -32.0013   20.5976 C   0  0  0  0  0  0  0  0  0  0  0  0
  -28.9276  -24.0476   20.1643 C   0  0  0  0  0  0  0  0  0  0  0  0
  -24.6366  -31.0926   23.6752 C   0  0  0  0  0  0  0  0  0  0  0  0
  -24.8399  -28.6351   26.0346 C   0  0  0  0  0  0  0  0  0  0  0  0
  -31.1417  -13.5237   19.5789 C   0  0  0  0  0  0  0  0  0  0  0  0
  -23.7824  -36.7905   19.4327 C   0  0  0  0  0  0  0  0  0  0  0  0
  -23.7833  -29.8791   20.2970 C   0  0  0  0  0  0  0  0  0  0  0  0
  -25.9914  -29.5279   22.2324 C   0  0  0  0  0  0  0  0  0  0  0  0
  -24.3405  -36.0811   20.6637 C   0  0  0  0  0  0  0  0  0  0  0  0
  -29.2532  -10.6982   18.5174 C   0  0  0  0  0  0  0  0  0  0  0  0
  -25.5344  -35.2112   20.2831 C   0  0  0  0  0  0  0  0  0  0  0  0
  -27.8701  -10.9327   19.1271 C   0  0  0  0  0  0  0  0  0  0  0  0
  -30.3677  -11.1743   19.4466 C   0  0  0  0  0  0  0  0  0  0  0  0
  -28.8579  -12.8065   20.5097 C   0  0  0  0  0  0  0  0  0  0  0  0
  -25.1255  -34.1175   19.2891 C   0  0  1  0  0  0  0  0  0  0  0  0
  -24.2030  -30.9958   21.2479 C   0  0  1  0  0  0  0  0  0  0  0  0
  -27.6997  -12.3935   19.5855 C   0  0  2  0  0  0  0  0  0  0  0  0
  -27.8928  -16.5945   18.9514 C   0  0  0  0  0  0  0  0  0  0  0  0
  -24.4152  -28.2022   28.4696 C   0  0  0  0  0  0  0  0  0  0  0  0
  -27.1738  -32.6300   24.3885 C   0  0  0  0  0  0  0  0  0  0  0  0
  -27.2210  -31.4023   26.5700 C   0  0  0  0  0  0  0  0  0  0  0  0
  -25.2991  -32.8954   26.0224 C   0  0  0  0  0  0  0  0  0  0  0  0
  -22.8489  -26.5299   25.4322 C   0  0  0  0  0  0  0  0  0  0  0  0
  -31.7709  -15.9166   19.7729 C   0  0  0  0  0  0  0  0  0  0  0  0
  -29.6174  -23.3146   21.2949 C   0  0  0  0  0  0  0  0  0  0  0  0
  -28.4602  -25.4549   20.4768 C   0  0  0  0  0  0  0  0  0  1  0  0
  -25.5327  -30.6840   24.8194 C   0  0  1  0  0  0  0  0  0  0  0  0
  -23.8390  -28.1414   27.0636 C   0  0  2  0  0  0  0  0  0  0  0  0
  -26.3066  -31.8887   25.4255 C   0  0  0  0  0  0  0  0  0  0  0  0
  -26.2294  -12.4924   21.5631 N   0  0  0  0  0  0  0  0  0  0  0  0
  -29.6907  -20.9001   21.5605 N   0  0  0  0  0  0  0  0  0  0  0  0
  -26.3455  -12.6235   20.2307 N   0  0  0  0  0  0  0  0  0  0  0  0
  -24.9004  -30.4956   22.4343 N   0  0  0  0  0  0  0  0  0  0  0  0
  -30.1475  -12.5672   19.8430 N   0  0  0  0  0  0  0  0  0  0  0  0
  -25.1197  -13.1328   18.2688 N   0  0  0  0  0  0  0  0  0  0  0  0
  -22.0241  -13.4456   21.5423 N   0  0  0  0  0  0  0  0  0  0  0  0
  -24.4451  -33.0400   19.9749 N   0  0  0  0  0  0  0  0  0  0  0  0
  -24.6820  -29.9797   25.7727 N   0  0  0  0  0  0  0  0  0  0  0  0
  -30.8501  -14.8213   19.9813 N   0  0  0  0  0  0  0  0  0  0  0  0
  -23.4520  -26.7315   26.7748 N   0  3  0  0  0  0  0  0  0  0  0  0
  -29.7661  -16.6944   17.5499 O   0  0  0  0  0  0  0  0  0  0  0  0
  -22.3673  -13.6179   19.2815 O   0  0  0  0  0  0  0  0  0  0  0  0
  -26.3248  -31.8471   20.6577 O   0  0  0  0  0  0  0  0  0  0  0  0
  -28.7502  -23.5328   19.0611 O   0  0  0  0  0  0  0  0  0  0  0  0
  -23.7314  -31.9059   23.8768 O   0  0  0  0  0  0  0  0  0  0  0  0
  -25.6803  -27.9023   25.5177 O   0  0  0  0  0  0  0  0  0  0  0  0
  -32.2078  -13.2431   19.0206 O   0  0  0  0  0  0  0  0  0  0  0  0
  -22.8874  -12.6103   26.9822 O   0  0  0  0  0  0  0  0  0  0  0  0
  -27.8441  -26.0483   19.3345 O   0  0  0  0  0  0  0  0  0  1  0  0
  -18.0715  -10.0416   27.7652 F   0  0  0  0  0  0  0  0  0  0  0  0
  -20.5992  -13.4599   25.6840 F   0  0  0  0  0  0  0  0  0  0  0  0
  1  2  1  0  0  0  0
  1  5  2  0  0  0  0
  2  6  2  0  0  0  0
  3 10  2  0  0  0  0
  3 18  1  0  0  0  0
  4 11  1  0  0  0  0
  4 18  2  0  0  0  0
  5 21  1  0  0  0  0
  6 23  1  0  0  0  0
  7 12  2  0  0  0  0
  7 22  1  0  0  0  0
  8  9  2  0  0  0  0
  8 25  1  0  0  0  0
  9 26  1  0  0  0  0
 10 27  1  0  0  0  0
 11 27  2  0  0  0  0
 12 28  1  0  0  0  0
 13 14  2  0  0  0  0
 13 29  1  0  0  0  0
 14 30  1  0  0  0  0
 15 19  1  0  0  0  0
 15 26  2  0  0  0  0
 16 24  1  0  0  0  0
 16 28  2  0  0  0  0
 17 30  2  0  0  0  0
 17 31  1  0  0  0  0
 18 32  1  0  0  0  0
 19 25  2  0  0  0  0
 19 35  1  0  0  0  0
 20 32  1  0  0  0  0
 20 33  2  0  0  0  0
 20 36  1  0  0  0  0
 21 23  2  0  0  0  0
 21 42  1  0  0  0  0
 22 24  2  0  0  0  0
 22 43  1  0  0  0  0
 23 51  1  0  0  0  0
 24 44  1  0  0  0  0
 25 60  1  0  0  0  0
 26 67  1  0  0  0  0
 27 84  1  0  0  0  0
 28 85  1  0  0  0  0
 29 31  2  0  0  0  0
 29 84  1  0  0  0  0
 30 86  1  0  0  0  0
 31 87  1  0  0  0  0
 32 66  2  0  0  0  0
 33 68  1  0  0  0  0
 33 71  1  0  0  0  0
 34 61  1  0  0  0  0
 34 67  2  0  0  0  0
 35 54  1  0  0  0  0
 35 77  2  0  0  0  0
 36 72  1  0  0  0  0
 36 78  2  0  0  0  0
 37 52  1  0  0  0  0
 37 73  1  0  0  0  0
 37 79  2  0  0  0  0
 38 61  1  0  0  0  0
 38 62  1  0  0  0  0
 38 80  2  0  0  0  0
 39 63  1  0  0  0  0
 39 69  1  0  0  0  0
 39 81  2  0  0  0  0
 40 64  1  0  0  0  0
 40 74  1  0  0  0  0
 40 82  2  0  0  0  0
 41 70  1  0  0  0  0
 41 75  1  0  0  0  0
 41 83  2  0  0  0  0
 42 45  1  0  0  0  0
 43 52  1  0  0  0  0
 44 69  1  0  0  0  0
 45 47  1  0  0  0  0
 46 48  1  0  0  0  0
 46 49  1  0  0  0  0
 47 51  1  0  0  0  0
 48 53  1  0  0  0  0
 49 70  1  0  0  0  0
 50 53  1  0  0  0  0
 50 70  1  0  0  0  0
 51 73  1  0  0  0  0
 52 69  1  0  0  0  0
 53 68  1  0  0  0  0
 55 64  1  0  0  0  0
 56 65  1  0  0  0  0
 57 65  1  0  0  0  0
 58 65  1  0  0  0  0
 59 76  1  0  0  0  0
 60 75  1  0  0  0  0
 62 85  1  0  0  0  0
 63 65  1  0  0  0  0
 63 74  1  0  0  0  0
 64 76  1  0  0  0  0
 66 68  1  0  0  0  0
M  CHG  1  76   1
M  ISO  4  41 100  62 101  75 100  85 101
M  END
> <Batch ID>
0167

> <Smiles>
CNC(C)C(=O)NC(C(=O)N1Cc2cc([101O:1][101CH2:1]C(=O)C=CNc3ccc(C[100NH:0][100C:0](=O)N4CCCC(n5nc(-c6ccc(Oc7ccc(F)cc7F)cc6)c(C(N)=O)c5N)C4)c(C(C)=O)c3)ccc2CC1C(=O)NC1CCCc2ccccc21)C(C)(C)C

> <Shape>
0.251

> <Color>
0.121

> <Negative vol penalty>
0.000

$$$$

  -OEChem-04052304113D

 85 94  0     1  0  0  0  0  0999 V2000
  -27.0811  -34.1408   26.9056 C   0  0  0  0  0  0  0  0  0  0  0  0
  -27.2888  -32.8658   26.3892 C   0  0  0  0  0  0  0  0  0  0  0  0
  -24.3305   -8.9746   21.4639 C   0  0  0  0  0  0  0  0  0  0  0  0
  -24.5765  -10.4856   23.3329 C   0  0  0  0  0  0  0  0  0  0  0  0
  -25.8201  -34.7294   26.8200 C   0  0  0  0  0  0  0  0  0  0  0  0
  -26.2353  -32.1782   25.7877 C   0  0  0  0  0  0  0  0  0  0  0  0
  -29.7538  -20.3710   19.7709 C   0  0  0  0  0  0  0  0  0  0  0  0
  -27.5928  -29.9588   21.4430 C   0  0  0  0  0  0  0  0  0  0  0  0
  -29.7012  -18.9974   19.5343 C   0  0  0  0  0  0  0  0  0  0  0  0
  -24.0029   -7.9416   22.3420 C   0  0  0  0  0  0  0  0  0  0  0  0
  -24.2488   -9.4527   24.2112 C   0  0  0  0  0  0  0  0  0  0  0  0
  -28.3096  -28.7664   21.5339 C   0  0  0  0  0  0  0  0  0  0  0  0
  -21.2960   -6.9283   24.0967 C   0  0  0  0  0  0  0  0  0  0  0  0
  -20.2093   -6.1180   23.7678 C   0  0  0  0  0  0  0  0  0  0  0  0
  -26.2861  -27.5245   21.1067 C   0  0  0  0  0  0  0  0  0  0  0  0
  -27.2883  -19.0732   19.6298 C   0  0  0  0  0  0  0  0  0  0  0  0
  -21.6594   -4.1858   23.7369 C   0  0  0  0  0  0  0  0  0  0  0  0
  -24.6173  -10.2466   21.9593 C   0  0  0  0  0  0  0  0  0  0  0  0
  -24.0718  -12.2197   20.4371 C   0  0  0  0  0  0  0  0  0  0  0  0
  -24.7530  -34.0525   26.2086 C   0  0  0  0  0  0  0  0  0  0  0  0
  -26.2130  -29.9425   21.1937 C   0  0  0  0  0  0  0  0  0  0  0  0
  -24.9585  -32.7578   25.6951 C   0  0  0  0  0  0  0  0  0  0  0  0
  -28.5736  -21.0958   19.9371 C   0  0  0  0  0  0  0  0  0  0  0  0
  -25.5546  -28.7181   21.0105 C   0  0  0  0  0  0  0  0  0  0  0  0
  -28.4685  -18.3485   19.4637 C   0  0  0  0  0  0  0  0  0  0  0  0
  -23.9620   -8.1806   23.7157 C   0  0  0  0  0  0  0  0  0  0  0  0
  -27.6558  -27.5490   21.3687 C   0  0  0  0  0  0  0  0  0  0  0  0
  -22.5644   -6.3673   24.2456 C   0  0  0  0  0  0  0  0  0  0  0  0
  -20.3910   -4.7468   23.5880 C   0  0  0  0  0  0  0  0  0  0  0  0
  -27.3409  -20.4469   19.8665 C   0  0  0  0  0  0  0  0  0  0  0  0
  -22.7461   -4.9961   24.0658 C   0  0  0  0  0  0  0  0  0  0  0  0
  -24.9564  -11.3140   21.0527 C   0  0  0  0  0  0  0  0  0  0  0  0
  -24.8817  -13.0284   19.6779 C   0  0  0  0  0  0  0  0  0  0  0  0
  -29.9473  -23.9935   21.5966 C   0  0  0  0  0  0  0  0  0  0  0  0
  -22.6455  -12.3210   20.5423 C   0  0  0  0  0  0  0  0  0  0  0  0
  -23.6350  -30.9109   22.7813 C   0  0  0  0  0  0  0  0  0  0  0  0
  -22.1127  -30.0753   20.0414 C   0  0  0  0  0  0  0  0  0  0  0  0
  -22.1000  -28.2000   17.1902 C   0  0  0  0  0  0  0  0  0  0  0  0
  -29.4915  -16.0856   19.0403 C   0  0  0  0  0  0  0  0  0  0  0  0
  -23.3961  -34.7104   26.1818 C   0  0  0  0  0  0  0  0  0  0  0  0
  -25.4591  -31.2384   21.0720 C   0  0  0  0  0  0  0  0  0  0  0  0
  -24.0783  -28.6471   20.7209 C   0  0  0  0  0  0  0  0  0  0  0  0
  -22.4261  -34.0660   25.1948 C   0  0  0  0  0  0  0  0  0  0  0  0
  -29.7762  -12.5833   18.4662 C   0  0  0  0  0  0  0  0  0  0  0  0
  -22.4545  -32.5472   25.3329 C   0  0  0  0  0  0  0  0  0  0  0  0
  -28.4749  -12.0153   19.0373 C   0  0  0  0  0  0  0  0  0  0  0  0
  -30.3001  -13.7504   19.3010 C   0  0  0  0  0  0  0  0  0  0  0  0
  -28.0297  -14.2598   20.1103 C   0  0  0  0  0  0  0  0  0  0  0  0
  -29.2892  -23.2970   19.0090 C   0  0  0  0  0  0  0  0  0  0  0  0
  -28.6352  -22.5903   20.1923 C   0  0  2  0  0  0  0  0  0  0  0  0
  -23.8469  -31.9900   25.0131 C   0  0  1  0  0  0  0  0  0  0  0  0
  -30.1225  -25.0492   20.5387 C   0  0  2  0  0  0  0  0  0  0  0  0
  -23.9625  -31.0851   21.3252 C   0  0  1  0  0  0  0  0  0  0  0  0
  -27.4288  -13.1239   19.2663 C   0  0  2  0  0  0  0  0  0  0  0  0
  -20.7034  -27.7030   15.1654 C   0  0  0  0  0  0  0  0  0  0  0  0
  -20.2663  -28.3422   21.7435 C   0  0  0  0  0  0  0  0  0  0  0  0
  -19.5487  -27.1724   19.6495 C   0  0  0  0  0  0  0  0  0  0  0  0
  -19.1174  -29.6142   19.9223 C   0  0  0  0  0  0  0  0  0  0  0  0
  -24.2000  -29.1908   15.3551 C   0  0  0  0  0  0  0  0  0  0  0  0
  -29.7254  -26.4166   21.0684 C   0  0  0  0  0  0  0  0  0  1  0  0
  -21.4795  -28.8109   19.5131 C   0  0  1  0  0  0  0  0  0  0  0  0
  -21.8133  -28.5660   15.7451 C   0  0  2  0  0  0  0  0  0  0  0  0
  -20.1304  -28.4858   20.2145 C   0  0  0  0  0  0  0  0  0  0  0  0
  -26.2307  -11.5267   20.7137 N   0  0  0  0  0  0  0  0  0  0  0  0
  -29.3137  -22.8803   21.4654 N   0  0  0  0  0  0  0  0  0  0  0  0
  -26.1527  -12.5753   19.8768 N   0  0  0  0  0  0  0  0  0  0  0  0
  -23.3838  -29.9411   20.6176 N   0  0  0  0  0  0  0  0  0  0  0  0
  -29.2564  -14.7633   19.4727 N   0  0  0  0  0  0  0  0  0  0  0  0
  -24.6236  -14.0757   18.8661 N   0  0  0  0  0  0  0  0  0  0  0  0
  -21.9699  -11.4106   21.3664 N   0  0  0  0  0  0  0  0  0  0  0  0
  -28.4152  -16.9528   19.2253 N   0  0  0  0  0  0  0  0  0  0  0  0
  -24.0603  -31.9535   23.5822 N   0  0  0  0  0  0  0  0  0  0  0  0
  -21.3761  -28.9792   18.0677 N   0  0  0  0  0  0  0  0  0  0  0  0
  -29.3130  -24.7509   19.3230 N   0  3  0  0  0  0  0  0  0  0  0  0
  -23.0352  -28.3822   14.9119 N   0  3  0  0  0  0  0  0  0  0  0  0
  -21.9878  -13.1828   19.9111 O   0  0  0  0  0  0  0  0  0  0  0  0
  -23.0393  -29.9056   23.1505 O   0  0  0  0  0  0  0  0  0  0  0  0
  -21.5049  -31.1440   19.9400 O   0  0  0  0  0  0  0  0  0  0  0  0
  -22.8847  -27.3093   17.5086 O   0  0  0  0  0  0  0  0  0  0  0  0
  -30.5586  -16.4174   18.5175 O   0  0  0  0  0  0  0  0  0  0  0  0
  -23.6421   -7.1730   24.5729 O   0  0  0  0  0  0  0  0  0  0  0  0
  -28.3529  -26.3836   21.4575 O   0  0  0  0  0  0  0  0  0  1  0  0
  -19.3470   -3.9686   23.2737 F   0  0  0  0  0  0  0  0  0  0  0  0
  -26.2015  -21.1348   20.0247 F   0  0  0  0  0  0  0  0  0  0  0  0
  -23.9620   -4.4513   24.2087 F   0  0  0  0  0  0  0  0  0  0  0  0
  1  2  1  0  0  0  0
  1  5  2  0  0  0  0
  2  6  2  0  0  0  0
  3 10  2  0  0  0  0
  3 18  1  0  0  0  0
  4 11  1  0  0  0  0
  4 18  2  0  0  0  0
  5 20  1  0  0  0  0
  6 22  1  0  0  0  0
  7  9  2  0  0  0  0
  7 23  1  0  0  0  0
  8 12  2  0  0  0  0
  8 21  1  0  0  0  0
  9 25  1  0  0  0  0
 10 26  1  0  0  0  0
 11 26  2  0  0  0  0
 12 27  1  0  0  0  0
 13 14  2  0  0  0  0
 13 28  1  0  0  0  0
 14 29  1  0  0  0  0
 15 24  1  0  0  0  0
 15 27  2  0  0  0  0
 16 25  2  0  0  0  0
 16 30  1  0  0  0  0
 17 29  2  0  0  0  0
 17 31  1  0  0  0  0
 18 32  1  0  0  0  0
 19 32  1  0  0  0  0
 19 33  2  0  0  0  0
 19 35  1  0  0  0  0
 20 22  2  0  0  0  0
 20 40  1  0  0  0  0
 21 24  2  0  0  0  0
 21 41  1  0  0  0  0
 22 51  1  0  0  0  0
 23 30  2  0  0  0  0
 23 50  1  0  0  0  0
 24 42  1  0  0  0  0
 25 71  1  0  0  0  0
 26 81  1  0  0  0  0
 27 82  1  0  0  0  0
 28 31  2  0  0  0  0
 28 81  1  0  0  0  0
 29 83  1  0  0  0  0
 30 84  1  0  0  0  0
 31 85  1  0  0  0  0
 32 64  2  0  0  0  0
 33 66  1  0  0  0  0
 33 69  1  0  0  0  0
 34 52  1  0  0  0  0
 34 65  2  0  0  0  0
 35 70  1  0  0  0  0
 35 76  2  0  0  0  0
 36 53  1  0  0  0  0
 36 72  1  0  0  0  0
 36 77  2  0  0  0  0
 37 61  1  0  0  0  0
 37 67  1  0  0  0  0
 37 78  2  0  0  0  0
 38 62  1  0  0  0  0
 38 73  1  0  0  0  0
 38 79  2  0  0  0  0
 39 68  1  0  0  0  0
 39 71  1  0  0  0  0
 39 80  2  0  0  0  0
 40 43  1  0  0  0  0
 41 53  1  0  0  0  0
 42 67  1  0  0  0  0
 43 45  1  0  0  0  0
 44 46  1  0  0  0  0
 44 47  1  0  0  0  0
 45 51  1  0  0  0  0
 46 54  1  0  0  0  0
 47 68  1  0  0  0  0
 48 54  1  0  0  0  0
 48 68  1  0  0  0  0
 49 50  1  0  0  0  0
 49 74  1  0  0  0  0
 50 65  1  0  0  0  0
 51 72  1  0  0  0  0
 52 60  1  0  0  0  0
 52 74  1  0  0  0  0
 53 67  1  0  0  0  0
 54 66  1  0  0  0  0
 55 62  1  0  0  0  0
 56 63  1  0  0  0  0
 57 63  1  0  0  0  0
 58 63  1  0  0  0  0
 59 75  1  0  0  0  0
 60 82  1  0  0  0  0
 61 63  1  0  0  0  0
 61 73  1  0  0  0  0
 62 75  1  0  0  0  0
 64 66  1  0  0  0  0
M  CHG  2  74   1  75   1
M  ISO  4  39 100  60 101  71 100  82 101
M  END
> <Batch ID>
0167

> <Smiles>
CNC(C)C(=O)NC(C(=O)N1Cc2cc([101O:1][101CH2:1]C3=NCC(c4ccc([100NH:0][100C:0](=O)N5CCCC(n6nc(-c7ccc(Oc8ccc(F)cc8F)cc7)c(C(N)=O)c6N)C5)cc4F)NC3)ccc2CC1C(=O)NC1CCCc2ccccc21)C(C)(C)C

> <Shape>
0.328

> <Color>
0.086

> <Negative vol penalty>
0.000

$$$$

  -OEChem-04052304113D

 85 94  0     1  0  0  0  0  0999 V2000
  -18.7601  -27.6183   21.7352 C   0  0  0  0  0  0  0  0  0  0  0  0
  -20.0316  -27.2016   21.3545 C   0  0  0  0  0  0  0  0  0  0  0  0
  -22.8267   -9.9645   20.0765 C   0  0  0  0  0  0  0  0  0  0  0  0
  -24.3905   -9.4249   21.8373 C   0  0  0  0  0  0  0  0  0  0  0  0
  -18.5692  -28.2266   22.9751 C   0  0  0  0  0  0  0  0  0  0  0  0
  -21.1133  -27.3941   22.2132 C   0  0  0  0  0  0  0  0  0  0  0  0
  -29.5345  -19.3345   23.4163 C   0  0  0  0  0  0  0  0  0  0  0  0
  -31.6875  -19.1108   22.3431 C   0  0  0  0  0  0  0  0  0  0  0  0
  -25.9520  -23.7076   22.9227 C   0  0  0  0  0  0  0  0  0  0  0  0
  -29.1676  -18.0749   22.9428 C   0  0  0  0  0  0  0  0  0  0  0  0
  -31.3206  -17.8511   21.8696 C   0  0  0  0  0  0  0  0  0  0  0  0
  -22.1702   -8.7521   20.2879 C   0  0  0  0  0  0  0  0  0  0  0  0
  -23.7340   -8.2125   22.0488 C   0  0  0  0  0  0  0  0  0  0  0  0
  -27.2445  -23.7456   22.4015 C   0  0  0  0  0  0  0  0  0  0  0  0
  -20.9297   -7.1375   23.5982 C   0  0  0  0  0  0  0  0  0  0  0  0
  -20.6662   -6.7662   24.9167 C   0  0  0  0  0  0  0  0  0  0  0  0
  -28.0147  -24.8417   24.4077 C   0  0  0  0  0  0  0  0  0  0  0  0
  -21.9874   -4.7657   24.6175 C   0  0  0  0  0  0  0  0  0  0  0  0
  -23.9369  -10.3009   20.8511 C   0  0  0  0  0  0  0  0  0  0  0  0
  -24.0708  -12.8461   20.7437 C   0  0  0  0  0  0  0  0  0  0  0  0
  -30.7944  -19.8525   23.1164 C   0  0  0  0  0  0  0  0  0  0  0  0
  -19.6474  -28.4179   23.8534 C   0  0  0  0  0  0  0  0  0  0  0  0
  -25.6785  -24.2471   24.1878 C   0  0  0  0  0  0  0  0  0  0  0  0
  -20.9369  -28.0068   23.4654 C   0  0  0  0  0  0  0  0  0  0  0  0
  -26.7183  -24.8070   24.9437 C   0  0  0  0  0  0  0  0  0  0  0  0
  -30.0606  -17.3332   22.1695 C   0  0  0  0  0  0  0  0  0  0  0  0
  -22.6238   -7.8761   21.2741 C   0  0  0  0  0  0  0  0  0  0  0  0
  -28.2756  -24.3153   23.1428 C   0  0  0  0  0  0  0  0  0  0  0  0
  -21.7220   -6.3228   22.7893 C   0  0  0  0  0  0  0  0  0  0  0  0
  -21.1951   -5.5804   25.4264 C   0  0  0  0  0  0  0  0  0  0  0  0
  -22.2509   -5.1370   23.2990 C   0  0  0  0  0  0  0  0  0  0  0  0
  -24.6158  -11.5529   20.6328 C   0  0  0  0  0  0  0  0  0  0  0  0
  -25.1141  -13.6858   20.4387 C   0  0  0  0  0  0  0  0  0  0  0  0
  -22.7404  -13.2521   21.0913 C   0  0  0  0  0  0  0  0  0  0  0  0
  -23.8357  -26.5988   25.2730 C   0  0  0  0  0  0  0  0  0  0  0  0
  -24.7697  -25.4703   28.1672 C   0  0  0  0  0  0  0  0  0  0  0  0
  -27.8244  -24.2682   29.6642 C   0  0  0  0  0  0  0  0  0  0  0  0
  -30.4550  -15.1879   20.9090 C   0  0  0  0  0  0  0  0  0  0  0  0
  -19.4002  -29.1230   25.1635 C   0  0  0  0  0  0  0  0  0  0  0  0
  -24.2841  -24.1743   24.7470 C   0  0  0  0  0  0  0  0  0  0  0  0
  -26.4811  -25.3816   26.3156 C   0  0  0  0  0  0  0  0  0  0  0  0
  -20.5340  -28.9513   26.1711 C   0  0  0  0  0  0  0  0  0  0  0  0
  -32.8488  -22.5551   25.0086 C   0  0  0  0  0  0  0  0  0  0  0  0
  -29.6790  -12.6938   18.4894 C   0  0  0  0  0  0  0  0  0  0  0  0
  -21.8837  -29.1910   25.5019 C   0  0  0  0  0  0  0  0  0  0  0  0
  -32.4483  -21.1701   24.5095 C   0  0  0  0  0  0  0  0  0  0  0  0
  -28.2477  -12.2811   18.8405 C   0  0  0  0  0  0  0  0  0  0  0  0
  -33.0360  -23.5310   23.8496 C   0  0  0  0  0  0  0  0  0  0  0  0
  -30.5045  -12.9964   19.7387 C   0  0  0  0  0  0  0  0  0  0  0  0
  -28.4707  -13.5546   21.0120 C   0  0  0  0  0  0  0  0  0  0  0  0
  -22.1310  -28.1757   24.3796 C   0  0  1  0  0  0  0  0  0  0  0  0
  -31.1929  -21.2208   23.6308 C   0  0  1  0  0  0  0  0  0  0  0  0
  -24.0195  -25.2156   25.8302 C   0  0  1  0  0  0  0  0  0  0  0  0
  -27.5817  -13.3025   19.7832 C   0  0  2  0  0  0  0  0  0  0  0  0
  -31.8164  -23.6169   22.9174 C   0  0  2  0  0  0  0  0  0  0  0  0
  -32.1878  -24.3622   21.6276 C   0  0  0  0  0  0  0  0  0  0  0  0
  -28.1916  -22.6656   31.5600 C   0  0  0  0  0  0  0  0  0  0  0  0
  -24.8847  -27.9863   29.8896 C   0  0  0  0  0  0  0  0  0  0  0  0
  -26.7121  -26.9085   31.2190 C   0  0  0  0  0  0  0  0  0  0  0  0
  -24.4426  -25.8751   31.1551 C   0  0  0  0  0  0  0  0  0  0  0  0
  -29.5540  -22.5269   28.0103 C   0  0  0  0  0  0  0  0  0  0  0  0
  -30.6148  -24.3100   23.5715 C   0  0  0  0  0  0  0  0  0  1  0  0
  -25.9178  -25.7539   29.1055 C   0  0  1  0  0  0  0  0  0  0  0  0
  -28.1450  -22.8353   30.0495 C   0  0  2  0  0  0  0  0  0  0  0  0
  -25.4919  -26.6343   30.3142 C   0  0  0  0  0  0  0  0  0  0  0  0
  -25.9052  -11.5649   20.2845 N   0  0  0  0  0  0  0  0  0  0  0  0
  -26.1790  -12.8759   20.1737 N   0  0  0  0  0  0  0  0  0  0  0  0
  -25.0994  -25.2924   26.8162 N   0  0  0  0  0  0  0  0  0  0  0  0
  -29.8136  -13.9746   20.5817 N   0  0  0  0  0  0  0  0  0  0  0  0
  -25.2152  -15.0304   20.3740 N   0  0  0  0  0  0  0  0  0  0  0  0
  -21.7917  -12.2602   21.3751 N   0  0  0  0  0  0  0  0  0  0  0  0
  -29.6882  -16.0534   21.6886 N   0  0  0  0  0  0  0  0  0  0  0  0
  -22.5308  -26.8992   24.9319 N   0  0  0  0  0  0  0  0  0  0  0  0
  -26.4713  -24.4562   29.4771 N   0  0  0  0  0  0  0  0  0  0  0  0
  -31.4218  -22.2126   22.5133 N   0  3  0  0  0  0  0  0  0  0  0  0
  -29.4661  -22.4317   29.4902 N   0  3  0  0  0  0  0  0  0  0  0  0
  -22.3985  -14.4583   21.1326 O   0  0  0  0  0  0  0  0  0  0  0  0
  -24.8058  -27.3394   25.1622 O   0  0  0  0  0  0  0  0  0  0  0  0
  -23.6233  -25.4020   28.6177 O   0  0  0  0  0  0  0  0  0  0  0  0
  -28.6875  -25.1349   29.5449 O   0  0  0  0  0  0  0  0  0  0  0  0
  -31.5897  -15.4522   20.5033 O   0  0  0  0  0  0  0  0  0  0  0  0
  -21.9833   -6.6931   21.4808 O   0  0  0  0  0  0  0  0  0  0  0  0
  -29.5380  -24.3543   22.6362 O   0  0  0  0  0  0  0  0  0  1  0  0
  -20.9433   -5.2248   26.6930 F   0  0  0  0  0  0  0  0  0  0  0  0
  -23.0137   -4.3508   22.5271 F   0  0  0  0  0  0  0  0  0  0  0  0
  1  2  1  0  0  0  0
  1  5  2  0  0  0  0
  2  6  2  0  0  0  0
  3 12  2  0  0  0  0
  3 19  1  0  0  0  0
  4 13  1  0  0  0  0
  4 19  2  0  0  0  0
  5 22  1  0  0  0  0
  6 24  1  0  0  0  0
  7 10  2  0  0  0  0
  7 21  1  0  0  0  0
  8 11  1  0  0  0  0
  8 21  2  0  0  0  0
  9 14  2  0  0  0  0
  9 23  1  0  0  0  0
 10 26  1  0  0  0  0
 11 26  2  0  0  0  0
 12 27  1  0  0  0  0
 13 27  2  0  0  0  0
 14 28  1  0  0  0  0
 15 16  2  0  0  0  0
 15 29  1  0  0  0  0
 16 30  1  0  0  0  0
 17 25  1  0  0  0  0
 17 28  2  0  0  0  0
 18 30  2  0  0  0  0
 18 31  1  0  0  0  0
 19 32  1  0  0  0  0
 20 32  1  0  0  0  0
 20 33  2  0  0  0  0
 20 34  1  0  0  0  0
 21 52  1  0  0  0  0
 22 24  2  0  0  0  0
 22 39  1  0  0  0  0
 23 25  2  0  0  0  0
 23 40  1  0  0  0  0
 24 51  1  0  0  0  0
 25 41  1  0  0  0  0
 26 72  1  0  0  0  0
 27 82  1  0  0  0  0
 28 83  1  0  0  0  0
 29 31  2  0  0  0  0
 29 82  1  0  0  0  0
 30 84  1  0  0  0  0
 31 85  1  0  0  0  0
 32 66  2  0  0  0  0
 33 67  1  0  0  0  0
 33 70  1  0  0  0  0
 34 71  1  0  0  0  0
 34 77  2  0  0  0  0
 35 53  1  0  0  0  0
 35 73  1  0  0  0  0
 35 78  2  0  0  0  0
 36 63  1  0  0  0  0
 36 68  1  0  0  0  0
 36 79  2  0  0  0  0
 37 64  1  0  0  0  0
 37 74  1  0  0  0  0
 37 80  2  0  0  0  0
 38 69  1  0  0  0  0
 38 72  1  0  0  0  0
 38 81  2  0  0  0  0
 39 42  1  0  0  0  0
 40 53  1  0  0  0  0
 41 68  1  0  0  0  0
 42 45  1  0  0  0  0
 43 46  1  0  0  0  0
 43 48  1  0  0  0  0
 44 47  1  0  0  0  0
 44 49  1  0  0  0  0
 45 51  1  0  0  0  0
 46 52  1  0  0  0  0
 47 54  1  0  0  0  0
 48 55  1  0  0  0  0
 49 69  1  0  0  0  0
 50 54  1  0  0  0  0
 50 69  1  0  0  0  0
 51 73  1  0  0  0  0
 52 75  1  0  0  0  0
 53 68  1  0  0  0  0
 54 67  1  0  0  0  0
 55 56  1  0  0  0  0
 55 62  1  0  0  0  0
 55 75  1  0  0  0  0
 57 64  1  0  0  0  0
 58 65  1  0  0  0  0
 59 65  1  0  0  0  0
 60 65  1  0  0  0  0
 61 76  1  0  0  0  0
 62 83  1  0  0  0  0
 63 65  1  0  0  0  0
 63 74  1  0  0  0  0
 64 76  1  0  0  0  0
 66 67  1  0  0  0  0
M  CHG  2  75   1  76   1
M  ISO  4  38 100  62 101  72 100  83 101
M  END
> <Batch ID>
0167

> <Smiles>
CNC(C)C(=O)NC(C(=O)N1Cc2cc([101O:1][101CH2:1]C3(C)CCCC(c4ccc([100NH:0][100C:0](=O)N5CCCC(n6nc(-c7ccc(Oc8ccc(F)cc8F)cc7)c(C(N)=O)c6N)C5)cc4)N3)ccc2CC1C(=O)NC1CCCc2ccccc21)C(C)(C)C

> <Shape>
0.234

> <Color>
0.194

> <Negative vol penalty>
0.000

$$$$

  -OEChem-04052304113D

 82 90  0     1  0  0  0  0  0999 V2000
  -18.9278  -26.4649   23.2362 C   0  0  0  0  0  0  0  0  0  0  0  0
  -20.2741  -26.2316   22.9747 C   0  0  0  0  0  0  0  0  0  0  0  0
  -23.3439   -9.6994   19.8931 C   0  0  0  0  0  0  0  0  0  0  0  0
  -24.0915   -9.7574   22.1898 C   0  0  0  0  0  0  0  0  0  0  0  0
  -18.3147  -27.6198   22.7521 C   0  0  0  0  0  0  0  0  0  0  0  0
  -21.0080  -27.1527   22.2281 C   0  0  0  0  0  0  0  0  0  0  0  0
  -25.5470  -28.1201   24.2546 C   0  0  0  0  0  0  0  0  0  0  0  0
  -28.7015  -18.4515   22.5026 C   0  0  0  0  0  0  0  0  0  0  0  0
  -22.7549   -8.4548   20.1162 C   0  0  0  0  0  0  0  0  0  0  0  0
  -23.5025   -8.5128   22.4130 C   0  0  0  0  0  0  0  0  0  0  0  0
  -26.5487  -27.1711   24.0550 C   0  0  0  0  0  0  0  0  0  0  0  0
  -20.4034   -7.2920   22.9837 C   0  0  0  0  0  0  0  0  0  0  0  0
  -19.6555   -7.1304   24.1499 C   0  0  0  0  0  0  0  0  0  0  0  0
  -28.7090  -19.8419   22.5151 C   0  0  0  0  0  0  0  0  0  0  0  0
  -27.4653  -28.5211   22.2783 C   0  0  0  0  0  0  0  0  0  0  0  0
  -21.1355   -5.3550   24.8532 C   0  0  0  0  0  0  0  0  0  0  0  0
  -30.3205  -18.5102   20.7614 C   0  0  0  0  0  0  0  0  0  0  0  0
  -24.0122  -10.3507   20.9299 C   0  0  0  0  0  0  0  0  0  0  0  0
  -24.0247  -12.9008   20.8624 C   0  0  0  0  0  0  0  0  0  0  0  0
  -19.0439  -28.5602   22.0074 C   0  0  0  0  0  0  0  0  0  0  0  0
  -25.4904  -29.2734   23.4589 C   0  0  0  0  0  0  0  0  0  0  0  0
  -20.4038  -28.3206   21.7325 C   0  0  0  0  0  0  0  0  0  0  0  0
  -26.4633  -29.4844   22.4715 C   0  0  0  0  0  0  0  0  0  0  0  0
  -29.5197  -17.7654   21.6121 C   0  0  0  0  0  0  0  0  0  0  0  0
  -22.8342   -7.8615   21.3761 C   0  0  0  0  0  0  0  0  0  0  0  0
  -27.5063  -27.3702   23.0649 C   0  0  0  0  0  0  0  0  0  0  0  0
  -21.5174   -6.4850   22.7522 C   0  0  0  0  0  0  0  0  0  0  0  0
  -20.0215   -6.1619   25.0847 C   0  0  0  0  0  0  0  0  0  0  0  0
  -21.8835   -5.5166   23.6869 C   0  0  0  0  0  0  0  0  0  0  0  0
  -24.6213  -11.6361   20.6999 C   0  0  0  0  0  0  0  0  0  0  0  0
  -29.5463  -20.4937   21.6241 C   0  0  0  0  0  0  0  0  0  0  0  0
  -25.0115  -13.7925   20.5196 C   0  0  0  0  0  0  0  0  0  0  0  0
  -22.6972  -13.2392   21.2855 C   0  0  0  0  0  0  0  0  0  0  0  0
  -23.3800  -30.4872   21.4152 C   0  0  0  0  0  0  0  0  0  0  0  0
  -28.9696  -24.1400   22.2984 C   0  0  0  0  0  0  0  0  0  0  0  0
  -25.4223  -33.0074   21.4070 C   0  0  0  0  0  0  0  0  0  0  0  0
  -28.5902  -34.1710   21.9145 C   0  0  0  0  0  0  0  0  0  0  0  0
  -30.2960  -15.5324   20.7416 C   0  0  0  0  0  0  0  0  0  0  0  0
  -18.3262  -29.7708   21.4650 C   0  0  0  0  0  0  0  0  0  0  0  0
  -24.4192  -30.3004   23.7045 C   0  0  0  0  0  0  0  0  0  0  0  0
  -26.4588  -30.7156   21.6039 C   0  0  0  0  0  0  0  0  0  0  0  0
  -19.2671  -30.8793   21.0003 C   0  0  0  0  0  0  0  0  0  0  0  0
  -29.5085  -13.0440   18.3199 C   0  0  0  0  0  0  0  0  0  0  0  0
  -20.3908  -30.3022   20.1453 C   0  0  0  0  0  0  0  0  0  0  0  0
  -28.1177  -12.5599   18.7366 C   0  0  0  0  0  0  0  0  0  0  0  0
  -30.3836  -13.3645   19.5303 C   0  0  0  0  0  0  0  0  0  0  0  0
  -28.3960  -13.8076   20.9166 C   0  0  0  0  0  0  0  0  0  0  0  0
  -21.2395  -29.3082   20.9474 C   0  0  1  0  0  0  0  0  0  0  0  0
  -24.1553  -31.1899   22.4936 C   0  0  1  0  0  0  0  0  0  0  0  0
  -27.4563  -13.5343   19.7309 C   0  0  2  0  0  0  0  0  0  0  0  0
  -29.9615  -36.2690   21.7911 C   0  0  0  0  0  0  0  0  0  0  0  0
  -25.4953  -32.7779   18.3653 C   0  0  0  0  0  0  0  0  0  0  0  0
  -27.5464  -34.2136   18.3758 C   0  0  0  0  0  0  0  0  0  0  0  0
  -25.3865  -35.1212   19.2323 C   0  0  0  0  0  0  0  0  0  0  0  0
  -29.2228  -34.0657   24.8037 C   0  0  0  0  0  0  0  0  0  0  0  0
  -28.7237  -22.6653   22.5369 C   0  0  0  0  0  0  0  0  0  0  0  0
  -28.1646  -25.0871   23.1668 C   0  0  0  0  0  0  0  0  0  1  0  0
  -26.6352  -33.3980   20.5974 C   0  0  1  0  0  0  0  0  0  0  0  0
  -29.1108  -35.3745   22.6793 C   0  0  2  0  0  0  0  0  0  0  0  0
  -26.2651  -33.8534   19.1576 C   0  0  0  0  0  0  0  0  0  0  0  0
  -30.3551  -19.8615   20.7444 N   0  0  0  0  0  0  0  0  0  0  0  0
  -25.8888  -11.7132   20.2859 N   0  0  0  0  0  0  0  0  0  0  0  0
  -26.0967  -13.0371   20.1852 N   0  0  0  0  0  0  0  0  0  0  0  0
  -25.3875  -31.6875   21.8785 N   0  0  0  0  0  0  0  0  0  0  0  0
  -29.6941  -14.2961   20.4255 N   0  0  0  0  0  0  0  0  0  0  0  0
  -25.0480  -15.1412   20.4744 N   0  0  0  0  0  0  0  0  0  0  0  0
  -21.8107  -12.2000   21.5995 N   0  0  0  0  0  0  0  0  0  0  0  0
  -29.5326  -16.3489   21.5753 N   0  0  0  0  0  0  0  0  0  0  0  0
  -29.5417  -21.8811   21.6476 N   0  0  0  0  0  0  0  0  0  0  0  0
  -22.1486  -30.0132   21.8254 N   0  0  0  0  0  0  0  0  0  0  0  0
  -27.3411  -34.4066   21.3802 N   0  0  0  0  0  0  0  0  0  0  0  0
  -29.9412  -34.9339   23.8356 N   0  3  0  0  0  0  0  0  0  0  0  0
  -22.3036  -14.4275   21.3665 O   0  0  0  0  0  0  0  0  0  0  0  0
  -23.8627  -30.3842   20.2935 O   0  0  0  0  0  0  0  0  0  0  0  0
  -29.7672  -24.5540   21.4580 O   0  0  0  0  0  0  0  0  0  0  0  0
  -24.5418  -33.8448   21.6194 O   0  0  0  0  0  0  0  0  0  0  0  0
  -29.2295  -33.1276   21.7991 O   0  0  0  0  0  0  0  0  0  0  0  0
  -31.3948  -15.8553   20.2829 O   0  0  0  0  0  0  0  0  0  0  0  0
  -22.2594   -6.6472   21.5943 O   0  0  0  0  0  0  0  0  0  0  0  0
  -28.4848  -26.4452   22.8676 O   0  0  0  0  0  0  0  0  0  1  0  0
  -19.3041   -6.0079   26.2053 F   0  0  0  0  0  0  0  0  0  0  0  0
  -22.9534   -4.7392   23.4706 F   0  0  0  0  0  0  0  0  0  0  0  0
  1  2  1  0  0  0  0
  1  5  2  0  0  0  0
  2  6  2  0  0  0  0
  3  9  2  0  0  0  0
  3 18  1  0  0  0  0
  4 10  1  0  0  0  0
  4 18  2  0  0  0  0
  5 20  1  0  0  0  0
  6 22  1  0  0  0  0
  7 11  2  0  0  0  0
  7 21  1  0  0  0  0
  8 14  2  0  0  0  0
  8 24  1  0  0  0  0
  9 25  1  0  0  0  0
 10 25  2  0  0  0  0
 11 26  1  0  0  0  0
 12 13  2  0  0  0  0
 12 27  1  0  0  0  0
 13 28  1  0  0  0  0
 14 31  1  0  0  0  0
 15 23  1  0  0  0  0
 15 26  2  0  0  0  0
 16 28  2  0  0  0  0
 16 29  1  0  0  0  0
 17 24  2  0  0  0  0
 17 61  1  0  0  0  0
 18 30  1  0  0  0  0
 19 30  1  0  0  0  0
 19 32  2  0  0  0  0
 19 33  1  0  0  0  0
 20 22  2  0  0  0  0
 20 39  1  0  0  0  0
 21 23  2  0  0  0  0
 21 40  1  0  0  0  0
 22 48  1  0  0  0  0
 23 41  1  0  0  0  0
 24 68  1  0  0  0  0
 25 79  1  0  0  0  0
 26 80  1  0  0  0  0
 27 29  2  0  0  0  0
 27 79  1  0  0  0  0
 28 81  1  0  0  0  0
 29 82  1  0  0  0  0
 30 62  2  0  0  0  0
 31 61  2  0  0  0  0
 31 69  1  0  0  0  0
 32 63  1  0  0  0  0
 32 66  1  0  0  0  0
 33 67  1  0  0  0  0
 33 73  2  0  0  0  0
 34 49  1  0  0  0  0
 34 70  1  0  0  0  0
 34 74  2  0  0  0  0
 35 56  1  0  0  0  0
 35 57  1  0  0  0  0
 35 75  2  0  0  0  0
 36 58  1  0  0  0  0
 36 64  1  0  0  0  0
 36 76  2  0  0  0  0
 37 59  1  0  0  0  0
 37 71  1  0  0  0  0
 37 77  2  0  0  0  0
 38 65  1  0  0  0  0
 38 68  1  0  0  0  0
 38 78  2  0  0  0  0
 39 42  1  0  0  0  0
 40 49  1  0  0  0  0
 41 64  1  0  0  0  0
 42 44  1  0  0  0  0
 43 45  1  0  0  0  0
 43 46  1  0  0  0  0
 44 48  1  0  0  0  0
 45 50  1  0  0  0  0
 46 65  1  0  0  0  0
 47 50  1  0  0  0  0
 47 65  1  0  0  0  0
 48 70  1  0  0  0  0
 49 64  1  0  0  0  0
 50 63  1  0  0  0  0
 51 59  1  0  0  0  0
 52 60  1  0  0  0  0
 53 60  1  0  0  0  0
 54 60  1  0  0  0  0
 55 72  1  0  0  0  0
 56 69  1  0  0  0  0
 57 80  1  0  0  0  0
 58 60  1  0  0  0  0
 58 71  1  0  0  0  0
 59 72  1  0  0  0  0
 62 63  1  0  0  0  0
M  CHG  1  72   1
M  ISO  4  38 100  57 101  68 100  80 101
M  END
> <Batch ID>
0167

> <Smiles>
CNC(C)C(=O)NC(C(=O)N1Cc2cc([101O:1][101CH2:1]C(=O)CNc3ccc([100NH:0][100C:0](=O)N4CCCC(n5nc(-c6ccc(Oc7ccc(F)cc7F)cc6)c(C(N)=O)c5N)C4)cn3)ccc2CC1C(=O)NC1CCCc2ccccc21)C(C)(C)C

> <Shape>
0.316

> <Color>
0.178

> <Negative vol penalty>
0.000

$$$$

  -OEChem-04052304113D

 86 94  0     1  0  0  0  0  0999 V2000
  -38.1476  -27.0448   22.3538 C   0  0  0  0  0  0  0  0  0  0  0  0
  -36.9052  -26.7230   22.8907 C   0  0  0  0  0  0  0  0  0  0  0  0
  -23.0768   -9.8665   19.9384 C   0  0  0  0  0  0  0  0  0  0  0  0
  -23.8367   -9.8712   22.2318 C   0  0  0  0  0  0  0  0  0  0  0  0
  -38.5720  -28.3727   22.3282 C   0  0  0  0  0  0  0  0  0  0  0  0
  -36.0869  -27.7289   23.4035 C   0  0  0  0  0  0  0  0  0  0  0  0
  -31.2649  -27.2487   21.9329 C   0  0  0  0  0  0  0  0  0  0  0  0
  -22.3337   -8.7126   20.1869 C   0  0  0  0  0  0  0  0  0  0  0  0
  -23.0935   -8.7173   22.4803 C   0  0  0  0  0  0  0  0  0  0  0  0
  -30.4908  -26.2937   22.5904 C   0  0  0  0  0  0  0  0  0  0  0  0
  -19.8659   -7.9167   23.0819 C   0  0  0  0  0  0  0  0  0  0  0  0
  -19.1090   -7.8749   24.2527 C   0  0  0  0  0  0  0  0  0  0  0  0
  -29.5157  -28.0301   23.9518 C   0  0  0  0  0  0  0  0  0  0  0  0
  -31.1474  -17.6981   20.6034 C   0  0  0  0  0  0  0  0  0  0  0  0
  -30.5871  -19.8702   21.5007 C   0  0  0  0  0  0  0  0  0  0  0  0
  -20.3516   -5.9373   24.9868 C   0  0  0  0  0  0  0  0  0  0  0  0
  -23.8284  -10.4458   20.9608 C   0  0  0  0  0  0  0  0  0  0  0  0
  -24.1686  -12.9713   20.8438 C   0  0  0  0  0  0  0  0  0  0  0  0
  -37.7543  -29.3965   22.8321 C   0  0  0  0  0  0  0  0  0  0  0  0
  -31.1781  -28.6025   22.2879 C   0  0  0  0  0  0  0  0  0  0  0  0
  -36.5012  -29.0716   23.3859 C   0  0  0  0  0  0  0  0  0  0  0  0
  -30.2879  -29.0007   23.2954 C   0  0  0  0  0  0  0  0  0  0  0  0
  -30.2476  -17.1012   21.4863 C   0  0  0  0  0  0  0  0  0  0  0  0
  -29.6872  -19.2733   22.3836 C   0  0  0  0  0  0  0  0  0  0  0  0
  -22.3420   -8.1380   21.4579 C   0  0  0  0  0  0  0  0  0  0  0  0
  -29.6181  -26.6839   23.6020 C   0  0  0  0  0  0  0  0  0  0  0  0
  -20.8657   -6.9688   22.8634 C   0  0  0  0  0  0  0  0  0  0  0  0
  -19.3518   -6.8852   25.2052 C   0  0  0  0  0  0  0  0  0  0  0  0
  -31.3173  -19.0826   20.6107 C   0  0  0  0  0  0  0  0  0  0  0  0
  -21.1085   -5.9791   23.8159 C   0  0  0  0  0  0  0  0  0  0  0  0
  -29.5174  -17.8888   22.3764 C   0  0  0  0  0  0  0  0  0  0  0  0
  -24.5967  -11.6375   20.7045 C   0  0  0  0  0  0  0  0  0  0  0  0
  -25.2603  -13.7220   20.4815 C   0  0  0  0  0  0  0  0  0  0  0  0
  -22.8978  -13.4858   21.2634 C   0  0  0  0  0  0  0  0  0  0  0  0
  -28.1485  -22.0154   24.4093 C   0  0  0  0  0  0  0  0  0  0  0  0
  -28.1151  -23.5102   24.6606 C   0  0  0  0  0  0  0  0  0  0  0  0
  -33.2104  -30.7505   23.4538 C   0  0  0  0  0  0  0  0  0  0  0  0
  -30.7315  -32.7854   22.9676 C   0  0  0  0  0  0  0  0  0  0  0  0
  -27.3637  -33.2196   22.6261 C   0  0  0  0  0  0  0  0  0  0  0  0
  -30.7258  -14.7708   20.6574 C   0  0  0  0  0  0  0  0  0  0  0  0
  -38.2760  -30.8116   22.8258 C   0  0  0  0  0  0  0  0  0  0  0  0
  -32.0003  -29.6238   21.5506 C   0  0  0  0  0  0  0  0  0  0  0  0
  -30.1426  -30.4441   23.7003 C   0  0  0  0  0  0  0  0  0  0  0  0
  -37.1907  -31.8618   23.0482 C   0  0  0  0  0  0  0  0  0  0  0  0
  -29.6130  -12.3592   18.2862 C   0  0  0  0  0  0  0  0  0  0  0  0
  -36.2922  -31.4623   24.2143 C   0  0  0  0  0  0  0  0  0  0  0  0
  -28.1735  -12.0662   18.7155 C   0  0  0  0  0  0  0  0  0  0  0  0
  -30.5279  -12.5871   19.4882 C   0  0  0  0  0  0  0  0  0  0  0  0
  -28.6205  -13.3087   20.8703 C   0  0  0  0  0  0  0  0  0  0  0  0
  -35.5745  -30.1375   23.9292 C   0  0  1  0  0  0  0  0  0  0  0  0
  -32.2088  -30.9094   22.3451 C   0  0  1  0  0  0  0  0  0  0  0  0
  -27.6478  -13.1362   19.6923 C   0  0  2  0  0  0  0  0  0  0  0  0
  -25.6328  -35.0026   22.2768 C   0  0  0  0  0  0  0  0  0  0  0  0
  -31.0130  -33.6271   25.8869 C   0  0  0  0  0  0  0  0  0  0  0  0
  -28.7330  -34.6508   25.7390 C   0  0  0  0  0  0  0  0  0  0  0  0
  -30.5788  -35.5075   24.2962 C   0  0  0  0  0  0  0  0  0  0  0  0
  -26.4738  -32.0180   20.0720 C   0  0  0  0  0  0  0  0  0  0  0  0
  -29.0757  -21.4945   23.3418 C   0  0  0  0  0  0  0  0  0  0  0  0
  -29.0128  -24.3958   23.8341 C   0  0  0  0  0  0  0  0  0  1  0  0
  -29.5545  -33.2522   23.7896 C   0  0  1  0  0  0  0  0  0  0  0  0
  -26.5458  -33.9890   21.6046 C   0  0  2  0  0  0  0  0  0  0  0  0
  -29.9737  -34.2319   24.9218 C   0  0  0  0  0  0  0  0  0  0  0  0
  -25.8617  -11.5430   20.2861 N   0  0  0  0  0  0  0  0  0  0  0  0
  -26.2377  -12.8270   20.1593 N   0  0  0  0  0  0  0  0  0  0  0  0
  -30.9726  -31.4043   22.9542 N   0  0  0  0  0  0  0  0  0  0  0  0
  -29.9683  -13.6165   20.3668 N   0  0  0  0  0  0  0  0  0  0  0  0
  -25.4699  -15.0537   20.4101 N   0  0  0  0  0  0  0  0  0  0  0  0
  -21.8865  -12.5756   21.5995 N   0  0  0  0  0  0  0  0  0  0  0  0
  -30.0779  -15.6945   21.4770 N   0  0  0  0  0  0  0  0  0  0  0  0
  -28.9625  -20.0587   23.2672 N   0  0  0  0  0  0  0  0  0  0  0  0
  -34.4622  -30.3490   23.0279 N   0  0  0  0  0  0  0  0  0  0  0  0
  -28.5915  -33.8078   22.8450 N   0  0  0  0  0  0  0  0  0  0  0  0
  -25.7032  -33.0547   20.8058 N   0  3  0  0  0  0  0  0  0  0  0  0
  -22.6608  -14.7162   21.3222 O   0  0  0  0  0  0  0  0  0  0  0  0
  -27.4114  -21.3189   25.0959 O   0  0  0  0  0  0  0  0  0  0  0  0
  -27.3563  -23.9192   25.5300 O   0  0  0  0  0  0  0  0  0  0  0  0
  -32.8730  -30.9770   24.6099 O   0  0  0  0  0  0  0  0  0  0  0  0
  -31.4076  -33.6149   22.3540 O   0  0  0  0  0  0  0  0  0  0  0  0
  -26.9530  -32.2009   23.1776 O   0  0  0  0  0  0  0  0  0  0  0  0
  -31.8548  -14.9408   20.1900 O   0  0  0  0  0  0  0  0  0  0  0  0
  -21.6168   -7.0121   21.7009 O   0  0  0  0  0  0  0  0  0  0  0  0
  -28.8619  -25.7537   24.2459 O   0  0  0  0  0  0  0  0  0  1  0  0
  -18.6259   -6.8461   26.3302 F   0  0  0  0  0  0  0  0  0  0  0  0
  -32.1805  -19.6558   19.7619 F   0  0  0  0  0  0  0  0  0  0  0  0
  -22.0684   -5.0665   23.6122 F   0  0  0  0  0  0  0  0  0  0  0  0
  -28.6520  -17.3151   23.2265 F   0  0  0  0  0  0  0  0  0  0  0  0
  1  2  1  0  0  0  0
  1  5  2  0  0  0  0
  2  6  2  0  0  0  0
  3  8  2  0  0  0  0
  3 17  1  0  0  0  0
  4  9  1  0  0  0  0
  4 17  2  0  0  0  0
  5 19  1  0  0  0  0
  6 21  1  0  0  0  0
  7 10  2  0  0  0  0
  7 20  1  0  0  0  0
  8 25  1  0  0  0  0
  9 25  2  0  0  0  0
 10 26  1  0  0  0  0
 11 12  2  0  0  0  0
 11 27  1  0  0  0  0
 12 28  1  0  0  0  0
 13 22  1  0  0  0  0
 13 26  2  0  0  0  0
 14 23  2  0  0  0  0
 14 29  1  0  0  0  0
 15 24  1  0  0  0  0
 15 29  2  0  0  0  0
 16 28  2  0  0  0  0
 16 30  1  0  0  0  0
 17 32  1  0  0  0  0
 18 32  1  0  0  0  0
 18 33  2  0  0  0  0
 18 34  1  0  0  0  0
 19 21  2  0  0  0  0
 19 41  1  0  0  0  0
 20 22  2  0  0  0  0
 20 42  1  0  0  0  0
 21 50  1  0  0  0  0
 22 43  1  0  0  0  0
 23 31  1  0  0  0  0
 23 69  1  0  0  0  0
 24 31  2  0  0  0  0
 24 70  1  0  0  0  0
 25 81  1  0  0  0  0
 26 82  1  0  0  0  0
 27 30  2  0  0  0  0
 27 81  1  0  0  0  0
 28 83  1  0  0  0  0
 29 84  1  0  0  0  0
 30 85  1  0  0  0  0
 31 86  1  0  0  0  0
 32 63  2  0  0  0  0
 33 64  1  0  0  0  0
 33 67  1  0  0  0  0
 34 68  1  0  0  0  0
 34 74  2  0  0  0  0
 35 36  1  0  0  0  0
 35 58  1  0  0  0  0
 35 75  2  0  0  0  0
 36 59  1  0  0  0  0
 36 76  2  0  0  0  0
 37 51  1  0  0  0  0
 37 71  1  0  0  0  0
 37 77  2  0  0  0  0
 38 60  1  0  0  0  0
 38 65  1  0  0  0  0
 38 78  2  0  0  0  0
 39 61  1  0  0  0  0
 39 72  1  0  0  0  0
 39 79  2  0  0  0  0
 40 66  1  0  0  0  0
 40 69  1  0  0  0  0
 40 80  2  0  0  0  0
 41 44  1  0  0  0  0
 42 51  1  0  0  0  0
 43 65  1  0  0  0  0
 44 46  1  0  0  0  0
 45 47  1  0  0  0  0
 45 48  1  0  0  0  0
 46 50  1  0  0  0  0
 47 52  1  0  0  0  0
 48 66  1  0  0  0  0
 49 52  1  0  0  0  0
 49 66  1  0  0  0  0
 50 71  1  0  0  0  0
 51 65  1  0  0  0  0
 52 64  1  0  0  0  0
 53 61  1  0  0  0  0
 54 62  1  0  0  0  0
 55 62  1  0  0  0  0
 56 62  1  0  0  0  0
 57 73  1  0  0  0  0
 58 70  1  0  0  0  0
 59 82  1  0  0  0  0
 60 62  1  0  0  0  0
 60 72  1  0  0  0  0
 61 73  1  0  0  0  0
 63 64  1  0  0  0  0
M  CHG  1  73   1
M  ISO  4  40 100  59 101  69 100  82 101
M  END
> <Batch ID>
0167

> <Smiles>
CNC(C)C(=O)NC(C(=O)N1Cc2cc([101O:1][101CH2:1]C(=O)C(=O)CNc3cc(F)cc([100NH:0][100C:0](=O)N4CCCC(n5nc(-c6ccc(Oc7ccc(F)cc7F)cc6)c(C(N)=O)c5N)C4)c3F)ccc2CC1C(=O)NC1CCCc2ccccc21)C(C)(C)C

> <Shape>
0.207

> <Color>
0.188

> <Negative vol penalty>
0.000

$$$$

  -OEChem-04052304113D

 87 95  0     1  0  0  0  0  0999 V2000
  -17.9997  -26.1839   25.1678 C   0  0  0  0  0  0  0  0  0  0  0  0
  -19.2325  -26.2617   24.5278 C   0  0  0  0  0  0  0  0  0  0  0  0
  -24.6066   -9.1165   22.2712 C   0  0  0  0  0  0  0  0  0  0  0  0
  -23.7299  -10.2623   20.3333 C   0  0  0  0  0  0  0  0  0  0  0  0
  -17.0748  -27.2173   25.0244 C   0  0  0  0  0  0  0  0  0  0  0  0
  -19.5408  -27.3724   23.7432 C   0  0  0  0  0  0  0  0  0  0  0  0
  -24.2179  -29.1162   24.5967 C   0  0  0  0  0  0  0  0  0  0  0  0
  -23.5424   -8.2163   22.2204 C   0  0  0  0  0  0  0  0  0  0  0  0
  -22.6657   -9.3620   20.2824 C   0  0  0  0  0  0  0  0  0  0  0  0
  -25.2740  -28.4190   24.0117 C   0  0  0  0  0  0  0  0  0  0  0  0
  -22.6789   -5.4785   20.4338 C   0  0  0  0  0  0  0  0  0  0  0  0
  -22.9687   -4.1229   20.5880 C   0  0  0  0  0  0  0  0  0  0  0  0
  -25.3796  -30.0666   22.2528 C   0  0  0  0  0  0  0  0  0  0  0  0
  -28.8407  -19.5802   19.9087 C   0  0  0  0  0  0  0  0  0  0  0  0
  -30.1466  -18.6577   17.6226 C   0  0  0  0  0  0  0  0  0  0  0  0
  -21.5424   -4.0396   22.5363 C   0  0  0  0  0  0  0  0  0  0  0  0
  -24.7003  -10.1396   21.3277 C   0  0  0  0  0  0  0  0  0  0  0  0
  -27.0481  -10.9476   20.7422 C   0  0  0  0  0  0  0  0  0  0  0  0
  -17.3756  -28.3458   24.2455 C   0  0  0  0  0  0  0  0  0  0  0  0
  -23.7267  -30.2900   24.0073 C   0  0  0  0  0  0  0  0  0  0  0  0
  -18.6185  -28.4213   23.5882 C   0  0  0  0  0  0  0  0  0  0  0  0
  -24.3188  -30.7783   22.8338 C   0  0  0  0  0  0  0  0  0  0  0  0
  -29.2787  -20.4858   18.9425 C   0  0  0  0  0  0  0  0  0  0  0  0
  -29.0556  -18.2133   19.7319 C   0  0  0  0  0  0  0  0  0  0  0  0
  -29.9317  -20.0246   17.7995 C   0  0  0  0  0  0  0  0  0  0  0  0
  -22.5720   -8.3390   21.2260 C   0  0  0  0  0  0  0  0  0  0  0  0
  -25.8531  -28.8926   22.8380 C   0  0  0  0  0  0  0  0  0  0  0  0
  -21.8209   -6.1148   21.3309 C   0  0  0  0  0  0  0  0  0  0  0  0
  -22.4005   -3.4034   21.6392 C   0  0  0  0  0  0  0  0  0  0  0  0
  -29.7086  -17.7521   18.5889 C   0  0  0  0  0  0  0  0  0  0  0  0
  -21.2526   -5.3953   22.3821 C   0  0  0  0  0  0  0  0  0  0  0  0
  -25.7991  -11.0702   21.3800 C   0  0  0  0  0  0  0  0  0  0  0  0
  -27.7311  -12.0832   21.1036 C   0  0  0  0  0  0  0  0  0  0  0  0
  -27.5463   -9.9009   19.8985 C   0  0  0  0  0  0  0  0  0  0  0  0
  -20.9337  -31.1860   22.7826 C   0  0  0  0  0  0  0  0  0  0  0  0
  -28.3130  -23.8950   20.1832 C   0  0  0  0  0  0  0  0  0  0  0  0
  -27.5619  -26.1119   21.2666 C   0  0  0  0  0  0  0  0  0  0  0  0
  -22.3958  -34.0737   22.5685 C   0  0  0  0  0  0  0  0  0  0  0  0
  -25.3103  -35.8374   22.3643 C   0  0  0  0  0  0  0  0  0  0  0  0
  -27.9481  -17.5887   21.9067 C   0  0  0  0  0  0  0  0  0  0  0  0
  -16.3254  -29.4158   24.0818 C   0  0  0  0  0  0  0  0  0  0  0  0
  -22.6045  -31.0450   24.6653 C   0  0  0  0  0  0  0  0  0  0  0  0
  -23.8418  -32.0445   22.1723 C   0  0  0  0  0  0  0  0  0  0  0  0
  -16.8757  -30.7310   23.5362 C   0  0  0  0  0  0  0  0  0  0  0  0
  -26.6556  -15.6111   24.5704 C   0  0  0  0  0  0  0  0  0  0  0  0
  -17.7904  -30.4730   22.3430 C   0  0  0  0  0  0  0  0  0  0  0  0
  -26.4203  -14.2433   23.9254 C   0  0  0  0  0  0  0  0  0  0  0  0
  -26.3399  -16.7541   23.6073 C   0  0  0  0  0  0  0  0  0  0  0  0
  -26.7834  -15.3085   21.6625 C   0  0  0  0  0  0  0  0  0  0  0  0
  -18.9994  -29.6214   22.7487 C   0  0  1  0  0  0  0  0  0  0  0  0
  -21.8464  -31.9503   23.6994 C   0  0  1  0  0  0  0  0  0  0  0  0
  -27.1500  -14.1250   22.5729 C   0  0  2  0  0  0  0  0  0  0  0  0
  -26.1847  -38.1809   22.1625 C   0  0  0  0  0  0  0  0  0  0  0  0
  -21.6292  -34.1029   19.6153 C   0  0  0  0  0  0  0  0  0  0  0  0
  -23.3012  -35.9344   19.2711 C   0  0  0  0  0  0  0  0  0  0  0  0
  -21.3528  -36.2952   20.7865 C   0  0  0  0  0  0  0  0  0  0  0  0
  -26.7569  -35.6431   24.9389 C   0  0  0  0  0  0  0  0  0  0  0  0
  -27.6361  -24.6000   21.3433 C   0  0  0  0  0  0  0  0  0  0  0  0
  -28.3896  -22.3855   20.2939 C   0  0  0  0  0  0  0  0  0  0  0  0
  -26.9145  -26.7994   22.4531 C   0  0  0  0  0  0  0  0  0  1  0  0
  -23.2322  -34.7738   21.5249 C   0  0  1  0  0  0  0  0  0  0  0  0
  -25.8025  -37.0603   23.1170 C   0  0  2  0  0  0  0  0  0  0  0  0
  -22.3868  -35.2516   20.3106 C   0  0  0  0  0  0  0  0  0  0  0  0
  -25.6922  -12.1949   22.0926 N   0  0  0  0  0  0  0  0  0  0  0  0
  -26.8828  -12.7892   21.9049 N   0  0  0  0  0  0  0  0  0  0  0  0
  -22.7377  -32.7435   22.8506 N   0  0  0  0  0  0  0  0  0  0  0  0
  -27.0696  -16.5774   22.3499 N   0  0  0  0  0  0  0  0  0  0  0  0
  -30.3842  -20.9242   16.8085 N   0  0  0  0  0  0  0  0  0  0  0  0
  -28.9685  -12.5365   20.8109 N   0  0  0  0  0  0  0  0  0  0  0  0
  -26.7134   -8.8064   19.6291 N   0  0  0  0  0  0  0  0  0  0  0  0
  -28.6108  -17.2953   20.7153 N   0  0  0  0  0  0  0  0  0  0  0  0
  -29.0556  -21.8411   19.1382 N   0  0  0  0  0  0  0  0  0  0  0  0
  -19.9797  -30.4319   23.4389 N   0  0  0  0  0  0  0  0  0  0  0  0
  -23.9392  -35.8445   22.2192 N   0  0  0  0  0  0  0  0  0  0  0  0
  -26.9964  -36.7163   23.9400 N   0  3  0  0  0  0  0  0  0  0  0  0
  -28.7021   -9.9274   19.4116 O   0  0  0  0  0  0  0  0  0  0  0  0
  -21.0829  -31.2751   21.5696 O   0  0  0  0  0  0  0  0  0  0  0  0
  -28.8023  -24.5101   19.2368 O   0  0  0  0  0  0  0  0  0  0  0  0
  -27.9635  -26.7475   20.2933 O   0  0  0  0  0  0  0  0  0  0  0  0
  -21.4775  -34.6868   23.1186 O   0  0  0  0  0  0  0  0  0  0  0  0
  -26.0670  -34.9650   21.9436 O   0  0  0  0  0  0  0  0  0  0  0  0
  -28.1216  -18.6260   22.5515 O   0  0  0  0  0  0  0  0  0  0  0  0
  -21.5335   -7.4605   21.1759 O   0  0  0  0  0  0  0  0  0  0  0  0
  -26.8836  -28.2136   22.2645 O   0  0  0  0  0  0  0  0  0  1  0  0
  -22.6776   -2.1012   21.7863 F   0  0  0  0  0  0  0  0  0  0  0  0
  -29.9225  -16.4408   18.4095 F   0  0  0  0  0  0  0  0  0  0  0  0
  -20.4267   -6.0008   23.2464 F   0  0  0  0  0  0  0  0  0  0  0  0
  1  2  1  0  0  0  0
  1  5  2  0  0  0  0
  2  6  2  0  0  0  0
  3  8  2  0  0  0  0
  3 17  1  0  0  0  0
  4  9  1  0  0  0  0
  4 17  2  0  0  0  0
  5 19  1  0  0  0  0
  6 21  1  0  0  0  0
  7 10  2  0  0  0  0
  7 20  1  0  0  0  0
  8 26  1  0  0  0  0
  9 26  2  0  0  0  0
 10 27  1  0  0  0  0
 11 12  2  0  0  0  0
 11 28  1  0  0  0  0
 12 29  1  0  0  0  0
 13 22  1  0  0  0  0
 13 27  2  0  0  0  0
 14 23  1  0  0  0  0
 14 24  2  0  0  0  0
 15 25  1  0  0  0  0
 15 30  2  0  0  0  0
 16 29  2  0  0  0  0
 16 31  1  0  0  0  0
 17 32  1  0  0  0  0
 18 32  1  0  0  0  0
 18 33  2  0  0  0  0
 18 34  1  0  0  0  0
 19 21  2  0  0  0  0
 19 41  1  0  0  0  0
 20 22  2  0  0  0  0
 20 42  1  0  0  0  0
 21 50  1  0  0  0  0
 22 43  1  0  0  0  0
 23 25  2  0  0  0  0
 23 72  1  0  0  0  0
 24 30  1  0  0  0  0
 24 71  1  0  0  0  0
 25 68  1  0  0  0  0
 26 83  1  0  0  0  0
 27 84  1  0  0  0  0
 28 31  2  0  0  0  0
 28 83  1  0  0  0  0
 29 85  1  0  0  0  0
 30 86  1  0  0  0  0
 31 87  1  0  0  0  0
 32 64  2  0  0  0  0
 33 65  1  0  0  0  0
 33 69  1  0  0  0  0
 34 70  1  0  0  0  0
 34 76  2  0  0  0  0
 35 51  1  0  0  0  0
 35 73  1  0  0  0  0
 35 77  2  0  0  0  0
 36 58  1  0  0  0  0
 36 59  1  0  0  0  0
 36 78  2  0  0  0  0
 37 58  1  0  0  0  0
 37 60  1  0  0  0  0
 37 79  2  0  0  0  0
 38 61  1  0  0  0  0
 38 66  1  0  0  0  0
 38 80  2  0  0  0  0
 39 62  1  0  0  0  0
 39 74  1  0  0  0  0
 39 81  2  0  0  0  0
 40 67  1  0  0  0  0
 40 71  1  0  0  0  0
 40 82  2  0  0  0  0
 41 44  1  0  0  0  0
 42 51  1  0  0  0  0
 43 66  1  0  0  0  0
 44 46  1  0  0  0  0
 45 47  1  0  0  0  0
 45 48  1  0  0  0  0
 46 50  1  0  0  0  0
 47 52  1  0  0  0  0
 48 67  1  0  0  0  0
 49 52  1  0  0  0  0
 49 67  1  0  0  0  0
 50 73  1  0  0  0  0
 51 66  1  0  0  0  0
 52 65  1  0  0  0  0
 53 62  1  0  0  0  0
 54 63  1  0  0  0  0
 55 63  1  0  0  0  0
 56 63  1  0  0  0  0
 57 75  1  0  0  0  0
 59 72  1  0  0  0  0
 60 84  1  0  0  0  0
 61 63  1  0  0  0  0
 61 74  1  0  0  0  0
 62 75  1  0  0  0  0
 64 65  1  0  0  0  0
M  CHG  1  75   1
M  ISO  4  40 100  60 101  71 100  84 101
M  END
> <Batch ID>
0167

> <Smiles>
CNC(C)C(=O)NC(C(=O)N1Cc2cc([101O:1][101CH2:1]C(=O)CC(=O)CNc3cc([100NH:0][100C:0](=O)N4CCCC(n5nc(-c6ccc(Oc7ccc(F)cc7F)cc6)c(C(N)=O)c5N)C4)c(F)cc3N)ccc2CC1C(=O)NC1CCCc2ccccc21)C(C)(C)C

> <Shape>
0.263

> <Color>
0.092

> <Negative vol penalty>
0.000

$$$$

  -OEChem-04052304113D

 81 90  0     1  0  0  0  0  0999 V2000
  -26.0054  -34.6256   25.0767 C   0  0  0  0  0  0  0  0  0  0  0  0
  -26.9788  -33.7370   25.5219 C   0  0  0  0  0  0  0  0  0  0  0  0
  -23.0995   -9.8623   21.4044 C   0  0  0  0  0  0  0  0  0  0  0  0
  -23.8608  -10.6965   23.5402 C   0  0  0  0  0  0  0  0  0  0  0  0
  -24.9234  -34.1570   24.3325 C   0  0  0  0  0  0  0  0  0  0  0  0
  -26.8703  -32.3791   25.2240 C   0  0  0  0  0  0  0  0  0  0  0  0
  -32.5399  -18.3940   21.9113 C   0  0  0  0  0  0  0  0  0  0  0  0
  -30.3414  -19.3603   22.1755 C   0  0  0  0  0  0  0  0  0  0  0  0
  -30.9091  -26.6306   23.8240 C   0  0  0  0  0  0  0  0  0  0  0  0
  -31.9678  -17.2364   21.3839 C   0  0  0  0  0  0  0  0  0  0  0  0
  -29.7692  -18.2026   21.6480 C   0  0  0  0  0  0  0  0  0  0  0  0
  -22.3764   -8.8614   22.0531 C   0  0  0  0  0  0  0  0  0  0  0  0
  -23.1376   -9.6956   24.1889 C   0  0  0  0  0  0  0  0  0  0  0  0
  -31.0901  -25.3134   24.2435 C   0  0  0  0  0  0  0  0  0  0  0  0
  -23.0075   -5.8729   23.5005 C   0  0  0  0  0  0  0  0  0  0  0  0
  -23.0919   -4.5782   22.9887 C   0  0  0  0  0  0  0  0  0  0  0  0
  -29.2190  -24.6295   22.8831 C   0  0  0  0  0  0  0  0  0  0  0  0
  -20.7046   -4.5692   22.6176 C   0  0  0  0  0  0  0  0  0  0  0  0
  -23.8418  -10.7798   22.1479 C   0  0  0  0  0  0  0  0  0  0  0  0
  -24.1388  -13.1026   21.1358 C   0  0  0  0  0  0  0  0  0  0  0  0
  -31.7267  -19.4560   22.3072 C   0  0  0  0  0  0  0  0  0  0  0  0
  -24.8067  -32.7941   24.0171 C   0  0  0  0  0  0  0  0  0  0  0  0
  -29.8732  -26.9595   22.9379 C   0  0  0  0  0  0  0  0  0  0  0  0
  -25.7852  -31.8917   24.4760 C   0  0  0  0  0  0  0  0  0  0  0  0
  -29.0287  -25.9512   22.4519 C   0  0  0  0  0  0  0  0  0  0  0  0
  -30.5825  -17.1407   21.2522 C   0  0  0  0  0  0  0  0  0  0  0  0
  -22.3954   -8.7781   23.4453 C   0  0  0  0  0  0  0  0  0  0  0  0
  -30.2432  -24.3131   23.7753 C   0  0  0  0  0  0  0  0  0  0  0  0
  -21.7716   -6.5159   23.5710 C   0  0  0  0  0  0  0  0  0  0  0  0
  -21.9404   -3.9263   22.5472 C   0  0  0  0  0  0  0  0  0  0  0  0
  -20.6202   -5.8640   23.1295 C   0  0  0  0  0  0  0  0  0  0  0  0
  -24.5895  -11.8136   21.4784 C   0  0  0  0  0  0  0  0  0  0  0  0
  -25.2173  -13.6916   20.5223 C   0  0  0  0  0  0  0  0  0  0  0  0
  -22.8597  -13.7129   21.3529 C   0  0  0  0  0  0  0  0  0  0  0  0
  -27.3024  -28.8230   23.0852 C   0  0  0  0  0  0  0  0  0  0  0  0
  -27.0413  -28.0487   19.9460 C   0  0  0  0  0  0  0  0  0  0  0  0
  -27.7607  -25.8536   17.4339 C   0  0  0  0  0  0  0  0  0  0  0  0
  -30.6642  -14.8199   20.2758 C   0  0  0  0  0  0  0  0  0  0  0  0
  -23.5946  -32.3277   23.2502 C   0  0  0  0  0  0  0  0  0  0  0  0
  -29.7080  -28.3808   22.4742 C   0  0  0  0  0  0  0  0  0  0  0  0
  -27.9142  -26.2488   21.4835 C   0  0  0  0  0  0  0  0  0  0  0  0
  -23.7495  -30.9293   22.6581 C   0  0  0  0  0  0  0  0  0  0  0  0
  -29.5910  -11.7040   18.9280 C   0  0  0  0  0  0  0  0  0  0  0  0
  -24.3204  -29.9697   23.6974 C   0  0  0  0  0  0  0  0  0  0  0  0
  -28.1571  -11.5608   19.4432 C   0  0  0  0  0  0  0  0  0  0  0  0
  -33.2706  -20.5766   24.0523 C   0  0  0  0  0  0  0  0  0  0  0  0
  -30.5028  -12.3599   19.9635 C   0  0  0  0  0  0  0  0  0  0  0  0
  -28.5843  -13.4969   21.0103 C   0  0  0  0  0  0  0  0  0  0  0  0
  -32.3348  -20.6865   22.8680 C   0  0  2  0  0  0  0  0  0  0  0  0
  -25.7155  -30.4151   24.1520 C   0  0  1  0  0  0  0  0  0  0  0  0
  -28.3005  -28.6852   21.9706 C   0  0  1  0  0  0  0  0  0  0  0  0
  -31.9038  -21.1651   24.2388 C   0  0  2  0  0  0  0  0  0  0  0  0
  -27.6139  -12.9005   19.9777 C   0  0  2  0  0  0  0  0  0  0  0  0
  -27.3798  -25.4708   14.9832 C   0  0  0  0  0  0  0  0  0  0  0  0
  -24.1815  -27.1607   20.5317 C   0  0  0  0  0  0  0  0  0  0  0  0
  -24.1864  -25.9412   18.3451 C   0  0  0  0  0  0  0  0  0  0  0  0
  -24.4649  -28.4198   18.3895 C   0  0  0  0  0  0  0  0  0  0  0  0
  -30.6606  -25.9469   16.8502 C   0  0  0  0  0  0  0  0  0  0  0  0
  -31.7468  -22.6222   24.5075 C   0  0  0  0  0  0  0  0  0  1  0  0
  -26.3643  -26.9449   19.1699 C   0  0  1  0  0  0  0  0  0  0  0  0
  -28.3036  -26.0690   16.0327 C   0  0  2  0  0  0  0  0  0  0  0  0
  -24.8190  -27.1110   19.1288 C   0  0  0  0  0  0  0  0  0  0  0  0
  -25.8556  -11.5960   21.1127 N   0  0  0  0  0  0  0  0  0  0  0  0
  -26.2096  -12.7560   20.5339 N   0  0  0  0  0  0  0  0  0  0  0  0
  -27.7892  -27.6546   21.0646 N   0  0  0  0  0  0  0  0  0  0  0  0
  -29.9263  -13.6261   20.4210 N   0  0  0  0  0  0  0  0  0  0  0  0
  -25.4041  -14.9134   19.9793 N   0  0  0  0  0  0  0  0  0  0  0  0
  -21.8643  -12.9666   21.9983 N   0  0  0  0  0  0  0  0  0  0  0  0
  -30.0012  -15.9648   20.7165 N   0  0  0  0  0  0  0  0  0  0  0  0
  -26.7064  -30.0677   23.1561 N   0  0  0  0  0  0  0  0  0  0  0  0
  -26.9980  -26.9220   17.8559 N   0  0  0  0  0  0  0  0  0  0  0  0
  -29.6453  -25.4354   15.8940 N   0  3  0  0  0  0  0  0  0  0  0  0
  -22.6018  -14.8794   20.9707 O   0  0  0  0  0  0  0  0  0  0  0  0
  -27.0877  -27.8701   23.8253 O   0  0  0  0  0  0  0  0  0  0  0  0
  -26.9171  -29.2168   19.5694 O   0  0  0  0  0  0  0  0  0  0  0  0
  -27.9872  -24.8375   18.0871 O   0  0  0  0  0  0  0  0  0  0  0  0
  -31.7898  -14.8297   19.7709 O   0  0  0  0  0  0  0  0  0  0  0  0
  -21.6896   -7.8017   24.0786 O   0  0  0  0  0  0  0  0  0  0  0  0
  -30.4172  -23.0267   24.1836 O   0  0  0  0  0  0  0  0  0  1  0  0
  -22.0219   -2.6835   22.0543 F   0  0  0  0  0  0  0  0  0  0  0  0
  -19.4302   -6.4770   23.1936 F   0  0  0  0  0  0  0  0  0  0  0  0
  1  2  1  0  0  0  0
  1  5  2  0  0  0  0
  2  6  2  0  0  0  0
  3 12  2  0  0  0  0
  3 19  1  0  0  0  0
  4 13  1  0  0  0  0
  4 19  2  0  0  0  0
  5 22  1  0  0  0  0
  6 24  1  0  0  0  0
  7 10  2  0  0  0  0
  7 21  1  0  0  0  0
  8 11  1  0  0  0  0
  8 21  2  0  0  0  0
  9 14  2  0  0  0  0
  9 23  1  0  0  0  0
 10 26  1  0  0  0  0
 11 26  2  0  0  0  0
 12 27  1  0  0  0  0
 13 27  2  0  0  0  0
 14 28  1  0  0  0  0
 15 16  2  0  0  0  0
 15 29  1  0  0  0  0
 16 30  1  0  0  0  0
 17 25  1  0  0  0  0
 17 28  2  0  0  0  0
 18 30  2  0  0  0  0
 18 31  1  0  0  0  0
 19 32  1  0  0  0  0
 20 32  1  0  0  0  0
 20 33  2  0  0  0  0
 20 34  1  0  0  0  0
 21 49  1  0  0  0  0
 22 24  2  0  0  0  0
 22 39  1  0  0  0  0
 23 25  2  0  0  0  0
 23 40  1  0  0  0  0
 24 50  1  0  0  0  0
 25 41  1  0  0  0  0
 26 69  1  0  0  0  0
 27 78  1  0  0  0  0
 28 79  1  0  0  0  0
 29 31  2  0  0  0  0
 29 78  1  0  0  0  0
 30 80  1  0  0  0  0
 31 81  1  0  0  0  0
 32 63  2  0  0  0  0
 33 64  1  0  0  0  0
 33 67  1  0  0  0  0
 34 68  1  0  0  0  0
 34 73  2  0  0  0  0
 35 51  1  0  0  0  0
 35 70  1  0  0  0  0
 35 74  2  0  0  0  0
 36 60  1  0  0  0  0
 36 65  1  0  0  0  0
 36 75  2  0  0  0  0
 37 61  1  0  0  0  0
 37 71  1  0  0  0  0
 37 76  2  0  0  0  0
 38 66  1  0  0  0  0
 38 69  1  0  0  0  0
 38 77  2  0  0  0  0
 39 42  1  0  0  0  0
 40 51  1  0  0  0  0
 41 65  1  0  0  0  0
 42 44  1  0  0  0  0
 43 45  1  0  0  0  0
 43 47  1  0  0  0  0
 44 50  1  0  0  0  0
 45 53  1  0  0  0  0
 46 49  1  0  0  0  0
 46 52  1  0  0  0  0
 47 66  1  0  0  0  0
 48 53  1  0  0  0  0
 48 66  1  0  0  0  0
 49 52  1  0  0  0  0
 50 70  1  0  0  0  0
 51 65  1  0  0  0  0
 52 59  1  0  0  0  0
 53 64  1  0  0  0  0
 54 61  1  0  0  0  0
 55 62  1  0  0  0  0
 56 62  1  0  0  0  0
 57 62  1  0  0  0  0
 58 72  1  0  0  0  0
 59 79  1  0  0  0  0
 60 62  1  0  0  0  0
 60 71  1  0  0  0  0
 61 72  1  0  0  0  0
 63 64  1  0  0  0  0
M  CHG  1  72   1
M  ISO  4  38 100  59 101  69 100  79 101
M  END
> <Batch ID>
0167

> <Smiles>
CNC(C)C(=O)NC(C(=O)N1Cc2cc([101O:1][101CH2:1]C3CC3c3ccc([100NH:0][100C:0](=O)N4CCCC(n5nc(-c6ccc(Oc7ccc(F)cc7F)cc6)c(C(N)=O)c5N)C4)cc3)ccc2CC1C(=O)NC1CCCc2ccccc21)C(C)(C)C

> <Shape>
0.294

> <Color>
0.160

> <Negative vol penalty>
0.000

$$$$

  -OEChem-04052304113D

 85 93  0     1  0  0  0  0  0999 V2000
  -29.6276  -34.0340   26.9823 C   0  0  0  0  0  0  0  0  0  0  0  0
  -29.2845  -32.8286   26.3784 C   0  0  0  0  0  0  0  0  0  0  0  0
  -23.7016   -9.5872   20.7515 C   0  0  0  0  0  0  0  0  0  0  0  0
  -24.2790  -10.2972   22.9874 C   0  0  0  0  0  0  0  0  0  0  0  0
  -28.6708  -35.0379   27.1254 C   0  0  0  0  0  0  0  0  0  0  0  0
  -27.9839  -32.6260   25.9182 C   0  0  0  0  0  0  0  0  0  0  0  0
  -27.8580  -30.5267   21.3115 C   0  0  0  0  0  0  0  0  0  0  0  0
  -23.1698   -8.4041   21.2645 C   0  0  0  0  0  0  0  0  0  0  0  0
  -23.7472   -9.1142   23.5004 C   0  0  0  0  0  0  0  0  0  0  0  0
  -28.0927  -29.1548   21.2303 C   0  0  0  0  0  0  0  0  0  0  0  0
  -20.3248   -7.4113   22.7986 C   0  0  0  0  0  0  0  0  0  0  0  0
  -19.0881   -6.9909   22.3095 C   0  0  0  0  0  0  0  0  0  0  0  0
  -25.7178  -28.7642   21.0681 C   0  0  0  0  0  0  0  0  0  0  0  0
  -20.0945   -4.9376   21.5295 C   0  0  0  0  0  0  0  0  0  0  0  0
  -28.5993  -19.0506   21.6305 C   0  0  0  0  0  0  0  0  0  0  0  0
  -24.2562  -10.5337   21.6129 C   0  0  0  0  0  0  0  0  0  0  0  0
  -24.1288  -12.9716   20.8726 C   0  0  0  0  0  0  0  0  0  0  0  0
  -27.3603  -34.8512   26.6580 C   0  0  0  0  0  0  0  0  0  0  0  0
  -26.5486  -31.0278   21.2825 C   0  0  0  0  0  0  0  0  0  0  0  0
  -27.0082  -33.6279   26.0564 C   0  0  0  0  0  0  0  0  0  0  0  0
  -25.4693  -30.1431   21.1465 C   0  0  0  0  0  0  0  0  0  0  0  0
  -23.1926   -8.1676   22.6389 C   0  0  0  0  0  0  0  0  0  0  0  0
  -27.0224  -28.2732   21.1115 C   0  0  0  0  0  0  0  0  0  0  0  0
  -21.4465   -6.5949   22.6531 C   0  0  0  0  0  0  0  0  0  0  0  0
  -18.9729   -5.7540   21.6750 C   0  0  0  0  0  0  0  0  0  0  0  0
  -21.3313   -5.3581   22.0186 C   0  0  0  0  0  0  0  0  0  0  0  0
  -24.8062  -11.7558   21.0836 C   0  0  0  0  0  0  0  0  0  0  0  0
  -29.8868  -20.9159   21.3263 C   0  0  0  0  0  0  0  0  0  0  0  0
  -29.5845  -18.2771   21.0574 C   0  0  0  0  0  0  0  0  0  0  0  0
  -30.8724  -20.1424   20.7539 C   0  0  0  0  0  0  0  0  0  0  0  0
  -25.0853  -13.8131   20.3593 C   0  0  0  0  0  0  0  0  0  0  0  0
  -22.7575  -13.3102   21.1188 C   0  0  0  0  0  0  0  0  0  0  0  0
  -30.0132  -22.3865   21.4954 C   0  0  0  0  0  0  0  0  0  0  0  0
  -24.7344  -32.6812   23.3020 C   0  0  0  0  0  0  0  0  0  0  0  0
  -28.1835  -25.0021   22.1569 C   0  0  0  0  0  0  0  0  0  0  0  0
  -22.6708  -32.7270   20.7997 C   0  0  0  0  0  0  0  0  0  0  0  0
  -21.6023  -31.2815   17.8987 C   0  0  0  0  0  0  0  0  0  0  0  0
  -30.2333  -15.9344   20.3963 C   0  0  0  0  0  0  0  0  0  0  0  0
  -26.3481  -35.9475   26.8776 C   0  0  0  0  0  0  0  0  0  0  0  0
  -26.3137  -32.5122   21.3442 C   0  0  0  0  0  0  0  0  0  0  0  0
  -24.0457  -30.6316   21.0904 C   0  0  0  0  0  0  0  0  0  0  0  0
  -25.0905  -35.7949   26.0260 C   0  0  0  0  0  0  0  0  0  0  0  0
  -29.7629  -12.8493   18.6821 C   0  0  0  0  0  0  0  0  0  0  0  0
  -24.5773  -34.3596   26.0842 C   0  0  0  0  0  0  0  0  0  0  0  0
  -28.3757  -12.3898   19.1367 C   0  0  0  0  0  0  0  0  0  0  0  0
  -30.5300  -13.5380   19.8095 C   0  0  0  0  0  0  0  0  0  0  0  0
  -28.4266  -14.1801   20.9197 C   0  0  0  0  0  0  0  0  0  0  0  0
  -25.6143  -33.3797   25.5221 C   0  0  1  0  0  0  0  0  0  0  0  0
  -24.9115  -32.8758   21.8227 C   0  0  1  0  0  0  0  0  0  0  0  0
  -27.5909  -13.5385   19.8001 C   0  0  2  0  0  0  0  0  0  0  0  0
  -19.8712  -31.5238   16.0981 C   0  0  0  0  0  0  0  0  0  0  0  0
  -20.5543  -31.5989   22.6859 C   0  0  0  0  0  0  0  0  0  0  0  0
  -19.1932  -30.9819   20.6772 C   0  0  0  0  0  0  0  0  0  0  0  0
  -19.7269  -33.3757   21.1326 C   0  0  0  0  0  0  0  0  0  0  0  0
  -23.6628  -31.6434   15.8054 C   0  0  0  0  0  0  0  0  0  0  0  0
  -29.3503  -24.3467   22.8645 C   0  0  0  0  0  0  0  0  0  0  0  0
  -28.4053  -26.4299   21.6997 C   0  0  0  0  0  0  0  0  0  1  0  0
  -21.5553  -31.8315   20.3173 C   0  0  1  0  0  0  0  0  0  0  0  0
  -21.2854  -31.8715   16.5364 C   0  0  2  0  0  0  0  0  0  0  0  0
  -20.2840  -31.9373   21.2062 C   0  0  0  0  0  0  0  0  0  0  0  0
  -28.7327  -20.3840   21.7752 N   0  0  0  0  0  0  0  0  0  0  0  0
  -26.0936  -11.8152   20.7327 N   0  0  0  0  0  0  0  0  0  0  0  0
  -30.7388  -18.8091   20.6089 N   0  0  0  0  0  0  0  0  0  0  0  0
  -26.2328  -13.0786   20.2961 N   0  0  0  0  0  0  0  0  0  0  0  0
  -23.8672  -32.0913   21.1608 N   0  0  0  0  0  0  0  0  0  0  0  0
  -29.7266  -14.6176   20.3873 N   0  0  0  0  0  0  0  0  0  0  0  0
  -32.0612  -20.7591   20.3028 N   0  0  0  0  0  0  0  0  0  0  0  0
  -25.0483  -15.1022   19.9602 N   0  0  0  0  0  0  0  0  0  0  0  0
  -21.9112  -12.3267   21.6488 N   0  0  0  0  0  0  0  0  0  0  0  0
  -29.3673  -16.8817   20.9414 N   0  0  0  0  0  0  0  0  0  0  0  0
  -29.3436  -22.9420   22.5828 N   0  0  0  0  0  0  0  0  0  0  0  0
  -25.6123  -33.4166   24.0754 N   0  0  0  0  0  0  0  0  0  0  0  0
  -21.3347  -32.1728   18.9161 N   0  0  0  0  0  0  0  0  0  0  0  0
  -22.2358  -31.3517   15.5130 N   0  3  0  0  0  0  0  0  0  0  0  0
  -22.2923  -14.4462   20.8605 O   0  0  0  0  0  0  0  0  0  0  0  0
  -30.6675  -23.0302   20.6793 O   0  0  0  0  0  0  0  0  0  0  0  0
  -23.8646  -31.9213   23.7116 O   0  0  0  0  0  0  0  0  0  0  0  0
  -27.1021  -24.4339   22.0071 O   0  0  0  0  0  0  0  0  0  0  0  0
  -22.4899  -33.9463   20.8473 O   0  0  0  0  0  0  0  0  0  0  0  0
  -22.0396  -30.1424   18.0459 O   0  0  0  0  0  0  0  0  0  0  0  0
  -31.3419  -16.2063   19.9283 O   0  0  0  0  0  0  0  0  0  0  0  0
  -22.6735   -7.0134   23.1399 O   0  0  0  0  0  0  0  0  0  0  0  0
  -27.2486  -26.9336   21.0328 O   0  0  0  0  0  0  0  0  0  1  0  0
  -17.7849   -5.3497   21.2067 F   0  0  0  0  0  0  0  0  0  0  0  0
  -22.4051   -4.5689   21.8769 F   0  0  0  0  0  0  0  0  0  0  0  0
  1  2  1  0  0  0  0
  1  5  2  0  0  0  0
  2  6  2  0  0  0  0
  3  8  2  0  0  0  0
  3 16  1  0  0  0  0
  4  9  1  0  0  0  0
  4 16  2  0  0  0  0
  5 18  1  0  0  0  0
  6 20  1  0  0  0  0
  7 10  2  0  0  0  0
  7 19  1  0  0  0  0
  8 22  1  0  0  0  0
  9 22  2  0  0  0  0
 10 23  1  0  0  0  0
 11 12  2  0  0  0  0
 11 24  1  0  0  0  0
 12 25  1  0  0  0  0
 13 21  1  0  0  0  0
 13 23  2  0  0  0  0
 14 25  2  0  0  0  0
 14 26  1  0  0  0  0
 15 29  1  0  0  0  0
 15 61  2  0  0  0  0
 16 27  1  0  0  0  0
 17 27  1  0  0  0  0
 17 31  2  0  0  0  0
 17 32  1  0  0  0  0
 18 20  2  0  0  0  0
 18 39  1  0  0  0  0
 19 21  2  0  0  0  0
 19 40  1  0  0  0  0
 20 48  1  0  0  0  0
 21 41  1  0  0  0  0
 22 82  1  0  0  0  0
 23 83  1  0  0  0  0
 24 26  2  0  0  0  0
 24 82  1  0  0  0  0
 25 84  1  0  0  0  0
 26 85  1  0  0  0  0
 27 62  2  0  0  0  0
 28 30  2  0  0  0  0
 28 33  1  0  0  0  0
 28 61  1  0  0  0  0
 29 63  2  0  0  0  0
 29 70  1  0  0  0  0
 30 63  1  0  0  0  0
 30 67  1  0  0  0  0
 31 64  1  0  0  0  0
 31 68  1  0  0  0  0
 32 69  1  0  0  0  0
 32 75  2  0  0  0  0
 33 71  1  0  0  0  0
 33 76  2  0  0  0  0
 34 49  1  0  0  0  0
 34 72  1  0  0  0  0
 34 77  2  0  0  0  0
 35 56  1  0  0  0  0
 35 57  1  0  0  0  0
 35 78  2  0  0  0  0
 36 58  1  0  0  0  0
 36 65  1  0  0  0  0
 36 79  2  0  0  0  0
 37 59  1  0  0  0  0
 37 73  1  0  0  0  0
 37 80  2  0  0  0  0
 38 66  1  0  0  0  0
 38 70  1  0  0  0  0
 38 81  2  0  0  0  0
 39 42  1  0  0  0  0
 40 49  1  0  0  0  0
 41 65  1  0  0  0  0
 42 44  1  0  0  0  0
 43 45  1  0  0  0  0
 43 46  1  0  0  0  0
 44 48  1  0  0  0  0
 45 50  1  0  0  0  0
 46 66  1  0  0  0  0
 47 50  1  0  0  0  0
 47 66  1  0  0  0  0
 48 72  1  0  0  0  0
 49 65  1  0  0  0  0
 50 64  1  0  0  0  0
 51 59  1  0  0  0  0
 52 60  1  0  0  0  0
 53 60  1  0  0  0  0
 54 60  1  0  0  0  0
 55 74  1  0  0  0  0
 56 71  1  0  0  0  0
 57 83  1  0  0  0  0
 58 60  1  0  0  0  0
 58 73  1  0  0  0  0
 59 74  1  0  0  0  0
 62 64  1  0  0  0  0
M  CHG  1  74   1
M  ISO  4  38 100  57 101  70 100  83 101
M  END
> <Batch ID>
0167

> <Smiles>
CNC(C)C(=O)NC(C(=O)N1Cc2cc([101O:1][101CH2:1]C(=O)CNC(=O)c3ncc([100NH:0][100C:0](=O)N4CCCC(n5nc(-c6ccc(Oc7ccc(F)cc7F)cc6)c(C(N)=O)c5N)C4)nc3N)ccc2CC1C(=O)NC1CCCc2ccccc21)C(C)(C)C

> <Shape>
0.292

> <Color>
0.152

> <Negative vol penalty>
0.000

$$$$

  -OEChem-04052304113D

 84 92  0     1  0  0  0  0  0999 V2000
  -22.4500   -7.5524   21.8093 C   0  0  0  0  0  0  0  0  0  0  0  0
  -23.4832   -8.4085   21.4417 C   0  0  0  0  0  0  0  0  0  0  0  0
  -24.5293  -31.2549   21.0016 C   0  0  0  0  0  0  0  0  0  0  0  0
  -24.9038  -30.0851   23.0821 C   0  0  0  0  0  0  0  0  0  0  0  0
  -21.1390   -8.0245   21.8580 C   0  0  0  0  0  0  0  0  0  0  0  0
  -23.2057   -9.7370   21.1215 C   0  0  0  0  0  0  0  0  0  0  0  0
  -26.4679  -12.9713   23.2528 C   0  0  0  0  0  0  0  0  0  0  0  0
  -23.9200  -32.2986   21.6981 C   0  0  0  0  0  0  0  0  0  0  0  0
  -24.2945  -31.1287   23.7786 C   0  0  0  0  0  0  0  0  0  0  0  0
  -27.7217  -13.0968   22.6561 C   0  0  0  0  0  0  0  0  0  0  0  0
  -22.5891  -35.4360   22.9630 C   0  0  0  0  0  0  0  0  0  0  0  0
  -22.9430  -36.7401   22.6173 C   0  0  0  0  0  0  0  0  0  0  0  0
  -26.9945  -15.1237   21.5688 C   0  0  0  0  0  0  0  0  0  0  0  0
  -25.2414  -36.2692   23.1943 C   0  0  0  0  0  0  0  0  0  0  0  0
  -28.0836  -20.1727   19.3040 C   0  0  0  0  0  0  0  0  0  0  0  0
  -25.0212  -30.1481   21.6936 C   0  0  0  0  0  0  0  0  0  0  0  0
  -27.0157  -28.9417   20.6573 C   0  0  0  0  0  0  0  0  0  0  0  0
  -20.8466   -9.3619   21.5476 C   0  0  0  0  0  0  0  0  0  0  0  0
  -25.4628  -13.9167   23.0030 C   0  0  0  0  0  0  0  0  0  0  0  0
  -21.8894  -10.2271   21.1648 C   0  0  0  0  0  0  0  0  0  0  0  0
  -25.7297  -15.0093   22.1656 C   0  0  0  0  0  0  0  0  0  0  0  0
  -23.8026  -32.2355   23.0866 C   0  0  0  0  0  0  0  0  0  0  0  0
  -27.9842  -14.1716   21.8117 C   0  0  0  0  0  0  0  0  0  0  0  0
  -23.5612  -34.5485   23.4245 C   0  0  0  0  0  0  0  0  0  0  0  0
  -24.2692  -37.1568   22.7329 C   0  0  0  0  0  0  0  0  0  0  0  0
  -24.8874  -34.9651   23.5401 C   0  0  0  0  0  0  0  0  0  0  0  0
  -25.6502  -29.0694   20.9746 C   0  0  0  0  0  0  0  0  0  0  0  0
  -29.3828  -19.7038   19.5647 C   0  0  0  0  0  0  0  0  0  0  0  0
  -27.0999  -27.7529   19.9746 C   0  0  0  0  0  0  0  0  0  0  0  0
  -28.0909  -21.4476   19.8048 C   0  0  0  0  0  0  0  0  0  0  0  0
  -28.1103  -29.8192   20.9532 C   0  0  0  0  0  0  0  0  0  0  0  0
  -31.1594  -16.5076   18.8690 C   0  0  0  0  0  0  0  0  0  0  0  0
  -30.7973  -15.3843   19.7989 C   0  0  0  0  0  0  0  0  0  0  0  0
  -22.5688  -13.8206   21.6918 C   0  0  0  0  0  0  0  0  0  0  0  0
  -22.4499  -16.9114   22.6690 C   0  0  0  0  0  0  0  0  0  0  0  0
  -24.1458  -19.7448   23.5308 C   0  0  0  0  0  0  0  0  0  0  0  0
  -25.7874  -22.3746   19.3792 C   0  0  0  0  0  0  0  0  0  0  0  0
  -19.4080   -9.8142   21.5686 C   0  0  0  0  0  0  0  0  0  0  0  0
  -24.1242  -13.7814   23.6755 C   0  0  0  0  0  0  0  0  0  0  0  0
  -24.6913  -16.0624   21.8810 C   0  0  0  0  0  0  0  0  0  0  0  0
  -19.2467  -11.3322   21.5772 C   0  0  0  0  0  0  0  0  0  0  0  0
  -23.4675  -24.7598   18.1120 C   0  0  0  0  0  0  0  0  0  0  0  0
  -20.1564  -11.9715   20.5329 C   0  0  0  0  0  0  0  0  0  0  0  0
  -23.9409  -26.0832   18.7177 C   0  0  0  0  0  0  0  0  0  0  0  0
  -23.6432  -23.5956   19.0854 C   0  0  0  0  0  0  0  0  0  0  0  0
  -25.4674  -24.7741   20.2484 C   0  0  0  0  0  0  0  0  0  0  0  0
  -21.6316  -11.6812   20.8343 C   0  0  1  0  0  0  0  0  0  0  0  0
  -23.0103  -14.5240   22.9440 C   0  0  1  0  0  0  0  0  0  0  0  0
  -25.3705  -25.9655   19.2815 C   0  0  2  0  0  0  0  0  0  0  0  0
  -23.7756  -22.1215   24.2463 C   0  0  0  0  0  0  0  0  0  0  0  0
  -21.7260  -17.6596   19.8009 C   0  0  0  0  0  0  0  0  0  0  0  0
  -22.2996  -20.0341   20.3494 C   0  0  0  0  0  0  0  0  0  0  0  0
  -20.4397  -18.8914   21.5566 C   0  0  0  0  0  0  0  0  0  0  0  0
  -31.8962  -17.1943   16.7406 C   0  0  0  0  0  0  0  0  0  0  0  0
  -25.5398  -19.3091   26.1049 C   0  0  0  0  0  0  0  0  0  0  0  0
  -31.0975  -17.8953   19.4440 C   0  0  0  0  0  0  0  0  0  0  0  0
  -29.4071  -15.4219   20.3735 C   0  0  0  0  0  0  0  0  0  1  0  0
  -22.8300  -18.2402   22.0615 C   0  0  1  0  0  0  0  0  0  0  0  0
  -23.9954  -20.6897   24.7094 C   0  0  2  0  0  0  0  0  0  0  0  0
  -21.8430  -18.6856   20.9457 C   0  0  0  0  0  0  0  0  0  0  0  0
  -24.9193  -28.0437   20.5299 N   0  0  0  0  0  0  0  0  0  0  0  0
  -30.1380  -20.6180   20.1802 N   0  0  0  0  0  0  0  0  0  0  0  0
  -31.5121  -16.1551   17.6825 N   0  0  0  0  0  0  0  0  0  0  0  0
  -25.8290  -27.2602   19.9261 N   0  0  0  0  0  0  0  0  0  0  0  0
  -23.3959  -15.8826   22.5572 N   0  0  0  0  0  0  0  0  0  0  0  0
  -25.0226  -23.5440   19.5747 N   0  0  0  0  0  0  0  0  0  0  0  0
  -28.1362  -27.0914   19.4170 N   0  0  0  0  0  0  0  0  0  0  0  0
  -27.8479  -30.9990   21.6629 N   0  0  0  0  0  0  0  0  0  0  0  0
  -29.7805  -18.4251   19.2010 N   0  0  0  0  0  0  0  0  0  0  0  0
  -27.0949  -22.4541   19.8575 N   0  0  0  0  0  0  0  0  0  0  0  0
  -22.1070  -12.5352   21.9015 N   0  0  0  0  0  0  0  0  0  0  0  0
  -22.9402  -19.1801   23.1718 N   0  0  0  0  0  0  0  0  0  0  0  0
  -25.2175  -20.6536   25.5615 N   0  3  0  0  0  0  0  0  0  0  0  0
  -29.2837  -29.5728   20.5844 O   0  0  0  0  0  0  0  0  0  0  0  0
  -31.6395  -14.5250   20.0080 O   0  0  0  0  0  0  0  0  0  0  0  0
  -22.6404  -14.4016   20.6152 O   0  0  0  0  0  0  0  0  0  0  0  0
  -21.3570  -16.7928   23.2286 O   0  0  0  0  0  0  0  0  0  0  0  0
  -25.2243  -19.5321   22.9810 O   0  0  0  0  0  0  0  0  0  0  0  0
  -25.3257  -21.3858   18.8038 O   0  0  0  0  0  0  0  0  0  0  0  0
  -29.3115  -21.7250   20.3304 O   0  0  0  0  0  0  0  0  0  0  0  0
  -23.2083  -33.2538   23.7666 O   0  0  0  0  0  0  0  0  0  0  0  0
  -29.2069  -14.2962   21.2274 O   0  0  0  0  0  0  0  0  0  1  0  0
  -24.6093  -38.4087   22.3994 F   0  0  0  0  0  0  0  0  0  0  0  0
  -25.8260  -34.1166   23.9816 F   0  0  0  0  0  0  0  0  0  0  0  0
  1  2  1  0  0  0  0
  1  5  2  0  0  0  0
  2  6  2  0  0  0  0
  3  8  2  0  0  0  0
  3 16  1  0  0  0  0
  4  9  1  0  0  0  0
  4 16  2  0  0  0  0
  5 18  1  0  0  0  0
  6 20  1  0  0  0  0
  7 10  2  0  0  0  0
  7 19  1  0  0  0  0
  8 22  1  0  0  0  0
  9 22  2  0  0  0  0
 10 23  1  0  0  0  0
 11 12  2  0  0  0  0
 11 24  1  0  0  0  0
 12 25  1  0  0  0  0
 13 21  1  0  0  0  0
 13 23  2  0  0  0  0
 14 25  2  0  0  0  0
 14 26  1  0  0  0  0
 15 28  1  0  0  0  0
 15 30  2  0  0  0  0
 16 27  1  0  0  0  0
 17 27  1  0  0  0  0
 17 29  2  0  0  0  0
 17 31  1  0  0  0  0
 18 20  2  0  0  0  0
 18 38  1  0  0  0  0
 19 21  2  0  0  0  0
 19 39  1  0  0  0  0
 20 47  1  0  0  0  0
 21 40  1  0  0  0  0
 22 81  1  0  0  0  0
 23 82  1  0  0  0  0
 24 26  2  0  0  0  0
 24 81  1  0  0  0  0
 25 83  1  0  0  0  0
 26 84  1  0  0  0  0
 27 61  2  0  0  0  0
 28 62  2  0  0  0  0
 28 69  1  0  0  0  0
 29 64  1  0  0  0  0
 29 67  1  0  0  0  0
 30 70  1  0  0  0  0
 30 80  1  0  0  0  0
 31 68  1  0  0  0  0
 31 74  2  0  0  0  0
 32 33  1  0  0  0  0
 32 56  1  0  0  0  0
 32 63  2  0  0  0  0
 33 57  1  0  0  0  0
 33 75  2  0  0  0  0
 34 48  1  0  0  0  0
 34 71  1  0  0  0  0
 34 76  2  0  0  0  0
 35 58  1  0  0  0  0
 35 65  1  0  0  0  0
 35 77  2  0  0  0  0
 36 59  1  0  0  0  0
 36 72  1  0  0  0  0
 36 78  2  0  0  0  0
 37 66  1  0  0  0  0
 37 70  1  0  0  0  0
 37 79  2  0  0  0  0
 38 41  1  0  0  0  0
 39 48  1  0  0  0  0
 40 65  1  0  0  0  0
 41 43  1  0  0  0  0
 42 44  1  0  0  0  0
 42 45  1  0  0  0  0
 43 47  1  0  0  0  0
 44 49  1  0  0  0  0
 45 66  1  0  0  0  0
 46 49  1  0  0  0  0
 46 66  1  0  0  0  0
 47 71  1  0  0  0  0
 48 65  1  0  0  0  0
 49 64  1  0  0  0  0
 50 59  1  0  0  0  0
 51 60  1  0  0  0  0
 52 60  1  0  0  0  0
 53 60  1  0  0  0  0
 54 63  1  0  0  0  0
 55 73  1  0  0  0  0
 56 69  1  0  0  0  0
 57 82  1  0  0  0  0
 58 60  1  0  0  0  0
 58 72  1  0  0  0  0
 59 73  1  0  0  0  0
 61 64  1  0  0  0  0
 62 80  1  0  0  0  0
M  CHG  1  73   1
M  ISO  4  37 100  57 101  70 100  82 101
M  END
> <Batch ID>
0167

> <Smiles>
CN=C(CNc1cc([100NH:0][100C:0](=O)N2CCCC(n3nc(-c4ccc(Oc5ccc(F)cc5F)cc4)c(C(N)=O)c3N)C2)on1)C(=O)[101CH2:1][101O:1]c1ccc2c(c1)CN(C(=O)C(NC(=O)C(C)NC)C(C)(C)C)C(C(=O)NC1CCCc3ccccc31)C2

> <Shape>
0.226

> <Color>
0.102

> <Negative vol penalty>
0.000

$$$$

  -OEChem-04052304113D

 84 92  0     1  0  0  0  0  0999 V2000
  -19.8282  -34.4829   21.7504 C   0  0  0  0  0  0  0  0  0  0  0  0
  -21.1183  -34.0727   21.4298 C   0  0  0  0  0  0  0  0  0  0  0  0
  -26.7007  -17.1960   19.7667 C   0  0  0  0  0  0  0  0  0  0  0  0
  -28.7381  -17.1794   21.0651 C   0  0  0  0  0  0  0  0  0  0  0  0
  -19.0518  -33.7202   22.6219 C   0  0  0  0  0  0  0  0  0  0  0  0
  -21.6332  -32.9001   21.9814 C   0  0  0  0  0  0  0  0  0  0  0  0
  -25.4579  -28.9399   19.2991 C   0  0  0  0  0  0  0  0  0  0  0  0
  -26.7407  -15.8041   19.6862 C   0  0  0  0  0  0  0  0  0  0  0  0
  -28.7781  -15.7874   20.9846 C   0  0  0  0  0  0  0  0  0  0  0  0
  -26.8390  -28.7679   19.3808 C   0  0  0  0  0  0  0  0  0  0  0  0
  -25.9866  -13.1715   21.6695 C   0  0  0  0  0  0  0  0  0  0  0  0
  -24.8004  -12.4746   21.8996 C   0  0  0  0  0  0  0  0  0  0  0  0
  -26.5207  -27.0522   21.0464 C   0  0  0  0  0  0  0  0  0  0  0  0
  -33.7487  -25.9721   20.8720 C   0  0  0  0  0  0  0  0  0  0  0  0
  -24.9224  -11.5335   19.6778 C   0  0  0  0  0  0  0  0  0  0  0  0
  -33.9383  -24.9589   22.9552 C   0  0  0  0  0  0  0  0  0  0  0  0
  -27.6995  -17.8837   20.4562 C   0  0  0  0  0  0  0  0  0  0  0  0
  -27.0328  -20.0985   21.5323 C   0  0  0  0  0  0  0  0  0  0  0  0
  -19.5540  -32.5326   23.1769 C   0  0  0  0  0  0  0  0  0  0  0  0
  -24.5968  -28.1757   20.0997 C   0  0  0  0  0  0  0  0  0  0  0  0
  -20.8633  -32.1215   22.8622 C   0  0  0  0  0  0  0  0  0  0  0  0
  -25.1289  -27.2146   20.9711 C   0  0  0  0  0  0  0  0  0  0  0  0
  -33.8424  -26.1567   22.2817 C   0  0  0  0  0  0  0  0  0  0  0  0
  -27.7793  -15.0998   20.2951 C   0  0  0  0  0  0  0  0  0  0  0  0
  -27.3708  -27.8259   20.2567 C   0  0  0  0  0  0  0  0  0  0  0  0
  -26.6406  -13.0495   20.4435 C   0  0  0  0  0  0  0  0  0  0  0  0
  -24.2684  -11.6555   20.9038 C   0  0  0  0  0  0  0  0  0  0  0  0
  -26.1085  -12.2305   19.4477 C   0  0  0  0  0  0  0  0  0  0  0  0
  -27.6591  -19.3216   20.5392 C   0  0  0  0  0  0  0  0  0  0  0  0
  -33.7767  -24.6400   20.5217 C   0  0  0  0  0  0  0  0  0  0  0  0
  -27.2816  -21.3970   21.1601 C   0  0  0  0  0  0  0  0  0  0  0  0
  -26.2925  -19.6835   22.6878 C   0  0  0  0  0  0  0  0  0  0  0  0
  -22.4748  -28.8326   22.3733 C   0  0  0  0  0  0  0  0  0  0  0  0
  -32.7148  -27.9583   23.2703 C   0  0  0  0  0  0  0  0  0  0  0  0
  -30.6578  -27.7475   21.7859 C   0  0  0  0  0  0  0  0  0  0  0  0
  -21.8430  -25.6582   22.1579 C   0  0  0  0  0  0  0  0  0  0  0  0
  -22.9302  -22.5396   21.2983 C   0  0  0  0  0  0  0  0  0  0  0  0
  -31.5909  -23.9422   17.8733 C   0  0  0  0  0  0  0  0  0  0  0  0
  -18.6946  -31.7664   24.1511 C   0  0  0  0  0  0  0  0  0  0  0  0
  -23.1082  -28.3546   19.9803 C   0  0  0  0  0  0  0  0  0  0  0  0
  -24.2466  -26.3547   21.8375 C   0  0  0  0  0  0  0  0  0  0  0  0
  -19.1785  -30.3400   24.3991 C   0  0  0  0  0  0  0  0  0  0  0  0
  -28.0817  -24.0954   17.2911 C   0  0  0  0  0  0  0  0  0  0  0  0
  -20.6839  -30.3220   24.6441 C   0  0  0  0  0  0  0  0  0  0  0  0
  -27.5190  -22.9594   18.1471 C   0  0  0  0  0  0  0  0  0  0  0  0
  -29.4312  -23.7258   16.6793 C   0  0  0  0  0  0  0  0  0  0  0  0
  -29.8824  -22.1309   18.5032 C   0  0  0  0  0  0  0  0  0  0  0  0
  -21.4482  -30.8425   23.4208 C   0  0  1  0  0  0  0  0  0  0  0  0
  -22.3486  -27.8824   21.2162 C   0  0  1  0  0  0  0  0  0  0  0  0
  -28.5487  -22.4777   19.1868 C   0  0  2  0  0  0  0  0  0  0  0  0
  -32.7774  -29.3264   23.9071 C   0  0  0  0  0  0  0  0  0  0  0  0
  -22.2035  -20.1378   21.2721 C   0  0  0  0  0  0  0  0  0  0  0  0
  -22.2940  -25.4914   25.1710 C   0  0  0  0  0  0  0  0  0  0  0  0
  -22.4984  -23.0075   24.9326 C   0  0  0  0  0  0  0  0  0  0  0  0
  -20.3618  -24.1450   24.3293 C   0  0  0  0  0  0  0  0  0  0  0  0
  -23.1969  -22.3702   18.3557 C   0  0  0  0  0  0  0  0  0  0  0  0
  -33.7039  -24.0416   19.1712 C   0  0  0  0  0  0  0  0  0  0  0  0
  -31.3350  -27.3538   23.0825 C   0  0  0  0  0  0  0  0  0  0  0  0
  -29.2446  -27.2350   21.5966 C   0  0  0  0  0  0  0  0  0  1  0  0
  -22.3768  -24.4141   22.8260 C   0  0  1  0  0  0  0  0  0  0  0  0
  -22.2810  -21.4356   20.4832 C   0  0  2  0  0  0  0  0  0  0  0  0
  -21.8997  -24.2819   24.2999 C   0  0  0  0  0  0  0  0  0  0  0  0
  -28.2603  -20.0646   19.6062 N   0  0  0  0  0  0  0  0  0  0  0  0
  -33.8367  -27.4158   22.9011 N   0  0  0  0  0  0  0  0  0  0  0  0
  -28.0130  -21.3219   20.0113 N   0  0  0  0  0  0  0  0  0  0  0  0
  -22.7980  -26.5715   21.6892 N   0  0  0  0  0  0  0  0  0  0  0  0
  -30.3624  -23.2790   17.7182 N   0  0  0  0  0  0  0  0  0  0  0  0
  -26.9439  -22.5843   21.7066 N   0  0  0  0  0  0  0  0  0  0  0  0
  -26.1319  -18.3108   22.9210 N   0  0  0  0  0  0  0  0  0  0  0  0
  -21.5127  -29.8243   22.3944 N   0  0  0  0  0  0  0  0  0  0  0  0
  -21.9939  -23.2955   21.9714 N   0  0  0  0  0  0  0  0  0  0  0  0
  -32.4116  -23.4593   18.8853 N   0  0  0  0  0  0  0  0  0  0  0  0
  -23.0612  -21.1833   19.2388 N   0  3  0  0  0  0  0  0  0  0  0  0
  -25.7744  -20.5057   23.4810 O   0  0  0  0  0  0  0  0  0  0  0  0
  -23.3772  -28.6766   23.1875 O   0  0  0  0  0  0  0  0  0  0  0  0
  -31.2134  -28.4493   20.9421 O   0  0  0  0  0  0  0  0  0  0  0  0
  -20.6237  -25.8105   22.0493 O   0  0  0  0  0  0  0  0  0  0  0  0
  -24.1465  -22.7116   21.3371 O   0  0  0  0  0  0  0  0  0  0  0  0
  -31.9289  -24.8974   17.1660 O   0  0  0  0  0  0  0  0  0  0  0  0
  -27.8185  -13.7415   20.2169 O   0  0  0  0  0  0  0  0  0  0  0  0
  -28.7185  -27.6565   20.3389 O   0  0  0  0  0  0  0  0  0  1  0  0
  -23.1301  -10.9851   21.1254 F   0  0  0  0  0  0  0  0  0  0  0  0
  -26.7330  -12.1084   18.2683 F   0  0  0  0  0  0  0  0  0  0  0  0
  -33.9152  -23.6189   21.8893 S   0  0  0  0  0  0  0  0  0  0  0  0
  1  2  1  0  0  0  0
  1  5  2  0  0  0  0
  2  6  2  0  0  0  0
  3  8  2  0  0  0  0
  3 17  1  0  0  0  0
  4  9  1  0  0  0  0
  4 17  2  0  0  0  0
  5 19  1  0  0  0  0
  6 21  1  0  0  0  0
  7 10  2  0  0  0  0
  7 20  1  0  0  0  0
  8 24  1  0  0  0  0
  9 24  2  0  0  0  0
 10 25  1  0  0  0  0
 11 12  2  0  0  0  0
 11 26  1  0  0  0  0
 12 27  1  0  0  0  0
 13 22  1  0  0  0  0
 13 25  2  0  0  0  0
 14 23  1  0  0  0  0
 14 30  2  0  0  0  0
 15 27  2  0  0  0  0
 15 28  1  0  0  0  0
 16 23  2  0  0  0  0
 16 84  1  0  0  0  0
 17 29  1  0  0  0  0
 18 29  1  0  0  0  0
 18 31  2  0  0  0  0
 18 32  1  0  0  0  0
 19 21  2  0  0  0  0
 19 39  1  0  0  0  0
 20 22  2  0  0  0  0
 20 40  1  0  0  0  0
 21 48  1  0  0  0  0
 22 41  1  0  0  0  0
 23 64  1  0  0  0  0
 24 80  1  0  0  0  0
 25 81  1  0  0  0  0
 26 28  2  0  0  0  0
 26 80  1  0  0  0  0
 27 82  1  0  0  0  0
 28 83  1  0  0  0  0
 29 63  2  0  0  0  0
 30 57  1  0  0  0  0
 30 84  1  0  0  0  0
 31 65  1  0  0  0  0
 31 68  1  0  0  0  0
 32 69  1  0  0  0  0
 32 74  2  0  0  0  0
 33 49  1  0  0  0  0
 33 70  1  0  0  0  0
 33 75  2  0  0  0  0
 34 51  1  0  0  0  0
 34 58  1  0  0  0  0
 34 64  2  0  0  0  0
 35 58  1  0  0  0  0
 35 59  1  0  0  0  0
 35 76  2  0  0  0  0
 36 60  1  0  0  0  0
 36 66  1  0  0  0  0
 36 77  2  0  0  0  0
 37 61  1  0  0  0  0
 37 71  1  0  0  0  0
 37 78  2  0  0  0  0
 38 67  1  0  0  0  0
 38 72  1  0  0  0  0
 38 79  2  0  0  0  0
 39 42  1  0  0  0  0
 40 49  1  0  0  0  0
 41 66  1  0  0  0  0
 42 44  1  0  0  0  0
 43 45  1  0  0  0  0
 43 46  1  0  0  0  0
 44 48  1  0  0  0  0
 45 50  1  0  0  0  0
 46 67  1  0  0  0  0
 47 50  1  0  0  0  0
 47 67  1  0  0  0  0
 48 70  1  0  0  0  0
 49 66  1  0  0  0  0
 50 65  1  0  0  0  0
 52 61  1  0  0  0  0
 53 62  1  0  0  0  0
 54 62  1  0  0  0  0
 55 62  1  0  0  0  0
 56 73  1  0  0  0  0
 57 72  1  0  0  0  0
 59 81  1  0  0  0  0
 60 62  1  0  0  0  0
 60 71  1  0  0  0  0
 61 73  1  0  0  0  0
 63 65  1  0  0  0  0
M  CHG  1  73   1
M  ISO  4  38 100  59 101  72 100  81 101
M  END
> <Batch ID>
0167

> <Smiles>
CNC(C)C(=O)NC(C(=O)N1Cc2cc([101O:1][101CH2:1]C(=O)C=C(C)Nc3csc(C[100NH:0][100C:0](=O)N4CCCC(n5nc(-c6ccc(Oc7ccc(F)cc7F)cc6)c(C(N)=O)c5N)C4)c3)ccc2CC1C(=O)NC1CCCc2ccccc21)C(C)(C)C

> <Shape>
0.197

> <Color>
0.080

> <Negative vol penalty>
0.000

$$$$

  -OEChem-04052304113D

 87 96  0     1  0  0  0  0  0999 V2000
  -17.7438  -26.0495   23.5696 C   0  0  0  0  0  0  0  0  0  0  0  0
  -19.0108  -25.6591   23.1480 C   0  0  0  0  0  0  0  0  0  0  0  0
  -24.6480  -12.7486   21.3423 C   0  0  0  0  0  0  0  0  0  0  0  0
  -25.5929  -12.5630   19.1265 C   0  0  0  0  0  0  0  0  0  0  0  0
  -17.3176  -27.3619   23.3701 C   0  0  0  0  0  0  0  0  0  0  0  0
  -19.8520  -26.5807   22.5256 C   0  0  0  0  0  0  0  0  0  0  0  0
  -25.9519  -26.8878   22.9765 C   0  0  0  0  0  0  0  0  0  0  0  0
  -23.8587  -11.6244   21.0999 C   0  0  0  0  0  0  0  0  0  0  0  0
  -24.8036  -11.4388   18.8841 C   0  0  0  0  0  0  0  0  0  0  0  0
  -26.9777  -26.4323   22.1494 C   0  0  0  0  0  0  0  0  0  0  0  0
  -24.2516   -8.2663   21.0602 C   0  0  0  0  0  0  0  0  0  0  0  0
  -24.1788   -7.2973   22.0608 C   0  0  0  0  0  0  0  0  0  0  0  0
  -27.1243  -28.6175   21.1381 C   0  0  0  0  0  0  0  0  0  0  0  0
  -33.0547  -22.1933   18.3063 C   0  0  0  0  0  0  0  0  0  0  0  0
  -31.8316  -20.1426   18.5942 C   0  0  0  0  0  0  0  0  0  0  0  0
  -21.7880   -7.6179   22.1972 C   0  0  0  0  0  0  0  0  0  0  0  0
  -25.5151  -13.2179   20.3556 C   0  0  0  0  0  0  0  0  0  0  0  0
  -27.6260  -14.4064   21.1552 C   0  0  0  0  0  0  0  0  0  0  0  0
  -18.1577  -28.3026   22.7536 C   0  0  0  0  0  0  0  0  0  0  0  0
  -25.4964  -28.2107   22.8829 C   0  0  0  0  0  0  0  0  0  0  0  0
  -19.4362  -27.9066   22.3164 C   0  0  0  0  0  0  0  0  0  0  0  0
  -26.0943  -29.0880   21.9670 C   0  0  0  0  0  0  0  0  0  0  0  0
  -33.0422  -20.8097   18.4433 C   0  0  0  0  0  0  0  0  0  0  0  0
  -23.9364  -10.9695   19.8708 C   0  0  0  0  0  0  0  0  0  0  0  0
  -27.5621  -27.2964   21.2280 C   0  0  0  0  0  0  0  0  0  0  0  0
  -23.0927   -8.9112   20.6280 C   0  0  0  0  0  0  0  0  0  0  0  0
  -22.9470   -6.9731   22.6293 C   0  0  0  0  0  0  0  0  0  0  0  0
  -21.8609   -8.5869   21.1965 C   0  0  0  0  0  0  0  0  0  0  0  0
  -26.3304  -14.3795   20.6052 C   0  0  0  0  0  0  0  0  0  0  0  0
  -31.8391  -22.8581   18.3263 C   0  0  0  0  0  0  0  0  0  0  0  0
  -30.6708  -20.8991   18.6015 C   0  0  0  0  0  0  0  0  0  0  0  0
  -27.9588  -15.7387   21.1847 C   0  0  0  0  0  0  0  0  0  0  0  0
  -30.1957  -27.0836   18.7244 C   0  0  0  0  0  0  0  0  0  0  0  0
  -28.4545  -13.3240   21.5997 C   0  0  0  0  0  0  0  0  0  0  0  0
  -22.7251  -29.5821   22.1462 C   0  0  0  0  0  0  0  0  0  0  0  0
  -24.2847  -32.2942   23.0032 C   0  0  0  0  0  0  0  0  0  0  0  0
  -27.2568  -33.9202   23.4147 C   0  0  0  0  0  0  0  0  0  0  0  0
  -28.1626  -20.7624   18.7922 C   0  0  0  0  0  0  0  0  0  0  0  0
  -17.6352  -29.6975   22.5170 C   0  0  0  0  0  0  0  0  0  0  0  0
  -24.4072  -28.6939   23.8008 C   0  0  0  0  0  0  0  0  0  0  0  0
  -25.6555  -30.5233   21.8412 C   0  0  0  0  0  0  0  0  0  0  0  0
  -31.3575  -26.5164   19.5017 C   0  0  0  0  0  0  0  0  0  0  0  0
  -18.7290  -30.7098   22.1869 C   0  0  0  0  0  0  0  0  0  0  0  0
  -25.1233  -19.8601   20.4127 C   0  0  0  0  0  0  0  0  0  0  0  0
  -19.6828  -30.1430   21.1401 C   0  0  0  0  0  0  0  0  0  0  0  0
  -25.2730  -18.3560   20.6525 C   0  0  0  0  0  0  0  0  0  0  0  0
  -25.7409  -20.2865   19.0821 C   0  0  0  0  0  0  0  0  0  0  0  0
  -27.2851  -18.3674   19.1234 C   0  0  0  0  0  0  0  0  0  0  0  0
  -20.3870  -28.8838   21.6597 C   0  0  1  0  0  0  0  0  0  0  0  0
  -31.8140  -24.3668   18.1804 C   0  0  1  0  0  0  0  0  0  0  0  0
  -23.6722  -29.9180   23.2633 C   0  0  1  0  0  0  0  0  0  0  0  0
  -26.7356  -17.9008   20.4813 C   0  0  2  0  0  0  0  0  0  0  0  0
  -30.9613  -24.8664   16.9919 C   0  0  2  0  0  0  0  0  0  0  0  0
  -34.3217  -20.0445   18.4288 C   0  0  0  0  0  0  0  0  0  0  0  0
  -31.4173  -24.2747   15.6580 C   0  0  0  0  0  0  0  0  0  0  0  0
  -28.2102  -36.1408   24.0910 C   0  0  0  0  0  0  0  0  0  0  0  0
  -23.4925  -33.4562   20.2954 C   0  0  0  0  0  0  0  0  0  0  0  0
  -25.2239  -35.2335   20.6297 C   0  0  0  0  0  0  0  0  0  0  0  0
  -23.3033  -35.0525   22.2113 C   0  0  0  0  0  0  0  0  0  0  0  0
  -28.7194  -32.7285   25.6950 C   0  0  0  0  0  0  0  0  0  0  0  0
  -29.1165  -27.7934   19.4981 C   0  0  0  0  0  0  0  0  0  1  0  0
  -25.1353  -33.3116   22.2819 C   0  0  1  0  0  0  0  0  0  0  0  0
  -27.7981  -34.7546   24.5615 C   0  0  2  0  0  0  0  0  0  0  0  0
  -24.2959  -34.2359   21.3553 C   0  0  0  0  0  0  0  0  0  0  0  0
  -25.8714  -15.5978   20.3069 N   0  0  0  0  0  0  0  0  0  0  0  0
  -30.6433  -22.2444   18.4709 N   0  0  0  0  0  0  0  0  0  0  0  0
  -30.0587  -26.9633   17.4391 N   0  0  0  0  0  0  0  0  0  0  0  0
  -26.8840  -16.4028   20.6709 N   0  0  0  0  0  0  0  0  0  0  0  0
  -24.5827  -30.9466   22.7564 N   0  0  0  0  0  0  0  0  0  0  0  0
  -27.1278  -19.8244   18.9925 N   0  0  0  0  0  0  0  0  0  0  0  0
  -29.0630  -16.3951   21.5998 N   0  0  0  0  0  0  0  0  0  0  0  0
  -27.9581  -12.0173   21.4982 N   0  0  0  0  0  0  0  0  0  0  0  0
  -29.4425  -20.2099   18.7563 N   0  0  0  0  0  0  0  0  0  0  0  0
  -21.4546  -29.2407   22.5692 N   0  0  0  0  0  0  0  0  0  0  0  0
  -25.8854  -34.0210   23.3127 N   0  0  0  0  0  0  0  0  0  0  0  0
  -31.3269  -25.0202   19.4629 N   0  3  0  0  0  0  0  0  0  0  0  0
  -28.9868  -34.0917   25.1685 N   0  3  0  0  0  0  0  0  0  0  0  0
  -29.5947  -13.5114   22.0880 O   0  0  0  0  0  0  0  0  0  0  0  0
  -23.1174  -29.6307   20.9863 O   0  0  0  0  0  0  0  0  0  0  0  0
  -23.3934  -32.6810   23.7632 O   0  0  0  0  0  0  0  0  0  0  0  0
  -27.9787  -33.2493   22.6804 O   0  0  0  0  0  0  0  0  0  0  0  0
  -27.9328  -21.9701   18.6893 O   0  0  0  0  0  0  0  0  0  0  0  0
  -31.1479  -26.2859   16.8704 O   0  0  0  0  0  0  0  0  0  0  0  0
  -23.1665   -9.8724   19.6340 O   0  0  0  0  0  0  0  0  0  0  0  0
  -28.5630  -26.8543   20.4190 O   0  0  0  0  0  0  0  0  0  1  0  0
  -22.8770   -6.0414   23.5892 F   0  0  0  0  0  0  0  0  0  0  0  0
  -20.7439   -9.2022   20.7847 F   0  0  0  0  0  0  0  0  0  0  0  0
  1  2  1  0  0  0  0
  1  5  2  0  0  0  0
  2  6  2  0  0  0  0
  3  8  2  0  0  0  0
  3 17  1  0  0  0  0
  4  9  1  0  0  0  0
  4 17  2  0  0  0  0
  5 19  1  0  0  0  0
  6 21  1  0  0  0  0
  7 10  2  0  0  0  0
  7 20  1  0  0  0  0
  8 24  1  0  0  0  0
  9 24  2  0  0  0  0
 10 25  1  0  0  0  0
 11 12  2  0  0  0  0
 11 26  1  0  0  0  0
 12 27  1  0  0  0  0
 13 22  1  0  0  0  0
 13 25  2  0  0  0  0
 14 23  2  0  0  0  0
 14 30  1  0  0  0  0
 15 23  1  0  0  0  0
 15 31  2  0  0  0  0
 16 27  2  0  0  0  0
 16 28  1  0  0  0  0
 17 29  1  0  0  0  0
 18 29  1  0  0  0  0
 18 32  2  0  0  0  0
 18 34  1  0  0  0  0
 19 21  2  0  0  0  0
 19 39  1  0  0  0  0
 20 22  2  0  0  0  0
 20 40  1  0  0  0  0
 21 49  1  0  0  0  0
 22 41  1  0  0  0  0
 23 54  1  0  0  0  0
 24 84  1  0  0  0  0
 25 85  1  0  0  0  0
 26 28  2  0  0  0  0
 26 84  1  0  0  0  0
 27 86  1  0  0  0  0
 28 87  1  0  0  0  0
 29 65  2  0  0  0  0
 30 50  1  0  0  0  0
 30 66  2  0  0  0  0
 31 66  1  0  0  0  0
 31 73  1  0  0  0  0
 32 68  1  0  0  0  0
 32 71  1  0  0  0  0
 33 42  1  0  0  0  0
 33 61  1  0  0  0  0
 33 67  2  0  0  0  0
 34 72  1  0  0  0  0
 34 78  2  0  0  0  0
 35 51  1  0  0  0  0
 35 74  1  0  0  0  0
 35 79  2  0  0  0  0
 36 62  1  0  0  0  0
 36 69  1  0  0  0  0
 36 80  2  0  0  0  0
 37 63  1  0  0  0  0
 37 75  1  0  0  0  0
 37 81  2  0  0  0  0
 38 70  1  0  0  0  0
 38 73  1  0  0  0  0
 38 82  2  0  0  0  0
 39 43  1  0  0  0  0
 40 51  1  0  0  0  0
 41 69  1  0  0  0  0
 42 76  1  0  0  0  0
 43 45  1  0  0  0  0
 44 46  1  0  0  0  0
 44 47  1  0  0  0  0
 45 49  1  0  0  0  0
 46 52  1  0  0  0  0
 47 70  1  0  0  0  0
 48 52  1  0  0  0  0
 48 70  1  0  0  0  0
 49 74  1  0  0  0  0
 50 53  1  0  0  0  0
 50 76  1  0  0  0  0
 51 69  1  0  0  0  0
 52 68  1  0  0  0  0
 53 55  1  0  0  0  0
 53 83  1  0  0  0  0
 56 63  1  0  0  0  0
 57 64  1  0  0  0  0
 58 64  1  0  0  0  0
 59 64  1  0  0  0  0
 60 77  1  0  0  0  0
 61 85  1  0  0  0  0
 62 64  1  0  0  0  0
 62 75  1  0  0  0  0
 63 77  1  0  0  0  0
 65 68  1  0  0  0  0
 67 83  1  0  0  0  0
M  CHG  2  76   1  77   1
M  ISO  4  38 100  61 101  73 100  85 101
M  END
> <Batch ID>
0167

> <Smiles>
CNC(C)C(=O)NC(C(=O)N1Cc2cc([101O:1][101CH2:1]C3=NOC(C)C(c4cc(C)cc([100NH:0][100C:0](=O)N5CCCC(n6nc(-c7ccc(Oc8ccc(F)cc8F)cc7)c(C(N)=O)c6N)C5)n4)NC3)ccc2CC1C(=O)NC1CCCc2ccccc21)C(C)(C)C

> <Shape>
0.311

> <Color>
0.087

> <Negative vol penalty>
0.000

$$$$

  -OEChem-04052304113D

 89 97  0     1  0  0  0  0  0999 V2000
  -29.1607  -36.0028   19.8997 C   0  0  0  0  0  0  0  0  0  0  0  0
  -29.2431  -34.6671   19.5196 C   0  0  0  0  0  0  0  0  0  0  0  0
  -33.0053  -18.0711   21.5936 C   0  0  0  0  0  0  0  0  0  0  0  0
  -23.0025  -10.1966   21.4852 C   0  0  0  0  0  0  0  0  0  0  0  0
  -23.8810  -11.0015   23.5870 C   0  0  0  0  0  0  0  0  0  0  0  0
  -28.5836  -36.3441   21.1222 C   0  0  0  0  0  0  0  0  0  0  0  0
  -28.7495  -33.6718   20.3623 C   0  0  0  0  0  0  0  0  0  0  0  0
  -26.0642  -28.4284   18.6883 C   0  0  0  0  0  0  0  0  0  0  0  0
  -32.2947  -19.1985   22.0054 C   0  0  0  0  0  0  0  0  0  0  0  0
  -32.3235  -16.9582   21.1013 C   0  0  0  0  0  0  0  0  0  0  0  0
  -22.2365   -9.2514   22.1674 C   0  0  0  0  0  0  0  0  0  0  0  0
  -23.1150  -10.0563   24.2692 C   0  0  0  0  0  0  0  0  0  0  0  0
  -26.5449  -27.1253   18.5675 C   0  0  0  0  0  0  0  0  0  0  0  0
  -22.7176   -6.2432   23.6316 C   0  0  0  0  0  0  0  0  0  0  0  0
  -22.7026   -4.9405   23.1333 C   0  0  0  0  0  0  0  0  0  0  0  0
  -25.7279  -26.6252   20.7815 C   0  0  0  0  0  0  0  0  0  0  0  0
  -20.3094   -5.0826   22.8339 C   0  0  0  0  0  0  0  0  0  0  0  0
  -23.8248  -11.0717   22.1950 C   0  0  0  0  0  0  0  0  0  0  0  0
  -24.2399  -13.3598   21.1463 C   0  0  0  0  0  0  0  0  0  0  0  0
  -28.0739  -35.3532   21.9760 C   0  0  0  0  0  0  0  0  0  0  0  0
  -25.4204  -28.8436   19.8628 C   0  0  0  0  0  0  0  0  0  0  0  0
  -28.1662  -34.0001   21.5979 C   0  0  0  0  0  0  0  0  0  0  0  0
  -25.2377  -27.9334   20.9137 C   0  0  0  0  0  0  0  0  0  0  0  0
  -30.9022  -19.2130   21.9250 C   0  0  0  0  0  0  0  0  0  0  0  0
  -30.2204  -18.1001   21.4328 C   0  0  0  0  0  0  0  0  0  0  0  0
  -30.9310  -16.9727   21.0209 C   0  0  0  0  0  0  0  0  0  0  0  0
  -22.2927   -9.1812   23.5593 C   0  0  0  0  0  0  0  0  0  0  0  0
  -26.3793  -26.2243   19.6153 C   0  0  0  0  0  0  0  0  0  0  0  0
  -21.5285   -6.9656   23.7311 C   0  0  0  0  0  0  0  0  0  0  0  0
  -21.4986   -4.3602   22.7344 C   0  0  0  0  0  0  0  0  0  0  0  0
  -20.3244   -6.3853   23.3323 C   0  0  0  0  0  0  0  0  0  0  0  0
  -24.6168  -12.0479   21.4909 C   0  0  0  0  0  0  0  0  0  0  0  0
  -25.3348  -13.8714   20.4937 C   0  0  0  0  0  0  0  0  0  0  0  0
  -23.0100  -14.0539   21.3941 C   0  0  0  0  0  0  0  0  0  0  0  0
  -26.0008  -31.0454   22.0807 C   0  0  0  0  0  0  0  0  0  0  0  0
  -28.3484  -23.2850   20.4170 C   0  0  0  0  0  0  0  0  0  0  0  0
  -23.0921  -30.1338   23.1903 C   0  0  0  0  0  0  0  0  0  0  0  0
  -20.6866  -27.7198   23.3712 C   0  0  0  0  0  0  0  0  0  0  0  0
  -30.8331  -14.6416   20.0709 C   0  0  0  0  0  0  0  0  0  0  0  0
  -27.5017  -35.7673   23.3086 C   0  0  0  0  0  0  0  0  0  0  0  0
  -24.8840  -30.2450   19.9669 C   0  0  0  0  0  0  0  0  0  0  0  0
  -24.5355  -28.3236   22.1877 C   0  0  0  0  0  0  0  0  0  0  0  0
  -26.6640  -34.6798   23.9762 C   0  0  0  0  0  0  0  0  0  0  0  0
  -29.5204  -11.5882   18.7938 C   0  0  0  0  0  0  0  0  0  0  0  0
  -27.3893  -33.3390   23.9228 C   0  0  0  0  0  0  0  0  0  0  0  0
  -28.0966  -11.5435   19.3533 C   0  0  0  0  0  0  0  0  0  0  0  0
  -30.5038  -12.1942   19.7934 C   0  0  0  0  0  0  0  0  0  0  0  0
  -28.6956  -13.4639   20.8832 C   0  0  0  0  0  0  0  0  0  0  0  0
  -27.6196  -32.8936   22.4736 C   0  0  1  0  0  0  0  0  0  0  0  0
  -24.6998  -30.7087   21.4086 C   0  0  1  0  0  0  0  0  0  0  0  0
  -27.6576  -12.9210   19.8875 C   0  0  2  0  0  0  0  0  0  0  0  0
  -18.4378  -27.2515   24.3816 C   0  0  0  0  0  0  0  0  0  0  0  0
  -25.9926  -16.4843   23.6159 C   0  0  0  0  0  0  0  0  0  0  0  0
  -25.9677  -18.7374   22.5281 C   0  0  0  0  0  0  0  0  0  0  0  0
  -24.4092  -29.6790   25.9048 C   0  0  0  0  0  0  0  0  0  0  0  0
  -22.3998  -28.3460   26.5784 C   0  0  0  0  0  0  0  0  0  0  0  0
  -22.1571  -30.7619   26.0063 C   0  0  0  0  0  0  0  0  0  0  0  0
  -19.4327  -27.3833   20.7116 C   0  0  0  0  0  0  0  0  0  0  0  0
  -30.1593  -20.4438   22.3766 C   0  0  0  0  0  0  0  0  0  0  0  0
  -28.7263  -18.1204   21.3483 C   0  0  0  0  0  0  0  0  0  0  0  0
  -28.8594  -22.5124   21.6260 C   0  0  0  0  0  0  0  0  0  0  0  0
  -27.2581  -24.2998   20.7015 C   0  0  0  0  0  0  0  0  0  1  0  0
  -28.0782  -17.3048   22.4800 C   0  0  0  0  0  0  0  0  0  0  0  0
  -22.5978  -29.0896   24.1620 C   0  0  1  0  0  0  0  0  0  0  0  0
  -19.1837  -27.7779   23.1653 C   0  0  2  0  0  0  0  0  0  0  0  0
  -26.5384  -17.3204   22.4556 C   0  0  0  0  0  0  0  0  0  0  0  0
  -29.9319  -21.4790   21.2650 C   0  0  1  0  0  0  0  0  0  0  0  0
  -22.9060  -29.4620   25.6398 C   0  0  0  0  0  0  0  0  0  0  0  0
  -25.8544  -11.7449   21.0902 N   0  0  0  0  0  0  0  0  0  0  0  0
  -26.2646  -12.8736   20.4870 N   0  0  0  0  0  0  0  0  0  0  0  0
  -24.0344  -29.7068   22.2439 N   0  0  0  0  0  0  0  0  0  0  0  0
  -30.0245  -13.4997   20.2526 N   0  0  0  0  0  0  0  0  0  0  0  0
  -25.5832  -15.0729   19.9305 N   0  0  0  0  0  0  0  0  0  0  0  0
  -21.9888  -13.3804   22.0780 N   0  0  0  0  0  0  0  0  0  0  0  0
  -30.2590  -15.8315   20.5172 N   0  0  0  0  0  0  0  0  0  0  0  0
  -26.3993  -32.3574   21.9098 N   0  0  0  0  0  0  0  0  0  0  0  0
  -21.1792  -28.9046   23.8758 N   0  0  0  0  0  0  0  0  0  0  0  0
  -18.7908  -26.9604   21.9829 N   0  3  0  0  0  0  0  0  0  0  0  0
  -22.8163  -15.2308   21.0056 O   0  0  0  0  0  0  0  0  0  0  0  0
  -26.5980  -30.1793   22.7092 O   0  0  0  0  0  0  0  0  0  0  0  0
  -28.7792  -23.1006   19.2798 O   0  0  0  0  0  0  0  0  0  0  0  0
  -22.6529  -31.2842   23.2636 O   0  0  0  0  0  0  0  0  0  0  0  0
  -21.3560  -26.7217   23.1138 O   0  0  0  0  0  0  0  0  0  0  0  0
  -31.9410  -14.5732   19.5325 O   0  0  0  0  0  0  0  0  0  0  0  0
  -31.1706  -22.1595   21.0428 O   0  0  0  0  0  0  0  0  0  0  0  0
  -21.5451   -8.2591   24.2253 O   0  0  0  0  0  0  0  0  0  0  0  0
  -26.8480  -24.9519   19.5003 O   0  0  0  0  0  0  0  0  0  1  0  0
  -21.4845   -3.1098   22.2545 F   0  0  0  0  0  0  0  0  0  0  0  0
  -19.1790   -7.0748   23.4244 F   0  0  0  0  0  0  0  0  0  0  0  0
  1  2  1  0  0  0  0
  1  6  2  0  0  0  0
  2  7  2  0  0  0  0
  3  9  2  0  0  0  0
  3 10  1  0  0  0  0
  4 11  2  0  0  0  0
  4 18  1  0  0  0  0
  5 12  1  0  0  0  0
  5 18  2  0  0  0  0
  6 20  1  0  0  0  0
  7 22  1  0  0  0  0
  8 13  2  0  0  0  0
  8 21  1  0  0  0  0
  9 24  1  0  0  0  0
 10 26  2  0  0  0  0
 11 27  1  0  0  0  0
 12 27  2  0  0  0  0
 13 28  1  0  0  0  0
 14 15  2  0  0  0  0
 14 29  1  0  0  0  0
 15 30  1  0  0  0  0
 16 23  1  0  0  0  0
 16 28  2  0  0  0  0
 17 30  2  0  0  0  0
 17 31  1  0  0  0  0
 18 32  1  0  0  0  0
 19 32  1  0  0  0  0
 19 33  2  0  0  0  0
 19 34  1  0  0  0  0
 20 22  2  0  0  0  0
 20 40  1  0  0  0  0
 21 23  2  0  0  0  0
 21 41  1  0  0  0  0
 22 49  1  0  0  0  0
 23 42  1  0  0  0  0
 24 25  2  0  0  0  0
 24 59  1  0  0  0  0
 25 26  1  0  0  0  0
 25 60  1  0  0  0  0
 26 75  1  0  0  0  0
 27 86  1  0  0  0  0
 28 87  1  0  0  0  0
 29 31  2  0  0  0  0
 29 86  1  0  0  0  0
 30 88  1  0  0  0  0
 31 89  1  0  0  0  0
 32 69  2  0  0  0  0
 33 70  1  0  0  0  0
 33 73  1  0  0  0  0
 34 74  1  0  0  0  0
 34 79  2  0  0  0  0
 35 50  1  0  0  0  0
 35 76  1  0  0  0  0
 35 80  2  0  0  0  0
 36 61  1  0  0  0  0
 36 62  1  0  0  0  0
 36 81  2  0  0  0  0
 37 64  1  0  0  0  0
 37 71  1  0  0  0  0
 37 82  2  0  0  0  0
 38 65  1  0  0  0  0
 38 77  1  0  0  0  0
 38 83  2  0  0  0  0
 39 72  1  0  0  0  0
 39 75  1  0  0  0  0
 39 84  2  0  0  0  0
 40 43  1  0  0  0  0
 41 50  1  0  0  0  0
 42 71  1  0  0  0  0
 43 45  1  0  0  0  0
 44 46  1  0  0  0  0
 44 47  1  0  0  0  0
 45 49  1  0  0  0  0
 46 51  1  0  0  0  0
 47 72  1  0  0  0  0
 48 51  1  0  0  0  0
 48 72  1  0  0  0  0
 49 76  1  0  0  0  0
 50 71  1  0  0  0  0
 51 70  1  0  0  0  0
 52 65  1  0  0  0  0
 53 66  1  0  0  0  0
 54 66  1  0  0  0  0
 55 68  1  0  0  0  0
 56 68  1  0  0  0  0
 57 68  1  0  0  0  0
 58 78  1  0  0  0  0
 59 67  1  0  0  0  0
 60 63  1  0  0  0  0
 61 67  1  0  0  0  0
 62 87  1  0  0  0  0
 63 66  1  0  0  0  0
 64 68  1  0  0  0  0
 64 77  1  0  0  0  0
 65 78  1  0  0  0  0
 67 85  1  0  0  0  0
 69 70  1  0  0  0  0
M  CHG  1  78   1
M  ISO  4  39 100  62 101  75 100  87 101
M  END
> <Batch ID>
0167

> <Smiles>
CNC(C)C(=O)NC(C(=O)N1Cc2cc([101O:1][101CH2:1]C(=O)CC(O)Cc3cccc([100NH:0][100C:0](=O)N4CCCC(n5nc(-c6ccc(Oc7ccc(F)cc7F)cc6)c(C(N)=O)c5N)C4)c3CCC(C)C)ccc2CC1C(=O)NC1CCCc2ccccc21)C(C)(C)C

> <Shape>
0.336

> <Color>
0.179

> <Negative vol penalty>
0.000

$$$$

  -OEChem-04052304113D

 85 93  0     1  0  0  0  0  0999 V2000
  -17.8358  -26.7678   27.2324 C   0  0  0  0  0  0  0  0  0  0  0  0
  -18.8534  -25.9262   26.7944 C   0  0  0  0  0  0  0  0  0  0  0  0
  -23.0140   -9.8487   20.5662 C   0  0  0  0  0  0  0  0  0  0  0  0
  -23.6717  -10.3683   22.8321 C   0  0  0  0  0  0  0  0  0  0  0  0
  -17.3817  -27.7975   26.4093 C   0  0  0  0  0  0  0  0  0  0  0  0
  -19.4166  -26.1132   25.5326 C   0  0  0  0  0  0  0  0  0  0  0  0
  -24.4721  -25.8269   25.5998 C   0  0  0  0  0  0  0  0  0  0  0  0
  -22.2275   -8.7967   21.0357 C   0  0  0  0  0  0  0  0  0  0  0  0
  -22.8852   -9.3163   23.3016 C   0  0  0  0  0  0  0  0  0  0  0  0
  -25.0371  -24.5535   25.6554 C   0  0  0  0  0  0  0  0  0  0  0  0
  -19.6123   -8.7343   23.9099 C   0  0  0  0  0  0  0  0  0  0  0  0
  -18.8035   -8.9772   25.0201 C   0  0  0  0  0  0  0  0  0  0  0  0
  -25.4424  -24.6363   23.2788 C   0  0  0  0  0  0  0  0  0  0  0  0
  -29.8812  -17.8501   22.2794 C   0  0  0  0  0  0  0  0  0  0  0  0
  -31.8305  -18.9368   23.2048 C   0  0  0  0  0  0  0  0  0  0  0  0
  -32.0642  -16.8509   22.0084 C   0  0  0  0  0  0  0  0  0  0  0  0
  -19.9559   -7.2390   26.2399 C   0  0  0  0  0  0  0  0  0  0  0  0
  -23.7362  -10.6344   21.4644 C   0  0  0  0  0  0  0  0  0  0  0  0
  -24.1542  -13.0584   20.7882 C   0  0  0  0  0  0  0  0  0  0  0  0
  -17.9462  -28.0031   25.1406 C   0  0  0  0  0  0  0  0  0  0  0  0
  -24.3780  -26.5112   24.3795 C   0  0  0  0  0  0  0  0  0  0  0  0
  -18.9686  -27.1457   24.6912 C   0  0  0  0  0  0  0  0  0  0  0  0
  -24.8782  -25.9193   23.2109 C   0  0  0  0  0  0  0  0  0  0  0  0
  -30.4531  -18.9076   22.9866 C   0  0  0  0  0  0  0  0  0  0  0  0
  -30.6868  -16.8217   21.7903 C   0  0  0  0  0  0  0  0  0  0  0  0
  -22.1630   -8.5306   22.4034 C   0  0  0  0  0  0  0  0  0  0  0  0
  -25.5197  -23.9568   24.4943 C   0  0  0  0  0  0  0  0  0  0  0  0
  -20.5928   -7.7437   23.9646 C   0  0  0  0  0  0  0  0  0  0  0  0
  -18.9753   -8.2296   26.1850 C   0  0  0  0  0  0  0  0  0  0  0  0
  -32.6360  -17.9085   22.7156 C   0  0  0  0  0  0  0  0  0  0  0  0
  -20.7646   -6.9961   25.1296 C   0  0  0  0  0  0  0  0  0  0  0  0
  -24.5493  -11.7208   20.9800 C   0  0  0  0  0  0  0  0  0  0  0  0
  -25.2821  -13.6854   20.3179 C   0  0  0  0  0  0  0  0  0  0  0  0
  -22.8816  -13.6786   21.0149 C   0  0  0  0  0  0  0  0  0  0  0  0
  -28.9001  -21.9559   24.5533 C   0  0  0  0  0  0  0  0  0  0  0  0
  -30.0488  -21.0602   24.1890 C   0  0  0  0  0  0  0  0  0  0  0  0
  -21.9825  -27.6155   22.6059 C   0  0  0  0  0  0  0  0  0  0  0  0
  -24.3900  -28.8766   20.8351 C   0  0  0  0  0  0  0  0  0  0  0  0
  -27.6654  -28.7430   19.8858 C   0  0  0  0  0  0  0  0  0  0  0  0
  -30.7627  -14.6478   20.5195 C   0  0  0  0  0  0  0  0  0  0  0  0
  -17.3898  -29.0999   24.2676 C   0  0  0  0  0  0  0  0  0  0  0  0
  -23.7901  -27.8952   24.3408 C   0  0  0  0  0  0  0  0  0  0  0  0
  -24.8193  -26.6203   21.8791 C   0  0  0  0  0  0  0  0  0  0  0  0
  -18.2967  -29.4642   23.0950 C   0  0  0  0  0  0  0  0  0  0  0  0
  -29.6862  -11.7749   18.7127 C   0  0  0  0  0  0  0  0  0  0  0  0
  -18.7905  -28.2045   22.3906 C   0  0  0  0  0  0  0  0  0  0  0  0
  -28.2213  -11.6148   19.1257 C   0  0  0  0  0  0  0  0  0  0  0  0
  -30.5534  -12.2573   19.8741 C   0  0  0  0  0  0  0  0  0  0  0  0
  -28.6085  -13.3124   20.9574 C   0  0  0  0  0  0  0  0  0  0  0  0
  -19.6217  -27.3320   23.3389 C   0  0  1  0  0  0  0  0  0  0  0  0
  -23.2787  -28.2887   22.9585 C   0  0  1  0  0  0  0  0  0  0  0  0
  -27.6842  -12.8905   19.8036 C   0  0  2  0  0  0  0  0  0  0  0  0
  -29.3330  -29.8833   18.3971 C   0  0  0  0  0  0  0  0  0  0  0  0
  -23.1476  -27.5143   18.4040 C   0  0  0  0  0  0  0  0  0  0  0  0
  -25.3048  -27.8763   17.1858 C   0  0  0  0  0  0  0  0  0  0  0  0
  -23.9827  -29.8343   17.9864 C   0  0  0  0  0  0  0  0  0  0  0  0
  -29.3826  -29.4817   22.1802 C   0  0  0  0  0  0  0  0  0  0  0  0
  -27.8406  -21.3573   25.4523 C   0  0  0  0  0  0  0  0  0  0  0  0
  -26.7223  -22.3417   25.7596 C   0  0  0  0  0  0  0  0  0  1  0  0
  -25.2179  -28.4030   19.6649 C   0  0  1  0  0  0  0  0  0  0  0  0
  -28.7318  -29.8193   19.7925 C   0  0  2  0  0  0  0  0  0  0  0  0
  -24.4128  -28.3927   18.3349 C   0  0  0  0  0  0  0  0  0  0  0  0
  -25.8281  -11.5096   20.6578 N   0  0  0  0  0  0  0  0  0  0  0  0
  -26.2465  -12.7228   20.2586 N   0  0  0  0  0  0  0  0  0  0  0  0
  -24.2297  -27.9692   21.8919 N   0  0  0  0  0  0  0  0  0  0  0  0
  -29.9856  -13.4715   20.4643 N   0  0  0  0  0  0  0  0  0  0  0  0
  -25.5331  -14.9607   19.9533 N   0  0  0  0  0  0  0  0  0  0  0  0
  -21.8305  -12.8888   21.5003 N   0  0  0  0  0  0  0  0  0  0  0  0
  -29.6367  -19.9505   23.4831 N   0  0  0  0  0  0  0  0  0  0  0  0
  -30.1062  -15.7471   21.0721 N   0  0  0  0  0  0  0  0  0  0  0  0
  -20.9537  -27.8774   23.4904 N   0  0  0  0  0  0  0  0  0  0  0  0
  -26.4067  -29.2482   19.6373 N   0  0  0  0  0  0  0  0  0  0  0  0
  -29.8283  -29.5478   20.7646 N   0  3  0  0  0  0  0  0  0  0  0  0
  -22.6779  -14.8934   20.7780 O   0  0  0  0  0  0  0  0  0  0  0  0
  -28.9149  -23.0936   24.1085 O   0  0  0  0  0  0  0  0  0  0  0  0
  -31.1598  -21.4308   24.5296 O   0  0  0  0  0  0  0  0  0  0  0  0
  -21.9200  -26.9118   21.6045 O   0  0  0  0  0  0  0  0  0  0  0  0
  -23.9095  -30.0125   20.8155 O   0  0  0  0  0  0  0  0  0  0  0  0
  -27.9235  -27.5705   20.1489 O   0  0  0  0  0  0  0  0  0  0  0  0
  -31.9156  -14.6851   20.0822 O   0  0  0  0  0  0  0  0  0  0  0  0
  -21.3955   -7.5043   22.8619 O   0  0  0  0  0  0  0  0  0  0  0  0
  -26.0710  -22.7137   24.5456 O   0  0  0  0  0  0  0  0  0  1  0  0
  -18.1996   -8.4640   27.2516 F   0  0  0  0  0  0  0  0  0  0  0  0
  -33.9587  -17.9359   22.9256 F   0  0  0  0  0  0  0  0  0  0  0  0
  -21.7057   -6.0440   25.1886 F   0  0  0  0  0  0  0  0  0  0  0  0
  1  2  1  0  0  0  0
  1  5  2  0  0  0  0
  2  6  2  0  0  0  0
  3  8  2  0  0  0  0
  3 18  1  0  0  0  0
  4  9  1  0  0  0  0
  4 18  2  0  0  0  0
  5 20  1  0  0  0  0
  6 22  1  0  0  0  0
  7 10  2  0  0  0  0
  7 21  1  0  0  0  0
  8 26  1  0  0  0  0
  9 26  2  0  0  0  0
 10 27  1  0  0  0  0
 11 12  2  0  0  0  0
 11 28  1  0  0  0  0
 12 29  1  0  0  0  0
 13 23  1  0  0  0  0
 13 27  2  0  0  0  0
 14 24  2  0  0  0  0
 14 25  1  0  0  0  0
 15 24  1  0  0  0  0
 15 30  2  0  0  0  0
 16 25  2  0  0  0  0
 16 30  1  0  0  0  0
 17 29  2  0  0  0  0
 17 31  1  0  0  0  0
 18 32  1  0  0  0  0
 19 32  1  0  0  0  0
 19 33  2  0  0  0  0
 19 34  1  0  0  0  0
 20 22  2  0  0  0  0
 20 41  1  0  0  0  0
 21 23  2  0  0  0  0
 21 42  1  0  0  0  0
 22 50  1  0  0  0  0
 23 43  1  0  0  0  0
 24 69  1  0  0  0  0
 25 70  1  0  0  0  0
 26 81  1  0  0  0  0
 27 82  1  0  0  0  0
 28 31  2  0  0  0  0
 28 81  1  0  0  0  0
 29 83  1  0  0  0  0
 30 84  1  0  0  0  0
 31 85  1  0  0  0  0
 32 63  2  0  0  0  0
 33 64  1  0  0  0  0
 33 67  1  0  0  0  0
 34 68  1  0  0  0  0
 34 74  2  0  0  0  0
 35 36  1  0  0  0  0
 35 58  1  0  0  0  0
 35 75  2  0  0  0  0
 36 69  1  0  0  0  0
 36 76  2  0  0  0  0
 37 51  1  0  0  0  0
 37 71  1  0  0  0  0
 37 77  2  0  0  0  0
 38 60  1  0  0  0  0
 38 65  1  0  0  0  0
 38 78  2  0  0  0  0
 39 61  1  0  0  0  0
 39 72  1  0  0  0  0
 39 79  2  0  0  0  0
 40 66  1  0  0  0  0
 40 70  1  0  0  0  0
 40 80  2  0  0  0  0
 41 44  1  0  0  0  0
 42 51  1  0  0  0  0
 43 65  1  0  0  0  0
 44 46  1  0  0  0  0
 45 47  1  0  0  0  0
 45 48  1  0  0  0  0
 46 50  1  0  0  0  0
 47 52  1  0  0  0  0
 48 66  1  0  0  0  0
 49 52  1  0  0  0  0
 49 66  1  0  0  0  0
 50 71  1  0  0  0  0
 51 65  1  0  0  0  0
 52 64  1  0  0  0  0
 53 61  1  0  0  0  0
 54 62  1  0  0  0  0
 55 62  1  0  0  0  0
 56 62  1  0  0  0  0
 57 73  1  0  0  0  0
 58 59  1  0  0  0  0
 59 82  1  0  0  0  0
 60 62  1  0  0  0  0
 60 72  1  0  0  0  0
 61 73  1  0  0  0  0
 63 64  1  0  0  0  0
M  CHG  1  73   1
M  ISO  4  40 100  59 101  70 100  82 101
M  END
> <Batch ID>
0167

> <Smiles>
CNC(C)C(=O)NC(C(=O)N1Cc2cc([101O:1][101CH2:1]CC(=O)C(=O)Nc3cc(F)cc([100NH:0][100C:0](=O)N4CCCC(n5nc(-c6ccc(Oc7ccc(F)cc7F)cc6)c(C(N)=O)c5N)C4)c3)ccc2CC1C(=O)NC1CCCc2ccccc21)C(C)(C)C

> <Shape>
0.255

> <Color>
0.166

> <Negative vol penalty>
0.000

$$$$

  -OEChem-04052304113D

 85 93  0     1  0  0  0  0  0999 V2000
  -24.9254  -28.3111   25.3209 C   0  0  0  0  0  0  0  0  0  0  0  0
  -24.4224  -27.0359   25.0842 C   0  0  0  0  0  0  0  0  0  0  0  0
  -27.7326  -23.1187   20.4266 C   0  0  0  0  0  0  0  0  0  0  0  0
  -29.3351  -23.3772   18.6372 C   0  0  0  0  0  0  0  0  0  0  0  0
  -24.2181  -29.4305   24.8842 C   0  0  0  0  0  0  0  0  0  0  0  0
  -23.2110  -26.8792   24.4115 C   0  0  0  0  0  0  0  0  0  0  0  0
  -23.4062  -23.2590   20.8759 C   0  0  0  0  0  0  0  0  0  0  0  0
  -27.6873  -24.5037   20.5862 C   0  0  0  0  0  0  0  0  0  0  0  0
  -29.2898  -24.7622   18.7967 C   0  0  0  0  0  0  0  0  0  0  0  0
  -23.3263  -21.9374   21.3127 C   0  0  0  0  0  0  0  0  0  0  0  0
  -26.2274  -27.1412   19.0549 C   0  0  0  0  0  0  0  0  0  0  0  0
  -24.9740  -27.7369   19.1956 C   0  0  0  0  0  0  0  0  0  0  0  0
  -25.7399  -14.3963   21.2197 C   0  0  0  0  0  0  0  0  0  0  0  0
  -26.0997  -12.1363   20.4452 C   0  0  0  0  0  0  0  0  0  0  0  0
  -20.9912  -21.8855   20.7092 C   0  0  0  0  0  0  0  0  0  0  0  0
  -23.9312  -13.1702   20.1891 C   0  0  0  0  0  0  0  0  0  0  0  0
  -25.6213  -28.5869   21.3625 C   0  0  0  0  0  0  0  0  0  0  0  0
  -28.5565  -22.5555   19.4521 C   0  0  0  0  0  0  0  0  0  0  0  0
  -26.5827  -13.2984   21.0469 C   0  0  0  0  0  0  0  0  0  0  0  0
  -27.7931  -20.3386   18.4470 C   0  0  0  0  0  0  0  0  0  0  0  0
  -23.0022  -29.2871   24.1974 C   0  0  0  0  0  0  0  0  0  0  0  0
  -22.2747  -23.9083   20.3617 C   0  0  0  0  0  0  0  0  0  0  0  0
  -22.4861  -27.9977   23.9664 C   0  0  0  0  0  0  0  0  0  0  0  0
  -21.0601  -23.2145   20.2642 C   0  0  0  0  0  0  0  0  0  0  0  0
  -24.4141  -14.3322   20.7909 C   0  0  0  0  0  0  0  0  0  0  0  0
  -28.4659  -25.3254   19.7713 C   0  0  0  0  0  0  0  0  0  0  0  0
  -22.1180  -21.2514   21.2321 C   0  0  0  0  0  0  0  0  0  0  0  0
  -27.1777  -27.2683   20.0681 C   0  0  0  0  0  0  0  0  0  0  0  0
  -24.6710  -28.4598   20.3494 C   0  0  0  0  0  0  0  0  0  0  0  0
  -24.7739  -12.0723   20.0163 C   0  0  0  0  0  0  0  0  0  0  0  0
  -26.8746  -27.9912   21.2218 C   0  0  0  0  0  0  0  0  0  0  0  0
  -28.6041  -21.1249   19.2872 C   0  0  0  0  0  0  0  0  0  0  0  0
  -28.2309  -19.0530   18.6523 C   0  0  0  0  0  0  0  0  0  0  0  0
  -27.9946  -13.3655   21.5037 C   0  0  0  0  0  0  0  0  0  0  0  0
  -26.7384  -20.7348   17.5604 C   0  0  0  0  0  0  0  0  0  0  0  0
  -20.5706  -26.4542   21.2093 C   0  0  0  0  0  0  0  0  0  0  0  0
  -22.8677  -17.7107   21.3171 C   0  0  0  0  0  0  0  0  0  0  0  0
  -19.0430  -25.8803   18.4059 C   0  0  0  0  0  0  0  0  0  0  0  0
  -18.1905  -23.6400   15.9767 C   0  0  0  0  0  0  0  0  0  0  0  0
  -29.8538  -14.9286   21.9770 C   0  0  0  0  0  0  0  0  0  0  0  0
  -22.2501  -30.5281   23.7862 C   0  0  0  0  0  0  0  0  0  0  0  0
  -22.3840  -25.3256   19.8699 C   0  0  0  0  0  0  0  0  0  0  0  0
  -19.8211  -23.8599   19.7012 C   0  0  0  0  0  0  0  0  0  0  0  0
  -21.1597  -30.2645   22.7510 C   0  0  0  0  0  0  0  0  0  0  0  0
  -32.3124  -17.3101   21.0932 C   0  0  0  0  0  0  0  0  0  0  0  0
  -20.3250  -29.0521   23.1516 C   0  0  0  0  0  0  0  0  0  0  0  0
  -31.5031  -18.4492   20.4672 C   0  0  0  0  0  0  0  0  0  0  0  0
  -31.5822  -16.6801   22.2785 C   0  0  0  0  0  0  0  0  0  0  0  0
  -29.4014  -17.3860   21.3818 C   0  0  0  0  0  0  0  0  0  0  0  0
  -21.1877  -27.7861   23.2183 C   0  0  1  0  0  0  0  0  0  0  0  0
  -21.0433  -26.0530   19.8407 C   0  0  1  0  0  0  0  0  0  0  0  0
  -30.0627  -18.0068   20.1406 C   0  0  1  0  0  0  0  0  0  0  0  0
  -16.9044  -23.4565   13.8297 C   0  0  0  0  0  0  0  0  0  0  0  0
  -16.4268  -25.8782   19.9761 C   0  0  0  0  0  0  0  0  0  0  0  0
  -15.3312  -24.7739   18.0144 C   0  0  0  0  0  0  0  0  0  0  0  0
  -16.3186  -27.0517   17.7702 C   0  0  0  0  0  0  0  0  0  0  0  0
  -20.6113  -22.8724   14.4570 C   0  0  0  0  0  0  0  0  0  0  0  0
  -24.0454  -16.7701   21.1739 C   0  0  0  0  0  0  0  0  0  0  0  0
  -23.2177  -19.1672   21.5525 C   0  0  0  0  0  0  0  0  0  1  0  0
  -17.8516  -25.0530   17.9874 C   0  0  1  0  0  0  0  0  0  0  0  0
  -18.2619  -23.7203   14.4625 C   0  0  2  0  0  0  0  0  0  0  0  0
  -16.5048  -25.6774   18.4495 C   0  0  0  0  0  0  0  0  0  0  0  0
  -29.4899  -20.3995   19.9750 N   0  0  0  0  0  0  0  0  0  0  0  0
  -29.2381  -19.1439   19.5675 N   0  0  0  0  0  0  0  0  0  0  0  0
  -19.9772  -25.2491   19.2394 N   0  0  0  0  0  0  0  0  0  0  0  0
  -30.2302  -16.2800   21.8843 N   0  0  0  0  0  0  0  0  0  0  0  0
  -27.8487  -17.8650   18.1374 N   0  0  0  0  0  0  0  0  0  0  0  0
  -26.4172  -22.0961   17.4704 N   0  0  0  0  0  0  0  0  0  0  0  0
  -23.5760  -15.4247   20.9622 N   0  0  0  0  0  0  0  0  0  0  0  0
  -28.5569  -14.6420   21.5366 N   0  0  0  0  0  0  0  0  0  0  0  0
  -21.4466  -27.2803   21.8873 N   0  0  0  0  0  0  0  0  0  0  0  0
  -17.9642  -24.8763   16.5436 N   0  0  0  0  0  0  0  0  0  0  0  0
  -19.2291  -22.7163   13.9355 N   0  3  0  0  0  0  0  0  0  0  0  0
  -28.5596  -12.3331   21.8542 O   0  0  0  0  0  0  0  0  0  0  0  0
  -26.0887  -19.9045   16.8806 O   0  0  0  0  0  0  0  0  0  0  0  0
  -19.4904  -26.0458   21.6193 O   0  0  0  0  0  0  0  0  0  0  0  0
  -21.6998  -17.3297   21.2491 O   0  0  0  0  0  0  0  0  0  0  0  0
  -19.1448  -27.0415   18.0021 O   0  0  0  0  0  0  0  0  0  0  0  0
  -18.3188  -22.5853   16.5946 O   0  0  0  0  0  0  0  0  0  0  0  0
  -30.6188  -14.0472   22.3808 O   0  0  0  0  0  0  0  0  0  0  0  0
  -28.4218  -26.6769   19.9265 O   0  0  0  0  0  0  0  0  0  0  0  0
  -22.0370  -19.9616   21.6584 O   0  0  0  0  0  0  0  0  0  1  0  0
  -23.4679  -29.0331   20.4837 F   0  0  0  0  0  0  0  0  0  0  0  0
  -24.3093  -10.9567   19.4388 F   0  0  0  0  0  0  0  0  0  0  0  0
  -27.7839  -28.1177   22.1981 F   0  0  0  0  0  0  0  0  0  0  0  0
  1  2  1  0  0  0  0
  1  5  2  0  0  0  0
  2  6  2  0  0  0  0
  3  8  2  0  0  0  0
  3 18  1  0  0  0  0
  4  9  1  0  0  0  0
  4 18  2  0  0  0  0
  5 21  1  0  0  0  0
  6 23  1  0  0  0  0
  7 10  2  0  0  0  0
  7 22  1  0  0  0  0
  8 26  1  0  0  0  0
  9 26  2  0  0  0  0
 10 27  1  0  0  0  0
 11 12  2  0  0  0  0
 11 28  1  0  0  0  0
 12 29  1  0  0  0  0
 13 19  1  0  0  0  0
 13 25  2  0  0  0  0
 14 19  2  0  0  0  0
 14 30  1  0  0  0  0
 15 24  1  0  0  0  0
 15 27  2  0  0  0  0
 16 25  1  0  0  0  0
 16 30  2  0  0  0  0
 17 29  2  0  0  0  0
 17 31  1  0  0  0  0
 18 32  1  0  0  0  0
 19 34  1  0  0  0  0
 20 32  1  0  0  0  0
 20 33  2  0  0  0  0
 20 35  1  0  0  0  0
 21 23  2  0  0  0  0
 21 41  1  0  0  0  0
 22 24  2  0  0  0  0
 22 42  1  0  0  0  0
 23 50  1  0  0  0  0
 24 43  1  0  0  0  0
 25 69  1  0  0  0  0
 26 81  1  0  0  0  0
 27 82  1  0  0  0  0
 28 31  2  0  0  0  0
 28 81  1  0  0  0  0
 29 83  1  0  0  0  0
 30 84  1  0  0  0  0
 31 85  1  0  0  0  0
 32 63  2  0  0  0  0
 33 64  1  0  0  0  0
 33 67  1  0  0  0  0
 34 70  1  0  0  0  0
 34 74  2  0  0  0  0
 35 68  1  0  0  0  0
 35 75  2  0  0  0  0
 36 51  1  0  0  0  0
 36 71  1  0  0  0  0
 36 76  2  0  0  0  0
 37 58  1  0  0  0  0
 37 59  1  0  0  0  0
 37 77  2  0  0  0  0
 38 60  1  0  0  0  0
 38 65  1  0  0  0  0
 38 78  2  0  0  0  0
 39 61  1  0  0  0  0
 39 72  1  0  0  0  0
 39 79  2  0  0  0  0
 40 66  1  0  0  0  0
 40 70  1  0  0  0  0
 40 80  2  0  0  0  0
 41 44  1  0  0  0  0
 42 51  1  0  0  0  0
 43 65  1  0  0  0  0
 44 46  1  0  0  0  0
 45 47  1  0  0  0  0
 45 48  1  0  0  0  0
 46 50  1  0  0  0  0
 47 52  1  0  0  0  0
 48 66  1  0  0  0  0
 49 52  1  0  0  0  0
 49 66  1  0  0  0  0
 50 71  1  0  0  0  0
 51 65  1  0  0  0  0
 52 64  1  0  0  0  0
 53 61  1  0  0  0  0
 54 62  1  0  0  0  0
 55 62  1  0  0  0  0
 56 62  1  0  0  0  0
 57 73  1  0  0  0  0
 58 69  1  0  0  0  0
 59 82  1  0  0  0  0
 60 62  1  0  0  0  0
 60 72  1  0  0  0  0
 61 73  1  0  0  0  0
 63 64  1  0  0  0  0
M  CHG  1  73   1
M  ISO  4  40 100  59 101  70 100  82 101
M  END
> <Batch ID>
0167

> <Smiles>
CNC(C)C(=O)NC(C(=O)N1Cc2cc([101O:1][101CH2:1]C(=O)CNc3cc(F)cc(C(=O)[100NH:0][100C:0](=O)N4CCCC(n5nc(-c6ccc(Oc7ccc(F)cc7F)cc6)c(C(N)=O)c5N)C4)c3)ccc2CC1C(=O)NC1CCCc2ccccc21)C(C)(C)C

> <Shape>
0.229

> <Color>
0.067

> <Negative vol penalty>
0.000

$$$$

  -OEChem-04052304113D

 85 93  0     1  0  0  0  0  0999 V2000
  -23.1361  -28.6041   24.3705 C   0  0  0  0  0  0  0  0  0  0  0  0
  -23.5611  -27.3120   24.0824 C   0  0  0  0  0  0  0  0  0  0  0  0
  -29.3631  -23.6475   18.4778 C   0  0  0  0  0  0  0  0  0  0  0  0
  -27.7968  -23.2828   20.2808 C   0  0  0  0  0  0  0  0  0  0  0  0
  -21.9273  -29.0672   23.8553 C   0  0  0  0  0  0  0  0  0  0  0  0
  -22.7833  -26.4868   23.2695 C   0  0  0  0  0  0  0  0  0  0  0  0
  -24.7293  -22.1617   21.9619 C   0  0  0  0  0  0  0  0  0  0  0  0
  -26.5458  -12.3570   20.1465 C   0  0  0  0  0  0  0  0  0  0  0  0
  -29.2951  -25.0233   18.6970 C   0  0  0  0  0  0  0  0  0  0  0  0
  -27.7288  -24.6586   20.5000 C   0  0  0  0  0  0  0  0  0  0  0  0
  -24.8819  -21.1028   22.8559 C   0  0  0  0  0  0  0  0  0  0  0  0
  -26.1940  -27.3302   19.1079 C   0  0  0  0  0  0  0  0  0  0  0  0
  -25.5166  -11.4158   20.1256 C   0  0  0  0  0  0  0  0  0  0  0  0
  -24.9324  -27.8950   19.2949 C   0  0  0  0  0  0  0  0  0  0  0  0
  -22.9684  -20.0080   21.8765 C   0  0  0  0  0  0  0  0  0  0  0  0
  -24.0334  -13.0148   21.1652 C   0  0  0  0  0  0  0  0  0  0  0  0
  -25.6012  -28.6636   21.4856 C   0  0  0  0  0  0  0  0  0  0  0  0
  -28.6140  -22.7772   19.2697 C   0  0  0  0  0  0  0  0  0  0  0  0
  -28.3495  -20.6658   17.8627 C   0  0  0  0  0  0  0  0  0  0  0  0
  -21.1288  -28.2423   23.0460 C   0  0  0  0  0  0  0  0  0  0  0  0
  -23.6867  -22.1568   21.0241 C   0  0  0  0  0  0  0  0  0  0  0  0
  -21.5716  -26.9441   22.7204 C   0  0  0  0  0  0  0  0  0  0  0  0
  -22.8063  -21.0669   20.9700 C   0  0  0  0  0  0  0  0  0  0  0  0
  -25.0627  -13.9559   21.1861 C   0  0  0  0  0  0  0  0  0  0  0  0
  -26.3189  -13.6270   20.6768 C   0  0  0  0  0  0  0  0  0  0  0  0
  -28.4779  -25.5289   19.7081 C   0  0  0  0  0  0  0  0  0  0  0  0
  -23.9997  -20.0271   22.8152 C   0  0  0  0  0  0  0  0  0  0  0  0
  -27.1592  -27.4320   20.1098 C   0  0  0  0  0  0  0  0  0  0  0  0
  -24.2603  -11.7447   20.6349 C   0  0  0  0  0  0  0  0  0  0  0  0
  -24.6360  -28.5618   20.4837 C   0  0  0  0  0  0  0  0  0  0  0  0
  -26.8628  -28.0987   21.2987 C   0  0  0  0  0  0  0  0  0  0  0  0
  -28.6834  -21.3559   19.0434 C   0  0  0  0  0  0  0  0  0  0  0  0
  -28.5876  -19.3456   18.1577 C   0  0  0  0  0  0  0  0  0  0  0  0
  -24.3604  -17.7441   23.1739 C   0  0  0  0  0  0  0  0  0  1  0  0
  -27.8674  -21.1727   16.6112 C   0  0  0  0  0  0  0  0  0  0  0  0
  -24.5178  -16.6569   23.9380 C   0  0  0  0  0  0  0  0  0  0  0  0
  -24.7492  -15.3303   23.2843 C   0  0  0  0  0  0  0  0  0  0  0  0
  -21.1707  -24.0148   20.4574 C   0  0  0  0  0  0  0  0  0  0  0  0
  -20.8314  -22.0993   17.8616 C   0  0  0  0  0  0  0  0  0  0  0  0
  -21.4448  -19.0838   16.3862 C   0  0  0  0  0  0  0  0  0  0  0  0
  -27.8748  -15.1384   21.8974 C   0  0  0  0  0  0  0  0  0  0  0  0
  -19.8332  -28.7971   22.5086 C   0  0  0  0  0  0  0  0  0  0  0  0
  -23.5518  -23.2941   20.0491 C   0  0  0  0  0  0  0  0  0  0  0  0
  -21.6828  -21.0039   19.9689 C   0  0  0  0  0  0  0  0  0  0  0  0
  -18.8744  -27.7115   22.0306 C   0  0  0  0  0  0  0  0  0  0  0  0
  -30.9274  -17.2016   22.0849 C   0  0  0  0  0  0  0  0  0  0  0  0
  -19.6032  -26.7421   21.1121 C   0  0  0  0  0  0  0  0  0  0  0  0
  -30.5547  -18.4362   21.2657 C   0  0  0  0  0  0  0  0  0  0  0  0
  -29.7064  -16.5724   22.7492 C   0  0  0  0  0  0  0  0  0  0  0  0
  -28.2341  -17.4788   20.9769 C   0  0  0  0  0  0  0  0  0  0  0  0
  -20.7275  -26.0181   21.8636 C   0  0  1  0  0  0  0  0  0  0  0  0
  -22.1441  -23.4260   19.4759 C   0  0  1  0  0  0  0  0  0  0  0  0
  -29.4369  -18.1105   20.2600 C   0  0  1  0  0  0  0  0  0  0  0  0
  -21.0089  -17.7986   14.2753 C   0  0  0  0  0  0  0  0  0  0  0  0
  -17.9596  -21.5982   18.7626 C   0  0  0  0  0  0  0  0  0  0  0  0
  -17.8914  -19.6307   17.2157 C   0  0  0  0  0  0  0  0  0  0  0  0
  -18.2380  -21.9246   16.2988 C   0  0  0  0  0  0  0  0  0  0  0  0
  -28.1569  -14.8017   19.4527 C   0  0  0  0  0  0  0  0  0  0  0  0
  -24.3350  -18.8516   15.7933 C   0  0  0  0  0  0  0  0  0  0  0  0
  -24.7883  -15.3206   21.7651 C   0  0  0  0  0  0  0  0  0  0  0  0
  -20.1106  -20.8041   17.5756 C   0  0  1  0  0  0  0  0  0  0  0  0
  -21.9677  -18.7250   15.0069 C   0  0  2  0  0  0  0  0  0  0  0  0
  -18.5698  -20.9912   17.4834 C   0  0  0  0  0  0  0  0  0  0  0  0
  -29.1016  -20.5415   20.0160 N   0  0  0  0  0  0  0  0  0  0  0  0
  -29.0320  -19.3260   19.4470 N   0  0  0  0  0  0  0  0  0  0  0  0
  -21.5885  -22.1430   19.0409 N   0  0  0  0  0  0  0  0  0  0  0  0
  -28.6417  -16.3149   21.7788 N   0  0  0  0  0  0  0  0  0  0  0  0
  -28.4580  -18.2113   17.4374 N   0  0  0  0  0  0  0  0  0  0  0  0
  -26.4830  -21.2889   16.4262 N   0  0  0  0  0  0  0  0  0  0  0  0
  -21.5233  -25.2698   20.9156 N   0  0  0  0  0  0  0  0  0  0  0  0
  -20.7192  -20.2562   16.3683 N   0  0  0  0  0  0  0  0  0  0  0  0
  -27.3974  -14.5870   20.6887 N   0  0  0  0  0  0  0  0  0  0  0  0
  -23.2889  -18.0440   15.1149 N   0  3  0  0  0  0  0  0  0  0  0  0
  -28.6408  -21.4972   15.6785 O   0  0  0  0  0  0  0  0  0  0  0  0
  -24.8980  -14.3102   23.9549 O   0  0  0  0  0  0  0  0  0  0  0  0
  -20.1727  -23.3782   20.7744 O   0  0  0  0  0  0  0  0  0  0  0  0
  -20.7322  -23.0354   17.0644 O   0  0  0  0  0  0  0  0  0  0  0  0
  -21.6554  -18.3912   17.3794 O   0  0  0  0  0  0  0  0  0  0  0  0
  -27.6599  -14.6074   22.9936 O   0  0  0  0  0  0  0  0  0  0  0  0
  -24.4773  -16.7002   25.3149 O   0  0  0  0  0  0  0  0  0  0  0  0
  -28.4115  -26.8714   19.9224 O   0  0  0  0  0  0  0  0  0  0  0  0
  -24.1460  -18.9925   23.6870 O   0  0  0  0  0  0  0  0  0  1  0  0
  -23.2718  -10.8410   20.6142 F   0  0  0  0  0  0  0  0  0  0  0  0
  -23.4250  -29.1054   20.6625 F   0  0  0  0  0  0  0  0  0  0  0  0
  -27.7863  -28.2008   22.2643 F   0  0  0  0  0  0  0  0  0  0  0  0
  1  2  1  0  0  0  0
  1  5  2  0  0  0  0
  2  6  2  0  0  0  0
  3  9  2  0  0  0  0
  3 18  1  0  0  0  0
  4 10  1  0  0  0  0
  4 18  2  0  0  0  0
  5 20  1  0  0  0  0
  6 22  1  0  0  0  0
  7 11  2  0  0  0  0
  7 21  1  0  0  0  0
  8 13  2  0  0  0  0
  8 25  1  0  0  0  0
  9 26  1  0  0  0  0
 10 26  2  0  0  0  0
 11 27  1  0  0  0  0
 12 14  2  0  0  0  0
 12 28  1  0  0  0  0
 13 29  1  0  0  0  0
 14 30  1  0  0  0  0
 15 23  1  0  0  0  0
 15 27  2  0  0  0  0
 16 24  1  0  0  0  0
 16 29  2  0  0  0  0
 17 30  2  0  0  0  0
 17 31  1  0  0  0  0
 18 32  1  0  0  0  0
 19 32  1  0  0  0  0
 19 33  2  0  0  0  0
 19 35  1  0  0  0  0
 20 22  2  0  0  0  0
 20 42  1  0  0  0  0
 21 23  2  0  0  0  0
 21 43  1  0  0  0  0
 22 51  1  0  0  0  0
 23 44  1  0  0  0  0
 24 25  2  0  0  0  0
 24 60  1  0  0  0  0
 25 72  1  0  0  0  0
 26 81  1  0  0  0  0
 27 82  1  0  0  0  0
 28 31  2  0  0  0  0
 28 81  1  0  0  0  0
 29 83  1  0  0  0  0
 30 84  1  0  0  0  0
 31 85  1  0  0  0  0
 32 64  2  0  0  0  0
 33 65  1  0  0  0  0
 33 68  1  0  0  0  0
 34 36  2  0  0  0  0
 34 82  1  0  0  0  0
 35 69  1  0  0  0  0
 35 74  2  0  0  0  0
 36 37  1  0  0  0  0
 36 80  1  0  0  0  0
 37 60  1  0  0  0  0
 37 75  2  0  0  0  0
 38 52  1  0  0  0  0
 38 70  1  0  0  0  0
 38 76  2  0  0  0  0
 39 61  1  0  0  0  0
 39 66  1  0  0  0  0
 39 77  2  0  0  0  0
 40 62  1  0  0  0  0
 40 71  1  0  0  0  0
 40 78  2  0  0  0  0
 41 67  1  0  0  0  0
 41 72  1  0  0  0  0
 41 79  2  0  0  0  0
 42 45  1  0  0  0  0
 43 52  1  0  0  0  0
 44 66  1  0  0  0  0
 45 47  1  0  0  0  0
 46 48  1  0  0  0  0
 46 49  1  0  0  0  0
 47 51  1  0  0  0  0
 48 53  1  0  0  0  0
 49 67  1  0  0  0  0
 50 53  1  0  0  0  0
 50 67  1  0  0  0  0
 51 70  1  0  0  0  0
 52 66  1  0  0  0  0
 53 65  1  0  0  0  0
 54 62  1  0  0  0  0
 55 63  1  0  0  0  0
 56 63  1  0  0  0  0
 57 63  1  0  0  0  0
 58 72  1  0  0  0  0
 59 73  1  0  0  0  0
 61 63  1  0  0  0  0
 61 71  1  0  0  0  0
 62 73  1  0  0  0  0
 64 65  1  0  0  0  0
M  CHG  1  73   1
M  ISO  4  34 101  41 100  72 100  82 101
M  END
> <Batch ID>
0167

> <Smiles>
CNC(C)C(=O)NC(C(=O)N1Cc2cc([101O:1][101CH2:1]C(=O)C(=O)Cc3cc(F)ccc3[100N:0](C)[100C:0](=O)N3CCCC(n4nc(-c5ccc(Oc6ccc(F)cc6F)cc5)c(C(N)=O)c4N)C3)ccc2CC1C(=O)NC1CCCc2ccccc21)C(C)(C)C

> <Shape>
0.215

> <Color>
0.081

> <Negative vol penalty>
0.000

$$$$

  -OEChem-04052304113D

 87 95  0     1  0  0  0  0  0999 V2000
  -30.5436  -26.2093   16.7281 C   0  0  0  0  0  0  0  0  0  0  0  0
  -29.1624  -26.1151   16.8650 C   0  0  0  0  0  0  0  0  0  0  0  0
  -26.1281  -16.9333   20.4836 C   0  0  0  0  0  0  0  0  0  0  0  0
  -27.2927  -15.6773   22.1875 C   0  0  0  0  0  0  0  0  0  0  0  0
  -31.3203  -26.6532   17.7974 C   0  0  0  0  0  0  0  0  0  0  0  0
  -28.5571  -26.4639   18.0718 C   0  0  0  0  0  0  0  0  0  0  0  0
  -23.0803  -29.1011   18.8166 C   0  0  0  0  0  0  0  0  0  0  0  0
  -27.3146  -17.5897   20.1564 C   0  0  0  0  0  0  0  0  0  0  0  0
  -28.4792  -16.3336   21.8602 C   0  0  0  0  0  0  0  0  0  0  0  0
  -21.8246  -28.5829   19.1303 C   0  0  0  0  0  0  0  0  0  0  0  0
  -29.1778  -20.1272   21.3866 C   0  0  0  0  0  0  0  0  0  0  0  0
  -29.1241  -21.5090   21.2042 C   0  0  0  0  0  0  0  0  0  0  0  0
  -22.1933  -29.1129   21.4546 C   0  0  0  0  0  0  0  0  0  0  0  0
  -16.8420  -21.4540   22.3273 C   0  0  0  0  0  0  0  0  0  0  0  0
  -16.9105  -19.0801   22.7716 C   0  0  0  0  0  0  0  0  0  0  0  0
  -29.9069  -21.2397   18.9344 C   0  0  0  0  0  0  0  0  0  0  0  0
  -26.1171  -15.9772   21.4992 C   0  0  0  0  0  0  0  0  0  0  0  0
  -24.4037  -14.0991   21.2871 C   0  0  0  0  0  0  0  0  0  0  0  0
  -30.7234  -27.0168   19.0148 C   0  0  0  0  0  0  0  0  0  0  0  0
  -23.9078  -29.6201   19.8227 C   0  0  0  0  0  0  0  0  0  0  0  0
  -29.3267  -26.9119   19.1589 C   0  0  0  0  0  0  0  0  0  0  0  0
  -23.4580  -29.6395   21.1506 C   0  0  0  0  0  0  0  0  0  0  0  0
  -18.9015  -20.4195   23.0521 C   0  0  0  0  0  0  0  0  0  0  0  0
  -18.1922  -21.5556   22.6624 C   0  0  0  0  0  0  0  0  0  0  0  0
  -18.2607  -19.1818   23.1067 C   0  0  0  0  0  0  0  0  0  0  0  0
  -28.4901  -17.2898   20.8447 C   0  0  0  0  0  0  0  0  0  0  0  0
  -21.3821  -28.5861   20.4499 C   0  0  0  0  0  0  0  0  0  0  0  0
  -29.5961  -19.3016   20.3430 C   0  0  0  0  0  0  0  0  0  0  0  0
  -29.4886  -22.0653   19.9781 C   0  0  0  0  0  0  0  0  0  0  0  0
  -16.2011  -20.2162   22.3819 C   0  0  0  0  0  0  0  0  0  0  0  0
  -29.9606  -19.8579   19.1169 C   0  0  0  0  0  0  0  0  0  0  0  0
  -24.8917  -15.2992   21.8380 C   0  0  0  0  0  0  0  0  0  0  0  0
  -23.2150  -13.8802   21.9394 C   0  0  0  0  0  0  0  0  0  0  0  0
  -19.2523  -25.1416   22.2943 C   0  0  0  0  0  0  0  0  0  0  0  0
  -24.9741  -13.2574   20.2762 C   0  0  0  0  0  0  0  0  0  0  0  0
  -18.9682  -26.4184   21.9900 C   0  0  0  0  0  0  0  0  0  0  0  0
  -18.2479  -24.0333   22.2309 C   0  0  0  0  0  0  0  0  0  0  0  0
  -26.7771  -28.8781   20.9717 C   0  0  0  0  0  0  0  0  0  0  0  0
  -26.3601  -31.5954   22.6937 C   0  0  0  0  0  0  0  0  0  0  0  0
  -24.1999  -33.8582   24.0575 C   0  0  0  0  0  0  0  0  0  0  0  0
  -19.5793  -17.8921   24.7779 C   0  0  0  0  0  0  0  0  0  0  0  0
  -31.6087  -27.4460   20.1579 C   0  0  0  0  0  0  0  0  0  0  0  0
  -25.2486  -30.1997   19.4641 C   0  0  0  0  0  0  0  0  0  0  0  0
  -24.2998  -30.2036   22.2649 C   0  0  0  0  0  0  0  0  0  0  0  0
  -30.8539  -28.1528   21.2808 C   0  0  0  0  0  0  0  0  0  0  0  0
  -20.9884  -14.7406   26.0789 C   0  0  0  0  0  0  0  0  0  0  0  0
  -29.5874  -27.3822   21.6401 C   0  0  0  0  0  0  0  0  0  0  0  0
  -22.1482  -14.4660   25.1231 C   0  0  0  0  0  0  0  0  0  0  0  0
  -20.7166  -16.2347   26.2258 C   0  0  0  0  0  0  0  0  0  0  0  0
  -21.6494  -16.6595   23.9720 C   0  0  0  0  0  0  0  0  0  0  0  0
  -28.6309  -27.3046   20.4441 C   0  0  1  0  0  0  0  0  0  0  0  0
  -26.2191  -30.2334   20.6407 C   0  0  1  0  0  0  0  0  0  0  0  0
  -21.9200  -15.1610   23.7696 C   0  0  1  0  0  0  0  0  0  0  0  0
  -20.3511  -20.5288   23.4110 C   0  0  0  0  0  0  0  0  0  0  0  0
  -24.1539  -35.9512   25.4412 C   0  0  0  0  0  0  0  0  0  0  0  0
  -26.9487  -29.9513   25.1957 C   0  0  0  0  0  0  0  0  0  0  0  0
  -25.9736  -31.8093   26.5614 C   0  0  0  0  0  0  0  0  0  0  0  0
  -28.0007  -32.2200   25.1668 C   0  0  0  0  0  0  0  0  0  0  0  0
  -18.8596  -16.7928   22.6700 C   0  0  0  0  0  0  0  0  0  0  0  0
  -22.8978  -35.3995   21.8924 C   0  0  0  0  0  0  0  0  0  0  0  0
  -20.0002  -27.5051   22.0554 C   0  0  0  0  0  0  0  0  0  1  0  0
  -25.7577  -31.9276   24.0374 C   0  0  1  0  0  0  0  0  0  0  0  0
  -24.1834  -35.3760   24.0337 C   0  0  2  0  0  0  0  0  0  0  0  0
  -26.6549  -31.4646   25.2199 C   0  0  0  0  0  0  0  0  0  0  0  0
  -24.0792  -15.8073   22.7685 N   0  0  0  0  0  0  0  0  0  0  0  0
  -23.0687  -14.9221   22.8073 N   0  0  0  0  0  0  0  0  0  0  0  0
  -25.6057  -30.7531   21.8646 N   0  0  0  0  0  0  0  0  0  0  0  0
  -20.5487  -16.8794   24.9228 N   0  0  0  0  0  0  0  0  0  0  0  0
  -22.2910  -12.9001   21.8495 N   0  0  0  0  0  0  0  0  0  0  0  0
  -26.2013  -13.6298   19.7109 N   0  0  0  0  0  0  0  0  0  0  0  0
  -18.8227  -22.8228   22.5993 N   0  0  0  0  0  0  0  0  0  0  0  0
  -27.9280  -28.5585   20.2768 N   0  0  0  0  0  0  0  0  0  0  0  0
  -25.4853  -33.3607   24.0196 N   0  0  0  0  0  0  0  0  0  0  0  0
  -18.9750  -17.9922   23.5060 N   0  0  0  0  0  0  0  0  0  0  0  0
  -22.9845  -35.8695   23.2990 N   0  3  0  0  0  0  0  0  0  0  0  0
  -24.4041  -12.2148   19.8741 O   0  0  0  0  0  0  0  0  0  0  0  0
  -17.0885  -24.2348   21.8914 O   0  0  0  0  0  0  0  0  0  0  0  0
  -26.2067  -28.1751   21.7976 O   0  0  0  0  0  0  0  0  0  0  0  0
  -27.4562  -32.0715   22.3879 O   0  0  0  0  0  0  0  0  0  0  0  0
  -23.1751  -33.1817   24.1086 O   0  0  0  0  0  0  0  0  0  0  0  0
  -19.2587  -18.6279   25.7189 O   0  0  0  0  0  0  0  0  0  0  0  0
  -17.7121  -26.8165   21.5774 O   0  0  0  0  0  0  0  0  0  0  0  0
  -29.6481  -17.9299   20.5255 O   0  0  0  0  0  0  0  0  0  0  0  0
  -20.1571  -28.0804   20.7590 O   0  0  0  0  0  0  0  0  0  1  0  0
  -29.4355  -23.3921   19.8025 F   0  0  0  0  0  0  0  0  0  0  0  0
  -14.9044  -20.1191   22.0603 F   0  0  0  0  0  0  0  0  0  0  0  0
  -30.3622  -19.0697   18.1103 F   0  0  0  0  0  0  0  0  0  0  0  0
  1  2  1  0  0  0  0
  1  5  2  0  0  0  0
  2  6  2  0  0  0  0
  3  8  2  0  0  0  0
  3 17  1  0  0  0  0
  4  9  1  0  0  0  0
  4 17  2  0  0  0  0
  5 19  1  0  0  0  0
  6 21  1  0  0  0  0
  7 10  2  0  0  0  0
  7 20  1  0  0  0  0
  8 26  1  0  0  0  0
  9 26  2  0  0  0  0
 10 27  1  0  0  0  0
 11 12  2  0  0  0  0
 11 28  1  0  0  0  0
 12 29  1  0  0  0  0
 13 22  1  0  0  0  0
 13 27  2  0  0  0  0
 14 24  1  0  0  0  0
 14 30  2  0  0  0  0
 15 25  2  0  0  0  0
 15 30  1  0  0  0  0
 16 29  2  0  0  0  0
 16 31  1  0  0  0  0
 17 32  1  0  0  0  0
 18 32  1  0  0  0  0
 18 33  2  0  0  0  0
 18 35  1  0  0  0  0
 19 21  2  0  0  0  0
 19 42  1  0  0  0  0
 20 22  2  0  0  0  0
 20 43  1  0  0  0  0
 21 51  1  0  0  0  0
 22 44  1  0  0  0  0
 23 24  2  0  0  0  0
 23 25  1  0  0  0  0
 23 54  1  0  0  0  0
 24 71  1  0  0  0  0
 25 74  1  0  0  0  0
 26 83  1  0  0  0  0
 27 84  1  0  0  0  0
 28 31  2  0  0  0  0
 28 83  1  0  0  0  0
 29 85  1  0  0  0  0
 30 86  1  0  0  0  0
 31 87  1  0  0  0  0
 32 65  2  0  0  0  0
 33 66  1  0  0  0  0
 33 69  1  0  0  0  0
 34 36  2  0  0  0  0
 34 37  1  0  0  0  0
 35 70  1  0  0  0  0
 35 76  2  0  0  0  0
 36 61  1  0  0  0  0
 36 82  1  0  0  0  0
 37 71  1  0  0  0  0
 37 77  2  0  0  0  0
 38 52  1  0  0  0  0
 38 72  1  0  0  0  0
 38 78  2  0  0  0  0
 39 62  1  0  0  0  0
 39 67  1  0  0  0  0
 39 79  2  0  0  0  0
 40 63  1  0  0  0  0
 40 73  1  0  0  0  0
 40 80  2  0  0  0  0
 41 68  1  0  0  0  0
 41 74  1  0  0  0  0
 41 81  2  0  0  0  0
 42 45  1  0  0  0  0
 43 52  1  0  0  0  0
 44 67  1  0  0  0  0
 45 47  1  0  0  0  0
 46 48  1  0  0  0  0
 46 49  1  0  0  0  0
 47 51  1  0  0  0  0
 48 53  1  0  0  0  0
 49 68  1  0  0  0  0
 50 53  1  0  0  0  0
 50 68  1  0  0  0  0
 51 72  1  0  0  0  0
 52 67  1  0  0  0  0
 53 66  1  0  0  0  0
 55 63  1  0  0  0  0
 56 64  1  0  0  0  0
 57 64  1  0  0  0  0
 58 64  1  0  0  0  0
 59 74  1  0  0  0  0
 60 75  1  0  0  0  0
 61 84  1  0  0  0  0
 62 64  1  0  0  0  0
 62 73  1  0  0  0  0
 63 75  1  0  0  0  0
 65 66  1  0  0  0  0
M  CHG  1  75   1
M  ISO  4  41 100  61 101  74 100  84 101
M  END
> <Batch ID>
0167

> <Smiles>
CNC(C)C(=O)NC(C(=O)N1Cc2cc([101O:1][101CH2:1]C(=O)CC(=O)Nc3cc(F)cc([100N:0](C)[100C:0](=O)N4CCCC(n5nc(-c6ccc(Oc7ccc(F)cc7F)cc6)c(C(N)=O)c5N)C4)c3C)ccc2CC1C(=O)NC1CCCc2ccccc21)C(C)(C)C

> <Shape>
0.299

> <Color>
0.083

> <Negative vol penalty>
0.000

$$$$

  -OEChem-04052304113D

 82 90  0     1  0  0  0  0  0999 V2000
  -23.2306  -33.2682   28.3362 C   0  0  0  0  0  0  0  0  0  0  0  0
  -24.3092  -32.7643   27.6163 C   0  0  0  0  0  0  0  0  0  0  0  0
  -26.5337  -12.5314   21.8057 C   0  0  0  0  0  0  0  0  0  0  0  0
  -25.9242  -13.9351   19.9361 C   0  0  0  0  0  0  0  0  0  0  0  0
  -21.9630  -32.7112   28.1718 C   0  0  0  0  0  0  0  0  0  0  0  0
  -24.1210  -31.7023   26.7325 C   0  0  0  0  0  0  0  0  0  0  0  0
  -27.0203  -30.7781   21.4178 C   0  0  0  0  0  0  0  0  0  0  0  0
  -25.2599  -11.9634   21.7946 C   0  0  0  0  0  0  0  0  0  0  0  0
  -24.6503  -13.3669   19.9249 C   0  0  0  0  0  0  0  0  0  0  0  0
  -28.1049  -29.9748   21.0683 C   0  0  0  0  0  0  0  0  0  0  0  0
  -22.2852   -9.8868   22.0276 C   0  0  0  0  0  0  0  0  0  0  0  0
  -22.1924   -8.5002   22.1466 C   0  0  0  0  0  0  0  0  0  0  0  0
  -26.5844  -28.2539   20.3294 C   0  0  0  0  0  0  0  0  0  0  0  0
  -30.1626  -22.8604   20.7136 C   0  0  0  0  0  0  0  0  0  0  0  0
  -23.4959   -8.2397   20.1291 C   0  0  0  0  0  0  0  0  0  0  0  0
  -29.0627  -21.7386   19.1299 C   0  0  0  0  0  0  0  0  0  0  0  0
  -26.8659  -13.5173   20.8765 C   0  0  0  0  0  0  0  0  0  0  0  0
  -29.3169  -13.6610   20.1840 C   0  0  0  0  0  0  0  0  0  0  0  0
  -21.7574  -31.6482   27.2783 C   0  0  0  0  0  0  0  0  0  0  0  0
  -25.7075  -30.3202   21.2355 C   0  0  0  0  0  0  0  0  0  0  0  0
  -22.8498  -31.1297   26.5570 C   0  0  0  0  0  0  0  0  0  0  0  0
  -25.4849  -29.0544   20.6750 C   0  0  0  0  0  0  0  0  0  0  0  0
  -29.6277  -21.5944   20.3757 C   0  0  0  0  0  0  0  0  0  0  0  0
  -24.3182  -12.3811   20.8542 C   0  0  0  0  0  0  0  0  0  0  0  0
  -27.8871  -28.7113   20.5267 C   0  0  0  0  0  0  0  0  0  0  0  0
  -22.9832  -10.4500   20.9592 C   0  0  0  0  0  0  0  0  0  0  0  0
  -22.7978   -7.6766   21.1974 C   0  0  0  0  0  0  0  0  0  0  0  0
  -23.5886   -9.6264   20.0101 C   0  0  0  0  0  0  0  0  0  0  0  0
  -28.1814  -14.1050   20.8878 C   0  0  0  0  0  0  0  0  0  0  0  0
  -29.8866  -23.6880   19.6501 C   0  0  0  0  0  0  0  0  0  0  0  0
  -30.3045  -14.5509   20.5291 C   0  0  0  0  0  0  0  0  0  0  0  0
  -29.4656  -12.5440   19.2975 C   0  0  0  0  0  0  0  0  0  0  0  0
  -30.1905  -25.1229   19.4143 C   0  0  0  0  0  0  0  0  0  0  0  0
  -23.2518  -29.7238   23.1637 C   0  0  0  0  0  0  0  0  0  0  0  0
  -21.6771  -29.2419   20.3690 C   0  0  0  0  0  0  0  0  0  0  0  0
  -21.8359  -28.4492   17.0534 C   0  0  0  0  0  0  0  0  0  0  0  0
  -30.2145  -20.2232   22.4059 C   0  0  0  0  0  0  0  0  0  0  0  0
  -20.3781  -31.0478   27.1695 C   0  0  0  0  0  0  0  0  0  0  0  0
  -24.5483  -31.2096   21.5928 C   0  0  0  0  0  0  0  0  0  0  0  0
  -24.0948  -28.5243   20.4402 C   0  0  0  0  0  0  0  0  0  0  0  0
  -20.1914  -30.1705   25.9342 C   0  0  0  0  0  0  0  0  0  0  0  0
  -31.6592  -17.4432   24.0976 C   0  0  0  0  0  0  0  0  0  0  0  0
  -21.3731  -29.2198   25.7711 C   0  0  0  0  0  0  0  0  0  0  0  0
  -31.0392  -16.2312   23.3984 C   0  0  0  0  0  0  0  0  0  0  0  0
  -30.6628  -18.5939   24.2278 C   0  0  0  0  0  0  0  0  0  0  0  0
  -29.3964  -17.7882   22.2743 C   0  0  0  0  0  0  0  0  0  0  0  0
  -22.6810  -29.9948   25.5702 C   0  0  1  0  0  0  0  0  0  0  0  0
  -23.2566  -30.4368   21.8410 C   0  0  1  0  0  0  0  0  0  0  0  0
  -30.3814  -16.6271   22.0619 C   0  0  2  0  0  0  0  0  0  0  0  0
  -20.3796  -28.0966   15.0403 C   0  0  0  0  0  0  0  0  0  0  0  0
  -29.8594  -27.8198   22.4138 C   0  0  0  0  0  0  0  0  0  0  0  0
  -20.8374  -26.5175   21.4565 C   0  0  0  0  0  0  0  0  0  0  0  0
  -20.2276  -25.8511   19.1215 C   0  0  0  0  0  0  0  0  0  0  0  0
  -19.0417  -27.7479   20.2253 C   0  0  0  0  0  0  0  0  0  0  0  0
  -23.1413  -30.6579   15.5781 C   0  0  0  0  0  0  0  0  0  0  0  0
  -31.2210  -27.1719   20.3607 C   0  0  0  0  0  0  0  0  0  0  0  0
  -21.4348  -28.0540   19.4694 C   0  0  1  0  0  0  0  0  0  0  0  0
  -21.2085  -29.0962   15.8318 C   0  0  2  0  0  0  0  0  0  0  0  0
  -30.1436  -28.0851   20.9412 C   0  0  1  0  0  0  0  0  0  1  0  0
  -20.4117  -27.0515   20.0743 C   0  0  0  0  0  0  0  0  0  0  0  0
  -28.4240  -15.1924   21.6245 N   0  0  0  0  0  0  0  0  0  0  0  0
  -29.7233  -15.4391   21.3856 N   0  0  0  0  0  0  0  0  0  0  0  0
  -22.9942  -29.4289   20.8117 N   0  0  0  0  0  0  0  0  0  0  0  0
  -30.0834  -18.9166   22.9221 N   0  0  0  0  0  0  0  0  0  0  0  0
  -31.6047  -14.6525   20.1805 N   0  0  0  0  0  0  0  0  0  0  0  0
  -28.3497  -11.7320   19.0528 N   0  0  0  0  0  0  0  0  0  0  0  0
  -29.6523  -20.4031   21.1425 N   0  0  0  0  0  0  0  0  0  0  0  0
  -30.8759  -25.7768   20.4305 N   0  0  0  0  0  0  0  0  0  0  0  0
  -22.7738  -30.4863   24.2122 N   0  0  0  0  0  0  0  0  0  0  0  0
  -21.0444  -28.5968   18.1727 N   0  0  0  0  0  0  0  0  0  0  0  0
  -22.2655  -29.6444   14.9356 N   0  3  0  0  0  0  0  0  0  0  0  0
  -30.5599  -12.2642   18.7518 O   0  0  0  0  0  0  0  0  0  0  0  0
  -29.8144  -25.6525   18.3719 O   0  0  0  0  0  0  0  0  0  0  0  0
  -23.6509  -28.5669   23.2278 O   0  0  0  0  0  0  0  0  0  0  0  0
  -20.7339  -29.9809   20.6620 O   0  0  0  0  0  0  0  0  0  0  0  0
  -22.9180  -27.8675   17.0173 O   0  0  0  0  0  0  0  0  0  0  0  0
  -30.8074  -21.1095   23.0263 O   0  0  0  0  0  0  0  0  0  0  0  0
  -29.2163  -23.0117   18.6805 O   0  0  0  0  0  0  0  0  0  0  0  0
  -23.0751  -11.8268   20.8429 O   0  0  0  0  0  0  0  0  0  0  0  0
  -28.9439  -27.9249   20.1853 O   0  0  0  0  0  0  0  0  0  1  0  0
  -22.7100   -6.3450   21.3128 F   0  0  0  0  0  0  0  0  0  0  0  0
  -24.2616  -10.1616   18.9822 F   0  0  0  0  0  0  0  0  0  0  0  0
  1  2  1  0  0  0  0
  1  5  2  0  0  0  0
  2  6  2  0  0  0  0
  3  8  2  0  0  0  0
  3 17  1  0  0  0  0
  4  9  1  0  0  0  0
  4 17  2  0  0  0  0
  5 19  1  0  0  0  0
  6 21  1  0  0  0  0
  7 10  2  0  0  0  0
  7 20  1  0  0  0  0
  8 24  1  0  0  0  0
  9 24  2  0  0  0  0
 10 25  1  0  0  0  0
 11 12  2  0  0  0  0
 11 26  1  0  0  0  0
 12 27  1  0  0  0  0
 13 22  1  0  0  0  0
 13 25  2  0  0  0  0
 14 23  1  0  0  0  0
 14 30  2  0  0  0  0
 15 27  2  0  0  0  0
 15 28  1  0  0  0  0
 16 23  2  0  0  0  0
 16 78  1  0  0  0  0
 17 29  1  0  0  0  0
 18 29  1  0  0  0  0
 18 31  2  0  0  0  0
 18 32  1  0  0  0  0
 19 21  2  0  0  0  0
 19 38  1  0  0  0  0
 20 22  2  0  0  0  0
 20 39  1  0  0  0  0
 21 47  1  0  0  0  0
 22 40  1  0  0  0  0
 23 67  1  0  0  0  0
 24 79  1  0  0  0  0
 25 80  1  0  0  0  0
 26 28  2  0  0  0  0
 26 79  1  0  0  0  0
 27 81  1  0  0  0  0
 28 82  1  0  0  0  0
 29 61  2  0  0  0  0
 30 33  1  0  0  0  0
 30 78  1  0  0  0  0
 31 62  1  0  0  0  0
 31 65  1  0  0  0  0
 32 66  1  0  0  0  0
 32 72  2  0  0  0  0
 33 68  1  0  0  0  0
 33 73  2  0  0  0  0
 34 48  1  0  0  0  0
 34 69  1  0  0  0  0
 34 74  2  0  0  0  0
 35 57  1  0  0  0  0
 35 63  1  0  0  0  0
 35 75  2  0  0  0  0
 36 58  1  0  0  0  0
 36 70  1  0  0  0  0
 36 76  2  0  0  0  0
 37 64  1  0  0  0  0
 37 67  1  0  0  0  0
 37 77  2  0  0  0  0
 38 41  1  0  0  0  0
 39 48  1  0  0  0  0
 40 63  1  0  0  0  0
 41 43  1  0  0  0  0
 42 44  1  0  0  0  0
 42 45  1  0  0  0  0
 43 47  1  0  0  0  0
 44 49  1  0  0  0  0
 45 64  1  0  0  0  0
 46 49  1  0  0  0  0
 46 64  1  0  0  0  0
 47 69  1  0  0  0  0
 48 63  1  0  0  0  0
 49 62  1  0  0  0  0
 50 58  1  0  0  0  0
 51 59  1  0  0  0  0
 52 60  1  0  0  0  0
 53 60  1  0  0  0  0
 54 60  1  0  0  0  0
 55 71  1  0  0  0  0
 56 59  1  0  0  0  0
 56 68  1  0  0  0  0
 57 60  1  0  0  0  0
 57 70  1  0  0  0  0
 58 71  1  0  0  0  0
 59 80  1  0  0  0  0
 61 62  1  0  0  0  0
M  CHG  1  71   1
M  ISO  4  37 100  59 101  67 100  80 101
M  END
> <Batch ID>
0167

> <Smiles>
CNC(C)C(=O)NC(C(=O)N1Cc2cc([101O:1][101CH:1](C)CNC(=O)c3cc([100NH:0][100C:0](=O)N4CCCC(n5nc(-c6ccc(Oc7ccc(F)cc7F)cc6)c(C(N)=O)c5N)C4)co3)ccc2CC1C(=O)NC1CCCc2ccccc21)C(C)(C)C

> <Shape>
0.309

> <Color>
0.108

> <Negative vol penalty>
0.000

$$$$

  -OEChem-04052304113D

 88 96  0     1  0  0  0  0  0999 V2000
  -30.3628  -22.6119   18.8235 C   0  0  0  0  0  0  0  0  0  0  0  0
  -29.8449  -22.7256   20.1096 C   0  0  0  0  0  0  0  0  0  0  0  0
  -23.3140  -14.5094   19.3102 C   0  0  0  0  0  0  0  0  0  0  0  0
  -23.9557  -13.9861   21.5798 C   0  0  0  0  0  0  0  0  0  0  0  0
  -30.2569  -23.6800   17.9336 C   0  0  0  0  0  0  0  0  0  0  0  0
  -29.2217  -23.9080   20.5071 C   0  0  0  0  0  0  0  0  0  0  0  0
  -24.8932  -23.0792   23.0014 C   0  0  0  0  0  0  0  0  0  0  0  0
  -22.5827  -13.3235   19.2435 C   0  0  0  0  0  0  0  0  0  0  0  0
  -23.2244  -12.8002   21.5132 C   0  0  0  0  0  0  0  0  0  0  0  0
  -24.9921  -22.6909   24.3368 C   0  0  0  0  0  0  0  0  0  0  0  0
  -23.6129   -9.7034   20.2133 C   0  0  0  0  0  0  0  0  0  0  0  0
  -24.2124   -8.5438   20.7048 C   0  0  0  0  0  0  0  0  0  0  0  0
  -31.4982  -23.1534   24.7745 C   0  0  0  0  0  0  0  0  0  0  0  0
  -24.5233  -24.9554   25.0237 C   0  0  0  0  0  0  0  0  0  0  0  0
  -31.8549  -21.4601   23.0886 C   0  0  0  0  0  0  0  0  0  0  0  0
  -22.4229   -8.2989   22.3096 C   0  0  0  0  0  0  0  0  0  0  0  0
  -24.0006  -14.8407   20.4784 C   0  0  0  0  0  0  0  0  0  0  0  0
  -30.2056  -22.6728   24.9837 C   0  0  0  0  0  0  0  0  0  0  0  0
  -24.2950  -17.3266   20.9692 C   0  0  0  0  0  0  0  0  0  0  0  0
  -29.6235  -24.8726   18.3172 C   0  0  0  0  0  0  0  0  0  0  0  0
  -24.6189  -24.4130   22.6664 C   0  0  0  0  0  0  0  0  0  0  0  0
  -29.1084  -24.9936   19.6220 C   0  0  0  0  0  0  0  0  0  0  0  0
  -24.4188  -25.3575   23.6833 C   0  0  0  0  0  0  0  0  0  0  0  0
  -29.7377  -21.5858   24.2455 C   0  0  0  0  0  0  0  0  0  0  0  0
  -30.5623  -20.9794   23.2979 C   0  0  0  0  0  0  0  0  0  0  0  0
  -22.5378  -12.4689   20.3450 C   0  0  0  0  0  0  0  0  0  0  0  0
  -24.8100  -23.6296   25.3481 C   0  0  0  0  0  0  0  0  0  0  0  0
  -22.4185  -10.1608   20.7700 C   0  0  0  0  0  0  0  0  0  0  0  0
  -23.6174   -7.8416   21.7529 C   0  0  0  0  0  0  0  0  0  0  0  0
  -32.3228  -22.5471   23.8269 C   0  0  0  0  0  0  0  0  0  0  0  0
  -21.8235   -9.4586   21.8180 C   0  0  0  0  0  0  0  0  0  0  0  0
  -24.7566  -16.0653   20.5477 C   0  0  0  0  0  0  0  0  0  0  0  0
  -25.3883  -18.1495   20.8507 C   0  0  0  0  0  0  0  0  0  0  0  0
  -29.3511  -23.3317   25.9919 C   0  0  0  0  0  0  0  0  0  0  0  0
  -22.9943  -17.7193   21.4271 C   0  0  0  0  0  0  0  0  0  0  0  0
  -26.1636  -26.6889   21.0735 C   0  0  0  0  0  0  0  0  0  0  0  0
  -27.2576  -22.7240   28.3370 C   0  0  0  0  0  0  0  0  0  0  0  0
  -23.3933  -28.3227   21.4961 C   0  0  0  0  0  0  0  0  0  0  0  0
  -20.5346  -28.7589   23.3083 C   0  0  0  0  0  0  0  0  0  0  0  0
  -30.8154  -19.1716   21.5617 C   0  0  0  0  0  0  0  0  0  0  0  0
  -29.5749  -26.0169   17.3360 C   0  0  0  0  0  0  0  0  0  0  0  0
  -24.4889  -24.8102   21.2216 C   0  0  0  0  0  0  0  0  0  0  0  0
  -24.1022  -26.7977   23.3768 C   0  0  0  0  0  0  0  0  0  0  0  0
  -28.5678  -27.1004   17.7131 C   0  0  0  0  0  0  0  0  0  0  0  0
  -29.8739  -17.3695   18.6388 C   0  0  0  0  0  0  0  0  0  0  0  0
  -28.7002  -27.4617   19.1892 C   0  0  0  0  0  0  0  0  0  0  0  0
  -28.4207  -16.9733   18.9096 C   0  0  0  0  0  0  0  0  0  0  0  0
  -30.7216  -17.3185   19.9087 C   0  0  0  0  0  0  0  0  0  0  0  0
  -28.7320  -17.6835   21.3149 C   0  0  0  0  0  0  0  0  0  0  0  0
  -28.4034  -26.2510   20.0823 C   0  0  1  0  0  0  0  0  0  0  0  0
  -24.7144  -26.3010   20.9891 C   0  0  1  0  0  0  0  0  0  0  0  0
  -27.8243  -17.7824   20.0780 C   0  0  2  0  0  0  0  0  0  0  0  0
  -28.3498  -21.0732   24.4726 C   0  0  0  0  0  0  0  0  0  0  0  0
  -29.3354  -23.2544   29.6417 C   0  0  0  0  0  0  0  0  0  0  0  0
  -18.4829  -30.1983   23.4351 C   0  0  0  0  0  0  0  0  0  0  0  0
  -25.0546  -30.5802   22.7017 C   0  0  0  0  0  0  0  0  0  0  0  0
  -22.9431  -31.5328   23.6519 C   0  0  0  0  0  0  0  0  0  0  0  0
  -23.2182  -31.3340   21.1805 C   0  0  0  0  0  0  0  0  0  0  0  0
  -18.7419  -26.4424   22.8852 C   0  0  0  0  0  0  0  0  0  0  0  0
  -26.0448  -23.5481   28.7526 C   0  0  0  0  0  0  0  0  0  0  0  0
  -25.3632  -24.2372   27.5799 C   0  0  0  0  0  0  0  0  0  1  0  0
  -28.5891  -23.4500   28.3375 C   0  0  1  0  0  0  0  0  0  0  0  0
  -22.8484  -29.2467   22.5583 C   0  0  1  0  0  0  0  0  0  0  0  0
  -19.0861  -28.9163   22.8824 C   0  0  2  0  0  0  0  0  0  0  0  0
  -23.5240  -30.6468   22.5292 C   0  0  0  0  0  0  0  0  0  0  0  0
  -26.0429  -16.0807   20.1881 N   0  0  0  0  0  0  0  0  0  0  0  0
  -26.3988  -17.3618   20.3833 N   0  0  0  0  0  0  0  0  0  0  0  0
  -23.9918  -27.1383   21.9488 N   0  0  0  0  0  0  0  0  0  0  0  0
  -30.0972  -18.1107   20.9705 N   0  0  0  0  0  0  0  0  0  0  0  0
  -25.5742  -19.4629   21.1018 N   0  0  0  0  0  0  0  0  0  0  0  0
  -28.5814  -24.3458   25.5967 N   0  0  0  0  0  0  0  0  0  0  0  0
  -21.9858  -16.7479   21.4875 N   0  0  0  0  0  0  0  0  0  0  0  0
  -30.1079  -19.8739   22.5368 N   0  0  0  0  0  0  0  0  0  0  0  0
  -26.9764  -26.0275   20.1727 N   0  0  0  0  0  0  0  0  0  0  0  0
  -21.4020  -29.2770   22.3701 N   0  0  0  0  0  0  0  0  0  0  0  0
  -29.3909  -22.8824   27.2529 N   0  3  0  0  0  0  0  0  0  0  0  0
  -18.2744  -27.7661   23.3714 N   0  3  0  0  0  0  0  0  0  0  0  0
  -22.7297  -18.9003   21.7568 O   0  0  0  0  0  0  0  0  0  0  0  0
  -26.5179  -27.5274   21.8939 O   0  0  0  0  0  0  0  0  0  0  0  0
  -27.1669  -21.5353   28.0301 O   0  0  0  0  0  0  0  0  0  0  0  0
  -23.2853  -28.6367   20.3081 O   0  0  0  0  0  0  0  0  0  0  0  0
  -20.8635  -28.2325   24.3691 O   0  0  0  0  0  0  0  0  0  0  0  0
  -31.9630  -19.4546   21.2085 O   0  0  0  0  0  0  0  0  0  0  0  0
  -21.8241  -11.3118   20.2804 O   0  0  0  0  0  0  0  0  0  0  0  0
  -24.9067  -23.2535   26.6524 O   0  0  0  0  0  0  0  0  0  1  0  0
  -24.1924   -6.7272   22.2238 F   0  0  0  0  0  0  0  0  0  0  0  0
  -33.5644  -23.0082   23.6264 F   0  0  0  0  0  0  0  0  0  0  0  0
  -20.6754   -9.8924   22.3561 F   0  0  0  0  0  0  0  0  0  0  0  0
  1  2  1  0  0  0  0
  1  5  2  0  0  0  0
  2  6  2  0  0  0  0
  3  8  2  0  0  0  0
  3 17  1  0  0  0  0
  4  9  1  0  0  0  0
  4 17  2  0  0  0  0
  5 20  1  0  0  0  0
  6 22  1  0  0  0  0
  7 10  2  0  0  0  0
  7 21  1  0  0  0  0
  8 26  1  0  0  0  0
  9 26  2  0  0  0  0
 10 27  1  0  0  0  0
 11 12  2  0  0  0  0
 11 28  1  0  0  0  0
 12 29  1  0  0  0  0
 13 18  1  0  0  0  0
 13 30  2  0  0  0  0
 14 23  1  0  0  0  0
 14 27  2  0  0  0  0
 15 25  2  0  0  0  0
 15 30  1  0  0  0  0
 16 29  2  0  0  0  0
 16 31  1  0  0  0  0
 17 32  1  0  0  0  0
 18 24  2  0  0  0  0
 18 34  1  0  0  0  0
 19 32  1  0  0  0  0
 19 33  2  0  0  0  0
 19 35  1  0  0  0  0
 20 22  2  0  0  0  0
 20 41  1  0  0  0  0
 21 23  2  0  0  0  0
 21 42  1  0  0  0  0
 22 50  1  0  0  0  0
 23 43  1  0  0  0  0
 24 25  1  0  0  0  0
 24 53  1  0  0  0  0
 25 73  1  0  0  0  0
 26 84  1  0  0  0  0
 27 85  1  0  0  0  0
 28 31  2  0  0  0  0
 28 84  1  0  0  0  0
 29 86  1  0  0  0  0
 30 87  1  0  0  0  0
 31 88  1  0  0  0  0
 32 66  2  0  0  0  0
 33 67  1  0  0  0  0
 33 70  1  0  0  0  0
 34 71  1  0  0  0  0
 34 76  2  0  0  0  0
 35 72  1  0  0  0  0
 35 78  2  0  0  0  0
 36 51  1  0  0  0  0
 36 74  1  0  0  0  0
 36 79  2  0  0  0  0
 37 60  1  0  0  0  0
 37 62  1  0  0  0  0
 37 80  2  0  0  0  0
 38 63  1  0  0  0  0
 38 68  1  0  0  0  0
 38 81  2  0  0  0  0
 39 64  1  0  0  0  0
 39 75  1  0  0  0  0
 39 82  2  0  0  0  0
 40 69  1  0  0  0  0
 40 73  1  0  0  0  0
 40 83  2  0  0  0  0
 41 44  1  0  0  0  0
 42 51  1  0  0  0  0
 43 68  1  0  0  0  0
 44 46  1  0  0  0  0
 45 47  1  0  0  0  0
 45 48  1  0  0  0  0
 46 50  1  0  0  0  0
 47 52  1  0  0  0  0
 48 69  1  0  0  0  0
 49 52  1  0  0  0  0
 49 69  1  0  0  0  0
 50 74  1  0  0  0  0
 51 68  1  0  0  0  0
 52 67  1  0  0  0  0
 54 62  1  0  0  0  0
 55 64  1  0  0  0  0
 56 65  1  0  0  0  0
 57 65  1  0  0  0  0
 58 65  1  0  0  0  0
 59 77  1  0  0  0  0
 60 61  1  0  0  0  0
 61 85  1  0  0  0  0
 62 76  1  0  0  0  0
 63 65  1  0  0  0  0
 63 75  1  0  0  0  0
 64 77  1  0  0  0  0
 66 67  1  0  0  0  0
M  CHG  2  76   1  77   1
M  ISO  4  40 100  61 101  73 100  85 101
M  END
> <Batch ID>
0167

> <Smiles>
CNC(C)C(=O)NC(C(=O)N1Cc2cc([101O:1][101CH2:1]CC(=O)C(C)NC(=N)c3cc(F)cc([100NH:0][100C:0](=O)N4CCCC(n5nc(-c6ccc(Oc7ccc(F)cc7F)cc6)c(C(N)=O)c5N)C4)c3C)ccc2CC1C(=O)NC1CCCc2ccccc21)C(C)(C)C

> <Shape>
0.223

> <Color>
0.040

> <Negative vol penalty>
0.000

$$$$

  -OEChem-04052304113D

 87 95  0     1  0  0  0  0  0999 V2000
  -27.6716  -33.9507   27.5049 C   0  0  0  0  0  0  0  0  0  0  0  0
  -27.9679  -32.8357   26.7274 C   0  0  0  0  0  0  0  0  0  0  0  0
  -31.2809  -19.9567   22.2431 C   0  0  0  0  0  0  0  0  0  0  0  0
  -25.2486   -7.7882   21.9657 C   0  0  0  0  0  0  0  0  0  0  0  0
  -24.6823   -7.7367   19.6176 C   0  0  0  0  0  0  0  0  0  0  0  0
  -30.8722  -18.6253   22.3196 C   0  0  0  0  0  0  0  0  0  0  0  0
  -26.3487  -34.3661   27.6504 C   0  0  0  0  0  0  0  0  0  0  0  0
  -26.9411  -32.1348   26.0958 C   0  0  0  0  0  0  0  0  0  0  0  0
  -27.1950  -29.3470   20.6489 C   0  0  0  0  0  0  0  0  0  0  0  0
  -30.3934  -20.9339   21.7924 C   0  0  0  0  0  0  0  0  0  0  0  0
  -23.9967   -7.2592   22.2793 C   0  0  0  0  0  0  0  0  0  0  0  0
  -23.4303   -7.2077   19.9312 C   0  0  0  0  0  0  0  0  0  0  0  0
  -27.3945  -28.0160   20.2848 C   0  0  0  0  0  0  0  0  0  0  0  0
  -22.4931   -4.2309   22.2475 C   0  0  0  0  0  0  0  0  0  0  0  0
  -22.4423   -3.1944   23.1795 C   0  0  0  0  0  0  0  0  0  0  0  0
  -25.0072  -27.7074   20.1278 C   0  0  0  0  0  0  0  0  0  0  0  0
  -21.0354   -4.5453   24.6052 C   0  0  0  0  0  0  0  0  0  0  0  0
  -25.5914   -8.0270   20.6349 C   0  0  0  0  0  0  0  0  0  0  0  0
  -29.5760  -18.2710   21.9452 C   0  0  0  0  0  0  0  0  0  0  0  0
  -28.6886  -19.2482   21.4943 C   0  0  0  0  0  0  0  0  0  0  0  0
  -28.0666   -7.8589   20.0407 C   0  0  0  0  0  0  0  0  0  0  0  0
  -25.3061  -33.6757   27.0125 C   0  0  0  0  0  0  0  0  0  0  0  0
  -25.8976  -29.8660   20.7660 C   0  0  0  0  0  0  0  0  0  0  0  0
  -25.6028  -32.5406   26.2340 C   0  0  0  0  0  0  0  0  0  0  0  0
  -24.7940  -29.0459   20.4911 C   0  0  0  0  0  0  0  0  0  0  0  0
  -29.0973  -20.5797   21.4179 C   0  0  0  0  0  0  0  0  0  0  0  0
  -23.0875   -6.9689   21.2621 C   0  0  0  0  0  0  0  0  0  0  0  0
  -26.3005  -27.1952   20.0270 C   0  0  0  0  0  0  0  0  0  0  0  0
  -21.8151   -5.4247   22.4943 C   0  0  0  0  0  0  0  0  0  0  0  0
  -21.7134   -3.3515   24.3583 C   0  0  0  0  0  0  0  0  0  0  0  0
  -21.0862   -5.5819   23.6732 C   0  0  0  0  0  0  0  0  0  0  0  0
  -26.8843   -8.5740   20.3103 C   0  0  0  0  0  0  0  0  0  0  0  0
  -29.0059   -8.8296   19.7920 C   0  0  0  0  0  0  0  0  0  0  0  0
  -29.1874  -16.8690   22.0397 C   0  0  0  0  0  0  0  0  0  0  0  0
  -29.7915  -15.8475   21.4002 C   0  0  0  0  0  0  0  0  0  0  0  0
  -27.3298  -18.8847   21.0951 C   0  0  0  0  0  0  0  0  0  0  0  0
  -28.2952   -6.4437   20.0171 C   0  0  0  0  0  0  0  0  0  0  0  0
  -29.2847  -14.4760   21.6069 C   0  0  0  0  0  0  0  0  0  0  0  0
  -24.1840  -31.1077   23.1378 C   0  0  0  0  0  0  0  0  0  0  0  0
  -27.4187  -23.7580   20.3396 C   0  0  0  0  0  0  0  0  0  0  0  0
  -22.0486  -31.6945   20.7675 C   0  0  0  0  0  0  0  0  0  0  0  0
  -20.8603  -30.8845   17.6726 C   0  0  0  0  0  0  0  0  0  0  0  0
  -23.8871  -34.1343   27.2377 C   0  0  0  0  0  0  0  0  0  0  0  0
  -25.7000  -31.3111   21.1337 C   0  0  0  0  0  0  0  0  0  0  0  0
  -23.3814  -29.5602   20.5829 C   0  0  0  0  0  0  0  0  0  0  0  0
  -22.8941  -33.5591   26.2311 C   0  0  0  0  0  0  0  0  0  0  0  0
  -29.4565  -13.2840   18.1455 C   0  0  0  0  0  0  0  0  0  0  0  0
  -23.1161  -32.0597   26.0593 C   0  0  0  0  0  0  0  0  0  0  0  0
  -28.8736  -11.8806   18.2889 C   0  0  0  0  0  0  0  0  0  0  0  0
  -28.8041  -14.2752   19.1079 C   0  0  0  0  0  0  0  0  0  0  0  0
  -28.2645  -12.4346   20.6769 C   0  0  0  0  0  0  0  0  0  0  0  0
  -24.5190  -31.7688   25.5130 C   0  0  1  0  0  0  0  0  0  0  0  0
  -24.3216  -31.5945   21.7230 C   0  0  1  0  0  0  0  0  0  0  0  0
  -28.9393  -11.4107   19.7508 C   0  0  1  0  0  0  0  0  0  0  0  0
  -25.9547  -17.4961   19.4617 C   0  0  0  0  0  0  0  0  0  0  0  0
  -19.0828  -31.5161   16.0176 C   0  0  0  0  0  0  0  0  0  0  0  0
  -19.9630  -30.2448   22.4581 C   0  0  0  0  0  0  0  0  0  0  0  0
  -18.5284  -30.0705   20.4136 C   0  0  0  0  0  0  0  0  0  0  0  0
  -19.1322  -32.3131   21.3241 C   0  0  0  0  0  0  0  0  0  0  0  0
  -22.8658  -31.6269   15.6266 C   0  0  0  0  0  0  0  0  0  0  0  0
  -27.0786  -18.5061   19.6324 C   0  0  0  0  0  0  0  0  0  0  0  0
  -28.5932  -22.9599   20.8645 C   0  0  0  0  0  0  0  0  0  0  0  0
  -27.6561  -25.2475   20.1841 C   0  0  0  0  0  0  0  0  0  1  0  0
  -20.8983  -30.9345   20.1526 C   0  0  1  0  0  0  0  0  0  0  0  0
  -20.5172  -31.7434   16.4689 C   0  0  2  0  0  0  0  0  0  0  0  0
  -19.6569  -30.8802   21.0872 C   0  0  0  0  0  0  0  0  0  0  0  0
  -27.0544   -9.8969   20.2398 N   0  0  0  0  0  0  0  0  0  0  0  0
  -28.3546  -10.0208   19.9230 N   0  0  0  0  0  0  0  0  0  0  0  0
  -28.8272  -13.7769   20.4914 N   0  0  0  0  0  0  0  0  0  0  0  0
  -23.2398  -30.9783   20.9522 N   0  0  0  0  0  0  0  0  0  0  0  0
  -30.3171   -8.7720   19.4763 N   0  0  0  0  0  0  0  0  0  0  0  0
  -27.2204   -5.5885   20.2958 N   0  0  0  0  0  0  0  0  0  0  0  0
  -28.2336  -21.5689   20.9700 N   0  0  0  0  0  0  0  0  0  0  0  0
  -24.5718  -32.0303   24.0906 N   0  0  0  0  0  0  0  0  0  0  0  0
  -20.6444  -31.5561   18.8574 N   0  0  0  0  0  0  0  0  0  0  0  0
  -21.4242  -31.4251   15.3300 N   0  3  0  0  0  0  0  0  0  0  0  0
  -26.3805  -18.8725   21.8906 O   0  0  0  0  0  0  0  0  0  0  0  0
  -29.4232   -5.9524   19.7726 O   0  0  0  0  0  0  0  0  0  0  0  0
  -29.2930  -14.0341   22.7573 O   0  0  0  0  0  0  0  0  0  0  0  0
  -23.7561  -29.9790   23.3495 O   0  0  0  0  0  0  0  0  0  0  0  0
  -26.3382  -23.2428   20.0551 O   0  0  0  0  0  0  0  0  0  0  0  0
  -21.8982  -32.8819   21.0662 O   0  0  0  0  0  0  0  0  0  0  0  0
  -21.2747  -29.7318   17.5720 O   0  0  0  0  0  0  0  0  0  0  0  0
  -21.8659   -6.4525   21.5677 O   0  0  0  0  0  0  0  0  0  0  0  0
  -26.4924  -25.8956   19.6720 O   0  0  0  0  0  0  0  0  0  1  0  0
  -21.6634   -2.3555   25.2525 F   0  0  0  0  0  0  0  0  0  0  0  0
  -20.4319   -6.7260   23.9153 F   0  0  0  0  0  0  0  0  0  0  0  0
  1  2  1  0  0  0  0
  1  7  2  0  0  0  0
  2  8  2  0  0  0  0
  3  6  1  0  0  0  0
  3 10  2  0  0  0  0
  4 11  2  0  0  0  0
  4 18  1  0  0  0  0
  5 12  1  0  0  0  0
  5 18  2  0  0  0  0
  6 19  2  0  0  0  0
  7 22  1  0  0  0  0
  8 24  1  0  0  0  0
  9 13  2  0  0  0  0
  9 23  1  0  0  0  0
 10 26  1  0  0  0  0
 11 27  1  0  0  0  0
 12 27  2  0  0  0  0
 13 28  1  0  0  0  0
 14 15  2  0  0  0  0
 14 29  1  0  0  0  0
 15 30  1  0  0  0  0
 16 25  1  0  0  0  0
 16 28  2  0  0  0  0
 17 30  2  0  0  0  0
 17 31  1  0  0  0  0
 18 32  1  0  0  0  0
 19 20  1  0  0  0  0
 19 34  1  0  0  0  0
 20 26  2  0  0  0  0
 20 36  1  0  0  0  0
 21 32  1  0  0  0  0
 21 33  2  0  0  0  0
 21 37  1  0  0  0  0
 22 24  2  0  0  0  0
 22 43  1  0  0  0  0
 23 25  2  0  0  0  0
 23 44  1  0  0  0  0
 24 52  1  0  0  0  0
 25 45  1  0  0  0  0
 26 73  1  0  0  0  0
 27 84  1  0  0  0  0
 28 85  1  0  0  0  0
 29 31  2  0  0  0  0
 29 84  1  0  0  0  0
 30 86  1  0  0  0  0
 31 87  1  0  0  0  0
 32 67  2  0  0  0  0
 33 68  1  0  0  0  0
 33 71  1  0  0  0  0
 34 35  2  0  0  0  0
 35 38  1  0  0  0  0
 36 61  1  0  0  0  0
 36 77  2  0  0  0  0
 37 72  1  0  0  0  0
 37 78  2  0  0  0  0
 38 69  1  0  0  0  0
 38 79  2  0  0  0  0
 39 53  1  0  0  0  0
 39 74  1  0  0  0  0
 39 80  2  0  0  0  0
 40 62  1  0  0  0  0
 40 63  1  0  0  0  0
 40 81  2  0  0  0  0
 41 64  1  0  0  0  0
 41 70  1  0  0  0  0
 41 82  2  0  0  0  0
 42 65  1  0  0  0  0
 42 75  1  0  0  0  0
 42 83  2  0  0  0  0
 43 46  1  0  0  0  0
 44 53  1  0  0  0  0
 45 70  1  0  0  0  0
 46 48  1  0  0  0  0
 47 49  1  0  0  0  0
 47 50  1  0  0  0  0
 48 52  1  0  0  0  0
 49 54  1  0  0  0  0
 50 69  1  0  0  0  0
 51 54  1  0  0  0  0
 51 69  1  0  0  0  0
 52 74  1  0  0  0  0
 53 70  1  0  0  0  0
 54 68  1  0  0  0  0
 55 61  1  0  0  0  0
 56 65  1  0  0  0  0
 57 66  1  0  0  0  0
 58 66  1  0  0  0  0
 59 66  1  0  0  0  0
 60 76  1  0  0  0  0
 62 73  1  0  0  0  0
 63 85  1  0  0  0  0
 64 66  1  0  0  0  0
 64 75  1  0  0  0  0
 65 76  1  0  0  0  0
 67 68  1  0  0  0  0
M  CHG  1  76   1
M  ISO  4  35 100  38 100  63 101  85 101
M  END
> <Batch ID>
0167

> <Smiles>
CCC(=O)c1c(C=[100CH:0][100C:0](=O)N2CCCC(n3nc(-c4ccc(Oc5ccc(F)cc5F)cc4)c(C(N)=O)c3N)C2)cccc1NCC(=O)[101CH2:1][101O:1]c1ccc2c(c1)CN(C(=O)C(NC(=O)C(C)NC)C(C)(C)C)C(C(=O)NC1CCCc3ccccc31)C2

> <Shape>
0.265

> <Color>
0.080

> <Negative vol penalty>
0.000

$$$$

  -OEChem-04052304113D

 89 98  0     1  0  0  0  0  0999 V2000
  -28.2413  -37.9964   25.8847 C   0  0  0  0  0  0  0  0  0  0  0  0
  -28.8103  -36.7975   25.4672 C   0  0  0  0  0  0  0  0  0  0  0  0
  -24.2280   -9.3733   21.1373 C   0  0  0  0  0  0  0  0  0  0  0  0
  -24.8092  -10.2404   23.3162 C   0  0  0  0  0  0  0  0  0  0  0  0
  -26.8891  -38.0451   26.2210 C   0  0  0  0  0  0  0  0  0  0  0  0
  -28.0275  -35.6463   25.3867 C   0  0  0  0  0  0  0  0  0  0  0  0
  -30.2205  -20.7650   20.4352 C   0  0  0  0  0  0  0  0  0  0  0  0
  -28.5350  -31.1285   21.2833 C   0  0  0  0  0  0  0  0  0  0  0  0
  -30.1397  -19.3743   20.3641 C   0  0  0  0  0  0  0  0  0  0  0  0
  -23.8676   -8.1571   21.7174 C   0  0  0  0  0  0  0  0  0  0  0  0
  -24.4487   -9.0241   23.8963 C   0  0  0  0  0  0  0  0  0  0  0  0
  -29.1466  -29.8768   21.3372 C   0  0  0  0  0  0  0  0  0  0  0  0
  -21.2340   -6.8926   23.4198 C   0  0  0  0  0  0  0  0  0  0  0  0
  -20.0383   -6.3059   23.0055 C   0  0  0  0  0  0  0  0  0  0  0  0
  -28.0683  -20.8340   21.5309 C   0  0  0  0  0  0  0  0  0  0  0  0
  -27.0288  -28.8735   21.9095 C   0  0  0  0  0  0  0  0  0  0  0  0
  -21.2545   -4.3586   22.2533 C   0  0  0  0  0  0  0  0  0  0  0  0
  -24.6988  -10.4150   21.9367 C   0  0  0  0  0  0  0  0  0  0  0  0
  -24.2420  -12.7867   21.1158 C   0  0  0  0  0  0  0  0  0  0  0  0
  -29.1848  -21.4948   21.0187 C   0  0  0  0  0  0  0  0  0  0  0  0
  -26.0872  -36.8961   26.1354 C   0  0  0  0  0  0  0  0  0  0  0  0
  -27.1657  -31.2639   21.5533 C   0  0  0  0  0  0  0  0  0  0  0  0
  -26.6636  -35.6794   25.7235 C   0  0  0  0  0  0  0  0  0  0  0  0
  -26.4018  -30.1277   21.8559 C   0  0  0  0  0  0  0  0  0  0  0  0
  -27.9875  -19.4433   21.4597 C   0  0  0  0  0  0  0  0  0  0  0  0
  -29.0233  -18.7134   20.8763 C   0  0  0  0  0  0  0  0  0  0  0  0
  -23.9780   -7.9825   23.0969 C   0  0  0  0  0  0  0  0  0  0  0  0
  -28.3941  -28.7494   21.6532 C   0  0  0  0  0  0  0  0  0  0  0  0
  -22.4400   -6.2124   23.2507 C   0  0  0  0  0  0  0  0  0  0  0  0
  -20.0485   -5.0389   22.4223 C   0  0  0  0  0  0  0  0  0  0  0  0
  -22.4502   -4.9453   22.6675 C   0  0  0  0  0  0  0  0  0  0  0  0
  -25.0718  -11.6714   21.3380 C   0  0  0  0  0  0  0  0  0  0  0  0
  -25.0654  -13.7154   20.5275 C   0  0  0  0  0  0  0  0  0  0  0  0
  -22.8513  -12.9671   21.4144 C   0  0  0  0  0  0  0  0  0  0  0  0
  -25.4527  -32.8045   23.7432 C   0  0  0  0  0  0  0  0  0  0  0  0
  -22.9542  -31.7814   21.9451 C   0  0  0  0  0  0  0  0  0  0  0  0
  -21.7340  -29.5166   19.7026 C   0  0  0  0  0  0  0  0  0  0  0  0
  -29.9115  -16.4426   20.2433 C   0  0  0  0  0  0  0  0  0  0  0  0
  -24.6413  -36.9872   26.5548 C   0  0  0  0  0  0  0  0  0  0  0  0
  -26.5156  -32.6174   21.4648 C   0  0  0  0  0  0  0  0  0  0  0  0
  -24.9242  -30.2165   22.1341 C   0  0  0  0  0  0  0  0  0  0  0  0
  -23.7950  -35.8073   26.0836 C   0  0  0  0  0  0  0  0  0  0  0  0
  -29.7498  -13.2547   18.6658 C   0  0  0  0  0  0  0  0  0  0  0  0
  -30.7187  -23.4939   21.3437 C   0  0  0  0  0  0  0  0  0  0  0  0
  -24.5130  -34.4905   26.3617 C   0  0  0  0  0  0  0  0  0  0  0  0
  -28.4501  -12.6503   19.2021 C   0  0  0  0  0  0  0  0  0  0  0  0
  -30.7738  -24.9966   21.6152 C   0  0  0  0  0  0  0  0  0  0  0  0
  -28.7258  -25.3188   20.1595 C   0  0  0  0  0  0  0  0  0  0  0  0
  -30.4742  -14.0772   19.7300 C   0  0  0  0  0  0  0  0  0  0  0  0
  -28.3574  -14.5063   20.9150 C   0  0  0  0  0  0  0  0  0  0  0  0
  -29.2722  -23.0156   21.0942 C   0  0  1  0  0  0  0  0  0  0  0  0
  -25.8416  -34.4149   25.5996 C   0  0  1  0  0  0  0  0  0  0  0  0
  -25.2182  -32.7104   22.2621 C   0  0  1  0  0  0  0  0  0  0  0  0
  -27.5595  -13.7225   19.8602 C   0  0  2  0  0  0  0  0  0  0  0  0
  -28.5909  -23.7842   19.9092 C   0  0  0  0  0  0  0  0  0  0  0  0
  -30.1459  -25.8175   20.4825 C   0  0  1  0  0  0  0  0  0  0  0  0
  -26.7784  -18.7619   22.0139 C   0  0  0  0  0  0  0  0  0  0  0  0
  -29.1774  -23.4132   18.5306 C   0  0  0  0  0  0  0  0  0  0  0  0
  -27.0765  -23.4681   19.8577 C   0  0  0  0  0  0  0  0  0  0  0  0
  -19.6454  -28.9157   18.4481 C   0  0  0  0  0  0  0  0  0  0  0  0
  -21.7681  -30.5943   24.4935 C   0  0  0  0  0  0  0  0  0  0  0  0
  -20.2327  -29.2312   23.0609 C   0  0  0  0  0  0  0  0  0  0  0  0
  -20.1107  -31.7220   22.9983 C   0  0  0  0  0  0  0  0  0  0  0  0
  -23.0514  -29.9221   17.0836 C   0  0  0  0  0  0  0  0  0  0  0  0
  -32.2688  -26.1871   19.5445 C   0  0  0  0  0  0  0  0  0  0  0  0
  -30.1070  -27.3018   20.8617 C   0  0  0  0  0  0  0  0  0  1  0  0
  -22.0805  -30.5503   21.9310 C   0  0  1  0  0  0  0  0  0  0  0  0
  -20.9502  -29.6960   18.4150 C   0  0  2  0  0  0  0  0  0  0  0  0
  -21.0762  -30.5227   23.1176 C   0  0  0  0  0  0  0  0  0  0  0  0
  -26.3260  -11.8712   20.9245 N   0  0  0  0  0  0  0  0  0  0  0  0
  -26.2904  -13.1229   20.4364 N   0  0  0  0  0  0  0  0  0  0  0  0
  -24.3358  -31.5629   22.0415 N   0  0  0  0  0  0  0  0  0  0  0  0
  -29.5700  -15.0750   20.3059 N   0  0  0  0  0  0  0  0  0  0  0  0
  -24.8537  -14.9729   20.0844 N   0  0  0  0  0  0  0  0  0  0  0  0
  -22.1555  -11.9115   22.0193 N   0  0  0  0  0  0  0  0  0  0  0  0
  -28.9600  -17.3003   20.7944 N   0  0  0  0  0  0  0  0  0  0  0  0
  -25.6081  -34.0968   24.2073 N   0  0  0  0  0  0  0  0  0  0  0  0
  -21.4518  -30.5111   20.6151 N   0  0  0  0  0  0  0  0  0  0  0  0
  -21.7513  -29.2230   17.2507 N   0  3  0  0  0  0  0  0  0  0  0  0
  -22.2398  -14.0268   21.1377 O   0  0  0  0  0  0  0  0  0  0  0  0
  -25.4883  -31.7806   24.4155 O   0  0  0  0  0  0  0  0  0  0  0  0
  -22.4306  -32.8955   21.8662 O   0  0  0  0  0  0  0  0  0  0  0  0
  -22.5155  -28.5853   19.8824 O   0  0  0  0  0  0  0  0  0  0  0  0
  -30.9573  -16.8267   19.7136 O   0  0  0  0  0  0  0  0  0  0  0  0
  -23.6262   -6.7959   23.6633 O   0  0  0  0  0  0  0  0  0  0  0  0
  -28.9944  -27.5146   21.7076 O   0  0  0  0  0  0  0  0  0  1  0  0
  -30.9548  -25.7054   19.3112 O   0  0  0  0  0  0  0  0  0  0  0  0
  -18.9000   -4.4749   22.0259 F   0  0  0  0  0  0  0  0  0  0  0  0
  -23.6055   -4.2864   22.5036 F   0  0  0  0  0  0  0  0  0  0  0  0
  1  2  1  0  0  0  0
  1  5  2  0  0  0  0
  2  6  2  0  0  0  0
  3 10  2  0  0  0  0
  3 18  1  0  0  0  0
  4 11  1  0  0  0  0
  4 18  2  0  0  0  0
  5 21  1  0  0  0  0
  6 23  1  0  0  0  0
  7  9  2  0  0  0  0
  7 20  1  0  0  0  0
  8 12  2  0  0  0  0
  8 22  1  0  0  0  0
  9 26  1  0  0  0  0
 10 27  1  0  0  0  0
 11 27  2  0  0  0  0
 12 28  1  0  0  0  0
 13 14  2  0  0  0  0
 13 29  1  0  0  0  0
 14 30  1  0  0  0  0
 15 20  2  0  0  0  0
 15 25  1  0  0  0  0
 16 24  1  0  0  0  0
 16 28  2  0  0  0  0
 17 30  2  0  0  0  0
 17 31  1  0  0  0  0
 18 32  1  0  0  0  0
 19 32  1  0  0  0  0
 19 33  2  0  0  0  0
 19 34  1  0  0  0  0
 20 51  1  0  0  0  0
 21 23  2  0  0  0  0
 21 39  1  0  0  0  0
 22 24  2  0  0  0  0
 22 40  1  0  0  0  0
 23 52  1  0  0  0  0
 24 41  1  0  0  0  0
 25 26  2  0  0  0  0
 25 57  1  0  0  0  0
 26 76  1  0  0  0  0
 27 85  1  0  0  0  0
 28 86  1  0  0  0  0
 29 31  2  0  0  0  0
 29 85  1  0  0  0  0
 30 88  1  0  0  0  0
 31 89  1  0  0  0  0
 32 70  2  0  0  0  0
 33 71  1  0  0  0  0
 33 74  1  0  0  0  0
 34 75  1  0  0  0  0
 34 80  2  0  0  0  0
 35 53  1  0  0  0  0
 35 77  1  0  0  0  0
 35 81  2  0  0  0  0
 36 67  1  0  0  0  0
 36 72  1  0  0  0  0
 36 82  2  0  0  0  0
 37 68  1  0  0  0  0
 37 78  1  0  0  0  0
 37 83  2  0  0  0  0
 38 73  1  0  0  0  0
 38 76  1  0  0  0  0
 38 84  2  0  0  0  0
 39 42  1  0  0  0  0
 40 53  1  0  0  0  0
 41 72  1  0  0  0  0
 42 45  1  0  0  0  0
 43 46  1  0  0  0  0
 43 49  1  0  0  0  0
 44 47  1  0  0  0  0
 44 51  1  0  0  0  0
 45 52  1  0  0  0  0
 46 54  1  0  0  0  0
 47 56  1  0  0  0  0
 48 55  1  0  0  0  0
 48 56  1  0  0  0  0
 49 73  1  0  0  0  0
 50 54  1  0  0  0  0
 50 73  1  0  0  0  0
 51 55  1  0  0  0  0
 52 77  1  0  0  0  0
 53 72  1  0  0  0  0
 54 71  1  0  0  0  0
 55 58  1  0  0  0  0
 55 59  1  0  0  0  0
 56 66  1  0  0  0  0
 56 87  1  0  0  0  0
 60 68  1  0  0  0  0
 61 69  1  0  0  0  0
 62 69  1  0  0  0  0
 63 69  1  0  0  0  0
 64 79  1  0  0  0  0
 65 87  1  0  0  0  0
 66 86  1  0  0  0  0
 67 69  1  0  0  0  0
 67 78  1  0  0  0  0
 68 79  1  0  0  0  0
 70 71  1  0  0  0  0
M  CHG  1  79   1
M  ISO  4  38 100  66 101  76 100  86 101
M  END
> <Batch ID>
0167

> <Smiles>
CNC(C)C(=O)NC(C(=O)N1Cc2cc([101O:1][101CH2:1]C3(OC)CCC(c4ccc([100NH:0][100C:0](=O)N5CCCC(n6nc(-c7ccc(Oc8ccc(F)cc8F)cc7)c(C(N)=O)c6N)C5)c(C)c4)C(C)(C)C3)ccc2CC1C(=O)NC1CCCc2ccccc21)C(C)(C)C

> <Shape>
0.366

> <Color>
0.136

> <Negative vol penalty>
0.000

$$$$

  -OEChem-04052304113D

 84 92  0     1  0  0  0  0  0999 V2000
  -16.9425  -30.0985   24.7413 C   0  0  0  0  0  0  0  0  0  0  0  0
  -17.9797  -29.1734   24.8013 C   0  0  0  0  0  0  0  0  0  0  0  0
  -32.0519  -18.1390   23.4677 C   0  0  0  0  0  0  0  0  0  0  0  0
  -23.2803   -9.5916   19.9796 C   0  0  0  0  0  0  0  0  0  0  0  0
  -23.8237   -9.8805   22.3159 C   0  0  0  0  0  0  0  0  0  0  0  0
  -31.1417  -19.0233   24.0466 C   0  0  0  0  0  0  0  0  0  0  0  0
  -16.9287  -31.0644   23.7359 C   0  0  0  0  0  0  0  0  0  0  0  0
  -19.0033  -29.2129   23.8552 C   0  0  0  0  0  0  0  0  0  0  0  0
  -24.9103  -27.8759   24.7639 C   0  0  0  0  0  0  0  0  0  0  0  0
  -31.5998  -17.1315   22.6154 C   0  0  0  0  0  0  0  0  0  0  0  0
  -22.5817   -8.4239   20.2865 C   0  0  0  0  0  0  0  0  0  0  0  0
  -23.1251   -8.7129   22.6228 C   0  0  0  0  0  0  0  0  0  0  0  0
  -25.6610  -26.7276   24.5156 C   0  0  0  0  0  0  0  0  0  0  0  0
  -19.9044   -7.7725   23.0273 C   0  0  0  0  0  0  0  0  0  0  0  0
  -19.0460   -7.8025   24.1263 C   0  0  0  0  0  0  0  0  0  0  0  0
  -29.3273  -17.8926   22.9212 C   0  0  0  0  0  0  0  0  0  0  0  0
  -26.3840  -27.6624   22.4126 C   0  0  0  0  0  0  0  0  0  0  0  0
  -20.3199   -6.0345   25.1696 C   0  0  0  0  0  0  0  0  0  0  0  0
  -23.9013  -10.3199   20.9943 C   0  0  0  0  0  0  0  0  0  0  0  0
  -29.7794  -18.9002   23.7733 C   0  0  0  0  0  0  0  0  0  0  0  0
  -24.1119  -12.8366   20.6349 C   0  0  0  0  0  0  0  0  0  0  0  0
  -17.9576  -31.1219   22.7828 C   0  0  0  0  0  0  0  0  0  0  0  0
  -24.8820  -28.9232   23.8318 C   0  0  0  0  0  0  0  0  0  0  0  0
  -19.0026  -30.1796   22.8353 C   0  0  0  0  0  0  0  0  0  0  0  0
  -25.6341  -28.8239   22.6526 C   0  0  0  0  0  0  0  0  0  0  0  0
  -30.2375  -17.0083   22.3422 C   0  0  0  0  0  0  0  0  0  0  0  0
  -22.5041   -7.9845   21.6081 C   0  0  0  0  0  0  0  0  0  0  0  0
  -26.3957  -26.6195   23.3385 C   0  0  0  0  0  0  0  0  0  0  0  0
  -20.9705   -6.8734   22.9994 C   0  0  0  0  0  0  0  0  0  0  0  0
  -19.2538   -6.9336   25.1975 C   0  0  0  0  0  0  0  0  0  0  0  0
  -21.1783   -6.0044   24.0706 C   0  0  0  0  0  0  0  0  0  0  0  0
  -24.6235  -11.5258   20.6779 C   0  0  0  0  0  0  0  0  0  0  0  0
  -25.1896  -13.6147   20.2889 C   0  0  0  0  0  0  0  0  0  0  0  0
  -28.8151  -19.8363   24.3853 C   0  0  0  0  0  0  0  0  0  0  0  0
  -22.7815  -13.3087   20.8855 C   0  0  0  0  0  0  0  0  0  0  0  0
  -22.6180  -30.3099   22.0839 C   0  0  0  0  0  0  0  0  0  0  0  0
  -27.9795  -23.3083   23.6803 C   0  0  0  0  0  0  0  0  0  0  0  0
  -25.0168  -32.3476   21.2995 C   0  0  0  0  0  0  0  0  0  0  0  0
  -28.3720  -32.8931   20.9965 C   0  0  0  0  0  0  0  0  0  0  0  0
  -30.5497  -15.0252   20.8203 C   0  0  0  0  0  0  0  0  0  0  0  0
  -17.8748  -32.1544   21.6865 C   0  0  0  0  0  0  0  0  0  0  0  0
  -24.0884  -30.1664   24.1268 C   0  0  0  0  0  0  0  0  0  0  0  0
  -25.6535  -29.9286   21.6290 C   0  0  0  0  0  0  0  0  0  0  0  0
  -19.1931  -32.3631   20.9456 C   0  0  0  0  0  0  0  0  0  0  0  0
  -29.7945  -12.3163   18.6366 C   0  0  0  0  0  0  0  0  0  0  0  0
  -19.8204  -31.0206   20.5837 C   0  0  0  0  0  0  0  0  0  0  0  0
  -28.3398  -11.9770   18.9694 C   0  0  0  0  0  0  0  0  0  0  0  0
  -30.5807  -12.7248   19.8811 C   0  0  0  0  0  0  0  0  0  0  0  0
  -28.5171  -13.4604   21.0079 C   0  0  0  0  0  0  0  0  0  0  0  0
  -20.1438  -30.2058   21.8419 C   0  0  1  0  0  0  0  0  0  0  0  0
  -23.7232  -30.9539   22.8722 C   0  0  1  0  0  0  0  0  0  0  0  0
  -27.6682  -13.1057   19.7760 C   0  0  2  0  0  0  0  0  0  0  0  0
  -30.0278  -34.6435   20.2950 C   0  0  0  0  0  0  0  0  0  0  0  0
  -24.3742  -31.7786   18.3715 C   0  0  0  0  0  0  0  0  0  0  0  0
  -26.5957  -32.7612   17.7652 C   0  0  0  0  0  0  0  0  0  0  0  0
  -24.8717  -34.1754   18.8836 C   0  0  0  0  0  0  0  0  0  0  0  0
  -29.5993  -32.9768   23.6883 C   0  0  0  0  0  0  0  0  0  0  0  0
  -28.0410  -22.1650   24.6590 C   0  0  0  0  0  0  0  0  0  0  0  0
  -27.0999  -24.4742   24.0855 C   0  0  0  0  0  0  0  0  0  1  0  0
  -26.0698  -32.3938   20.2187 C   0  0  1  0  0  0  0  0  0  0  0  0
  -29.2513  -34.0421   21.4561 C   0  0  2  0  0  0  0  0  0  0  0  0
  -25.4762  -32.7555   18.8280 C   0  0  0  0  0  0  0  0  0  0  0  0
  -25.9249  -11.4704   20.3826 N   0  0  0  0  0  0  0  0  0  0  0  0
  -26.2402  -12.7560   20.1507 N   0  0  0  0  0  0  0  0  0  0  0  0
  -24.8565  -31.1214   21.9602 N   0  0  0  0  0  0  0  0  0  0  0  0
  -29.8867  -13.8009   20.5919 N   0  0  0  0  0  0  0  0  0  0  0  0
  -25.3315  -14.9427   20.0924 N   0  0  0  0  0  0  0  0  0  0  0  0
  -21.7948  -12.3747   21.2297 N   0  0  0  0  0  0  0  0  0  0  0  0
  -29.7791  -15.9846   21.4764 N   0  0  0  0  0  0  0  0  0  0  0  0
  -28.9378  -21.1511   24.1303 N   0  0  0  0  0  0  0  0  0  0  0  0
  -21.3501  -30.7018   22.4690 N   0  0  0  0  0  0  0  0  0  0  0  0
  -27.0967  -33.3175   20.6885 N   0  0  0  0  0  0  0  0  0  0  0  0
  -27.8622  -19.3328   25.1699 N   0  3  0  0  0  0  0  0  0  0  0  0
  -30.2265  -33.5708   22.4796 N   0  3  0  0  0  0  0  0  0  0  0  0
  -22.4729  -14.5209   20.7905 O   0  0  0  0  0  0  0  0  0  0  0  0
  -22.8950  -29.5173   21.1913 O   0  0  0  0  0  0  0  0  0  0  0  0
  -28.6001  -23.3035   22.6181 O   0  0  0  0  0  0  0  0  0  0  0  0
  -24.3656  -33.3641   21.5532 O   0  0  0  0  0  0  0  0  0  0  0  0
  -28.7772  -31.7357   20.9149 O   0  0  0  0  0  0  0  0  0  0  0  0
  -31.7060  -15.2186   20.4362 O   0  0  0  0  0  0  0  0  0  0  0  0
  -21.8224   -6.8453   21.9079 O   0  0  0  0  0  0  0  0  0  0  0  0
  -27.1289  -25.4996   23.0934 O   0  0  0  0  0  0  0  0  0  1  0  0
  -18.4303   -6.9636   26.2535 F   0  0  0  0  0  0  0  0  0  0  0  0
  -22.2015   -5.1393   24.0500 F   0  0  0  0  0  0  0  0  0  0  0  0
  1  2  1  0  0  0  0
  1  7  2  0  0  0  0
  2  8  2  0  0  0  0
  3  6  2  0  0  0  0
  3 10  1  0  0  0  0
  4 11  2  0  0  0  0
  4 19  1  0  0  0  0
  5 12  1  0  0  0  0
  5 19  2  0  0  0  0
  6 20  1  0  0  0  0
  7 22  1  0  0  0  0
  8 24  1  0  0  0  0
  9 13  2  0  0  0  0
  9 23  1  0  0  0  0
 10 26  2  0  0  0  0
 11 27  1  0  0  0  0
 12 27  2  0  0  0  0
 13 28  1  0  0  0  0
 14 15  2  0  0  0  0
 14 29  1  0  0  0  0
 15 30  1  0  0  0  0
 16 20  2  0  0  0  0
 16 26  1  0  0  0  0
 17 25  1  0  0  0  0
 17 28  2  0  0  0  0
 18 30  2  0  0  0  0
 18 31  1  0  0  0  0
 19 32  1  0  0  0  0
 20 34  1  0  0  0  0
 21 32  1  0  0  0  0
 21 33  2  0  0  0  0
 21 35  1  0  0  0  0
 22 24  2  0  0  0  0
 22 41  1  0  0  0  0
 23 25  2  0  0  0  0
 23 42  1  0  0  0  0
 24 50  1  0  0  0  0
 25 43  1  0  0  0  0
 26 69  1  0  0  0  0
 27 81  1  0  0  0  0
 28 82  1  0  0  0  0
 29 31  2  0  0  0  0
 29 81  1  0  0  0  0
 30 83  1  0  0  0  0
 31 84  1  0  0  0  0
 32 63  2  0  0  0  0
 33 64  1  0  0  0  0
 33 67  1  0  0  0  0
 34 70  1  0  0  0  0
 34 73  2  0  0  0  0
 35 68  1  0  0  0  0
 35 75  2  0  0  0  0
 36 51  1  0  0  0  0
 36 71  1  0  0  0  0
 36 76  2  0  0  0  0
 37 58  1  0  0  0  0
 37 59  1  0  0  0  0
 37 77  2  0  0  0  0
 38 60  1  0  0  0  0
 38 65  1  0  0  0  0
 38 78  2  0  0  0  0
 39 61  1  0  0  0  0
 39 72  1  0  0  0  0
 39 79  2  0  0  0  0
 40 66  1  0  0  0  0
 40 69  1  0  0  0  0
 40 80  2  0  0  0  0
 41 44  1  0  0  0  0
 42 51  1  0  0  0  0
 43 65  1  0  0  0  0
 44 46  1  0  0  0  0
 45 47  1  0  0  0  0
 45 48  1  0  0  0  0
 46 50  1  0  0  0  0
 47 52  1  0  0  0  0
 48 66  1  0  0  0  0
 49 52  1  0  0  0  0
 49 66  1  0  0  0  0
 50 71  1  0  0  0  0
 51 65  1  0  0  0  0
 52 64  1  0  0  0  0
 53 61  1  0  0  0  0
 54 62  1  0  0  0  0
 55 62  1  0  0  0  0
 56 62  1  0  0  0  0
 57 74  1  0  0  0  0
 58 70  1  0  0  0  0
 59 82  1  0  0  0  0
 60 62  1  0  0  0  0
 60 72  1  0  0  0  0
 61 74  1  0  0  0  0
 63 64  1  0  0  0  0
M  CHG  2  73   1  74   1
M  ISO  4  40 100  59 101  69 100  82 101
M  END
> <Batch ID>
0167

> <Smiles>
CNC(C)C(=O)NC(C(=O)N1Cc2cc([101O:1][101CH2:1]C(=O)CNC(=N)c3cccc([100NH:0][100C:0](=O)N4CCCC(n5nc(-c6ccc(Oc7ccc(F)cc7F)cc6)c(C(N)=O)c5N)C4)c3)ccc2CC1C(=O)NC1CCCc2ccccc21)C(C)(C)C

> <Shape>
0.261

> <Color>
0.183

> <Negative vol penalty>
0.000

$$$$

  -OEChem-04052304113D

 87 95  0     1  0  0  0  0  0999 V2000
  -17.4681  -26.2040   22.7374 C   0  0  0  0  0  0  0  0  0  0  0  0
  -18.7443  -25.7676   22.3967 C   0  0  0  0  0  0  0  0  0  0  0  0
  -20.0283  -14.4680   23.4653 C   0  0  0  0  0  0  0  0  0  0  0  0
  -22.0463  -13.4323   22.6333 C   0  0  0  0  0  0  0  0  0  0  0  0
  -17.1379  -27.5530   22.6140 C   0  0  0  0  0  0  0  0  0  0  0  0
  -19.6909  -26.6797   21.9315 C   0  0  0  0  0  0  0  0  0  0  0  0
  -25.7302  -26.5552   22.9401 C   0  0  0  0  0  0  0  0  0  0  0  0
  -19.2751  -13.7411   22.5434 C   0  0  0  0  0  0  0  0  0  0  0  0
  -21.2931  -12.7053   21.7114 C   0  0  0  0  0  0  0  0  0  0  0  0
  -26.8006  -26.1020   22.1703 C   0  0  0  0  0  0  0  0  0  0  0  0
  -19.3438   -9.9447   21.7145 C   0  0  0  0  0  0  0  0  0  0  0  0
  -19.6333   -8.5880   21.5696 C   0  0  0  0  0  0  0  0  0  0  0  0
  -27.1648  -28.3469   21.3661 C   0  0  0  0  0  0  0  0  0  0  0  0
  -28.8612  -19.9525   21.7233 C   0  0  0  0  0  0  0  0  0  0  0  0
  -29.0271  -17.5636   22.0429 C   0  0  0  0  0  0  0  0  0  0  0  0
  -20.1546   -8.9482   19.2382 C   0  0  0  0  0  0  0  0  0  0  0  0
  -21.4139  -14.3136   23.5102 C   0  0  0  0  0  0  0  0  0  0  0  0
  -22.5355  -14.6799   25.7720 C   0  0  0  0  0  0  0  0  0  0  0  0
  -18.0838  -28.4837   22.1561 C   0  0  0  0  0  0  0  0  0  0  0  0
  -25.3616  -27.9080   22.9203 C   0  0  0  0  0  0  0  0  0  0  0  0
  -19.3726  -28.0422   21.8006 C   0  0  0  0  0  0  0  0  0  0  0  0
  -26.0910  -28.8152   22.1386 C   0  0  0  0  0  0  0  0  0  0  0  0
  -30.5557  -18.6916   20.5504 C   0  0  0  0  0  0  0  0  0  0  0  0
  -28.4069  -18.7802   22.3273 C   0  0  0  0  0  0  0  0  0  0  0  0
  -29.9356  -19.9083   20.8347 C   0  0  0  0  0  0  0  0  0  0  0  0
  -19.9075  -12.8598   21.6665 C   0  0  0  0  0  0  0  0  0  0  0  0
  -27.5163  -26.9974   21.3809 C   0  0  0  0  0  0  0  0  0  0  0  0
  -19.4597  -10.8032   20.6212 C   0  0  0  0  0  0  0  0  0  0  0  0
  -20.0387   -8.0897   20.3315 C   0  0  0  0  0  0  0  0  0  0  0  0
  -30.1015  -17.5193   21.1545 C   0  0  0  0  0  0  0  0  0  0  0  0
  -19.8651  -10.3050   19.3831 C   0  0  0  0  0  0  0  0  0  0  0  0
  -22.1926  -15.0646   24.4619 C   0  0  0  0  0  0  0  0  0  0  0  0
  -23.2755  -15.7309   26.2559 C   0  0  0  0  0  0  0  0  0  0  0  0
  -22.2140  -13.4797   26.4874 C   0  0  0  0  0  0  0  0  0  0  0  0
  -30.5064  -23.4213   19.6846 C   0  0  0  0  0  0  0  0  0  0  0  0
  -30.0368  -24.8590   19.7916 C   0  0  0  0  0  0  0  0  0  0  0  0
  -22.7534  -29.5100   22.0632 C   0  0  0  0  0  0  0  0  0  0  0  0
  -24.3790  -32.0386   23.2820 C   0  0  0  0  0  0  0  0  0  0  0  0
  -27.3881  -33.4312   24.0899 C   0  0  0  0  0  0  0  0  0  0  0  0
  -26.5866  -19.9485   23.6188 C   0  0  0  0  0  0  0  0  0  0  0  0
  -17.6660  -29.9238   21.9946 C   0  0  0  0  0  0  0  0  0  0  0  0
  -24.2213  -28.3857   23.7770 C   0  0  0  0  0  0  0  0  0  0  0  0
  -25.7484  -30.2813   22.0978 C   0  0  0  0  0  0  0  0  0  0  0  0
  -18.8417  -30.8865   21.8494 C   0  0  0  0  0  0  0  0  0  0  0  0
  -23.8081  -20.4668   25.7841 C   0  0  0  0  0  0  0  0  0  0  0  0
  -19.8545  -30.3447   20.8457 C   0  0  0  0  0  0  0  0  0  0  0  0
  -23.1132  -19.1036   25.8148 C   0  0  0  0  0  0  0  0  0  0  0  0
  -24.3803  -20.7807   24.4029 C   0  0  0  0  0  0  0  0  0  0  0  0
  -24.5633  -18.3812   23.8751 C   0  0  0  0  0  0  0  0  0  0  0  0
  -20.4345  -29.0052   21.3157 C   0  0  1  0  0  0  0  0  0  0  0  0
  -23.6104  -29.6937   23.2836 C   0  0  1  0  0  0  0  0  0  0  0  0
  -24.0275  -17.9924   25.2627 C   0  0  2  0  0  0  0  0  0  0  0  0
  -31.2659  -18.7046   18.1458 C   0  0  0  0  0  0  0  0  0  0  0  0
  -28.3999  -35.5245   25.0343 C   0  0  0  0  0  0  0  0  0  0  0  0
  -23.9090  -33.4619   20.6243 C   0  0  0  0  0  0  0  0  0  0  0  0
  -25.7006  -35.0912   21.2597 C   0  0  0  0  0  0  0  0  0  0  0  0
  -23.6344  -34.9089   22.6454 C   0  0  0  0  0  0  0  0  0  0  0  0
  -28.5625  -31.9692   26.3796 C   0  0  0  0  0  0  0  0  0  0  0  0
  -31.7090  -18.6186   19.6029 C   0  0  0  0  0  0  0  0  0  0  0  0
  -29.7822  -22.3749   20.4917 C   0  0  0  0  0  0  0  0  0  0  0  0
  -28.8692  -25.1658   20.6947 C   0  0  0  0  0  0  0  0  0  1  0  0
  -25.3496  -33.0533   22.7276 C   0  0  1  0  0  0  0  0  0  0  0  0
  -27.8675  -34.1347   25.3468 C   0  0  2  0  0  0  0  0  0  0  0  0
  -24.6539  -34.1009   21.8133 C   0  0  0  0  0  0  0  0  0  0  0  0
  -22.6750  -16.2663   24.1345 N   0  0  0  0  0  0  0  0  0  0  0  0
  -23.3285  -16.6458   25.2458 N   0  0  0  0  0  0  0  0  0  0  0  0
  -24.6213  -30.6986   22.9481 N   0  0  0  0  0  0  0  0  0  0  0  0
  -25.2395  -19.6860   23.9463 N   0  0  0  0  0  0  0  0  0  0  0  0
  -23.8795  -15.9526   27.4427 N   0  0  0  0  0  0  0  0  0  0  0  0
  -21.4450  -12.5023   25.8412 N   0  0  0  0  0  0  0  0  0  0  0  0
  -27.3145  -18.8248   23.2286 N   0  0  0  0  0  0  0  0  0  0  0  0
  -30.3744  -21.0835   20.2439 N   0  0  0  0  0  0  0  0  0  0  0  0
  -21.4318  -29.2186   22.3424 N   0  0  0  0  0  0  0  0  0  0  0  0
  -26.0401  -33.6281   23.8770 N   0  0  0  0  0  0  0  0  0  0  0  0
  -28.9550  -33.3500   25.9969 N   0  3  0  0  0  0  0  0  0  0  0  0
  -22.5834  -13.2871   27.6706 O   0  0  0  0  0  0  0  0  0  0  0  0
  -31.4549  -23.1993   18.9424 O   0  0  0  0  0  0  0  0  0  0  0  0
  -30.6352  -25.6984   19.1312 O   0  0  0  0  0  0  0  0  0  0  0  0
  -23.2537  -29.6256   20.9505 O   0  0  0  0  0  0  0  0  0  0  0  0
  -23.4447  -32.4202   23.9912 O   0  0  0  0  0  0  0  0  0  0  0  0
  -28.1356  -32.7759   23.3672 O   0  0  0  0  0  0  0  0  0  0  0  0
  -27.0668  -21.0815   23.7060 O   0  0  0  0  0  0  0  0  0  0  0  0
  -19.1728  -12.1501   20.7669 O   0  0  0  0  0  0  0  0  0  0  0  0
  -28.5611  -26.5575   20.6281 O   0  0  0  0  0  0  0  0  0  1  0  0
  -20.3181   -6.7870   20.1928 F   0  0  0  0  0  0  0  0  0  0  0  0
  -30.6911  -16.3451   20.8887 F   0  0  0  0  0  0  0  0  0  0  0  0
  -19.9795  -11.1251   18.3294 F   0  0  0  0  0  0  0  0  0  0  0  0
  1  2  1  0  0  0  0
  1  5  2  0  0  0  0
  2  6  2  0  0  0  0
  3  8  2  0  0  0  0
  3 17  1  0  0  0  0
  4  9  1  0  0  0  0
  4 17  2  0  0  0  0
  5 19  1  0  0  0  0
  6 21  1  0  0  0  0
  7 10  2  0  0  0  0
  7 20  1  0  0  0  0
  8 26  1  0  0  0  0
  9 26  2  0  0  0  0
 10 27  1  0  0  0  0
 11 12  2  0  0  0  0
 11 28  1  0  0  0  0
 12 29  1  0  0  0  0
 13 22  1  0  0  0  0
 13 27  2  0  0  0  0
 14 24  2  0  0  0  0
 14 25  1  0  0  0  0
 15 24  1  0  0  0  0
 15 30  2  0  0  0  0
 16 29  2  0  0  0  0
 16 31  1  0  0  0  0
 17 32  1  0  0  0  0
 18 32  1  0  0  0  0
 18 33  2  0  0  0  0
 18 34  1  0  0  0  0
 19 21  2  0  0  0  0
 19 41  1  0  0  0  0
 20 22  2  0  0  0  0
 20 42  1  0  0  0  0
 21 50  1  0  0  0  0
 22 43  1  0  0  0  0
 23 25  2  0  0  0  0
 23 30  1  0  0  0  0
 23 59  1  0  0  0  0
 24 71  1  0  0  0  0
 25 72  1  0  0  0  0
 26 83  1  0  0  0  0
 27 84  1  0  0  0  0
 28 31  2  0  0  0  0
 28 83  1  0  0  0  0
 29 85  1  0  0  0  0
 30 86  1  0  0  0  0
 31 87  1  0  0  0  0
 32 65  2  0  0  0  0
 33 66  1  0  0  0  0
 33 69  1  0  0  0  0
 34 70  1  0  0  0  0
 34 76  2  0  0  0  0
 35 36  1  0  0  0  0
 35 60  1  0  0  0  0
 35 77  2  0  0  0  0
 36 61  1  0  0  0  0
 36 78  2  0  0  0  0
 37 51  1  0  0  0  0
 37 73  1  0  0  0  0
 37 79  2  0  0  0  0
 38 62  1  0  0  0  0
 38 67  1  0  0  0  0
 38 80  2  0  0  0  0
 39 63  1  0  0  0  0
 39 74  1  0  0  0  0
 39 81  2  0  0  0  0
 40 68  1  0  0  0  0
 40 71  1  0  0  0  0
 40 82  2  0  0  0  0
 41 44  1  0  0  0  0
 42 51  1  0  0  0  0
 43 67  1  0  0  0  0
 44 46  1  0  0  0  0
 45 47  1  0  0  0  0
 45 48  1  0  0  0  0
 46 50  1  0  0  0  0
 47 52  1  0  0  0  0
 48 68  1  0  0  0  0
 49 52  1  0  0  0  0
 49 68  1  0  0  0  0
 50 73  1  0  0  0  0
 51 67  1  0  0  0  0
 52 66  1  0  0  0  0
 53 59  1  0  0  0  0
 54 63  1  0  0  0  0
 55 64  1  0  0  0  0
 56 64  1  0  0  0  0
 57 64  1  0  0  0  0
 58 75  1  0  0  0  0
 60 72  1  0  0  0  0
 61 84  1  0  0  0  0
 62 64  1  0  0  0  0
 62 74  1  0  0  0  0
 63 75  1  0  0  0  0
 65 66  1  0  0  0  0
M  CHG  1  75   1
M  ISO  4  40 100  61 101  71 100  84 101
M  END
> <Batch ID>
0167

> <Smiles>
CCc1c(F)cc([100NH:0][100C:0](=O)N2CCCC(n3nc(-c4ccc(Oc5ccc(F)cc5F)cc4)c(C(N)=O)c3N)C2)cc1NCC(=O)C(=O)[101CH2:1][101O:1]c1ccc2c(c1)CN(C(=O)C(NC(=O)C(C)NC)C(C)(C)C)C(C(=O)NC1CCCc3ccccc31)C2

> <Shape>
0.216

> <Color>
0.080

> <Negative vol penalty>
0.000

$$$$

  -OEChem-04052304113D

 85 93  0     1  0  0  0  0  0999 V2000
  -25.7764  -21.6261   28.5037 C   0  0  0  0  0  0  0  0  0  0  0  0
  -26.6195  -22.4877   27.8092 C   0  0  0  0  0  0  0  0  0  0  0  0
  -27.0005  -12.6535   20.9616 C   0  0  0  0  0  0  0  0  0  0  0  0
  -26.4257  -13.3964   18.7356 C   0  0  0  0  0  0  0  0  0  0  0  0
  -24.5036  -21.3478   28.0073 C   0  0  0  0  0  0  0  0  0  0  0  0
  -26.1907  -23.0705   26.6173 C   0  0  0  0  0  0  0  0  0  0  0  0
  -27.5682  -28.6694   24.5529 C   0  0  0  0  0  0  0  0  0  0  0  0
  -30.3960  -22.2201   17.6372 C   0  0  0  0  0  0  0  0  0  0  0  0
  -26.2779  -11.4783   20.7560 C   0  0  0  0  0  0  0  0  0  0  0  0
  -25.7031  -12.2211   18.5300 C   0  0  0  0  0  0  0  0  0  0  0  0
  -28.5113  -29.1238   23.6322 C   0  0  0  0  0  0  0  0  0  0  0  0
  -24.2851   -8.4425   20.9468 C   0  0  0  0  0  0  0  0  0  0  0  0
  -30.8258  -23.1648   16.7054 C   0  0  0  0  0  0  0  0  0  0  0  0
  -23.4398   -8.0119   21.9693 C   0  0  0  0  0  0  0  0  0  0  0  0
  -26.8278  -29.0992   21.9046 C   0  0  0  0  0  0  0  0  0  0  0  0
  -28.7344  -23.7755   18.4478 C   0  0  0  0  0  0  0  0  0  0  0  0
  -22.1934  -10.0752   21.8079 C   0  0  0  0  0  0  0  0  0  0  0  0
  -27.0744  -13.6126   19.9514 C   0  0  0  0  0  0  0  0  0  0  0  0
  -29.1825  -15.0476   19.8850 C   0  0  0  0  0  0  0  0  0  0  0  0
  -24.0553  -21.9352   26.8136 C   0  0  0  0  0  0  0  0  0  0  0  0
  -26.2482  -28.4155   24.1533 C   0  0  0  0  0  0  0  0  0  0  0  0
  -24.9112  -22.7988   26.1037 C   0  0  0  0  0  0  0  0  0  0  0  0
  -25.8692  -28.6440   22.8228 C   0  0  0  0  0  0  0  0  0  0  0  0
  -29.1643  -24.7203   17.5160 C   0  0  0  0  0  0  0  0  0  0  0  0
  -29.3502  -22.5254   18.5084 C   0  0  0  0  0  0  0  0  0  0  0  0
  -25.6292  -11.2621   19.5402 C   0  0  0  0  0  0  0  0  0  0  0  0
  -28.1419  -29.3360   22.3072 C   0  0  0  0  0  0  0  0  0  0  0  0
  -24.0846   -9.6896   20.3548 C   0  0  0  0  0  0  0  0  0  0  0  0
  -22.3940   -8.8282   22.3999 C   0  0  0  0  0  0  0  0  0  0  0  0
  -30.2100  -24.4149   16.6448 C   0  0  0  0  0  0  0  0  0  0  0  0
  -23.0387  -10.5059   20.7854 C   0  0  0  0  0  0  0  0  0  0  0  0
  -27.8203  -14.8270   20.1633 C   0  0  0  0  0  0  0  0  0  0  0  0
  -29.4035  -16.3498   20.2616 C   0  0  0  0  0  0  0  0  0  0  0  0
  -30.1607  -14.1551   19.3350 C   0  0  0  0  0  0  0  0  0  0  0  0
  -24.3830  -25.8428   24.0769 C   0  0  0  0  0  0  0  0  0  0  0  0
  -22.1189  -27.9903   23.1914 C   0  0  0  0  0  0  0  0  0  0  0  0
  -29.2810  -27.4231   19.3886 C   0  0  0  0  0  0  0  0  0  0  0  0
  -21.3845  -31.0168   21.7957 C   0  0  0  0  0  0  0  0  0  0  0  0
  -27.8900  -21.7066   20.3909 C   0  0  0  0  0  0  0  0  0  0  0  0
  -22.6890  -21.5671   26.2919 C   0  0  0  0  0  0  0  0  0  0  0  0
  -25.2363  -27.9511   25.1646 C   0  0  0  0  0  0  0  0  0  0  0  0
  -24.4600  -28.4060   22.3476 C   0  0  0  0  0  0  0  0  0  0  0  0
  -22.1709  -22.5188   25.2166 C   0  0  0  0  0  0  0  0  0  0  0  0
  -26.4884  -19.5654   22.8662 C   0  0  0  0  0  0  0  0  0  0  0  0
  -23.2551  -22.7933   24.1794 C   0  0  0  0  0  0  0  0  0  0  0  0
  -26.8220  -18.1599   22.3608 C   0  0  0  0  0  0  0  0  0  0  0  0
  -26.1582  -20.5174   21.7181 C   0  0  0  0  0  0  0  0  0  0  0  0
  -27.5021  -19.1755   20.1488 C   0  0  0  0  0  0  0  0  0  0  0  0
  -24.4729  -23.4700   24.8201 C   0  0  1  0  0  0  0  0  0  0  0  0
  -24.0466  -27.2342   24.5336 C   0  0  1  0  0  0  0  0  0  0  0  0
  -27.9048  -18.1975   21.2646 C   0  0  2  0  0  0  0  0  0  0  0  0
  -19.4431  -32.4798   21.1729 C   0  0  0  0  0  0  0  0  0  0  0  0
  -31.4504  -29.7493   21.5765 C   0  0  0  0  0  0  0  0  0  0  0  0
  -21.5625  -26.2174   20.7712 C   0  0  0  0  0  0  0  0  0  0  0  0
  -20.3481  -28.1422   19.7278 C   0  0  0  0  0  0  0  0  0  0  0  0
  -19.5207  -27.1591   21.8660 C   0  0  0  0  0  0  0  0  0  0  0  0
  -22.2808  -33.1768   23.6095 C   0  0  0  0  0  0  0  0  0  0  0  0
  -28.4992  -26.0648   17.4517 C   0  0  0  0  0  0  0  0  0  0  0  0
  -30.2469  -28.5520   19.7180 C   0  0  0  0  0  0  0  0  0  0  0  0
  -21.6321  -28.5497   21.8764 C   0  0  1  0  0  0  0  0  0  0  0  0
  -20.4645  -32.1371   22.2462 C   0  0  2  0  0  0  0  0  0  0  0  0
  -30.2076  -28.9577   21.1911 C   0  0  2  0  0  0  0  0  0  1  0  0
  -20.7929  -27.5198   21.0686 C   0  0  0  0  0  0  0  0  0  0  0  0
  -27.2183  -15.9029   20.6773 N   0  0  0  0  0  0  0  0  0  0  0  0
  -28.2069  -16.8120   20.7250 N   0  0  0  0  0  0  0  0  0  0  0  0
  -23.5085  -27.9462   23.3727 N   0  0  0  0  0  0  0  0  0  0  0  0
  -27.2302  -20.5038   20.7203 N   0  0  0  0  0  0  0  0  0  0  0  0
  -30.5027  -17.1331   20.2384 N   0  0  0  0  0  0  0  0  0  0  0  0
  -29.7648  -12.8523   19.0033 N   0  0  0  0  0  0  0  0  0  0  0  0
  -28.9134  -21.5650   19.4542 N   0  0  0  0  0  0  0  0  0  0  0  0
  -24.2092  -24.8747   25.0475 N   0  0  0  0  0  0  0  0  0  0  0  0
  -29.3170  -27.1013   18.0393 N   0  0  0  0  0  0  0  0  0  0  0  0
  -20.9194  -29.7819   22.1958 N   0  0  0  0  0  0  0  0  0  0  0  0
  -21.2535  -33.3636   22.5528 N   0  3  0  0  0  0  0  0  0  0  0  0
  -31.3545  -14.4977   19.1588 O   0  0  0  0  0  0  0  0  0  0  0  0
  -24.7702  -25.6608   22.9286 O   0  0  0  0  0  0  0  0  0  0  0  0
  -21.2963  -27.6132   24.0297 O   0  0  0  0  0  0  0  0  0  0  0  0
  -28.5676  -26.8798   20.2273 O   0  0  0  0  0  0  0  0  0  0  0  0
  -22.4110  -31.2168   21.1501 O   0  0  0  0  0  0  0  0  0  0  0  0
  -27.5889  -22.7786   20.9222 O   0  0  0  0  0  0  0  0  0  0  0  0
  -24.9242  -10.1154   19.3392 O   0  0  0  0  0  0  0  0  0  0  0  0
  -29.0607  -29.7790   21.4063 O   0  0  0  0  0  0  0  0  0  1  0  0
  -21.5814   -8.4139   23.3808 F   0  0  0  0  0  0  0  0  0  0  0  0
  -30.6309  -25.3166   15.7468 F   0  0  0  0  0  0  0  0  0  0  0  0
  -22.8403  -11.7044   20.2197 F   0  0  0  0  0  0  0  0  0  0  0  0
  1  2  1  0  0  0  0
  1  5  2  0  0  0  0
  2  6  2  0  0  0  0
  3  9  2  0  0  0  0
  3 18  1  0  0  0  0
  4 10  1  0  0  0  0
  4 18  2  0  0  0  0
  5 20  1  0  0  0  0
  6 22  1  0  0  0  0
  7 11  2  0  0  0  0
  7 21  1  0  0  0  0
  8 13  2  0  0  0  0
  8 25  1  0  0  0  0
  9 26  1  0  0  0  0
 10 26  2  0  0  0  0
 11 27  1  0  0  0  0
 12 14  2  0  0  0  0
 12 28  1  0  0  0  0
 13 30  1  0  0  0  0
 14 29  1  0  0  0  0
 15 23  1  0  0  0  0
 15 27  2  0  0  0  0
 16 24  1  0  0  0  0
 16 25  2  0  0  0  0
 17 29  2  0  0  0  0
 17 31  1  0  0  0  0
 18 32  1  0  0  0  0
 19 32  1  0  0  0  0
 19 33  2  0  0  0  0
 19 34  1  0  0  0  0
 20 22  2  0  0  0  0
 20 40  1  0  0  0  0
 21 23  2  0  0  0  0
 21 41  1  0  0  0  0
 22 49  1  0  0  0  0
 23 42  1  0  0  0  0
 24 30  2  0  0  0  0
 24 58  1  0  0  0  0
 25 70  1  0  0  0  0
 26 81  1  0  0  0  0
 27 82  1  0  0  0  0
 28 31  2  0  0  0  0
 28 81  1  0  0  0  0
 29 83  1  0  0  0  0
 30 84  1  0  0  0  0
 31 85  1  0  0  0  0
 32 64  2  0  0  0  0
 33 65  1  0  0  0  0
 33 68  1  0  0  0  0
 34 69  1  0  0  0  0
 34 75  2  0  0  0  0
 35 50  1  0  0  0  0
 35 71  1  0  0  0  0
 35 76  2  0  0  0  0
 36 60  1  0  0  0  0
 36 66  1  0  0  0  0
 36 77  2  0  0  0  0
 37 59  1  0  0  0  0
 37 72  1  0  0  0  0
 37 78  2  0  0  0  0
 38 61  1  0  0  0  0
 38 73  1  0  0  0  0
 38 79  2  0  0  0  0
 39 67  1  0  0  0  0
 39 70  1  0  0  0  0
 39 80  2  0  0  0  0
 40 43  1  0  0  0  0
 41 50  1  0  0  0  0
 42 66  1  0  0  0  0
 43 45  1  0  0  0  0
 44 46  1  0  0  0  0
 44 47  1  0  0  0  0
 45 49  1  0  0  0  0
 46 51  1  0  0  0  0
 47 67  1  0  0  0  0
 48 51  1  0  0  0  0
 48 67  1  0  0  0  0
 49 71  1  0  0  0  0
 50 66  1  0  0  0  0
 51 65  1  0  0  0  0
 52 61  1  0  0  0  0
 53 62  1  0  0  0  0
 54 63  1  0  0  0  0
 55 63  1  0  0  0  0
 56 63  1  0  0  0  0
 57 74  1  0  0  0  0
 58 72  1  0  0  0  0
 59 62  1  0  0  0  0
 60 63  1  0  0  0  0
 60 73  1  0  0  0  0
 61 74  1  0  0  0  0
 62 82  1  0  0  0  0
 64 65  1  0  0  0  0
M  CHG  1  74   1
M  ISO  4  39 100  62 101  70 100  82 101
M  END
> <Batch ID>
0167

> <Smiles>
CNC(C)C(=O)NC(C(=O)N1Cc2cc([101O:1][101CH:1](C)CC(=O)NCc3cc([100NH:0][100C:0](=O)N4CCCC(n5nc(-c6ccc(Oc7ccc(F)cc7F)cc6)c(C(N)=O)c5N)C4)ccc3F)ccc2CC1C(=O)NC1CCCc2ccccc21)C(C)(C)C

> <Shape>
0.234

> <Color>
0.070

> <Negative vol penalty>
0.000

$$$$

  -OEChem-04052304113D

 89 97  0     1  0  0  0  0  0999 V2000
  -15.1698  -27.5810   21.5899 C   0  0  0  0  0  0  0  0  0  0  0  0
  -16.1328  -26.5798   21.5143 C   0  0  0  0  0  0  0  0  0  0  0  0
  -32.4428  -18.4671   22.1189 C   0  0  0  0  0  0  0  0  0  0  0  0
  -23.1391   -9.8205   21.2032 C   0  0  0  0  0  0  0  0  0  0  0  0
  -23.8789  -10.5730   23.3765 C   0  0  0  0  0  0  0  0  0  0  0  0
  -31.6140  -19.5000   22.5569 C   0  0  0  0  0  0  0  0  0  0  0  0
  -15.4611  -28.7791   22.2408 C   0  0  0  0  0  0  0  0  0  0  0  0
  -17.3881  -26.7766   22.0887 C   0  0  0  0  0  0  0  0  0  0  0  0
  -20.9087  -22.5498   24.7805 C   0  0  0  0  0  0  0  0  0  0  0  0
  -31.8881  -17.3254   21.5405 C   0  0  0  0  0  0  0  0  0  0  0  0
  -22.4297   -8.7809   21.8046 C   0  0  0  0  0  0  0  0  0  0  0  0
  -23.1695   -9.5334   23.9779 C   0  0  0  0  0  0  0  0  0  0  0  0
  -21.9968  -21.8068   24.3247 C   0  0  0  0  0  0  0  0  0  0  0  0
  -20.7159   -5.7142   22.7438 C   0  0  0  0  0  0  0  0  0  0  0  0
  -20.8194   -4.4438   22.1775 C   0  0  0  0  0  0  0  0  0  0  0  0
  -23.5002  -23.4197   25.3032 C   0  0  0  0  0  0  0  0  0  0  0  0
  -23.2054   -4.4692   22.5567 C   0  0  0  0  0  0  0  0  0  0  0  0
  -23.8638  -10.7165   21.9891 C   0  0  0  0  0  0  0  0  0  0  0  0
  -30.2305  -19.3913   22.4166 C   0  0  0  0  0  0  0  0  0  0  0  0
  -24.1271  -13.0855   21.0802 C   0  0  0  0  0  0  0  0  0  0  0  0
  -16.7174  -28.9869   22.8318 C   0  0  0  0  0  0  0  0  0  0  0  0
  -21.1085  -23.7410   25.4928 C   0  0  0  0  0  0  0  0  0  0  0  0
  -17.6970  -27.9791   22.7469 C   0  0  0  0  0  0  0  0  0  0  0  0
  -22.4130  -24.1746   25.7691 C   0  0  0  0  0  0  0  0  0  0  0  0
  -30.5046  -17.2167   21.4002 C   0  0  0  0  0  0  0  0  0  0  0  0
  -22.4449   -8.6374   23.1919 C   0  0  0  0  0  0  0  0  0  0  0  0
  -23.2928  -22.2432   24.5835 C   0  0  0  0  0  0  0  0  0  0  0  0
  -21.8571   -6.3623   23.2165 C   0  0  0  0  0  0  0  0  0  0  0  0
  -22.0642   -3.8212   22.0840 C   0  0  0  0  0  0  0  0  0  0  0  0
  -23.1018   -5.7397   23.1230 C   0  0  0  0  0  0  0  0  0  0  0  0
  -29.6758  -18.2496   21.8382 C   0  0  0  0  0  0  0  0  0  0  0  0
  -24.5972  -11.7902   21.3684 C   0  0  0  0  0  0  0  0  0  0  0  0
  -25.1982  -13.7177   20.4975 C   0  0  0  0  0  0  0  0  0  0  0  0
  -29.3560  -20.4870   22.8806 C   0  0  0  0  0  0  0  0  0  0  0  0
  -22.8376  -13.6653   21.3179 C   0  0  0  0  0  0  0  0  0  0  0  0
  -20.3649  -26.7938   25.0119 C   0  0  0  0  0  0  0  0  0  0  0  0
  -26.3406  -21.5265   22.7511 C   0  0  0  0  0  0  0  0  0  0  0  0
  -21.5483  -27.1503   28.0110 C   0  0  0  0  0  0  0  0  0  0  0  0
  -23.5846  -25.9685   30.4816 C   0  0  0  0  0  0  0  0  0  0  0  0
  -30.6272  -14.9421   20.3243 C   0  0  0  0  0  0  0  0  0  0  0  0
  -17.0019  -30.3169   23.4835 C   0  0  0  0  0  0  0  0  0  0  0  0
  -19.9242  -24.5170   26.0007 C   0  0  0  0  0  0  0  0  0  0  0  0
  -22.6813  -25.4360   26.5471 C   0  0  0  0  0  0  0  0  0  0  0  0
  -18.2291  -30.3003   24.3913 C   0  0  0  0  0  0  0  0  0  0  0  0
  -29.6092  -11.8711   18.8377 C   0  0  0  0  0  0  0  0  0  0  0  0
  -19.3974  -29.6075   23.6969 C   0  0  0  0  0  0  0  0  0  0  0  0
  -28.1759  -11.6828   19.3399 C   0  0  0  0  0  0  0  0  0  0  0  0
  -30.5065  -12.4958   19.9047 C   0  0  0  0  0  0  0  0  0  0  0  0
  -28.5661  -13.5555   20.9914 C   0  0  0  0  0  0  0  0  0  0  0  0
  -19.0618  -28.1454   23.3791 C   0  0  1  0  0  0  0  0  0  0  0  0
  -20.2428  -25.9841   26.2717 C   0  0  1  0  0  0  0  0  0  0  0  0
  -27.6092  -12.9892   19.9297 C   0  0  2  0  0  0  0  0  0  0  0  0
  -24.3729  -26.4953   32.8050 C   0  0  0  0  0  0  0  0  0  0  0  0
  -23.3845  -29.3162   26.8943 C   0  0  0  0  0  0  0  0  0  0  0  0
  -24.7608  -29.1254   28.9770 C   0  0  0  0  0  0  0  0  0  0  0  0
  -22.3776  -29.8482   29.1208 C   0  0  0  0  0  0  0  0  0  0  0  0
  -22.4611  -23.4511   31.5584 C   0  0  0  0  0  0  0  0  0  0  0  0
  -25.5480  -22.2418   23.8284 C   0  0  0  0  0  0  0  0  0  1  0  0
  -27.6424  -22.1768   22.3284 C   0  0  2  0  0  0  0  0  0  0  0  0
  -22.9109  -27.4332   28.5961 C   0  0  1  0  0  0  0  0  0  0  0  0
  -23.3467  -25.7509   31.9650 C   0  0  2  0  0  0  0  0  0  0  0  0
  -23.3537  -28.9080   28.3807 C   0  0  0  0  0  0  0  0  0  0  0  0
  -27.4650  -23.0652   21.1208 C   0  0  0  0  0  0  0  0  0  0  0  0
  -25.8680  -11.6088   20.9992 N   0  0  0  0  0  0  0  0  0  0  0  0
  -26.2054  -12.7984   20.4729 N   0  0  0  0  0  0  0  0  0  0  0  0
  -21.4905  -26.1632   27.0170 N   0  0  0  0  0  0  0  0  0  0  0  0
  -29.9081  -13.7315   20.4143 N   0  0  0  0  0  0  0  0  0  0  0  0
  -25.3674  -14.9647   20.0090 N   0  0  0  0  0  0  0  0  0  0  0  0
  -21.8519  -12.8760   21.9259 N   0  0  0  0  0  0  0  0  0  0  0  0
  -29.9442  -16.0560   20.8114 N   0  0  0  0  0  0  0  0  0  0  0  0
  -28.5619  -21.0957   21.9874 N   0  0  0  0  0  0  0  0  0  0  0  0
  -19.1708  -27.3313   24.5706 N   0  0  0  0  0  0  0  0  0  0  0  0
  -22.8465  -27.0270   29.9958 N   0  0  0  0  0  0  0  0  0  0  0  0
  -29.3994  -20.8221   24.1702 N   0  3  0  0  0  0  0  0  0  0  0  0
  -23.4316  -24.3003   32.2960 N   0  3  0  0  0  0  0  0  0  0  0  0
  -22.5623  -14.8432   20.9856 O   0  0  0  0  0  0  0  0  0  0  0  0
  -21.4615  -26.9228   24.4804 O   0  0  0  0  0  0  0  0  0  0  0  0
  -25.9367  -20.4812   22.2409 O   0  0  0  0  0  0  0  0  0  0  0  0
  -20.5700  -27.7768   28.4260 O   0  0  0  0  0  0  0  0  0  0  0  0
  -24.3515  -25.2716   29.8207 O   0  0  0  0  0  0  0  0  0  0  0  0
  -31.7544  -14.9917   19.8253 O   0  0  0  0  0  0  0  0  0  0  0  0
  -21.7526   -7.6233   23.7792 O   0  0  0  0  0  0  0  0  0  0  0  0
  -24.3567  -21.5203   24.1392 O   0  0  0  0  0  0  0  0  0  1  0  0
  -22.1632   -2.6005   21.5416 F   0  0  0  0  0  0  0  0  0  0  0  0
  -24.2015   -6.3568   23.5765 F   0  0  0  0  0  0  0  0  0  0  0  0
  -28.3448  -18.1467   21.7036 F   0  0  0  0  0  0  0  0  0  0  0  0
  -28.6438  -23.5823   20.7123 F   0  0  0  0  0  0  0  0  0  0  0  0
  -26.6274  -24.0934   21.3746 F   0  0  0  0  0  0  0  0  0  0  0  0
  -26.9537  -22.3651   20.0830 F   0  0  0  0  0  0  0  0  0  0  0  0
  1  2  1  0  0  0  0
  1  7  2  0  0  0  0
  2  8  2  0  0  0  0
  3  6  2  0  0  0  0
  3 10  1  0  0  0  0
  4 11  2  0  0  0  0
  4 18  1  0  0  0  0
  5 12  1  0  0  0  0
  5 18  2  0  0  0  0
  6 19  1  0  0  0  0
  7 21  1  0  0  0  0
  8 23  1  0  0  0  0
  9 13  2  0  0  0  0
  9 22  1  0  0  0  0
 10 25  2  0  0  0  0
 11 26  1  0  0  0  0
 12 26  2  0  0  0  0
 13 27  1  0  0  0  0
 14 15  2  0  0  0  0
 14 28  1  0  0  0  0
 15 29  1  0  0  0  0
 16 24  1  0  0  0  0
 16 27  2  0  0  0  0
 17 29  2  0  0  0  0
 17 30  1  0  0  0  0
 18 32  1  0  0  0  0
 19 31  2  0  0  0  0
 19 34  1  0  0  0  0
 20 32  1  0  0  0  0
 20 33  2  0  0  0  0
 20 35  1  0  0  0  0
 21 23  2  0  0  0  0
 21 41  1  0  0  0  0
 22 24  2  0  0  0  0
 22 42  1  0  0  0  0
 23 50  1  0  0  0  0
 24 43  1  0  0  0  0
 25 31  1  0  0  0  0
 25 70  1  0  0  0  0
 26 82  1  0  0  0  0
 27 83  1  0  0  0  0
 28 30  2  0  0  0  0
 28 82  1  0  0  0  0
 29 84  1  0  0  0  0
 30 85  1  0  0  0  0
 31 86  1  0  0  0  0
 32 64  2  0  0  0  0
 33 65  1  0  0  0  0
 33 68  1  0  0  0  0
 34 71  1  0  0  0  0
 34 74  2  0  0  0  0
 35 69  1  0  0  0  0
 35 76  2  0  0  0  0
 36 51  1  0  0  0  0
 36 72  1  0  0  0  0
 36 77  2  0  0  0  0
 37 58  1  0  0  0  0
 37 59  1  0  0  0  0
 37 78  2  0  0  0  0
 38 60  1  0  0  0  0
 38 66  1  0  0  0  0
 38 79  2  0  0  0  0
 39 61  1  0  0  0  0
 39 73  1  0  0  0  0
 39 80  2  0  0  0  0
 40 67  1  0  0  0  0
 40 70  1  0  0  0  0
 40 81  2  0  0  0  0
 41 44  1  0  0  0  0
 42 51  1  0  0  0  0
 43 66  1  0  0  0  0
 44 46  1  0  0  0  0
 45 47  1  0  0  0  0
 45 48  1  0  0  0  0
 46 50  1  0  0  0  0
 47 52  1  0  0  0  0
 48 67  1  0  0  0  0
 49 52  1  0  0  0  0
 49 67  1  0  0  0  0
 50 72  1  0  0  0  0
 51 66  1  0  0  0  0
 52 65  1  0  0  0  0
 53 61  1  0  0  0  0
 54 62  1  0  0  0  0
 55 62  1  0  0  0  0
 56 62  1  0  0  0  0
 57 75  1  0  0  0  0
 58 83  1  0  0  0  0
 59 63  1  0  0  0  0
 59 71  1  0  0  0  0
 60 62  1  0  0  0  0
 60 73  1  0  0  0  0
 61 75  1  0  0  0  0
 63 87  1  0  0  0  0
 63 88  1  0  0  0  0
 63 89  1  0  0  0  0
 64 65  1  0  0  0  0
M  CHG  2  74   1  75   1
M  ISO  4  40 100  58 101  70 100  83 101
M  END
> <Batch ID>
0167

> <Smiles>
CNC(C)C(=O)NC(C(=O)N1Cc2cc([101O:1][101CH2:1]C(=O)C(NC(=N)c3cccc([100NH:0][100C:0](=O)N4CCCC(n5nc(-c6ccc(Oc7ccc(F)cc7F)cc6)c(C(N)=O)c5N)C4)c3F)C(F)(F)F)ccc2CC1C(=O)NC1CCCc2ccccc21)C(C)(C)C

> <Shape>
0.235

> <Color>
0.168

> <Negative vol penalty>
0.000

$$$$

  -OEChem-04052304113D

 85 93  0     1  0  0  0  0  0999 V2000
  -29.4434  -23.3902   17.5967 C   0  0  0  0  0  0  0  0  0  0  0  0
  -28.1319  -23.8033   17.8081 C   0  0  0  0  0  0  0  0  0  0  0  0
  -26.4080  -15.2283   19.7588 C   0  0  0  0  0  0  0  0  0  0  0  0
  -27.8009  -14.7105   21.6638 C   0  0  0  0  0  0  0  0  0  0  0  0
  -30.3963  -23.5580   18.6006 C   0  0  0  0  0  0  0  0  0  0  0  0
  -27.7723  -24.3836   19.0240 C   0  0  0  0  0  0  0  0  0  0  0  0
  -24.8922  -28.5066   18.4324 C   0  0  0  0  0  0  0  0  0  0  0  0
  -26.0134  -13.8925   19.6843 C   0  0  0  0  0  0  0  0  0  0  0  0
  -27.4063  -13.3747   21.5893 C   0  0  0  0  0  0  0  0  0  0  0  0
  -23.5444  -28.3050   18.1382 C   0  0  0  0  0  0  0  0  0  0  0  0
  -24.3599  -10.6892   19.2157 C   0  0  0  0  0  0  0  0  0  0  0  0
  -23.0039  -10.4232   19.0260 C   0  0  0  0  0  0  0  0  0  0  0  0
  -22.9866  -28.6998   20.4517 C   0  0  0  0  0  0  0  0  0  0  0  0
  -22.7616  -22.6370   22.2130 C   0  0  0  0  0  0  0  0  0  0  0  0
  -23.9590  -24.2415   23.5653 C   0  0  0  0  0  0  0  0  0  0  0  0
  -22.1897  -24.9815   22.0959 C   0  0  0  0  0  0  0  0  0  0  0  0
  -22.4897  -11.5755   21.0863 C   0  0  0  0  0  0  0  0  0  0  0  0
  -27.3018  -15.6373   20.7486 C   0  0  0  0  0  0  0  0  0  0  0  0
  -28.3729  -17.7641   19.8335 C   0  0  0  0  0  0  0  0  0  0  0  0
  -30.0504  -24.1495   19.8258 C   0  0  0  0  0  0  0  0  0  0  0  0
  -25.2992  -28.7962   19.7427 C   0  0  0  0  0  0  0  0  0  0  0  0
  -28.7212  -24.5583   20.0457 C   0  0  0  0  0  0  0  0  0  0  0  0
  -24.3399  -28.9073   20.7594 C   0  0  0  0  0  0  0  0  0  0  0  0
  -23.7505  -22.9252   23.1536 C   0  0  0  0  0  0  0  0  0  0  0  0
  -21.9812  -23.6652   21.6841 C   0  0  0  0  0  0  0  0  0  0  0  0
  -26.5125  -12.9657   20.5995 C   0  0  0  0  0  0  0  0  0  0  0  0
  -22.5917  -28.3987   19.1485 C   0  0  0  0  0  0  0  0  0  0  0  0
  -24.7809  -11.3983   20.3407 C   0  0  0  0  0  0  0  0  0  0  0  0
  -22.0688  -10.8664   19.9613 C   0  0  0  0  0  0  0  0  0  0  0  0
  -23.1786  -25.2697   23.0364 C   0  0  0  0  0  0  0  0  0  0  0  0
  -23.8458  -11.8415   21.2760 C   0  0  0  0  0  0  0  0  0  0  0  0
  -27.7103  -17.0169   20.8258 C   0  0  0  0  0  0  0  0  0  0  0  0
  -28.5331  -19.0091   20.3910 C   0  0  0  0  0  0  0  0  0  0  0  0
  -28.8048  -17.3681   18.5249 C   0  0  0  0  0  0  0  0  0  0  0  0
  -27.1676  -27.3650   21.8792 C   0  0  0  0  0  0  0  0  0  0  0  0
  -20.8870  -25.0863   19.0361 C   0  0  0  0  0  0  0  0  0  0  0  0
  -26.6463  -30.0799   23.5761 C   0  0  0  0  0  0  0  0  0  0  0  0
  -24.6506  -32.7820   24.1781 C   0  0  0  0  0  0  0  0  0  0  0  0
  -25.5664  -21.9957   24.6317 C   0  0  0  0  0  0  0  0  0  0  0  0
  -31.1042  -24.2668   20.8984 C   0  0  0  0  0  0  0  0  0  0  0  0
  -26.7541  -29.0374   20.0385 C   0  0  0  0  0  0  0  0  0  0  0  0
  -24.7228  -29.2358   22.1785 C   0  0  0  0  0  0  0  0  0  0  0  0
  -30.7275  -25.2321   22.0194 C   0  0  0  0  0  0  0  0  0  0  0  0
  -29.0316  -21.1774   24.6317 C   0  0  0  0  0  0  0  0  0  0  0  0
  -29.2961  -24.9801   22.4823 C   0  0  0  0  0  0  0  0  0  0  0  0
  -29.1473  -20.0899   23.5612 C   0  0  0  0  0  0  0  0  0  0  0  0
  -27.7289  -21.0599   25.4210 C   0  0  0  0  0  0  0  0  0  0  0  0
  -26.6256  -19.9253   23.5330 C   0  0  0  0  0  0  0  0  0  0  0  0
  -28.2980  -25.2145   21.3420 C   0  0  1  0  0  0  0  0  0  0  0  0
  -27.1096  -28.8193   21.5060 C   0  0  1  0  0  0  0  0  0  0  0  0
  -27.8916  -20.0419   22.6686 C   0  0  2  0  0  0  0  0  0  0  0  0
  -23.9311  -34.9690   25.1765 C   0  0  0  0  0  0  0  0  0  0  0  0
  -20.2444  -28.1134   16.7226 C   0  0  0  0  0  0  0  0  0  0  0  0
  -25.7398  -28.3103   25.8906 C   0  0  0  0  0  0  0  0  0  0  0  0
  -24.6971  -30.3319   26.9365 C   0  0  0  0  0  0  0  0  0  0  0  0
  -27.1618  -30.2557   26.5597 C   0  0  0  0  0  0  0  0  0  0  0  0
  -26.0093  -34.3314   22.0539 C   0  0  0  0  0  0  0  0  0  0  0  0
  -20.0941  -26.1668   18.3106 C   0  0  0  0  0  0  0  0  0  0  0  0
  -20.1459  -24.3748   20.1500 C   0  0  0  0  0  0  0  0  0  0  0  0
  -25.6133  -30.5313   24.5802 C   0  0  1  0  0  0  0  0  0  0  0  0
  -24.9714  -34.2585   24.3246 C   0  0  2  0  0  0  0  0  0  0  0  0
  -20.9688  -27.3097   17.7934 C   0  0  2  0  0  0  0  0  0  1  0  0
  -25.7956  -29.8492   25.9655 C   0  0  0  0  0  0  0  0  0  0  0  0
  -27.4665  -17.7278   21.9299 N   0  0  0  0  0  0  0  0  0  0  0  0
  -27.9787  -18.9347   21.6349 N   0  0  0  0  0  0  0  0  0  0  0  0
  -26.1585  -29.4567   22.4188 N   0  0  0  0  0  0  0  0  0  0  0  0
  -26.5826  -21.0244   24.5102 N   0  0  0  0  0  0  0  0  0  0  0  0
  -29.0929  -20.1492   19.9336 N   0  0  0  0  0  0  0  0  0  0  0  0
  -30.0931  -16.8359   18.3792 N   0  0  0  0  0  0  0  0  0  0  0  0
  -24.5438  -21.8812   23.6905 N   0  0  0  0  0  0  0  0  0  0  0  0
  -20.9974  -23.3789   20.7485 N   0  0  0  0  0  0  0  0  0  0  0  0
  -28.0798  -26.6316   21.1447 N   0  0  0  0  0  0  0  0  0  0  0  0
  -25.6888  -31.9878   24.6168 N   0  0  0  0  0  0  0  0  0  0  0  0
  -25.0117  -34.9150   22.9873 N   0  3  0  0  0  0  0  0  0  0  0  0
  -28.0760  -17.4982   17.5123 O   0  0  0  0  0  0  0  0  0  0  0  0
  -26.4396  -26.9400   22.7687 O   0  0  0  0  0  0  0  0  0  0  0  0
  -22.0489  -24.8134   18.7378 O   0  0  0  0  0  0  0  0  0  0  0  0
  -27.8415  -30.2794   23.8068 O   0  0  0  0  0  0  0  0  0  0  0  0
  -23.5840  -32.3741   23.7236 O   0  0  0  0  0  0  0  0  0  0  0  0
  -25.6145  -22.8815   25.4890 O   0  0  0  0  0  0  0  0  0  0  0  0
  -26.1275  -11.6622   20.5272 O   0  0  0  0  0  0  0  0  0  0  0  0
  -21.2755  -28.2017   18.8643 O   0  0  0  0  0  0  0  0  0  1  0  0
  -20.7664  -10.6122   19.7783 F   0  0  0  0  0  0  0  0  0  0  0  0
  -23.3791  -26.5339   23.4313 F   0  0  0  0  0  0  0  0  0  0  0  0
  -24.2441  -12.5242   22.3582 F   0  0  0  0  0  0  0  0  0  0  0  0
  1  2  1  0  0  0  0
  1  5  2  0  0  0  0
  2  6  2  0  0  0  0
  3  8  2  0  0  0  0
  3 18  1  0  0  0  0
  4  9  1  0  0  0  0
  4 18  2  0  0  0  0
  5 20  1  0  0  0  0
  6 22  1  0  0  0  0
  7 10  2  0  0  0  0
  7 21  1  0  0  0  0
  8 26  1  0  0  0  0
  9 26  2  0  0  0  0
 10 27  1  0  0  0  0
 11 12  2  0  0  0  0
 11 28  1  0  0  0  0
 12 29  1  0  0  0  0
 13 23  1  0  0  0  0
 13 27  2  0  0  0  0
 14 24  1  0  0  0  0
 14 25  2  0  0  0  0
 15 24  2  0  0  0  0
 15 30  1  0  0  0  0
 16 25  1  0  0  0  0
 16 30  2  0  0  0  0
 17 29  2  0  0  0  0
 17 31  1  0  0  0  0
 18 32  1  0  0  0  0
 19 32  1  0  0  0  0
 19 33  2  0  0  0  0
 19 34  1  0  0  0  0
 20 22  2  0  0  0  0
 20 40  1  0  0  0  0
 21 23  2  0  0  0  0
 21 41  1  0  0  0  0
 22 49  1  0  0  0  0
 23 42  1  0  0  0  0
 24 70  1  0  0  0  0
 25 71  1  0  0  0  0
 26 81  1  0  0  0  0
 27 82  1  0  0  0  0
 28 31  2  0  0  0  0
 28 81  1  0  0  0  0
 29 83  1  0  0  0  0
 30 84  1  0  0  0  0
 31 85  1  0  0  0  0
 32 64  2  0  0  0  0
 33 65  1  0  0  0  0
 33 68  1  0  0  0  0
 34 69  1  0  0  0  0
 34 75  2  0  0  0  0
 35 50  1  0  0  0  0
 35 72  1  0  0  0  0
 35 76  2  0  0  0  0
 36 58  1  0  0  0  0
 36 59  1  0  0  0  0
 36 77  2  0  0  0  0
 37 60  1  0  0  0  0
 37 66  1  0  0  0  0
 37 78  2  0  0  0  0
 38 61  1  0  0  0  0
 38 73  1  0  0  0  0
 38 79  2  0  0  0  0
 39 67  1  0  0  0  0
 39 70  1  0  0  0  0
 39 80  2  0  0  0  0
 40 43  1  0  0  0  0
 41 50  1  0  0  0  0
 42 66  1  0  0  0  0
 43 45  1  0  0  0  0
 44 46  1  0  0  0  0
 44 47  1  0  0  0  0
 45 49  1  0  0  0  0
 46 51  1  0  0  0  0
 47 67  1  0  0  0  0
 48 51  1  0  0  0  0
 48 67  1  0  0  0  0
 49 72  1  0  0  0  0
 50 66  1  0  0  0  0
 51 65  1  0  0  0  0
 52 61  1  0  0  0  0
 53 62  1  0  0  0  0
 54 63  1  0  0  0  0
 55 63  1  0  0  0  0
 56 63  1  0  0  0  0
 57 74  1  0  0  0  0
 58 62  1  0  0  0  0
 59 71  1  0  0  0  0
 60 63  1  0  0  0  0
 60 73  1  0  0  0  0
 61 74  1  0  0  0  0
 62 82  1  0  0  0  0
 64 65  1  0  0  0  0
M  CHG  1  74   1
M  ISO  4  39 100  62 101  70 100  82 101
M  END
> <Batch ID>
0167

> <Smiles>
CNC(C)C(=O)NC(C(=O)N1Cc2cc([101O:1][101CH:1](C)CC(=O)CNc3cc(F)cc([100NH:0][100C:0](=O)N4CCCC(n5nc(-c6ccc(Oc7ccc(F)cc7F)cc6)c(C(N)=O)c5N)C4)c3)ccc2CC1C(=O)NC1CCCc2ccccc21)C(C)(C)C

> <Shape>
0.233

> <Color>
0.060

> <Negative vol penalty>
0.000

$$$$

  -OEChem-04052304113D

 84 92  0     1  0  0  0  0  0999 V2000
  -25.5670  -29.3104   30.4068 C   0  0  0  0  0  0  0  0  0  0  0  0
  -25.6795  -28.5945   29.2192 C   0  0  0  0  0  0  0  0  0  0  0  0
  -23.1126   -9.8838   19.9615 C   0  0  0  0  0  0  0  0  0  0  0  0
  -23.8688   -9.9391   22.2555 C   0  0  0  0  0  0  0  0  0  0  0  0
  -25.0651  -30.6111   30.3904 C   0  0  0  0  0  0  0  0  0  0  0  0
  -25.2891  -29.1786   28.0147 C   0  0  0  0  0  0  0  0  0  0  0  0
  -28.6368  -28.3893   24.2978 C   0  0  0  0  0  0  0  0  0  0  0  0
  -22.3897   -8.7210   20.2279 C   0  0  0  0  0  0  0  0  0  0  0  0
  -23.1459   -8.7763   22.5219 C   0  0  0  0  0  0  0  0  0  0  0  0
  -28.6251  -27.1366   23.6859 C   0  0  0  0  0  0  0  0  0  0  0  0
  -19.9321   -7.9282   23.1323 C   0  0  0  0  0  0  0  0  0  0  0  0
  -19.1743   -7.8918   24.3028 C   0  0  0  0  0  0  0  0  0  0  0  0
  -27.3585  -28.0527   21.8485 C   0  0  0  0  0  0  0  0  0  0  0  0
  -29.7399  -19.1216   22.3059 C   0  0  0  0  0  0  0  0  0  0  0  0
  -30.5718  -17.9296   24.2356 C   0  0  0  0  0  0  0  0  0  0  0  0
  -29.3298  -19.9814   24.5261 C   0  0  0  0  0  0  0  0  0  0  0  0
  -20.4501   -5.9889   25.0697 C   0  0  0  0  0  0  0  0  0  0  0  0
  -23.8522  -10.4928   20.9753 C   0  0  0  0  0  0  0  0  0  0  0  0
  -24.1476  -13.0218   20.8178 C   0  0  0  0  0  0  0  0  0  0  0  0
  -24.6774  -31.2149   29.1839 C   0  0  0  0  0  0  0  0  0  0  0  0
  -27.9989  -29.4824   23.6940 C   0  0  0  0  0  0  0  0  0  0  0  0
  -24.7803  -30.4881   27.9824 C   0  0  0  0  0  0  0  0  0  0  0  0
  -27.3657  -29.3187   22.4537 C   0  0  0  0  0  0  0  0  0  0  0  0
  -30.4312  -18.0404   22.8522 C   0  0  0  0  0  0  0  0  0  0  0  0
  -29.1892  -20.0922   23.1428 C   0  0  0  0  0  0  0  0  0  0  0  0
  -22.4064   -8.1672   21.5080 C   0  0  0  0  0  0  0  0  0  0  0  0
  -27.9835  -26.9675   22.4624 C   0  0  0  0  0  0  0  0  0  0  0  0
  -20.9489   -6.9948   22.9305 C   0  0  0  0  0  0  0  0  0  0  0  0
  -19.4333   -6.9222   25.2715 C   0  0  0  0  0  0  0  0  0  0  0  0
  -30.0211  -18.9001   25.0726 C   0  0  0  0  0  0  0  0  0  0  0  0
  -21.2079   -6.0252   23.8992 C   0  0  0  0  0  0  0  0  0  0  0  0
  -24.5996  -11.6937   20.7007 C   0  0  0  0  0  0  0  0  0  0  0  0
  -25.2263  -13.7858   20.4447 C   0  0  0  0  0  0  0  0  0  0  0  0
  -29.2067  -22.2181   22.3228 C   0  0  0  0  0  0  0  0  0  0  0  0
  -22.8672  -13.5203   21.2274 C   0  0  0  0  0  0  0  0  0  0  0  0
  -28.5308  -23.4155   21.7380 C   0  0  0  0  0  0  0  0  0  0  0  0
  -25.5899  -31.3958   24.4933 C   0  0  0  0  0  0  0  0  0  0  0  0
  -30.7120  -14.8440   20.7224 C   0  0  0  0  0  0  0  0  0  0  0  0
  -26.4653  -32.9780   21.8002 C   0  0  0  0  0  0  0  0  0  0  0  0
  -27.9969  -32.8820   18.7520 C   0  0  0  0  0  0  0  0  0  0  0  0
  -24.0964  -32.6061   29.2222 C   0  0  0  0  0  0  0  0  0  0  0  0
  -28.0434  -30.8332   24.3541 C   0  0  0  0  0  0  0  0  0  0  0  0
  -26.6837  -30.4650   21.7541 C   0  0  0  0  0  0  0  0  0  0  0  0
  -24.0555  -33.2870   27.8565 C   0  0  0  0  0  0  0  0  0  0  0  0
  -29.5934  -12.4892   18.2640 C   0  0  0  0  0  0  0  0  0  0  0  0
  -23.4995  -32.3353   26.8020 C   0  0  0  0  0  0  0  0  0  0  0  0
  -28.1683  -12.1587   18.7057 C   0  0  0  0  0  0  0  0  0  0  0  0
  -30.5082  -12.7267   19.4614 C   0  0  0  0  0  0  0  0  0  0  0  0
  -28.5896  -13.4471   20.8476 C   0  0  0  0  0  0  0  0  0  0  0  0
  -24.3904  -31.0961   26.6526 C   0  0  1  0  0  0  0  0  0  0  0  0
  -26.9203  -31.7590   23.8970 C   0  0  1  0  0  0  0  0  0  0  0  0
  -27.6254  -13.2300   19.6679 C   0  0  2  0  0  0  0  0  0  0  0  0
  -28.5200  -34.3214   16.7641 C   0  0  0  0  0  0  0  0  0  0  0  0
  -23.5687  -32.7424   20.8704 C   0  0  0  0  0  0  0  0  0  0  0  0
  -24.3378  -33.3143   18.5575 C   0  0  0  0  0  0  0  0  0  0  0  0
  -24.6350  -34.9574   20.4108 C   0  0  0  0  0  0  0  0  0  0  0  0
  -30.9128  -32.5452   19.1295 C   0  0  0  0  0  0  0  0  0  0  0  0
  -31.0185  -17.0014   21.9578 C   0  0  0  0  0  0  0  0  0  0  0  0
  -28.6331  -24.6812   22.5440 C   0  0  0  0  0  0  0  0  0  1  0  0
  -30.0643  -15.8403   21.6508 C   0  0  0  0  0  0  0  0  0  0  0  0
  -26.0911  -32.8918   20.3403 C   0  0  1  0  0  0  0  0  0  0  0  0
  -29.0144  -33.8053   18.1065 C   0  0  2  0  0  0  0  0  0  0  0  0
  -24.6693  -33.4543   20.0586 C   0  0  0  0  0  0  0  0  0  0  0  0
  -25.8666  -11.6150   20.2854 N   0  0  0  0  0  0  0  0  0  0  0  0
  -28.4924  -21.1812   22.5926 N   0  0  0  0  0  0  0  0  0  0  0  0
  -26.2200  -12.9032   20.1383 N   0  0  0  0  0  0  0  0  0  0  0  0
  -26.7492  -31.7646   22.4427 N   0  0  0  0  0  0  0  0  0  0  0  0
  -29.9466  -13.7345   20.3626 N   0  0  0  0  0  0  0  0  0  0  0  0
  -25.4122  -15.1196   20.3520 N   0  0  0  0  0  0  0  0  0  0  0  0
  -21.8717  -12.5978   21.5771 N   0  0  0  0  0  0  0  0  0  0  0  0
  -25.5693  -31.4121   25.8749 N   0  0  0  0  0  0  0  0  0  0  0  0
  -27.1565  -33.5652   19.6054 N   0  0  0  0  0  0  0  0  0  0  0  0
  -30.3013  -33.0861   17.8884 N   0  3  0  0  0  0  0  0  0  0  0  0
  -22.6082  -14.7471   21.2660 O   0  0  0  0  0  0  0  0  0  0  0  0
  -27.9656  -23.2923   20.6629 O   0  0  0  0  0  0  0  0  0  0  0  0
  -24.6510  -31.1227   23.7547 O   0  0  0  0  0  0  0  0  0  0  0  0
  -31.8627  -15.0488   20.3275 O   0  0  0  0  0  0  0  0  0  0  0  0
  -26.5111  -34.0821   22.3486 O   0  0  0  0  0  0  0  0  0  0  0  0
  -27.9497  -31.6761   18.5194 O   0  0  0  0  0  0  0  0  0  0  0  0
  -21.7009   -7.0327   21.7683 O   0  0  0  0  0  0  0  0  0  0  0  0
  -27.9700  -25.7457   21.8633 O   0  0  0  0  0  0  0  0  0  1  0  0
  -18.7065   -6.8884   26.3961 F   0  0  0  0  0  0  0  0  0  0  0  0
  -30.1547  -18.7930   26.4009 F   0  0  0  0  0  0  0  0  0  0  0  0
  -22.1842   -5.1267   23.7115 F   0  0  0  0  0  0  0  0  0  0  0  0
  1  2  1  0  0  0  0
  1  5  2  0  0  0  0
  2  6  2  0  0  0  0
  3  8  2  0  0  0  0
  3 18  1  0  0  0  0
  4  9  1  0  0  0  0
  4 18  2  0  0  0  0
  5 20  1  0  0  0  0
  6 22  1  0  0  0  0
  7 10  2  0  0  0  0
  7 21  1  0  0  0  0
  8 26  1  0  0  0  0
  9 26  2  0  0  0  0
 10 27  1  0  0  0  0
 11 12  2  0  0  0  0
 11 28  1  0  0  0  0
 12 29  1  0  0  0  0
 13 23  1  0  0  0  0
 13 27  2  0  0  0  0
 14 24  1  0  0  0  0
 14 25  2  0  0  0  0
 15 24  2  0  0  0  0
 15 30  1  0  0  0  0
 16 25  1  0  0  0  0
 16 30  2  0  0  0  0
 17 29  2  0  0  0  0
 17 31  1  0  0  0  0
 18 32  1  0  0  0  0
 19 32  1  0  0  0  0
 19 33  2  0  0  0  0
 19 35  1  0  0  0  0
 20 22  2  0  0  0  0
 20 41  1  0  0  0  0
 21 23  2  0  0  0  0
 21 42  1  0  0  0  0
 22 50  1  0  0  0  0
 23 43  1  0  0  0  0
 24 58  1  0  0  0  0
 25 65  1  0  0  0  0
 26 80  1  0  0  0  0
 27 81  1  0  0  0  0
 28 31  2  0  0  0  0
 28 80  1  0  0  0  0
 29 82  1  0  0  0  0
 30 83  1  0  0  0  0
 31 84  1  0  0  0  0
 32 64  2  0  0  0  0
 33 66  1  0  0  0  0
 33 69  1  0  0  0  0
 34 36  1  0  0  0  0
 34 65  2  0  0  0  0
 35 70  1  0  0  0  0
 35 74  2  0  0  0  0
 36 59  1  0  0  0  0
 36 75  2  0  0  0  0
 37 51  1  0  0  0  0
 37 71  1  0  0  0  0
 37 76  2  0  0  0  0
 38 60  1  0  0  0  0
 38 68  1  0  0  0  0
 38 77  2  0  0  0  0
 39 61  1  0  0  0  0
 39 67  1  0  0  0  0
 39 78  2  0  0  0  0
 40 62  1  0  0  0  0
 40 72  1  0  0  0  0
 40 79  2  0  0  0  0
 41 44  1  0  0  0  0
 42 51  1  0  0  0  0
 43 67  1  0  0  0  0
 44 46  1  0  0  0  0
 45 47  1  0  0  0  0
 45 48  1  0  0  0  0
 46 50  1  0  0  0  0
 47 52  1  0  0  0  0
 48 68  1  0  0  0  0
 49 52  1  0  0  0  0
 49 68  1  0  0  0  0
 50 71  1  0  0  0  0
 51 67  1  0  0  0  0
 52 66  1  0  0  0  0
 53 62  1  0  0  0  0
 54 63  1  0  0  0  0
 55 63  1  0  0  0  0
 56 63  1  0  0  0  0
 57 73  1  0  0  0  0
 58 60  1  0  0  0  0
 59 81  1  0  0  0  0
 61 63  1  0  0  0  0
 61 72  1  0  0  0  0
 62 73  1  0  0  0  0
 64 66  1  0  0  0  0
M  CHG  1  73   1
M  ISO  4  38 100  59 101  60 100  81 101
M  END
> <Batch ID>
0167

> <Smiles>
CNC(C)C(=O)NC(C(=O)N1Cc2cc([101O:1][101CH2:1]C(=O)CNc3cc(F)cc(C=[100CH:0][100C:0](=O)N4CCCC(n5nc(-c6ccc(Oc7ccc(F)cc7F)cc6)c(C(N)=O)c5N)C4)c3)ccc2CC1C(=O)NC1CCCc2ccccc21)C(C)(C)C

> <Shape>
0.269

> <Color>
0.209

> <Negative vol penalty>
0.000

$$$$

  -OEChem-04052304113D

 85 93  0     1  0  0  0  0  0999 V2000
  -31.0237  -33.3199   26.4954 C   0  0  0  0  0  0  0  0  0  0  0  0
  -31.0806  -32.3298   25.5197 C   0  0  0  0  0  0  0  0  0  0  0  0
  -21.2942   -7.2731   19.4240 C   0  0  0  0  0  0  0  0  0  0  0  0
  -23.6430   -7.3347   18.8616 C   0  0  0  0  0  0  0  0  0  0  0  0
  -29.9216  -33.3963   27.3460 C   0  0  0  0  0  0  0  0  0  0  0  0
  -30.0358  -31.4148   25.3948 C   0  0  0  0  0  0  0  0  0  0  0  0
  -27.9402  -28.9043   20.2168 C   0  0  0  0  0  0  0  0  0  0  0  0
  -21.0777   -6.3324   18.4172 C   0  0  0  0  0  0  0  0  0  0  0  0
  -23.4265   -6.3939   17.8547 C   0  0  0  0  0  0  0  0  0  0  0  0
  -28.1756  -27.6714   19.6099 C   0  0  0  0  0  0  0  0  0  0  0  0
  -21.5200   -3.0094   17.9760 C   0  0  0  0  0  0  0  0  0  0  0  0
  -20.7252   -1.9045   18.2812 C   0  0  0  0  0  0  0  0  0  0  0  0
  -26.1744  -26.7933   20.6313 C   0  0  0  0  0  0  0  0  0  0  0  0
  -19.1757   -2.5378   16.5391 C   0  0  0  0  0  0  0  0  0  0  0  0
  -28.1855  -14.5814   19.6039 C   0  0  0  0  0  0  0  0  0  0  0  0
  -22.5769   -7.7743   19.6462 C   0  0  0  0  0  0  0  0  0  0  0  0
  -23.1300   -8.4923   22.0308 C   0  0  0  0  0  0  0  0  0  0  0  0
  -28.8584  -32.4877   27.2251 C   0  0  0  0  0  0  0  0  0  0  0  0
  -26.8241  -29.0880   21.0457 C   0  0  0  0  0  0  0  0  0  0  0  0
  -28.9190  -31.4783   26.2454 C   0  0  0  0  0  0  0  0  0  0  0  0
  -25.9257  -28.0302   21.2455 C   0  0  0  0  0  0  0  0  0  0  0  0
  -22.1439   -5.8928   17.6325 C   0  0  0  0  0  0  0  0  0  0  0  0
  -27.2942  -26.6148   19.8194 C   0  0  0  0  0  0  0  0  0  0  0  0
  -21.1425   -3.8786   16.9524 C   0  0  0  0  0  0  0  0  0  0  0  0
  -19.5531   -1.6686   17.5627 C   0  0  0  0  0  0  0  0  0  0  0  0
  -19.9704   -3.6428   16.2339 C   0  0  0  0  0  0  0  0  0  0  0  0
  -29.0767  -15.6767   19.5075 C   0  0  0  0  0  0  0  0  0  0  0  0
  -22.8011   -8.7465   20.6858 C   0  0  0  0  0  0  0  0  0  0  0  0
  -23.2346   -9.7380   22.5999 C   0  0  0  0  0  0  0  0  0  0  0  0
  -26.9515  -15.1171   19.8903 C   0  0  0  0  0  0  0  0  0  0  0  0
  -28.3237  -16.8037   19.7417 C   0  0  0  0  0  0  0  0  0  0  0  0
  -23.3238   -7.2421   22.7053 C   0  0  0  0  0  0  0  0  0  0  0  0
  -26.4020  -29.8168   24.1107 C   0  0  0  0  0  0  0  0  0  0  0  0
  -28.4119  -20.5481   19.9992 C   0  0  0  0  0  0  0  0  0  0  0  0
  -27.9337  -23.0519   19.6061 C   0  0  0  0  0  0  0  0  0  0  0  0
  -23.2755  -29.9213   23.2527 C   0  0  0  0  0  0  0  0  0  0  0  0
  -20.8283  -28.9200   21.0950 C   0  0  0  0  0  0  0  0  0  0  0  0
  -24.4817  -15.1461   20.3859 C   0  0  0  0  0  0  0  0  0  0  0  0
  -27.7099  -32.5806   28.1983 C   0  0  0  0  0  0  0  0  0  0  0  0
  -26.5698  -30.4319   21.6715 C   0  0  0  0  0  0  0  0  0  0  0  0
  -24.7018  -28.1819   22.1101 C   0  0  0  0  0  0  0  0  0  0  0  0
  -26.4721  -31.8047   27.7556 C   0  0  0  0  0  0  0  0  0  0  0  0
  -21.5526  -14.2018   22.1765 C   0  0  0  0  0  0  0  0  0  0  0  0
  -26.8598  -30.4094   27.2764 C   0  0  0  0  0  0  0  0  0  0  0  0
  -21.5736  -12.6724   22.1250 C   0  0  0  0  0  0  0  0  0  0  0  0
  -22.0679  -14.8201   20.8780 C   0  0  0  0  0  0  0  0  0  0  0  0
  -23.4058  -12.8099   20.3898 C   0  0  0  0  0  0  0  0  0  0  0  0
  -27.7940  -30.4828   26.0625 C   0  0  1  0  0  0  0  0  0  0  0  0
  -25.6800  -30.3563   22.9085 C   0  0  1  0  0  0  0  0  0  0  0  0
  -22.9566  -12.1417   21.6996 C   0  0  2  0  0  0  0  0  0  0  0  0
  -18.3642  -29.1380   20.6728 C   0  0  0  0  0  0  0  0  0  0  0  0
  -22.7152  -27.9664   25.5274 C   0  0  0  0  0  0  0  0  0  0  0  0
  -20.4894  -27.4962   24.4820 C   0  0  0  0  0  0  0  0  0  0  0  0
  -21.0275  -29.7959   25.2848 C   0  0  0  0  0  0  0  0  0  0  0  0
  -21.2744  -30.1781   18.4536 C   0  0  0  0  0  0  0  0  0  0  0  0
  -27.5285  -21.7511   20.2701 C   0  0  0  0  0  0  0  0  0  0  0  0
  -27.7128  -19.2041   20.0423 C   0  0  0  0  0  0  0  0  0  0  0  0
  -27.0588  -24.2504   19.9192 C   0  0  0  0  0  0  0  0  0  1  0  0
  -22.1485  -28.9185   23.1954 C   0  0  1  0  0  0  0  0  0  0  0  0
  -19.7453  -29.6977   20.3692 C   0  0  2  0  0  0  0  0  0  0  0  0
  -21.6192  -28.5405   24.6076 C   0  0  0  0  0  0  0  0  0  0  0  0
  -22.7029  -10.0511   20.4166 N   0  0  0  0  0  0  0  0  0  0  0  0
  -22.9718  -10.6278   21.6003 N   0  0  0  0  0  0  0  0  0  0  0  0
  -24.5001  -29.5133   22.7052 N   0  0  0  0  0  0  0  0  0  0  0  0
  -23.3839  -14.2733   20.5402 N   0  0  0  0  0  0  0  0  0  0  0  0
  -23.5246  -10.1479   23.8530 N   0  0  0  0  0  0  0  0  0  0  0  0
  -23.1783   -6.0572   21.9711 N   0  0  0  0  0  0  0  0  0  0  0  0
  -25.6883  -14.5094   20.0974 N   0  0  0  0  0  0  0  0  0  0  0  0
  -28.6577  -18.1499   19.7752 N   0  0  0  0  0  0  0  0  0  0  0  0
  -27.0418  -30.7832   24.8632 N   0  0  0  0  0  0  0  0  0  0  0  0
  -21.1381  -29.4900   22.3117 N   0  0  0  0  0  0  0  0  0  0  0  0
  -19.9633  -29.6377   18.8962 N   0  3  0  0  0  0  0  0  0  0  0  0
  -23.6013   -7.1772   23.9269 O   0  0  0  0  0  0  0  0  0  0  0  0
  -26.3791  -28.6132   24.3395 O   0  0  0  0  0  0  0  0  0  0  0  0
  -29.6210  -20.6537   19.7984 O   0  0  0  0  0  0  0  0  0  0  0  0
  -28.8861  -23.1335   18.8322 O   0  0  0  0  0  0  0  0  0  0  0  0
  -23.0746  -31.0285   23.7579 O   0  0  0  0  0  0  0  0  0  0  0  0
  -21.3449  -27.9060   20.6309 O   0  0  0  0  0  0  0  0  0  0  0  0
  -24.3658  -16.3661   20.5281 O   0  0  0  0  0  0  0  0  0  0  0  0
  -27.0271  -16.4712   19.9759 O   0  0  0  0  0  0  0  0  0  0  0  0
  -21.9330   -4.9747   16.6501 O   0  0  0  0  0  0  0  0  0  0  0  0
  -27.5220  -25.4102   19.2288 O   0  0  0  0  0  0  0  0  0  1  0  0
  -18.7909   -0.6067   17.8549 F   0  0  0  0  0  0  0  0  0  0  0  0
  -19.6033   -4.4736   15.2487 F   0  0  0  0  0  0  0  0  0  0  0  0
  -30.3791  -15.6245   19.2436 F   0  0  0  0  0  0  0  0  0  0  0  0
  1  2  1  0  0  0  0
  1  5  2  0  0  0  0
  2  6  2  0  0  0  0
  3  8  2  0  0  0  0
  3 16  1  0  0  0  0
  4  9  1  0  0  0  0
  4 16  2  0  0  0  0
  5 18  1  0  0  0  0
  6 20  1  0  0  0  0
  7 10  2  0  0  0  0
  7 19  1  0  0  0  0
  8 22  1  0  0  0  0
  9 22  2  0  0  0  0
 10 23  1  0  0  0  0
 11 12  2  0  0  0  0
 11 24  1  0  0  0  0
 12 25  1  0  0  0  0
 13 21  1  0  0  0  0
 13 23  2  0  0  0  0
 14 25  2  0  0  0  0
 14 26  1  0  0  0  0
 15 27  1  0  0  0  0
 15 30  2  0  0  0  0
 16 28  1  0  0  0  0
 17 28  1  0  0  0  0
 17 29  2  0  0  0  0
 17 32  1  0  0  0  0
 18 20  2  0  0  0  0
 18 39  1  0  0  0  0
 19 21  2  0  0  0  0
 19 40  1  0  0  0  0
 20 48  1  0  0  0  0
 21 41  1  0  0  0  0
 22 81  1  0  0  0  0
 23 82  1  0  0  0  0
 24 26  2  0  0  0  0
 24 81  1  0  0  0  0
 25 83  1  0  0  0  0
 26 84  1  0  0  0  0
 27 31  2  0  0  0  0
 27 85  1  0  0  0  0
 28 62  2  0  0  0  0
 29 63  1  0  0  0  0
 29 66  1  0  0  0  0
 30 68  1  0  0  0  0
 30 80  1  0  0  0  0
 31 69  1  0  0  0  0
 31 80  1  0  0  0  0
 32 67  1  0  0  0  0
 32 73  2  0  0  0  0
 33 49  1  0  0  0  0
 33 70  1  0  0  0  0
 33 74  2  0  0  0  0
 34 56  1  0  0  0  0
 34 57  1  0  0  0  0
 34 75  2  0  0  0  0
 35 56  1  0  0  0  0
 35 58  1  0  0  0  0
 35 76  2  0  0  0  0
 36 59  1  0  0  0  0
 36 64  1  0  0  0  0
 36 77  2  0  0  0  0
 37 60  1  0  0  0  0
 37 71  1  0  0  0  0
 37 78  2  0  0  0  0
 38 65  1  0  0  0  0
 38 68  1  0  0  0  0
 38 79  2  0  0  0  0
 39 42  1  0  0  0  0
 40 49  1  0  0  0  0
 41 64  1  0  0  0  0
 42 44  1  0  0  0  0
 43 45  1  0  0  0  0
 43 46  1  0  0  0  0
 44 48  1  0  0  0  0
 45 50  1  0  0  0  0
 46 65  1  0  0  0  0
 47 50  1  0  0  0  0
 47 65  1  0  0  0  0
 48 70  1  0  0  0  0
 49 64  1  0  0  0  0
 50 63  1  0  0  0  0
 51 60  1  0  0  0  0
 52 61  1  0  0  0  0
 53 61  1  0  0  0  0
 54 61  1  0  0  0  0
 55 72  1  0  0  0  0
 57 69  1  0  0  0  0
 58 82  1  0  0  0  0
 59 61  1  0  0  0  0
 59 71  1  0  0  0  0
 60 72  1  0  0  0  0
 62 63  1  0  0  0  0
M  CHG  1  72   1
M  ISO  4  38 100  58 101  68 100  82 101
M  END
> <Batch ID>
0167

> <Smiles>
CNC(C)C(=O)NC(C(=O)N1Cc2cc([101O:1][101CH2:1]C(=O)CC(=O)CNc3oc([100NH:0][100C:0](=O)N4CCCC(n5nc(-c6ccc(Oc7ccc(F)cc7F)cc6)c(C(N)=O)c5N)C4)cc3F)ccc2CC1C(=O)NC1CCCc2ccccc21)C(C)(C)C

> <Shape>
0.248

> <Color>
0.089

> <Negative vol penalty>
0.000

$$$$

  -OEChem-04052304113D

 83 91  0     1  0  0  0  0  0999 V2000
  -21.8755  -29.0001   23.0633 C   0  0  0  0  0  0  0  0  0  0  0  0
  -22.6605  -27.8518   23.0402 C   0  0  0  0  0  0  0  0  0  0  0  0
  -22.9235   -9.9621   19.9976 C   0  0  0  0  0  0  0  0  0  0  0  0
  -23.7188   -9.9128   22.2785 C   0  0  0  0  0  0  0  0  0  0  0  0
  -22.2728  -30.1293   22.3484 C   0  0  0  0  0  0  0  0  0  0  0  0
  -23.8428  -27.8317   22.3012 C   0  0  0  0  0  0  0  0  0  0  0  0
  -27.6911  -25.7473   24.8490 C   0  0  0  0  0  0  0  0  0  0  0  0
  -22.1319   -8.8416   20.2494 C   0  0  0  0  0  0  0  0  0  0  0  0
  -22.9271   -8.7924   22.5303 C   0  0  0  0  0  0  0  0  0  0  0  0
  -27.7241  -24.3556   24.9262 C   0  0  0  0  0  0  0  0  0  0  0  0
  -23.0575   -5.4660   21.9393 C   0  0  0  0  0  0  0  0  0  0  0  0
  -23.6368   -4.4070   22.6383 C   0  0  0  0  0  0  0  0  0  0  0  0
  -29.3556  -24.3018   23.1501 C   0  0  0  0  0  0  0  0  0  0  0  0
  -32.0121  -17.2263   21.6914 C   0  0  0  0  0  0  0  0  0  0  0  0
  -21.9720   -4.6416   24.3734 C   0  0  0  0  0  0  0  0  0  0  0  0
  -23.7170  -10.4977   21.0121 C   0  0  0  0  0  0  0  0  0  0  0  0
  -24.1716  -13.0057   20.9087 C   0  0  0  0  0  0  0  0  0  0  0  0
  -23.4655  -30.1262   21.6081 C   0  0  0  0  0  0  0  0  0  0  0  0
  -28.4833  -26.4272   23.9128 C   0  0  0  0  0  0  0  0  0  0  0  0
  -24.2558  -28.9614   21.5746 C   0  0  0  0  0  0  0  0  0  0  0  0
  -29.3328  -25.7023   23.0648 C   0  0  0  0  0  0  0  0  0  0  0  0
  -32.1672  -18.4739   22.3619 C   0  0  0  0  0  0  0  0  0  0  0  0
  -22.1336   -8.2568   21.5157 C   0  0  0  0  0  0  0  0  0  0  0  0
  -28.5543  -23.6325   24.0747 C   0  0  0  0  0  0  0  0  0  0  0  0
  -21.9355   -6.1129   22.4574 C   0  0  0  0  0  0  0  0  0  0  0  0
  -23.0941   -3.9948   23.8553 C   0  0  0  0  0  0  0  0  0  0  0  0
  -21.3928   -5.7006   23.6744 C   0  0  0  0  0  0  0  0  0  0  0  0
  -24.5354  -11.6548   20.7525 C   0  0  0  0  0  0  0  0  0  0  0  0
  -31.0454  -18.8161   23.0843 C   0  0  0  0  0  0  0  0  0  0  0  0
  -25.2910  -13.7082   20.5345 C   0  0  0  0  0  0  0  0  0  0  0  0
  -30.7775  -16.6623   21.9272 C   0  0  0  0  0  0  0  0  0  0  0  0
  -22.9327  -13.5747   21.3525 C   0  0  0  0  0  0  0  0  0  0  0  0
  -30.7944  -20.0206   23.9169 C   0  0  0  0  0  0  0  0  0  0  0  0
  -27.8937  -28.3295   21.4355 C   0  0  0  0  0  0  0  0  0  0  0  0
  -31.1213  -28.6521   21.4130 C   0  0  0  0  0  0  0  0  0  0  0  0
  -34.1683  -27.3561   22.2398 C   0  0  0  0  0  0  0  0  0  0  0  0
  -30.8013  -14.5026   20.6304 C   0  0  0  0  0  0  0  0  0  0  0  0
  -23.8296  -31.3550   20.8130 C   0  0  0  0  0  0  0  0  0  0  0  0
  -28.4562  -27.9302   23.8603 C   0  0  0  0  0  0  0  0  0  0  0  0
  -30.2181  -26.3858   22.0561 C   0  0  0  0  0  0  0  0  0  0  0  0
  -25.2865  -31.3763   20.3577 C   0  0  0  0  0  0  0  0  0  0  0  0
  -29.5410  -12.1646   18.2592 C   0  0  0  0  0  0  0  0  0  0  0  0
  -25.6797  -30.0276   19.7631 C   0  0  0  0  0  0  0  0  0  0  0  0
  -28.0964  -11.9347   18.7094 C   0  0  0  0  0  0  0  0  0  0  0  0
  -30.4843  -12.3401   19.4480 C   0  0  0  0  0  0  0  0  0  0  0  0
  -28.6342  -13.1373   20.8661 C   0  0  0  0  0  0  0  0  0  0  0  0
  -25.5576  -28.9089   20.8047 C   0  0  1  0  0  0  0  0  0  0  0  0
  -28.9216  -28.4897   22.5196 C   0  0  1  0  0  0  0  0  0  0  0  0
  -27.6362  -13.0197   19.7026 C   0  0  2  0  0  0  0  0  0  0  0  0
  -33.3986  -19.2966   22.2823 C   0  0  0  0  0  0  0  0  0  0  0  0
  -36.6258  -27.8301   22.0572 C   0  0  0  0  0  0  0  0  0  0  0  0
  -27.0876  -20.8084   25.3375 C   0  0  0  0  0  0  0  0  0  0  0  0
  -31.0566  -27.8423   18.4720 C   0  0  0  0  0  0  0  0  0  0  0  0
  -33.5192  -27.4123   18.6081 C   0  0  0  0  0  0  0  0  0  0  0  0
  -32.6322  -29.7097   19.0053 C   0  0  0  0  0  0  0  0  0  0  0  0
  -34.4936  -27.4141   25.1808 C   0  0  0  0  0  0  0  0  0  0  0  0
  -29.5740  -20.9265   25.8780 C   0  0  0  0  0  0  0  0  0  0  0  0
  -32.2644  -27.9198   20.7526 C   0  0  1  0  0  0  0  0  0  0  0  0
  -35.3780  -27.9778   22.9139 C   0  0  2  0  0  0  0  0  0  0  0  0
  -28.3300  -21.6853   25.4216 C   0  0  1  0  0  0  0  0  0  1  0  0
  -32.3501  -28.2077   19.2271 C   0  0  0  0  0  0  0  0  0  0  0  0
  -25.7879  -11.5055   20.3131 N   0  0  0  0  0  0  0  0  0  0  0  0
  -26.2209  -12.7718   20.1899 N   0  0  0  0  0  0  0  0  0  0  0  0
  -30.1513  -27.8564   22.0390 N   0  0  0  0  0  0  0  0  0  0  0  0
  -29.9867  -13.3869   20.3433 N   0  0  0  0  0  0  0  0  0  0  0  0
  -25.5607  -15.0294   20.4697 N   0  0  0  0  0  0  0  0  0  0  0  0
  -21.8858  -12.7093   21.6980 N   0  0  0  0  0  0  0  0  0  0  0  0
  -30.2097  -15.4483   21.4673 N   0  0  0  0  0  0  0  0  0  0  0  0
  -29.9342  -19.8497   24.9943 N   0  0  0  0  0  0  0  0  0  0  0  0
  -26.6844  -28.9382   21.7124 N   0  0  0  0  0  0  0  0  0  0  0  0
  -33.4656  -28.2814   21.4974 N   0  0  0  0  0  0  0  0  0  0  0  0
  -35.6309  -27.3244   24.2292 N   0  3  0  0  0  0  0  0  0  0  0  0
  -22.7537  -14.8142   21.4244 O   0  0  0  0  0  0  0  0  0  0  0  0
  -31.3274  -21.0838   23.6100 O   0  0  0  0  0  0  0  0  0  0  0  0
  -28.1772  -27.7015   20.4221 O   0  0  0  0  0  0  0  0  0  0  0  0
  -31.0940  -29.8849   21.3811 O   0  0  0  0  0  0  0  0  0  0  0  0
  -33.8780  -26.1676   22.3568 O   0  0  0  0  0  0  0  0  0  0  0  0
  -31.9294  -14.6243   20.1462 O   0  0  0  0  0  0  0  0  0  0  0  0
  -21.3611   -7.1635   21.7619 O   0  0  0  0  0  0  0  0  0  0  0  0
  -28.5879  -22.2740   24.1475 O   0  0  0  0  0  0  0  0  0  1  0  0
  -23.6496   -2.9769   24.5257 F   0  0  0  0  0  0  0  0  0  0  0  0
  -20.3142   -6.3174   24.1766 F   0  0  0  0  0  0  0  0  0  0  0  0
  -29.8117  -17.6358   22.9528 S   0  0  0  0  0  0  0  0  0  0  0  0
  1  2  1  0  0  0  0
  1  5  2  0  0  0  0
  2  6  2  0  0  0  0
  3  8  2  0  0  0  0
  3 16  1  0  0  0  0
  4  9  1  0  0  0  0
  4 16  2  0  0  0  0
  5 18  1  0  0  0  0
  6 20  1  0  0  0  0
  7 10  2  0  0  0  0
  7 19  1  0  0  0  0
  8 23  1  0  0  0  0
  9 23  2  0  0  0  0
 10 24  1  0  0  0  0
 11 12  2  0  0  0  0
 11 25  1  0  0  0  0
 12 26  1  0  0  0  0
 13 21  1  0  0  0  0
 13 24  2  0  0  0  0
 14 22  1  0  0  0  0
 14 31  2  0  0  0  0
 15 26  2  0  0  0  0
 15 27  1  0  0  0  0
 16 28  1  0  0  0  0
 17 28  1  0  0  0  0
 17 30  2  0  0  0  0
 17 32  1  0  0  0  0
 18 20  2  0  0  0  0
 18 38  1  0  0  0  0
 19 21  2  0  0  0  0
 19 39  1  0  0  0  0
 20 47  1  0  0  0  0
 21 40  1  0  0  0  0
 22 29  2  0  0  0  0
 22 50  1  0  0  0  0
 23 79  1  0  0  0  0
 24 80  1  0  0  0  0
 25 27  2  0  0  0  0
 25 79  1  0  0  0  0
 26 81  1  0  0  0  0
 27 82  1  0  0  0  0
 28 62  2  0  0  0  0
 29 33  1  0  0  0  0
 29 83  1  0  0  0  0
 30 63  1  0  0  0  0
 30 66  1  0  0  0  0
 31 68  1  0  0  0  0
 31 83  1  0  0  0  0
 32 67  1  0  0  0  0
 32 73  2  0  0  0  0
 33 69  1  0  0  0  0
 33 74  2  0  0  0  0
 34 48  1  0  0  0  0
 34 70  1  0  0  0  0
 34 75  2  0  0  0  0
 35 58  1  0  0  0  0
 35 64  1  0  0  0  0
 35 76  2  0  0  0  0
 36 59  1  0  0  0  0
 36 71  1  0  0  0  0
 36 77  2  0  0  0  0
 37 65  1  0  0  0  0
 37 68  1  0  0  0  0
 37 78  2  0  0  0  0
 38 41  1  0  0  0  0
 39 48  1  0  0  0  0
 40 64  1  0  0  0  0
 41 43  1  0  0  0  0
 42 44  1  0  0  0  0
 42 45  1  0  0  0  0
 43 47  1  0  0  0  0
 44 49  1  0  0  0  0
 45 65  1  0  0  0  0
 46 49  1  0  0  0  0
 46 65  1  0  0  0  0
 47 70  1  0  0  0  0
 48 64  1  0  0  0  0
 49 63  1  0  0  0  0
 51 59  1  0  0  0  0
 52 60  1  0  0  0  0
 53 61  1  0  0  0  0
 54 61  1  0  0  0  0
 55 61  1  0  0  0  0
 56 72  1  0  0  0  0
 57 60  1  0  0  0  0
 57 69  1  0  0  0  0
 58 61  1  0  0  0  0
 58 71  1  0  0  0  0
 59 72  1  0  0  0  0
 60 80  1  0  0  0  0
 62 63  1  0  0  0  0
M  CHG  1  72   1
M  ISO  4  37 100  60 101  68 100  80 101
M  END
> <Batch ID>
0167

> <Smiles>
CNC(C)C(=O)NC(C(=O)N1Cc2cc([101O:1][101CH:1](C)CNC(=O)c3sc([100NH:0][100C:0](=O)N4CCCC(n5nc(-c6ccc(Oc7ccc(F)cc7F)cc6)c(C(N)=O)c5N)C4)cc3C)ccc2CC1C(=O)NC1CCCc2ccccc21)C(C)(C)C

> <Shape>
0.273

> <Color>
0.228

> <Negative vol penalty>
0.000

$$$$

  -OEChem-04052304113D

 88 96  0     1  0  0  0  0  0999 V2000
  -33.6424  -30.0143   17.4988 C   0  0  0  0  0  0  0  0  0  0  0  0
  -33.3490  -29.0275   18.4332 C   0  0  0  0  0  0  0  0  0  0  0  0
  -23.0738   -9.8660   19.9441 C   0  0  0  0  0  0  0  0  0  0  0  0
  -23.8309   -9.8775   22.2384 C   0  0  0  0  0  0  0  0  0  0  0  0
  -33.9621  -29.6572   16.1906 C   0  0  0  0  0  0  0  0  0  0  0  0
  -33.3870  -27.6828   18.0628 C   0  0  0  0  0  0  0  0  0  0  0  0
  -32.8314  -24.3605   21.6485 C   0  0  0  0  0  0  0  0  0  0  0  0
  -22.3295   -8.7135   20.1955 C   0  0  0  0  0  0  0  0  0  0  0  0
  -23.0866   -8.7249   22.4898 C   0  0  0  0  0  0  0  0  0  0  0  0
  -31.6102  -24.1308   22.2806 C   0  0  0  0  0  0  0  0  0  0  0  0
  -19.3794   -7.9201   21.6447 C   0  0  0  0  0  0  0  0  0  0  0  0
  -18.0731   -7.8731   21.1580 C   0  0  0  0  0  0  0  0  0  0  0  0
  -29.8742  -17.4617   23.1350 C   0  0  0  0  0  0  0  0  0  0  0  0
  -31.3353  -22.1049   21.0001 C   0  0  0  0  0  0  0  0  0  0  0  0
  -32.0587  -16.6120   22.5493 C   0  0  0  0  0  0  0  0  0  0  0  0
  -18.6342   -5.9273   19.8403 C   0  0  0  0  0  0  0  0  0  0  0  0
  -23.8246  -10.4480   20.9656 C   0  0  0  0  0  0  0  0  0  0  0  0
  -30.4610  -18.3480   24.0381 C   0  0  0  0  0  0  0  0  0  0  0  0
  -24.1669  -12.9729   20.8409 C   0  0  0  0  0  0  0  0  0  0  0  0
  -33.9916  -28.3078   15.8017 C   0  0  0  0  0  0  0  0  0  0  0  0
  -33.3094  -23.4683   20.6779 C   0  0  0  0  0  0  0  0  0  0  0  0
  -33.7309  -27.3010   16.7534 C   0  0  0  0  0  0  0  0  0  0  0  0
  -32.5641  -22.3242   20.3590 C   0  0  0  0  0  0  0  0  0  0  0  0
  -30.6730  -16.5936   22.3906 C   0  0  0  0  0  0  0  0  0  0  0  0
  -22.3358   -8.1429   21.4683 C   0  0  0  0  0  0  0  0  0  0  0  0
  -30.8605  -23.0044   21.9544 C   0  0  0  0  0  0  0  0  0  0  0  0
  -20.3132   -6.9708   21.2292 C   0  0  0  0  0  0  0  0  0  0  0  0
  -17.7005   -6.8766   20.2558 C   0  0  0  0  0  0  0  0  0  0  0  0
  -32.6456  -17.4984   23.4524 C   0  0  0  0  0  0  0  0  0  0  0  0
  -19.9406   -5.9744   20.3270 C   0  0  0  0  0  0  0  0  0  0  0  0
  -31.8467  -18.3664   24.1968 C   0  0  0  0  0  0  0  0  0  0  0  0
  -24.5941  -11.6383   20.7064 C   0  0  0  0  0  0  0  0  0  0  0  0
  -25.2596  -13.7215   20.4775 C   0  0  0  0  0  0  0  0  0  0  0  0
  -29.5227  -21.6242   23.2869 C   0  0  0  0  0  0  0  0  0  1  0  0
  -29.6066  -19.2731   24.8303 C   0  0  0  0  0  0  0  0  0  0  0  0
  -22.8959  -13.4897   21.2572 C   0  0  0  0  0  0  0  0  0  0  0  0
  -28.3497  -20.9994   23.4374 C   0  0  0  0  0  0  0  0  0  0  0  0
  -28.3062  -19.7502   24.2384 C   0  0  0  0  0  0  0  0  0  0  0  0
  -34.0083  -23.6823   17.5844 C   0  0  0  0  0  0  0  0  0  0  0  0
  -35.0836  -20.6525   18.0168 C   0  0  0  0  0  0  0  0  0  0  0  0
  -34.9528  -17.7625   19.8271 C   0  0  0  0  0  0  0  0  0  0  0  0
  -30.7257  -14.7668   20.6568 C   0  0  0  0  0  0  0  0  0  0  0  0
  -34.3515  -27.9771   14.3747 C   0  0  0  0  0  0  0  0  0  0  0  0
  -34.6414  -23.7163   20.0245 C   0  0  0  0  0  0  0  0  0  0  0  0
  -33.0426  -21.3250   19.3386 C   0  0  0  0  0  0  0  0  0  0  0  0
  -33.9343  -26.5677   13.9676 C   0  0  0  0  0  0  0  0  0  0  0  0
  -29.6139  -12.3484   18.2920 C   0  0  0  0  0  0  0  0  0  0  0  0
  -34.4037  -25.5649   15.0109 C   0  0  0  0  0  0  0  0  0  0  0  0
  -28.1737  -12.0578   18.7204 C   0  0  0  0  0  0  0  0  0  0  0  0
  -30.5275  -12.5795   19.4943 C   0  0  0  0  0  0  0  0  0  0  0  0
  -28.6190  -13.3069   20.8718 C   0  0  0  0  0  0  0  0  0  0  0  0
  -33.7360  -25.8333   16.3656 C   0  0  1  0  0  0  0  0  0  0  0  0
  -34.7877  -23.0110   18.6797 C   0  0  1  0  0  0  0  0  0  0  0  0
  -27.6476  -13.1314   19.6931 C   0  0  2  0  0  0  0  0  0  0  0  0
  -35.5778  -15.4468   20.5650 C   0  0  0  0  0  0  0  0  0  0  0  0
  -33.2987  -19.8200   15.6863 C   0  0  0  0  0  0  0  0  0  0  0  0
  -33.5629  -17.4422   16.4243 C   0  0  0  0  0  0  0  0  0  0  0  0
  -35.5597  -18.7513   15.7022 C   0  0  0  0  0  0  0  0  0  0  0  0
  -36.9833  -18.7884   21.7201 C   0  0  0  0  0  0  0  0  0  0  0  0
  -29.5138  -20.9270   27.8616 C   0  0  0  0  0  0  0  0  0  0  0  0
  -34.4698  -19.2766   17.9222 C   0  0  1  0  0  0  0  0  0  0  0  0
  -36.0489  -16.8836   20.4021 C   0  0  2  0  0  0  0  0  0  0  0  0
  -34.2126  -18.8422   16.4516 C   0  0  0  0  0  0  0  0  0  0  0  0
  -25.8595  -11.5415   20.2899 N   0  0  0  0  0  0  0  0  0  0  0  0
  -29.9746  -19.6716   26.0107 N   0  0  0  0  0  0  0  0  0  0  0  0
  -26.2367  -12.8247   20.1594 N   0  0  0  0  0  0  0  0  0  0  0  0
  -34.3480  -21.6150   18.7228 N   0  0  0  0  0  0  0  0  0  0  0  0
  -29.9676  -13.6121   20.3689 N   0  0  0  0  0  0  0  0  0  0  0  0
  -25.4702  -15.0528   20.4020 N   0  0  0  0  0  0  0  0  0  0  0  0
  -21.8835  -12.5813   21.5951 N   0  0  0  0  0  0  0  0  0  0  0  0
  -30.0774  -15.6936   21.4725 N   0  0  0  0  0  0  0  0  0  0  0  0
  -34.3589  -25.0019   17.3719 N   0  0  0  0  0  0  0  0  0  0  0  0
  -35.3539  -18.3834   18.6631 N   0  0  0  0  0  0  0  0  0  0  0  0
  -36.4746  -17.3927   21.7364 N   0  3  0  0  0  0  0  0  0  0  0  0
  -22.6598  -14.7205   21.3118 O   0  0  0  0  0  0  0  0  0  0  0  0
  -27.3078  -19.0796   24.4507 O   0  0  0  0  0  0  0  0  0  0  0  0
  -33.1532  -23.0493   16.9762 O   0  0  0  0  0  0  0  0  0  0  0  0
  -36.1788  -20.8637   17.4899 O   0  0  0  0  0  0  0  0  0  0  0  0
  -33.8497  -17.8830   20.3555 O   0  0  0  0  0  0  0  0  0  0  0  0
  -31.8553  -14.9345   20.1902 O   0  0  0  0  0  0  0  0  0  0  0  0
  -27.1750  -21.4583   22.8842 O   0  0  0  0  0  0  0  0  0  0  0  0
  -21.6095   -7.0184   21.7140 O   0  0  0  0  0  0  0  0  0  0  0  0
  -29.6679  -22.7782   22.5694 O   0  0  0  0  0  0  0  0  0  1  0  0
  -29.0363  -20.5425   26.5817 O   0  0  0  0  0  0  0  0  0  0  0  0
  -16.4456   -6.8307   19.7896 F   0  0  0  0  0  0  0  0  0  0  0  0
  -33.9761  -17.5161   23.6048 F   0  0  0  0  0  0  0  0  0  0  0  0
  -20.8329   -5.0589   19.9252 F   0  0  0  0  0  0  0  0  0  0  0  0
  -32.4214  -19.2137   25.0619 F   0  0  0  0  0  0  0  0  0  0  0  0
  1  2  1  0  0  0  0
  1  5  2  0  0  0  0
  2  6  2  0  0  0  0
  3  8  2  0  0  0  0
  3 17  1  0  0  0  0
  4  9  1  0  0  0  0
  4 17  2  0  0  0  0
  5 20  1  0  0  0  0
  6 22  1  0  0  0  0
  7 10  2  0  0  0  0
  7 21  1  0  0  0  0
  8 25  1  0  0  0  0
  9 25  2  0  0  0  0
 10 26  1  0  0  0  0
 11 12  2  0  0  0  0
 11 27  1  0  0  0  0
 12 28  1  0  0  0  0
 13 18  1  0  0  0  0
 13 24  2  0  0  0  0
 14 23  1  0  0  0  0
 14 26  2  0  0  0  0
 15 24  1  0  0  0  0
 15 29  2  0  0  0  0
 16 28  2  0  0  0  0
 16 30  1  0  0  0  0
 17 32  1  0  0  0  0
 18 31  2  0  0  0  0
 18 35  1  0  0  0  0
 19 32  1  0  0  0  0
 19 33  2  0  0  0  0
 19 36  1  0  0  0  0
 20 22  2  0  0  0  0
 20 43  1  0  0  0  0
 21 23  2  0  0  0  0
 21 44  1  0  0  0  0
 22 52  1  0  0  0  0
 23 45  1  0  0  0  0
 24 71  1  0  0  0  0
 25 82  1  0  0  0  0
 26 83  1  0  0  0  0
 27 30  2  0  0  0  0
 27 82  1  0  0  0  0
 28 85  1  0  0  0  0
 29 31  1  0  0  0  0
 29 86  1  0  0  0  0
 30 87  1  0  0  0  0
 31 88  1  0  0  0  0
 32 64  2  0  0  0  0
 33 66  1  0  0  0  0
 33 69  1  0  0  0  0
 34 37  2  0  0  0  0
 34 83  1  0  0  0  0
 35 38  1  0  0  0  0
 35 65  2  0  0  0  0
 36 70  1  0  0  0  0
 36 75  2  0  0  0  0
 37 38  1  0  0  0  0
 37 81  1  0  0  0  0
 38 76  2  0  0  0  0
 39 53  1  0  0  0  0
 39 72  1  0  0  0  0
 39 77  2  0  0  0  0
 40 61  1  0  0  0  0
 40 67  1  0  0  0  0
 40 78  2  0  0  0  0
 41 62  1  0  0  0  0
 41 73  1  0  0  0  0
 41 79  2  0  0  0  0
 42 68  1  0  0  0  0
 42 71  1  0  0  0  0
 42 80  2  0  0  0  0
 43 46  1  0  0  0  0
 44 53  1  0  0  0  0
 45 67  1  0  0  0  0
 46 48  1  0  0  0  0
 47 49  1  0  0  0  0
 47 50  1  0  0  0  0
 48 52  1  0  0  0  0
 49 54  1  0  0  0  0
 50 68  1  0  0  0  0
 51 54  1  0  0  0  0
 51 68  1  0  0  0  0
 52 72  1  0  0  0  0
 53 67  1  0  0  0  0
 54 66  1  0  0  0  0
 55 62  1  0  0  0  0
 56 63  1  0  0  0  0
 57 63  1  0  0  0  0
 58 63  1  0  0  0  0
 59 74  1  0  0  0  0
 60 84  1  0  0  0  0
 61 63  1  0  0  0  0
 61 73  1  0  0  0  0
 62 74  1  0  0  0  0
 64 66  1  0  0  0  0
 65 84  1  0  0  0  0
M  CHG  1  74   1
M  ISO  4  34 101  42 100  71 100  83 101
M  END
> <Batch ID>
0167

> <Smiles>
CNC(C)C(=O)NC(C(=O)N1Cc2cc([101O:1][101CH2:1]C(=O)C(=O)C(=NOC)c3cc([100NH:0][100C:0](=O)N4CCCC(n5nc(-c6ccc(Oc7ccc(F)cc7F)cc6)c(C(N)=O)c5N)C4)cc(F)c3F)ccc2CC1C(=O)NC1CCCc2ccccc21)C(C)(C)C

> <Shape>
0.152

> <Color>
0.187

> <Negative vol penalty>
0.000

$$$$

  -OEChem-04052304113D

 89 97  0     1  0  0  0  0  0999 V2000
  -26.1634  -35.6744   22.7870 C   0  0  0  0  0  0  0  0  0  0  0  0
  -26.7014  -34.4060   22.5943 C   0  0  0  0  0  0  0  0  0  0  0  0
  -24.1240   -9.5657   21.2888 C   0  0  0  0  0  0  0  0  0  0  0  0
  -24.2840  -10.5458   23.4913 C   0  0  0  0  0  0  0  0  0  0  0  0
  -24.9184  -35.8169   23.3982 C   0  0  0  0  0  0  0  0  0  0  0  0
  -25.9951  -33.2793   23.0137 C   0  0  0  0  0  0  0  0  0  0  0  0
  -25.9978  -29.5843   19.5508 C   0  0  0  0  0  0  0  0  0  0  0  0
  -23.6247   -8.3897   21.8483 C   0  0  0  0  0  0  0  0  0  0  0  0
  -23.7846   -9.3697   24.0508 C   0  0  0  0  0  0  0  0  0  0  0  0
  -27.1535  -28.8116   19.4450 C   0  0  0  0  0  0  0  0  0  0  0  0
  -20.6742   -7.2626   23.0556 C   0  0  0  0  0  0  0  0  0  0  0  0
  -19.5697   -6.6712   22.4427 C   0  0  0  0  0  0  0  0  0  0  0  0
  -26.1068  -27.0777   20.7555 C   0  0  0  0  0  0  0  0  0  0  0  0
  -27.7980  -19.4956   21.3736 C   0  0  0  0  0  0  0  0  0  0  0  0
  -20.8602   -4.6666   22.0510 C   0  0  0  0  0  0  0  0  0  0  0  0
  -29.7770  -19.2432   20.0787 C   0  0  0  0  0  0  0  0  0  0  0  0
  -24.4538  -10.6438   22.1103 C   0  0  0  0  0  0  0  0  0  0  0  0
  -24.2299  -12.9718   21.0916 C   0  0  0  0  0  0  0  0  0  0  0  0
  -24.1922  -34.6908   23.8166 C   0  0  0  0  0  0  0  0  0  0  0  0
  -24.8900  -29.1133   20.2701 C   0  0  0  0  0  0  0  0  0  0  0  0
  -24.7398  -33.4068   23.6323 C   0  0  0  0  0  0  0  0  0  0  0  0
  -24.9374  -27.8452   20.8667 C   0  0  0  0  0  0  0  0  0  0  0  0
  -27.6652  -20.7825   20.8640 C   0  0  0  0  0  0  0  0  0  0  0  0
  -28.8712  -18.7048   20.9785 C   0  0  0  0  0  0  0  0  0  0  0  0
  -23.4549   -8.2917   23.2293 C   0  0  0  0  0  0  0  0  0  0  0  0
  -27.2092  -27.5593   20.0499 C   0  0  0  0  0  0  0  0  0  0  0  0
  -21.8719   -6.5560   23.1662 C   0  0  0  0  0  0  0  0  0  0  0  0
  -19.6626   -5.3732   21.9404 C   0  0  0  0  0  0  0  0  0  0  0  0
  -21.9649   -5.2581   22.6639 C   0  0  0  0  0  0  0  0  0  0  0  0
  -24.9702  -11.8587   21.5329 C   0  0  0  0  0  0  0  0  0  0  0  0
  -28.6251  -21.2279   19.9695 C   0  0  0  0  0  0  0  0  0  0  0  0
  -25.1772  -13.8536   20.6314 C   0  0  0  0  0  0  0  0  0  0  0  0
  -22.8128  -13.1894   21.0972 C   0  0  0  0  0  0  0  0  0  0  0  0
  -28.8728  -24.5296   18.1824 C   0  0  0  0  0  0  0  0  0  0  0  0
  -29.3426  -23.1501   18.5437 C   0  0  0  0  0  0  0  0  0  0  0  0
  -23.3075  -30.0925   22.8470 C   0  0  0  0  0  0  0  0  0  0  0  0
  -21.3106  -27.6581   22.0668 C   0  0  0  0  0  0  0  0  0  0  0  0
  -20.8689  -24.6674   20.4833 C   0  0  0  0  0  0  0  0  0  0  0  0
  -30.0521  -16.4883   21.1760 C   0  0  0  0  0  0  0  0  0  0  0  0
  -22.8716  -34.8971   24.5153 C   0  0  0  0  0  0  0  0  0  0  0  0
  -23.6412  -29.9476   20.3522 C   0  0  0  0  0  0  0  0  0  0  0  0
  -23.7679  -27.2853   21.6331 C   0  0  0  0  0  0  0  0  0  0  0  0
  -22.0191  -33.6332   24.5922 C   0  0  0  0  0  0  0  0  0  0  0  0
  -30.1242  -13.2191   19.7673 C   0  0  0  0  0  0  0  0  0  0  0  0
  -22.8631  -32.4469   25.0474 C   0  0  0  0  0  0  0  0  0  0  0  0
  -28.7288  -12.6653   20.0648 C   0  0  0  0  0  0  0  0  0  0  0  0
  -30.6443  -14.0896   20.9099 C   0  0  0  0  0  0  0  0  0  0  0  0
  -28.3464  -14.6163   21.6251 C   0  0  0  0  0  0  0  0  0  0  0  0
  -23.9929  -32.1591   24.0512 C   0  0  1  0  0  0  0  0  0  0  0  0
  -22.7586  -29.5865   21.5430 C   0  0  1  0  0  0  0  0  0  0  0  0
  -27.7534  -13.7860   20.4750 C   0  0  2  0  0  0  0  0  0  0  0  0
  -19.1371  -22.9030   20.0532 C   0  0  0  0  0  0  0  0  0  0  0  0
  -26.6692  -21.1868   23.7678 C   0  0  0  0  0  0  0  0  0  0  0  0
  -27.9133  -23.1332   22.8259 C   0  0  0  0  0  0  0  0  0  0  0  0
  -25.4124  -23.1981   22.9939 C   0  0  0  0  0  0  0  0  0  0  0  0
  -21.6581  -26.6258   24.9170 C   0  0  0  0  0  0  0  0  0  0  0  0
  -20.7188  -24.4312   24.1623 C   0  0  0  0  0  0  0  0  0  0  0  0
  -19.3208  -26.4934   24.0372 C   0  0  0  0  0  0  0  0  0  0  0  0
  -21.0109  -25.0772   17.5557 C   0  0  0  0  0  0  0  0  0  0  0  0
  -26.5142  -21.6285   21.2909 C   0  0  0  0  0  0  0  0  0  0  0  0
  -29.8392  -25.6612   18.4555 C   0  0  0  0  0  0  0  0  0  0  0  0
  -29.1241  -26.9664   18.7702 C   0  0  0  0  0  0  0  0  0  1  0  0
  -21.2305  -26.1898   22.4084 C   0  0  1  0  0  0  0  0  0  0  0  0
  -19.7863  -24.1782   19.5383 C   0  0  2  0  0  0  0  0  0  0  0  0
  -26.6262  -22.2997   22.6993 C   0  0  0  0  0  0  0  0  0  0  0  0
  -20.7550  -25.9461   23.8685 C   0  0  0  0  0  0  0  0  0  0  0  0
  -29.6812  -20.4888   19.5622 N   0  0  0  0  0  0  0  0  0  0  0  0
  -26.2862  -12.0163   21.3677 N   0  0  0  0  0  0  0  0  0  0  0  0
  -26.3803  -13.2388   20.8174 N   0  0  0  0  0  0  0  0  0  0  0  0
  -22.5717  -28.1416   21.6904 N   0  0  0  0  0  0  0  0  0  0  0  0
  -29.6699  -15.1316   21.2410 N   0  0  0  0  0  0  0  0  0  0  0  0
  -25.0900  -15.0870   20.0897 N   0  0  0  0  0  0  0  0  0  0  0  0
  -21.9839  -12.1801   21.6057 N   0  0  0  0  0  0  0  0  0  0  0  0
  -29.0327  -17.3897   21.4807 N   0  0  0  0  0  0  0  0  0  0  0  0
  -28.4998  -22.5352   19.4443 N   0  0  0  0  0  0  0  0  0  0  0  0
  -23.4788  -31.4630   22.8912 N   0  0  0  0  0  0  0  0  0  0  0  0
  -20.3786  -25.5804   21.3929 N   0  0  0  0  0  0  0  0  0  0  0  0
  -20.3605  -23.9023   18.1911 N   0  3  0  0  0  0  0  0  0  0  0  0
  -22.2957  -14.2407   20.6491 O   0  0  0  0  0  0  0  0  0  0  0  0
  -27.7597  -24.6303   17.6891 O   0  0  0  0  0  0  0  0  0  0  0  0
  -30.3576  -22.7571   17.9931 O   0  0  0  0  0  0  0  0  0  0  0  0
  -23.5556  -29.2986   23.7468 O   0  0  0  0  0  0  0  0  0  0  0  0
  -20.2904  -28.3490   22.1247 O   0  0  0  0  0  0  0  0  0  0  0  0
  -22.0324  -24.2758   20.4231 O   0  0  0  0  0  0  0  0  0  0  0  0
  -31.1917  -16.8263   20.8460 O   0  0  0  0  0  0  0  0  0  0  0  0
  -22.9674   -7.1443   23.7757 O   0  0  0  0  0  0  0  0  0  0  0  0
  -28.3362  -26.8034   19.9488 O   0  0  0  0  0  0  0  0  0  1  0  0
  -18.6013   -4.8048   21.3533 F   0  0  0  0  0  0  0  0  0  0  0  0
  -23.1124   -4.5739   22.7683 F   0  0  0  0  0  0  0  0  0  0  0  0
  1  2  1  0  0  0  0
  1  5  2  0  0  0  0
  2  6  2  0  0  0  0
  3  8  2  0  0  0  0
  3 17  1  0  0  0  0
  4  9  1  0  0  0  0
  4 17  2  0  0  0  0
  5 19  1  0  0  0  0
  6 21  1  0  0  0  0
  7 10  2  0  0  0  0
  7 20  1  0  0  0  0
  8 25  1  0  0  0  0
  9 25  2  0  0  0  0
 10 26  1  0  0  0  0
 11 12  2  0  0  0  0
 11 27  1  0  0  0  0
 12 28  1  0  0  0  0
 13 22  1  0  0  0  0
 13 26  2  0  0  0  0
 14 23  1  0  0  0  0
 14 24  2  0  0  0  0
 15 28  2  0  0  0  0
 15 29  1  0  0  0  0
 16 24  1  0  0  0  0
 16 67  2  0  0  0  0
 17 30  1  0  0  0  0
 18 30  1  0  0  0  0
 18 32  2  0  0  0  0
 18 33  1  0  0  0  0
 19 21  2  0  0  0  0
 19 40  1  0  0  0  0
 20 22  2  0  0  0  0
 20 41  1  0  0  0  0
 21 49  1  0  0  0  0
 22 42  1  0  0  0  0
 23 31  2  0  0  0  0
 23 60  1  0  0  0  0
 24 74  1  0  0  0  0
 25 86  1  0  0  0  0
 26 87  1  0  0  0  0
 27 29  2  0  0  0  0
 27 86  1  0  0  0  0
 28 88  1  0  0  0  0
 29 89  1  0  0  0  0
 30 68  2  0  0  0  0
 31 67  1  0  0  0  0
 31 75  1  0  0  0  0
 32 69  1  0  0  0  0
 32 72  1  0  0  0  0
 33 73  1  0  0  0  0
 33 79  2  0  0  0  0
 34 35  1  0  0  0  0
 34 61  1  0  0  0  0
 34 80  2  0  0  0  0
 35 75  1  0  0  0  0
 35 81  2  0  0  0  0
 36 50  1  0  0  0  0
 36 76  1  0  0  0  0
 36 82  2  0  0  0  0
 37 63  1  0  0  0  0
 37 70  1  0  0  0  0
 37 83  2  0  0  0  0
 38 64  1  0  0  0  0
 38 77  1  0  0  0  0
 38 84  2  0  0  0  0
 39 71  1  0  0  0  0
 39 74  1  0  0  0  0
 39 85  2  0  0  0  0
 40 43  1  0  0  0  0
 41 50  1  0  0  0  0
 42 70  1  0  0  0  0
 43 45  1  0  0  0  0
 44 46  1  0  0  0  0
 44 47  1  0  0  0  0
 45 49  1  0  0  0  0
 46 51  1  0  0  0  0
 47 71  1  0  0  0  0
 48 51  1  0  0  0  0
 48 71  1  0  0  0  0
 49 76  1  0  0  0  0
 50 70  1  0  0  0  0
 51 69  1  0  0  0  0
 52 64  1  0  0  0  0
 53 65  1  0  0  0  0
 54 65  1  0  0  0  0
 55 65  1  0  0  0  0
 56 66  1  0  0  0  0
 57 66  1  0  0  0  0
 58 66  1  0  0  0  0
 59 78  1  0  0  0  0
 60 65  1  0  0  0  0
 61 62  1  0  0  0  0
 62 87  1  0  0  0  0
 63 66  1  0  0  0  0
 63 77  1  0  0  0  0
 64 78  1  0  0  0  0
 68 69  1  0  0  0  0
M  CHG  1  78   1
M  ISO  4  39 100  62 101  74 100  87 101
M  END
> <Batch ID>
0167

> <Smiles>
CNC(C)C(=O)NC(C(=O)N1Cc2cc([101O:1][101CH2:1]CC(=O)C(=O)Nc3ncc([100NH:0][100C:0](=O)N4CCCC(n5nc(-c6ccc(Oc7ccc(F)cc7F)cc6)c(C(N)=O)c5N)C4)cc3CC(C)(C)C)ccc2CC1C(=O)NC1CCCc2ccccc21)C(C)(C)C

> <Shape>
0.367

> <Color>
0.160

> <Negative vol penalty>
0.000

$$$$

  -OEChem-04052304113D

 89 97  0     1  0  0  0  0  0999 V2000
  -30.0566  -32.3366   24.8442 C   0  0  0  0  0  0  0  0  0  0  0  0
  -29.7636  -31.1428   24.1928 C   0  0  0  0  0  0  0  0  0  0  0  0
  -18.6967  -16.4425   25.2282 C   0  0  0  0  0  0  0  0  0  0  0  0
  -20.3357  -18.1511   24.7472 C   0  0  0  0  0  0  0  0  0  0  0  0
  -29.0446  -33.0409   25.4951 C   0  0  0  0  0  0  0  0  0  0  0  0
  -28.4584  -30.6520   24.1929 C   0  0  0  0  0  0  0  0  0  0  0  0
  -26.9983  -29.0148   19.6286 C   0  0  0  0  0  0  0  0  0  0  0  0
  -29.2047  -14.7440   20.6047 C   0  0  0  0  0  0  0  0  0  0  0  0
  -27.8971  -14.2599   20.5680 C   0  0  0  0  0  0  0  0  0  0  0  0
  -18.4858  -16.9997   26.4894 C   0  0  0  0  0  0  0  0  0  0  0  0
  -20.1248  -18.7084   26.0084 C   0  0  0  0  0  0  0  0  0  0  0  0
  -27.4610  -27.7638   19.2229 C   0  0  0  0  0  0  0  0  0  0  0  0
  -21.0564  -18.0802   29.1972 C   0  0  0  0  0  0  0  0  0  0  0  0
  -22.1789  -18.4458   29.9401 C   0  0  0  0  0  0  0  0  0  0  0  0
  -25.3440  -26.7867   19.8418 C   0  0  0  0  0  0  0  0  0  0  0  0
  -27.0613  -16.5246   20.4708 C   0  0  0  0  0  0  0  0  0  0  0  0
  -21.4054  -20.7343   29.9825 C   0  0  0  0  0  0  0  0  0  0  0  0
  -19.6217  -17.0181   24.3571 C   0  0  0  0  0  0  0  0  0  0  0  0
  -19.1626  -16.7572   21.8614 C   0  0  0  0  0  0  0  0  0  0  0  0
  -27.7245  -32.5634   25.4949 C   0  0  0  0  0  0  0  0  0  0  0  0
  -25.7066  -29.1595   20.1550 C   0  0  0  0  0  0  0  0  0  0  0  0
  -27.4280  -31.3499   24.8455 C   0  0  0  0  0  0  0  0  0  0  0  0
  -24.8664  -28.0411   20.2511 C   0  0  0  0  0  0  0  0  0  0  0  0
  -29.4406  -16.1184   20.5745 C   0  0  0  0  0  0  0  0  0  0  0  0
  -26.8254  -15.1502   20.5011 C   0  0  0  0  0  0  0  0  0  0  0  0
  -28.3690  -17.0087   20.5075 C   0  0  0  0  0  0  0  0  0  0  0  0
  -19.1998  -18.1327   26.8795 C   0  0  0  0  0  0  0  0  0  0  0  0
  -26.6349  -26.6490   19.3321 C   0  0  0  0  0  0  0  0  0  0  0  0
  -20.1084  -19.0416   28.8469 C   0  0  0  0  0  0  0  0  0  0  0  0
  -22.3534  -19.7728   30.3328 C   0  0  0  0  0  0  0  0  0  0  0  0
  -20.2829  -20.3686   29.2396 C   0  0  0  0  0  0  0  0  0  0  0  0
  -19.8404  -16.4426   23.0544 C   0  0  0  0  0  0  0  0  0  0  0  0
  -19.7357  -15.9425   20.9157 C   0  0  0  0  0  0  0  0  0  0  0  0
  -18.1091  -17.7015   21.6287 C   0  0  0  0  0  0  0  0  0  0  0  0
  -24.5149  -30.0973   22.9486 C   0  0  0  0  0  0  0  0  0  0  0  0
  -28.1189  -20.7529   20.3900 C   0  0  0  0  0  0  0  0  0  0  0  0
  -27.5660  -23.1582   19.6409 C   0  0  0  0  0  0  0  0  0  0  0  0
  -21.6835  -29.8311   21.3884 C   0  0  0  0  0  0  0  0  0  0  0  0
  -19.9002  -28.4246   18.8411 C   0  0  0  0  0  0  0  0  0  0  0  0
  -25.0898  -13.3242   20.4874 C   0  0  0  0  0  0  0  0  0  0  0  0
  -26.6732  -33.3354   26.2523 C   0  0  0  0  0  0  0  0  0  0  0  0
  -25.2130  -30.5204   20.5633 C   0  0  0  0  0  0  0  0  0  0  0  0
  -23.4642  -28.1467   20.7906 C   0  0  0  0  0  0  0  0  0  0  0  0
  -25.2451  -32.9389   25.8870 C   0  0  0  0  0  0  0  0  0  0  0  0
  -21.9188  -11.7055   20.4503 C   0  0  0  0  0  0  0  0  0  0  0  0
  -25.1025  -31.4204   25.8617 C   0  0  0  0  0  0  0  0  0  0  0  0
  -20.9633  -12.7673   20.9996 C   0  0  0  0  0  0  0  0  0  0  0  0
  -23.2793  -11.7537   21.1435 C   0  0  0  0  0  0  0  0  0  0  0  0
  -22.9707  -14.1338   21.6996 C   0  0  0  0  0  0  0  0  0  0  0  0
  -26.0197  -30.7977   24.8023 C   0  0  1  0  0  0  0  0  0  0  0  0
  -24.0623  -30.4634   21.5634 C   0  0  1  0  0  0  0  0  0  0  0  0
  -21.6087  -14.1669   20.9871 C   0  0  2  0  0  0  0  0  0  0  0  0
  -17.5983  -28.3705   17.8433 C   0  0  0  0  0  0  0  0  0  0  0  0
  -20.7426  -28.0277   23.6628 C   0  0  0  0  0  0  0  0  0  0  0  0
  -18.8701  -27.2619   22.1878 C   0  0  0  0  0  0  0  0  0  0  0  0
  -19.0319  -29.6613   22.8508 C   0  0  0  0  0  0  0  0  0  0  0  0
  -20.8689  -29.4953   16.2576 C   0  0  0  0  0  0  0  0  0  0  0  0
  -27.1107  -21.8844   20.3246 C   0  0  0  0  0  0  0  0  0  0  0  0
  -27.5300  -19.3566   20.4098 C   0  0  0  0  0  0  0  0  0  0  0  0
  -26.5563  -24.2895   19.6188 C   0  0  0  0  0  0  0  0  0  1  0  0
  -20.6791  -28.7240   21.1774 C   0  0  1  0  0  0  0  0  0  0  0  0
  -18.9671  -29.0323   17.8093 C   0  0  2  0  0  0  0  0  0  0  0  0
  -30.8512  -16.6093   20.6146 C   0  0  0  0  0  0  0  0  0  0  0  0
  -19.8580  -28.4160   22.4613 C   0  0  0  0  0  0  0  0  0  0  0  0
  -20.7727  -15.5013   22.8849 N   0  0  0  0  0  0  0  0  0  0  0  0
  -20.6848  -15.2174   21.5743 N   0  0  0  0  0  0  0  0  0  0  0  0
  -23.0297  -29.4977   21.1824 N   0  0  0  0  0  0  0  0  0  0  0  0
  -23.8316  -13.1090   21.0885 N   0  0  0  0  0  0  0  0  0  0  0  0
  -19.5153  -15.7826   19.5935 N   0  0  0  0  0  0  0  0  0  0  0  0
  -17.6380  -18.4571   22.7111 N   0  0  0  0  0  0  0  0  0  0  0  0
  -25.4973  -14.6577   20.4644 N   0  0  0  0  0  0  0  0  0  0  0  0
  -28.5859  -18.3788   20.4776 N   0  0  0  0  0  0  0  0  0  0  0  0
  -25.4512  -30.9626   23.4817 N   0  0  0  0  0  0  0  0  0  0  0  0
  -19.8689  -29.1209   20.0308 N   0  0  0  0  0  0  0  0  0  0  0  0
  -19.5333  -28.8709   16.4402 N   0  3  0  0  0  0  0  0  0  0  0  0
  -17.5894  -17.8586   20.4979 O   0  0  0  0  0  0  0  0  0  0  0  0
  -24.0482  -29.1042   23.4940 O   0  0  0  0  0  0  0  0  0  0  0  0
  -29.3299  -20.9563   20.4629 O   0  0  0  0  0  0  0  0  0  0  0  0
  -28.6666  -23.2655   19.1026 O   0  0  0  0  0  0  0  0  0  0  0  0
  -21.2876  -30.9523   21.7167 O   0  0  0  0  0  0  0  0  0  0  0  0
  -20.5853  -27.4295   18.6155 O   0  0  0  0  0  0  0  0  0  0  0  0
  -25.7445  -12.3977   20.0027 O   0  0  0  0  0  0  0  0  0  0  0  0
  -18.9941  -18.6769   28.1100 O   0  0  0  0  0  0  0  0  0  0  0  0
  -27.0843  -25.4267   18.9374 O   0  0  0  0  0  0  0  0  0  1  0  0
  -23.4306  -20.1235   31.0475 F   0  0  0  0  0  0  0  0  0  0  0  0
  -19.3749  -21.2965   28.9071 F   0  0  0  0  0  0  0  0  0  0  0  0
  -31.7753  -15.6069   20.6787 F   0  0  0  0  0  0  0  0  0  0  0  0
  -31.2009  -17.3498   19.5227 F   0  0  0  0  0  0  0  0  0  0  0  0
  -31.0966  -17.4061   21.6940 F   0  0  0  0  0  0  0  0  0  0  0  0
  1  2  1  0  0  0  0
  1  5  2  0  0  0  0
  2  6  2  0  0  0  0
  3 10  2  0  0  0  0
  3 18  1  0  0  0  0
  4 11  1  0  0  0  0
  4 18  2  0  0  0  0
  5 20  1  0  0  0  0
  6 22  1  0  0  0  0
  7 12  2  0  0  0  0
  7 21  1  0  0  0  0
  8  9  2  0  0  0  0
  8 24  1  0  0  0  0
  9 25  1  0  0  0  0
 10 27  1  0  0  0  0
 11 27  2  0  0  0  0
 12 28  1  0  0  0  0
 13 14  2  0  0  0  0
 13 29  1  0  0  0  0
 14 30  1  0  0  0  0
 15 23  1  0  0  0  0
 15 28  2  0  0  0  0
 16 25  2  0  0  0  0
 16 26  1  0  0  0  0
 17 30  2  0  0  0  0
 17 31  1  0  0  0  0
 18 32  1  0  0  0  0
 19 32  1  0  0  0  0
 19 33  2  0  0  0  0
 19 34  1  0  0  0  0
 20 22  2  0  0  0  0
 20 41  1  0  0  0  0
 21 23  2  0  0  0  0
 21 42  1  0  0  0  0
 22 50  1  0  0  0  0
 23 43  1  0  0  0  0
 24 26  2  0  0  0  0
 24 63  1  0  0  0  0
 25 71  1  0  0  0  0
 26 72  1  0  0  0  0
 27 83  1  0  0  0  0
 28 84  1  0  0  0  0
 29 31  2  0  0  0  0
 29 83  1  0  0  0  0
 30 85  1  0  0  0  0
 31 86  1  0  0  0  0
 32 65  2  0  0  0  0
 33 66  1  0  0  0  0
 33 69  1  0  0  0  0
 34 70  1  0  0  0  0
 34 76  2  0  0  0  0
 35 51  1  0  0  0  0
 35 73  1  0  0  0  0
 35 77  2  0  0  0  0
 36 58  1  0  0  0  0
 36 59  1  0  0  0  0
 36 78  2  0  0  0  0
 37 58  1  0  0  0  0
 37 60  1  0  0  0  0
 37 79  2  0  0  0  0
 38 61  1  0  0  0  0
 38 67  1  0  0  0  0
 38 80  2  0  0  0  0
 39 62  1  0  0  0  0
 39 74  1  0  0  0  0
 39 81  2  0  0  0  0
 40 68  1  0  0  0  0
 40 71  1  0  0  0  0
 40 82  2  0  0  0  0
 41 44  1  0  0  0  0
 42 51  1  0  0  0  0
 43 67  1  0  0  0  0
 44 46  1  0  0  0  0
 45 47  1  0  0  0  0
 45 48  1  0  0  0  0
 46 50  1  0  0  0  0
 47 52  1  0  0  0  0
 48 68  1  0  0  0  0
 49 52  1  0  0  0  0
 49 68  1  0  0  0  0
 50 73  1  0  0  0  0
 51 67  1  0  0  0  0
 52 66  1  0  0  0  0
 53 62  1  0  0  0  0
 54 64  1  0  0  0  0
 55 64  1  0  0  0  0
 56 64  1  0  0  0  0
 57 75  1  0  0  0  0
 59 72  1  0  0  0  0
 60 84  1  0  0  0  0
 61 64  1  0  0  0  0
 61 74  1  0  0  0  0
 62 75  1  0  0  0  0
 63 87  1  0  0  0  0
 63 88  1  0  0  0  0
 63 89  1  0  0  0  0
 65 66  1  0  0  0  0
M  CHG  1  75   1
M  ISO  4  40 100  60 101  71 100  84 101
M  END
> <Batch ID>
0167

> <Smiles>
CNC(C)C(=O)NC(C(=O)N1Cc2cc([101O:1][101CH2:1]C(=O)CC(=O)CNc3cc([100NH:0][100C:0](=O)N4CCCC(n5nc(-c6ccc(Oc7ccc(F)cc7F)cc6)c(C(N)=O)c5N)C4)ccc3C(F)(F)F)ccc2CC1C(=O)NC1CCCc2ccccc21)C(C)(C)C

> <Shape>
0.269

> <Color>
0.081

> <Negative vol penalty>
0.000

$$$$

  -OEChem-04052304113D

 85 94  0     1  0  0  0  0  0999 V2000
  -15.2774  -29.0565   21.4078 C   0  0  0  0  0  0  0  0  0  0  0  0
  -16.0882  -28.6476   20.3551 C   0  0  0  0  0  0  0  0  0  0  0  0
  -22.6876  -10.1927   20.2043 C   0  0  0  0  0  0  0  0  0  0  0  0
  -24.2106   -9.6145   21.9884 C   0  0  0  0  0  0  0  0  0  0  0  0
  -15.7674  -29.0280   22.7118 C   0  0  0  0  0  0  0  0  0  0  0  0
  -17.3852  -28.1989   20.6071 C   0  0  0  0  0  0  0  0  0  0  0  0
  -31.3402  -19.0822   20.4827 C   0  0  0  0  0  0  0  0  0  0  0  0
  -24.6508  -25.4102   18.9769 C   0  0  0  0  0  0  0  0  0  0  0  0
  -31.1694  -17.6993   20.5460 C   0  0  0  0  0  0  0  0  0  0  0  0
  -21.9311   -9.0539   20.4809 C   0  0  0  0  0  0  0  0  0  0  0  0
  -23.4541   -8.4757   22.2651 C   0  0  0  0  0  0  0  0  0  0  0  0
  -25.9391  -25.2910   19.4963 C   0  0  0  0  0  0  0  0  0  0  0  0
  -20.5781   -7.7283   23.8745 C   0  0  0  0  0  0  0  0  0  0  0  0
  -20.2922   -7.4511   25.2113 C   0  0  0  0  0  0  0  0  0  0  0  0
  -25.0452  -24.1822   21.4432 C   0  0  0  0  0  0  0  0  0  0  0  0
  -29.6261  -19.3708   22.1607 C   0  0  0  0  0  0  0  0  0  0  0  0
  -21.4355   -5.3317   25.0163 C   0  0  0  0  0  0  0  0  0  0  0  0
  -23.8274  -10.4730   20.9579 C   0  0  0  0  0  0  0  0  0  0  0  0
  -24.1778  -12.9881   20.7153 C   0  0  0  0  0  0  0  0  0  0  0  0
  -30.5686  -19.9180   21.2901 C   0  0  0  0  0  0  0  0  0  0  0  0
  -17.0754  -28.5904   22.9777 C   0  0  0  0  0  0  0  0  0  0  0  0
  -23.5470  -24.9252   19.6931 C   0  0  0  0  0  0  0  0  0  0  0  0
  -17.8899  -28.1401   21.9187 C   0  0  0  0  0  0  0  0  0  0  0  0
  -23.7442  -24.2942   20.9296 C   0  0  0  0  0  0  0  0  0  0  0  0
  -30.2269  -17.1521   21.4166 C   0  0  0  0  0  0  0  0  0  0  0  0
  -22.3144   -8.1954   21.5113 C   0  0  0  0  0  0  0  0  0  0  0  0
  -26.1362  -24.6796   20.7309 C   0  0  0  0  0  0  0  0  0  0  0  0
  -21.2926   -6.8072   23.1085 C   0  0  0  0  0  0  0  0  0  0  0  0
  -20.7209   -6.2528   25.7822 C   0  0  0  0  0  0  0  0  0  0  0  0
  -29.4552  -17.9879   22.2239 C   0  0  0  0  0  0  0  0  0  0  0  0
  -21.7213   -5.6089   23.6794 C   0  0  0  0  0  0  0  0  0  0  0  0
  -24.6095  -11.6489   20.6723 C   0  0  0  0  0  0  0  0  0  0  0  0
  -25.2872  -13.7179   20.3644 C   0  0  0  0  0  0  0  0  0  0  0  0
  -29.5492  -23.6296   20.9598 C   0  0  0  0  0  0  0  0  0  0  0  0
  -22.8893  -13.5245   21.0434 C   0  0  0  0  0  0  0  0  0  0  0  0
  -20.9408  -26.2356   20.9559 C   0  0  0  0  0  0  0  0  0  0  0  0
  -20.1488  -23.1464   21.5493 C   0  0  0  0  0  0  0  0  0  0  0  0
  -21.8326  -20.1709   22.7019 C   0  0  0  0  0  0  0  0  0  0  0  0
  -30.7399  -14.7791   20.7445 C   0  0  0  0  0  0  0  0  0  0  0  0
  -17.5521  -28.5727   24.4086 C   0  0  0  0  0  0  0  0  0  0  0  0
  -22.1664  -25.0377   19.1069 C   0  0  0  0  0  0  0  0  0  0  0  0
  -22.5946  -23.7388   21.7287 C   0  0  0  0  0  0  0  0  0  0  0  0
  -29.4823  -22.1298   20.7616 C   0  0  0  0  0  0  0  0  0  0  0  0
  -19.0712  -28.5060   24.5284 C   0  0  0  0  0  0  0  0  0  0  0  0
  -29.7380  -12.2367   18.4621 C   0  0  0  0  0  0  0  0  0  0  0  0
  -19.6141  -27.3942   23.6431 C   0  0  0  0  0  0  0  0  0  0  0  0
  -28.2789  -11.9673   18.8372 C   0  0  0  0  0  0  0  0  0  0  0  0
  -31.1980  -22.0367   22.5470 C   0  0  0  0  0  0  0  0  0  0  0  0
  -31.5038  -23.5108   22.3310 C   0  0  0  0  0  0  0  0  0  0  0  0
  -30.5943  -12.5327   19.6920 C   0  0  0  0  0  0  0  0  0  0  0  0
  -28.6239  -13.3297   20.9376 C   0  0  0  0  0  0  0  0  0  0  0  0
  -30.7533  -21.4209   21.2207 C   0  0  1  0  0  0  0  0  0  0  0  0
  -19.3143  -27.6771   22.1656 C   0  0  1  0  0  0  0  0  0  0  0  0
  -21.0632  -24.9681   20.1583 C   0  0  1  0  0  0  0  0  0  0  0  0
  -27.7088  -13.0904   19.7256 C   0  0  2  0  0  0  0  0  0  0  0  0
  -21.3298  -17.7475   22.2875 C   0  0  0  0  0  0  0  0  0  0  0  0
  -18.6001  -23.3181   24.1727 C   0  0  0  0  0  0  0  0  0  0  0  0
  -19.4266  -21.0215   24.7302 C   0  0  0  0  0  0  0  0  0  0  0  0
  -17.9863  -21.3739   22.7242 C   0  0  0  0  0  0  0  0  0  0  0  0
  -24.5572  -19.6634   21.6636 C   0  0  0  0  0  0  0  0  0  0  0  0
  -28.4646  -24.4482   20.3054 C   0  0  0  0  0  0  0  0  0  1  0  0
  -20.3814  -22.1829   22.6880 C   0  0  1  0  0  0  0  0  0  0  0  0
  -22.1750  -18.9433   21.8771 C   0  0  2  0  0  0  0  0  0  0  0  0
  -19.1169  -21.9951   23.5731 C   0  0  0  0  0  0  0  0  0  0  0  0
  -25.8930  -11.5318   20.3214 N   0  0  0  0  0  0  0  0  0  0  0  0
  -30.4225  -24.2451   21.6773 N   0  0  0  0  0  0  0  0  0  0  0  0
  -26.2773  -12.8069   20.1407 N   0  0  0  0  0  0  0  0  0  0  0  0
  -21.2632  -23.8786   21.1161 N   0  0  0  0  0  0  0  0  0  0  0  0
  -29.9950  -13.6096   20.4832 N   0  0  0  0  0  0  0  0  0  0  0  0
  -25.5026  -15.0436   20.2282 N   0  0  0  0  0  0  0  0  0  0  0  0
  -22.6190  -13.8427   22.3813 N   0  0  0  0  0  0  0  0  0  0  0  0
  -30.0551  -15.7470   21.4784 N   0  0  0  0  0  0  0  0  0  0  0  0
  -19.6555  -26.5098   21.3828 N   0  0  0  0  0  0  0  0  0  0  0  0
  -20.8771  -20.9504   22.0850 N   0  0  0  0  0  0  0  0  0  0  0  0
  -23.6112  -18.5858   22.0521 N   0  3  0  0  0  0  0  0  0  0  0  0
  -21.9981  -13.7006   20.1783 O   0  0  0  0  0  0  0  0  0  0  0  0
  -21.9389  -26.9138   21.1696 O   0  0  0  0  0  0  0  0  0  0  0  0
  -19.0214  -23.2406   21.0576 O   0  0  0  0  0  0  0  0  0  0  0  0
  -22.3574  -20.4122   23.7867 O   0  0  0  0  0  0  0  0  0  0  0  0
  -31.8905  -14.9233   20.3233 O   0  0  0  0  0  0  0  0  0  0  0  0
  -21.5763   -7.0842   21.7817 O   0  0  0  0  0  0  0  0  0  0  0  0
  -27.3926  -24.5625   21.2404 O   0  0  0  0  0  0  0  0  0  1  0  0
  -20.4476   -5.9874   27.0663 F   0  0  0  0  0  0  0  0  0  0  0  0
  -28.5453  -17.4730   23.0633 F   0  0  0  0  0  0  0  0  0  0  0  0
  -22.4092   -4.7206   22.9489 F   0  0  0  0  0  0  0  0  0  0  0  0
  1  2  1  0  0  0  0
  1  5  2  0  0  0  0
  2  6  2  0  0  0  0
  3 10  2  0  0  0  0
  3 18  1  0  0  0  0
  4 11  1  0  0  0  0
  4 18  2  0  0  0  0
  5 21  1  0  0  0  0
  6 23  1  0  0  0  0
  7  9  2  0  0  0  0
  7 20  1  0  0  0  0
  8 12  2  0  0  0  0
  8 22  1  0  0  0  0
  9 25  1  0  0  0  0
 10 26  1  0  0  0  0
 11 26  2  0  0  0  0
 12 27  1  0  0  0  0
 13 14  2  0  0  0  0
 13 28  1  0  0  0  0
 14 29  1  0  0  0  0
 15 24  1  0  0  0  0
 15 27  2  0  0  0  0
 16 20  2  0  0  0  0
 16 30  1  0  0  0  0
 17 29  2  0  0  0  0
 17 31  1  0  0  0  0
 18 32  1  0  0  0  0
 19 32  1  0  0  0  0
 19 33  2  0  0  0  0
 19 35  1  0  0  0  0
 20 52  1  0  0  0  0
 21 23  2  0  0  0  0
 21 40  1  0  0  0  0
 22 24  2  0  0  0  0
 22 41  1  0  0  0  0
 23 53  1  0  0  0  0
 24 42  1  0  0  0  0
 25 30  2  0  0  0  0
 25 72  1  0  0  0  0
 26 81  1  0  0  0  0
 27 82  1  0  0  0  0
 28 31  2  0  0  0  0
 28 81  1  0  0  0  0
 29 83  1  0  0  0  0
 30 84  1  0  0  0  0
 31 85  1  0  0  0  0
 32 65  2  0  0  0  0
 33 67  1  0  0  0  0
 33 70  1  0  0  0  0
 34 43  1  0  0  0  0
 34 61  1  0  0  0  0
 34 66  2  0  0  0  0
 35 71  1  0  0  0  0
 35 76  2  0  0  0  0
 36 54  1  0  0  0  0
 36 73  1  0  0  0  0
 36 77  2  0  0  0  0
 37 62  1  0  0  0  0
 37 68  1  0  0  0  0
 37 78  2  0  0  0  0
 38 63  1  0  0  0  0
 38 74  1  0  0  0  0
 38 79  2  0  0  0  0
 39 69  1  0  0  0  0
 39 72  1  0  0  0  0
 39 80  2  0  0  0  0
 40 44  1  0  0  0  0
 41 54  1  0  0  0  0
 42 68  1  0  0  0  0
 43 52  1  0  0  0  0
 44 46  1  0  0  0  0
 45 47  1  0  0  0  0
 45 50  1  0  0  0  0
 46 53  1  0  0  0  0
 47 55  1  0  0  0  0
 48 49  1  0  0  0  0
 48 52  1  0  0  0  0
 49 66  1  0  0  0  0
 50 69  1  0  0  0  0
 51 55  1  0  0  0  0
 51 69  1  0  0  0  0
 53 73  1  0  0  0  0
 54 68  1  0  0  0  0
 55 67  1  0  0  0  0
 56 63  1  0  0  0  0
 57 64  1  0  0  0  0
 58 64  1  0  0  0  0
 59 64  1  0  0  0  0
 60 75  1  0  0  0  0
 61 82  1  0  0  0  0
 62 64  1  0  0  0  0
 62 74  1  0  0  0  0
 63 75  1  0  0  0  0
 65 67  1  0  0  0  0
M  CHG  1  75   1
M  ISO  4  39 100  61 101  72 100  82 101
M  END
> <Batch ID>
0167

> <Smiles>
CNC(C)C(=O)NC(C(=O)N1Cc2cc([101O:1][101CH2:1]C3=NCCC(c4ccc([100NH:0][100C:0](=O)N5CCCC(n6nc(-c7ccc(Oc8ccc(F)cc8F)cc7)c(C(N)=O)c6N)C5)c(F)c4)C3)ccc2CC1C(=O)NC1CCCc2ccccc21)C(C)(C)C

> <Shape>
0.276

> <Color>
0.175

> <Negative vol penalty>
0.000

$$$$

  -OEChem-04052304113D

 87 95  0     1  0  0  0  0  0999 V2000
  -30.2842  -23.9701   26.0395 C   0  0  0  0  0  0  0  0  0  0  0  0
  -30.6082  -24.5026   24.7958 C   0  0  0  0  0  0  0  0  0  0  0  0
  -26.2702  -13.0846   21.6519 C   0  0  0  0  0  0  0  0  0  0  0  0
  -25.8213  -14.0252   19.4722 C   0  0  0  0  0  0  0  0  0  0  0  0
  -28.5749  -22.5134   16.4383 C   0  0  0  0  0  0  0  0  0  0  0  0
  -28.9917  -23.5075   26.2831 C   0  0  0  0  0  0  0  0  0  0  0  0
  -29.6401  -24.5718   23.7945 C   0  0  0  0  0  0  0  0  0  0  0  0
  -27.6327  -28.6261   18.2403 C   0  0  0  0  0  0  0  0  0  0  0  0
  -25.0440  -12.4207   21.6180 C   0  0  0  0  0  0  0  0  0  0  0  0
  -24.5950  -13.3613   19.4383 C   0  0  0  0  0  0  0  0  0  0  0  0
  -27.3303  -28.5206   16.8834 C   0  0  0  0  0  0  0  0  0  0  0  0
  -22.1919  -10.1910   21.9484 C   0  0  0  0  0  0  0  0  0  0  0  0
  -22.1669   -8.8542   22.3458 C   0  0  0  0  0  0  0  0  0  0  0  0
  -28.5498  -21.5417   17.4324 C   0  0  0  0  0  0  0  0  0  0  0  0
  -25.1093  -27.7638   17.4436 C   0  0  0  0  0  0  0  0  0  0  0  0
  -23.7294   -8.3024   20.5875 C   0  0  0  0  0  0  0  0  0  0  0  0
  -26.6589  -13.8869   20.5790 C   0  0  0  0  0  0  0  0  0  0  0  0
  -29.0497  -23.7872   16.7307 C   0  0  0  0  0  0  0  0  0  0  0  0
  -29.1652  -14.0936   20.1510 C   0  0  0  0  0  0  0  0  0  0  0  0
  -28.0047  -23.5799   25.2875 C   0  0  0  0  0  0  0  0  0  0  0  0
  -26.6777  -28.2904   19.2107 C   0  0  0  0  0  0  0  0  0  0  0  0
  -28.3336  -24.1084   24.0246 C   0  0  0  0  0  0  0  0  0  0  0  0
  -25.4013  -27.8684   18.8121 C   0  0  0  0  0  0  0  0  0  0  0  0
  -24.2064  -12.5591   20.5112 C   0  0  0  0  0  0  0  0  0  0  0  0
  -26.0693  -28.0866   16.4849 C   0  0  0  0  0  0  0  0  0  0  0  0
  -22.9855  -10.5836   20.8705 C   0  0  0  0  0  0  0  0  0  0  0  0
  -22.9357   -7.9099   21.6654 C   0  0  0  0  0  0  0  0  0  0  0  0
  -23.7543   -9.6392   20.1901 C   0  0  0  0  0  0  0  0  0  0  0  0
  -27.9252  -14.5734   20.6137 C   0  0  0  0  0  0  0  0  0  0  0  0
  -29.0070  -21.8914   18.6928 C   0  0  0  0  0  0  0  0  0  0  0  0
  -29.4843  -24.0364   18.0225 C   0  0  0  0  0  0  0  0  0  0  0  0
  -30.0466  -15.1149   20.4093 C   0  0  0  0  0  0  0  0  0  0  0  0
  -29.0762  -24.8186   15.6743 C   0  0  0  0  0  0  0  0  0  0  0  0
  -29.4912  -12.8371   19.5421 C   0  0  0  0  0  0  0  0  0  0  0  0
  -26.4995  -26.1194   21.5257 C   0  0  0  0  0  0  0  0  0  0  0  0
  -23.9721  -26.7633   14.1578 C   0  0  0  0  0  0  0  0  0  0  0  0
  -23.7659  -27.7013   22.2655 C   0  0  0  0  0  0  0  0  0  0  0  0
  -21.2107  -29.7118   21.2285 C   0  0  0  0  0  0  0  0  0  0  0  0
  -29.3832  -21.0211   21.0268 C   0  0  0  0  0  0  0  0  0  0  0  0
  -26.6341  -23.0237   25.5822 C   0  0  0  0  0  0  0  0  0  0  0  0
  -27.0109  -28.4352   20.6703 C   0  0  0  0  0  0  0  0  0  0  0  0
  -24.3339  -27.5153   19.8144 C   0  0  0  0  0  0  0  0  0  0  0  0
  -25.5665  -23.4770   24.5898 C   0  0  0  0  0  0  0  0  0  0  0  0
  -30.7633  -18.7719   23.4171 C   0  0  0  0  0  0  0  0  0  0  0  0
  -26.0749  -23.3380   23.1583 C   0  0  0  0  0  0  0  0  0  0  0  0
  -30.3101  -17.3958   22.9239 C   0  0  0  0  0  0  0  0  0  0  0  0
  -29.6921  -19.8370   23.1895 C   0  0  0  0  0  0  0  0  0  0  0  0
  -28.7340  -18.5497   21.3203 C   0  0  0  0  0  0  0  0  0  0  0  0
  -27.3044  -24.2232   22.9211 C   0  0  1  0  0  0  0  0  0  0  0  0
  -26.1308  -27.5753   21.5722 C   0  0  1  0  0  0  0  0  0  0  0  0
  -29.8051  -17.4568   21.4690 C   0  0  2  0  0  0  0  0  0  0  0  0
  -23.1220  -25.5273   14.3079 C   0  0  0  0  0  0  0  0  0  0  0  0
  -19.1058  -30.8040   22.0495 C   0  0  0  0  0  0  0  0  0  0  0  0
  -22.3240  -25.0155   22.1342 C   0  0  0  0  0  0  0  0  0  0  0  0
  -20.1571  -26.2636   22.0116 C   0  0  0  0  0  0  0  0  0  0  0  0
  -21.6127  -26.4901   24.0248 C   0  0  0  0  0  0  0  0  0  0  0  0
  -22.2602  -32.4217   20.6679 C   0  0  0  0  0  0  0  0  0  0  0  0
  -26.3713  -26.2727   13.5699 C   0  0  0  0  0  0  0  0  0  0  0  0
  -27.8187  -26.1753   14.0389 C   0  0  0  0  0  0  0  0  0  0  0  0
  -25.4027  -26.6908   14.6784 C   0  0  1  0  0  0  0  0  0  1  0  0
  -22.3176  -27.5823   21.8563 C   0  0  1  0  0  0  0  0  0  0  0  0
  -20.6031  -30.9631   21.8364 C   0  0  2  0  0  0  0  0  0  0  0  0
  -21.6234  -26.3426   22.4876 C   0  0  0  0  0  0  0  0  0  0  0  0
  -28.0074  -15.8037   21.1271 N   0  0  0  0  0  0  0  0  0  0  0  0
  -29.4752  -23.1181   19.0146 N   0  0  0  0  0  0  0  0  0  0  0  0
  -29.3097  -16.1055   20.9887 N   0  0  0  0  0  0  0  0  0  0  0  0
  -24.7101  -27.6672   21.2296 N   0  0  0  0  0  0  0  0  0  0  0  0
  -29.2652  -19.8394   21.7886 N   0  0  0  0  0  0  0  0  0  0  0  0
  -29.9676  -25.3334   18.3271 N   0  0  0  0  0  0  0  0  0  0  0  0
  -31.3722  -15.2531   20.1951 N   0  0  0  0  0  0  0  0  0  0  0  0
  -30.2530  -25.3523   15.3468 N   0  0  0  0  0  0  0  0  0  0  0  0
  -28.4655  -11.9015   19.3504 N   0  0  0  0  0  0  0  0  0  0  0  0
  -28.9764  -20.8942   19.6990 N   0  0  0  0  0  0  0  0  0  0  0  0
  -26.9066  -25.6030   22.7410 N   0  0  0  0  0  0  0  0  0  0  0  0
  -21.6915  -28.8554   22.1963 N   0  0  0  0  0  0  0  0  0  0  0  0
  -27.9196  -25.1704   15.0975 N   0  3  0  0  0  0  0  0  0  0  0  0
  -20.8289  -32.1349   20.9437 N   0  3  0  0  0  0  0  0  0  0  0  0
  -30.6606  -12.5461   19.1938 O   0  0  0  0  0  0  0  0  0  0  0  0
  -26.4191  -25.5094   20.4659 O   0  0  0  0  0  0  0  0  0  0  0  0
  -23.5159  -27.7807   13.6354 O   0  0  0  0  0  0  0  0  0  0  0  0
  -24.0485  -27.8273   23.4596 O   0  0  0  0  0  0  0  0  0  0  0  0
  -21.2511  -29.5123   20.0164 O   0  0  0  0  0  0  0  0  0  0  0  0
  -29.8390  -22.0612   21.5089 O   0  0  0  0  0  0  0  0  0  0  0  0
  -23.0098  -11.9112   20.4777 O   0  0  0  0  0  0  0  0  0  0  0  0
  -25.7717  -27.9820   15.1611 O   0  0  0  0  0  0  0  0  0  1  0  0
  -22.9128   -6.6265   22.0481 F   0  0  0  0  0  0  0  0  0  0  0  0
  -24.5196  -10.0105   19.1546 F   0  0  0  0  0  0  0  0  0  0  0  0
  1  2  1  0  0  0  0
  1  6  2  0  0  0  0
  2  7  2  0  0  0  0
  3  9  2  0  0  0  0
  3 17  1  0  0  0  0
  4 10  1  0  0  0  0
  4 17  2  0  0  0  0
  5 14  2  0  0  0  0
  5 18  1  0  0  0  0
  6 20  1  0  0  0  0
  7 22  1  0  0  0  0
  8 11  2  0  0  0  0
  8 21  1  0  0  0  0
  9 24  1  0  0  0  0
 10 24  2  0  0  0  0
 11 25  1  0  0  0  0
 12 13  2  0  0  0  0
 12 26  1  0  0  0  0
 13 27  1  0  0  0  0
 14 30  1  0  0  0  0
 15 23  1  0  0  0  0
 15 25  2  0  0  0  0
 16 27  2  0  0  0  0
 16 28  1  0  0  0  0
 17 29  1  0  0  0  0
 18 31  2  0  0  0  0
 18 33  1  0  0  0  0
 19 29  1  0  0  0  0
 19 32  2  0  0  0  0
 19 34  1  0  0  0  0
 20 22  2  0  0  0  0
 20 40  1  0  0  0  0
 21 23  2  0  0  0  0
 21 41  1  0  0  0  0
 22 49  1  0  0  0  0
 23 42  1  0  0  0  0
 24 84  1  0  0  0  0
 25 85  1  0  0  0  0
 26 28  2  0  0  0  0
 26 84  1  0  0  0  0
 27 86  1  0  0  0  0
 28 87  1  0  0  0  0
 29 64  2  0  0  0  0
 30 65  2  0  0  0  0
 30 73  1  0  0  0  0
 31 65  1  0  0  0  0
 31 69  1  0  0  0  0
 32 66  1  0  0  0  0
 32 70  1  0  0  0  0
 33 71  1  0  0  0  0
 33 76  2  0  0  0  0
 34 72  1  0  0  0  0
 34 78  2  0  0  0  0
 35 50  1  0  0  0  0
 35 74  1  0  0  0  0
 35 79  2  0  0  0  0
 36 52  1  0  0  0  0
 36 60  1  0  0  0  0
 36 80  2  0  0  0  0
 37 61  1  0  0  0  0
 37 67  1  0  0  0  0
 37 81  2  0  0  0  0
 38 62  1  0  0  0  0
 38 75  1  0  0  0  0
 38 82  2  0  0  0  0
 39 68  1  0  0  0  0
 39 73  1  0  0  0  0
 39 83  2  0  0  0  0
 40 43  1  0  0  0  0
 41 50  1  0  0  0  0
 42 67  1  0  0  0  0
 43 45  1  0  0  0  0
 44 46  1  0  0  0  0
 44 47  1  0  0  0  0
 45 49  1  0  0  0  0
 46 51  1  0  0  0  0
 47 68  1  0  0  0  0
 48 51  1  0  0  0  0
 48 68  1  0  0  0  0
 49 74  1  0  0  0  0
 50 67  1  0  0  0  0
 51 66  1  0  0  0  0
 53 62  1  0  0  0  0
 54 63  1  0  0  0  0
 55 63  1  0  0  0  0
 56 63  1  0  0  0  0
 57 77  1  0  0  0  0
 58 59  1  0  0  0  0
 58 60  1  0  0  0  0
 59 76  1  0  0  0  0
 60 85  1  0  0  0  0
 61 63  1  0  0  0  0
 61 75  1  0  0  0  0
 62 77  1  0  0  0  0
 64 66  1  0  0  0  0
M  CHG  2  76   1  77   1
M  ISO  4  39 100  60 101  73 100  85 101
M  END
> <Batch ID>
0167

> <Smiles>
CNC(C)C(=O)NC(C(=O)N1Cc2cc([101O:1][101CH:1](CCNC(=N)c3ccc([100NH:0][100C:0](=O)N4CCCC(n5nc(-c6ccc(Oc7ccc(F)cc7F)cc6)c(C(N)=O)c5N)C4)nc3N)C(C)=O)ccc2CC1C(=O)NC1CCCc2ccccc21)C(C)(C)C

> <Shape>
0.240

> <Color>
0.087

> <Negative vol penalty>
0.000

$$$$

  -OEChem-04052304113D

 86 94  0     1  0  0  0  0  0999 V2000
  -23.3739  -32.7265   14.3537 C   0  0  0  0  0  0  0  0  0  0  0  0
  -24.3444  -31.9493   14.9778 C   0  0  0  0  0  0  0  0  0  0  0  0
  -19.0486  -25.6429   20.3301 C   0  0  0  0  0  0  0  0  0  0  0  0
  -21.4313  -25.8020   20.6967 C   0  0  0  0  0  0  0  0  0  0  0  0
  -22.7950  -33.7963   15.0350 C   0  0  0  0  0  0  0  0  0  0  0  0
  -24.7374  -32.2421   16.2832 C   0  0  0  0  0  0  0  0  0  0  0  0
  -25.0773  -28.1052   19.1841 C   0  0  0  0  0  0  0  0  0  0  0  0
  -18.8191  -26.3198   21.5278 C   0  0  0  0  0  0  0  0  0  0  0  0
  -21.2018  -26.4790   21.8945 C   0  0  0  0  0  0  0  0  0  0  0  0
  -26.2119  -27.3100   19.0287 C   0  0  0  0  0  0  0  0  0  0  0  0
  -17.6119  -28.3237   24.3103 C   0  0  0  0  0  0  0  0  0  0  0  0
  -16.6579  -29.3412   24.3076 C   0  0  0  0  0  0  0  0  0  0  0  0
  -26.4753  -19.7636   18.6320 C   0  0  0  0  0  0  0  0  0  0  0  0
  -27.8018  -17.9096   19.4320 C   0  0  0  0  0  0  0  0  0  0  0  0
  -27.1799  -28.3174   20.9952 C   0  0  0  0  0  0  0  0  0  0  0  0
  -25.5584  -17.5284   18.6201 C   0  0  0  0  0  0  0  0  0  0  0  0
  -17.9320  -30.5314   22.6351 C   0  0  0  0  0  0  0  0  0  0  0  0
  -20.3548  -25.3839   19.9145 C   0  0  0  0  0  0  0  0  0  0  0  0
  -27.6652  -19.2727   19.1693 C   0  0  0  0  0  0  0  0  0  0  0  0
  -20.7519  -25.2494   17.3982 C   0  0  0  0  0  0  0  0  0  0  0  0
  -23.1741  -34.0965   16.3529 C   0  0  0  0  0  0  0  0  0  0  0  0
  -24.9900  -29.0218   20.2417 C   0  0  0  0  0  0  0  0  0  0  0  0
  -24.1639  -33.3178   16.9824 C   0  0  0  0  0  0  0  0  0  0  0  0
  -26.0421  -29.1212   21.1633 C   0  0  0  0  0  0  0  0  0  0  0  0
  -25.4219  -18.8915   18.3574 C   0  0  0  0  0  0  0  0  0  0  0  0
  -19.8956  -26.7379   22.3100 C   0  0  0  0  0  0  0  0  0  0  0  0
  -27.2647  -27.4181   19.9326 C   0  0  0  0  0  0  0  0  0  0  0  0
  -18.7261  -28.4101   23.4755 C   0  0  0  0  0  0  0  0  0  0  0  0
  -16.8178  -30.4450   23.4700 C   0  0  0  0  0  0  0  0  0  0  0  0
  -26.7484  -17.0374   19.1574 C   0  0  0  0  0  0  0  0  0  0  0  0
  -18.8861  -29.5139   22.6378 C   0  0  0  0  0  0  0  0  0  0  0  0
  -20.5925  -24.6841   18.6776 C   0  0  0  0  0  0  0  0  0  0  0  0
  -20.9522  -24.1724   16.5696 C   0  0  0  0  0  0  0  0  0  0  0  0
  -28.7808  -20.1961   19.4615 C   0  0  0  0  0  0  0  0  0  0  0  0
  -20.7216  -26.6249   16.9949 C   0  0  0  0  0  0  0  0  0  0  0  0
  -24.7145  -32.1813   20.4548 C   0  0  0  0  0  0  0  0  0  0  0  0
  -24.4025  -31.5499   23.6213 C   0  0  0  0  0  0  0  0  0  0  0  0
  -29.4298  -22.5051   20.1122 C   0  0  0  0  0  0  0  0  0  0  0  0
  -25.0079  -29.4298   26.2262 C   0  0  0  0  0  0  0  0  0  0  0  0
  -23.0720  -18.6603   17.4794 C   0  0  0  0  0  0  0  0  0  0  0  0
  -22.5542  -35.2919   17.0322 C   0  0  0  0  0  0  0  0  0  0  0  0
  -23.7480  -29.8532   20.4109 C   0  0  0  0  0  0  0  0  0  0  0  0
  -25.9890  -30.0753   22.3275 C   0  0  0  0  0  0  0  0  0  0  0  0
  -22.7563  -35.3055   18.5452 C   0  0  0  0  0  0  0  0  0  0  0  0
  -19.8849  -19.5231   16.1470 C   0  0  0  0  0  0  0  0  0  0  0  0
  -24.2075  -34.9893   18.8928 C   0  0  0  0  0  0  0  0  0  0  0  0
  -19.7218  -20.9976   16.5230 C   0  0  0  0  0  0  0  0  0  0  0  0
  -20.5994  -18.7340   17.2427 C   0  0  0  0  0  0  0  0  0  0  0  0
  -21.7209  -20.7725   18.0528 C   0  0  0  0  0  0  0  0  0  0  0  0
  -24.5988  -33.5887   18.4063 C   0  0  1  0  0  0  0  0  0  0  0  0
  -23.9837  -31.1200   21.2277 C   0  0  1  0  0  0  0  0  0  0  0  0
  -21.0643  -21.6215   16.9520 C   0  0  2  0  0  0  0  0  0  0  0  0
  -24.8986  -28.5216   28.5630 C   0  0  0  0  0  0  0  0  0  0  0  0
  -26.6588  -33.5440   24.1136 C   0  0  0  0  0  0  0  0  0  0  0  0
  -26.9103  -32.5856   26.4128 C   0  0  0  0  0  0  0  0  0  0  0  0
  -24.7703  -33.6812   25.7474 C   0  0  0  0  0  0  0  0  0  0  0  0
  -22.5303  -27.9180   25.6470 C   0  0  0  0  0  0  0  0  0  0  0  0
  -28.7661  -23.8291   20.4112 C   0  0  0  0  0  0  0  0  0  0  0  0
  -29.7573  -24.9376   20.7488 C   0  0  0  0  0  0  0  0  0  0  0  0
  -29.0807  -26.2854   20.9694 C   0  0  0  0  0  0  0  0  0  1  0  0
  -25.3560  -31.4182   24.7842 C   0  0  1  0  0  0  0  0  0  0  0  0
  -24.1030  -28.8969   27.3224 C   0  0  2  0  0  0  0  0  0  0  0  0
  -25.9260  -32.7906   25.2415 C   0  0  0  0  0  0  0  0  0  0  0  0
  -20.6835  -23.3516   18.6676 N   0  0  0  0  0  0  0  0  0  0  0  0
  -20.9022  -23.0705   17.3718 N   0  0  0  0  0  0  0  0  0  0  0  0
  -24.7561  -30.8711   22.4465 N   0  0  0  0  0  0  0  0  0  0  0  0
  -21.8649  -19.3818   17.5946 N   0  0  0  0  0  0  0  0  0  0  0  0
  -21.1643  -24.0700   15.2403 N   0  0  0  0  0  0  0  0  0  0  0  0
  -20.5048  -27.6037   17.9742 N   0  0  0  0  0  0  0  0  0  0  0  0
  -24.2135  -19.3897   17.8103 N   0  0  0  0  0  0  0  0  0  0  0  0
  -28.4840  -21.4602   19.7934 N   0  0  0  0  0  0  0  0  0  0  0  0
  -24.0713  -32.5783   19.2980 N   0  0  0  0  0  0  0  0  0  0  0  0
  -24.6334  -30.6946   25.8247 N   0  0  0  0  0  0  0  0  0  0  0  0
  -30.0214  -19.7168   19.3758 N   0  3  0  0  0  0  0  0  0  0  0  0
  -23.3725  -27.6873   26.8489 N   0  3  0  0  0  0  0  0  0  0  0  0
  -20.8658  -26.9745   15.7988 O   0  0  0  0  0  0  0  0  0  0  0  0
  -25.7820  -32.6094   20.8776 O   0  0  0  0  0  0  0  0  0  0  0  0
  -23.3779  -32.2241   23.7527 O   0  0  0  0  0  0  0  0  0  0  0  0
  -30.6351  -22.3018   20.1021 O   0  0  0  0  0  0  0  0  0  0  0  0
  -25.9546  -28.7896   25.7740 O   0  0  0  0  0  0  0  0  0  0  0  0
  -23.0940  -17.4905   17.0880 O   0  0  0  0  0  0  0  0  0  0  0  0
  -19.6720  -27.3987   23.4787 O   0  0  0  0  0  0  0  0  0  0  0  0
  -28.3735  -26.6436   19.7828 O   0  0  0  0  0  0  0  0  0  1  0  0
  -15.9008  -31.4213   23.4663 F   0  0  0  0  0  0  0  0  0  0  0  0
  -26.8795  -15.7285   19.4097 F   0  0  0  0  0  0  0  0  0  0  0  0
  -19.9537  -29.6019   21.8327 F   0  0  0  0  0  0  0  0  0  0  0  0
  1  2  1  0  0  0  0
  1  5  2  0  0  0  0
  2  6  2  0  0  0  0
  3  8  2  0  0  0  0
  3 18  1  0  0  0  0
  4  9  1  0  0  0  0
  4 18  2  0  0  0  0
  5 21  1  0  0  0  0
  6 23  1  0  0  0  0
  7 10  2  0  0  0  0
  7 22  1  0  0  0  0
  8 26  1  0  0  0  0
  9 26  2  0  0  0  0
 10 27  1  0  0  0  0
 11 12  2  0  0  0  0
 11 28  1  0  0  0  0
 12 29  1  0  0  0  0
 13 19  2  0  0  0  0
 13 25  1  0  0  0  0
 14 19  1  0  0  0  0
 14 30  2  0  0  0  0
 15 24  1  0  0  0  0
 15 27  2  0  0  0  0
 16 25  2  0  0  0  0
 16 30  1  0  0  0  0
 17 29  2  0  0  0  0
 17 31  1  0  0  0  0
 18 32  1  0  0  0  0
 19 34  1  0  0  0  0
 20 32  1  0  0  0  0
 20 33  2  0  0  0  0
 20 35  1  0  0  0  0
 21 23  2  0  0  0  0
 21 41  1  0  0  0  0
 22 24  2  0  0  0  0
 22 42  1  0  0  0  0
 23 50  1  0  0  0  0
 24 43  1  0  0  0  0
 25 70  1  0  0  0  0
 26 82  1  0  0  0  0
 27 83  1  0  0  0  0
 28 31  2  0  0  0  0
 28 82  1  0  0  0  0
 29 84  1  0  0  0  0
 30 85  1  0  0  0  0
 31 86  1  0  0  0  0
 32 64  2  0  0  0  0
 33 65  1  0  0  0  0
 33 68  1  0  0  0  0
 34 71  1  0  0  0  0
 34 74  2  0  0  0  0
 35 69  1  0  0  0  0
 35 76  2  0  0  0  0
 36 51  1  0  0  0  0
 36 72  1  0  0  0  0
 36 77  2  0  0  0  0
 37 61  1  0  0  0  0
 37 66  1  0  0  0  0
 37 78  2  0  0  0  0
 38 58  1  0  0  0  0
 38 71  1  0  0  0  0
 38 79  2  0  0  0  0
 39 62  1  0  0  0  0
 39 73  1  0  0  0  0
 39 80  2  0  0  0  0
 40 67  1  0  0  0  0
 40 70  1  0  0  0  0
 40 81  2  0  0  0  0
 41 44  1  0  0  0  0
 42 51  1  0  0  0  0
 43 66  1  0  0  0  0
 44 46  1  0  0  0  0
 45 47  1  0  0  0  0
 45 48  1  0  0  0  0
 46 50  1  0  0  0  0
 47 52  1  0  0  0  0
 48 67  1  0  0  0  0
 49 52  1  0  0  0  0
 49 67  1  0  0  0  0
 50 72  1  0  0  0  0
 51 66  1  0  0  0  0
 52 65  1  0  0  0  0
 53 62  1  0  0  0  0
 54 63  1  0  0  0  0
 55 63  1  0  0  0  0
 56 63  1  0  0  0  0
 57 75  1  0  0  0  0
 58 59  1  0  0  0  0
 59 60  1  0  0  0  0
 60 83  1  0  0  0  0
 61 63  1  0  0  0  0
 61 73  1  0  0  0  0
 62 75  1  0  0  0  0
 64 65  1  0  0  0  0
M  CHG  2  74   1  75   1
M  ISO  4  40 100  60 101  70 100  83 101
M  END
> <Batch ID>
0167

> <Smiles>
CNC(C)C(=O)NC(C(=O)N1Cc2cc([101O:1][101CH2:1]CCC(=O)NC(=N)c3cc(F)cc([100NH:0][100C:0](=O)N4CCCC(n5nc(-c6ccc(Oc7ccc(F)cc7F)cc6)c(C(N)=O)c5N)C4)c3)ccc2CC1C(=O)NC1CCCc2ccccc21)C(C)(C)C

> <Shape>
0.230

> <Color>
0.093

> <Negative vol penalty>
0.000

$$$$

  -OEChem-04052304113D

 88 96  0     1  0  0  0  0  0999 V2000
  -18.3954  -18.5757   28.2050 C   0  0  0  0  0  0  0  0  0  0  0  0
  -19.3550  -18.8860   27.2467 C   0  0  0  0  0  0  0  0  0  0  0  0
  -23.0007   -9.8940   19.9813 C   0  0  0  0  0  0  0  0  0  0  0  0
  -23.7305   -9.9433   22.2839 C   0  0  0  0  0  0  0  0  0  0  0  0
  -17.5427  -17.4900   28.0099 C   0  0  0  0  0  0  0  0  0  0  0  0
  -19.4631  -18.1101   26.0931 C   0  0  0  0  0  0  0  0  0  0  0  0
  -19.9549  -20.9140   21.9049 C   0  0  0  0  0  0  0  0  0  0  0  0
  -22.2359   -8.7584   20.2480 C   0  0  0  0  0  0  0  0  0  0  0  0
  -22.9657   -8.8078   22.5507 C   0  0  0  0  0  0  0  0  0  0  0  0
  -21.2121  -21.4589   21.6475 C   0  0  0  0  0  0  0  0  0  0  0  0
  -23.2126   -5.4696   22.0748 C   0  0  0  0  0  0  0  0  0  0  0  0
  -23.8027   -4.4522   22.8247 C   0  0  0  0  0  0  0  0  0  0  0  0
  -21.6493  -19.6886   20.0681 C   0  0  0  0  0  0  0  0  0  0  0  0
  -31.5665  -18.3206   20.0111 C   0  0  0  0  0  0  0  0  0  0  0  0
  -29.3452  -18.6170   20.9138 C   0  0  0  0  0  0  0  0  0  0  0  0
  -30.1106  -20.0214   19.1030 C   0  0  0  0  0  0  0  0  0  0  0  0
  -22.0820   -4.6916   24.5037 C   0  0  0  0  0  0  0  0  0  0  0  0
  -23.7480  -10.4864   20.9992 C   0  0  0  0  0  0  0  0  0  0  0  0
  -24.1303  -13.0026   20.8250 C   0  0  0  0  0  0  0  0  0  0  0  0
  -17.6339  -16.7063   26.8488 C   0  0  0  0  0  0  0  0  0  0  0  0
  -19.5390  -19.7442   21.2529 C   0  0  0  0  0  0  0  0  0  0  0  0
  -18.6116  -17.0121   25.8829 C   0  0  0  0  0  0  0  0  0  0  0  0
  -20.3853  -19.1323   20.3172 C   0  0  0  0  0  0  0  0  0  0  0  0
  -30.5710  -17.9513   20.9156 C   0  0  0  0  0  0  0  0  0  0  0  0
  -31.3364  -19.3557   19.1048 C   0  0  0  0  0  0  0  0  0  0  0  0
  -29.1150  -19.6521   20.0074 C   0  0  0  0  0  0  0  0  0  0  0  0
  -22.2184   -8.2153   21.5327 C   0  0  0  0  0  0  0  0  0  0  0  0
  -22.0606  -20.8446   20.7311 C   0  0  0  0  0  0  0  0  0  0  0  0
  -22.0572   -6.0980   22.5394 C   0  0  0  0  0  0  0  0  0  0  0  0
  -23.2374   -4.0632   24.0391 C   0  0  0  0  0  0  0  0  0  0  0  0
  -21.4919   -5.7090   23.7538 C   0  0  0  0  0  0  0  0  0  0  0  0
  -24.5387  -11.6592   20.7242 C   0  0  0  0  0  0  0  0  0  0  0  0
  -25.2386  -13.7267   20.4591 C   0  0  0  0  0  0  0  0  0  0  0  0
  -24.3869  -20.6012   20.7317 C   0  0  0  0  0  0  0  0  0  1  0  0
  -22.8626  -13.5473   21.2147 C   0  0  0  0  0  0  0  0  0  0  0  0
  -25.6405  -21.0201   20.5205 C   0  0  0  0  0  0  0  0  0  0  0  0
  -26.7787  -20.0943   20.8299 C   0  0  0  0  0  0  0  0  0  0  0  0
  -18.7264  -16.8191   22.1947 C   0  0  0  0  0  0  0  0  0  0  0  0
  -17.9750  -16.4410   19.0619 C   0  0  0  0  0  0  0  0  0  0  0  0
  -18.4519  -17.4248   15.8290 C   0  0  0  0  0  0  0  0  0  0  0  0
  -30.7344  -14.6669   20.6975 C   0  0  0  0  0  0  0  0  0  0  0  0
  -16.7215  -15.5141   26.7042 C   0  0  0  0  0  0  0  0  0  0  0  0
  -18.1693  -19.1840   21.5218 C   0  0  0  0  0  0  0  0  0  0  0  0
  -19.9782  -17.8863   19.5755 C   0  0  0  0  0  0  0  0  0  0  0  0
  -16.6530  -14.9688   25.2800 C   0  0  0  0  0  0  0  0  0  0  0  0
  -29.5916  -12.2445   18.3518 C   0  0  0  0  0  0  0  0  0  0  0  0
  -18.0535  -14.8422   24.6889 C   0  0  0  0  0  0  0  0  0  0  0  0
  -28.1442  -11.9828   18.7721 C   0  0  0  0  0  0  0  0  0  0  0  0
  -30.4962  -12.4796   19.5595 C   0  0  0  0  0  0  0  0  0  0  0  0
  -28.5879  -13.2717   20.9029 C   0  0  0  0  0  0  0  0  0  0  0  0
  -18.7433  -16.2092   24.6069 C   0  0  1  0  0  0  0  0  0  0  0  0
  -18.0528  -17.7014   21.1820 C   0  0  1  0  0  0  0  0  0  0  0  0
  -27.6267  -13.0842   19.7167 C   0  0  2  0  0  0  0  0  0  0  0  0
  -17.7261  -16.9039   13.4839 C   0  0  0  0  0  0  0  0  0  0  0  0
  -19.7612  -13.9672   19.0611 C   0  0  0  0  0  0  0  0  0  0  0  0
  -19.7605  -14.0531   16.5590 C   0  0  0  0  0  0  0  0  0  0  0  0
  -17.6207  -13.7088   17.7939 C   0  0  0  0  0  0  0  0  0  0  0  0
  -17.3248  -20.1352   15.4520 C   0  0  0  0  0  0  0  0  0  0  0  0
  -30.8172  -16.8447   21.8847 C   0  0  0  0  0  0  0  0  0  0  0  0
  -18.7208  -15.9848   17.8311 C   0  0  1  0  0  0  0  0  0  0  0  0
  -17.4681  -17.7515   14.7200 C   0  0  2  0  0  0  0  0  0  0  0  0
  -32.4009  -19.7503   18.1377 C   0  0  0  0  0  0  0  0  0  0  0  0
  -18.9745  -14.4509   17.8265 C   0  0  0  0  0  0  0  0  0  0  0  0
  -25.8073  -11.5344   20.3253 N   0  0  0  0  0  0  0  0  0  0  0  0
  -26.2056  -12.8088   20.1722 N   0  0  0  0  0  0  0  0  0  0  0  0
  -18.6317  -17.3733   19.8776 N   0  0  0  0  0  0  0  0  0  0  0  0
  -29.9500  -13.5368   20.4137 N   0  0  0  0  0  0  0  0  0  0  0  0
  -25.4704  -15.0528   20.3579 N   0  0  0  0  0  0  0  0  0  0  0  0
  -21.8324  -12.6617   21.5594 N   0  0  0  0  0  0  0  0  0  0  0  0
  -27.8709  -20.3277   20.0055 N   0  0  0  0  0  0  0  0  0  0  0  0
  -18.2385  -16.9633   23.4795 N   0  0  0  0  0  0  0  0  0  0  0  0
  -17.9544  -16.4671   16.6873 N   0  0  0  0  0  0  0  0  0  0  0  0
  -30.1387  -15.6242   21.5095 N   0  0  0  0  0  0  0  0  0  0  0  0
  -17.5780  -19.1874   14.3365 N   0  3  0  0  0  0  0  0  0  0  0  0
  -22.6446  -14.7823   21.2401 O   0  0  0  0  0  0  0  0  0  0  0  0
  -26.6846  -19.2555   21.7194 O   0  0  0  0  0  0  0  0  0  0  0  0
  -19.6214  -16.0625   21.8367 O   0  0  0  0  0  0  0  0  0  0  0  0
  -16.8483  -15.9923   19.2872 O   0  0  0  0  0  0  0  0  0  0  0  0
  -19.5531  -17.9624   15.9222 O   0  0  0  0  0  0  0  0  0  0  0  0
  -31.8788  -14.8145   20.2552 O   0  0  0  0  0  0  0  0  0  0  0  0
  -25.9301  -22.2755   20.0258 O   0  0  0  0  0  0  0  0  0  0  0  0
  -21.4720   -7.1073   21.7934 O   0  0  0  0  0  0  0  0  0  0  0  0
  -23.2886  -21.3740   20.4785 O   0  0  0  0  0  0  0  0  0  1  0  0
  -23.8034   -3.0852   24.7583 F   0  0  0  0  0  0  0  0  0  0  0  0
  -20.3812   -6.3082   24.2047 F   0  0  0  0  0  0  0  0  0  0  0  0
  -33.5457  -19.0140   18.2530 F   0  0  0  0  0  0  0  0  0  0  0  0
  -32.0262  -19.6232   16.8303 F   0  0  0  0  0  0  0  0  0  0  0  0
  -32.7864  -21.0515   18.2832 F   0  0  0  0  0  0  0  0  0  0  0  0
  1  2  1  0  0  0  0
  1  5  2  0  0  0  0
  2  6  2  0  0  0  0
  3  8  2  0  0  0  0
  3 18  1  0  0  0  0
  4  9  1  0  0  0  0
  4 18  2  0  0  0  0
  5 20  1  0  0  0  0
  6 22  1  0  0  0  0
  7 10  2  0  0  0  0
  7 21  1  0  0  0  0
  8 27  1  0  0  0  0
  9 27  2  0  0  0  0
 10 28  1  0  0  0  0
 11 12  2  0  0  0  0
 11 29  1  0  0  0  0
 12 30  1  0  0  0  0
 13 23  1  0  0  0  0
 13 28  2  0  0  0  0
 14 24  1  0  0  0  0
 14 25  2  0  0  0  0
 15 24  2  0  0  0  0
 15 26  1  0  0  0  0
 16 25  1  0  0  0  0
 16 26  2  0  0  0  0
 17 30  2  0  0  0  0
 17 31  1  0  0  0  0
 18 32  1  0  0  0  0
 19 32  1  0  0  0  0
 19 33  2  0  0  0  0
 19 35  1  0  0  0  0
 20 22  2  0  0  0  0
 20 42  1  0  0  0  0
 21 23  2  0  0  0  0
 21 43  1  0  0  0  0
 22 51  1  0  0  0  0
 23 44  1  0  0  0  0
 24 59  1  0  0  0  0
 25 62  1  0  0  0  0
 26 70  1  0  0  0  0
 27 82  1  0  0  0  0
 28 83  1  0  0  0  0
 29 31  2  0  0  0  0
 29 82  1  0  0  0  0
 30 84  1  0  0  0  0
 31 85  1  0  0  0  0
 32 64  2  0  0  0  0
 33 65  1  0  0  0  0
 33 68  1  0  0  0  0
 34 36  2  0  0  0  0
 34 83  1  0  0  0  0
 35 69  1  0  0  0  0
 35 75  2  0  0  0  0
 36 37  1  0  0  0  0
 36 81  1  0  0  0  0
 37 70  1  0  0  0  0
 37 76  2  0  0  0  0
 38 52  1  0  0  0  0
 38 71  1  0  0  0  0
 38 77  2  0  0  0  0
 39 60  1  0  0  0  0
 39 66  1  0  0  0  0
 39 78  2  0  0  0  0
 40 61  1  0  0  0  0
 40 72  1  0  0  0  0
 40 79  2  0  0  0  0
 41 67  1  0  0  0  0
 41 73  1  0  0  0  0
 41 80  2  0  0  0  0
 42 45  1  0  0  0  0
 43 52  1  0  0  0  0
 44 66  1  0  0  0  0
 45 47  1  0  0  0  0
 46 48  1  0  0  0  0
 46 49  1  0  0  0  0
 47 51  1  0  0  0  0
 48 53  1  0  0  0  0
 49 67  1  0  0  0  0
 50 53  1  0  0  0  0
 50 67  1  0  0  0  0
 51 71  1  0  0  0  0
 52 66  1  0  0  0  0
 53 65  1  0  0  0  0
 54 61  1  0  0  0  0
 55 63  1  0  0  0  0
 56 63  1  0  0  0  0
 57 63  1  0  0  0  0
 58 74  1  0  0  0  0
 59 73  1  0  0  0  0
 60 63  1  0  0  0  0
 60 72  1  0  0  0  0
 61 74  1  0  0  0  0
 62 86  1  0  0  0  0
 62 87  1  0  0  0  0
 62 88  1  0  0  0  0
 64 65  1  0  0  0  0
M  CHG  1  74   1
M  ISO  4  34 101  41 100  73 100  83 101
M  END
> <Batch ID>
0167

> <Smiles>
CNC(C)C(=O)NC(C(=O)N1Cc2cc([101O:1][101CH2:1]C(=O)C(=O)Nc3cc(C[100NH:0][100C:0](=O)N4CCCC(n5nc(-c6ccc(Oc7ccc(F)cc7F)cc6)c(C(N)=O)c5N)C4)cc(C(F)(F)F)c3)ccc2CC1C(=O)NC1CCCc2ccccc21)C(C)(C)C

> <Shape>
0.198

> <Color>
0.193

> <Negative vol penalty>
0.000

$$$$

  -OEChem-04052304112D

  0  0  0     0  0  0  0  0  0999 V2000
M  END
$$$$

  -OEChem-04052304113D

 85 93  0     1  0  0  0  0  0999 V2000
  -27.4373  -32.7883   27.4413 C   0  0  0  0  0  0  0  0  0  0  0  0
  -27.6278  -31.6654   26.6423 C   0  0  0  0  0  0  0  0  0  0  0  0
  -32.2830  -18.7928   21.5000 C   0  0  0  0  0  0  0  0  0  0  0  0
  -23.3371   -9.7310   21.3533 C   0  0  0  0  0  0  0  0  0  0  0  0
  -24.0926  -10.6489   23.4565 C   0  0  0  0  0  0  0  0  0  0  0  0
  -31.4193  -19.8149   21.8935 C   0  0  0  0  0  0  0  0  0  0  0  0
  -26.1616  -33.3325   27.5841 C   0  0  0  0  0  0  0  0  0  0  0  0
  -26.5424  -31.0854   25.9866 C   0  0  0  0  0  0  0  0  0  0  0  0
  -27.5801  -29.9197   21.1690 C   0  0  0  0  0  0  0  0  0  0  0  0
  -31.7665  -17.5947   21.0065 C   0  0  0  0  0  0  0  0  0  0  0  0
  -22.6858   -8.7035   22.0356 C   0  0  0  0  0  0  0  0  0  0  0  0
  -23.4413   -9.6214   24.1389 C   0  0  0  0  0  0  0  0  0  0  0  0
  -28.3265  -28.7646   20.9400 C   0  0  0  0  0  0  0  0  0  0  0  0
  -19.8081   -8.2933   23.7630 C   0  0  0  0  0  0  0  0  0  0  0  0
  -18.5092   -7.9741   23.3675 C   0  0  0  0  0  0  0  0  0  0  0  0
  -29.5227  -18.4409   21.3003 C   0  0  0  0  0  0  0  0  0  0  0  0
  -26.3007  -27.5688   20.4057 C   0  0  0  0  0  0  0  0  0  0  0  0
  -19.2204   -5.7243   22.8479 C   0  0  0  0  0  0  0  0  0  0  0  0
  -24.0406  -10.7037   22.0637 C   0  0  0  0  0  0  0  0  0  0  0  0
  -30.0392  -19.6390   21.7937 C   0  0  0  0  0  0  0  0  0  0  0  0
  -24.1835  -13.0192   21.0028 C   0  0  0  0  0  0  0  0  0  0  0  0
  -25.0616  -32.7647   26.9220 C   0  0  0  0  0  0  0  0  0  0  0  0
  -26.1850  -29.9052   21.0284 C   0  0  0  0  0  0  0  0  0  0  0  0
  -25.2506  -31.6218   26.1217 C   0  0  0  0  0  0  0  0  0  0  0  0
  -25.5392  -28.7257   20.6310 C   0  0  0  0  0  0  0  0  0  0  0  0
  -30.3864  -17.4187   20.9067 C   0  0  0  0  0  0  0  0  0  0  0  0
  -22.7378   -8.6487   23.4285 C   0  0  0  0  0  0  0  0  0  0  0  0
  -27.6866  -27.5882   20.5611 C   0  0  0  0  0  0  0  0  0  0  0  0
  -20.8132   -7.3281   23.7009 C   0  0  0  0  0  0  0  0  0  0  0  0
  -18.2153   -6.6896   22.9100 C   0  0  0  0  0  0  0  0  0  0  0  0
  -20.5193   -6.0436   23.2434 C   0  0  0  0  0  0  0  0  0  0  0  0
  -24.7141  -11.7650   21.3594 C   0  0  0  0  0  0  0  0  0  0  0  0
  -25.2137  -13.6564   20.3556 C   0  0  0  0  0  0  0  0  0  0  0  0
  -28.1447  -25.3596   21.1037 C   0  0  0  0  0  0  0  0  0  1  0  0
  -29.1238  -20.7211   22.2097 C   0  0  0  0  0  0  0  0  0  0  0  0
  -22.8762  -13.5599   21.2359 C   0  0  0  0  0  0  0  0  0  0  0  0
  -28.7957  -24.1988   20.9702 C   0  0  0  0  0  0  0  0  0  0  0  0
  -28.4207  -23.0730   21.8581 C   0  0  0  0  0  0  0  0  0  0  0  0
  -23.7283  -30.4046   22.9826 C   0  0  0  0  0  0  0  0  0  0  0  0
  -22.0013  -30.1283   20.2507 C   0  0  0  0  0  0  0  0  0  0  0  0
  -21.7909  -28.9201   17.0659 C   0  0  0  0  0  0  0  0  0  0  0  0
  -30.5810  -15.0875   19.9718 C   0  0  0  0  0  0  0  0  0  0  0  0
  -23.6939  -33.3600   27.1446 C   0  0  0  0  0  0  0  0  0  0  0  0
  -25.3970  -31.1665   21.2532 C   0  0  0  0  0  0  0  0  0  0  0  0
  -24.0457  -28.6628   20.4465 C   0  0  0  0  0  0  0  0  0  0  0  0
  -22.6589  -32.9093   26.1170 C   0  0  0  0  0  0  0  0  0  0  0  0
  -29.6608  -11.8898   18.7049 C   0  0  0  0  0  0  0  0  0  0  0  0
  -22.7300  -31.3991   25.9146 C   0  0  0  0  0  0  0  0  0  0  0  0
  -28.2482  -11.6754   19.2532 C   0  0  0  0  0  0  0  0  0  0  0  0
  -30.5544  -12.6167   19.7083 C   0  0  0  0  0  0  0  0  0  0  0  0
  -28.5956  -13.6632   20.7748 C   0  0  0  0  0  0  0  0  0  0  0  0
  -24.1023  -30.9789   25.3745 C   0  0  1  0  0  0  0  0  0  0  0  0
  -23.9301  -30.9043   21.5800 C   0  0  1  0  0  0  0  0  0  0  0  0
  -27.6401  -12.9923   19.7745 C   0  0  2  0  0  0  0  0  0  0  0  0
  -20.2415  -28.8229   15.0942 C   0  0  0  0  0  0  0  0  0  0  0  0
  -20.3389  -27.9963   21.6652 C   0  0  0  0  0  0  0  0  0  0  0  0
  -19.4743  -27.2842   19.4261 C   0  0  0  0  0  0  0  0  0  0  0  0
  -19.0167  -29.5894   20.2623 C   0  0  0  0  0  0  0  0  0  0  0  0
  -23.7103  -30.3668   15.3391 C   0  0  0  0  0  0  0  0  0  0  0  0
  -21.3528  -28.9859   19.5068 C   0  0  1  0  0  0  0  0  0  0  0  0
  -21.3777  -29.5808   15.7631 C   0  0  2  0  0  0  0  0  0  0  0  0
  -20.0736  -28.4643   20.2204 C   0  0  0  0  0  0  0  0  0  0  0  0
  -25.9829  -11.6125   20.9707 N   0  0  0  0  0  0  0  0  0  0  0  0
  -26.2581  -12.7792   20.3631 N   0  0  0  0  0  0  0  0  0  0  0  0
  -23.3184  -29.9206   20.6842 N   0  0  0  0  0  0  0  0  0  0  0  0
  -29.9158  -13.8568   20.1547 N   0  0  0  0  0  0  0  0  0  0  0  0
  -25.3192  -14.8760   19.7863 N   0  0  0  0  0  0  0  0  0  0  0  0
  -21.9385  -12.7711   21.9162 N   0  0  0  0  0  0  0  0  0  0  0  0
  -29.8626  -16.2013   20.4053 N   0  0  0  0  0  0  0  0  0  0  0  0
  -29.2162  -21.9025   21.5830 N   0  0  0  0  0  0  0  0  0  0  0  0
  -24.1969  -31.2632   23.9586 N   0  0  0  0  0  0  0  0  0  0  0  0
  -21.1263  -29.4610   18.1462 N   0  0  0  0  0  0  0  0  0  0  0  0
  -28.2553  -20.4583   23.1856 N   0  3  0  0  0  0  0  0  0  0  0  0
  -22.5297  -29.6300   14.8191 N   0  3  0  0  0  0  0  0  0  0  0  0
  -22.5442  -14.7022   20.8379 O   0  0  0  0  0  0  0  0  0  0  0  0
  -27.5574  -23.0958   22.7200 O   0  0  0  0  0  0  0  0  0  0  0  0
  -23.1862  -29.3210   23.1658 O   0  0  0  0  0  0  0  0  0  0  0  0
  -21.3653  -31.1692   20.4339 O   0  0  0  0  0  0  0  0  0  0  0  0
  -22.6175  -28.0122   17.1194 O   0  0  0  0  0  0  0  0  0  0  0  0
  -31.6937  -15.1514   19.4428 O   0  0  0  0  0  0  0  0  0  0  0  0
  -29.7984  -24.0011   20.0464 O   0  0  0  0  0  0  0  0  0  0  0  0
  -22.1021   -7.6464   24.0947 O   0  0  0  0  0  0  0  0  0  0  0  0
  -28.4126  -26.4592   20.3375 O   0  0  0  0  0  0  0  0  0  1  0  0
  -16.9675   -6.3827   22.5317 F   0  0  0  0  0  0  0  0  0  0  0  0
  -21.4805   -5.1118   23.1826 F   0  0  0  0  0  0  0  0  0  0  0  0
  1  2  1  0  0  0  0
  1  7  2  0  0  0  0
  2  8  2  0  0  0  0
  3  6  2  0  0  0  0
  3 10  1  0  0  0  0
  4 11  2  0  0  0  0
  4 19  1  0  0  0  0
  5 12  1  0  0  0  0
  5 19  2  0  0  0  0
  6 20  1  0  0  0  0
  7 22  1  0  0  0  0
  8 24  1  0  0  0  0
  9 13  2  0  0  0  0
  9 23  1  0  0  0  0
 10 26  2  0  0  0  0
 11 27  1  0  0  0  0
 12 27  2  0  0  0  0
 13 28  1  0  0  0  0
 14 15  2  0  0  0  0
 14 29  1  0  0  0  0
 15 30  1  0  0  0  0
 16 20  2  0  0  0  0
 16 26  1  0  0  0  0
 17 25  1  0  0  0  0
 17 28  2  0  0  0  0
 18 30  2  0  0  0  0
 18 31  1  0  0  0  0
 19 32  1  0  0  0  0
 20 35  1  0  0  0  0
 21 32  1  0  0  0  0
 21 33  2  0  0  0  0
 21 36  1  0  0  0  0
 22 24  2  0  0  0  0
 22 43  1  0  0  0  0
 23 25  2  0  0  0  0
 23 44  1  0  0  0  0
 24 52  1  0  0  0  0
 25 45  1  0  0  0  0
 26 69  1  0  0  0  0
 27 82  1  0  0  0  0
 28 83  1  0  0  0  0
 29 31  2  0  0  0  0
 29 82  1  0  0  0  0
 30 84  1  0  0  0  0
 31 85  1  0  0  0  0
 32 63  2  0  0  0  0
 33 64  1  0  0  0  0
 33 67  1  0  0  0  0
 34 37  2  0  0  0  0
 34 83  1  0  0  0  0
 35 70  1  0  0  0  0
 35 73  2  0  0  0  0
 36 68  1  0  0  0  0
 36 75  2  0  0  0  0
 37 38  1  0  0  0  0
 37 81  1  0  0  0  0
 38 70  1  0  0  0  0
 38 76  2  0  0  0  0
 39 53  1  0  0  0  0
 39 71  1  0  0  0  0
 39 77  2  0  0  0  0
 40 60  1  0  0  0  0
 40 65  1  0  0  0  0
 40 78  2  0  0  0  0
 41 61  1  0  0  0  0
 41 72  1  0  0  0  0
 41 79  2  0  0  0  0
 42 66  1  0  0  0  0
 42 69  1  0  0  0  0
 42 80  2  0  0  0  0
 43 46  1  0  0  0  0
 44 53  1  0  0  0  0
 45 65  1  0  0  0  0
 46 48  1  0  0  0  0
 47 49  1  0  0  0  0
 47 50  1  0  0  0  0
 48 52  1  0  0  0  0
 49 54  1  0  0  0  0
 50 66  1  0  0  0  0
 51 54  1  0  0  0  0
 51 66  1  0  0  0  0
 52 71  1  0  0  0  0
 53 65  1  0  0  0  0
 54 64  1  0  0  0  0
 55 61  1  0  0  0  0
 56 62  1  0  0  0  0
 57 62  1  0  0  0  0
 58 62  1  0  0  0  0
 59 74  1  0  0  0  0
 60 62  1  0  0  0  0
 60 72  1  0  0  0  0
 61 74  1  0  0  0  0
 63 64  1  0  0  0  0
M  CHG  2  73   1  74   1
M  ISO  4  34 101  42 100  69 100  83 101
M  END
> <Batch ID>
0167

> <Smiles>
CNC(C)C(=O)NC(C(=O)N1Cc2cc([101O:1][101CH2:1]C(=O)C(=O)NC(=N)c3cccc([100NH:0][100C:0](=O)N4CCCC(n5nc(-c6ccc(Oc7ccc(F)cc7F)cc6)c(C(N)=O)c5N)C4)c3)ccc2CC1C(=O)NC1CCCc2ccccc21)C(C)(C)C

> <Shape>
0.321

> <Color>
0.190

> <Negative vol penalty>
0.000

$$$$

  -OEChem-04052304113D

 86 94  0     1  0  0  0  0  0999 V2000
  -19.7572   -8.4903   21.8457 C   0  0  0  0  0  0  0  0  0  0  0  0
  -20.2727   -9.6687   22.3757 C   0  0  0  0  0  0  0  0  0  0  0  0
  -27.0474  -29.7764   19.5588 C   0  0  0  0  0  0  0  0  0  0  0  0
  -25.8836  -28.7323   21.4007 C   0  0  0  0  0  0  0  0  0  0  0  0
  -20.5781   -7.6444   21.1011 C   0  0  0  0  0  0  0  0  0  0  0  0
  -21.6100  -10.0013   22.1625 C   0  0  0  0  0  0  0  0  0  0  0  0
  -22.2214  -14.8596   20.8709 C   0  0  0  0  0  0  0  0  0  0  0  0
  -25.9451  -30.5994   19.3288 C   0  0  0  0  0  0  0  0  0  0  0  0
  -24.7812  -29.5555   21.1707 C   0  0  0  0  0  0  0  0  0  0  0  0
  -22.1574  -15.8036   21.8949 C   0  0  0  0  0  0  0  0  0  0  0  0
  -23.8775  -32.7457   21.8234 C   0  0  0  0  0  0  0  0  0  0  0  0
  -23.2770  -33.3463   22.9298 C   0  0  0  0  0  0  0  0  0  0  0  0
  -24.5672  -15.8989   21.9495 C   0  0  0  0  0  0  0  0  0  0  0  0
  -27.0572  -20.7665   23.2154 C   0  0  0  0  0  0  0  0  0  0  0  0
  -21.1982  -32.2320   22.4064 C   0  0  0  0  0  0  0  0  0  0  0  0
  -27.0167  -28.8427   20.5948 C   0  0  0  0  0  0  0  0  0  0  0  0
  -29.2517  -28.2548   21.6749 C   0  0  0  0  0  0  0  0  0  0  0  0
  -21.9237   -7.9715   20.8705 C   0  0  0  0  0  0  0  0  0  0  0  0
  -23.4610  -14.4194   20.3851 C   0  0  0  0  0  0  0  0  0  0  0  0
  -22.4501   -9.1583   21.4153 C   0  0  0  0  0  0  0  0  0  0  0  0
  -24.6441  -14.9512   20.9175 C   0  0  0  0  0  0  0  0  0  0  0  0
  -26.6871  -19.7221   24.0554 C   0  0  0  0  0  0  0  0  0  0  0  0
  -24.8120  -30.4890   20.1347 C   0  0  0  0  0  0  0  0  0  0  0  0
  -23.3304  -16.3212   22.4363 C   0  0  0  0  0  0  0  0  0  0  0  0
  -23.1384  -31.8883   21.0084 C   0  0  0  0  0  0  0  0  0  0  0  0
  -21.9374  -33.0894   23.2214 C   0  0  0  0  0  0  0  0  0  0  0  0
  -21.7987  -31.6314   21.2999 C   0  0  0  0  0  0  0  0  0  0  0  0
  -27.0851  -18.4236   23.7577 C   0  0  0  0  0  0  0  0  0  0  0  0
  -28.1549  -27.9918   20.8325 C   0  0  0  0  0  0  0  0  0  0  0  0
  -27.8197  -20.4621   22.0993 C   0  0  0  0  0  0  0  0  0  0  0  0
  -27.8462  -18.2240   22.6172 C   0  0  0  0  0  0  0  0  0  0  0  0
  -30.0521  -27.1454   21.5529 C   0  0  0  0  0  0  0  0  0  0  0  0
  -29.5227  -29.3996   22.4945 C   0  0  0  0  0  0  0  0  0  0  0  0
  -24.9585  -11.6179   20.2702 C   0  0  0  0  0  0  0  0  0  0  0  0
  -27.1265  -13.2888   18.5294 C   0  0  0  0  0  0  0  0  0  0  0  0
  -23.4661  -19.9512   24.5789 C   0  0  0  0  0  0  0  0  0  0  0  0
  -28.5071  -16.3112   17.7512 C   0  0  0  0  0  0  0  0  0  0  0  0
  -28.9515  -21.4595   20.0818 C   0  0  0  0  0  0  0  0  0  0  0  0
  -22.7845   -7.0025   20.0994 C   0  0  0  0  0  0  0  0  0  0  0  0
  -23.5127  -13.4204   19.2618 C   0  0  0  0  0  0  0  0  0  0  0  0
  -25.9999  -14.5266   20.4172 C   0  0  0  0  0  0  0  0  0  0  0  0
  -24.0931   -7.6119   19.6031 C   0  0  0  0  0  0  0  0  0  0  0  0
  -31.2056  -23.6825   18.4525 C   0  0  0  0  0  0  0  0  0  0  0  0
  -24.7711   -8.4014   20.7184 C   0  0  0  0  0  0  0  0  0  0  0  0
  -30.7828  -25.0633   18.9593 C   0  0  0  0  0  0  0  0  0  0  0  0
  -30.0041  -22.7619   18.2458 C   0  0  0  0  0  0  0  0  0  0  0  0
  -28.6917  -24.0129   19.9137 C   0  0  0  0  0  0  0  0  0  0  0  0
  -23.8892   -9.5659   21.1848 C   0  0  1  0  0  0  0  0  0  0  0  0
  -24.8349  -12.6622   19.1969 C   0  0  1  0  0  0  0  0  0  0  0  0
  -29.8731  -24.9544   20.1988 C   0  0  2  0  0  0  0  0  0  0  0  0
  -26.5661  -19.5984   26.5777 C   0  0  0  0  0  0  0  0  0  0  0  0
  -30.2861  -17.3548   16.3216 C   0  0  0  0  0  0  0  0  0  0  0  0
  -29.2641  -12.2875   20.4628 C   0  0  0  0  0  0  0  0  0  0  0  0
  -30.7900  -14.0698   19.5891 C   0  0  0  0  0  0  0  0  0  0  0  0
  -29.9505  -12.2884   18.0579 C   0  0  0  0  0  0  0  0  0  0  0  0
  -26.5274  -17.9434   16.2761 C   0  0  0  0  0  0  0  0  0  0  0  0
  -22.2415  -19.0518   24.6432 C   0  0  0  0  0  0  0  0  0  0  0  0
  -22.1357  -18.1069   23.4562 C   0  0  0  0  0  0  0  0  0  1  0  0
  -25.8545  -20.0018   25.2879 C   0  0  2  0  0  0  0  0  0  0  0  0
  -28.3645  -14.0913   18.8493 C   0  0  1  0  0  0  0  0  0  0  0  0
  -28.8200  -16.9618   16.4158 C   0  0  2  0  0  0  0  0  0  0  0  0
  -29.5669  -13.1910   19.2507 C   0  0  0  0  0  0  0  0  0  0  0  0
  -28.2470  -26.8082   20.2205 N   0  0  0  0  0  0  0  0  0  0  0  0
  -28.2252  -19.2133   21.7774 N   0  0  0  0  0  0  0  0  0  0  0  0
  -29.4112  -26.3177   20.6787 N   0  0  0  0  0  0  0  0  0  0  0  0
  -25.9981  -13.5428   19.3220 N   0  0  0  0  0  0  0  0  0  0  0  0
  -29.1908  -22.7044   19.4624 N   0  0  0  0  0  0  0  0  0  0  0  0
  -28.2464  -16.8966   22.3251 N   0  0  0  0  0  0  0  0  0  0  0  0
  -31.2346  -26.8069   22.1092 N   0  0  0  0  0  0  0  0  0  0  0  0
  -28.5950  -30.4501   22.5028 N   0  0  0  0  0  0  0  0  0  0  0  0
  -28.1928  -21.5328   21.2495 N   0  0  0  0  0  0  0  0  0  0  0  0
  -23.9605  -10.6626   20.2432 N   0  0  0  0  0  0  0  0  0  0  0  0
  -24.5594  -19.3662   25.2014 N   0  0  0  0  0  0  0  0  0  0  0  0
  -28.6136  -14.9379   17.6876 N   0  0  0  0  0  0  0  0  0  0  0  0
  -27.9921  -18.1871   16.2300 N   0  3  0  0  0  0  0  0  0  0  0  0
  -30.5649  -29.4955   23.1860 O   0  0  0  0  0  0  0  0  0  0  0  0
  -25.8911  -11.6739   21.0631 O   0  0  0  0  0  0  0  0  0  0  0  0
  -27.1572  -12.4720   17.6055 O   0  0  0  0  0  0  0  0  0  0  0  0
  -23.4644  -21.0538   24.0383 O   0  0  0  0  0  0  0  0  0  0  0  0
  -28.2026  -16.9569   18.7516 O   0  0  0  0  0  0  0  0  0  0  0  0
  -29.4105  -20.4090   19.6259 O   0  0  0  0  0  0  0  0  0  0  0  0
  -23.7362  -31.2922   19.9107 O   0  0  0  0  0  0  0  0  0  0  0  0
  -23.2708  -17.2423   23.4364 O   0  0  0  0  0  0  0  0  0  1  0  0
  -21.3612  -33.6651   24.2848 F   0  0  0  0  0  0  0  0  0  0  0  0
  -21.0839  -30.8077   20.5213 F   0  0  0  0  0  0  0  0  0  0  0  0
  -26.7406  -17.4017   24.5532 F   0  0  0  0  0  0  0  0  0  0  0  0
  1  2  1  0  0  0  0
  1  5  2  0  0  0  0
  2  6  2  0  0  0  0
  3  8  2  0  0  0  0
  3 16  1  0  0  0  0
  4  9  1  0  0  0  0
  4 16  2  0  0  0  0
  5 18  1  0  0  0  0
  6 20  1  0  0  0  0
  7 10  2  0  0  0  0
  7 19  1  0  0  0  0
  8 23  1  0  0  0  0
  9 23  2  0  0  0  0
 10 24  1  0  0  0  0
 11 12  2  0  0  0  0
 11 25  1  0  0  0  0
 12 26  1  0  0  0  0
 13 21  1  0  0  0  0
 13 24  2  0  0  0  0
 14 22  1  0  0  0  0
 14 30  2  0  0  0  0
 15 26  2  0  0  0  0
 15 27  1  0  0  0  0
 16 29  1  0  0  0  0
 17 29  1  0  0  0  0
 17 32  2  0  0  0  0
 17 33  1  0  0  0  0
 18 20  2  0  0  0  0
 18 39  1  0  0  0  0
 19 21  2  0  0  0  0
 19 40  1  0  0  0  0
 20 48  1  0  0  0  0
 21 41  1  0  0  0  0
 22 28  2  0  0  0  0
 22 59  1  0  0  0  0
 23 82  1  0  0  0  0
 24 83  1  0  0  0  0
 25 27  2  0  0  0  0
 25 82  1  0  0  0  0
 26 84  1  0  0  0  0
 27 85  1  0  0  0  0
 28 31  1  0  0  0  0
 28 86  1  0  0  0  0
 29 63  2  0  0  0  0
 30 64  1  0  0  0  0
 30 71  1  0  0  0  0
 31 64  2  0  0  0  0
 31 68  1  0  0  0  0
 32 65  1  0  0  0  0
 32 69  1  0  0  0  0
 33 70  1  0  0  0  0
 33 76  2  0  0  0  0
 34 49  1  0  0  0  0
 34 72  1  0  0  0  0
 34 77  2  0  0  0  0
 35 60  1  0  0  0  0
 35 66  1  0  0  0  0
 35 78  2  0  0  0  0
 36 57  1  0  0  0  0
 36 73  1  0  0  0  0
 36 79  2  0  0  0  0
 37 61  1  0  0  0  0
 37 74  1  0  0  0  0
 37 80  2  0  0  0  0
 38 67  1  0  0  0  0
 38 71  1  0  0  0  0
 38 81  2  0  0  0  0
 39 42  1  0  0  0  0
 40 49  1  0  0  0  0
 41 66  1  0  0  0  0
 42 44  1  0  0  0  0
 43 45  1  0  0  0  0
 43 46  1  0  0  0  0
 44 48  1  0  0  0  0
 45 50  1  0  0  0  0
 46 67  1  0  0  0  0
 47 50  1  0  0  0  0
 47 67  1  0  0  0  0
 48 72  1  0  0  0  0
 49 66  1  0  0  0  0
 50 65  1  0  0  0  0
 51 59  1  0  0  0  0
 52 61  1  0  0  0  0
 53 62  1  0  0  0  0
 54 62  1  0  0  0  0
 55 62  1  0  0  0  0
 56 75  1  0  0  0  0
 57 58  1  0  0  0  0
 58 83  1  0  0  0  0
 59 73  1  0  0  0  0
 60 62  1  0  0  0  0
 60 74  1  0  0  0  0
 61 75  1  0  0  0  0
 63 65  1  0  0  0  0
M  CHG  1  75   1
M  ISO  4  38 100  58 101  71 100  83 101
M  END
> <Batch ID>
0167

> <Smiles>
CNC(C)C(=O)NC(C(=O)N1Cc2cc([101O:1][101CH2:1]CC(=O)NC(C)c3cc([100NH:0][100C:0](=O)N4CCCC(n5nc(-c6ccc(Oc7ccc(F)cc7F)cc6)c(C(N)=O)c5N)C4)nc(N)c3F)ccc2CC1C(=O)NC1CCCc2ccccc21)C(C)(C)C

> <Shape>
0.246

> <Color>
0.059

> <Negative vol penalty>
0.000

$$$$

  -OEChem-04052304113D

 87 95  0     1  0  0  0  0  0999 V2000
  -22.5924   -7.8709   23.0900 C   0  0  0  0  0  0  0  0  0  0  0  0
  -23.5752   -8.6246   22.4564 C   0  0  0  0  0  0  0  0  0  0  0  0
  -22.4315  -28.7871   20.8810 C   0  0  0  0  0  0  0  0  0  0  0  0
  -23.4165  -27.4225   22.6144 C   0  0  0  0  0  0  0  0  0  0  0  0
  -21.2755   -8.3278   23.1190 C   0  0  0  0  0  0  0  0  0  0  0  0
  -23.2415   -9.8353   21.8504 C   0  0  0  0  0  0  0  0  0  0  0  0
  -26.5519  -13.5172   22.9129 C   0  0  0  0  0  0  0  0  0  0  0  0
  -21.2020  -28.7334   21.5374 C   0  0  0  0  0  0  0  0  0  0  0  0
  -22.1869  -27.3690   23.2709 C   0  0  0  0  0  0  0  0  0  0  0  0
  -27.7590  -13.5090   22.2151 C   0  0  0  0  0  0  0  0  0  0  0  0
  -19.7230  -30.2330   24.1825 C   0  0  0  0  0  0  0  0  0  0  0  0
  -19.0045  -31.4216   24.3113 C   0  0  0  0  0  0  0  0  0  0  0  0
  -26.9064  -15.2102   20.7324 C   0  0  0  0  0  0  0  0  0  0  0  0
  -30.1764  -21.2518   18.8919 C   0  0  0  0  0  0  0  0  0  0  0  0
  -17.1718  -30.4478   23.0745 C   0  0  0  0  0  0  0  0  0  0  0  0
  -23.5388  -28.1316   21.4195 C   0  0  0  0  0  0  0  0  0  0  0  0
  -25.8261  -29.1434   20.9175 C   0  0  0  0  0  0  0  0  0  0  0  0
  -20.9272   -9.5494   22.5214 C   0  0  0  0  0  0  0  0  0  0  0  0
  -25.5074  -14.3655   22.5182 C   0  0  0  0  0  0  0  0  0  0  0  0
  -21.9184  -10.3084   21.8703 C   0  0  0  0  0  0  0  0  0  0  0  0
  -25.6881  -15.2290   21.4283 C   0  0  0  0  0  0  0  0  0  0  0  0
  -30.8616  -20.4142   19.8189 C   0  0  0  0  0  0  0  0  0  0  0  0
  -21.0797  -28.0244   22.7324 C   0  0  0  0  0  0  0  0  0  0  0  0
  -27.9353  -14.3535   21.1229 C   0  0  0  0  0  0  0  0  0  0  0  0
  -19.1659  -29.1518   23.4996 C   0  0  0  0  0  0  0  0  0  0  0  0
  -17.7289  -31.5290   23.7573 C   0  0  0  0  0  0  0  0  0  0  0  0
  -17.8903  -29.2592   22.9456 C   0  0  0  0  0  0  0  0  0  0  0  0
  -24.8091  -28.1861   20.7415 C   0  0  0  0  0  0  0  0  0  0  0  0
  -26.8172  -28.7548   20.0496 C   0  0  0  0  0  0  0  0  0  0  0  0
  -29.3748  -22.1764   19.5245 C   0  0  0  0  0  0  0  0  0  0  0  0
  -30.5577  -20.7309   21.1248 C   0  0  0  0  0  0  0  0  0  0  0  0
  -25.8710  -30.2820   21.7876 C   0  0  0  0  0  0  0  0  0  0  0  0
  -31.0141  -15.6340   19.7440 C   0  0  0  0  0  0  0  0  0  0  0  0
  -31.6052  -16.8603   19.1124 C   0  0  0  0  0  0  0  0  0  0  0  0
  -22.5354  -13.9303   21.4782 C   0  0  0  0  0  0  0  0  0  0  0  0
  -33.2315  -19.5604   19.8935 C   0  0  0  0  0  0  0  0  0  0  0  0
  -22.3999  -17.1638   21.6990 C   0  0  0  0  0  0  0  0  0  0  0  0
  -24.0736  -20.1377   21.7391 C   0  0  0  0  0  0  0  0  0  0  0  0
  -28.3125  -23.4885   17.6547 C   0  0  0  0  0  0  0  0  0  0  0  0
  -19.4817   -9.9793   22.5374 C   0  0  0  0  0  0  0  0  0  0  0  0
  -24.2212  -14.3816   23.2978 C   0  0  0  0  0  0  0  0  0  0  0  0
  -24.6051  -16.1734   20.9768 C   0  0  0  0  0  0  0  0  0  0  0  0
  -19.2809  -11.4537   22.1966 C   0  0  0  0  0  0  0  0  0  0  0  0
  -27.4706  -26.4664   15.8938 C   0  0  0  0  0  0  0  0  0  0  0  0
  -20.1008  -11.8341   20.9678 C   0  0  0  0  0  0  0  0  0  0  0  0
  -26.7906  -27.3349   16.9547 C   0  0  0  0  0  0  0  0  0  0  0  0
  -27.1276  -24.9878   16.0662 C   0  0  0  0  0  0  0  0  0  0  0  0
  -26.6941  -25.3141   18.4693 C   0  0  0  0  0  0  0  0  0  0  0  0
  -21.6002  -11.6388   21.2231 C   0  0  1  0  0  0  0  0  0  0  0  0
  -23.0411  -14.9168   22.4925 C   0  0  1  0  0  0  0  0  0  0  0  0
  -27.0617  -26.8041   18.3760 C   0  0  2  0  0  0  0  0  0  0  0  0
  -33.9572  -20.8076   19.4546 C   0  0  0  0  0  0  0  0  0  0  0  0
  -23.6889  -22.6126   21.8940 C   0  0  0  0  0  0  0  0  0  0  0  0
  -21.4651  -17.1978   18.7947 C   0  0  0  0  0  0  0  0  0  0  0  0
  -22.0106  -19.6402   18.7207 C   0  0  0  0  0  0  0  0  0  0  0  0
  -20.2673  -18.8006   20.2950 C   0  0  0  0  0  0  0  0  0  0  0  0
  -25.6486  -20.3433   24.2363 C   0  0  0  0  0  0  0  0  0  0  0  0
  -29.5108  -15.5697   19.8212 C   0  0  0  0  0  0  0  0  0  1  0  0
  -31.8074  -19.3127   19.3985 C   0  0  1  0  0  0  0  0  0  0  0  0
  -22.7026  -18.3126   20.7676 C   0  0  1  0  0  0  0  0  0  0  0  0
  -23.9775  -21.3352   22.6671 C   0  0  2  0  0  0  0  0  0  0  0  0
  -21.6313  -18.4687   19.6516 C   0  0  0  0  0  0  0  0  0  0  0  0
  -25.1249  -27.2592   19.8332 N   0  0  0  0  0  0  0  0  0  0  0  0
  -26.3516  -27.6323   19.4305 N   0  0  0  0  0  0  0  0  0  0  0  0
  -23.3634  -16.1475   21.7674 N   0  0  0  0  0  0  0  0  0  0  0  0
  -27.4143  -24.5543   17.4355 N   0  0  0  0  0  0  0  0  0  0  0  0
  -28.0329  -29.2673   19.7632 N   0  0  0  0  0  0  0  0  0  0  0  0
  -31.0379  -20.1294   22.2429 N   0  0  0  0  0  0  0  0  0  0  0  0
  -24.7674  -30.5358   22.6134 N   0  0  0  0  0  0  0  0  0  0  0  0
  -28.5321  -23.1866   18.9983 N   0  0  0  0  0  0  0  0  0  0  0  0
  -31.3141  -18.0159   19.8001 N   0  0  0  0  0  0  0  0  0  0  0  0
  -22.1233  -12.7277   22.0199 N   0  0  0  0  0  0  0  0  0  0  0  0
  -22.8621  -19.4916   21.6119 N   0  0  0  0  0  0  0  0  0  0  0  0
  -25.2546  -21.5159   23.4135 N   0  3  0  0  0  0  0  0  0  0  0  0
  -26.8537  -31.0610   21.8197 O   0  0  0  0  0  0  0  0  0  0  0  0
  -31.7868  -14.7695   20.1295 O   0  0  0  0  0  0  0  0  0  0  0  0
  -32.2829  -16.7125   18.1077 O   0  0  0  0  0  0  0  0  0  0  0  0
  -22.5189  -14.2380   20.2922 O   0  0  0  0  0  0  0  0  0  0  0  0
  -33.7770  -18.7669   20.6654 O   0  0  0  0  0  0  0  0  0  0  0  0
  -21.3507  -17.1714   22.3476 O   0  0  0  0  0  0  0  0  0  0  0  0
  -25.1179  -19.8105   21.1798 O   0  0  0  0  0  0  0  0  0  0  0  0
  -28.8684  -22.9057   16.7202 O   0  0  0  0  0  0  0  0  0  0  0  0
  -19.8801  -27.9721   23.3733 O   0  0  0  0  0  0  0  0  0  0  0  0
  -29.1122  -14.3470   20.4397 O   0  0  0  0  0  0  0  0  0  1  0  0
  -17.0385  -32.6700   23.8825 F   0  0  0  0  0  0  0  0  0  0  0  0
  -17.3493  -28.2235   22.2895 F   0  0  0  0  0  0  0  0  0  0  0  0
  -29.4503  -22.0328   21.2292 S   0  0  0  0  0  0  0  0  0  0  0  0
  1  2  1  0  0  0  0
  1  5  2  0  0  0  0
  2  6  2  0  0  0  0
  3  8  2  0  0  0  0
  3 16  1  0  0  0  0
  4  9  1  0  0  0  0
  4 16  2  0  0  0  0
  5 18  1  0  0  0  0
  6 20  1  0  0  0  0
  7 10  2  0  0  0  0
  7 19  1  0  0  0  0
  8 23  1  0  0  0  0
  9 23  2  0  0  0  0
 10 24  1  0  0  0  0
 11 12  2  0  0  0  0
 11 25  1  0  0  0  0
 12 26  1  0  0  0  0
 13 21  1  0  0  0  0
 13 24  2  0  0  0  0
 14 22  1  0  0  0  0
 14 30  2  0  0  0  0
 15 26  2  0  0  0  0
 15 27  1  0  0  0  0
 16 28  1  0  0  0  0
 17 28  1  0  0  0  0
 17 29  2  0  0  0  0
 17 32  1  0  0  0  0
 18 20  2  0  0  0  0
 18 40  1  0  0  0  0
 19 21  2  0  0  0  0
 19 41  1  0  0  0  0
 20 49  1  0  0  0  0
 21 42  1  0  0  0  0
 22 31  2  0  0  0  0
 22 59  1  0  0  0  0
 23 83  1  0  0  0  0
 24 84  1  0  0  0  0
 25 27  2  0  0  0  0
 25 83  1  0  0  0  0
 26 85  1  0  0  0  0
 27 86  1  0  0  0  0
 28 63  2  0  0  0  0
 29 64  1  0  0  0  0
 29 67  1  0  0  0  0
 30 70  1  0  0  0  0
 30 87  1  0  0  0  0
 31 68  1  0  0  0  0
 31 87  1  0  0  0  0
 32 69  1  0  0  0  0
 32 75  2  0  0  0  0
 33 34  1  0  0  0  0
 33 58  1  0  0  0  0
 33 76  2  0  0  0  0
 34 71  1  0  0  0  0
 34 77  2  0  0  0  0
 35 50  1  0  0  0  0
 35 72  1  0  0  0  0
 35 78  2  0  0  0  0
 36 52  1  0  0  0  0
 36 59  1  0  0  0  0
 36 79  2  0  0  0  0
 37 60  1  0  0  0  0
 37 65  1  0  0  0  0
 37 80  2  0  0  0  0
 38 61  1  0  0  0  0
 38 73  1  0  0  0  0
 38 81  2  0  0  0  0
 39 66  1  0  0  0  0
 39 70  1  0  0  0  0
 39 82  2  0  0  0  0
 40 43  1  0  0  0  0
 41 50  1  0  0  0  0
 42 65  1  0  0  0  0
 43 45  1  0  0  0  0
 44 46  1  0  0  0  0
 44 47  1  0  0  0  0
 45 49  1  0  0  0  0
 46 51  1  0  0  0  0
 47 66  1  0  0  0  0
 48 51  1  0  0  0  0
 48 66  1  0  0  0  0
 49 72  1  0  0  0  0
 50 65  1  0  0  0  0
 51 64  1  0  0  0  0
 53 61  1  0  0  0  0
 54 62  1  0  0  0  0
 55 62  1  0  0  0  0
 56 62  1  0  0  0  0
 57 74  1  0  0  0  0
 58 84  1  0  0  0  0
 59 71  1  0  0  0  0
 60 62  1  0  0  0  0
 60 73  1  0  0  0  0
 61 74  1  0  0  0  0
 63 64  1  0  0  0  0
M  CHG  1  74   1
M  ISO  4  39 100  58 101  70 100  84 101
M  END
> <Batch ID>
0167

> <Smiles>
CNC(C)C(=O)NC(C(=O)N1Cc2cc([101O:1][101CH2:1]C(=O)C(=O)NC(C(C)=O)c3cc([100NH:0][100C:0](=O)N4CCCC(n5nc(-c6ccc(Oc7ccc(F)cc7F)cc6)c(C(N)=O)c5N)C4)sc3N)ccc2CC1C(=O)NC1CCCc2ccccc21)C(C)(C)C

> <Shape>
0.224

> <Color>
0.072

> <Negative vol penalty>
0.000

$$$$

  -OEChem-04052304113D

 87 95  0     1  0  0  0  0  0999 V2000
  -31.6810  -33.5612   19.2995 C   0  0  0  0  0  0  0  0  0  0  0  0
  -31.1336  -32.3109   19.5686 C   0  0  0  0  0  0  0  0  0  0  0  0
  -23.4153   -9.7818   22.3091 C   0  0  0  0  0  0  0  0  0  0  0  0
  -22.8146   -9.8154   19.9692 C   0  0  0  0  0  0  0  0  0  0  0  0
  -31.2542  -34.6771   20.0183 C   0  0  0  0  0  0  0  0  0  0  0  0
  -30.1599  -32.1755   20.5576 C   0  0  0  0  0  0  0  0  0  0  0  0
  -26.2822  -29.2721   19.0814 C   0  0  0  0  0  0  0  0  0  0  0  0
  -22.8613   -8.5077   22.4331 C   0  0  0  0  0  0  0  0  0  0  0  0
  -22.2606   -8.5413   20.0931 C   0  0  0  0  0  0  0  0  0  0  0  0
  -26.4786  -27.8919   19.0960 C   0  0  0  0  0  0  0  0  0  0  0  0
  -23.7413   -5.3266   21.6988 C   0  0  0  0  0  0  0  0  0  0  0  0
  -24.4734   -4.3665   22.3972 C   0  0  0  0  0  0  0  0  0  0  0  0
  -27.0562  -19.2601   18.5001 C   0  0  0  0  0  0  0  0  0  0  0  0
  -27.8346  -21.1373   19.7864 C   0  0  0  0  0  0  0  0  0  0  0  0
  -25.3018  -27.7527   21.1972 C   0  0  0  0  0  0  0  0  0  0  0  0
  -22.6618   -4.1356   23.9790 C   0  0  0  0  0  0  0  0  0  0  0  0
  -23.3919  -10.4357   21.0772 C   0  0  0  0  0  0  0  0  0  0  0  0
  -28.0708  -19.8955   19.2072 C   0  0  0  0  0  0  0  0  0  0  0  0
  -25.2923  -12.0727   20.6120 C   0  0  0  0  0  0  0  0  0  0  0  0
  -30.2679  -34.5570   21.0099 C   0  0  0  0  0  0  0  0  0  0  0  0
  -25.6025  -29.9054   20.1318 C   0  0  0  0  0  0  0  0  0  0  0  0
  -29.7205  -33.2906   21.2912 C   0  0  0  0  0  0  0  0  0  0  0  0
  -25.0959  -29.1407   21.1923 C   0  0  0  0  0  0  0  0  0  0  0  0
  -22.2840   -7.8874   21.3251 C   0  0  0  0  0  0  0  0  0  0  0  0
  -25.9909  -27.1323   20.1554 C   0  0  0  0  0  0  0  0  0  0  0  0
  -22.4694   -5.6913   22.1405 C   0  0  0  0  0  0  0  0  0  0  0  0
  -23.9337   -3.7710   23.5373 C   0  0  0  0  0  0  0  0  0  0  0  0
  -21.9297   -5.0958   23.2805 C   0  0  0  0  0  0  0  0  0  0  0  0
  -23.9635  -11.7520   20.9487 C   0  0  0  0  0  0  0  0  0  0  0  0
  -25.8329  -19.9034   18.4020 C   0  0  0  0  0  0  0  0  0  0  0  0
  -26.5766  -21.6967   19.6306 C   0  0  0  0  0  0  0  0  0  0  0  0
  -25.3272  -13.4457   20.6219 C   0  0  0  0  0  0  0  0  0  0  0  0
  -29.3736  -19.2637   19.3413 C   0  0  0  0  0  0  0  0  0  0  0  0
  -26.3962  -11.2068   20.3166 C   0  0  0  0  0  0  0  0  0  0  0  0
  -26.3664  -32.1077   22.2929 C   0  0  0  0  0  0  0  0  0  0  0  0
  -25.5169  -24.8902   22.3154 C   0  0  0  0  0  0  0  0  0  0  0  0
  -23.2135  -31.9162   23.0314 C   0  0  0  0  0  0  0  0  0  0  0  0
  -20.3366  -30.0808   22.9988 C   0  0  0  0  0  0  0  0  0  0  0  0
  -23.0812  -18.3808   19.3009 C   0  0  0  0  0  0  0  0  0  0  0  0
  -29.8727  -35.7838   21.7931 C   0  0  0  0  0  0  0  0  0  0  0  0
  -25.3756  -31.3917   20.0879 C   0  0  0  0  0  0  0  0  0  0  0  0
  -24.3417  -29.7699   22.3341 C   0  0  0  0  0  0  0  0  0  0  0  0
  -28.5670  -35.6182   22.5665 C   0  0  0  0  0  0  0  0  0  0  0  0
  -21.9401  -16.8134   22.2871 C   0  0  0  0  0  0  0  0  0  0  0  0
  -28.5539  -34.2883   23.3134 C   0  0  0  0  0  0  0  0  0  0  0  0
  -22.4689  -15.3824   22.1742 C   0  0  0  0  0  0  0  0  0  0  0  0
  -21.5139  -17.3663   20.9290 C   0  0  0  0  0  0  0  0  0  0  0  0
  -23.0727  -15.8545   19.7635 C   0  0  0  0  0  0  0  0  0  0  0  0
  -28.6443  -33.1075   22.3393 C   0  0  1  0  0  0  0  0  0  0  0  0
  -25.1179  -31.9976   21.4641 C   0  0  1  0  0  0  0  0  0  0  0  0
  -23.5672  -15.2737   21.0993 C   0  0  2  0  0  0  0  0  0  0  0  0
  -29.4194  -17.7631   19.3481 C   0  0  0  0  0  0  0  0  0  0  0  0
  -24.5305  -24.1539   23.1854 C   0  0  0  0  0  0  0  0  0  0  0  0
  -17.9314  -30.1754   23.7084 C   0  0  0  0  0  0  0  0  0  0  0  0
  -24.0495  -31.4151   25.9228 C   0  0  0  0  0  0  0  0  0  0  0  0
  -21.7298  -30.5899   26.3771 C   0  0  0  0  0  0  0  0  0  0  0  0
  -22.0929  -32.9494   25.6534 C   0  0  0  0  0  0  0  0  0  0  0  0
  -19.3825  -29.8018   20.2111 C   0  0  0  0  0  0  0  0  0  0  0  0
  -24.7203  -19.2500   17.6525 C   0  0  0  0  0  0  0  0  0  0  0  0
  -25.0970  -23.6406   20.1380 C   0  0  0  0  0  0  0  0  0  0  0  0
  -25.1900  -24.9968   20.8294 C   0  0  2  0  0  0  0  0  0  1  0  0
  -22.3859  -31.0797   23.9770 C   0  0  1  0  0  0  0  0  0  0  0  0
  -18.9203  -30.4351   22.5827 C   0  0  2  0  0  0  0  0  0  0  0  0
  -22.5804  -31.4966   25.4622 C   0  0  0  0  0  0  0  0  0  0  0  0
  -23.2090  -12.8342   21.1574 N   0  0  0  0  0  0  0  0  0  0  0  0
  -25.5660  -21.1096   18.9510 N   0  0  0  0  0  0  0  0  0  0  0  0
  -24.0665  -13.8483   20.9514 N   0  0  0  0  0  0  0  0  0  0  0  0
  -24.1510  -31.2272   22.2488 N   0  0  0  0  0  0  0  0  0  0  0  0
  -22.6006  -17.2347   19.9555 N   0  0  0  0  0  0  0  0  0  0  0  0
  -26.3131  -14.3358   20.3809 N   0  0  0  0  0  0  0  0  0  0  0  0
  -26.1867   -9.8215   20.3513 N   0  0  0  0  0  0  0  0  0  0  0  0
  -26.3554  -22.9325   20.2141 N   0  0  0  0  0  0  0  0  0  0  0  0
  -27.3617  -32.8703   21.7122 N   0  0  0  0  0  0  0  0  0  0  0  0
  -21.0084  -31.1730   23.5056 N   0  0  0  0  0  0  0  0  0  0  0  0
  -24.1164  -18.1686   18.3986 N   0  0  0  0  0  0  0  0  0  0  0  0
  -18.5099  -29.6258   21.4005 N   0  3  0  0  0  0  0  0  0  0  0  0
  -30.4431  -19.8665   19.4545 O   0  0  0  0  0  0  0  0  0  0  0  0
  -27.5389  -11.6483   20.0465 O   0  0  0  0  0  0  0  0  0  0  0  0
  -26.4219  -31.5437   23.3794 O   0  0  0  0  0  0  0  0  0  0  0  0
  -26.5349  -25.3879   22.7972 O   0  0  0  0  0  0  0  0  0  0  0  0
  -23.0299  -33.1350   22.9835 O   0  0  0  0  0  0  0  0  0  0  0  0
  -20.7993  -28.9475   22.8889 O   0  0  0  0  0  0  0  0  0  0  0  0
  -22.6254  -19.5103   19.5093 O   0  0  0  0  0  0  0  0  0  0  0  0
  -21.7435   -6.6440   21.4456 O   0  0  0  0  0  0  0  0  0  0  0  0
  -26.1817  -25.7850   20.1724 O   0  0  0  0  0  0  0  0  0  1  0  0
  -24.6363   -2.8479   24.2070 F   0  0  0  0  0  0  0  0  0  0  0  0
  -20.7078   -5.4412   23.7090 F   0  0  0  0  0  0  0  0  0  0  0  0
  1  2  1  0  0  0  0
  1  5  2  0  0  0  0
  2  6  2  0  0  0  0
  3  8  2  0  0  0  0
  3 17  1  0  0  0  0
  4  9  1  0  0  0  0
  4 17  2  0  0  0  0
  5 20  1  0  0  0  0
  6 22  1  0  0  0  0
  7 10  2  0  0  0  0
  7 21  1  0  0  0  0
  8 24  1  0  0  0  0
  9 24  2  0  0  0  0
 10 25  1  0  0  0  0
 11 12  2  0  0  0  0
 11 26  1  0  0  0  0
 12 27  1  0  0  0  0
 13 18  1  0  0  0  0
 13 30  2  0  0  0  0
 14 18  2  0  0  0  0
 14 31  1  0  0  0  0
 15 23  1  0  0  0  0
 15 25  2  0  0  0  0
 16 27  2  0  0  0  0
 16 28  1  0  0  0  0
 17 29  1  0  0  0  0
 18 33  1  0  0  0  0
 19 29  1  0  0  0  0
 19 32  2  0  0  0  0
 19 34  1  0  0  0  0
 20 22  2  0  0  0  0
 20 40  1  0  0  0  0
 21 23  2  0  0  0  0
 21 41  1  0  0  0  0
 22 49  1  0  0  0  0
 23 42  1  0  0  0  0
 24 84  1  0  0  0  0
 25 85  1  0  0  0  0
 26 28  2  0  0  0  0
 26 84  1  0  0  0  0
 27 86  1  0  0  0  0
 28 87  1  0  0  0  0
 29 65  2  0  0  0  0
 30 59  1  0  0  0  0
 30 66  1  0  0  0  0
 31 66  2  0  0  0  0
 31 72  1  0  0  0  0
 32 67  1  0  0  0  0
 32 70  1  0  0  0  0
 33 52  1  0  0  0  0
 33 77  2  0  0  0  0
 34 71  1  0  0  0  0
 34 78  2  0  0  0  0
 35 50  1  0  0  0  0
 35 73  1  0  0  0  0
 35 79  2  0  0  0  0
 36 53  1  0  0  0  0
 36 61  1  0  0  0  0
 36 80  2  0  0  0  0
 37 62  1  0  0  0  0
 37 68  1  0  0  0  0
 37 81  2  0  0  0  0
 38 63  1  0  0  0  0
 38 74  1  0  0  0  0
 38 82  2  0  0  0  0
 39 69  1  0  0  0  0
 39 75  1  0  0  0  0
 39 83  2  0  0  0  0
 40 43  1  0  0  0  0
 41 50  1  0  0  0  0
 42 68  1  0  0  0  0
 43 45  1  0  0  0  0
 44 46  1  0  0  0  0
 44 47  1  0  0  0  0
 45 49  1  0  0  0  0
 46 51  1  0  0  0  0
 47 69  1  0  0  0  0
 48 51  1  0  0  0  0
 48 69  1  0  0  0  0
 49 73  1  0  0  0  0
 50 68  1  0  0  0  0
 51 67  1  0  0  0  0
 54 63  1  0  0  0  0
 55 64  1  0  0  0  0
 56 64  1  0  0  0  0
 57 64  1  0  0  0  0
 58 76  1  0  0  0  0
 59 75  1  0  0  0  0
 60 61  1  0  0  0  0
 60 72  1  0  0  0  0
 61 85  1  0  0  0  0
 62 64  1  0  0  0  0
 62 74  1  0  0  0  0
 63 76  1  0  0  0  0
 65 67  1  0  0  0  0
M  CHG  1  76   1
M  ISO  4  39 100  61 101  75 100  85 101
M  END
> <Batch ID>
0167

> <Smiles>
CNC(C)C(=O)NC(C(=O)N1Cc2cc([101O:1][101CH:1](CNc3cc(C(C)=O)cc(C[100NH:0][100C:0](=O)N4CCCC(n5nc(-c6ccc(Oc7ccc(F)cc7F)cc6)c(C(N)=O)c5N)C4)n3)C(C)=O)ccc2CC1C(=O)NC1CCCc2ccccc21)C(C)(C)C

> <Shape>
0.238

> <Color>
0.089

> <Negative vol penalty>
0.000

$$$$

  -OEChem-04052304113D

 83 91  0     1  0  0  0  0  0999 V2000
  -20.2381  -23.5545   33.4849 C   0  0  0  0  0  0  0  0  0  0  0  0
  -21.1182  -23.1881   32.4716 C   0  0  0  0  0  0  0  0  0  0  0  0
  -31.9521  -18.8889   21.6847 C   0  0  0  0  0  0  0  0  0  0  0  0
  -23.2006   -9.8510   19.9527 C   0  0  0  0  0  0  0  0  0  0  0  0
  -23.9120   -9.9299   22.2603 C   0  0  0  0  0  0  0  0  0  0  0  0
  -19.6311  -22.5735   34.2679 C   0  0  0  0  0  0  0  0  0  0  0  0
  -21.3925  -21.8404   32.2415 C   0  0  0  0  0  0  0  0  0  0  0  0
  -21.3166  -20.6554   27.3186 C   0  0  0  0  0  0  0  0  0  0  0  0
  -32.1335  -17.5347   21.9655 C   0  0  0  0  0  0  0  0  0  0  0  0
  -30.8134  -19.5502   22.1450 C   0  0  0  0  0  0  0  0  0  0  0  0
  -22.5090   -8.6665   20.2064 C   0  0  0  0  0  0  0  0  0  0  0  0
  -23.2204   -8.7454   22.5140 C   0  0  0  0  0  0  0  0  0  0  0  0
  -22.4345  -21.0047   26.5623 C   0  0  0  0  0  0  0  0  0  0  0  0
  -20.0234   -7.7989   23.0654 C   0  0  0  0  0  0  0  0  0  0  0  0
  -19.2455   -7.7394   24.2216 C   0  0  0  0  0  0  0  0  0  0  0  0
  -23.2404  -18.7363   26.7169 C   0  0  0  0  0  0  0  0  0  0  0  0
  -30.0376  -17.5029   23.1667 C   0  0  0  0  0  0  0  0  0  0  0  0
  -20.5648   -5.8767   25.0134 C   0  0  0  0  0  0  0  0  0  0  0  0
  -23.9021  -10.4826   20.9796 C   0  0  0  0  0  0  0  0  0  0  0  0
  -24.1225  -13.0195   20.8259 C   0  0  0  0  0  0  0  0  0  0  0  0
  -19.8907  -21.2127   34.0410 C   0  0  0  0  0  0  0  0  0  0  0  0
  -21.1573  -19.3443   27.7897 C   0  0  0  0  0  0  0  0  0  0  0  0
  -20.7894  -20.8404   33.0231 C   0  0  0  0  0  0  0  0  0  0  0  0
  -22.1183  -18.3723   27.4768 C   0  0  0  0  0  0  0  0  0  0  0  0
  -31.1763  -16.8417   22.7065 C   0  0  0  0  0  0  0  0  0  0  0  0
  -29.8562  -18.8572   22.8860 C   0  0  0  0  0  0  0  0  0  0  0  0
  -22.5189   -8.1137   21.4870 C   0  0  0  0  0  0  0  0  0  0  0  0
  -23.3981  -20.0458   26.2638 C   0  0  0  0  0  0  0  0  0  0  0  0
  -21.0720   -6.8972   22.8831 C   0  0  0  0  0  0  0  0  0  0  0  0
  -19.5162   -6.7783   25.1956 C   0  0  0  0  0  0  0  0  0  0  0  0
  -21.3427   -5.9362   23.8571 C   0  0  0  0  0  0  0  0  0  0  0  0
  -24.6172  -11.7059   20.7181 C   0  0  0  0  0  0  0  0  0  0  0  0
  -25.1839  -13.8162   20.4723 C   0  0  0  0  0  0  0  0  0  0  0  0
  -22.8200  -13.4784   21.2113 C   0  0  0  0  0  0  0  0  0  0  0  0
  -20.9651  -18.0016   30.6644 C   0  0  0  0  0  0  0  0  0  0  0  0
  -26.6042  -19.8874   24.4499 C   0  0  0  0  0  0  0  0  0  0  0  0
  -20.3286  -15.3268   28.9432 C   0  0  0  0  0  0  0  0  0  0  0  0
  -20.6107  -13.6503   25.9840 C   0  0  0  0  0  0  0  0  0  0  0  0
  -30.9476  -14.0578   20.9574 C   0  0  0  0  0  0  0  0  0  0  0  0
  -19.2472  -20.1905   34.9441 C   0  0  0  0  0  0  0  0  0  0  0  0
  -19.9324  -18.9772   28.5817 C   0  0  0  0  0  0  0  0  0  0  0  0
  -21.9840  -16.9460   27.9416 C   0  0  0  0  0  0  0  0  0  0  0  0
  -19.3026  -18.7686   34.3913 C   0  0  0  0  0  0  0  0  0  0  0  0
  -29.3563  -13.1274   17.9113 C   0  0  0  0  0  0  0  0  0  0  0  0
  -20.7025  -18.4505   33.8756 C   0  0  0  0  0  0  0  0  0  0  0  0
  -27.9261  -12.7881   18.3346 C   0  0  0  0  0  0  0  0  0  0  0  0
  -30.3737  -12.6997   18.9668 C   0  0  0  0  0  0  0  0  0  0  0  0
  -28.6792  -12.8717   20.7480 C   0  0  0  0  0  0  0  0  0  0  0  0
  -21.0934  -19.3879   32.7266 C   0  0  1  0  0  0  0  0  0  0  0  0
  -20.1291  -17.7347   29.4448 C   0  0  1  0  0  0  0  0  0  0  0  0
  -27.6128  -13.3345   19.7405 C   0  0  2  0  0  0  0  0  0  0  0  0
  -20.0240  -11.4682   24.8925 C   0  0  0  0  0  0  0  0  0  0  0  0
  -22.5903  -13.9589   30.4675 C   0  0  0  0  0  0  0  0  0  0  0  0
  -22.5876  -12.1640   28.7220 C   0  0  0  0  0  0  0  0  0  0  0  0
  -20.5584  -12.5422   30.1229 C   0  0  0  0  0  0  0  0  0  0  0  0
  -18.9468  -14.9896   23.9354 C   0  0  0  0  0  0  0  0  0  0  0  0
  -31.3703  -15.3938   23.0058 C   0  0  0  0  0  0  0  0  0  0  0  0
  -27.6848  -18.8813   24.1149 C   0  0  0  0  0  0  0  0  0  0  0  0
  -25.4382  -19.3516   25.2578 C   0  0  0  0  0  0  0  0  0  1  0  0
  -21.1607  -14.2243   28.3340 C   0  0  1  0  0  0  0  0  0  0  0  0
  -19.5875  -12.9023   25.1486 C   0  0  2  0  0  0  0  0  0  0  0  0
  -21.7281  -13.2496   29.4044 C   0  0  0  0  0  0  0  0  0  0  0  0
  -25.8935  -11.6662   20.3264 N   0  0  0  0  0  0  0  0  0  0  0  0
  -26.2098  -12.9646   20.1850 N   0  0  0  0  0  0  0  0  0  0  0  0
  -20.7718  -16.6378   28.7182 N   0  0  0  0  0  0  0  0  0  0  0  0
  -30.0200  -13.2523   20.2765 N   0  0  0  0  0  0  0  0  0  0  0  0
  -25.3304  -15.1552   20.3820 N   0  0  0  0  0  0  0  0  0  0  0  0
  -21.8470  -12.5257   21.5431 N   0  0  0  0  0  0  0  0  0  0  0  0
  -28.7237  -19.5151   23.3442 N   0  0  0  0  0  0  0  0  0  0  0  0
  -20.4498  -18.9763   31.4974 N   0  0  0  0  0  0  0  0  0  0  0  0
  -20.3180  -13.5842   27.3298 N   0  0  0  0  0  0  0  0  0  0  0  0
  -30.5301  -14.5461   22.1895 N   0  0  0  0  0  0  0  0  0  0  0  0
  -19.3987  -13.5780   23.8337 N   0  3  0  0  0  0  0  0  0  0  0  0
  -22.5227  -14.6966   21.2442 O   0  0  0  0  0  0  0  0  0  0  0  0
  -22.0002  -17.3689   30.8377 O   0  0  0  0  0  0  0  0  0  0  0  0
  -26.6578  -21.0642   24.0951 O   0  0  0  0  0  0  0  0  0  0  0  0
  -19.3185  -15.0358   29.5887 O   0  0  0  0  0  0  0  0  0  0  0  0
  -21.5754  -14.2318   25.4923 O   0  0  0  0  0  0  0  0  0  0  0  0
  -32.0631  -14.3266   20.4988 O   0  0  0  0  0  0  0  0  0  0  0  0
  -21.8440   -6.9581   21.7350 O   0  0  0  0  0  0  0  0  0  0  0  0
  -24.4906  -20.3842   25.5263 O   0  0  0  0  0  0  0  0  0  1  0  0
  -18.7700   -6.7223   26.3066 F   0  0  0  0  0  0  0  0  0  0  0  0
  -22.3495   -5.0680   23.6882 F   0  0  0  0  0  0  0  0  0  0  0  0
  1  2  1  0  0  0  0
  1  6  2  0  0  0  0
  2  7  2  0  0  0  0
  3  9  1  0  0  0  0
  3 10  2  0  0  0  0
  4 11  2  0  0  0  0
  4 19  1  0  0  0  0
  5 12  1  0  0  0  0
  5 19  2  0  0  0  0
  6 21  1  0  0  0  0
  7 23  1  0  0  0  0
  8 13  2  0  0  0  0
  8 22  1  0  0  0  0
  9 25  2  0  0  0  0
 10 26  1  0  0  0  0
 11 27  1  0  0  0  0
 12 27  2  0  0  0  0
 13 28  1  0  0  0  0
 14 15  2  0  0  0  0
 14 29  1  0  0  0  0
 15 30  1  0  0  0  0
 16 24  1  0  0  0  0
 16 28  2  0  0  0  0
 17 25  1  0  0  0  0
 17 26  2  0  0  0  0
 18 30  2  0  0  0  0
 18 31  1  0  0  0  0
 19 32  1  0  0  0  0
 20 32  1  0  0  0  0
 20 33  2  0  0  0  0
 20 34  1  0  0  0  0
 21 23  2  0  0  0  0
 21 40  1  0  0  0  0
 22 24  2  0  0  0  0
 22 41  1  0  0  0  0
 23 49  1  0  0  0  0
 24 42  1  0  0  0  0
 25 57  1  0  0  0  0
 26 69  1  0  0  0  0
 27 80  1  0  0  0  0
 28 81  1  0  0  0  0
 29 31  2  0  0  0  0
 29 80  1  0  0  0  0
 30 82  1  0  0  0  0
 31 83  1  0  0  0  0
 32 63  2  0  0  0  0
 33 64  1  0  0  0  0
 33 67  1  0  0  0  0
 34 68  1  0  0  0  0
 34 74  2  0  0  0  0
 35 50  1  0  0  0  0
 35 70  1  0  0  0  0
 35 75  2  0  0  0  0
 36 58  1  0  0  0  0
 36 59  1  0  0  0  0
 36 76  2  0  0  0  0
 37 60  1  0  0  0  0
 37 65  1  0  0  0  0
 37 77  2  0  0  0  0
 38 61  1  0  0  0  0
 38 71  1  0  0  0  0
 38 78  2  0  0  0  0
 39 66  1  0  0  0  0
 39 72  1  0  0  0  0
 39 79  2  0  0  0  0
 40 43  1  0  0  0  0
 41 50  1  0  0  0  0
 42 65  1  0  0  0  0
 43 45  1  0  0  0  0
 44 46  1  0  0  0  0
 44 47  1  0  0  0  0
 45 49  1  0  0  0  0
 46 51  1  0  0  0  0
 47 66  1  0  0  0  0
 48 51  1  0  0  0  0
 48 66  1  0  0  0  0
 49 70  1  0  0  0  0
 50 65  1  0  0  0  0
 51 64  1  0  0  0  0
 52 61  1  0  0  0  0
 53 62  1  0  0  0  0
 54 62  1  0  0  0  0
 55 62  1  0  0  0  0
 56 73  1  0  0  0  0
 57 72  1  0  0  0  0
 58 69  1  0  0  0  0
 59 81  1  0  0  0  0
 60 62  1  0  0  0  0
 60 71  1  0  0  0  0
 61 73  1  0  0  0  0
 63 64  1  0  0  0  0
M  CHG  1  73   1
M  ISO  4  39 100  59 101  72 100  81 101
M  END
> <Batch ID>
0167

> <Smiles>
CNC(C)C(=O)NC(C(=O)N1Cc2cc([101O:1][101CH2:1]C(=O)CNc3cccc(C[100NH:0][100C:0](=O)N4CCCC(n5nc(-c6ccc(Oc7ccc(F)cc7F)cc6)c(C(N)=O)c5N)C4)c3)ccc2CC1C(=O)NC1CCCc2ccccc21)C(C)(C)C

> <Shape>
0.170

> <Color>
0.185

> <Negative vol penalty>
0.000

$$$$

  -OEChem-04052304113D

 84 92  0     1  0  0  0  0  0999 V2000
  -26.8274  -41.9876   22.3365 C   0  0  0  0  0  0  0  0  0  0  0  0
  -25.6557  -41.2384   22.3721 C   0  0  0  0  0  0  0  0  0  0  0  0
  -30.3762  -27.7519   20.8064 C   0  0  0  0  0  0  0  0  0  0  0  0
  -29.2537  -26.4363   22.4934 C   0  0  0  0  0  0  0  0  0  0  0  0
  -28.0647  -41.3450   22.3406 C   0  0  0  0  0  0  0  0  0  0  0  0
  -25.7207  -39.8460   22.4107 C   0  0  0  0  0  0  0  0  0  0  0  0
  -21.8977  -36.0618   25.3384 C   0  0  0  0  0  0  0  0  0  0  0  0
  -31.5971  -27.5247   21.4414 C   0  0  0  0  0  0  0  0  0  0  0  0
  -30.4746  -26.2089   23.1284 C   0  0  0  0  0  0  0  0  0  0  0  0
  -20.8062  -35.3109   24.9045 C   0  0  0  0  0  0  0  0  0  0  0  0
  -33.2688  -28.7195   24.1250 C   0  0  0  0  0  0  0  0  0  0  0  0
  -34.1236  -29.8088   24.2932 C   0  0  0  0  0  0  0  0  0  0  0  0
  -22.2367  -33.3838   24.6605 C   0  0  0  0  0  0  0  0  0  0  0  0
  -35.8164  -28.6816   22.9889 C   0  0  0  0  0  0  0  0  0  0  0  0
  -20.2022  -27.0370   22.6784 C   0  0  0  0  0  0  0  0  0  0  0  0
  -29.2044  -27.2078   21.3324 C   0  0  0  0  0  0  0  0  0  0  0  0
  -27.3487  -26.6583   19.6704 C   0  0  0  0  0  0  0  0  0  0  0  0
  -28.1450  -39.9443   22.3890 C   0  0  0  0  0  0  0  0  0  0  0  0
  -23.1712  -35.4814   25.4263 C   0  0  0  0  0  0  0  0  0  0  0  0
  -26.9602  -39.1840   22.4141 C   0  0  0  0  0  0  0  0  0  0  0  0
  -23.3422  -34.1289   25.0982 C   0  0  0  0  0  0  0  0  0  0  0  0
  -31.6463  -26.7531   22.6024 C   0  0  0  0  0  0  0  0  0  0  0  0
  -20.9761  -33.9724   24.5627 C   0  0  0  0  0  0  0  0  0  0  0  0
  -33.6877  -27.6112   23.3889 C   0  0  0  0  0  0  0  0  0  0  0  0
  -35.3975  -29.7899   23.7251 C   0  0  0  0  0  0  0  0  0  0  0  0
  -34.9615  -27.5923   22.8208 C   0  0  0  0  0  0  0  0  0  0  0  0
  -27.9428  -27.4427   20.6772 C   0  0  0  0  0  0  0  0  0  0  0  0
  -20.3262  -28.3948   22.4827 C   0  0  0  0  0  0  0  0  0  0  0  0
  -17.9512  -27.2879   22.9941 C   0  0  0  0  0  0  0  0  0  0  0  0
  -18.0752  -28.6459   22.7991 C   0  0  0  0  0  0  0  0  0  0  0  0
  -26.1681  -27.3003   19.3868 C   0  0  0  0  0  0  0  0  0  0  0  0
  -27.8217  -25.4567   19.0474 C   0  0  0  0  0  0  0  0  0  0  0  0
  -25.9789  -36.0111   24.0334 C   0  0  0  0  0  0  0  0  0  0  0  0
  -17.5509  -31.7803   23.2001 C   0  0  0  0  0  0  0  0  0  0  0  0
  -27.0057  -33.7629   26.1342 C   0  0  0  0  0  0  0  0  0  0  0  0
  -26.2481  -31.0947   28.1227 C   0  0  0  0  0  0  0  0  0  0  0  0
  -21.9459  -30.2601   21.9891 C   0  0  0  0  0  0  0  0  0  0  0  0
  -29.5047  -39.2932   22.3439 C   0  0  0  0  0  0  0  0  0  0  0  0
  -24.3333  -36.2979   25.9217 C   0  0  0  0  0  0  0  0  0  0  0  0
  -24.6848  -33.4531   25.1947 C   0  0  0  0  0  0  0  0  0  0  0  0
  -29.4915  -37.8258   22.7644 C   0  0  0  0  0  0  0  0  0  0  0  0
  -24.4504  -31.8923   20.0551 C   0  0  0  0  0  0  0  0  0  0  0  0
  -28.3478  -37.0844   22.0794 C   0  0  0  0  0  0  0  0  0  0  0  0
  -25.5492  -30.8357   19.9189 C   0  0  0  0  0  0  0  0  0  0  0  0
  -23.7799  -31.8397   21.4267 C   0  0  0  0  0  0  0  0  0  0  0  0
  -24.3718  -29.4621   21.6836 C   0  0  0  0  0  0  0  0  0  0  0  0
  -26.9899  -37.6725   22.4815 C   0  0  1  0  0  0  0  0  0  0  0  0
  -25.6844  -35.7423   25.4821 C   0  0  1  0  0  0  0  0  0  0  0  0
  -25.0323  -29.4333   20.2956 C   0  0  2  0  0  0  0  0  0  0  0  0
  -27.3036  -29.4439   29.6906 C   0  0  0  0  0  0  0  0  0  0  0  0
  -28.1701  -32.2502   23.7539 C   0  0  0  0  0  0  0  0  0  0  0  0
  -28.3490  -30.2262   25.2166 C   0  0  0  0  0  0  0  0  0  0  0  0
  -29.6328  -32.2889   25.7821 C   0  0  0  0  0  0  0  0  0  0  0  0
  -24.5773  -32.0041   30.3899 C   0  0  0  0  0  0  0  0  0  0  0  0
  -18.1712  -32.9800   22.4962 C   0  0  0  0  0  0  0  0  0  0  0  0
  -16.8741  -30.7733   22.2919 C   0  0  0  0  0  0  0  0  0  0  0  0
  -18.8750  -33.9339   23.4492 C   0  0  0  0  0  0  0  0  0  1  0  0
  -27.1269  -32.2582   26.1156 C   0  0  1  0  0  0  0  0  0  0  0  0
  -26.5958  -30.7843   29.5674 C   0  0  2  0  0  0  0  0  0  0  0  0
  -28.2947  -31.7688   25.2132 C   0  0  0  0  0  0  0  0  0  0  0  0
  -19.0125  -26.4591   22.9376 N   0  0  0  0  0  0  0  0  0  0  0  0
  -27.2009  -28.5022   21.0105 N   0  0  0  0  0  0  0  0  0  0  0  0
  -19.2649  -29.2237   22.5395 N   0  0  0  0  0  0  0  0  0  0  0  0
  -26.1285  -28.3880   20.2086 N   0  0  0  0  0  0  0  0  0  0  0  0
  -25.7914  -34.2952   25.6783 N   0  0  0  0  0  0  0  0  0  0  0  0
  -23.3117  -30.4819   21.7135 N   0  0  0  0  0  0  0  0  0  0  0  0
  -16.6790  -26.7334   23.2629 N   0  0  0  0  0  0  0  0  0  0  0  0
  -25.1704  -27.0348   18.5170 N   0  0  0  0  0  0  0  0  0  0  0  0
  -29.0549  -24.9321   19.4578 N   0  0  0  0  0  0  0  0  0  0  0  0
  -21.6126  -28.9249   22.2144 N   0  0  0  0  0  0  0  0  0  0  0  0
  -16.9504  -29.4548   22.8686 N   0  0  0  0  0  0  0  0  0  0  0  0
  -26.6130  -37.2169   23.8024 N   0  0  0  0  0  0  0  0  0  0  0  0
  -27.2328  -31.8399   27.5092 N   0  0  0  0  0  0  0  0  0  0  0  0
  -25.3604  -30.7417   30.3998 N   0  3  0  0  0  0  0  0  0  0  0  0
  -27.1778  -24.8747   18.1418 O   0  0  0  0  0  0  0  0  0  0  0  0
  -25.6561  -35.1849   23.1879 O   0  0  0  0  0  0  0  0  0  0  0  0
  -17.5949  -31.6403   24.4216 O   0  0  0  0  0  0  0  0  0  0  0  0
  -27.9509  -34.4406   26.5452 O   0  0  0  0  0  0  0  0  0  0  0  0
  -25.2089  -30.7111   27.5905 O   0  0  0  0  0  0  0  0  0  0  0  0
  -21.1270  -31.1829   21.9960 O   0  0  0  0  0  0  0  0  0  0  0  0
  -32.8376  -26.5309   23.2222 O   0  0  0  0  0  0  0  0  0  0  0  0
  -19.9125  -33.2373   24.1382 O   0  0  0  0  0  0  0  0  0  1  0  0
  -36.2177  -30.8366   23.8853 F   0  0  0  0  0  0  0  0  0  0  0  0
  -35.3692  -26.5309   22.1115 F   0  0  0  0  0  0  0  0  0  0  0  0
  1  2  1  0  0  0  0
  1  5  2  0  0  0  0
  2  6  2  0  0  0  0
  3  8  2  0  0  0  0
  3 16  1  0  0  0  0
  4  9  1  0  0  0  0
  4 16  2  0  0  0  0
  5 18  1  0  0  0  0
  6 20  1  0  0  0  0
  7 10  2  0  0  0  0
  7 19  1  0  0  0  0
  8 22  1  0  0  0  0
  9 22  2  0  0  0  0
 10 23  1  0  0  0  0
 11 12  2  0  0  0  0
 11 24  1  0  0  0  0
 12 25  1  0  0  0  0
 13 21  1  0  0  0  0
 13 23  2  0  0  0  0
 14 25  2  0  0  0  0
 14 26  1  0  0  0  0
 15 28  1  0  0  0  0
 15 61  2  0  0  0  0
 16 27  1  0  0  0  0
 17 27  1  0  0  0  0
 17 31  2  0  0  0  0
 17 32  1  0  0  0  0
 18 20  2  0  0  0  0
 18 38  1  0  0  0  0
 19 21  2  0  0  0  0
 19 39  1  0  0  0  0
 20 47  1  0  0  0  0
 21 40  1  0  0  0  0
 22 81  1  0  0  0  0
 23 82  1  0  0  0  0
 24 26  2  0  0  0  0
 24 81  1  0  0  0  0
 25 83  1  0  0  0  0
 26 84  1  0  0  0  0
 27 62  2  0  0  0  0
 28 63  2  0  0  0  0
 28 70  1  0  0  0  0
 29 30  2  0  0  0  0
 29 61  1  0  0  0  0
 29 67  1  0  0  0  0
 30 63  1  0  0  0  0
 30 71  1  0  0  0  0
 31 64  1  0  0  0  0
 31 68  1  0  0  0  0
 32 69  1  0  0  0  0
 32 75  2  0  0  0  0
 33 48  1  0  0  0  0
 33 72  1  0  0  0  0
 33 76  2  0  0  0  0
 34 55  1  0  0  0  0
 34 56  1  0  0  0  0
 34 77  2  0  0  0  0
 35 58  1  0  0  0  0
 35 65  1  0  0  0  0
 35 78  2  0  0  0  0
 36 59  1  0  0  0  0
 36 73  1  0  0  0  0
 36 79  2  0  0  0  0
 37 66  1  0  0  0  0
 37 70  1  0  0  0  0
 37 80  2  0  0  0  0
 38 41  1  0  0  0  0
 39 48  1  0  0  0  0
 40 65  1  0  0  0  0
 41 43  1  0  0  0  0
 42 44  1  0  0  0  0
 42 45  1  0  0  0  0
 43 47  1  0  0  0  0
 44 49  1  0  0  0  0
 45 66  1  0  0  0  0
 46 49  1  0  0  0  0
 46 66  1  0  0  0  0
 47 72  1  0  0  0  0
 48 65  1  0  0  0  0
 49 64  1  0  0  0  0
 50 59  1  0  0  0  0
 51 60  1  0  0  0  0
 52 60  1  0  0  0  0
 53 60  1  0  0  0  0
 54 74  1  0  0  0  0
 55 57  1  0  0  0  0
 56 71  1  0  0  0  0
 57 82  1  0  0  0  0
 58 60  1  0  0  0  0
 58 73  1  0  0  0  0
 59 74  1  0  0  0  0
 62 64  1  0  0  0  0
M  CHG  1  74   1
M  ISO  4  37 100  57 101  70 100  82 101
M  END
> <Batch ID>
0167

> <Smiles>
CNC(C)C(=O)NC(C(=O)N1Cc2cc([101O:1][101CH2:1]CC(=O)CNc3nc([100NH:0][100C:0](=O)N4CCCC(n5nc(-c6ccc(Oc7ccc(F)cc7F)cc6)c(C(N)=O)c5N)C4)cnc3N)ccc2CC1C(=O)NC1CCCc2ccccc21)C(C)(C)C

> <Shape>
0.227

> <Color>
0.069

> <Negative vol penalty>
0.000

$$$$

  -OEChem-04052304113D

 86 94  0     1  0  0  0  0  0999 V2000
  -16.9348  -29.4473   24.5227 C   0  0  0  0  0  0  0  0  0  0  0  0
  -18.0109  -28.5732   24.6383 C   0  0  0  0  0  0  0  0  0  0  0  0
  -23.1544   -9.6812   19.9436 C   0  0  0  0  0  0  0  0  0  0  0  0
  -23.7386   -9.8867   22.2788 C   0  0  0  0  0  0  0  0  0  0  0  0
  -16.8982  -30.3719   23.4797 C   0  0  0  0  0  0  0  0  0  0  0  0
  -19.0505  -28.6224   23.7103 C   0  0  0  0  0  0  0  0  0  0  0  0
  -24.9918  -27.5909   24.7796 C   0  0  0  0  0  0  0  0  0  0  0  0
  -22.4275   -8.5250   20.2271 C   0  0  0  0  0  0  0  0  0  0  0  0
  -23.0117   -8.7305   22.5624 C   0  0  0  0  0  0  0  0  0  0  0  0
  -25.7979  -26.4691   24.5908 C   0  0  0  0  0  0  0  0  0  0  0  0
  -23.4401   -5.3881   22.2868 C   0  0  0  0  0  0  0  0  0  0  0  0
  -24.0292   -4.4416   23.1250 C   0  0  0  0  0  0  0  0  0  0  0  0
  -29.4738  -17.7213   23.0317 C   0  0  0  0  0  0  0  0  0  0  0  0
  -31.3346  -18.7703   24.1602 C   0  0  0  0  0  0  0  0  0  0  0  0
  -26.5205  -27.3534   22.4660 C   0  0  0  0  0  0  0  0  0  0  0  0
  -31.7199  -16.9082   22.6699 C   0  0  0  0  0  0  0  0  0  0  0  0
  -22.1997   -4.6837   24.6842 C   0  0  0  0  0  0  0  0  0  0  0  0
  -23.8099  -10.3621   20.9694 C   0  0  0  0  0  0  0  0  0  0  0  0
  -29.9657  -18.6916   23.9047 C   0  0  0  0  0  0  0  0  0  0  0  0
  -24.0864  -12.8814   20.6794 C   0  0  0  0  0  0  0  0  0  0  0  0
  -17.9426  -30.4389   22.5441 C   0  0  0  0  0  0  0  0  0  0  0  0
  -24.9356  -28.5989   23.8063 C   0  0  0  0  0  0  0  0  0  0  0  0
  -19.0272  -29.5478   22.6530 C   0  0  0  0  0  0  0  0  0  0  0  0
  -25.7149  -28.4882   22.6459 C   0  0  0  0  0  0  0  0  0  0  0  0
  -30.3509  -16.8295   22.4143 C   0  0  0  0  0  0  0  0  0  0  0  0
  -22.3562   -8.0496   21.5366 C   0  0  0  0  0  0  0  0  0  0  0  0
  -26.5602  -26.3489   23.4326 C   0  0  0  0  0  0  0  0  0  0  0  0
  -22.2308   -5.9825   22.6473 C   0  0  0  0  0  0  0  0  0  0  0  0
  -23.4090   -4.0893   24.3237 C   0  0  0  0  0  0  0  0  0  0  0  0
  -32.2118  -17.8785   23.5428 C   0  0  0  0  0  0  0  0  0  0  0  0
  -21.6106   -5.6303   23.8460 C   0  0  0  0  0  0  0  0  0  0  0  0
  -24.5614  -11.5562   20.6770 C   0  0  0  0  0  0  0  0  0  0  0  0
  -25.1807  -13.6389   20.3399 C   0  0  0  0  0  0  0  0  0  0  0  0
  -29.0375  -19.6351   24.5596 C   0  0  0  0  0  0  0  0  0  0  0  0
  -22.7735  -13.3828   20.9633 C   0  0  0  0  0  0  0  0  0  0  0  0
  -22.6476  -29.8127   21.9636 C   0  0  0  0  0  0  0  0  0  0  0  0
  -28.2565  -23.1117   23.9135 C   0  0  0  0  0  0  0  0  0  0  0  0
  -24.9685  -31.9252   21.1431 C   0  0  0  0  0  0  0  0  0  0  0  0
  -28.3014  -32.6101   20.8803 C   0  0  0  0  0  0  0  0  0  0  0  0
  -30.5854  -14.8837   20.8315 C   0  0  0  0  0  0  0  0  0  0  0  0
  -17.8359  -31.4234   21.4064 C   0  0  0  0  0  0  0  0  0  0  0  0
  -24.0816  -29.8154   24.0372 C   0  0  0  0  0  0  0  0  0  0  0  0
  -25.7056  -29.5521   21.5799 C   0  0  0  0  0  0  0  0  0  0  0  0
  -19.1581  -31.6628   20.6821 C   0  0  0  0  0  0  0  0  0  0  0  0
  -29.7233  -12.2617   18.5823 C   0  0  0  0  0  0  0  0  0  0  0  0
  -19.8519  -30.3371   20.3853 C   0  0  0  0  0  0  0  0  0  0  0  0
  -28.2645  -11.9534   18.9270 C   0  0  0  0  0  0  0  0  0  0  0  0
  -30.5382  -12.6117   19.8262 C   0  0  0  0  0  0  0  0  0  0  0  0
  -28.5123  -13.3712   21.0043 C   0  0  0  0  0  0  0  0  0  0  0  0
  -20.1859  -29.5872   21.6805 C   0  0  1  0  0  0  0  0  0  0  0  0
  -23.7070  -30.5362   22.7459 C   0  0  1  0  0  0  0  0  0  0  0  0
  -27.6365  -13.0764   19.7756 C   0  0  2  0  0  0  0  0  0  0  0  0
  -28.9272  -22.4223   26.2337 C   0  0  0  0  0  0  0  0  0  0  0  0
  -29.8912  -34.4053   20.1405 C   0  0  0  0  0  0  0  0  0  0  0  0
  -24.4108  -31.2145   18.2287 C   0  0  0  0  0  0  0  0  0  0  0  0
  -26.5981  -32.2726   17.6248 C   0  0  0  0  0  0  0  0  0  0  0  0
  -24.7906  -33.6494   18.6544 C   0  0  0  0  0  0  0  0  0  0  0  0
  -29.4694  -32.8537   23.5888 C   0  0  0  0  0  0  0  0  0  0  0  0
  -27.3441  -24.2683   24.2768 C   0  0  0  0  0  0  0  0  0  1  0  0
  -28.3322  -21.9749   24.9133 C   0  0  2  0  0  0  0  0  0  0  0  0
  -26.0399  -31.9771   20.0809 C   0  0  1  0  0  0  0  0  0  0  0  0
  -29.1192  -33.8148   21.3101 C   0  0  2  0  0  0  0  0  0  0  0  0
  -25.4588  -32.2573   18.6662 C   0  0  0  0  0  0  0  0  0  0  0  0
  -25.8564  -11.4732   20.3609 N   0  0  0  0  0  0  0  0  0  0  0  0
  -26.2045  -12.7558   20.1613 N   0  0  0  0  0  0  0  0  0  0  0  0
  -24.8498  -30.7195   21.8489 N   0  0  0  0  0  0  0  0  0  0  0  0
  -29.8850  -13.6855   20.5780 N   0  0  0  0  0  0  0  0  0  0  0  0
  -25.3572  -14.9677   20.1795 N   0  0  0  0  0  0  0  0  0  0  0  0
  -21.7659  -12.4670   21.2952 N   0  0  0  0  0  0  0  0  0  0  0  0
  -29.8516  -15.8446   21.5264 N   0  0  0  0  0  0  0  0  0  0  0  0
  -29.1959  -20.9485   24.3381 N   0  0  0  0  0  0  0  0  0  0  0  0
  -21.3560  -30.1613   22.3095 N   0  0  0  0  0  0  0  0  0  0  0  0
  -27.0149  -32.9639   20.5325 N   0  0  0  0  0  0  0  0  0  0  0  0
  -28.0836  -19.1348   25.3452 N   0  3  0  0  0  0  0  0  0  0  0  0
  -30.0937  -33.4282   22.3692 N   0  3  0  0  0  0  0  0  0  0  0  0
  -22.4980  -14.6053   20.9078 O   0  0  0  0  0  0  0  0  0  0  0  0
  -22.9776  -28.9994   21.1084 O   0  0  0  0  0  0  0  0  0  0  0  0
  -28.8972  -23.1041   22.8622 O   0  0  0  0  0  0  0  0  0  0  0  0
  -24.2676  -32.9201   21.3443 O   0  0  0  0  0  0  0  0  0  0  0  0
  -28.7593  -31.4699   20.8522 O   0  0  0  0  0  0  0  0  0  0  0  0
  -31.7412  -15.0559   20.4359 O   0  0  0  0  0  0  0  0  0  0  0  0
  -21.6468   -6.9215   21.8137 O   0  0  0  0  0  0  0  0  0  0  0  0
  -27.3473  -25.2547   23.2455 O   0  0  0  0  0  0  0  0  0  1  0  0
  -23.9741   -3.1792   25.1278 F   0  0  0  0  0  0  0  0  0  0  0  0
  -33.5264  -17.9541   23.7883 F   0  0  0  0  0  0  0  0  0  0  0  0
  -20.4481   -6.1970   24.1971 F   0  0  0  0  0  0  0  0  0  0  0  0
  1  2  1  0  0  0  0
  1  5  2  0  0  0  0
  2  6  2  0  0  0  0
  3  8  2  0  0  0  0
  3 18  1  0  0  0  0
  4  9  1  0  0  0  0
  4 18  2  0  0  0  0
  5 21  1  0  0  0  0
  6 23  1  0  0  0  0
  7 10  2  0  0  0  0
  7 22  1  0  0  0  0
  8 26  1  0  0  0  0
  9 26  2  0  0  0  0
 10 27  1  0  0  0  0
 11 12  2  0  0  0  0
 11 28  1  0  0  0  0
 12 29  1  0  0  0  0
 13 19  2  0  0  0  0
 13 25  1  0  0  0  0
 14 19  1  0  0  0  0
 14 30  2  0  0  0  0
 15 24  1  0  0  0  0
 15 27  2  0  0  0  0
 16 25  2  0  0  0  0
 16 30  1  0  0  0  0
 17 29  2  0  0  0  0
 17 31  1  0  0  0  0
 18 32  1  0  0  0  0
 19 34  1  0  0  0  0
 20 32  1  0  0  0  0
 20 33  2  0  0  0  0
 20 35  1  0  0  0  0
 21 23  2  0  0  0  0
 21 41  1  0  0  0  0
 22 24  2  0  0  0  0
 22 42  1  0  0  0  0
 23 50  1  0  0  0  0
 24 43  1  0  0  0  0
 25 70  1  0  0  0  0
 26 82  1  0  0  0  0
 27 83  1  0  0  0  0
 28 31  2  0  0  0  0
 28 82  1  0  0  0  0
 29 84  1  0  0  0  0
 30 85  1  0  0  0  0
 31 86  1  0  0  0  0
 32 64  2  0  0  0  0
 33 65  1  0  0  0  0
 33 68  1  0  0  0  0
 34 71  1  0  0  0  0
 34 74  2  0  0  0  0
 35 69  1  0  0  0  0
 35 76  2  0  0  0  0
 36 51  1  0  0  0  0
 36 72  1  0  0  0  0
 36 77  2  0  0  0  0
 37 59  1  0  0  0  0
 37 60  1  0  0  0  0
 37 78  2  0  0  0  0
 38 61  1  0  0  0  0
 38 66  1  0  0  0  0
 38 79  2  0  0  0  0
 39 62  1  0  0  0  0
 39 73  1  0  0  0  0
 39 80  2  0  0  0  0
 40 67  1  0  0  0  0
 40 70  1  0  0  0  0
 40 81  2  0  0  0  0
 41 44  1  0  0  0  0
 42 51  1  0  0  0  0
 43 66  1  0  0  0  0
 44 46  1  0  0  0  0
 45 47  1  0  0  0  0
 45 48  1  0  0  0  0
 46 50  1  0  0  0  0
 47 52  1  0  0  0  0
 48 67  1  0  0  0  0
 49 52  1  0  0  0  0
 49 67  1  0  0  0  0
 50 72  1  0  0  0  0
 51 66  1  0  0  0  0
 52 65  1  0  0  0  0
 53 60  1  0  0  0  0
 54 62  1  0  0  0  0
 55 63  1  0  0  0  0
 56 63  1  0  0  0  0
 57 63  1  0  0  0  0
 58 75  1  0  0  0  0
 59 83  1  0  0  0  0
 60 71  1  0  0  0  0
 61 63  1  0  0  0  0
 61 73  1  0  0  0  0
 62 75  1  0  0  0  0
 64 65  1  0  0  0  0
M  CHG  2  74   1  75   1
M  ISO  4  40 100  59 101  70 100  83 101
M  END
> <Batch ID>
0167

> <Smiles>
CNC(C)C(=O)NC(C(=O)N1Cc2cc([101O:1][101CH2:1]C(=O)C(C)NC(=N)c3cc(F)cc([100NH:0][100C:0](=O)N4CCCC(n5nc(-c6ccc(Oc7ccc(F)cc7F)cc6)c(C(N)=O)c5N)C4)c3)ccc2CC1C(=O)NC1CCCc2ccccc21)C(C)(C)C

> <Shape>
0.269

> <Color>
0.217

> <Negative vol penalty>
0.000

$$$$

  -OEChem-04052304113D

 89 97  0     1  0  0  0  0  0999 V2000
  -18.8471  -32.9978   20.3262 C   0  0  0  0  0  0  0  0  0  0  0  0
  -20.0712  -32.5063   19.8841 C   0  0  0  0  0  0  0  0  0  0  0  0
  -25.5342   -9.9790   23.0168 C   0  0  0  0  0  0  0  0  0  0  0  0
  -23.2598  -10.3166   22.2751 C   0  0  0  0  0  0  0  0  0  0  0  0
  -18.4261  -32.7454   21.6311 C   0  0  0  0  0  0  0  0  0  0  0  0
  -20.8756  -31.7631   20.7472 C   0  0  0  0  0  0  0  0  0  0  0  0
  -24.5131  -27.0660   19.2600 C   0  0  0  0  0  0  0  0  0  0  0  0
  -25.1219   -8.8910   23.7860 C   0  0  0  0  0  0  0  0  0  0  0  0
  -22.8475   -9.2285   23.0443 C   0  0  0  0  0  0  0  0  0  0  0  0
  -25.8837  -26.9807   19.0191 C   0  0  0  0  0  0  0  0  0  0  0  0
  -22.8953   -5.8572   22.8149 C   0  0  0  0  0  0  0  0  0  0  0  0
  -22.0242   -4.9415   22.2250 C   0  0  0  0  0  0  0  0  0  0  0  0
  -29.7744  -22.0313   21.4077 C   0  0  0  0  0  0  0  0  0  0  0  0
  -26.2365  -26.2941   21.3045 C   0  0  0  0  0  0  0  0  0  0  0  0
  -30.3807  -22.8013   24.0197 C   0  0  0  0  0  0  0  0  0  0  0  0
  -20.3825   -5.4003   23.9372 C   0  0  0  0  0  0  0  0  0  0  0  0
  -24.6032  -10.6919   22.2613 C   0  0  0  0  0  0  0  0  0  0  0  0
  -29.8013  -21.0795   22.4269 C   0  0  0  0  0  0  0  0  0  0  0  0
  -25.4618  -11.7956   20.1277 C   0  0  0  0  0  0  0  0  0  0  0  0
  -19.2214  -31.9905   22.5077 C   0  0  0  0  0  0  0  0  0  0  0  0
  -23.9943  -26.7760   20.5301 C   0  0  0  0  0  0  0  0  0  0  0  0
  -20.4655  -31.5015   22.0655 C   0  0  0  0  0  0  0  0  0  0  0  0
  -24.8587  -26.3740   21.5583 C   0  0  0  0  0  0  0  0  0  0  0  0
  -30.1044  -21.4644   23.7329 C   0  0  0  0  0  0  0  0  0  0  0  0
  -30.0507  -23.3682   21.6944 C   0  0  0  0  0  0  0  0  0  0  0  0
  -23.7786   -8.5157   23.7998 C   0  0  0  0  0  0  0  0  0  0  0  0
  -26.7459  -26.5975   20.0422 C   0  0  0  0  0  0  0  0  0  0  0  0
  -22.5102   -6.5445   23.9661 C   0  0  0  0  0  0  0  0  0  0  0  0
  -20.7677   -4.7130   22.7861 C   0  0  0  0  0  0  0  0  0  0  0  0
  -30.3538  -23.7532   23.0004 C   0  0  0  0  0  0  0  0  0  0  0  0
  -21.2537   -6.3160   24.5272 C   0  0  0  0  0  0  0  0  0  0  0  0
  -25.0284  -11.8163   21.4670 C   0  0  0  0  0  0  0  0  0  0  0  0
  -25.7496  -13.1073   19.8397 C   0  0  0  0  0  0  0  0  0  0  0  0
  -29.5080  -19.6909   22.0961 C   0  0  0  0  0  0  0  0  0  0  0  0
  -28.3619  -19.2460   21.5420 C   0  0  0  0  0  0  0  0  0  0  0  0
  -25.5926  -10.6895   19.2248 C   0  0  0  0  0  0  0  0  0  0  0  0
  -28.2190  -17.8042   21.2562 C   0  0  0  0  0  0  0  0  0  0  0  0
  -22.3983  -28.4234   22.7307 C   0  0  0  0  0  0  0  0  0  0  0  0
  -22.2268  -25.5389   24.2048 C   0  0  0  0  0  0  0  0  0  0  0  0
  -29.7418  -24.1228   19.3114 C   0  0  0  0  0  0  0  0  0  0  0  0
  -23.5427  -22.4186   24.6275 C   0  0  0  0  0  0  0  0  0  0  0  0
  -18.7456  -31.7838   23.9239 C   0  0  0  0  0  0  0  0  0  0  0  0
  -22.5105  -26.8470   20.7665 C   0  0  0  0  0  0  0  0  0  0  0  0
  -24.3498  -26.0324   22.9341 C   0  0  0  0  0  0  0  0  0  0  0  0
  -19.4870  -30.6701   24.6590 C   0  0  0  0  0  0  0  0  0  0  0  0
  -24.7641  -17.3448   22.3898 C   0  0  0  0  0  0  0  0  0  0  0  0
  -20.9920  -30.8012   24.4484 C   0  0  0  0  0  0  0  0  0  0  0  0
  -24.5836  -15.8437   22.1806 C   0  0  0  0  0  0  0  0  0  0  0  0
  -26.1921  -17.6967   22.8042 C   0  0  0  0  0  0  0  0  0  0  0  0
  -27.0493  -15.6730   21.6596 C   0  0  0  0  0  0  0  0  0  0  0  0
  -21.3549  -30.6701   22.9643 C   0  0  1  0  0  0  0  0  0  0  0  0
  -22.1477  -27.0264   22.2374 C   0  0  1  0  0  0  0  0  0  0  0  0
  -25.6321  -15.3012   21.1964 C   0  0  1  0  0  0  0  0  0  0  0  0
  -23.7126  -20.0558   25.4556 C   0  0  0  0  0  0  0  0  0  0  0  0
  -29.1883  -21.3617   27.0028 C   0  0  0  0  0  0  0  0  0  0  0  0
  -27.6384  -20.9695   25.0879 C   0  0  0  0  0  0  0  0  0  0  0  0
  -28.6253  -19.0268   26.3282 C   0  0  0  0  0  0  0  0  0  0  0  0
  -23.4008  -26.8760   26.6835 C   0  0  0  0  0  0  0  0  0  0  0  0
  -23.9202  -24.5973   27.5812 C   0  0  0  0  0  0  0  0  0  0  0  0
  -21.5534  -25.2556   27.1483 C   0  0  0  0  0  0  0  0  0  0  0  0
  -21.9688  -21.3827   22.3452 C   0  0  0  0  0  0  0  0  0  0  0  0
  -30.1425  -20.4719   24.8501 C   0  0  0  0  0  0  0  0  0  0  0  0
  -29.8206  -25.4352   18.5396 C   0  0  0  0  0  0  0  0  0  0  0  0
  -28.4937  -26.1770   18.4852 C   0  0  0  0  0  0  0  0  0  1  0  0
  -23.0879  -24.7907   25.1936 C   0  0  1  0  0  0  0  0  0  0  0  0
  -22.8952  -21.0456   24.6402 C   0  0  2  0  0  0  0  0  0  0  0  0
  -28.8992  -20.4441   25.7959 C   0  0  0  0  0  0  0  0  0  0  0  0
  -23.0007  -25.3882   26.6264 C   0  0  0  0  0  0  0  0  0  0  0  0
  -25.0384  -13.0438   21.9932 N   0  0  0  0  0  0  0  0  0  0  0  0
  -25.4818  -13.8067   20.9795 N   0  0  0  0  0  0  0  0  0  0  0  0
  -27.1789  -17.1177   21.8803 N   0  0  0  0  0  0  0  0  0  0  0  0
  -22.8918  -26.1230   23.1174 N   0  0  0  0  0  0  0  0  0  0  0  0
  -26.2031  -13.7192   18.7251 N   0  0  0  0  0  0  0  0  0  0  0  0
  -25.2538   -9.4091   19.6833 N   0  0  0  0  0  0  0  0  0  0  0  0
  -30.0230  -24.3323   20.6588 N   0  0  0  0  0  0  0  0  0  0  0  0
  -21.3288  -29.2812   22.5584 N   0  0  0  0  0  0  0  0  0  0  0  0
  -22.6887  -23.3903   25.1048 N   0  0  0  0  0  0  0  0  0  0  0  0
  -22.7691  -20.5195   23.2515 N   0  3  0  0  0  0  0  0  0  0  0  0
  -26.0134  -10.8301   18.0515 O   0  0  0  0  0  0  0  0  0  0  0  0
  -29.0335  -17.2939   20.4849 O   0  0  0  0  0  0  0  0  0  0  0  0
  -23.4812  -28.7020   23.2320 O   0  0  0  0  0  0  0  0  0  0  0  0
  -21.0081  -25.5968   24.3866 O   0  0  0  0  0  0  0  0  0  0  0  0
  -29.4647  -23.0601   18.7653 O   0  0  0  0  0  0  0  0  0  0  0  0
  -24.6923  -22.6093   24.2371 O   0  0  0  0  0  0  0  0  0  0  0  0
  -23.3759   -7.4539   24.5501 O   0  0  0  0  0  0  0  0  0  0  0  0
  -28.0842  -26.5141   19.8099 O   0  0  0  0  0  0  0  0  0  1  0  0
  -19.9306   -3.8347   22.2187 F   0  0  0  0  0  0  0  0  0  0  0  0
  -30.6210  -25.0352   23.2875 F   0  0  0  0  0  0  0  0  0  0  0  0
  -20.8776   -6.9741   25.6323 F   0  0  0  0  0  0  0  0  0  0  0  0
  1  2  1  0  0  0  0
  1  5  2  0  0  0  0
  2  6  2  0  0  0  0
  3  8  2  0  0  0  0
  3 17  1  0  0  0  0
  4  9  1  0  0  0  0
  4 17  2  0  0  0  0
  5 20  1  0  0  0  0
  6 22  1  0  0  0  0
  7 10  2  0  0  0  0
  7 21  1  0  0  0  0
  8 26  1  0  0  0  0
  9 26  2  0  0  0  0
 10 27  1  0  0  0  0
 11 12  2  0  0  0  0
 11 28  1  0  0  0  0
 12 29  1  0  0  0  0
 13 18  2  0  0  0  0
 13 25  1  0  0  0  0
 14 23  1  0  0  0  0
 14 27  2  0  0  0  0
 15 24  2  0  0  0  0
 15 30  1  0  0  0  0
 16 29  2  0  0  0  0
 16 31  1  0  0  0  0
 17 32  1  0  0  0  0
 18 24  1  0  0  0  0
 18 34  1  0  0  0  0
 19 32  1  0  0  0  0
 19 33  2  0  0  0  0
 19 36  1  0  0  0  0
 20 22  2  0  0  0  0
 20 42  1  0  0  0  0
 21 23  2  0  0  0  0
 21 43  1  0  0  0  0
 22 51  1  0  0  0  0
 23 44  1  0  0  0  0
 24 62  1  0  0  0  0
 25 30  2  0  0  0  0
 25 75  1  0  0  0  0
 26 85  1  0  0  0  0
 27 86  1  0  0  0  0
 28 31  2  0  0  0  0
 28 85  1  0  0  0  0
 29 87  1  0  0  0  0
 30 88  1  0  0  0  0
 31 89  1  0  0  0  0
 32 69  2  0  0  0  0
 33 70  1  0  0  0  0
 33 73  1  0  0  0  0
 34 35  2  0  0  0  0
 35 37  1  0  0  0  0
 36 74  1  0  0  0  0
 36 79  2  0  0  0  0
 37 71  1  0  0  0  0
 37 80  2  0  0  0  0
 38 52  1  0  0  0  0
 38 76  1  0  0  0  0
 38 81  2  0  0  0  0
 39 65  1  0  0  0  0
 39 72  1  0  0  0  0
 39 82  2  0  0  0  0
 40 63  1  0  0  0  0
 40 75  1  0  0  0  0
 40 83  2  0  0  0  0
 41 66  1  0  0  0  0
 41 77  1  0  0  0  0
 41 84  2  0  0  0  0
 42 45  1  0  0  0  0
 43 52  1  0  0  0  0
 44 72  1  0  0  0  0
 45 47  1  0  0  0  0
 46 48  1  0  0  0  0
 46 49  1  0  0  0  0
 47 51  1  0  0  0  0
 48 53  1  0  0  0  0
 49 71  1  0  0  0  0
 50 53  1  0  0  0  0
 50 71  1  0  0  0  0
 51 76  1  0  0  0  0
 52 72  1  0  0  0  0
 53 70  1  0  0  0  0
 54 66  1  0  0  0  0
 55 67  1  0  0  0  0
 56 67  1  0  0  0  0
 57 67  1  0  0  0  0
 58 68  1  0  0  0  0
 59 68  1  0  0  0  0
 60 68  1  0  0  0  0
 61 78  1  0  0  0  0
 62 67  1  0  0  0  0
 63 64  1  0  0  0  0
 64 86  1  0  0  0  0
 65 68  1  0  0  0  0
 65 77  1  0  0  0  0
 66 78  1  0  0  0  0
 69 70  1  0  0  0  0
M  CHG  1  78   1
M  ISO  4  35 100  37 100  64 101  86 101
M  END
> <Batch ID>
0167

> <Smiles>
CNC(C)C(=O)NC(C(=O)N1Cc2cc([101O:1][101CH2:1]CC(=O)Nc3cc(C=[100CH:0][100C:0](=O)N4CCCC(n5nc(-c6ccc(Oc7ccc(F)cc7F)cc6)c(C(N)=O)c5N)C4)c(CC(C)(C)C)cc3F)ccc2CC1C(=O)NC1CCCc2ccccc21)C(C)(C)C

> <Shape>
0.189

> <Color>
0.108

> <Negative vol penalty>
0.000

$$$$

  -OEChem-04052304113D

 90 98  0     1  0  0  0  0  0999 V2000
  -31.8324  -33.8068   21.3410 C   0  0  0  0  0  0  0  0  0  0  0  0
  -31.2963  -32.6839   20.7189 C   0  0  0  0  0  0  0  0  0  0  0  0
  -23.0088  -10.6399   19.3171 C   0  0  0  0  0  0  0  0  0  0  0  0
  -23.2548   -9.8383   21.5829 C   0  0  0  0  0  0  0  0  0  0  0  0
  -31.3760  -34.1885   22.6019 C   0  0  0  0  0  0  0  0  0  0  0  0
  -30.3040  -31.9412   21.3580 C   0  0  0  0  0  0  0  0  0  0  0  0
  -25.5984  -29.0440   18.7181 C   0  0  0  0  0  0  0  0  0  0  0  0
  -22.0569   -9.6507   19.0704 C   0  0  0  0  0  0  0  0  0  0  0  0
  -22.3028   -8.8490   21.3362 C   0  0  0  0  0  0  0  0  0  0  0  0
  -25.3993  -27.7115   18.3594 C   0  0  0  0  0  0  0  0  0  0  0  0
  -18.7796   -9.1301   19.7197 C   0  0  0  0  0  0  0  0  0  0  0  0
  -17.6153   -9.5038   19.0488 C   0  0  0  0  0  0  0  0  0  0  0  0
  -24.2313  -27.3334   20.4360 C   0  0  0  0  0  0  0  0  0  0  0  0
  -28.4476  -20.2523   19.7066 C   0  0  0  0  0  0  0  0  0  0  0  0
  -18.1308   -7.9382   17.2823 C   0  0  0  0  0  0  0  0  0  0  0  0
  -23.6078  -10.7337   20.5733 C   0  0  0  0  0  0  0  0  0  0  0  0
  -29.4015  -18.1952   18.8726 C   0  0  0  0  0  0  0  0  0  0  0  0
  -24.3601  -13.0559   21.3142 C   0  0  0  0  0  0  0  0  0  0  0  0
  -30.3708  -33.4557   23.2526 C   0  0  0  0  0  0  0  0  0  0  0  0
  -25.1242  -29.5293   19.9453 C   0  0  0  0  0  0  0  0  0  0  0  0
  -29.8347  -32.3126   22.6294 C   0  0  0  0  0  0  0  0  0  0  0  0
  -24.4235  -28.6731   20.8067 C   0  0  0  0  0  0  0  0  0  0  0  0
  -28.5099  -18.2166   17.8001 C   0  0  0  0  0  0  0  0  0  0  0  0
  -27.5871  -19.2559   17.6809 C   0  0  0  0  0  0  0  0  0  0  0  0
  -27.5560  -20.2737   18.6342 C   0  0  0  0  0  0  0  0  0  0  0  0
  -21.7039   -8.7553   20.0800 C   0  0  0  0  0  0  0  0  0  0  0  0
  -24.7182  -26.8553   19.2197 C   0  0  0  0  0  0  0  0  0  0  0  0
  -19.6196   -8.1605   19.1720 C   0  0  0  0  0  0  0  0  0  0  0  0
  -17.2908   -8.9078   17.8301 C   0  0  0  0  0  0  0  0  0  0  0  0
  -29.3704  -19.2131   19.8258 C   0  0  0  0  0  0  0  0  0  0  0  0
  -19.2952   -7.5645   17.9533 C   0  0  0  0  0  0  0  0  0  0  0  0
  -24.5916  -11.7550   20.8286 C   0  0  0  0  0  0  0  0  0  0  0  0
  -25.6085  -13.6247   21.3808 C   0  0  0  0  0  0  0  0  0  0  0  0
  -24.6081  -17.7931   16.4209 C   0  0  0  0  0  0  0  0  0  0  0  0
  -25.2382  -18.8637   16.9173 C   0  0  0  0  0  0  0  0  0  0  0  0
  -25.4727  -24.6414   19.2370 C   0  0  0  0  0  0  0  0  0  1  0  0
  -30.3937  -17.0999   19.0229 C   0  0  0  0  0  0  0  0  0  0  0  0
  -23.1269  -13.6932   21.6731 C   0  0  0  0  0  0  0  0  0  0  0  0
  -25.3831  -23.3375   18.9483 C   0  0  0  0  0  0  0  0  0  0  0  0
  -26.4790  -22.4166   19.3947 C   0  0  0  0  0  0  0  0  0  0  0  0
  -26.4765  -30.7741   22.5387 C   0  0  0  0  0  0  0  0  0  0  0  0
  -23.3970  -31.2499   23.4401 C   0  0  0  0  0  0  0  0  0  0  0  0
  -20.1203  -30.3403   23.1520 C   0  0  0  0  0  0  0  0  0  0  0  0
  -30.6198  -14.6461   19.2496 C   0  0  0  0  0  0  0  0  0  0  0  0
  -29.9431  -33.8796   24.6354 C   0  0  0  0  0  0  0  0  0  0  0  0
  -25.3239  -30.9759   20.3056 C   0  0  0  0  0  0  0  0  0  0  0  0
  -23.8767  -29.1499   22.1266 C   0  0  0  0  0  0  0  0  0  0  0  0
  -28.6239  -33.2553   25.0830 C   0  0  0  0  0  0  0  0  0  0  0  0
  -30.2057  -11.5518   20.9083 C   0  0  0  0  0  0  0  0  0  0  0  0
  -28.6130  -31.7593   24.7851 C   0  0  0  0  0  0  0  0  0  0  0  0
  -28.6891  -11.4365   21.0842 C   0  0  0  0  0  0  0  0  0  0  0  0
  -30.5748  -12.1881   19.5690 C   0  0  0  0  0  0  0  0  0  0  0  0
  -28.4099  -13.3542   19.4629 C   0  0  0  0  0  0  0  0  0  0  0  0
  -28.7394  -31.4956   23.2798 C   0  0  1  0  0  0  0  0  0  0  0  0
  -25.2471  -31.2338   21.8072 C   0  0  1  0  0  0  0  0  0  0  0  0
  -27.9856  -12.7841   20.8260 C   0  0  1  0  0  0  0  0  0  0  0  0
  -28.5438  -17.1251   16.7766 C   0  0  0  0  0  0  0  0  0  0  0  0
  -17.8387  -30.8863   24.0429 C   0  0  0  0  0  0  0  0  0  0  0  0
  -24.0594  -29.7799   26.0305 C   0  0  0  0  0  0  0  0  0  0  0  0
  -21.6014  -29.5216   26.4307 C   0  0  0  0  0  0  0  0  0  0  0  0
  -22.6124  -31.7994   26.3177 C   0  0  0  0  0  0  0  0  0  0  0  0
  -19.1255  -31.0935   20.4684 C   0  0  0  0  0  0  0  0  0  0  0  0
  -26.6314  -19.2782   16.5288 C   0  0  0  0  0  0  0  0  0  0  0  0
  -22.3680  -30.4452   24.1967 C   0  0  1  0  0  0  0  0  0  0  0  0
  -18.8605  -31.1631   22.9510 C   0  0  2  0  0  0  0  0  0  0  0  0
  -22.6721  -30.3767   25.7200 C   0  0  0  0  0  0  0  0  0  0  0  0
  -25.8853  -11.5116   20.6026 N   0  0  0  0  0  0  0  0  0  0  0  0
  -26.4780  -12.6674   20.9476 N   0  0  0  0  0  0  0  0  0  0  0  0
  -24.1030  -30.5713   22.4367 N   0  0  0  0  0  0  0  0  0  0  0  0
  -29.8754  -13.4637   19.4057 N   0  0  0  0  0  0  0  0  0  0  0  0
  -26.0364  -14.8455   21.7671 N   0  0  0  0  0  0  0  0  0  0  0  0
  -21.9363  -12.9651   21.5440 N   0  0  0  0  0  0  0  0  0  0  0  0
  -26.6285  -21.3386   18.5330 N   0  0  0  0  0  0  0  0  0  0  0  0
  -29.8601  -15.8165   19.1440 N   0  0  0  0  0  0  0  0  0  0  0  0
  -27.4734  -31.7276   22.6180 N   0  0  0  0  0  0  0  0  0  0  0  0
  -21.0720  -31.0312   23.8720 N   0  0  0  0  0  0  0  0  0  0  0  0
  -18.2389  -30.8454   21.6343 N   0  3  0  0  0  0  0  0  0  0  0  0
  -31.5913  -17.3695   18.9932 O   0  0  0  0  0  0  0  0  0  0  0  0
  -23.0804  -14.8788   22.0802 O   0  0  0  0  0  0  0  0  0  0  0  0
  -27.1246  -22.6515   20.4105 O   0  0  0  0  0  0  0  0  0  0  0  0
  -26.5169  -29.6389   22.9984 O   0  0  0  0  0  0  0  0  0  0  0  0
  -23.5630  -32.4389   23.7239 O   0  0  0  0  0  0  0  0  0  0  0  0
  -20.2461  -29.1977   22.7173 O   0  0  0  0  0  0  0  0  0  0  0  0
  -31.8546  -14.6632   19.2432 O   0  0  0  0  0  0  0  0  0  0  0  0
  -24.3169  -22.8026   18.2541 O   0  0  0  0  0  0  0  0  0  0  0  0
  -20.7748   -7.7900   19.8397 O   0  0  0  0  0  0  0  0  0  0  0  0
  -24.5230  -25.5541   18.8724 O   0  0  0  0  0  0  0  0  0  1  0  0
  -16.1719   -9.2657   17.1866 F   0  0  0  0  0  0  0  0  0  0  0  0
  -30.2226  -19.2042   20.8607 F   0  0  0  0  0  0  0  0  0  0  0  0
  -20.0976   -6.6316   17.4226 F   0  0  0  0  0  0  0  0  0  0  0  0
  1  2  1  0  0  0  0
  1  5  2  0  0  0  0
  2  6  2  0  0  0  0
  3  8  2  0  0  0  0
  3 16  1  0  0  0  0
  4  9  1  0  0  0  0
  4 16  2  0  0  0  0
  5 19  1  0  0  0  0
  6 21  1  0  0  0  0
  7 10  2  0  0  0  0
  7 20  1  0  0  0  0
  8 26  1  0  0  0  0
  9 26  2  0  0  0  0
 10 27  1  0  0  0  0
 11 12  2  0  0  0  0
 11 28  1  0  0  0  0
 12 29  1  0  0  0  0
 13 22  1  0  0  0  0
 13 27  2  0  0  0  0
 14 25  2  0  0  0  0
 14 30  1  0  0  0  0
 15 29  2  0  0  0  0
 15 31  1  0  0  0  0
 16 32  1  0  0  0  0
 17 23  1  0  0  0  0
 17 30  2  0  0  0  0
 17 37  1  0  0  0  0
 18 32  1  0  0  0  0
 18 33  2  0  0  0  0
 18 38  1  0  0  0  0
 19 21  2  0  0  0  0
 19 45  1  0  0  0  0
 20 22  2  0  0  0  0
 20 46  1  0  0  0  0
 21 54  1  0  0  0  0
 22 47  1  0  0  0  0
 23 24  2  0  0  0  0
 23 57  1  0  0  0  0
 24 25  1  0  0  0  0
 24 63  1  0  0  0  0
 25 73  1  0  0  0  0
 26 86  1  0  0  0  0
 27 87  1  0  0  0  0
 28 31  2  0  0  0  0
 28 86  1  0  0  0  0
 29 88  1  0  0  0  0
 30 89  1  0  0  0  0
 31 90  1  0  0  0  0
 32 67  2  0  0  0  0
 33 68  1  0  0  0  0
 33 71  1  0  0  0  0
 34 35  2  0  0  0  0
 35 63  1  0  0  0  0
 36 39  2  0  0  0  0
 36 87  1  0  0  0  0
 37 74  1  0  0  0  0
 37 78  2  0  0  0  0
 38 72  1  0  0  0  0
 38 79  2  0  0  0  0
 39 40  1  0  0  0  0
 39 85  1  0  0  0  0
 40 73  1  0  0  0  0
 40 80  2  0  0  0  0
 41 55  1  0  0  0  0
 41 75  1  0  0  0  0
 41 81  2  0  0  0  0
 42 64  1  0  0  0  0
 42 69  1  0  0  0  0
 42 82  2  0  0  0  0
 43 65  1  0  0  0  0
 43 76  1  0  0  0  0
 43 83  2  0  0  0  0
 44 70  1  0  0  0  0
 44 74  1  0  0  0  0
 44 84  2  0  0  0  0
 45 48  1  0  0  0  0
 46 55  1  0  0  0  0
 47 69  1  0  0  0  0
 48 50  1  0  0  0  0
 49 51  1  0  0  0  0
 49 52  1  0  0  0  0
 50 54  1  0  0  0  0
 51 56  1  0  0  0  0
 52 70  1  0  0  0  0
 53 56  1  0  0  0  0
 53 70  1  0  0  0  0
 54 75  1  0  0  0  0
 55 69  1  0  0  0  0
 56 68  1  0  0  0  0
 58 65  1  0  0  0  0
 59 66  1  0  0  0  0
 60 66  1  0  0  0  0
 61 66  1  0  0  0  0
 62 77  1  0  0  0  0
 64 66  1  0  0  0  0
 64 76  1  0  0  0  0
 65 77  1  0  0  0  0
 67 68  1  0  0  0  0
M  CHG  1  77   1
M  ISO  4  36 101  44 100  74 100  87 101
M  END
> <Batch ID>
0167

> <Smiles>
C=CCc1c(NC(=O)C(=O)[101CH2:1][101O:1]c2ccc3c(c2)CN(C(=O)C(NC(=O)C(C)NC)C(C)(C)C)C(C(=O)NC2CCCc4ccccc42)C3)cc(F)c(C(=O)[100NH:0][100C:0](=O)N2CCCC(n3nc(-c4ccc(Oc5ccc(F)cc5F)cc4)c(C(N)=O)c3N)C2)c1C

> <Shape>
0.263

> <Color>
0.122

> <Negative vol penalty>
0.000

$$$$

  -OEChem-04052304113D

 88 96  0     1  0  0  0  0  0999 V2000
  -22.8566  -24.0721   21.3158 C   0  0  0  0  0  0  0  0  0  0  0  0
  -23.8136  -23.1271   20.9601 C   0  0  0  0  0  0  0  0  0  0  0  0
  -22.2506  -29.3534   19.5733 C   0  0  0  0  0  0  0  0  0  0  0  0
  -22.4224  -28.1643   21.6694 C   0  0  0  0  0  0  0  0  0  0  0  0
  -21.9258  -23.7791   22.3116 C   0  0  0  0  0  0  0  0  0  0  0  0
  -23.8410  -21.8889   21.6009 C   0  0  0  0  0  0  0  0  0  0  0  0
  -24.4331  -18.0393   18.3644 C   0  0  0  0  0  0  0  0  0  0  0  0
  -20.8637  -29.4015   19.7143 C   0  0  0  0  0  0  0  0  0  0  0  0
  -21.0355  -28.2125   21.8104 C   0  0  0  0  0  0  0  0  0  0  0  0
  -25.7192  -17.8081   17.8784 C   0  0  0  0  0  0  0  0  0  0  0  0
  -18.7076  -30.4677   22.7670 C   0  0  0  0  0  0  0  0  0  0  0  0
  -18.1966  -30.8210   24.0158 C   0  0  0  0  0  0  0  0  0  0  0  0
  -28.6017  -21.0313   20.8173 C   0  0  0  0  0  0  0  0  0  0  0  0
  -25.9956  -16.0224   19.4765 C   0  0  0  0  0  0  0  0  0  0  0  0
  -27.8957  -22.2511   22.7796 C   0  0  0  0  0  0  0  0  0  0  0  0
  -17.0587  -28.6940   24.1519 C   0  0  0  0  0  0  0  0  0  0  0  0
  -23.0299  -28.7347   20.5508 C   0  0  0  0  0  0  0  0  0  0  0  0
  -28.6069  -19.8475   21.5550 C   0  0  0  0  0  0  0  0  0  0  0  0
  -25.3976  -29.6304   20.8659 C   0  0  0  0  0  0  0  0  0  0  0  0
  -21.9357  -22.5331   22.9581 C   0  0  0  0  0  0  0  0  0  0  0  0
  -23.9218  -17.2696   19.4192 C   0  0  0  0  0  0  0  0  0  0  0  0
  -22.9103  -21.5795   22.6072 C   0  0  0  0  0  0  0  0  0  0  0  0
  -24.7018  -16.2441   19.9724 C   0  0  0  0  0  0  0  0  0  0  0  0
  -28.2462  -22.2332   21.4296 C   0  0  0  0  0  0  0  0  0  0  0  0
  -20.2562  -28.8311   20.8329 C   0  0  0  0  0  0  0  0  0  0  0  0
  -26.5018  -16.8014   18.4363 C   0  0  0  0  0  0  0  0  0  0  0  0
  -18.3941  -29.2276   22.2105 C   0  0  0  0  0  0  0  0  0  0  0  0
  -17.3722  -29.9341   24.7083 C   0  0  0  0  0  0  0  0  0  0  0  0
  -27.9008  -21.0673   23.5173 C   0  0  0  0  0  0  0  0  0  0  0  0
  -17.5698  -28.3408   22.9029 C   0  0  0  0  0  0  0  0  0  0  0  0
  -28.2564  -19.8655   22.9050 C   0  0  0  0  0  0  0  0  0  0  0  0
  -24.4626  -28.6842   20.4055 C   0  0  0  0  0  0  0  0  0  0  0  0
  -26.6154  -29.1254   20.4805 C   0  0  0  0  0  0  0  0  0  0  0  0
  -28.9838  -18.5766   20.9045 C   0  0  0  0  0  0  0  0  0  0  0  0
  -25.1846  -30.8563   21.5783 C   0  0  0  0  0  0  0  0  0  0  0  0
  -22.9279  -17.8919   22.3736 C   0  0  0  0  0  0  0  0  0  0  0  0
  -22.0813  -14.7608   22.3307 C   0  0  0  0  0  0  0  0  0  0  0  0
  -22.5527  -11.6500   21.0087 C   0  0  0  0  0  0  0  0  0  0  0  0
  -28.5625  -23.5939   19.3333 C   0  0  0  0  0  0  0  0  0  0  0  0
  -20.9391  -22.2798   24.0614 C   0  0  0  0  0  0  0  0  0  0  0  0
  -22.5226  -17.5139   19.9142 C   0  0  0  0  0  0  0  0  0  0  0  0
  -24.1919  -15.3763   21.0928 C   0  0  0  0  0  0  0  0  0  0  0  0
  -20.8004  -20.8050   24.4302 C   0  0  0  0  0  0  0  0  0  0  0  0
  -28.6359  -26.3796   17.1171 C   0  0  0  0  0  0  0  0  0  0  0  0
  -22.1749  -20.1607   24.5800 C   0  0  0  0  0  0  0  0  0  0  0  0
  -27.6637  -27.3753   17.7540 C   0  0  0  0  0  0  0  0  0  0  0  0
  -28.1597  -24.9375   17.2820 C   0  0  0  0  0  0  0  0  0  0  0  0
  -26.8764  -25.5359   19.2980 C   0  0  0  0  0  0  0  0  0  0  0  0
  -22.9567  -20.2159   23.2619 C   0  0  1  0  0  0  0  0  0  0  0  0
  -22.2950  -17.0089   21.3357 C   0  0  1  0  0  0  0  0  0  0  0  0
  -27.3462  -26.9974   19.2141 C   0  0  2  0  0  0  0  0  0  0  0  0
  -32.1912  -18.8536   17.1050 C   0  0  0  0  0  0  0  0  0  0  0  0
  -21.7394   -9.2839   21.2014 C   0  0  0  0  0  0  0  0  0  0  0  0
  -23.6896  -14.4199   24.9012 C   0  0  0  0  0  0  0  0  0  0  0  0
  -23.6383  -11.9456   24.5227 C   0  0  0  0  0  0  0  0  0  0  0  0
  -21.5081  -13.1974   24.8655 C   0  0  0  0  0  0  0  0  0  0  0  0
  -30.4850  -16.2745   16.9589 C   0  0  0  0  0  0  0  0  0  0  0  0
  -21.6098  -11.6231   18.2035 C   0  0  0  0  0  0  0  0  0  0  0  0
  -30.6699  -18.8078   17.0259 C   0  0  0  0  0  0  0  0  0  0  0  0
  -30.3033  -17.4242   19.1646 C   0  0  0  0  0  0  0  0  0  0  0  0
  -28.4630  -17.6935   17.4295 C   0  0  0  0  0  0  0  0  0  1  0  0
  -22.7653  -13.4634   22.6883 C   0  0  1  0  0  0  0  0  0  0  0  0
  -21.5694  -10.6168   20.4892 C   0  0  2  0  0  0  0  0  0  0  0  0
  -22.9110  -13.2740   24.2246 C   0  0  0  0  0  0  0  0  0  0  0  0
  -29.9912  -17.5593   17.6580 C   0  0  2  0  0  0  0  0  0  0  0  0
  -25.0370  -27.6559   19.7756 N   0  0  0  0  0  0  0  0  0  0  0  0
  -26.3461  -27.9532   19.8374 N   0  0  0  0  0  0  0  0  0  0  0  0
  -22.8199  -15.6583   21.5465 N   0  0  0  0  0  0  0  0  0  0  0  0
  -27.8824  -24.6503   18.6911 N   0  0  0  0  0  0  0  0  0  0  0  0
  -27.8795  -29.5742   20.6323 N   0  0  0  0  0  0  0  0  0  0  0  0
  -28.4368  -17.4504   21.3622 N   0  0  0  0  0  0  0  0  0  0  0  0
  -23.8700  -31.2254   21.8946 N   0  0  0  0  0  0  0  0  0  0  0  0
  -28.2411  -23.4362   20.6810 N   0  0  0  0  0  0  0  0  0  0  0  0
  -22.4805  -19.1991   22.3488 N   0  0  0  0  0  0  0  0  0  0  0  0
  -22.0089  -12.4069   22.0250 N   0  0  0  0  0  0  0  0  0  0  0  0
  -29.8562  -18.6157   19.8904 N   0  3  0  0  0  0  0  0  0  0  0  0
  -21.7707  -10.3984   19.0288 N   0  3  0  0  0  0  0  0  0  0  0  0
  -26.1306  -31.6104   21.9097 O   0  0  0  0  0  0  0  0  0  0  0  0
  -23.7595  -17.4218   23.1412 O   0  0  0  0  0  0  0  0  0  0  0  0
  -20.9314  -14.9673   22.7264 O   0  0  0  0  0  0  0  0  0  0  0  0
  -23.6907  -11.7710   20.5606 O   0  0  0  0  0  0  0  0  0  0  0  0
  -29.3905  -22.8989   18.7389 O   0  0  0  0  0  0  0  0  0  0  0  0
  -18.9029  -28.8781   20.9709 O   0  0  0  0  0  0  0  0  0  0  0  0
  -27.7577  -16.5741   17.9642 O   0  0  0  0  0  0  0  0  0  1  0  0
  -16.8828  -30.2729   25.9083 F   0  0  0  0  0  0  0  0  0  0  0  0
  -27.5645  -21.0843   24.8136 F   0  0  0  0  0  0  0  0  0  0  0  0
  -17.2661  -27.1476   22.3740 F   0  0  0  0  0  0  0  0  0  0  0  0
  -28.2587  -18.7333   23.6224 F   0  0  0  0  0  0  0  0  0  0  0  0
  1  2  1  0  0  0  0
  1  5  2  0  0  0  0
  2  6  2  0  0  0  0
  3  8  2  0  0  0  0
  3 17  1  0  0  0  0
  4  9  1  0  0  0  0
  4 17  2  0  0  0  0
  5 20  1  0  0  0  0
  6 22  1  0  0  0  0
  7 10  2  0  0  0  0
  7 21  1  0  0  0  0
  8 25  1  0  0  0  0
  9 25  2  0  0  0  0
 10 26  1  0  0  0  0
 11 12  2  0  0  0  0
 11 27  1  0  0  0  0
 12 28  1  0  0  0  0
 13 18  1  0  0  0  0
 13 24  2  0  0  0  0
 14 23  1  0  0  0  0
 14 26  2  0  0  0  0
 15 24  1  0  0  0  0
 15 29  2  0  0  0  0
 16 28  2  0  0  0  0
 16 30  1  0  0  0  0
 17 32  1  0  0  0  0
 18 31  2  0  0  0  0
 18 34  1  0  0  0  0
 19 32  1  0  0  0  0
 19 33  2  0  0  0  0
 19 35  1  0  0  0  0
 20 22  2  0  0  0  0
 20 40  1  0  0  0  0
 21 23  2  0  0  0  0
 21 41  1  0  0  0  0
 22 49  1  0  0  0  0
 23 42  1  0  0  0  0
 24 73  1  0  0  0  0
 25 83  1  0  0  0  0
 26 84  1  0  0  0  0
 27 30  2  0  0  0  0
 27 83  1  0  0  0  0
 28 85  1  0  0  0  0
 29 31  1  0  0  0  0
 29 86  1  0  0  0  0
 30 87  1  0  0  0  0
 31 88  1  0  0  0  0
 32 66  2  0  0  0  0
 33 67  1  0  0  0  0
 33 70  1  0  0  0  0
 34 71  1  0  0  0  0
 34 76  2  0  0  0  0
 35 72  1  0  0  0  0
 35 78  2  0  0  0  0
 36 50  1  0  0  0  0
 36 74  1  0  0  0  0
 36 79  2  0  0  0  0
 37 62  1  0  0  0  0
 37 68  1  0  0  0  0
 37 80  2  0  0  0  0
 38 63  1  0  0  0  0
 38 75  1  0  0  0  0
 38 81  2  0  0  0  0
 39 69  1  0  0  0  0
 39 73  1  0  0  0  0
 39 82  2  0  0  0  0
 40 43  1  0  0  0  0
 41 50  1  0  0  0  0
 42 68  1  0  0  0  0
 43 45  1  0  0  0  0
 44 46  1  0  0  0  0
 44 47  1  0  0  0  0
 45 49  1  0  0  0  0
 46 51  1  0  0  0  0
 47 69  1  0  0  0  0
 48 51  1  0  0  0  0
 48 69  1  0  0  0  0
 49 74  1  0  0  0  0
 50 68  1  0  0  0  0
 51 67  1  0  0  0  0
 52 59  1  0  0  0  0
 53 63  1  0  0  0  0
 54 64  1  0  0  0  0
 55 64  1  0  0  0  0
 56 64  1  0  0  0  0
 57 65  1  0  0  0  0
 58 77  1  0  0  0  0
 59 65  1  0  0  0  0
 60 65  1  0  0  0  0
 60 76  1  0  0  0  0
 61 65  1  0  0  0  0
 61 84  1  0  0  0  0
 62 64  1  0  0  0  0
 62 75  1  0  0  0  0
 63 77  1  0  0  0  0
 66 67  1  0  0  0  0
M  CHG  2  76   1  77   1
M  ISO  4  39 100  61 101  73 100  84 101
M  END
> <Batch ID>
0167

> <Smiles>
CCC(C)(CNC(=N)c1cc([100NH:0][100C:0](=O)N2CCCC(n3nc(-c4ccc(Oc5ccc(F)cc5F)cc4)c(C(N)=O)c3N)C2)cc(F)c1F)[101CH2:1][101O:1]c1ccc2c(c1)CN(C(=O)C(NC(=O)C(C)NC)C(C)(C)C)C(C(=O)NC1CCCc3ccccc31)C2

> <Shape>
0.224

> <Color>
0.061

> <Negative vol penalty>
0.000

$$$$

  -OEChem-04052304113D

 88 96  0     1  0  0  0  0  0999 V2000
  -23.4135  -35.5922   24.9184 C   0  0  0  0  0  0  0  0  0  0  0  0
  -24.4248  -34.7270   24.5133 C   0  0  0  0  0  0  0  0  0  0  0  0
  -20.5113  -16.5188   23.4329 C   0  0  0  0  0  0  0  0  0  0  0  0
  -21.5762  -18.4888   22.5262 C   0  0  0  0  0  0  0  0  0  0  0  0
  -22.1284  -35.1022   25.1469 C   0  0  0  0  0  0  0  0  0  0  0  0
  -24.1517  -33.3709   24.3376 C   0  0  0  0  0  0  0  0  0  0  0  0
  -26.6142  -29.6310   20.1596 C   0  0  0  0  0  0  0  0  0  0  0  0
  -19.9603  -17.2882   24.4577 C   0  0  0  0  0  0  0  0  0  0  0  0
  -21.0252  -19.2582   23.5509 C   0  0  0  0  0  0  0  0  0  0  0  0
  -27.6555  -28.7063   20.2262 C   0  0  0  0  0  0  0  0  0  0  0  0
  -19.6057  -21.8056   25.7221 C   0  0  0  0  0  0  0  0  0  0  0  0
  -19.0315  -23.0293   25.3783 C   0  0  0  0  0  0  0  0  0  0  0  0
  -26.0552  -26.9401   20.5984 C   0  0  0  0  0  0  0  0  0  0  0  0
  -29.8119  -19.8996   20.8457 C   0  0  0  0  0  0  0  0  0  0  0  0
  -17.4636  -21.8886   23.9368 C   0  0  0  0  0  0  0  0  0  0  0  0
  -29.1185  -20.1644   18.5861 C   0  0  0  0  0  0  0  0  0  0  0  0
  -21.3192  -17.1190   22.4672 C   0  0  0  0  0  0  0  0  0  0  0  0
  -21.3209  -16.0526   20.1498 C   0  0  0  0  0  0  0  0  0  0  0  0
  -21.8371  -33.7411   24.9645 C   0  0  0  0  0  0  0  0  0  0  0  0
  -25.2841  -29.2181   20.3231 C   0  0  0  0  0  0  0  0  0  0  0  0
  -22.8618  -32.8619   24.5651 C   0  0  0  0  0  0  0  0  0  0  0  0
  -24.9986  -27.8611   20.5310 C   0  0  0  0  0  0  0  0  0  0  0  0
  -29.7753  -18.5216   20.6636 C   0  0  0  0  0  0  0  0  0  0  0  0
  -29.4787  -20.7436   19.7922 C   0  0  0  0  0  0  0  0  0  0  0  0
  -20.2173  -18.6579   24.5167 C   0  0  0  0  0  0  0  0  0  0  0  0
  -27.3763  -27.3610   20.4485 C   0  0  0  0  0  0  0  0  0  0  0  0
  -19.1090  -20.6233   25.1733 C   0  0  0  0  0  0  0  0  0  0  0  0
  -17.9604  -23.0708   24.4856 C   0  0  0  0  0  0  0  0  0  0  0  0
  -18.0379  -20.6648   24.2807 C   0  0  0  0  0  0  0  0  0  0  0  0
  -21.8891  -16.3246   21.4088 C   0  0  0  0  0  0  0  0  0  0  0  0
  -29.4016  -18.0418   19.4186 C   0  0  0  0  0  0  0  0  0  0  0  0
  -22.2489  -15.2612   19.5181 C   0  0  0  0  0  0  0  0  0  0  0  0
  -20.0665  -16.4773   19.6005 C   0  0  0  0  0  0  0  0  0  0  0  0
  -29.3422  -24.4937   19.5142 C   0  0  0  0  0  0  0  0  0  0  0  0
  -29.2017  -23.0938   18.9905 C   0  0  0  0  0  0  0  0  0  0  0  0
  -22.9766  -29.8609   22.4126 C   0  0  0  0  0  0  0  0  0  0  0  0
  -21.1820  -28.0667   20.3920 C   0  0  0  0  0  0  0  0  0  0  0  0
  -21.0701  -25.6401   17.9950 C   0  0  0  0  0  0  0  0  0  0  0  0
  -28.1685  -14.6212   20.1504 C   0  0  0  0  0  0  0  0  0  0  0  0
  -20.4442  -33.2496   25.2694 C   0  0  0  0  0  0  0  0  0  0  0  0
  -24.1704  -30.2240   20.2220 C   0  0  0  0  0  0  0  0  0  0  0  0
  -23.5863  -27.3636   20.6927 C   0  0  0  0  0  0  0  0  0  0  0  0
  -20.1482  -31.8652   24.6984 C   0  0  0  0  0  0  0  0  0  0  0  0
  -25.6973  -12.0740   20.4352 C   0  0  0  0  0  0  0  0  0  0  0  0
  -21.2985  -30.9082   24.9951 C   0  0  0  0  0  0  0  0  0  0  0  0
  -24.3898  -12.8500   20.6034 C   0  0  0  0  0  0  0  0  0  0  0  0
  -26.8598  -12.7668   21.1427 C   0  0  0  0  0  0  0  0  0  0  0  0
  -25.7481  -14.9570   20.9411 C   0  0  0  0  0  0  0  0  0  0  0  0
  -22.5989  -31.3888   24.3397 C   0  0  1  0  0  0  0  0  0  0  0  0
  -22.8898  -29.7694   20.9154 C   0  0  1  0  0  0  0  0  0  0  0  0
  -24.5580  -14.3266   20.1978 C   0  0  2  0  0  0  0  0  0  0  0  0
  -19.4564  -24.3607   16.5609 C   0  0  0  0  0  0  0  0  0  0  0  0
  -20.3864  -26.3734   22.8023 C   0  0  0  0  0  0  0  0  0  0  0  0
  -19.5865  -24.6120   21.2130 C   0  0  0  0  0  0  0  0  0  0  0  0
  -18.5201  -26.8671   21.2125 C   0  0  0  0  0  0  0  0  0  0  0  0
  -22.2917  -26.6665   15.5023 C   0  0  0  0  0  0  0  0  0  0  0  0
  -29.3449  -16.5712   19.1640 C   0  0  0  0  0  0  0  0  0  0  0  0
  -28.1020  -25.1245   20.0915 C   0  0  0  0  0  0  0  0  0  1  0  0
  -20.8517  -26.5985   20.2727 C   0  0  1  0  0  0  0  0  0  0  0  0
  -20.3600  -25.5803   16.6546 C   0  0  2  0  0  0  0  0  0  0  0  0
  -30.1306  -17.6128   21.7891 C   0  0  0  0  0  0  0  0  0  0  0  0
  -19.8630  -26.1221   21.3741 C   0  0  0  0  0  0  0  0  0  0  0  0
  -29.0712  -18.8305   18.3714 N   0  0  0  0  0  0  0  0  0  0  0  0
  -23.0853  -15.7524   21.5692 N   0  0  0  0  0  0  0  0  0  0  0  0
  -23.2763  -15.1129   20.4028 N   0  0  0  0  0  0  0  0  0  0  0  0
  -22.5324  -28.3866   20.5921 N   0  0  0  0  0  0  0  0  0  0  0  0
  -26.9656  -14.1631   20.7127 N   0  0  0  0  0  0  0  0  0  0  0  0
  -22.2781  -14.6847   18.2978 N   0  0  0  0  0  0  0  0  0  0  0  0
  -19.2338  -17.2874   20.3845 N   0  0  0  0  0  0  0  0  0  0  0  0
  -29.5065  -22.1492   19.9468 N   0  0  0  0  0  0  0  0  0  0  0  0
  -22.5936  -31.0859   22.9245 N   0  0  0  0  0  0  0  0  0  0  0  0
  -20.3704  -26.3978   18.9102 N   0  0  0  0  0  0  0  0  0  0  0  0
  -28.1820  -15.9558   19.7638 N   0  0  0  0  0  0  0  0  0  0  0  0
  -21.3527  -25.5160   15.5449 N   0  3  0  0  0  0  0  0  0  0  0  0
  -19.6878  -16.1347   18.4548 O   0  0  0  0  0  0  0  0  0  0  0  0
  -30.4377  -25.0260   19.4182 O   0  0  0  0  0  0  0  0  0  0  0  0
  -28.8733  -22.9781   17.8214 O   0  0  0  0  0  0  0  0  0  0  0  0
  -23.3611  -28.8913   23.0559 O   0  0  0  0  0  0  0  0  0  0  0  0
  -20.2763  -28.8995   20.3036 O   0  0  0  0  0  0  0  0  0  0  0  0
  -22.1367  -25.0686   18.2098 O   0  0  0  0  0  0  0  0  0  0  0  0
  -29.1555  -13.8933   19.9988 O   0  0  0  0  0  0  0  0  0  0  0  0
  -19.6797  -19.4091   25.5163 O   0  0  0  0  0  0  0  0  0  0  0  0
  -28.3908  -26.4564   20.5146 O   0  0  0  0  0  0  0  0  0  1  0  0
  -17.4081  -24.2459   24.1567 F   0  0  0  0  0  0  0  0  0  0  0  0
  -17.5556  -19.5322   23.7511 F   0  0  0  0  0  0  0  0  0  0  0  0
  -30.4718  -18.2691   22.9383 F   0  0  0  0  0  0  0  0  0  0  0  0
  -29.1203  -16.7667   22.1509 F   0  0  0  0  0  0  0  0  0  0  0  0
  -31.1947  -16.8072   21.4999 F   0  0  0  0  0  0  0  0  0  0  0  0
  1  2  1  0  0  0  0
  1  5  2  0  0  0  0
  2  6  2  0  0  0  0
  3  8  2  0  0  0  0
  3 17  1  0  0  0  0
  4  9  1  0  0  0  0
  4 17  2  0  0  0  0
  5 19  1  0  0  0  0
  6 21  1  0  0  0  0
  7 10  2  0  0  0  0
  7 20  1  0  0  0  0
  8 25  1  0  0  0  0
  9 25  2  0  0  0  0
 10 26  1  0  0  0  0
 11 12  2  0  0  0  0
 11 27  1  0  0  0  0
 12 28  1  0  0  0  0
 13 22  1  0  0  0  0
 13 26  2  0  0  0  0
 14 23  1  0  0  0  0
 14 24  2  0  0  0  0
 15 28  2  0  0  0  0
 15 29  1  0  0  0  0
 16 24  1  0  0  0  0
 16 63  2  0  0  0  0
 17 30  1  0  0  0  0
 18 30  1  0  0  0  0
 18 32  2  0  0  0  0
 18 33  1  0  0  0  0
 19 21  2  0  0  0  0
 19 40  1  0  0  0  0
 20 22  2  0  0  0  0
 20 41  1  0  0  0  0
 21 49  1  0  0  0  0
 22 42  1  0  0  0  0
 23 31  2  0  0  0  0
 23 61  1  0  0  0  0
 24 70  1  0  0  0  0
 25 82  1  0  0  0  0
 26 83  1  0  0  0  0
 27 29  2  0  0  0  0
 27 82  1  0  0  0  0
 28 84  1  0  0  0  0
 29 85  1  0  0  0  0
 30 64  2  0  0  0  0
 31 57  1  0  0  0  0
 31 63  1  0  0  0  0
 32 65  1  0  0  0  0
 32 68  1  0  0  0  0
 33 69  1  0  0  0  0
 33 75  2  0  0  0  0
 34 35  1  0  0  0  0
 34 58  1  0  0  0  0
 34 76  2  0  0  0  0
 35 70  1  0  0  0  0
 35 77  2  0  0  0  0
 36 50  1  0  0  0  0
 36 71  1  0  0  0  0
 36 78  2  0  0  0  0
 37 59  1  0  0  0  0
 37 66  1  0  0  0  0
 37 79  2  0  0  0  0
 38 60  1  0  0  0  0
 38 72  1  0  0  0  0
 38 80  2  0  0  0  0
 39 67  1  0  0  0  0
 39 73  1  0  0  0  0
 39 81  2  0  0  0  0
 40 43  1  0  0  0  0
 41 50  1  0  0  0  0
 42 66  1  0  0  0  0
 43 45  1  0  0  0  0
 44 46  1  0  0  0  0
 44 47  1  0  0  0  0
 45 49  1  0  0  0  0
 46 51  1  0  0  0  0
 47 67  1  0  0  0  0
 48 51  1  0  0  0  0
 48 67  1  0  0  0  0
 49 71  1  0  0  0  0
 50 66  1  0  0  0  0
 51 65  1  0  0  0  0
 52 60  1  0  0  0  0
 53 62  1  0  0  0  0
 54 62  1  0  0  0  0
 55 62  1  0  0  0  0
 56 74  1  0  0  0  0
 57 73  1  0  0  0  0
 58 83  1  0  0  0  0
 59 62  1  0  0  0  0
 59 72  1  0  0  0  0
 60 74  1  0  0  0  0
 61 86  1  0  0  0  0
 61 87  1  0  0  0  0
 61 88  1  0  0  0  0
 64 65  1  0  0  0  0
M  CHG  1  74   1
M  ISO  4  39 100  58 101  73 100  83 101
M  END
> <Batch ID>
0167

> <Smiles>
CNC(C)C(=O)NC(C(=O)N1Cc2cc([101O:1][101CH2:1]C(=O)C(=O)Nc3cnc(C[100NH:0][100C:0](=O)N4CCCC(n5nc(-c6ccc(Oc7ccc(F)cc7F)cc6)c(C(N)=O)c5N)C4)c(C(F)(F)F)c3)ccc2CC1C(=O)NC1CCCc2ccccc21)C(C)(C)C

> <Shape>
0.244

> <Color>
0.078

> <Negative vol penalty>
0.000

$$$$

  -OEChem-04052304113D

 86 94  0     1  0  0  0  0  0999 V2000
  -19.5063  -30.2903   16.6947 C   0  0  0  0  0  0  0  0  0  0  0  0
  -20.0819  -29.2872   17.4680 C   0  0  0  0  0  0  0  0  0  0  0  0
  -24.4533   -9.5115   21.3007 C   0  0  0  0  0  0  0  0  0  0  0  0
  -24.6330  -10.6283   23.4355 C   0  0  0  0  0  0  0  0  0  0  0  0
  -19.9719  -31.6006   16.7958 C   0  0  0  0  0  0  0  0  0  0  0  0
  -21.1242  -29.5938   18.3421 C   0  0  0  0  0  0  0  0  0  0  0  0
  -20.5518  -27.4273   22.8834 C   0  0  0  0  0  0  0  0  0  0  0  0
  -24.1179   -8.3237   21.9503 C   0  0  0  0  0  0  0  0  0  0  0  0
  -24.2976   -9.4404   24.0852 C   0  0  0  0  0  0  0  0  0  0  0  0
  -20.8714  -26.0743   22.9882 C   0  0  0  0  0  0  0  0  0  0  0  0
  -25.7214   -5.8554   23.6119 C   0  0  0  0  0  0  0  0  0  0  0  0
  -26.3470   -4.6846   23.1839 C   0  0  0  0  0  0  0  0  0  0  0  0
  -23.0063  -26.6591   23.9472 C   0  0  0  0  0  0  0  0  0  0  0  0
  -29.3427  -20.1663   20.3508 C   0  0  0  0  0  0  0  0  0  0  0  0
  -24.1942   -3.7345   22.6360 C   0  0  0  0  0  0  0  0  0  0  0  0
  -24.7109  -10.6639   22.0433 C   0  0  0  0  0  0  0  0  0  0  0  0
  -24.1769  -12.8928   20.9233 C   0  0  0  0  0  0  0  0  0  0  0  0
  -21.0139  -31.9251   17.6786 C   0  0  0  0  0  0  0  0  0  0  0  0
  -21.4630  -28.4082   23.3003 C   0  0  0  0  0  0  0  0  0  0  0  0
  -21.6050  -30.9094   18.4541 C   0  0  0  0  0  0  0  0  0  0  0  0
  -22.6948  -28.0238   23.8489 C   0  0  0  0  0  0  0  0  0  0  0  0
  -28.7042  -21.4212   20.4941 C   0  0  0  0  0  0  0  0  0  0  0  0
  -24.0400   -8.2881   23.3425 C   0  0  0  0  0  0  0  0  0  0  0  0
  -22.1000  -25.6900   23.5175 C   0  0  0  0  0  0  0  0  0  0  0  0
  -24.3321   -5.9658   23.5521 C   0  0  0  0  0  0  0  0  0  0  0  0
  -25.5835   -3.6241   22.6959 C   0  0  0  0  0  0  0  0  0  0  0  0
  -23.5686   -4.9054   23.0642 C   0  0  0  0  0  0  0  0  0  0  0  0
  -25.0580  -11.8911   21.3729 C   0  0  0  0  0  0  0  0  0  0  0  0
  -24.9945  -13.8414   20.3592 C   0  0  0  0  0  0  0  0  0  0  0  0
  -28.4145  -19.2210   20.7206 C   0  0  0  0  0  0  0  0  0  0  0  0
  -27.4312  -21.1534   20.9410 C   0  0  0  0  0  0  0  0  0  0  0  0
  -22.7472  -12.9598   21.0080 C   0  0  0  0  0  0  0  0  0  0  0  0
  -23.0213  -30.7775   21.8643 C   0  0  0  0  0  0  0  0  0  0  0  0
  -24.1471  -22.6633   21.9646 C   0  0  0  0  0  0  0  0  0  0  0  0
  -23.9448  -31.4845   24.8925 C   0  0  0  0  0  0  0  0  0  0  0  0
  -24.4803  -30.4040   28.0850 C   0  0  0  0  0  0  0  0  0  0  0  0
  -29.5775  -17.0019   20.4568 C   0  0  0  0  0  0  0  0  0  0  0  0
  -21.5152  -33.3470   17.7187 C   0  0  0  0  0  0  0  0  0  0  0  0
  -21.0923  -29.8629   23.2053 C   0  0  0  0  0  0  0  0  0  0  0  0
  -23.6997  -29.0374   24.3297 C   0  0  0  0  0  0  0  0  0  0  0  0
  -22.3718  -33.6566   18.9436 C   0  0  0  0  0  0  0  0  0  0  0  0
  -29.9227  -13.6829   19.2152 C   0  0  0  0  0  0  0  0  0  0  0  0
  -23.4027  -32.5546   19.1665 C   0  0  0  0  0  0  0  0  0  0  0  0
  -28.6154  -13.0032   19.6289 C   0  0  0  0  0  0  0  0  0  0  0  0
  -30.4104  -14.6677   20.2763 C   0  0  0  0  0  0  0  0  0  0  0  0
  -28.1142  -14.9897   21.1087 C   0  0  0  0  0  0  0  0  0  0  0  0
  -22.7210  -31.2069   19.4320 C   0  0  1  0  0  0  0  0  0  0  0  0
  -22.3048  -30.7884   23.1850 C   0  0  1  0  0  0  0  0  0  0  0  0
  -27.5494  -14.0367   20.0427 C   0  0  2  0  0  0  0  0  0  0  0  0
  -25.2719  -31.2028   30.3284 C   0  0  0  0  0  0  0  0  0  0  0  0
  -26.8273  -31.4246   23.8939 C   0  0  0  0  0  0  0  0  0  0  0  0
  -27.5767  -31.2763   26.2782 C   0  0  0  0  0  0  0  0  0  0  0  0
  -26.3151  -33.2793   25.4914 C   0  0  0  0  0  0  0  0  0  0  0  0
  -21.8830  -29.7728   29.3557 C   0  0  0  0  0  0  0  0  0  0  0  0
  -22.7581  -22.2874   22.4634 C   0  0  0  0  0  0  0  0  0  0  0  0
  -25.0848  -21.4989   21.7161 C   0  0  0  0  0  0  0  0  0  0  0  0
  -21.8454  -23.4893   22.6526 C   0  0  0  0  0  0  0  0  0  1  0  0
  -25.0978  -31.0823   25.7800 C   0  0  1  0  0  0  0  0  0  0  0  0
  -24.0674  -30.9819   29.4267 C   0  0  2  0  0  0  0  0  0  0  0  0
  -29.2938  -22.7447   20.2183 C   0  0  0  0  0  0  0  0  0  0  0  0
  -26.4363  -31.7463   25.3501 C   0  0  0  0  0  0  0  0  0  0  0  0
  -26.3373  -12.1767   21.1163 N   0  0  0  0  0  0  0  0  0  0  0  0
  -26.2660  -13.3685   20.4994 N   0  0  0  0  0  0  0  0  0  0  0  0
  -23.2934  -30.4474   24.2100 N   0  0  0  0  0  0  0  0  0  0  0  0
  -29.3494  -15.6186   20.6152 N   0  0  0  0  0  0  0  0  0  0  0  0
  -24.7425  -15.0254   19.7618 N   0  0  0  0  0  0  0  0  0  0  0  0
  -22.0637  -11.8998   21.6192 N   0  0  0  0  0  0  0  0  0  0  0  0
  -28.4856  -17.8070   20.7795 N   0  0  0  0  0  0  0  0  0  0  0  0
  -26.3626  -21.9803   21.2551 N   0  0  0  0  0  0  0  0  0  0  0  0
  -22.2314  -31.1476   20.7926 N   0  0  0  0  0  0  0  0  0  0  0  0
  -24.6888  -31.3917   27.1458 N   0  0  0  0  0  0  0  0  0  0  0  0
  -23.1243  -30.0595   30.1199 N   0  3  0  0  0  0  0  0  0  0  0  0
  -22.0939  -13.9232   20.5406 O   0  0  0  0  0  0  0  0  0  0  0  0
  -24.2037  -30.4584   21.8211 O   0  0  0  0  0  0  0  0  0  0  0  0
  -24.4842  -23.8318   21.7785 O   0  0  0  0  0  0  0  0  0  0  0  0
  -23.6290  -32.6744   24.8134 O   0  0  0  0  0  0  0  0  0  0  0  0
  -24.6088  -29.1972   27.8907 O   0  0  0  0  0  0  0  0  0  0  0  0
  -30.6527  -17.4386   20.0380 O   0  0  0  0  0  0  0  0  0  0  0  0
  -27.2466  -19.8144   21.0817 O   0  0  0  0  0  0  0  0  0  0  0  0
  -23.7125   -7.1292   23.9768 O   0  0  0  0  0  0  0  0  0  0  0  0
  -22.4147  -24.3701   23.6203 O   0  0  0  0  0  0  0  0  0  1  0  0
  -26.1845   -2.5004   22.2834 F   0  0  0  0  0  0  0  0  0  0  0  0
  -22.2337   -5.0060   23.0032 F   0  0  0  0  0  0  0  0  0  0  0  0
  -30.5943  -22.7028   19.7810 F   0  0  0  0  0  0  0  0  0  0  0  0
  -28.6334  -23.4658   19.2550 F   0  0  0  0  0  0  0  0  0  0  0  0
  -29.3189  -23.5660   21.3162 F   0  0  0  0  0  0  0  0  0  0  0  0
  1  2  1  0  0  0  0
  1  5  2  0  0  0  0
  2  6  2  0  0  0  0
  3  8  2  0  0  0  0
  3 16  1  0  0  0  0
  4  9  1  0  0  0  0
  4 16  2  0  0  0  0
  5 18  1  0  0  0  0
  6 20  1  0  0  0  0
  7 10  2  0  0  0  0
  7 19  1  0  0  0  0
  8 23  1  0  0  0  0
  9 23  2  0  0  0  0
 10 24  1  0  0  0  0
 11 12  2  0  0  0  0
 11 25  1  0  0  0  0
 12 26  1  0  0  0  0
 13 21  1  0  0  0  0
 13 24  2  0  0  0  0
 14 22  1  0  0  0  0
 14 30  2  0  0  0  0
 15 26  2  0  0  0  0
 15 27  1  0  0  0  0
 16 28  1  0  0  0  0
 17 28  1  0  0  0  0
 17 29  2  0  0  0  0
 17 32  1  0  0  0  0
 18 20  2  0  0  0  0
 18 38  1  0  0  0  0
 19 21  2  0  0  0  0
 19 39  1  0  0  0  0
 20 47  1  0  0  0  0
 21 40  1  0  0  0  0
 22 31  2  0  0  0  0
 22 60  1  0  0  0  0
 23 80  1  0  0  0  0
 24 81  1  0  0  0  0
 25 27  2  0  0  0  0
 25 80  1  0  0  0  0
 26 82  1  0  0  0  0
 27 83  1  0  0  0  0
 28 62  2  0  0  0  0
 29 63  1  0  0  0  0
 29 66  1  0  0  0  0
 30 68  1  0  0  0  0
 30 79  1  0  0  0  0
 31 69  1  0  0  0  0
 31 79  1  0  0  0  0
 32 67  1  0  0  0  0
 32 73  2  0  0  0  0
 33 48  1  0  0  0  0
 33 70  1  0  0  0  0
 33 74  2  0  0  0  0
 34 55  1  0  0  0  0
 34 56  1  0  0  0  0
 34 75  2  0  0  0  0
 35 58  1  0  0  0  0
 35 64  1  0  0  0  0
 35 76  2  0  0  0  0
 36 59  1  0  0  0  0
 36 71  1  0  0  0  0
 36 77  2  0  0  0  0
 37 65  1  0  0  0  0
 37 68  1  0  0  0  0
 37 78  2  0  0  0  0
 38 41  1  0  0  0  0
 39 48  1  0  0  0  0
 40 64  1  0  0  0  0
 41 43  1  0  0  0  0
 42 44  1  0  0  0  0
 42 45  1  0  0  0  0
 43 47  1  0  0  0  0
 44 49  1  0  0  0  0
 45 65  1  0  0  0  0
 46 49  1  0  0  0  0
 46 65  1  0  0  0  0
 47 70  1  0  0  0  0
 48 64  1  0  0  0  0
 49 63  1  0  0  0  0
 50 59  1  0  0  0  0
 51 61  1  0  0  0  0
 52 61  1  0  0  0  0
 53 61  1  0  0  0  0
 54 72  1  0  0  0  0
 55 57  1  0  0  0  0
 56 69  1  0  0  0  0
 57 81  1  0  0  0  0
 58 61  1  0  0  0  0
 58 71  1  0  0  0  0
 59 72  1  0  0  0  0
 60 84  1  0  0  0  0
 60 85  1  0  0  0  0
 60 86  1  0  0  0  0
 62 63  1  0  0  0  0
M  CHG  1  72   1
M  ISO  4  37 100  57 101  68 100  81 101
M  END
> <Batch ID>
0167

> <Smiles>
CNC(C)C(=O)NC(C(=O)N1Cc2cc([101O:1][101CH2:1]CC(=O)CNc3oc([100NH:0][100C:0](=O)N4CCCC(n5nc(-c6ccc(Oc7ccc(F)cc7F)cc6)c(C(N)=O)c5N)C4)cc3C(F)(F)F)ccc2CC1C(=O)NC1CCCc2ccccc21)C(C)(C)C

> <Shape>
0.276

> <Color>
0.100

> <Negative vol penalty>
0.000

$$$$

  -OEChem-04052304113D

 86 94  0     1  0  0  0  0  0999 V2000
  -17.4703  -26.2000   22.7383 C   0  0  0  0  0  0  0  0  0  0  0  0
  -18.7468  -25.7644   22.3974 C   0  0  0  0  0  0  0  0  0  0  0  0
  -20.0898  -14.3626   23.4472 C   0  0  0  0  0  0  0  0  0  0  0  0
  -22.1140  -13.3522   22.5994 C   0  0  0  0  0  0  0  0  0  0  0  0
  -17.1391  -27.5487   22.6149 C   0  0  0  0  0  0  0  0  0  0  0  0
  -19.6926  -26.6771   21.9319 C   0  0  0  0  0  0  0  0  0  0  0  0
  -25.7321  -26.5568   22.9393 C   0  0  0  0  0  0  0  0  0  0  0  0
  -19.3400  -13.6373   22.5214 C   0  0  0  0  0  0  0  0  0  0  0  0
  -21.3642  -12.6268   21.6736 C   0  0  0  0  0  0  0  0  0  0  0  0
  -26.8027  -26.1043   22.1693 C   0  0  0  0  0  0  0  0  0  0  0  0
  -19.4394   -9.8491   21.6586 C   0  0  0  0  0  0  0  0  0  0  0  0
  -19.7403   -8.4963   21.5008 C   0  0  0  0  0  0  0  0  0  0  0  0
  -27.1653  -28.3494   21.3648 C   0  0  0  0  0  0  0  0  0  0  0  0
  -28.8686  -19.9399   21.7244 C   0  0  0  0  0  0  0  0  0  0  0  0
  -29.0568  -17.5501   22.0247 C   0  0  0  0  0  0  0  0  0  0  0  0
  -20.2506   -8.8817   19.1709 C   0  0  0  0  0  0  0  0  0  0  0  0
  -21.4769  -14.2201   23.4862 C   0  0  0  0  0  0  0  0  0  0  0  0
  -22.6028  -14.5764   25.7474 C   0  0  0  0  0  0  0  0  0  0  0  0
  -18.0843  -28.4800   22.1567 C   0  0  0  0  0  0  0  0  0  0  0  0
  -25.3627  -27.9094   22.9194 C   0  0  0  0  0  0  0  0  0  0  0  0
  -19.3733  -28.0394   21.8009 C   0  0  0  0  0  0  0  0  0  0  0  0
  -26.0913  -28.8170   22.1374 C   0  0  0  0  0  0  0  0  0  0  0  0
  -28.4261  -18.7587   22.3199 C   0  0  0  0  0  0  0  0  0  0  0  0
  -29.9416  -19.9125   20.8336 C   0  0  0  0  0  0  0  0  0  0  0  0
  -19.9771  -12.7694   21.6346 C   0  0  0  0  0  0  0  0  0  0  0  0
  -27.5176  -27.0001   21.3796 C   0  0  0  0  0  0  0  0  0  0  0  0
  -19.5440  -10.7183   20.5726 C   0  0  0  0  0  0  0  0  0  0  0  0
  -20.1459   -8.0126   20.2569 C   0  0  0  0  0  0  0  0  0  0  0  0
  -30.1299  -17.5227   21.1339 C   0  0  0  0  0  0  0  0  0  0  0  0
  -19.9497  -10.2346   19.3288 C   0  0  0  0  0  0  0  0  0  0  0  0
  -30.5723  -18.7039   20.5384 C   0  0  0  0  0  0  0  0  0  0  0  0
  -22.2521  -14.9696   24.4420 C   0  0  0  0  0  0  0  0  0  0  0  0
  -23.3351  -15.6296   26.2382 C   0  0  0  0  0  0  0  0  0  0  0  0
  -22.2942  -13.3671   26.4533 C   0  0  0  0  0  0  0  0  0  0  0  0
  -30.5098  -23.4258   19.6830 C   0  0  0  0  0  0  0  0  0  0  0  0
  -30.0392  -24.8632   19.7899 C   0  0  0  0  0  0  0  0  0  0  0  0
  -22.7531  -29.5095   22.0627 C   0  0  0  0  0  0  0  0  0  0  0  0
  -24.3774  -32.0393   23.2809 C   0  0  0  0  0  0  0  0  0  0  0  0
  -27.3857  -33.4341   24.0881 C   0  0  0  0  0  0  0  0  0  0  0  0
  -26.5999  -19.8994   23.6277 C   0  0  0  0  0  0  0  0  0  0  0  0
  -17.6655  -29.9199   21.9951 C   0  0  0  0  0  0  0  0  0  0  0  0
  -24.2222  -28.3864   23.7763 C   0  0  0  0  0  0  0  0  0  0  0  0
  -25.7477  -30.2829   22.0966 C   0  0  0  0  0  0  0  0  0  0  0  0
  -18.8405  -30.8834   21.8496 C   0  0  0  0  0  0  0  0  0  0  0  0
  -23.8243  -20.3739   25.8066 C   0  0  0  0  0  0  0  0  0  0  0  0
  -19.8535  -30.3421   20.8458 C   0  0  0  0  0  0  0  0  0  0  0  0
  -23.1415  -19.0044   25.8275 C   0  0  0  0  0  0  0  0  0  0  0  0
  -24.3890  -20.7051   24.4263 C   0  0  0  0  0  0  0  0  0  0  0  0
  -24.5914  -18.3121   23.8768 C   0  0  0  0  0  0  0  0  0  0  0  0
  -20.4345  -29.0030   21.3157 C   0  0  1  0  0  0  0  0  0  0  0  0
  -23.6103  -29.6939   23.2829 C   0  0  1  0  0  0  0  0  0  0  0  0
  -24.0637  -17.9063   25.2626 C   0  0  2  0  0  0  0  0  0  0  0  0
  -28.3963  -35.5281   25.0320 C   0  0  0  0  0  0  0  0  0  0  0  0
  -23.9059  -33.4621   20.6232 C   0  0  0  0  0  0  0  0  0  0  0  0
  -25.6964  -35.0927   21.2581 C   0  0  0  0  0  0  0  0  0  0  0  0
  -23.6307  -34.9091   22.6443 C   0  0  0  0  0  0  0  0  0  0  0  0
  -28.5615  -31.9731   26.3776 C   0  0  0  0  0  0  0  0  0  0  0  0
  -29.7865  -22.3791   20.4903 C   0  0  0  0  0  0  0  0  0  0  0  0
  -28.8716  -25.1693   20.6933 C   0  0  0  0  0  0  0  0  0  1  0  0
  -25.3472  -33.0546   22.7262 C   0  0  1  0  0  0  0  0  0  0  0  0
  -27.8649  -34.1380   25.3448 C   0  0  2  0  0  0  0  0  0  0  0  0
  -24.6505  -34.1017   21.8120 C   0  0  0  0  0  0  0  0  0  0  0  0
  -22.7227  -16.1784   24.1236 N   0  0  0  0  0  0  0  0  0  0  0  0
  -23.3766  -16.5538   25.2360 N   0  0  0  0  0  0  0  0  0  0  0  0
  -24.6204  -30.6994   22.9471 N   0  0  0  0  0  0  0  0  0  0  0  0
  -25.2563  -19.6222   23.9573 N   0  0  0  0  0  0  0  0  0  0  0  0
  -23.9410  -15.8461   27.4249 N   0  0  0  0  0  0  0  0  0  0  0  0
  -21.5317  -12.3887   25.8009 N   0  0  0  0  0  0  0  0  0  0  0  0
  -27.3364  -18.7858   23.2252 N   0  0  0  0  0  0  0  0  0  0  0  0
  -30.3795  -21.0880   20.2426 N   0  0  0  0  0  0  0  0  0  0  0  0
  -21.4318  -29.2172   22.3422 N   0  0  0  0  0  0  0  0  0  0  0  0
  -26.0375  -33.6301   23.8754 N   0  0  0  0  0  0  0  0  0  0  0  0
  -28.9530  -33.3541   25.9947 N   0  3  0  0  0  0  0  0  0  0  0  0
  -22.6693  -13.1673   27.6335 O   0  0  0  0  0  0  0  0  0  0  0  0
  -31.4583  -23.2044   18.9406 O   0  0  0  0  0  0  0  0  0  0  0  0
  -30.6370  -25.7030   19.1293 O   0  0  0  0  0  0  0  0  0  0  0  0
  -23.2532  -29.6253   20.9499 O   0  0  0  0  0  0  0  0  0  0  0  0
  -23.4429  -32.4203   23.9903 O   0  0  0  0  0  0  0  0  0  0  0  0
  -28.1334  -32.7792   23.3652 O   0  0  0  0  0  0  0  0  0  0  0  0
  -27.0704  -21.0358   23.7234 O   0  0  0  0  0  0  0  0  0  0  0  0
  -19.2457  -12.0612   20.7312 O   0  0  0  0  0  0  0  0  0  0  0  0
  -28.5626  -26.5609   20.6266 O   0  0  0  0  0  0  0  0  0  1  0  0
  -20.4363   -6.7138   20.1058 F   0  0  0  0  0  0  0  0  0  0  0  0
  -30.7360  -16.3622   20.8511 F   0  0  0  0  0  0  0  0  0  0  0  0
  -20.0532  -11.0649   18.2821 F   0  0  0  0  0  0  0  0  0  0  0  0
  -31.6042  -18.6658   19.6830 F   0  0  0  0  0  0  0  0  0  0  0  0
  1  2  1  0  0  0  0
  1  5  2  0  0  0  0
  2  6  2  0  0  0  0
  3  8  2  0  0  0  0
  3 17  1  0  0  0  0
  4  9  1  0  0  0  0
  4 17  2  0  0  0  0
  5 19  1  0  0  0  0
  6 21  1  0  0  0  0
  7 10  2  0  0  0  0
  7 20  1  0  0  0  0
  8 25  1  0  0  0  0
  9 25  2  0  0  0  0
 10 26  1  0  0  0  0
 11 12  2  0  0  0  0
 11 27  1  0  0  0  0
 12 28  1  0  0  0  0
 13 22  1  0  0  0  0
 13 26  2  0  0  0  0
 14 23  2  0  0  0  0
 14 24  1  0  0  0  0
 15 23  1  0  0  0  0
 15 29  2  0  0  0  0
 16 28  2  0  0  0  0
 16 30  1  0  0  0  0
 17 32  1  0  0  0  0
 18 32  1  0  0  0  0
 18 33  2  0  0  0  0
 18 34  1  0  0  0  0
 19 21  2  0  0  0  0
 19 41  1  0  0  0  0
 20 22  2  0  0  0  0
 20 42  1  0  0  0  0
 21 50  1  0  0  0  0
 22 43  1  0  0  0  0
 23 69  1  0  0  0  0
 24 31  2  0  0  0  0
 24 70  1  0  0  0  0
 25 81  1  0  0  0  0
 26 82  1  0  0  0  0
 27 30  2  0  0  0  0
 27 81  1  0  0  0  0
 28 83  1  0  0  0  0
 29 31  1  0  0  0  0
 29 84  1  0  0  0  0
 30 85  1  0  0  0  0
 31 86  1  0  0  0  0
 32 63  2  0  0  0  0
 33 64  1  0  0  0  0
 33 67  1  0  0  0  0
 34 68  1  0  0  0  0
 34 74  2  0  0  0  0
 35 36  1  0  0  0  0
 35 58  1  0  0  0  0
 35 75  2  0  0  0  0
 36 59  1  0  0  0  0
 36 76  2  0  0  0  0
 37 51  1  0  0  0  0
 37 71  1  0  0  0  0
 37 77  2  0  0  0  0
 38 60  1  0  0  0  0
 38 65  1  0  0  0  0
 38 78  2  0  0  0  0
 39 61  1  0  0  0  0
 39 72  1  0  0  0  0
 39 79  2  0  0  0  0
 40 66  1  0  0  0  0
 40 69  1  0  0  0  0
 40 80  2  0  0  0  0
 41 44  1  0  0  0  0
 42 51  1  0  0  0  0
 43 65  1  0  0  0  0
 44 46  1  0  0  0  0
 45 47  1  0  0  0  0
 45 48  1  0  0  0  0
 46 50  1  0  0  0  0
 47 52  1  0  0  0  0
 48 66  1  0  0  0  0
 49 52  1  0  0  0  0
 49 66  1  0  0  0  0
 50 71  1  0  0  0  0
 51 65  1  0  0  0  0
 52 64  1  0  0  0  0
 53 61  1  0  0  0  0
 54 62  1  0  0  0  0
 55 62  1  0  0  0  0
 56 62  1  0  0  0  0
 57 73  1  0  0  0  0
 58 70  1  0  0  0  0
 59 82  1  0  0  0  0
 60 62  1  0  0  0  0
 60 72  1  0  0  0  0
 61 73  1  0  0  0  0
 63 64  1  0  0  0  0
M  CHG  1  73   1
M  ISO  4  40 100  59 101  69 100  82 101
M  END
> <Batch ID>
0167

> <Smiles>
CNC(C)C(=O)NC(C(=O)N1Cc2cc([101O:1][101CH2:1]C(=O)C(=O)CNc3cc([100NH:0][100C:0](=O)N4CCCC(n5nc(-c6ccc(Oc7ccc(F)cc7F)cc6)c(C(N)=O)c5N)C4)cc(F)c3F)ccc2CC1C(=O)NC1CCCc2ccccc21)C(C)(C)C

> <Shape>
0.217

> <Color>
0.081

> <Negative vol penalty>
0.000

$$$$

  -OEChem-04052304113D

 91 99  0     1  0  0  0  0  0999 V2000
  -28.3467  -37.0518   23.9827 C   0  0  0  0  0  0  0  0  0  0  0  0
  -28.6541  -36.2388   22.8964 C   0  0  0  0  0  0  0  0  0  0  0  0
  -31.2091  -17.8922   18.3111 C   0  0  0  0  0  0  0  0  0  0  0  0
  -24.4864   -6.3685   21.4911 C   0  0  0  0  0  0  0  0  0  0  0  0
  -23.1013   -7.0592   23.3463 C   0  0  0  0  0  0  0  0  0  0  0  0
  -30.5622  -16.6632   18.4412 C   0  0  0  0  0  0  0  0  0  0  0  0
  -27.7755  -36.4974   25.1273 C   0  0  0  0  0  0  0  0  0  0  0  0
  -28.3914  -34.8706   22.9547 C   0  0  0  0  0  0  0  0  0  0  0  0
  -26.4796  -29.3704   18.7822 C   0  0  0  0  0  0  0  0  0  0  0  0
  -30.5276  -19.0735   18.6041 C   0  0  0  0  0  0  0  0  0  0  0  0
  -24.7516   -5.1618   22.1384 C   0  0  0  0  0  0  0  0  0  0  0  0
  -23.3665   -5.8524   23.9936 C   0  0  0  0  0  0  0  0  0  0  0  0
  -26.8833  -28.0772   18.4527 C   0  0  0  0  0  0  0  0  0  0  0  0
  -22.3085   -2.6478   23.8164 C   0  0  0  0  0  0  0  0  0  0  0  0
  -21.2337   -1.9777   24.4007 C   0  0  0  0  0  0  0  0  0  0  0  0
  -25.8213  -27.2429   20.4515 C   0  0  0  0  0  0  0  0  0  0  0  0
  -22.3100   -2.1328   26.5582 C   0  0  0  0  0  0  0  0  0  0  0  0
  -23.6613   -7.3173   22.0951 C   0  0  0  0  0  0  0  0  0  0  0  0
  -29.2339  -16.6156   18.8641 C   0  0  0  0  0  0  0  0  0  0  0  0
  -28.5524  -17.7969   19.1571 C   0  0  0  0  0  0  0  0  0  0  0  0
  -22.3316   -8.8379   20.5372 C   0  0  0  0  0  0  0  0  0  0  0  0
  -27.4967  -35.1233   25.1959 C   0  0  0  0  0  0  0  0  0  0  0  0
  -25.7519  -29.6114   19.9564 C   0  0  0  0  0  0  0  0  0  0  0  0
  -27.8171  -34.2970   24.1018 C   0  0  0  0  0  0  0  0  0  0  0  0
  -25.4073  -28.5397   20.7923 C   0  0  0  0  0  0  0  0  0  0  0  0
  -29.1993  -19.0259   19.0271 C   0  0  0  0  0  0  0  0  0  0  0  0
  -24.1917   -4.9037   23.3896 C   0  0  0  0  0  0  0  0  0  0  0  0
  -26.5566  -27.0137   19.2889 C   0  0  0  0  0  0  0  0  0  0  0  0
  -23.3841   -3.0603   24.6029 C   0  0  0  0  0  0  0  0  0  0  0  0
  -21.2345   -1.7202   25.7716 C   0  0  0  0  0  0  0  0  0  0  0  0
  -23.3848   -2.8028   25.9738 C   0  0  0  0  0  0  0  0  0  0  0  0
  -23.3874   -8.5643   21.4272 C   0  0  0  0  0  0  0  0  0  0  0  0
  -22.5125  -10.1528   20.1838 C   0  0  0  0  0  0  0  0  0  0  0  0
  -28.5937  -15.3116   18.9887 C   0  0  0  0  0  0  0  0  0  0  0  0
  -28.0580  -14.8108   20.1198 C   0  0  0  0  0  0  0  0  0  0  0  0
  -28.0181  -22.5412   19.6315 C   0  0  0  0  0  0  0  0  0  0  0  0
  -27.1601  -17.7559   19.6020 C   0  0  0  0  0  0  0  0  0  0  0  0
  -21.2811   -7.9803   20.0716 C   0  0  0  0  0  0  0  0  0  0  0  0
  -28.2466  -23.8646   19.6432 C   0  0  0  0  0  0  0  0  0  0  0  0
  -27.4337  -13.4730   20.0828 C   0  0  0  0  0  0  0  0  0  0  0  0
  -29.0470  -21.5281   19.2365 C   0  0  0  0  0  0  0  0  0  0  0  0
  -26.2542  -31.3051   22.5989 C   0  0  0  0  0  0  0  0  0  0  0  0
  -23.1969  -30.4478   23.2625 C   0  0  0  0  0  0  0  0  0  0  0  0
  -20.6322  -28.2508   22.7703 C   0  0  0  0  0  0  0  0  0  0  0  0
  -26.9222  -34.5620   26.4724 C   0  0  0  0  0  0  0  0  0  0  0  0
  -25.3009  -31.0085   20.2839 C   0  0  0  0  0  0  0  0  0  0  0  0
  -24.6102  -28.7426   22.0540 C   0  0  0  0  0  0  0  0  0  0  0  0
  -26.3301  -33.1642   26.3110 C   0  0  0  0  0  0  0  0  0  0  0  0
  -24.2998  -14.2658   21.8097 C   0  0  0  0  0  0  0  0  0  0  0  0
  -27.2853  -32.2668   25.5305 C   0  0  0  0  0  0  0  0  0  0  0  0
  -23.6379  -12.8915   21.8626 C   0  0  0  0  0  0  0  0  0  0  0  0
  -25.8200  -14.1734   21.9326 C   0  0  0  0  0  0  0  0  0  0  0  0
  -25.7819  -11.8833   20.9867 C   0  0  0  0  0  0  0  0  0  0  0  0
  -27.5242  -32.8124   24.1174 C   0  0  1  0  0  0  0  0  0  0  0  0
  -25.0064  -31.2090   21.7673 C   0  0  1  0  0  0  0  0  0  0  0  0
  -24.2559  -11.9491   20.8176 C   0  0  1  0  0  0  0  0  0  0  0  0
  -25.4045  -18.1851   17.8198 C   0  0  0  0  0  0  0  0  0  0  0  0
  -25.4639  -18.8844   22.6545 C   0  0  0  0  0  0  0  0  0  0  0  0
  -18.2690  -27.7910   23.4782 C   0  0  0  0  0  0  0  0  0  0  0  0
  -24.2076  -29.3871   25.9390 C   0  0  0  0  0  0  0  0  0  0  0  0
  -22.0587  -28.1236   26.1707 C   0  0  0  0  0  0  0  0  0  0  0  0
  -22.0325  -30.6154   26.0579 C   0  0  0  0  0  0  0  0  0  0  0  0
  -19.6268  -28.5214   19.9999 C   0  0  0  0  0  0  0  0  0  0  0  0
  -26.0735  -17.1348   18.6917 C   0  0  0  0  0  0  0  0  0  0  0  0
  -27.1961  -24.8541   20.0527 C   0  0  0  0  0  0  0  0  0  1  0  0
  -25.4793  -18.2661   21.2716 C   0  0  0  0  0  0  0  0  0  0  0  0
  -22.5419  -29.2855   23.9690 C   0  0  1  0  0  0  0  0  0  0  0  0
  -19.1639  -28.4711   22.4538 C   0  0  2  0  0  0  0  0  0  0  0  0
  -22.7269  -29.3490   25.5114 C   0  0  0  0  0  0  0  0  0  0  0  0
  -24.1804   -9.6204   21.6267 N   0  0  0  0  0  0  0  0  0  0  0  0
  -26.8430  -18.2502   20.7744 N   0  0  0  0  0  0  0  0  0  0  0  0
  -23.6226  -10.5704   20.8571 N   0  0  0  0  0  0  0  0  0  0  0  0
  -26.3816  -13.2221   20.9618 N   0  0  0  0  0  0  0  0  0  0  0  0
  -24.1978  -30.1278   22.3342 N   0  0  0  0  0  0  0  0  0  0  0  0
  -21.8287  -10.9809   19.3658 N   0  0  0  0  0  0  0  0  0  0  0  0
  -21.2434   -6.6581   20.5348 N   0  0  0  0  0  0  0  0  0  0  0  0
  -28.5309  -20.2404   19.3194 N   0  0  0  0  0  0  0  0  0  0  0  0
  -26.3974  -32.5093   23.2614 N   0  0  0  0  0  0  0  0  0  0  0  0
  -21.1494  -29.2757   23.5340 N   0  0  0  0  0  0  0  0  0  0  0  0
  -18.8366  -27.9239   21.1069 N   0  3  0  0  0  0  0  0  0  0  0  0
  -20.4115   -8.3701   19.2559 O   0  0  0  0  0  0  0  0  0  0  0  0
  -27.8858  -12.6566   19.2780 O   0  0  0  0  0  0  0  0  0  0  0  0
  -30.1762  -21.8576   18.8952 O   0  0  0  0  0  0  0  0  0  0  0  0
  -27.0289  -30.3564   22.6378 O   0  0  0  0  0  0  0  0  0  0  0  0
  -22.8290  -31.5968   23.5196 O   0  0  0  0  0  0  0  0  0  0  0  0
  -21.2568  -27.2661   22.3821 O   0  0  0  0  0  0  0  0  0  0  0  0
  -29.4693  -24.4053   19.2980 O   0  0  0  0  0  0  0  0  0  0  0  0
  -24.4500   -3.7262   24.0214 O   0  0  0  0  0  0  0  0  0  0  0  0
  -26.9499  -25.7505   18.9700 O   0  0  0  0  0  0  0  0  0  1  0  0
  -20.2016   -1.0781   26.3328 F   0  0  0  0  0  0  0  0  0  0  0  0
  -24.4147   -3.1978   26.7348 F   0  0  0  0  0  0  0  0  0  0  0  0
  1  2  1  0  0  0  0
  1  7  2  0  0  0  0
  2  8  2  0  0  0  0
  3  6  1  0  0  0  0
  3 10  2  0  0  0  0
  4 11  2  0  0  0  0
  4 18  1  0  0  0  0
  5 12  1  0  0  0  0
  5 18  2  0  0  0  0
  6 19  2  0  0  0  0
  7 22  1  0  0  0  0
  8 24  1  0  0  0  0
  9 13  2  0  0  0  0
  9 23  1  0  0  0  0
 10 26  1  0  0  0  0
 11 27  1  0  0  0  0
 12 27  2  0  0  0  0
 13 28  1  0  0  0  0
 14 15  2  0  0  0  0
 14 29  1  0  0  0  0
 15 30  1  0  0  0  0
 16 25  1  0  0  0  0
 16 28  2  0  0  0  0
 17 30  2  0  0  0  0
 17 31  1  0  0  0  0
 18 32  1  0  0  0  0
 19 20  1  0  0  0  0
 19 34  1  0  0  0  0
 20 26  2  0  0  0  0
 20 37  1  0  0  0  0
 21 32  1  0  0  0  0
 21 33  2  0  0  0  0
 21 38  1  0  0  0  0
 22 24  2  0  0  0  0
 22 45  1  0  0  0  0
 23 25  2  0  0  0  0
 23 46  1  0  0  0  0
 24 54  1  0  0  0  0
 25 47  1  0  0  0  0
 26 77  1  0  0  0  0
 27 88  1  0  0  0  0
 28 89  1  0  0  0  0
 29 31  2  0  0  0  0
 29 88  1  0  0  0  0
 30 90  1  0  0  0  0
 31 91  1  0  0  0  0
 32 70  2  0  0  0  0
 33 72  1  0  0  0  0
 33 75  1  0  0  0  0
 34 35  2  0  0  0  0
 35 40  1  0  0  0  0
 36 39  2  0  0  0  0
 36 41  1  0  0  0  0
 37 64  1  0  0  0  0
 37 71  2  0  0  0  0
 38 76  1  0  0  0  0
 38 81  2  0  0  0  0
 39 65  1  0  0  0  0
 39 87  1  0  0  0  0
 40 73  1  0  0  0  0
 40 82  2  0  0  0  0
 41 77  1  0  0  0  0
 41 83  2  0  0  0  0
 42 55  1  0  0  0  0
 42 78  1  0  0  0  0
 42 84  2  0  0  0  0
 43 67  1  0  0  0  0
 43 74  1  0  0  0  0
 43 85  2  0  0  0  0
 44 68  1  0  0  0  0
 44 79  1  0  0  0  0
 44 86  2  0  0  0  0
 45 48  1  0  0  0  0
 46 55  1  0  0  0  0
 47 74  1  0  0  0  0
 48 50  1  0  0  0  0
 49 51  1  0  0  0  0
 49 52  1  0  0  0  0
 50 54  1  0  0  0  0
 51 56  1  0  0  0  0
 52 73  1  0  0  0  0
 53 56  1  0  0  0  0
 53 73  1  0  0  0  0
 54 78  1  0  0  0  0
 55 74  1  0  0  0  0
 56 72  1  0  0  0  0
 57 64  1  0  0  0  0
 58 66  1  0  0  0  0
 59 68  1  0  0  0  0
 60 69  1  0  0  0  0
 61 69  1  0  0  0  0
 62 69  1  0  0  0  0
 63 80  1  0  0  0  0
 65 89  1  0  0  0  0
 66 71  1  0  0  0  0
 67 69  1  0  0  0  0
 67 79  1  0  0  0  0
 68 80  1  0  0  0  0
 70 72  1  0  0  0  0
M  CHG  1  80   1
M  ISO  4  35 100  40 100  65 101  89 101
M  END
> <Batch ID>
0167

> <Smiles>
CCN=C(CC)c1c(C=[100CH:0][100C:0](=O)N2CCCC(n3nc(-c4ccc(Oc5ccc(F)cc5F)cc4)c(C(N)=O)c3N)C2)cccc1NC(=O)CC(=O)[101CH2:1][101O:1]c1ccc2c(c1)CN(C(=O)C(NC(=O)C(C)NC)C(C)(C)C)C(C(=O)NC1CCCc3ccccc31)C2

> <Shape>
0.325

> <Color>
0.068

> <Negative vol penalty>
0.000

$$$$

  -OEChem-04052304113D

 88 96  0     1  0  0  0  0  0999 V2000
  -26.7778  -35.6446   22.6869 C   0  0  0  0  0  0  0  0  0  0  0  0
  -27.2010  -34.3235   22.5815 C   0  0  0  0  0  0  0  0  0  0  0  0
  -24.1622   -9.4518   21.4391 C   0  0  0  0  0  0  0  0  0  0  0  0
  -24.8781  -10.5870   23.4481 C   0  0  0  0  0  0  0  0  0  0  0  0
  -25.4791  -35.9280   23.1074 C   0  0  0  0  0  0  0  0  0  0  0  0
  -26.3258  -33.2850   22.8976 C   0  0  0  0  0  0  0  0  0  0  0  0
  -26.4430  -29.5405   19.4902 C   0  0  0  0  0  0  0  0  0  0  0  0
  -23.8064   -8.3359   22.1965 C   0  0  0  0  0  0  0  0  0  0  0  0
  -24.5222   -9.4711   24.2055 C   0  0  0  0  0  0  0  0  0  0  0  0
  -27.5135  -28.6499   19.5595 C   0  0  0  0  0  0  0  0  0  0  0  0
  -21.2400   -7.3899   24.1844 C   0  0  0  0  0  0  0  0  0  0  0  0
  -20.0111   -6.7880   23.9140 C   0  0  0  0  0  0  0  0  0  0  0  0
  -30.6485  -18.9061   20.1862 C   0  0  0  0  0  0  0  0  0  0  0  0
  -26.1093  -27.0610   20.7096 C   0  0  0  0  0  0  0  0  0  0  0  0
  -28.3081  -19.2659   20.6660 C   0  0  0  0  0  0  0  0  0  0  0  0
  -21.1418   -4.7223   23.3739 C   0  0  0  0  0  0  0  0  0  0  0  0
  -24.6981  -10.5774   22.0649 C   0  0  0  0  0  0  0  0  0  0  0  0
  -30.9348  -20.2040   20.6092 C   0  0  0  0  0  0  0  0  0  0  0  0
  -24.2510  -12.8293   20.9528 C   0  0  0  0  0  0  0  0  0  0  0  0
  -24.5845  -34.8921   23.4196 C   0  0  0  0  0  0  0  0  0  0  0  0
  -25.1986  -29.2019   20.0408 C   0  0  0  0  0  0  0  0  0  0  0  0
  -25.0143  -33.5548   23.3240 C   0  0  0  0  0  0  0  0  0  0  0  0
  -25.0240  -27.9481   20.6438 C   0  0  0  0  0  0  0  0  0  0  0  0
  -29.3352  -18.4370   20.2145 C   0  0  0  0  0  0  0  0  0  0  0  0
  -29.9078  -21.0329   21.0607 C   0  0  0  0  0  0  0  0  0  0  0  0
  -23.9863   -8.3455   23.5797 C   0  0  0  0  0  0  0  0  0  0  0  0
  -27.3475  -27.4111   20.1718 C   0  0  0  0  0  0  0  0  0  0  0  0
  -22.4198   -6.6581   24.0495 C   0  0  0  0  0  0  0  0  0  0  0  0
  -19.9620   -5.4542   23.5088 C   0  0  0  0  0  0  0  0  0  0  0  0
  -28.5944  -20.5638   21.0891 C   0  0  0  0  0  0  0  0  0  0  0  0
  -22.3707   -5.3243   23.6443 C   0  0  0  0  0  0  0  0  0  0  0  0
  -25.0664  -11.7302   21.2830 C   0  0  0  0  0  0  0  0  0  0  0  0
  -25.0622  -13.6458   20.2033 C   0  0  0  0  0  0  0  0  0  0  0  0
  -32.3169  -20.6648   20.5655 C   0  0  0  0  0  0  0  0  0  0  0  0
  -22.8826  -13.0889   21.2931 C   0  0  0  0  0  0  0  0  0  0  0  0
  -23.3694  -30.3921   22.3518 C   0  0  0  0  0  0  0  0  0  0  0  0
  -29.8560  -25.2876   21.6988 C   0  0  0  0  0  0  0  0  0  0  0  0
  -21.2617  -28.1632   21.2976 C   0  0  0  0  0  0  0  0  0  0  0  0
  -20.7420  -25.2032   19.6803 C   0  0  0  0  0  0  0  0  0  0  0  0
  -29.9456  -16.1668   19.3091 C   0  0  0  0  0  0  0  0  0  0  0  0
  -23.2054  -35.2487   23.9153 C   0  0  0  0  0  0  0  0  0  0  0  0
  -24.0465  -30.1630   19.9342 C   0  0  0  0  0  0  0  0  0  0  0  0
  -23.7026  -27.5283   21.2322 C   0  0  0  0  0  0  0  0  0  0  0  0
  -22.2220  -34.0820   23.8717 C   0  0  0  0  0  0  0  0  0  0  0  0
  -29.6291  -12.8016   18.1901 C   0  0  0  0  0  0  0  0  0  0  0  0
  -22.8603  -32.8238   24.4517 C   0  0  0  0  0  0  0  0  0  0  0  0
  -28.3467  -12.3133   18.8678 C   0  0  0  0  0  0  0  0  0  0  0  0
  -30.4274  -13.7384   19.0950 C   0  0  0  0  0  0  0  0  0  0  0  0
  -28.3870  -14.3849   20.3147 C   0  0  0  0  0  0  0  0  0  0  0  0
  -24.0865  -32.4002   23.6342 C   0  0  1  0  0  0  0  0  0  0  0  0
  -22.9663  -29.9196   20.9837 C   0  0  1  0  0  0  0  0  0  0  0  0
  -27.5166  -13.4898   19.4175 C   0  0  2  0  0  0  0  0  0  0  0  0
  -18.9146  -23.6201   19.0082 C   0  0  0  0  0  0  0  0  0  0  0  0
  -29.5482  -24.9372   24.1601 C   0  0  0  0  0  0  0  0  0  0  0  0
  -21.0783  -27.1581   24.1727 C   0  0  0  0  0  0  0  0  0  0  0  0
  -20.0324  -25.0582   23.2982 C   0  0  0  0  0  0  0  0  0  0  0  0
  -18.8937  -27.2516   22.9589 C   0  0  0  0  0  0  0  0  0  0  0  0
  -21.3522  -25.5368   16.8037 C   0  0  0  0  0  0  0  0  0  0  0  0
  -28.4225  -25.6525   21.3581 C   0  0  0  0  0  0  0  0  0  1  0  0
  -29.5399  -22.9382   22.6291 C   0  0  0  0  0  0  0  0  0  0  0  0
  -20.9777  -26.7184   21.6305 C   0  0  1  0  0  0  0  0  0  0  0  0
  -19.7632  -24.8102   18.5885 C   0  0  2  0  0  0  0  0  0  0  0  0
  -30.1043  -24.3387   22.8723 C   0  0  1  0  0  0  0  0  0  0  0  0
  -20.2711  -26.5550   23.0058 C   0  0  0  0  0  0  0  0  0  0  0  0
  -26.3009  -11.8358   20.7840 N   0  0  0  0  0  0  0  0  0  0  0  0
  -33.3017  -19.9272   20.1513 N   0  0  0  0  0  0  0  0  0  0  0  0
  -26.2672  -13.0108   20.1326 N   0  0  0  0  0  0  0  0  0  0  0  0
  -22.6082  -28.5053   21.1087 N   0  0  0  0  0  0  0  0  0  0  0  0
  -29.5777  -14.8307   19.5743 N   0  0  0  0  0  0  0  0  0  0  0  0
  -24.8552  -14.8377   19.6043 N   0  0  0  0  0  0  0  0  0  0  0  0
  -22.1967  -12.1452   22.0699 N   0  0  0  0  0  0  0  0  0  0  0  0
  -29.0443  -17.1184   19.7852 N   0  0  0  0  0  0  0  0  0  0  0  0
  -30.1735  -22.3242   21.4837 N   0  0  0  0  0  0  0  0  0  0  0  0
  -23.6765  -31.7380   22.4144 N   0  0  0  0  0  0  0  0  0  0  0  0
  -20.2235  -26.1804   20.5035 N   0  0  0  0  0  0  0  0  0  0  0  0
  -20.4955  -24.4490   17.3419 N   0  3  0  0  0  0  0  0  0  0  0  0
  -22.2809  -14.1191   20.9057 O   0  0  0  0  0  0  0  0  0  0  0  0
  -23.3982  -29.5950   23.2822 O   0  0  0  0  0  0  0  0  0  0  0  0
  -30.8044  -25.7422   21.0556 O   0  0  0  0  0  0  0  0  0  0  0  0
  -20.3228  -28.9574   21.2014 O   0  0  0  0  0  0  0  0  0  0  0  0
  -21.8537  -24.6917   19.7940 O   0  0  0  0  0  0  0  0  0  0  0  0
  -30.9700  -16.4453   18.6806 O   0  0  0  0  0  0  0  0  0  0  0  0
  -23.6390   -7.2568   24.3191 O   0  0  0  0  0  0  0  0  0  0  0  0
  -28.3909  -26.5402   20.2413 O   0  0  0  0  0  0  0  0  0  1  0  0
  -18.7817   -4.8759   23.2507 F   0  0  0  0  0  0  0  0  0  0  0  0
  -27.5991  -21.3513   21.5211 F   0  0  0  0  0  0  0  0  0  0  0  0
  -23.5006   -4.6157   23.5141 F   0  0  0  0  0  0  0  0  0  0  0  0
  -31.4550  -24.2028   23.0633 F   0  0  0  0  0  0  0  0  0  0  0  0
  1  2  1  0  0  0  0
  1  5  2  0  0  0  0
  2  6  2  0  0  0  0
  3  8  2  0  0  0  0
  3 17  1  0  0  0  0
  4  9  1  0  0  0  0
  4 17  2  0  0  0  0
  5 20  1  0  0  0  0
  6 22  1  0  0  0  0
  7 10  2  0  0  0  0
  7 21  1  0  0  0  0
  8 26  1  0  0  0  0
  9 26  2  0  0  0  0
 10 27  1  0  0  0  0
 11 12  2  0  0  0  0
 11 28  1  0  0  0  0
 12 29  1  0  0  0  0
 13 18  1  0  0  0  0
 13 24  2  0  0  0  0
 14 23  1  0  0  0  0
 14 27  2  0  0  0  0
 15 24  1  0  0  0  0
 15 30  2  0  0  0  0
 16 29  2  0  0  0  0
 16 31  1  0  0  0  0
 17 32  1  0  0  0  0
 18 25  2  0  0  0  0
 18 34  1  0  0  0  0
 19 32  1  0  0  0  0
 19 33  2  0  0  0  0
 19 35  1  0  0  0  0
 20 22  2  0  0  0  0
 20 41  1  0  0  0  0
 21 23  2  0  0  0  0
 21 42  1  0  0  0  0
 22 50  1  0  0  0  0
 23 43  1  0  0  0  0
 24 72  1  0  0  0  0
 25 30  1  0  0  0  0
 25 73  1  0  0  0  0
 26 83  1  0  0  0  0
 27 84  1  0  0  0  0
 28 31  2  0  0  0  0
 28 83  1  0  0  0  0
 29 85  1  0  0  0  0
 30 86  1  0  0  0  0
 31 87  1  0  0  0  0
 32 65  2  0  0  0  0
 33 67  1  0  0  0  0
 33 70  1  0  0  0  0
 34 66  2  0  0  0  0
 35 71  1  0  0  0  0
 35 77  2  0  0  0  0
 36 51  1  0  0  0  0
 36 74  1  0  0  0  0
 36 78  2  0  0  0  0
 37 59  1  0  0  0  0
 37 63  1  0  0  0  0
 37 79  2  0  0  0  0
 38 61  1  0  0  0  0
 38 68  1  0  0  0  0
 38 80  2  0  0  0  0
 39 62  1  0  0  0  0
 39 75  1  0  0  0  0
 39 81  2  0  0  0  0
 40 69  1  0  0  0  0
 40 72  1  0  0  0  0
 40 82  2  0  0  0  0
 41 44  1  0  0  0  0
 42 51  1  0  0  0  0
 43 68  1  0  0  0  0
 44 46  1  0  0  0  0
 45 47  1  0  0  0  0
 45 48  1  0  0  0  0
 46 50  1  0  0  0  0
 47 52  1  0  0  0  0
 48 69  1  0  0  0  0
 49 52  1  0  0  0  0
 49 69  1  0  0  0  0
 50 74  1  0  0  0  0
 51 68  1  0  0  0  0
 52 67  1  0  0  0  0
 53 62  1  0  0  0  0
 54 63  1  0  0  0  0
 55 64  1  0  0  0  0
 56 64  1  0  0  0  0
 57 64  1  0  0  0  0
 58 76  1  0  0  0  0
 59 84  1  0  0  0  0
 60 63  1  0  0  0  0
 60 73  1  0  0  0  0
 61 64  1  0  0  0  0
 61 75  1  0  0  0  0
 62 76  1  0  0  0  0
 63 88  1  0  0  0  0
 65 67  1  0  0  0  0
M  CHG  1  76   1
M  ISO  4  40 100  59 101  72 100  84 101
M  END
> <Batch ID>
0167

> <Smiles>
CNC(C)C(=O)NC(C(=O)N1Cc2cc([101O:1][101CH2:1]C(=O)C(C)(F)CNc3c(F)cc([100NH:0][100C:0](=O)N4CCCC(n5nc(-c6ccc(Oc7ccc(F)cc7F)cc6)c(C(N)=O)c5N)C4)cc3C=N)ccc2CC1C(=O)NC1CCCc2ccccc21)C(C)(C)C

> <Shape>
0.341

> <Color>
0.145

> <Negative vol penalty>
0.000

$$$$

  -OEChem-04052304113D

 86 94  0     1  0  0  0  0  0999 V2000
  -31.5994  -16.4005   20.6546 C   0  0  0  0  0  0  0  0  0  0  0  0
  -30.4520  -17.1717   20.4990 C   0  0  0  0  0  0  0  0  0  0  0  0
  -18.8954  -28.1401   21.7230 C   0  0  0  0  0  0  0  0  0  0  0  0
  -29.6997  -28.5002   21.2752 C   0  0  0  0  0  0  0  0  0  0  0  0
  -27.7785  -27.5220   20.1846 C   0  0  0  0  0  0  0  0  0  0  0  0
  -31.5197  -15.0107   20.5762 C   0  0  0  0  0  0  0  0  0  0  0  0
  -29.2244  -16.5536   20.2638 C   0  0  0  0  0  0  0  0  0  0  0  0
  -25.4932  -18.5133   23.0714 C   0  0  0  0  0  0  0  0  0  0  0  0
  -19.3561  -28.6340   22.9434 C   0  0  0  0  0  0  0  0  0  0  0  0
  -19.2386  -26.8500   21.3184 C   0  0  0  0  0  0  0  0  0  0  0  0
  -30.5105  -27.4947   20.7489 C   0  0  0  0  0  0  0  0  0  0  0  0
  -28.5894  -26.5165   19.6582 C   0  0  0  0  0  0  0  0  0  0  0  0
  -24.9530  -19.7288   22.6536 C   0  0  0  0  0  0  0  0  0  0  0  0
  -30.0062  -23.6407   20.7323 C   0  0  0  0  0  0  0  0  0  0  0  0
  -29.5384  -22.3285   20.8013 C   0  0  0  0  0  0  0  0  0  0  0  0
  -23.0922  -18.5550   21.6644 C   0  0  0  0  0  0  0  0  0  0  0  0
  -29.6209  -22.1725   18.3917 C   0  0  0  0  0  0  0  0  0  0  0  0
  -28.3337  -28.5138   20.9932 C   0  0  0  0  0  0  0  0  0  0  0  0
  -27.1946  -30.7960   20.9509 C   0  0  0  0  0  0  0  0  0  0  0  0
  -30.2889  -14.3748   20.3496 C   0  0  0  0  0  0  0  0  0  0  0  0
  -24.8413  -17.3067   22.7789 C   0  0  0  0  0  0  0  0  0  0  0  0
  -29.1284  -15.1541   20.1810 C   0  0  0  0  0  0  0  0  0  0  0  0
  -23.6248  -17.3257   22.0818 C   0  0  0  0  0  0  0  0  0  0  0  0
  -20.1600  -27.8380   23.7592 C   0  0  0  0  0  0  0  0  0  0  0  0
  -20.0426  -26.0540   22.1342 C   0  0  0  0  0  0  0  0  0  0  0  0
  -29.9554  -26.5028   19.9403 C   0  0  0  0  0  0  0  0  0  0  0  0
  -23.7539  -19.7496   21.9475 C   0  0  0  0  0  0  0  0  0  0  0  0
  -30.2812  -24.2189   19.4931 C   0  0  0  0  0  0  0  0  0  0  0  0
  -29.3458  -21.5944   19.6310 C   0  0  0  0  0  0  0  0  0  0  0  0
  -30.0886  -23.4848   18.3228 C   0  0  0  0  0  0  0  0  0  0  0  0
  -20.5033  -26.5479   23.3546 C   0  0  0  0  0  0  0  0  0  0  0  0
  -27.4955  -29.5519   21.5371 C   0  0  0  0  0  0  0  0  0  0  0  0
  -26.3658  -31.4111   21.8572 C   0  0  0  0  0  0  0  0  0  0  0  0
  -27.6255  -31.3463   19.6991 C   0  0  0  0  0  0  0  0  0  0  0  0
  -25.5786  -14.7075   21.1043 C   0  0  0  0  0  0  0  0  0  0  0  0
  -23.7291  -23.0208   20.8959 C   0  0  0  0  0  0  0  0  0  0  0  0
  -22.7841  -13.6025   22.3260 C   0  0  0  0  0  0  0  0  0  0  0  0
  -19.7168  -14.3113   23.6435 C   0  0  0  0  0  0  0  0  0  0  0  0
  -22.6956  -29.3191   26.1003 C   0  0  0  0  0  0  0  0  0  0  0  0
  -30.2601  -12.8720   20.2257 C   0  0  0  0  0  0  0  0  0  0  0  0
  -25.4234  -16.0058   23.2598 C   0  0  0  0  0  0  0  0  0  0  0  0
  -22.8753  -16.0596   21.7601 C   0  0  0  0  0  0  0  0  0  0  0  0
  -28.8594  -12.2775   20.3469 C   0  0  0  0  0  0  0  0  0  0  0  0
  -25.4094  -31.5811   26.5420 C   0  0  0  0  0  0  0  0  0  0  0  0
  -27.8711  -13.0601   19.4880 C   0  0  0  0  0  0  0  0  0  0  0  0
  -26.2246  -31.4298   25.2565 C   0  0  0  0  0  0  0  0  0  0  0  0
  -24.8115  -30.2496   26.9910 C   0  0  0  0  0  0  0  0  0  0  0  0
  -24.8330  -29.3980   24.6785 C   0  0  0  0  0  0  0  0  0  0  0  0
  -27.7743  -14.5194   19.9492 C   0  0  1  0  0  0  0  0  0  0  0  0
  -24.9369  -14.8015   22.4597 C   0  0  1  0  0  0  0  0  0  0  0  0
  -25.4098  -30.7247   24.1555 C   0  0  2  0  0  0  0  0  0  0  0  0
  -24.5723  -24.2283   20.5545 C   0  0  0  0  0  0  0  0  0  0  0  0
  -21.7115  -22.9036   19.4271 C   0  0  0  0  0  0  0  0  0  0  0  0
  -17.6411  -13.1998   24.5116 C   0  0  0  0  0  0  0  0  0  0  0  0
  -21.9259  -12.9766   19.4656 C   0  0  0  0  0  0  0  0  0  0  0  0
  -19.5698  -12.7806   20.2895 C   0  0  0  0  0  0  0  0  0  0  0  0
  -21.3215  -11.2233   21.1434 C   0  0  0  0  0  0  0  0  0  0  0  0
  -20.0556  -15.5133   26.3266 C   0  0  0  0  0  0  0  0  0  0  0  0
  -20.6502  -28.3702   25.0633 C   0  0  0  0  0  0  0  0  0  0  0  0
  -20.4094  -24.6671   21.6949 C   0  0  0  0  0  0  0  0  0  0  0  0
  -22.2206  -23.1793   20.8317 C   0  0  2  0  0  0  0  0  0  0  0  0
  -21.3389  -13.6384   21.8912 C   0  0  1  0  0  0  0  0  0  0  0  0
  -19.0005  -13.7789   24.8715 C   0  0  2  0  0  0  0  0  0  0  0  0
  -21.0539  -12.6786   20.7017 C   0  0  0  0  0  0  0  0  0  0  0  0
  -26.9060  -29.3851   22.7240 N   0  0  0  0  0  0  0  0  0  0  0  0
  -24.2272  -21.8863   21.2875 N   0  0  0  0  0  0  0  0  0  1  0  0
  -26.2265  -30.5325   22.8910 N   0  0  0  0  0  0  0  0  0  0  0  0
  -23.4882  -14.8124   22.2464 N   0  0  0  0  0  0  0  0  0  0  0  0
  -24.0500  -29.6337   25.9016 N   0  0  0  0  0  0  0  0  0  0  0  0
  -25.7501  -32.6124   21.8627 N   0  0  0  0  0  0  0  0  0  0  0  0
  -28.4758  -30.5805   18.8899 N   0  0  0  0  0  0  0  0  0  0  0  0
  -26.9572  -14.6200   21.1394 N   0  0  0  0  0  0  0  0  0  0  0  0
  -20.5466  -13.3624   23.0848 N   0  0  0  0  0  0  0  0  0  0  0  0
  -22.0462  -28.7438   25.0148 N   0  0  0  0  0  0  0  0  0  0  0  0
  -18.7982  -14.8696   25.8666 N   0  3  0  0  0  0  0  0  0  0  0  0
  -21.8144  -24.5581   21.2240 N   0  3  0  0  0  0  0  0  0  0  0  0
  -27.2804  -32.4903   19.3171 O   0  0  0  0  0  0  0  0  0  0  0  0
  -24.8750  -14.7123   20.1010 O   0  0  0  0  0  0  0  0  0  0  0  0
  -23.2685  -12.5418   22.7283 O   0  0  0  0  0  0  0  0  0  0  0  0
  -19.5534  -15.4534   23.2199 O   0  0  0  0  0  0  0  0  0  0  0  0
  -22.1070  -29.5398   27.1642 O   0  0  0  0  0  0  0  0  0  0  0  0
  -30.7463  -25.5216   19.4263 O   0  0  0  0  0  0  0  0  0  0  0  0
  -23.2248  -20.9346   21.5380 O   0  0  0  0  0  0  0  0  0  1  0  0
  -28.8981  -20.3337   19.6974 F   0  0  0  0  0  0  0  0  0  0  0  0
  -30.3523  -24.0345   17.1294 F   0  0  0  0  0  0  0  0  0  0  0  0
  -21.2777  -25.7830   24.1386 F   0  0  0  0  0  0  0  0  0  0  0  0
  1  2  1  0  0  0  0
  1  6  2  0  0  0  0
  2  7  2  0  0  0  0
  3  9  1  0  0  0  0
  3 10  2  0  0  0  0
  4 11  2  0  0  0  0
  4 18  1  0  0  0  0
  5 12  1  0  0  0  0
  5 18  2  0  0  0  0
  6 20  1  0  0  0  0
  7 22  1  0  0  0  0
  8 13  2  0  0  0  0
  8 21  1  0  0  0  0
  9 24  2  0  0  0  0
 10 25  1  0  0  0  0
 11 26  1  0  0  0  0
 12 26  2  0  0  0  0
 13 27  1  0  0  0  0
 14 15  2  0  0  0  0
 14 28  1  0  0  0  0
 15 29  1  0  0  0  0
 16 23  1  0  0  0  0
 16 27  2  0  0  0  0
 17 29  2  0  0  0  0
 17 30  1  0  0  0  0
 18 32  1  0  0  0  0
 19 32  1  0  0  0  0
 19 33  2  0  0  0  0
 19 34  1  0  0  0  0
 20 22  2  0  0  0  0
 20 40  1  0  0  0  0
 21 23  2  0  0  0  0
 21 41  1  0  0  0  0
 22 49  1  0  0  0  0
 23 42  1  0  0  0  0
 24 31  1  0  0  0  0
 24 59  1  0  0  0  0
 25 31  2  0  0  0  0
 25 60  1  0  0  0  0
 26 82  1  0  0  0  0
 27 83  1  0  0  0  0
 28 30  2  0  0  0  0
 28 82  1  0  0  0  0
 29 84  1  0  0  0  0
 30 85  1  0  0  0  0
 31 86  1  0  0  0  0
 32 65  2  0  0  0  0
 33 67  1  0  0  0  0
 33 70  1  0  0  0  0
 34 71  1  0  0  0  0
 34 77  2  0  0  0  0
 35 50  1  0  0  0  0
 35 72  1  0  0  0  0
 35 78  2  0  0  0  0
 36 52  1  0  0  0  0
 36 61  1  0  0  0  0
 36 66  2  0  0  0  0
 37 62  1  0  0  0  0
 37 68  1  0  0  0  0
 37 79  2  0  0  0  0
 38 63  1  0  0  0  0
 38 73  1  0  0  0  0
 38 80  2  0  0  0  0
 39 69  1  0  0  0  0
 39 74  1  0  0  0  0
 39 81  2  0  0  0  0
 40 43  1  0  0  0  0
 41 50  1  0  0  0  0
 42 68  1  0  0  0  0
 43 45  1  0  0  0  0
 44 46  1  0  0  0  0
 44 47  1  0  0  0  0
 45 49  1  0  0  0  0
 46 51  1  0  0  0  0
 47 69  1  0  0  0  0
 48 51  1  0  0  0  0
 48 69  1  0  0  0  0
 49 72  1  0  0  0  0
 50 68  1  0  0  0  0
 51 67  1  0  0  0  0
 53 61  1  0  0  0  0
 54 63  1  0  0  0  0
 55 64  1  0  0  0  0
 56 64  1  0  0  0  0
 57 64  1  0  0  0  0
 58 75  1  0  0  0  0
 59 74  1  0  0  0  0
 60 76  1  0  0  0  0
 61 76  1  0  0  0  0
 62 64  1  0  0  0  0
 62 73  1  0  0  0  0
 63 75  1  0  0  0  0
 65 67  1  0  0  0  0
 66 83  1  0  0  0  0
M  CHG  2  75   1  76   1
M  ISO  4  39 100  66 101  74 100  83 101
M  END
> <Batch ID>
0167

> <Smiles>
CNC(C)C(=O)NC(C(=O)N1Cc2cc([101O:1][101N:1]=C(C)C(C)NCc3cccc(C[100NH:0][100C:0](=O)N4CCCC(n5nc(-c6ccc(Oc7ccc(F)cc7F)cc6)c(C(N)=O)c5N)C4)c3F)ccc2CC1C(=O)NC1CCCc2ccccc21)C(C)(C)C

> <Shape>
0.280

> <Color>
0.051

> <Negative vol penalty>
0.000

$$$$

  -OEChem-04052304113D

 84 92  0     1  0  0  0  0  0999 V2000
  -30.1618  -33.3923   25.8886 C   0  0  0  0  0  0  0  0  0  0  0  0
  -29.6160  -32.3693   25.1199 C   0  0  0  0  0  0  0  0  0  0  0  0
  -24.0684   -9.7164   21.5363 C   0  0  0  0  0  0  0  0  0  0  0  0
  -24.6066  -10.8432   23.6045 C   0  0  0  0  0  0  0  0  0  0  0  0
  -29.3237  -34.2930   26.5445 C   0  0  0  0  0  0  0  0  0  0  0  0
  -28.2316  -32.2457   25.0075 C   0  0  0  0  0  0  0  0  0  0  0  0
  -26.7380  -31.3856   20.2457 C   0  0  0  0  0  0  0  0  0  0  0  0
  -23.6237   -8.6075   22.2561 C   0  0  0  0  0  0  0  0  0  0  0  0
  -24.1619   -9.7343   24.3244 C   0  0  0  0  0  0  0  0  0  0  0  0
  -26.8863  -30.0885   19.7564 C   0  0  0  0  0  0  0  0  0  0  0  0
  -20.8638   -7.7058   23.9889 C   0  0  0  0  0  0  0  0  0  0  0  0
  -19.6569   -7.1232   23.6020 C   0  0  0  0  0  0  0  0  0  0  0  0
  -24.5475  -29.6702   20.1737 C   0  0  0  0  0  0  0  0  0  0  0  0
  -20.8008   -5.0389   23.1729 C   0  0  0  0  0  0  0  0  0  0  0  0
  -28.2946  -19.4995   20.6729 C   0  0  0  0  0  0  0  0  0  0  0  0
  -24.5599  -10.8342   22.2104 C   0  0  0  0  0  0  0  0  0  0  0  0
  -24.2577  -13.0912   21.0605 C   0  0  0  0  0  0  0  0  0  0  0  0
  -27.9285  -34.1863   26.4323 C   0  0  0  0  0  0  0  0  0  0  0  0
  -25.4938  -31.8319   20.7137 C   0  0  0  0  0  0  0  0  0  0  0  0
  -27.3740  -33.1450   25.6636 C   0  0  0  0  0  0  0  0  0  0  0  0
  -24.3855  -30.9742   20.6661 C   0  0  0  0  0  0  0  0  0  0  0  0
  -23.6704   -8.6164   23.6502 C   0  0  0  0  0  0  0  0  0  0  0  0
  -25.7916  -29.2297   19.7230 C   0  0  0  0  0  0  0  0  0  0  0  0
  -22.0391   -6.9550   23.9678 C   0  0  0  0  0  0  0  0  0  0  0  0
  -19.6254   -5.7898   23.1941 C   0  0  0  0  0  0  0  0  0  0  0  0
  -22.0076   -5.6215   23.5598 C   0  0  0  0  0  0  0  0  0  0  0  0
  -25.0199  -11.9798   21.4674 C   0  0  0  0  0  0  0  0  0  0  0  0
  -29.4463  -21.3666   20.0269 C   0  0  0  0  0  0  0  0  0  0  0  0
  -29.3286  -18.7069   20.2256 C   0  0  0  0  0  0  0  0  0  0  0  0
  -30.4807  -20.5740   19.5803 C   0  0  0  0  0  0  0  0  0  0  0  0
  -25.1500  -13.8934   20.3921 C   0  0  0  0  0  0  0  0  0  0  0  0
  -22.8673  -13.3732   21.2681 C   0  0  0  0  0  0  0  0  0  0  0  0
  -29.4703  -22.8562   19.9355 C   0  0  0  0  0  0  0  0  0  0  0  0
  -24.3844  -32.8529   23.5120 C   0  0  0  0  0  0  0  0  0  0  0  0
  -21.7061  -33.4630   21.7866 C   0  0  0  0  0  0  0  0  0  0  0  0
  -19.8118  -32.7677   19.0343 C   0  0  0  0  0  0  0  0  0  0  0  0
  -30.1366  -16.3345   19.9700 C   0  0  0  0  0  0  0  0  0  0  0  0
  -27.0624  -35.1549   27.1980 C   0  0  0  0  0  0  0  0  0  0  0  0
  -25.3443  -33.2426   21.2136 C   0  0  0  0  0  0  0  0  0  0  0  0
  -23.0236  -31.4115   21.1378 C   0  0  0  0  0  0  0  0  0  0  0  0
  -25.6115  -35.1808   26.7239 C   0  0  0  0  0  0  0  0  0  0  0  0
  -29.8746  -12.9730   18.8260 C   0  0  0  0  0  0  0  0  0  0  0  0
  -25.0790  -33.7611   26.5574 C   0  0  0  0  0  0  0  0  0  0  0  0
  -28.5255  -12.5064   19.3777 C   0  0  0  0  0  0  0  0  0  0  0  0
  -30.5975  -13.8984   19.8031 C   0  0  0  0  0  0  0  0  0  0  0  0
  -28.4602  -14.5795   20.8217 C   0  0  0  0  0  0  0  0  0  0  0  0
  -25.8776  -32.9931   25.4973 C   0  0  1  0  0  0  0  0  0  0  0  0
  -24.1477  -33.4238   22.1424 C   0  0  1  0  0  0  0  0  0  0  0  0
  -27.6656  -13.6970   19.8452 C   0  0  2  0  0  0  0  0  0  0  0  0
  -17.6568  -33.4006   17.9151 C   0  0  0  0  0  0  0  0  0  0  0  0
  -20.1597  -31.8193   23.8401 C   0  0  0  0  0  0  0  0  0  0  0  0
  -18.2673  -31.6874   22.2062 C   0  0  0  0  0  0  0  0  0  0  0  0
  -19.0012  -33.9034   23.0857 C   0  0  0  0  0  0  0  0  0  0  0  0
  -21.2163  -33.7217   16.6103 C   0  0  0  0  0  0  0  0  0  0  0  0
  -28.1523  -23.5999   19.7799 C   0  0  0  0  0  0  0  0  0  0  0  0
  -28.3482  -25.1157   19.7148 C   0  0  0  0  0  0  0  0  0  0  0  0
  -27.0185  -25.8404   19.5202 C   0  0  0  0  0  0  0  0  0  0  0  0
  -27.2100  -27.3464   19.4113 C   0  0  0  0  0  0  0  0  0  1  0  0
  -20.4657  -32.6818   21.4258 C   0  0  1  0  0  0  0  0  0  0  0  0
  -19.1496  -33.6739   18.0121 C   0  0  2  0  0  0  0  0  0  0  0  0
  -19.4994  -32.5138   22.6323 C   0  0  0  0  0  0  0  0  0  0  0  0
  -28.3349  -20.8436   20.5815 N   0  0  0  0  0  0  0  0  0  0  0  0
  -26.2981  -12.0648   21.0890 N   0  0  0  0  0  0  0  0  0  0  0  0
  -30.4403  -19.2299   19.6713 N   0  0  0  0  0  0  0  0  0  0  0  0
  -26.3458  -13.2391   20.4373 N   0  0  0  0  0  0  0  0  0  0  0  0
  -22.9297  -32.7981   21.6236 N   0  0  0  0  0  0  0  0  0  0  0  0
  -29.7234  -15.0049   20.1987 N   0  0  0  0  0  0  0  0  0  0  0  0
  -31.6209  -21.1822   19.0082 N   0  0  0  0  0  0  0  0  0  0  0  0
  -25.0205  -15.0876   19.7760 N   0  0  0  0  0  0  0  0  0  0  0  0
  -22.0951  -12.4419   21.9756 N   0  0  0  0  0  0  0  0  0  0  0  0
  -29.2092  -17.3011   20.3575 N   0  0  0  0  0  0  0  0  0  0  0  0
  -25.4720  -33.3970   24.1681 N   0  0  0  0  0  0  0  0  0  0  0  0
  -19.8753  -33.3608   20.2775 N   0  0  0  0  0  0  0  0  0  0  0  0
  -19.7542  -33.4649   16.6661 N   0  3  0  0  0  0  0  0  0  0  0  0
  -22.3222  -14.4123   20.8248 O   0  0  0  0  0  0  0  0  0  0  0  0
  -30.5487  -23.4432   19.9874 O   0  0  0  0  0  0  0  0  0  0  0  0
  -23.6348  -31.9841   23.9422 O   0  0  0  0  0  0  0  0  0  0  0  0
  -21.5940  -34.6230   22.1910 O   0  0  0  0  0  0  0  0  0  0  0  0
  -20.2275  -31.6445   18.7585 O   0  0  0  0  0  0  0  0  0  0  0  0
  -31.2208  -16.5956   19.4425 O   0  0  0  0  0  0  0  0  0  0  0  0
  -23.2364   -7.5346   24.3529 O   0  0  0  0  0  0  0  0  0  0  0  0
  -25.9337  -27.9630   19.2465 O   0  0  0  0  0  0  0  0  0  1  0  0
  -18.4662   -5.2300   22.8240 F   0  0  0  0  0  0  0  0  0  0  0  0
  -23.1334   -4.8948   23.5385 F   0  0  0  0  0  0  0  0  0  0  0  0
  1  2  1  0  0  0  0
  1  5  2  0  0  0  0
  2  6  2  0  0  0  0
  3  8  2  0  0  0  0
  3 16  1  0  0  0  0
  4  9  1  0  0  0  0
  4 16  2  0  0  0  0
  5 18  1  0  0  0  0
  6 20  1  0  0  0  0
  7 10  2  0  0  0  0
  7 19  1  0  0  0  0
  8 22  1  0  0  0  0
  9 22  2  0  0  0  0
 10 23  1  0  0  0  0
 11 12  2  0  0  0  0
 11 24  1  0  0  0  0
 12 25  1  0  0  0  0
 13 21  1  0  0  0  0
 13 23  2  0  0  0  0
 14 25  2  0  0  0  0
 14 26  1  0  0  0  0
 15 29  1  0  0  0  0
 15 62  2  0  0  0  0
 16 27  1  0  0  0  0
 17 27  1  0  0  0  0
 17 31  2  0  0  0  0
 17 32  1  0  0  0  0
 18 20  2  0  0  0  0
 18 38  1  0  0  0  0
 19 21  2  0  0  0  0
 19 39  1  0  0  0  0
 20 47  1  0  0  0  0
 21 40  1  0  0  0  0
 22 81  1  0  0  0  0
 23 82  1  0  0  0  0
 24 26  2  0  0  0  0
 24 81  1  0  0  0  0
 25 83  1  0  0  0  0
 26 84  1  0  0  0  0
 27 63  2  0  0  0  0
 28 30  2  0  0  0  0
 28 33  1  0  0  0  0
 28 62  1  0  0  0  0
 29 64  2  0  0  0  0
 29 71  1  0  0  0  0
 30 64  1  0  0  0  0
 30 68  1  0  0  0  0
 31 65  1  0  0  0  0
 31 69  1  0  0  0  0
 32 70  1  0  0  0  0
 32 75  2  0  0  0  0
 33 55  1  0  0  0  0
 33 76  2  0  0  0  0
 34 48  1  0  0  0  0
 34 72  1  0  0  0  0
 34 77  2  0  0  0  0
 35 59  1  0  0  0  0
 35 66  1  0  0  0  0
 35 78  2  0  0  0  0
 36 60  1  0  0  0  0
 36 73  1  0  0  0  0
 36 79  2  0  0  0  0
 37 67  1  0  0  0  0
 37 71  1  0  0  0  0
 37 80  2  0  0  0  0
 38 41  1  0  0  0  0
 39 48  1  0  0  0  0
 40 66  1  0  0  0  0
 41 43  1  0  0  0  0
 42 44  1  0  0  0  0
 42 45  1  0  0  0  0
 43 47  1  0  0  0  0
 44 49  1  0  0  0  0
 45 67  1  0  0  0  0
 46 49  1  0  0  0  0
 46 67  1  0  0  0  0
 47 72  1  0  0  0  0
 48 66  1  0  0  0  0
 49 65  1  0  0  0  0
 50 60  1  0  0  0  0
 51 61  1  0  0  0  0
 52 61  1  0  0  0  0
 53 61  1  0  0  0  0
 54 74  1  0  0  0  0
 55 56  1  0  0  0  0
 56 57  1  0  0  0  0
 57 58  1  0  0  0  0
 58 82  1  0  0  0  0
 59 61  1  0  0  0  0
 59 73  1  0  0  0  0
 60 74  1  0  0  0  0
 63 65  1  0  0  0  0
M  CHG  1  74   1
M  ISO  4  37 100  58 101  71 100  82 101
M  END
> <Batch ID>
0167

> <Smiles>
CNC(C)C(=O)NC(C(=O)N1Cc2cc([101O:1][101CH2:1]CCCC(=O)c3ncc([100NH:0][100C:0](=O)N4CCCC(n5nc(-c6ccc(Oc7ccc(F)cc7F)cc6)c(C(N)=O)c5N)C4)nc3N)ccc2CC1C(=O)NC1CCCc2ccccc21)C(C)(C)C

> <Shape>
0.296

> <Color>
0.143

> <Negative vol penalty>
0.000

$$$$

  -OEChem-04052304113D

 85 93  0     1  0  0  0  0  0999 V2000
  -24.7558   -7.0474   27.6781 C   0  0  0  0  0  0  0  0  0  0  0  0
  -25.5637   -8.1307   28.0086 C   0  0  0  0  0  0  0  0  0  0  0  0
  -23.1993   -9.8518   19.9521 C   0  0  0  0  0  0  0  0  0  0  0  0
  -23.9121   -9.9293   22.2592 C   0  0  0  0  0  0  0  0  0  0  0  0
  -24.0101   -6.4079   28.6675 C   0  0  0  0  0  0  0  0  0  0  0  0
  -25.6254   -8.5759   29.3286 C   0  0  0  0  0  0  0  0  0  0  0  0
  -30.3649   -9.5245   30.8393 C   0  0  0  0  0  0  0  0  0  0  0  0
  -22.5070   -8.6677   20.2057 C   0  0  0  0  0  0  0  0  0  0  0  0
  -23.2197   -8.7453   22.5129 C   0  0  0  0  0  0  0  0  0  0  0  0
  -30.9405  -10.7217   30.4161 C   0  0  0  0  0  0  0  0  0  0  0  0
  -20.0224   -7.8009   23.0657 C   0  0  0  0  0  0  0  0  0  0  0  0
  -19.2450   -7.7415   24.2223 C   0  0  0  0  0  0  0  0  0  0  0  0
  -30.4525  -11.7080   32.5628 C   0  0  0  0  0  0  0  0  0  0  0  0
  -30.5651  -15.8561   24.2558 C   0  0  0  0  0  0  0  0  0  0  0  0
  -20.5634   -5.8776   25.0127 C   0  0  0  0  0  0  0  0  0  0  0  0
  -32.4445  -15.8701   22.7984 C   0  0  0  0  0  0  0  0  0  0  0  0
  -23.9019  -10.4826   20.9788 C   0  0  0  0  0  0  0  0  0  0  0  0
  -24.1240  -13.0193   20.8259 C   0  0  0  0  0  0  0  0  0  0  0  0
  -24.0701   -6.8395   30.0020 C   0  0  0  0  0  0  0  0  0  0  0  0
  -29.8181   -9.4132   32.1258 C   0  0  0  0  0  0  0  0  0  0  0  0
  -24.8787   -7.9425   30.3365 C   0  0  0  0  0  0  0  0  0  0  0  0
  -29.8729  -10.5075   33.0008 C   0  0  0  0  0  0  0  0  0  0  0  0
  -31.2666  -16.6904   25.1190 C   0  0  0  0  0  0  0  0  0  0  0  0
  -31.1582  -15.4336   23.0713 C   0  0  0  0  0  0  0  0  0  0  0  0
  -22.5172   -8.1145   21.4861 C   0  0  0  0  0  0  0  0  0  0  0  0
  -30.9818  -11.8146   31.2769 C   0  0  0  0  0  0  0  0  0  0  0  0
  -21.0702   -6.8985   22.8825 C   0  0  0  0  0  0  0  0  0  0  0  0
  -19.5155   -6.7799   25.1959 C   0  0  0  0  0  0  0  0  0  0  0  0
  -21.3407   -5.9369   23.8561 C   0  0  0  0  0  0  0  0  0  0  0  0
  -24.6177  -11.7054   20.7173 C   0  0  0  0  0  0  0  0  0  0  0  0
  -32.5482  -17.0705   24.7546 C   0  0  0  0  0  0  0  0  0  0  0  0
  -25.1858  -13.8154   20.4719 C   0  0  0  0  0  0  0  0  0  0  0  0
  -31.0032  -13.6088   29.7766 C   0  0  0  0  0  0  0  0  0  1  0  0
  -22.8220  -13.4790   21.2121 C   0  0  0  0  0  0  0  0  0  0  0  0
  -31.4155  -14.7616   29.2264 C   0  0  0  0  0  0  0  0  0  0  0  0
  -30.6752  -15.2717   28.0281 C   0  0  0  0  0  0  0  0  0  0  0  0
  -26.9171   -8.8312   33.2874 C   0  0  0  0  0  0  0  0  0  0  0  0
  -28.4870   -8.7923   36.1258 C   0  0  0  0  0  0  0  0  0  0  0  0
  -31.1956   -9.7793   37.9523 C   0  0  0  0  0  0  0  0  0  0  0  0
  -30.9350  -14.0838   20.9560 C   0  0  0  0  0  0  0  0  0  0  0  0
  -23.2095   -6.1465   31.0284 C   0  0  0  0  0  0  0  0  0  0  0  0
  -29.2247   -8.1065   32.5763 C   0  0  0  0  0  0  0  0  0  0  0  0
  -29.3180  -10.4333   34.3990 C   0  0  0  0  0  0  0  0  0  0  0  0
  -23.6197   -6.4442   32.4684 C   0  0  0  0  0  0  0  0  0  0  0  0
  -29.3619  -13.1193   17.9109 C   0  0  0  0  0  0  0  0  0  0  0  0
  -23.8525   -7.9397   32.6587 C   0  0  0  0  0  0  0  0  0  0  0  0
  -27.9295  -12.7845   18.3331 C   0  0  0  0  0  0  0  0  0  0  0  0
  -30.3787  -12.6974   18.9702 C   0  0  0  0  0  0  0  0  0  0  0  0
  -28.6788  -12.8670   20.7453 C   0  0  0  0  0  0  0  0  0  0  0  0
  -24.9913   -8.4393   31.7615 C   0  0  1  0  0  0  0  0  0  0  0  0
  -28.2370   -8.2644   33.7282 C   0  0  1  0  0  0  0  0  0  0  0  0
  -27.6137  -13.3320   19.7388 C   0  0  2  0  0  0  0  0  0  0  0  0
  -32.1815   -9.6240   40.2548 C   0  0  0  0  0  0  0  0  0  0  0  0
  -26.4777  -10.8606   37.1231 C   0  0  0  0  0  0  0  0  0  0  0  0
  -28.0358  -11.3579   39.0187 C   0  0  0  0  0  0  0  0  0  0  0  0
  -27.0504   -9.0785   38.7815 C   0  0  0  0  0  0  0  0  0  0  0  0
  -33.6117   -8.3947   36.9503 C   0  0  0  0  0  0  0  0  0  0  0  0
  -30.6498  -17.1607   26.4046 C   0  0  0  0  0  0  0  0  0  0  0  0
  -28.8437   -9.8280   37.1645 C   0  0  1  0  0  0  0  0  0  0  0  0
  -32.1302   -9.0069   38.8658 C   0  0  2  0  0  0  0  0  0  0  0  0
  -27.6107  -10.2836   37.9950 C   0  0  0  0  0  0  0  0  0  0  0  0
  -33.1574  -16.6806   23.6124 N   0  0  0  0  0  0  0  0  0  0  0  0
  -25.8938  -11.6648   20.3250 N   0  0  0  0  0  0  0  0  0  0  0  0
  -26.2109  -12.9631   20.1838 N   0  0  0  0  0  0  0  0  0  0  0  0
  -28.7425   -9.1360   34.7908 N   0  0  0  0  0  0  0  0  0  0  0  0
  -30.0174  -13.2564   20.2747 N   0  0  0  0  0  0  0  0  0  0  0  0
  -25.3332  -15.1543   20.3821 N   0  0  0  0  0  0  0  0  0  0  0  0
  -21.8485  -12.5269   21.5441 N   0  0  0  0  0  0  0  0  0  0  0  0
  -30.4687  -14.5834   22.1715 N   0  0  0  0  0  0  0  0  0  0  0  0
  -31.1904  -16.4645   27.5505 N   0  0  0  0  0  0  0  0  0  0  0  0
  -26.2744   -8.0769   32.3244 N   0  0  0  0  0  0  0  0  0  0  0  0
  -29.9214   -9.2524   37.9617 N   0  0  0  0  0  0  0  0  0  0  0  0
  -33.5109   -8.9962   38.3049 N   0  3  0  0  0  0  0  0  0  0  0  0
  -22.5256  -14.6974   21.2456 O   0  0  0  0  0  0  0  0  0  0  0  0
  -29.7173  -14.6731   27.5469 O   0  0  0  0  0  0  0  0  0  0  0  0
  -26.5112   -9.8748   33.7853 O   0  0  0  0  0  0  0  0  0  0  0  0
  -28.0062   -7.7150   36.4862 O   0  0  0  0  0  0  0  0  0  0  0  0
  -31.5585  -10.7549   37.2989 O   0  0  0  0  0  0  0  0  0  0  0  0
  -32.0419  -14.3530   20.4822 O   0  0  0  0  0  0  0  0  0  0  0  0
  -32.4751  -15.5086   29.6920 O   0  0  0  0  0  0  0  0  0  0  0  0
  -21.8416   -6.9592   21.7341 O   0  0  0  0  0  0  0  0  0  0  0  0
  -31.5424  -12.9846   30.8662 O   0  0  0  0  0  0  0  0  0  1  0  0
  -18.7699   -6.7240   26.3072 F   0  0  0  0  0  0  0  0  0  0  0  0
  -22.3468   -5.0681   23.6863 F   0  0  0  0  0  0  0  0  0  0  0  0
  -33.2448  -17.8754   25.5730 F   0  0  0  0  0  0  0  0  0  0  0  0
  1  2  1  0  0  0  0
  1  5  2  0  0  0  0
  2  6  2  0  0  0  0
  3  8  2  0  0  0  0
  3 17  1  0  0  0  0
  4  9  1  0  0  0  0
  4 17  2  0  0  0  0
  5 19  1  0  0  0  0
  6 21  1  0  0  0  0
  7 10  2  0  0  0  0
  7 20  1  0  0  0  0
  8 25  1  0  0  0  0
  9 25  2  0  0  0  0
 10 26  1  0  0  0  0
 11 12  2  0  0  0  0
 11 27  1  0  0  0  0
 12 28  1  0  0  0  0
 13 22  1  0  0  0  0
 13 26  2  0  0  0  0
 14 23  1  0  0  0  0
 14 24  2  0  0  0  0
 15 28  2  0  0  0  0
 15 29  1  0  0  0  0
 16 24  1  0  0  0  0
 16 62  2  0  0  0  0
 17 30  1  0  0  0  0
 18 30  1  0  0  0  0
 18 32  2  0  0  0  0
 18 34  1  0  0  0  0
 19 21  2  0  0  0  0
 19 41  1  0  0  0  0
 20 22  2  0  0  0  0
 20 42  1  0  0  0  0
 21 50  1  0  0  0  0
 22 43  1  0  0  0  0
 23 31  2  0  0  0  0
 23 58  1  0  0  0  0
 24 69  1  0  0  0  0
 25 81  1  0  0  0  0
 26 82  1  0  0  0  0
 27 29  2  0  0  0  0
 27 81  1  0  0  0  0
 28 83  1  0  0  0  0
 29 84  1  0  0  0  0
 30 63  2  0  0  0  0
 31 62  1  0  0  0  0
 31 85  1  0  0  0  0
 32 64  1  0  0  0  0
 32 67  1  0  0  0  0
 33 35  2  0  0  0  0
 33 82  1  0  0  0  0
 34 68  1  0  0  0  0
 34 74  2  0  0  0  0
 35 36  1  0  0  0  0
 35 80  1  0  0  0  0
 36 70  1  0  0  0  0
 36 75  2  0  0  0  0
 37 51  1  0  0  0  0
 37 71  1  0  0  0  0
 37 76  2  0  0  0  0
 38 59  1  0  0  0  0
 38 65  1  0  0  0  0
 38 77  2  0  0  0  0
 39 60  1  0  0  0  0
 39 72  1  0  0  0  0
 39 78  2  0  0  0  0
 40 66  1  0  0  0  0
 40 69  1  0  0  0  0
 40 79  2  0  0  0  0
 41 44  1  0  0  0  0
 42 51  1  0  0  0  0
 43 65  1  0  0  0  0
 44 46  1  0  0  0  0
 45 47  1  0  0  0  0
 45 48  1  0  0  0  0
 46 50  1  0  0  0  0
 47 52  1  0  0  0  0
 48 66  1  0  0  0  0
 49 52  1  0  0  0  0
 49 66  1  0  0  0  0
 50 71  1  0  0  0  0
 51 65  1  0  0  0  0
 52 64  1  0  0  0  0
 53 60  1  0  0  0  0
 54 61  1  0  0  0  0
 55 61  1  0  0  0  0
 56 61  1  0  0  0  0
 57 73  1  0  0  0  0
 58 70  1  0  0  0  0
 59 61  1  0  0  0  0
 59 72  1  0  0  0  0
 60 73  1  0  0  0  0
 63 64  1  0  0  0  0
M  CHG  1  73   1
M  ISO  4  33 101  40 100  69 100  82 101
M  END
> <Batch ID>
0167

> <Smiles>
CNC(C)C(=O)NC(C(=O)N1Cc2cc([101O:1][101CH2:1]C(=O)C(=O)NCc3cc([100NH:0][100C:0](=O)N4CCCC(n5nc(-c6ccc(Oc7ccc(F)cc7F)cc6)c(C(N)=O)c5N)C4)cnc3F)ccc2CC1C(=O)NC1CCCc2ccccc21)C(C)(C)C

> <Shape>
0.155

> <Color>
0.178

> <Negative vol penalty>
0.000

$$$$

  -OEChem-04052304113D

 87 95  0     1  0  0  0  0  0999 V2000
  -17.4036  -30.4921   23.8385 C   0  0  0  0  0  0  0  0  0  0  0  0
  -18.7547  -30.3189   23.5559 C   0  0  0  0  0  0  0  0  0  0  0  0
  -25.5327  -13.5267   19.3263 C   0  0  0  0  0  0  0  0  0  0  0  0
  -25.4982  -13.1659   21.7149 C   0  0  0  0  0  0  0  0  0  0  0  0
  -16.5253  -29.4153   23.7249 C   0  0  0  0  0  0  0  0  0  0  0  0
  -19.2285  -29.0685   23.1606 C   0  0  0  0  0  0  0  0  0  0  0  0
  -22.4055  -29.3493   19.2271 C   0  0  0  0  0  0  0  0  0  0  0  0
  -29.2610  -23.2765   16.1640 C   0  0  0  0  0  0  0  0  0  0  0  0
  -25.2250  -12.1822   19.1187 C   0  0  0  0  0  0  0  0  0  0  0  0
  -25.1904  -11.8213   21.5073 C   0  0  0  0  0  0  0  0  0  0  0  0
  -23.7134  -29.7529   19.4925 C   0  0  0  0  0  0  0  0  0  0  0  0
  -24.0403   -8.3740   21.6137 C   0  0  0  0  0  0  0  0  0  0  0  0
  -23.0340   -7.8097   22.3977 C   0  0  0  0  0  0  0  0  0  0  0  0
  -29.3094  -24.5876   16.6243 C   0  0  0  0  0  0  0  0  0  0  0  0
  -24.4298  -27.4502   19.4323 C   0  0  0  0  0  0  0  0  0  0  0  0
  -21.4537   -9.4152   21.5248 C   0  0  0  0  0  0  0  0  0  0  0  0
  -25.6694  -14.0186   20.6244 C   0  0  0  0  0  0  0  0  0  0  0  0
  -25.0816  -16.4742   20.9878 C   0  0  0  0  0  0  0  0  0  0  0  0
  -16.9869  -28.1533   23.3187 C   0  0  0  0  0  0  0  0  0  0  0  0
  -22.0976  -27.9900   19.0729 C   0  0  0  0  0  0  0  0  0  0  0  0
  -18.3558  -27.9734   23.0428 C   0  0  0  0  0  0  0  0  0  0  0  0
  -23.1177  -27.0322   19.1625 C   0  0  0  0  0  0  0  0  0  0  0  0
  -29.2839  -22.2250   17.0735 C   0  0  0  0  0  0  0  0  0  0  0  0
  -25.0538  -11.3295   20.2092 C   0  0  0  0  0  0  0  0  0  0  0  0
  -24.7252  -28.8031   19.5980 C   0  0  0  0  0  0  0  0  0  0  0  0
  -23.7533   -9.4589   20.7853 C   0  0  0  0  0  0  0  0  0  0  0  0
  -21.7407   -8.3303   22.3533 C   0  0  0  0  0  0  0  0  0  0  0  0
  -22.4600   -9.9795   20.7408 C   0  0  0  0  0  0  0  0  0  0  0  0
  -25.9879  -15.4072   20.8395 C   0  0  0  0  0  0  0  0  0  0  0  0
  -29.3795  -24.7923   17.9929 C   0  0  0  0  0  0  0  0  0  0  0  0
  -29.3553  -22.5354   18.4220 C   0  0  0  0  0  0  0  0  0  0  0  0
  -25.8779  -17.5788   21.1670 C   0  0  0  0  0  0  0  0  0  0  0  0
  -23.6480  -16.4674   20.9656 C   0  0  0  0  0  0  0  0  0  0  0  0
  -29.4697  -28.5048   18.5216 C   0  0  0  0  0  0  0  0  0  0  0  0
  -28.2642  -29.2262   19.0546 C   0  0  0  0  0  0  0  0  0  0  0  0
  -29.4119  -27.2700   17.6781 C   0  0  0  0  0  0  0  0  0  0  0  0
  -20.2378  -25.9226   20.6127 C   0  0  0  0  0  0  0  0  0  0  0  0
  -21.0773  -23.9507   18.1778 C   0  0  0  0  0  0  0  0  0  0  0  0
  -23.3221  -23.1614   15.7313 C   0  0  0  0  0  0  0  0  0  0  0  0
  -30.4050  -20.4818   19.3578 C   0  0  0  0  0  0  0  0  0  0  0  0
  -16.0078  -27.0078   23.2560 C   0  0  0  0  0  0  0  0  0  0  0  0
  -20.6866  -27.5730   18.7604 C   0  0  0  0  0  0  0  0  0  0  0  0
  -22.8430  -25.5620   18.9851 C   0  0  0  0  0  0  0  0  0  0  0  0
  -16.5255  -25.8064   22.4693 C   0  0  0  0  0  0  0  0  0  0  0  0
  -30.8361  -17.9789   22.0336 C   0  0  0  0  0  0  0  0  0  0  0  0
  -17.9543  -25.4715   22.8852 C   0  0  0  0  0  0  0  0  0  0  0  0
  -29.5648  -17.1390   21.9221 C   0  0  0  0  0  0  0  0  0  0  0  0
  -31.2460  -18.5681   20.6871 C   0  0  0  0  0  0  0  0  0  0  0  0
  -28.8954  -18.5149   19.9112 C   0  0  0  0  0  0  0  0  0  0  0  0
  -18.9036  -26.6383   22.5872 C   0  0  1  0  0  0  0  0  0  0  0  0
  -20.3961  -26.1221   19.1319 C   0  0  1  0  0  0  0  0  0  0  0  0
  -28.4325  -17.9426   21.2596 C   0  0  1  0  0  0  0  0  0  0  0  0
  -29.2315  -20.8204   16.5762 C   0  0  0  0  0  0  0  0  0  0  0  0
  -23.7563  -21.4726   13.9267 C   0  0  0  0  0  0  0  0  0  0  0  0
  -21.9600  -21.9289   20.2856 C   0  0  0  0  0  0  0  0  0  0  0  0
  -23.2244  -20.7190   18.4951 C   0  0  0  0  0  0  0  0  0  0  0  0
  -20.7448  -20.9403   18.3362 C   0  0  0  0  0  0  0  0  0  0  0  0
  -28.4618  -21.5047   20.5186 C   0  0  0  0  0  0  0  0  0  0  0  0
  -23.2337  -25.2283   13.6150 C   0  0  0  0  0  0  0  0  0  0  0  0
  -27.0505  -28.3801   19.3331 C   0  0  0  0  0  0  0  0  0  1  0  0
  -22.1986  -22.9694   17.9348 C   0  0  1  0  0  0  0  0  0  0  0  0
  -23.1343  -22.8186   14.2645 C   0  0  2  0  0  0  0  0  0  0  0  0
  -22.0371  -21.6669   18.7682 C   0  0  0  0  0  0  0  0  0  0  0  0
  -27.2625  -15.7988   20.9176 N   0  0  0  0  0  0  0  0  0  0  0  0
  -29.4037  -23.7965   18.9069 N   0  0  0  0  0  0  0  0  0  0  0  0
  -30.6456  -28.9655   18.7949 N   0  0  0  0  0  0  0  0  0  0  0  0
  -27.1628  -17.1241   21.1168 N   0  0  0  0  0  0  0  0  0  0  0  0
  -21.4464  -25.2037   18.6872 N   0  0  0  0  0  0  0  0  0  0  0  0
  -30.1382  -19.2881   20.0579 N   0  0  0  0  0  0  0  0  0  0  0  0
  -25.5975  -18.8850   21.3610 N   0  0  0  0  0  0  0  0  0  0  0  0
  -22.9886  -15.2461   20.7708 N   0  0  0  0  0  0  0  0  0  0  0  0
  -29.4267  -26.1293   18.4508 N   0  0  0  0  0  0  0  0  0  0  0  0
  -19.2281  -26.6784   21.1774 N   0  0  0  0  0  0  0  0  0  0  0  0
  -22.2471  -22.7540   16.4927 N   0  0  0  0  0  0  0  0  0  0  0  0
  -29.3793  -21.4517   19.3757 N   0  0  0  0  0  0  0  0  0  0  0  0
  -23.7674  -23.8580   13.4044 N   0  3  0  0  0  0  0  0  0  0  0  0
  -22.9721  -17.5158   21.0977 O   0  0  0  0  0  0  0  0  0  0  0  0
  -28.3426  -30.4334   19.2243 O   0  0  0  0  0  0  0  0  0  0  0  0
  -29.3577  -27.4273   16.4703 O   0  0  0  0  0  0  0  0  0  0  0  0
  -20.9759  -25.1399   21.1992 O   0  0  0  0  0  0  0  0  0  0  0  0
  -19.9176  -23.6202   17.9181 O   0  0  0  0  0  0  0  0  0  0  0  0
  -24.3239  -23.7301   16.1595 O   0  0  0  0  0  0  0  0  0  0  0  0
  -31.4853  -20.6764   18.7879 O   0  0  0  0  0  0  0  0  0  0  0  0
  -24.7532  -10.0175   20.0070 O   0  0  0  0  0  0  0  0  0  0  0  0
  -26.0025  -29.1943   19.8576 O   0  0  0  0  0  0  0  0  0  1  0  0
  -20.7741   -7.7874   23.1050 F   0  0  0  0  0  0  0  0  0  0  0  0
  -22.1779  -11.0209   19.9460 F   0  0  0  0  0  0  0  0  0  0  0  0
  1  2  1  0  0  0  0
  1  5  2  0  0  0  0
  2  6  2  0  0  0  0
  3  9  2  0  0  0  0
  3 17  1  0  0  0  0
  4 10  1  0  0  0  0
  4 17  2  0  0  0  0
  5 19  1  0  0  0  0
  6 21  1  0  0  0  0
  7 11  2  0  0  0  0
  7 20  1  0  0  0  0
  8 14  2  0  0  0  0
  8 23  1  0  0  0  0
  9 24  1  0  0  0  0
 10 24  2  0  0  0  0
 11 25  1  0  0  0  0
 12 13  2  0  0  0  0
 12 26  1  0  0  0  0
 13 27  1  0  0  0  0
 14 30  1  0  0  0  0
 15 22  1  0  0  0  0
 15 25  2  0  0  0  0
 16 27  2  0  0  0  0
 16 28  1  0  0  0  0
 17 29  1  0  0  0  0
 18 29  1  0  0  0  0
 18 32  2  0  0  0  0
 18 33  1  0  0  0  0
 19 21  2  0  0  0  0
 19 41  1  0  0  0  0
 20 22  2  0  0  0  0
 20 42  1  0  0  0  0
 21 50  1  0  0  0  0
 22 43  1  0  0  0  0
 23 31  2  0  0  0  0
 23 53  1  0  0  0  0
 24 84  1  0  0  0  0
 25 85  1  0  0  0  0
 26 28  2  0  0  0  0
 26 84  1  0  0  0  0
 27 86  1  0  0  0  0
 28 87  1  0  0  0  0
 29 64  2  0  0  0  0
 30 65  2  0  0  0  0
 30 72  1  0  0  0  0
 31 65  1  0  0  0  0
 31 75  1  0  0  0  0
 32 67  1  0  0  0  0
 32 70  1  0  0  0  0
 33 71  1  0  0  0  0
 33 77  2  0  0  0  0
 34 35  1  0  0  0  0
 34 36  1  0  0  0  0
 34 66  2  0  0  0  0
 35 60  1  0  0  0  0
 35 78  2  0  0  0  0
 36 72  1  0  0  0  0
 36 79  2  0  0  0  0
 37 51  1  0  0  0  0
 37 73  1  0  0  0  0
 37 80  2  0  0  0  0
 38 61  1  0  0  0  0
 38 68  1  0  0  0  0
 38 81  2  0  0  0  0
 39 62  1  0  0  0  0
 39 74  1  0  0  0  0
 39 82  2  0  0  0  0
 40 69  1  0  0  0  0
 40 75  1  0  0  0  0
 40 83  2  0  0  0  0
 41 44  1  0  0  0  0
 42 51  1  0  0  0  0
 43 68  1  0  0  0  0
 44 46  1  0  0  0  0
 45 47  1  0  0  0  0
 45 48  1  0  0  0  0
 46 50  1  0  0  0  0
 47 52  1  0  0  0  0
 48 69  1  0  0  0  0
 49 52  1  0  0  0  0
 49 69  1  0  0  0  0
 50 73  1  0  0  0  0
 51 68  1  0  0  0  0
 52 67  1  0  0  0  0
 54 62  1  0  0  0  0
 55 63  1  0  0  0  0
 56 63  1  0  0  0  0
 57 63  1  0  0  0  0
 58 75  1  0  0  0  0
 59 76  1  0  0  0  0
 60 85  1  0  0  0  0
 61 63  1  0  0  0  0
 61 74  1  0  0  0  0
 62 76  1  0  0  0  0
 64 67  1  0  0  0  0
M  CHG  1  76   1
M  ISO  4  40 100  60 101  75 100  85 101
M  END
> <Batch ID>
0167

> <Smiles>
CNC(C)C(=O)NC(C(=O)N1Cc2cc([101O:1][101CH2:1]C(=O)C(=N)C(=O)Nc3ccc(C)c([100N:0](C)[100C:0](=O)N4CCCC(n5nc(-c6ccc(Oc7ccc(F)cc7F)cc6)c(C(N)=O)c5N)C4)n3)ccc2CC1C(=O)NC1CCCc2ccccc21)C(C)(C)C

> <Shape>
0.256

> <Color>
0.055

> <Negative vol penalty>
0.000

$$$$

  -OEChem-04052304113D

 86 94  0     1  0  0  0  0  0999 V2000
  -28.2880  -36.6061   20.8044 C   0  0  0  0  0  0  0  0  0  0  0  0
  -28.6163  -35.2542   20.8002 C   0  0  0  0  0  0  0  0  0  0  0  0
  -24.0035   -9.6433   22.2536 C   0  0  0  0  0  0  0  0  0  0  0  0
  -24.3804  -11.3320   23.9399 C   0  0  0  0  0  0  0  0  0  0  0  0
  -27.2557  -37.0691   21.6192 C   0  0  0  0  0  0  0  0  0  0  0  0
  -27.9130  -34.3646   21.6116 C   0  0  0  0  0  0  0  0  0  0  0  0
  -26.6494  -30.1039   19.1838 C   0  0  0  0  0  0  0  0  0  0  0  0
  -23.5773   -8.7537   23.2398 C   0  0  0  0  0  0  0  0  0  0  0  0
  -23.9542  -10.4423   24.9261 C   0  0  0  0  0  0  0  0  0  0  0  0
  -27.6493  -29.1473   19.0140 C   0  0  0  0  0  0  0  0  0  0  0  0
  -20.7800   -8.2035   25.0578 C   0  0  0  0  0  0  0  0  0  0  0  0
  -19.6242   -7.4638   24.8078 C   0  0  0  0  0  0  0  0  0  0  0  0
  -30.2912  -18.8394   19.2655 C   0  0  0  0  0  0  0  0  0  0  0  0
  -26.7695  -27.9043   20.8849 C   0  0  0  0  0  0  0  0  0  0  0  0
  -27.8952  -19.1462   19.3126 C   0  0  0  0  0  0  0  0  0  0  0  0
  -20.8885   -5.4161   25.0217 C   0  0  0  0  0  0  0  0  0  0  0  0
  -24.4051  -10.9325   22.6037 C   0  0  0  0  0  0  0  0  0  0  0  0
  -30.4696  -20.2207   19.3410 C   0  0  0  0  0  0  0  0  0  0  0  0
  -24.0522  -12.7573   20.8564 C   0  0  0  0  0  0  0  0  0  0  0  0
  -26.5331  -36.1832   22.4339 C   0  0  0  0  0  0  0  0  0  0  0  0
  -25.7070  -29.9733   20.2140 C   0  0  0  0  0  0  0  0  0  0  0  0
  -26.8710  -34.8164   22.4391 C   0  0  0  0  0  0  0  0  0  0  0  0
  -25.7571  -28.8593   21.0640 C   0  0  0  0  0  0  0  0  0  0  0  0
  -29.0040  -18.3021   19.2513 C   0  0  0  0  0  0  0  0  0  0  0  0
  -29.3609  -21.0648   19.4024 C   0  0  0  0  0  0  0  0  0  0  0  0
  -23.5526   -9.1532   24.5760 C   0  0  0  0  0  0  0  0  0  0  0  0
  -27.7113  -28.0488   19.8664 C   0  0  0  0  0  0  0  0  0  0  0  0
  -21.9901   -7.5496   25.2897 C   0  0  0  0  0  0  0  0  0  0  0  0
  -19.6784   -6.0701   24.7898 C   0  0  0  0  0  0  0  0  0  0  0  0
  -28.0736  -20.5276   19.3882 C   0  0  0  0  0  0  0  0  0  0  0  0
  -22.0443   -6.1559   25.2716 C   0  0  0  0  0  0  0  0  0  0  0  0
  -24.8460  -11.8518   21.5855 C   0  0  0  0  0  0  0  0  0  0  0  0
  -24.9373  -13.3947   20.0215 C   0  0  0  0  0  0  0  0  0  0  0  0
  -31.8278  -20.7497   19.3541 C   0  0  0  0  0  0  0  0  0  0  0  0
  -28.3073  -25.8259   19.4489 C   0  0  0  0  0  0  0  0  0  1  0  0
  -22.6410  -13.0007   20.9274 C   0  0  0  0  0  0  0  0  0  0  0  0
  -29.1809  -24.8275   19.2718 C   0  0  0  0  0  0  0  0  0  0  0  0
  -28.6627  -23.4477   18.9964 C   0  0  0  0  0  0  0  0  0  0  0  0
  -24.9270  -31.6917   22.7718 C   0  0  0  0  0  0  0  0  0  0  0  0
  -22.5396  -29.5105   23.0267 C   0  0  0  0  0  0  0  0  0  0  0  0
  -21.3894  -26.3775   22.3139 C   0  0  0  0  0  0  0  0  0  0  0  0
  -29.8141  -15.9211   19.1067 C   0  0  0  0  0  0  0  0  0  0  0  0
  -25.4567  -36.7377   23.3331 C   0  0  0  0  0  0  0  0  0  0  0  0
  -24.6184  -31.0000   20.3672 C   0  0  0  0  0  0  0  0  0  0  0  0
  -24.7569  -28.6621   22.1727 C   0  0  0  0  0  0  0  0  0  0  0  0
  -24.5131  -35.6712   23.8829 C   0  0  0  0  0  0  0  0  0  0  0  0
  -29.7746  -12.3645   18.9440 C   0  0  0  0  0  0  0  0  0  0  0  0
  -25.3046  -34.4777   24.4083 C   0  0  0  0  0  0  0  0  0  0  0  0
  -28.4235  -11.9886   19.5568 C   0  0  0  0  0  0  0  0  0  0  0  0
  -30.4010  -13.5676   19.6469 C   0  0  0  0  0  0  0  0  0  0  0  0
  -28.1841  -14.3737   20.3574 C   0  0  0  0  0  0  0  0  0  0  0  0
  -26.1150  -33.8164   23.2869 C   0  0  1  0  0  0  0  0  0  0  0  0
  -24.0211  -31.0326   21.7705 C   0  0  1  0  0  0  0  0  0  0  0  0
  -27.4840  -13.2075   19.6407 C   0  0  2  0  0  0  0  0  0  0  0  0
  -19.4184  -24.8702   22.6884 C   0  0  0  0  0  0  0  0  0  0  0  0
  -23.4595  -29.0244   25.8951 C   0  0  0  0  0  0  0  0  0  0  0  0
  -22.1234  -26.9070   25.8909 C   0  0  0  0  0  0  0  0  0  0  0  0
  -20.9780  -29.1031   25.5945 C   0  0  0  0  0  0  0  0  0  0  0  0
  -20.8519  -26.1668   19.4112 C   0  0  0  0  0  0  0  0  0  0  0  0
  -22.3818  -28.1730   23.7088 C   0  0  1  0  0  0  0  0  0  0  0  0
  -20.0597  -25.8935   21.7642 C   0  0  2  0  0  0  0  0  0  0  0  0
  -22.2558  -28.3063   25.2527 C   0  0  0  0  0  0  0  0  0  0  0  0
  -26.1361  -11.9058   21.2438 N   0  0  0  0  0  0  0  0  0  0  0  0
  -32.8858  -19.9995   19.2988 N   0  0  0  0  0  0  0  0  0  0  0  0
  -26.1597  -12.8530   20.2906 N   0  0  0  0  0  0  0  0  0  0  0  0
  -23.7154  -29.6965   22.2859 N   0  0  0  0  0  0  0  0  0  0  0  0
  -29.4551  -14.6851   19.6848 N   0  0  0  0  0  0  0  0  0  0  0  0
  -24.7813  -14.3600   19.0908 N   0  0  0  0  0  0  0  0  0  0  0  0
  -21.8801  -12.2579   21.8404 N   0  0  0  0  0  0  0  0  0  0  0  0
  -29.5209  -22.4694   19.4794 N   0  0  0  0  0  0  0  0  0  0  0  0
  -28.8222  -16.8990   19.1743 N   0  0  0  0  0  0  0  0  0  0  0  0
  -25.2566  -32.9967   22.4588 N   0  0  0  0  0  0  0  0  0  0  0  0
  -21.2435  -27.5211   23.0704 N   0  0  0  0  0  0  0  0  0  0  0  0
  -20.2502  -25.2646   20.4266 N   0  3  0  0  0  0  0  0  0  0  0  0
  -22.0692  -13.8401   20.1913 O   0  0  0  0  0  0  0  0  0  0  0  0
  -27.5993  -23.2797   18.4092 O   0  0  0  0  0  0  0  0  0  0  0  0
  -25.2983  -31.0634   23.7562 O   0  0  0  0  0  0  0  0  0  0  0  0
  -21.6491  -30.3564   23.1410 O   0  0  0  0  0  0  0  0  0  0  0  0
  -22.4508  -25.7970   22.0972 O   0  0  0  0  0  0  0  0  0  0  0  0
  -30.9097  -16.0906   18.5656 O   0  0  0  0  0  0  0  0  0  0  0  0
  -30.5467  -25.0170   19.3313 O   0  0  0  0  0  0  0  0  0  0  0  0
  -23.1366   -8.2854   25.5385 O   0  0  0  0  0  0  0  0  0  0  0  0
  -28.6866  -27.1140   19.7033 O   0  0  0  0  0  0  0  0  0  1  0  0
  -18.5681   -5.3599   24.5513 F   0  0  0  0  0  0  0  0  0  0  0  0
  -27.0000  -21.3285   19.4465 F   0  0  0  0  0  0  0  0  0  0  0  0
  -23.2037   -5.5220   25.4949 F   0  0  0  0  0  0  0  0  0  0  0  0
  1  2  1  0  0  0  0
  1  5  2  0  0  0  0
  2  6  2  0  0  0  0
  3  8  2  0  0  0  0
  3 17  1  0  0  0  0
  4  9  1  0  0  0  0
  4 17  2  0  0  0  0
  5 20  1  0  0  0  0
  6 22  1  0  0  0  0
  7 10  2  0  0  0  0
  7 21  1  0  0  0  0
  8 26  1  0  0  0  0
  9 26  2  0  0  0  0
 10 27  1  0  0  0  0
 11 12  2  0  0  0  0
 11 28  1  0  0  0  0
 12 29  1  0  0  0  0
 13 18  1  0  0  0  0
 13 24  2  0  0  0  0
 14 23  1  0  0  0  0
 14 27  2  0  0  0  0
 15 24  1  0  0  0  0
 15 30  2  0  0  0  0
 16 29  2  0  0  0  0
 16 31  1  0  0  0  0
 17 32  1  0  0  0  0
 18 25  2  0  0  0  0
 18 34  1  0  0  0  0
 19 32  1  0  0  0  0
 19 33  2  0  0  0  0
 19 36  1  0  0  0  0
 20 22  2  0  0  0  0
 20 43  1  0  0  0  0
 21 23  2  0  0  0  0
 21 44  1  0  0  0  0
 22 52  1  0  0  0  0
 23 45  1  0  0  0  0
 24 71  1  0  0  0  0
 25 30  1  0  0  0  0
 25 70  1  0  0  0  0
 26 82  1  0  0  0  0
 27 83  1  0  0  0  0
 28 31  2  0  0  0  0
 28 82  1  0  0  0  0
 29 84  1  0  0  0  0
 30 85  1  0  0  0  0
 31 86  1  0  0  0  0
 32 63  2  0  0  0  0
 33 65  1  0  0  0  0
 33 68  1  0  0  0  0
 34 64  2  0  0  0  0
 35 37  2  0  0  0  0
 35 83  1  0  0  0  0
 36 69  1  0  0  0  0
 36 75  2  0  0  0  0
 37 38  1  0  0  0  0
 37 81  1  0  0  0  0
 38 70  1  0  0  0  0
 38 76  2  0  0  0  0
 39 53  1  0  0  0  0
 39 72  1  0  0  0  0
 39 77  2  0  0  0  0
 40 60  1  0  0  0  0
 40 66  1  0  0  0  0
 40 78  2  0  0  0  0
 41 61  1  0  0  0  0
 41 73  1  0  0  0  0
 41 79  2  0  0  0  0
 42 67  1  0  0  0  0
 42 71  1  0  0  0  0
 42 80  2  0  0  0  0
 43 46  1  0  0  0  0
 44 53  1  0  0  0  0
 45 66  1  0  0  0  0
 46 48  1  0  0  0  0
 47 49  1  0  0  0  0
 47 50  1  0  0  0  0
 48 52  1  0  0  0  0
 49 54  1  0  0  0  0
 50 67  1  0  0  0  0
 51 54  1  0  0  0  0
 51 67  1  0  0  0  0
 52 72  1  0  0  0  0
 53 66  1  0  0  0  0
 54 65  1  0  0  0  0
 55 61  1  0  0  0  0
 56 62  1  0  0  0  0
 57 62  1  0  0  0  0
 58 62  1  0  0  0  0
 59 74  1  0  0  0  0
 60 62  1  0  0  0  0
 60 73  1  0  0  0  0
 61 74  1  0  0  0  0
 63 65  1  0  0  0  0
M  CHG  1  74   1
M  ISO  4  35 101  42 100  71 100  83 101
M  END
> <Batch ID>
0167

> <Smiles>
CNC(C)C(=O)NC(C(=O)N1Cc2cc([101O:1][101CH2:1]C(=O)C(=O)Nc3c(F)cc([100NH:0][100C:0](=O)N4CCCC(n5nc(-c6ccc(Oc7ccc(F)cc7F)cc6)c(C(N)=O)c5N)C4)cc3C=N)ccc2CC1C(=O)NC1CCCc2ccccc21)C(C)(C)C

> <Shape>
0.333

> <Color>
0.106

> <Negative vol penalty>
0.000

$$$$

  -OEChem-04052304113D

 86 94  0     1  0  0  0  0  0999 V2000
  -21.9416  -11.2692   20.7489 C   0  0  0  0  0  0  0  0  0  0  0  0
  -21.6145  -12.5983   20.9980 C   0  0  0  0  0  0  0  0  0  0  0  0
  -30.2422  -28.2690   20.6483 C   0  0  0  0  0  0  0  0  0  0  0  0
  -28.9306  -26.2975   21.1278 C   0  0  0  0  0  0  0  0  0  0  0  0
  -23.2793  -10.8876   20.6547 C   0  0  0  0  0  0  0  0  0  0  0  0
  -22.6251  -13.5463   21.1542 C   0  0  0  0  0  0  0  0  0  0  0  0
  -21.6875  -17.8224   18.6083 C   0  0  0  0  0  0  0  0  0  0  0  0
  -31.3963  -27.6007   21.0569 C   0  0  0  0  0  0  0  0  0  0  0  0
  -30.0848  -25.6291   21.5363 C   0  0  0  0  0  0  0  0  0  0  0  0
  -20.7750  -18.7125   19.1730 C   0  0  0  0  0  0  0  0  0  0  0  0
  -32.7379  -23.2855   22.3649 C   0  0  0  0  0  0  0  0  0  0  0  0
  -32.9263  -21.9795   21.9128 C   0  0  0  0  0  0  0  0  0  0  0  0
  -18.1188  -26.6686   23.0538 C   0  0  0  0  0  0  0  0  0  0  0  0
  -22.6029  -20.0469   20.0082 C   0  0  0  0  0  0  0  0  0  0  0  0
  -19.4937  -28.6024   23.5089 C   0  0  0  0  0  0  0  0  0  0  0  0
  -32.8986  -22.7663   19.6286 C   0  0  0  0  0  0  0  0  0  0  0  0
  -29.0093  -27.6174   20.6838 C   0  0  0  0  0  0  0  0  0  0  0  0
  -18.9538  -26.3251   21.9906 C   0  0  0  0  0  0  0  0  0  0  0  0
  -27.2743  -28.3524   18.9642 C   0  0  0  0  0  0  0  0  0  0  0  0
  -24.3066  -11.8332   20.8002 C   0  0  0  0  0  0  0  0  0  0  0  0
  -23.0668  -18.0323   18.7489 C   0  0  0  0  0  0  0  0  0  0  0  0
  -23.9778  -13.1767   21.0632 C   0  0  0  0  0  0  0  0  0  0  0  0
  -23.5308  -19.1593   19.4422 C   0  0  0  0  0  0  0  0  0  0  0  0
  -20.3288  -28.2589   22.4458 C   0  0  0  0  0  0  0  0  0  0  0  0
  -31.3176  -26.2807   21.5008 C   0  0  0  0  0  0  0  0  0  0  0  0
  -21.2327  -19.8234   19.8755 C   0  0  0  0  0  0  0  0  0  0  0  0
  -32.6298  -24.3319   21.4489 C   0  0  0  0  0  0  0  0  0  0  0  0
  -33.0067  -21.7199   20.5446 C   0  0  0  0  0  0  0  0  0  0  0  0
  -18.3887  -27.8073   23.8129 C   0  0  0  0  0  0  0  0  0  0  0  0
  -32.7102  -24.0723   20.0807 C   0  0  0  0  0  0  0  0  0  0  0  0
  -20.0588  -27.1202   21.6866 C   0  0  0  0  0  0  0  0  0  0  0  0
  -27.8167  -28.3075   20.2625 C   0  0  0  0  0  0  0  0  0  0  0  0
  -26.1491  -29.1301   19.0888 C   0  0  0  0  0  0  0  0  0  0  0  0
  -18.6652  -25.1182   21.1890 C   0  0  0  0  0  0  0  0  0  0  0  0
  -27.7453  -27.7452   17.7538 C   0  0  0  0  0  0  0  0  0  0  0  0
  -25.4560  -16.4202   20.0894 C   0  0  0  0  0  0  0  0  0  0  0  0
  -27.2676  -18.7474   18.7387 C   0  0  0  0  0  0  0  0  0  0  0  0
  -27.4582  -21.9283   17.5171 C   0  0  0  0  0  0  0  0  0  0  0  0
  -19.5016  -22.9109   20.4140 C   0  0  0  0  0  0  0  0  0  0  0  0
  -21.8573  -30.2309   22.7940 C   0  0  0  0  0  0  0  0  0  0  0  0
  -25.7388  -11.3647   20.7371 C   0  0  0  0  0  0  0  0  0  0  0  0
  -24.0381  -17.0772   18.1111 C   0  0  0  0  0  0  0  0  0  0  0  0
  -25.0015  -19.4408   19.6043 C   0  0  0  0  0  0  0  0  0  0  0  0
  -26.7424  -12.4982   20.5424 C   0  0  0  0  0  0  0  0  0  0  0  0
  -24.5786  -32.4869   22.3675 C   0  0  0  0  0  0  0  0  0  0  0  0
  -26.4347  -13.6525   21.4910 C   0  0  0  0  0  0  0  0  0  0  0  0
  -25.6391  -31.6449   21.6542 C   0  0  0  0  0  0  0  0  0  0  0  0
  -23.7965  -31.6655   23.3909 C   0  0  0  0  0  0  0  0  0  0  0  0
  -24.2641  -29.5850   22.1572 C   0  0  0  0  0  0  0  0  0  0  0  0
  -25.0452  -14.2389   21.2138 C   0  0  1  0  0  0  0  0  0  0  0  0
  -25.4203  -17.1113   18.7557 C   0  0  1  0  0  0  0  0  0  0  0  0
  -25.0341  -30.3530   21.0706 C   0  0  2  0  0  0  0  0  0  0  0  0
  -29.0809  -23.5603   16.5168 C   0  0  0  0  0  0  0  0  0  0  0  0
  -28.4712  -19.2388   21.4991 C   0  0  0  0  0  0  0  0  0  0  0  0
  -29.3335  -21.4328   20.6558 C   0  0  0  0  0  0  0  0  0  0  0  0
  -30.1166  -19.3044   19.6168 C   0  0  0  0  0  0  0  0  0  0  0  0
  -25.9063  -22.1084   15.0035 C   0  0  0  0  0  0  0  0  0  0  0  0
  -27.7603  -20.1064   19.1736 C   0  0  1  0  0  0  0  0  0  0  0  0
  -28.0490  -22.4801   16.2322 C   0  0  2  0  0  0  0  0  0  0  0  0
  -20.7360  -22.0576   20.5456 C   0  0  2  0  0  0  0  0  0  1  0  0
  -28.8926  -20.0145   20.2351 C   0  0  0  0  0  0  0  0  0  0  0  0
  -27.0956  -29.0017   21.1468 N   0  0  0  0  0  0  0  0  0  0  0  0
  -26.0885  -29.4902   20.4029 N   0  0  0  0  0  0  0  0  0  0  0  0
  -25.9116  -18.4743   18.9679 N   0  0  0  0  0  0  0  0  0  0  0  0
  -23.2493  -30.4595   22.7657 N   0  0  0  0  0  0  0  0  0  0  0  0
  -25.2156  -29.5344   18.2014 N   0  0  0  0  0  0  0  0  0  0  0  0
  -28.9175  -26.9784   17.8032 N   0  0  0  0  0  0  0  0  0  0  0  0
  -21.4503  -29.0688   22.1393 N   0  0  0  0  0  0  0  0  0  0  0  0
  -19.5933  -24.1525   21.1450 N   0  0  0  0  0  0  0  0  0  0  0  0
  -25.0803  -15.0911   20.0446 N   0  0  0  0  0  0  0  0  0  0  0  0
  -28.1398  -20.8124   17.9546 N   0  0  0  0  0  0  0  0  0  0  0  0
  -17.4938  -25.0589   20.5563 N   0  3  0  0  0  0  0  0  0  0  0  0
  -26.9769  -23.0672   15.3795 N   0  3  0  0  0  0  0  0  0  0  0  0
  -27.1537  -27.8922   16.6575 O   0  0  0  0  0  0  0  0  0  0  0  0
  -25.8003  -17.0460   21.0852 O   0  0  0  0  0  0  0  0  0  0  0  0
  -28.0552  -17.9598   18.2085 O   0  0  0  0  0  0  0  0  0  0  0  0
  -26.4913  -22.4385   18.0787 O   0  0  0  0  0  0  0  0  0  0  0  0
  -18.5187  -22.6295   19.7434 O   0  0  0  0  0  0  0  0  0  0  0  0
  -21.0805  -31.0227   23.3340 O   0  0  0  0  0  0  0  0  0  0  0  0
  -32.4436  -25.6281   21.8993 O   0  0  0  0  0  0  0  0  0  0  0  0
  -20.3442  -20.6935   20.4282 O   0  0  0  0  0  0  0  0  0  1  0  0
  -33.1891  -20.4659   20.1106 F   0  0  0  0  0  0  0  0  0  0  0  0
  -17.5870  -28.1370   24.8339 F   0  0  0  0  0  0  0  0  0  0  0  0
  -32.6082  -25.0736   19.1960 F   0  0  0  0  0  0  0  0  0  0  0  0
  -20.8609  -26.7888   20.6635 F   0  0  0  0  0  0  0  0  0  0  0  0
  -21.3127  -22.2382   21.7635 F   0  0  0  0  0  0  0  0  0  0  0  0
  1  2  1  0  0  0  0
  1  5  2  0  0  0  0
  2  6  2  0  0  0  0
  3  8  2  0  0  0  0
  3 17  1  0  0  0  0
  4  9  1  0  0  0  0
  4 17  2  0  0  0  0
  5 20  1  0  0  0  0
  6 22  1  0  0  0  0
  7 10  2  0  0  0  0
  7 21  1  0  0  0  0
  8 25  1  0  0  0  0
  9 25  2  0  0  0  0
 10 26  1  0  0  0  0
 11 12  2  0  0  0  0
 11 27  1  0  0  0  0
 12 28  1  0  0  0  0
 13 18  1  0  0  0  0
 13 29  2  0  0  0  0
 14 23  1  0  0  0  0
 14 26  2  0  0  0  0
 15 24  2  0  0  0  0
 15 29  1  0  0  0  0
 16 28  2  0  0  0  0
 16 30  1  0  0  0  0
 17 32  1  0  0  0  0
 18 31  2  0  0  0  0
 18 34  1  0  0  0  0
 19 32  1  0  0  0  0
 19 33  2  0  0  0  0
 19 35  1  0  0  0  0
 20 22  2  0  0  0  0
 20 41  1  0  0  0  0
 21 23  2  0  0  0  0
 21 42  1  0  0  0  0
 22 50  1  0  0  0  0
 23 43  1  0  0  0  0
 24 31  1  0  0  0  0
 24 68  1  0  0  0  0
 25 80  1  0  0  0  0
 26 81  1  0  0  0  0
 27 30  2  0  0  0  0
 27 80  1  0  0  0  0
 28 82  1  0  0  0  0
 29 83  1  0  0  0  0
 30 84  1  0  0  0  0
 31 85  1  0  0  0  0
 32 62  2  0  0  0  0
 33 63  1  0  0  0  0
 33 66  1  0  0  0  0
 34 69  1  0  0  0  0
 34 72  2  0  0  0  0
 35 67  1  0  0  0  0
 35 74  2  0  0  0  0
 36 51  1  0  0  0  0
 36 70  1  0  0  0  0
 36 75  2  0  0  0  0
 37 58  1  0  0  0  0
 37 64  1  0  0  0  0
 37 76  2  0  0  0  0
 38 59  1  0  0  0  0
 38 71  1  0  0  0  0
 38 77  2  0  0  0  0
 39 60  1  0  0  0  0
 39 69  1  0  0  0  0
 39 78  2  0  0  0  0
 40 65  1  0  0  0  0
 40 68  1  0  0  0  0
 40 79  2  0  0  0  0
 41 44  1  0  0  0  0
 42 51  1  0  0  0  0
 43 64  1  0  0  0  0
 44 46  1  0  0  0  0
 45 47  1  0  0  0  0
 45 48  1  0  0  0  0
 46 50  1  0  0  0  0
 47 52  1  0  0  0  0
 48 65  1  0  0  0  0
 49 52  1  0  0  0  0
 49 65  1  0  0  0  0
 50 70  1  0  0  0  0
 51 64  1  0  0  0  0
 52 63  1  0  0  0  0
 53 59  1  0  0  0  0
 54 61  1  0  0  0  0
 55 61  1  0  0  0  0
 56 61  1  0  0  0  0
 57 73  1  0  0  0  0
 58 61  1  0  0  0  0
 58 71  1  0  0  0  0
 59 73  1  0  0  0  0
 60 81  1  0  0  0  0
 60 86  1  0  0  0  0
 62 63  1  0  0  0  0
M  CHG  2  72   1  73   1
M  ISO  4  40 100  60 101  68 100  81 101
M  END
> <Batch ID>
0167

> <Smiles>
CNC(C)C(=O)NC(C(=O)N1Cc2cc([101O:1][101CH:1](F)C(=O)NC(=N)c3cc(F)cc([100NH:0][100C:0](=O)N4CCCC(n5nc(-c6ccc(Oc7ccc(F)cc7F)cc6)c(C(N)=O)c5N)C4)c3F)ccc2CC1C(=O)NC1CCCc2ccccc21)C(C)(C)C

> <Shape>
0.242

> <Color>
0.073

> <Negative vol penalty>
0.000

$$$$

  -OEChem-04052304113D

 85 93  0     1  0  0  0  0  0999 V2000
  -32.0444  -27.7934   15.1866 C   0  0  0  0  0  0  0  0  0  0  0  0
  -31.3183  -26.9589   16.0303 C   0  0  0  0  0  0  0  0  0  0  0  0
  -23.8129   -9.0552   20.5931 C   0  0  0  0  0  0  0  0  0  0  0  0
  -23.3365  -10.9887   21.9612 C   0  0  0  0  0  0  0  0  0  0  0  0
  -32.3501  -29.0932   15.5879 C   0  0  0  0  0  0  0  0  0  0  0  0
  -30.8986  -27.4233   17.2763 C   0  0  0  0  0  0  0  0  0  0  0  0
  -26.0862  -26.2091   18.2818 C   0  0  0  0  0  0  0  0  0  0  0  0
  -23.0786   -8.2549   21.4683 C   0  0  0  0  0  0  0  0  0  0  0  0
  -22.6021  -10.1885   22.8364 C   0  0  0  0  0  0  0  0  0  0  0  0
  -25.8318  -24.9010   18.6917 C   0  0  0  0  0  0  0  0  0  0  0  0
  -19.8246   -7.5754   22.0867 C   0  0  0  0  0  0  0  0  0  0  0  0
  -18.9317   -6.6584   21.5322 C   0  0  0  0  0  0  0  0  0  0  0  0
  -25.7355  -25.6446   20.9845 C   0  0  0  0  0  0  0  0  0  0  0  0
  -28.8400  -17.1641   22.7531 C   0  0  0  0  0  0  0  0  0  0  0  0
  -30.4112  -18.9047   23.3350 C   0  0  0  0  0  0  0  0  0  0  0  0
  -31.1403  -17.0057   22.0314 C   0  0  0  0  0  0  0  0  0  0  0  0
  -20.1321   -4.8491   22.5918 C   0  0  0  0  0  0  0  0  0  0  0  0
  -23.9419  -10.4220   20.8396 C   0  0  0  0  0  0  0  0  0  0  0  0
  -24.2208  -11.9328   18.8030 C   0  0  0  0  0  0  0  0  0  0  0  0
  -31.9256  -29.5770   16.8354 C   0  0  0  0  0  0  0  0  0  0  0  0
  -26.1781  -27.2447   19.2227 C   0  0  0  0  0  0  0  0  0  0  0  0
  -31.2001  -28.7303   17.6952 C   0  0  0  0  0  0  0  0  0  0  0  0
  -25.9886  -26.9654   20.5837 C   0  0  0  0  0  0  0  0  0  0  0  0
  -29.1207  -18.3773   23.3816 C   0  0  0  0  0  0  0  0  0  0  0  0
  -29.8498  -16.4783   22.0780 C   0  0  0  0  0  0  0  0  0  0  0  0
  -22.4732   -8.8216   22.5900 C   0  0  0  0  0  0  0  0  0  0  0  0
  -25.6594  -24.6181   20.0435 C   0  0  0  0  0  0  0  0  0  0  0  0
  -20.8712   -7.1293   22.8937 C   0  0  0  0  0  0  0  0  0  0  0  0
  -19.0854   -5.2953   21.7848 C   0  0  0  0  0  0  0  0  0  0  0  0
  -31.4210  -18.2189   22.6599 C   0  0  0  0  0  0  0  0  0  0  0  0
  -21.0249   -5.7661   23.1463 C   0  0  0  0  0  0  0  0  0  0  0  0
  -24.7008  -11.2491   19.9361 C   0  0  0  0  0  0  0  0  0  0  0  0
  -25.3260  -12.5680   18.2916 C   0  0  0  0  0  0  0  0  0  0  0  0
  -26.2977  -22.7552   21.3056 C   0  0  0  0  0  0  0  0  0  1  0  0
  -22.8945  -11.9888   18.2613 C   0  0  0  0  0  0  0  0  0  0  0  0
  -26.2238  -21.5137   21.8102 C   0  0  0  0  0  0  0  0  0  0  0  0
  -27.3089  -21.0692   22.7425 C   0  0  0  0  0  0  0  0  0  0  0  0
  -28.4621  -29.2660   20.1178 C   0  0  0  0  0  0  0  0  0  0  0  0
  -26.0819  -30.5526   21.9072 C   0  0  0  0  0  0  0  0  0  0  0  0
  -23.0830  -30.1237   23.4786 C   0  0  0  0  0  0  0  0  0  0  0  0
  -30.4516  -14.4385   20.7278 C   0  0  0  0  0  0  0  0  0  0  0  0
  -32.3208  -30.9736   17.2451 C   0  0  0  0  0  0  0  0  0  0  0  0
  -26.4264  -28.6548   18.7619 C   0  0  0  0  0  0  0  0  0  0  0  0
  -26.0573  -28.0448   21.6318 C   0  0  0  0  0  0  0  0  0  0  0  0
  -31.5167  -31.5126   18.4255 C   0  0  0  0  0  0  0  0  0  0  0  0
  -30.0895  -12.1573   18.0181 C   0  0  0  0  0  0  0  0  0  0  0  0
  -31.4281  -30.4672   19.5328 C   0  0  0  0  0  0  0  0  0  0  0  0
  -28.6213  -11.7324   18.0956 C   0  0  0  0  0  0  0  0  0  0  0  0
  -30.6985  -12.3488   19.4059 C   0  0  0  0  0  0  0  0  0  0  0  0
  -28.4821  -12.8231   20.3712 C   0  0  0  0  0  0  0  0  0  0  0  0
  -30.7058  -29.2058   19.0441 C   0  0  1  0  0  0  0  0  0  0  0  0
  -27.0097  -29.5463   19.8539 C   0  0  1  0  0  0  0  0  0  0  0  0
  -27.8070  -12.6809   18.9972 C   0  0  2  0  0  0  0  0  0  0  0  0
  -21.4067  -31.3453   24.8910 C   0  0  0  0  0  0  0  0  0  0  0  0
  -27.9176  -30.2679   24.3277 C   0  0  0  0  0  0  0  0  0  0  0  0
  -25.9157  -30.5898   25.7963 C   0  0  0  0  0  0  0  0  0  0  0  0
  -26.6266  -32.4081   24.2436 C   0  0  0  0  0  0  0  0  0  0  0  0
  -20.9535  -29.7826   21.4518 C   0  0  0  0  0  0  0  0  0  0  0  0
  -28.0341  -19.1161   24.1079 C   0  0  0  0  0  0  0  0  0  0  0  0
  -25.5493  -30.3240   23.3011 C   0  0  1  0  0  0  0  0  0  0  0  0
  -21.8166  -30.9609   23.4779 C   0  0  2  0  0  0  0  0  0  0  0  0
  -26.5029  -30.8766   24.3979 C   0  0  0  0  0  0  0  0  0  0  0  0
  -26.0091  -11.4326   20.1333 N   0  0  0  0  0  0  0  0  0  0  0  0
  -26.3605  -12.2387   19.1171 N   0  0  0  0  0  0  0  0  0  0  0  0
  -26.3088  -29.4066   21.1319 N   0  0  0  0  0  0  0  0  0  0  0  0
  -29.8760  -13.2625   20.2019 N   0  0  0  0  0  0  0  0  0  0  0  0
  -25.5040  -13.3705   17.2207 N   0  0  0  0  0  0  0  0  0  0  0  0
  -21.8768  -11.2773   18.9111 N   0  0  0  0  0  0  0  0  0  0  0  0
  -29.5650  -15.2458   21.4397 N   0  0  0  0  0  0  0  0  0  0  0  0
  -27.1252  -19.7745   23.1966 N   0  0  0  0  0  0  0  0  0  0  0  0
  -29.2754  -29.4230   19.0117 N   0  0  0  0  0  0  0  0  0  0  0  0
  -24.2104  -30.9029   23.3265 N   0  0  0  0  0  0  0  0  0  0  0  0
  -20.6955  -30.2038   22.8528 N   0  3  0  0  0  0  0  0  0  0  0  0
  -22.6233  -12.6368   17.2221 O   0  0  0  0  0  0  0  0  0  0  0  0
  -28.2459  -21.7999   23.0519 O   0  0  0  0  0  0  0  0  0  0  0  0
  -28.8187  -28.9335   21.2420 O   0  0  0  0  0  0  0  0  0  0  0  0
  -26.2823  -31.7058   21.5179 O   0  0  0  0  0  0  0  0  0  0  0  0
  -23.0733  -28.9013   23.6053 O   0  0  0  0  0  0  0  0  0  0  0  0
  -31.6366  -14.7229   20.5359 O   0  0  0  0  0  0  0  0  0  0  0  0
  -25.2141  -20.6200   21.5283 O   0  0  0  0  0  0  0  0  0  0  0  0
  -21.7564   -8.0411   23.4441 O   0  0  0  0  0  0  0  0  0  0  0  0
  -25.4117  -23.3421   20.4464 O   0  0  0  0  0  0  0  0  0  1  0  0
  -18.2270   -4.4149   21.2535 F   0  0  0  0  0  0  0  0  0  0  0  0
  -32.6602  -18.7255   22.6152 F   0  0  0  0  0  0  0  0  0  0  0  0
  -22.0278   -5.3317   23.9217 F   0  0  0  0  0  0  0  0  0  0  0  0
  1  2  1  0  0  0  0
  1  5  2  0  0  0  0
  2  6  2  0  0  0  0
  3  8  2  0  0  0  0
  3 18  1  0  0  0  0
  4  9  1  0  0  0  0
  4 18  2  0  0  0  0
  5 20  1  0  0  0  0
  6 22  1  0  0  0  0
  7 10  2  0  0  0  0
  7 21  1  0  0  0  0
  8 26  1  0  0  0  0
  9 26  2  0  0  0  0
 10 27  1  0  0  0  0
 11 12  2  0  0  0  0
 11 28  1  0  0  0  0
 12 29  1  0  0  0  0
 13 23  1  0  0  0  0
 13 27  2  0  0  0  0
 14 24  2  0  0  0  0
 14 25  1  0  0  0  0
 15 24  1  0  0  0  0
 15 30  2  0  0  0  0
 16 25  2  0  0  0  0
 16 30  1  0  0  0  0
 17 29  2  0  0  0  0
 17 31  1  0  0  0  0
 18 32  1  0  0  0  0
 19 32  1  0  0  0  0
 19 33  2  0  0  0  0
 19 35  1  0  0  0  0
 20 22  2  0  0  0  0
 20 42  1  0  0  0  0
 21 23  2  0  0  0  0
 21 43  1  0  0  0  0
 22 51  1  0  0  0  0
 23 44  1  0  0  0  0
 24 59  1  0  0  0  0
 25 69  1  0  0  0  0
 26 81  1  0  0  0  0
 27 82  1  0  0  0  0
 28 31  2  0  0  0  0
 28 81  1  0  0  0  0
 29 83  1  0  0  0  0
 30 84  1  0  0  0  0
 31 85  1  0  0  0  0
 32 63  2  0  0  0  0
 33 64  1  0  0  0  0
 33 67  1  0  0  0  0
 34 36  2  0  0  0  0
 34 82  1  0  0  0  0
 35 68  1  0  0  0  0
 35 74  2  0  0  0  0
 36 37  1  0  0  0  0
 36 80  1  0  0  0  0
 37 70  1  0  0  0  0
 37 75  2  0  0  0  0
 38 52  1  0  0  0  0
 38 71  1  0  0  0  0
 38 76  2  0  0  0  0
 39 60  1  0  0  0  0
 39 65  1  0  0  0  0
 39 77  2  0  0  0  0
 40 61  1  0  0  0  0
 40 72  1  0  0  0  0
 40 78  2  0  0  0  0
 41 66  1  0  0  0  0
 41 69  1  0  0  0  0
 41 79  2  0  0  0  0
 42 45  1  0  0  0  0
 43 52  1  0  0  0  0
 44 65  1  0  0  0  0
 45 47  1  0  0  0  0
 46 48  1  0  0  0  0
 46 49  1  0  0  0  0
 47 51  1  0  0  0  0
 48 53  1  0  0  0  0
 49 66  1  0  0  0  0
 50 53  1  0  0  0  0
 50 66  1  0  0  0  0
 51 71  1  0  0  0  0
 52 65  1  0  0  0  0
 53 64  1  0  0  0  0
 54 61  1  0  0  0  0
 55 62  1  0  0  0  0
 56 62  1  0  0  0  0
 57 62  1  0  0  0  0
 58 73  1  0  0  0  0
 59 70  1  0  0  0  0
 60 62  1  0  0  0  0
 60 72  1  0  0  0  0
 61 73  1  0  0  0  0
 63 64  1  0  0  0  0
M  CHG  1  73   1
M  ISO  4  34 101  41 100  69 100  82 101
M  END
> <Batch ID>
0167

> <Smiles>
CNC(C)C(=O)NC(C(=O)N1Cc2cc([101O:1][101CH2:1]C(=O)C(=O)NCc3cc(F)cc([100NH:0][100C:0](=O)N4CCCC(n5nc(-c6ccc(Oc7ccc(F)cc7F)cc6)c(C(N)=O)c5N)C4)c3)ccc2CC1C(=O)NC1CCCc2ccccc21)C(C)(C)C

> <Shape>
0.252

> <Color>
0.107

> <Negative vol penalty>
0.000

$$$$

  -OEChem-04052304113D

 89 97  0     1  0  0  0  0  0999 V2000
  -17.6967  -32.2271   29.8637 C   0  0  0  0  0  0  0  0  0  0  0  0
  -18.3480  -30.9982   29.8951 C   0  0  0  0  0  0  0  0  0  0  0  0
  -23.0889   -9.9032   19.9185 C   0  0  0  0  0  0  0  0  0  0  0  0
  -23.8651   -9.8714   22.2062 C   0  0  0  0  0  0  0  0  0  0  0  0
  -17.5484  -32.9055   28.6546 C   0  0  0  0  0  0  0  0  0  0  0  0
  -18.8505  -30.4464   28.7172 C   0  0  0  0  0  0  0  0  0  0  0  0
  -23.9350  -27.0888   28.1009 C   0  0  0  0  0  0  0  0  0  0  0  0
  -22.3619   -8.7353   20.1489 C   0  0  0  0  0  0  0  0  0  0  0  0
  -23.1381   -8.7035   22.4366 C   0  0  0  0  0  0  0  0  0  0  0  0
  -24.1468  -25.7130   28.0224 C   0  0  0  0  0  0  0  0  0  0  0  0
  -19.4347   -7.8694   21.6032 C   0  0  0  0  0  0  0  0  0  0  0  0
  -18.1251   -7.8164   21.1261 C   0  0  0  0  0  0  0  0  0  0  0  0
  -24.1702  -25.8601   25.6147 C   0  0  0  0  0  0  0  0  0  0  0  0
  -28.8383  -18.2698   24.9909 C   0  0  0  0  0  0  0  0  0  0  0  0
  -28.4514  -19.7564   23.1261 C   0  0  0  0  0  0  0  0  0  0  0  0
  -18.7004   -5.9094   19.7588 C   0  0  0  0  0  0  0  0  0  0  0  0
  -23.8406  -10.4712   20.9472 C   0  0  0  0  0  0  0  0  0  0  0  0
  -24.1488  -13.0026   20.8788 C   0  0  0  0  0  0  0  0  0  0  0  0
  -18.0578  -32.3663   27.4628 C   0  0  0  0  0  0  0  0  0  0  0  0
  -23.8282  -27.8602   26.9347 C   0  0  0  0  0  0  0  0  0  0  0  0
  -18.7077  -31.1176   27.4908 C   0  0  0  0  0  0  0  0  0  0  0  0
  -23.9597  -27.2459   25.6812 C   0  0  0  0  0  0  0  0  0  0  0  0
  -29.6573  -17.4759   24.1881 C   0  0  0  0  0  0  0  0  0  0  0  0
  -29.8735  -17.8223   22.8543 C   0  0  0  0  0  0  0  0  0  0  0  0
  -28.2353  -19.4101   24.4599 C   0  0  0  0  0  0  0  0  0  0  0  0
  -22.3864   -8.1355   21.4080 C   0  0  0  0  0  0  0  0  0  0  0  0
  -24.2615  -25.0980   26.7792 C   0  0  0  0  0  0  0  0  0  0  0  0
  -20.3773   -6.9425   21.1580 C   0  0  0  0  0  0  0  0  0  0  0  0
  -17.7579   -6.8364   20.2040 C   0  0  0  0  0  0  0  0  0  0  0  0
  -29.2705  -18.9626   22.3233 C   0  0  0  0  0  0  0  0  0  0  0  0
  -20.0101   -5.9625   20.2359 C   0  0  0  0  0  0  0  0  0  0  0  0
  -24.5923  -11.6773   20.7096 C   0  0  0  0  0  0  0  0  0  0  0  0
  -25.2285  -13.7739   20.5241 C   0  0  0  0  0  0  0  0  0  0  0  0
  -22.8747  -13.4927   21.3174 C   0  0  0  0  0  0  0  0  0  0  0  0
  -21.5532  -29.6614   25.6373 C   0  0  0  0  0  0  0  0  0  0  0  0
  -32.1607  -15.3784   26.2466 C   0  0  0  0  0  0  0  0  0  0  0  0
  -25.9508  -22.0041   25.9210 C   0  0  0  0  0  0  0  0  0  0  0  0
  -23.8887  -30.3925   23.5081 C   0  0  0  0  0  0  0  0  0  0  0  0
  -26.8159  -29.4988   21.9982 C   0  0  0  0  0  0  0  0  0  0  0  0
  -30.6997  -14.8606   20.6962 C   0  0  0  0  0  0  0  0  0  0  0  0
  -17.8317  -33.1142   26.1728 C   0  0  0  0  0  0  0  0  0  0  0  0
  -23.6264  -29.3472   27.0368 C   0  0  0  0  0  0  0  0  0  0  0  0
  -23.8728  -28.0323   24.3996 C   0  0  0  0  0  0  0  0  0  0  0  0
  -18.7225  -32.6377   25.0284 C   0  0  0  0  0  0  0  0  0  0  0  0
  -29.5760  -12.5127   18.2669 C   0  0  0  0  0  0  0  0  0  0  0  0
  -18.7244  -31.1143   24.9520 C   0  0  0  0  0  0  0  0  0  0  0  0
  -28.1456  -12.1910   18.7034 C   0  0  0  0  0  0  0  0  0  0  0  0
  -30.4988  -12.7199   19.4659 C   0  0  0  0  0  0  0  0  0  0  0  0
  -28.5978  -13.3963   20.8809 C   0  0  0  0  0  0  0  0  0  0  0  0
  -19.2883  -30.4982   26.2381 C   0  0  1  0  0  0  0  0  0  0  0  0
  -23.0200  -29.9559   25.7762 C   0  0  1  0  0  0  0  0  0  0  0  0
  -27.6175  -13.2341   19.7066 C   0  0  2  0  0  0  0  0  0  0  0  0
  -33.3698  -15.6435   27.0792 C   0  0  0  0  0  0  0  0  0  0  0  0
  -28.4613  -30.2812   20.2726 C   0  0  0  0  0  0  0  0  0  0  0  0
  -21.9562  -29.5687   21.2953 C   0  0  0  0  0  0  0  0  0  0  0  0
  -23.9065  -29.4566   19.7294 C   0  0  0  0  0  0  0  0  0  0  0  0
  -23.2928  -31.6239   20.8013 C   0  0  0  0  0  0  0  0  0  0  0  0
  -29.0141  -29.6102   23.9767 C   0  0  0  0  0  0  0  0  0  0  0  0
  -30.2917  -16.2596   24.7786 C   0  0  0  0  0  0  0  0  0  0  0  0
  -30.7466  -16.9850   21.9783 C   0  0  0  0  0  0  0  0  0  0  0  0
  -31.5018  -16.6052   25.6535 C   0  0  0  0  0  0  0  0  0  0  0  0
  -26.7585  -21.3930   24.7956 C   0  0  0  0  0  0  0  0  0  0  0  0
  -25.2024  -23.2764   25.5741 C   0  0  0  0  0  0  0  0  0  1  0  0
  -24.3627  -29.8090   22.1990 C   0  0  1  0  0  0  0  0  0  0  0  0
  -28.0981  -30.2724   21.7493 C   0  0  2  0  0  0  0  0  0  0  0  0
  -23.3793  -30.0991   21.0302 C   0  0  0  0  0  0  0  0  0  0  0  0
  -25.8552  -11.6070   20.2806 N   0  0  0  0  0  0  0  0  0  0  0  0
  -26.2145  -12.8978   20.1772 N   0  0  0  0  0  0  0  0  0  0  0  0
  -23.6685  -29.4824   24.5517 N   0  0  0  0  0  0  0  0  0  0  0  0
  -29.9414  -13.7220   20.3774 N   0  0  0  0  0  0  0  0  0  0  0  0
  -25.4210  -15.1093   20.4781 N   0  0  0  0  0  0  0  0  0  0  0  0
  -21.8772  -12.5633   21.6422 N   0  0  0  0  0  0  0  0  0  0  0  0
  -27.4208  -20.2003   25.2582 N   0  0  0  0  0  0  0  0  0  0  0  0
  -20.7326  -30.5886   26.2508 N   0  0  0  0  0  0  0  0  0  0  0  0
  -25.7112  -30.3239   21.9870 N   0  0  0  0  0  0  0  0  0  0  0  0
  -30.0947  -15.7633   21.5620 N   0  0  0  0  0  0  0  0  0  0  0  0
  -29.2267  -29.6620   22.5073 N   0  3  0  0  0  0  0  0  0  0  0  0
  -22.6230  -14.7186   21.4027 O   0  0  0  0  0  0  0  0  0  0  0  0
  -21.1925  -28.6675   25.0179 O   0  0  0  0  0  0  0  0  0  0  0  0
  -31.7708  -14.2295   26.0821 O   0  0  0  0  0  0  0  0  0  0  0  0
  -25.8982  -21.5100   27.0465 O   0  0  0  0  0  0  0  0  0  0  0  0
  -23.7269  -31.6116   23.6035 O   0  0  0  0  0  0  0  0  0  0  0  0
  -26.7959  -28.2835   22.1803 O   0  0  0  0  0  0  0  0  0  0  0  0
  -31.8300  -15.0606   20.2386 O   0  0  0  0  0  0  0  0  0  0  0  0
  -21.6769   -6.9960   21.6332 O   0  0  0  0  0  0  0  0  0  0  0  0
  -24.4676  -23.7552   26.6997 O   0  0  0  0  0  0  0  0  0  1  0  0
  -16.4998   -6.7846   19.7471 F   0  0  0  0  0  0  0  0  0  0  0  0
  -29.4717  -19.3040   21.0428 F   0  0  0  0  0  0  0  0  0  0  0  0
  -20.9109   -5.0685   19.8054 F   0  0  0  0  0  0  0  0  0  0  0  0
  1  2  1  0  0  0  0
  1  5  2  0  0  0  0
  2  6  2  0  0  0  0
  3  8  2  0  0  0  0
  3 17  1  0  0  0  0
  4  9  1  0  0  0  0
  4 17  2  0  0  0  0
  5 19  1  0  0  0  0
  6 21  1  0  0  0  0
  7 10  2  0  0  0  0
  7 20  1  0  0  0  0
  8 26  1  0  0  0  0
  9 26  2  0  0  0  0
 10 27  1  0  0  0  0
 11 12  2  0  0  0  0
 11 28  1  0  0  0  0
 12 29  1  0  0  0  0
 13 22  1  0  0  0  0
 13 27  2  0  0  0  0
 14 23  1  0  0  0  0
 14 25  2  0  0  0  0
 15 25  1  0  0  0  0
 15 30  2  0  0  0  0
 16 29  2  0  0  0  0
 16 31  1  0  0  0  0
 17 32  1  0  0  0  0
 18 32  1  0  0  0  0
 18 33  2  0  0  0  0
 18 34  1  0  0  0  0
 19 21  2  0  0  0  0
 19 41  1  0  0  0  0
 20 22  2  0  0  0  0
 20 42  1  0  0  0  0
 21 50  1  0  0  0  0
 22 43  1  0  0  0  0
 23 24  2  0  0  0  0
 23 59  1  0  0  0  0
 24 30  1  0  0  0  0
 24 60  1  0  0  0  0
 25 73  1  0  0  0  0
 26 85  1  0  0  0  0
 27 86  1  0  0  0  0
 28 31  2  0  0  0  0
 28 85  1  0  0  0  0
 29 87  1  0  0  0  0
 30 88  1  0  0  0  0
 31 89  1  0  0  0  0
 32 67  2  0  0  0  0
 33 68  1  0  0  0  0
 33 71  1  0  0  0  0
 34 72  1  0  0  0  0
 34 78  2  0  0  0  0
 35 51  1  0  0  0  0
 35 74  1  0  0  0  0
 35 79  2  0  0  0  0
 36 53  1  0  0  0  0
 36 61  1  0  0  0  0
 36 80  2  0  0  0  0
 37 62  1  0  0  0  0
 37 63  1  0  0  0  0
 37 81  2  0  0  0  0
 38 64  1  0  0  0  0
 38 69  1  0  0  0  0
 38 82  2  0  0  0  0
 39 65  1  0  0  0  0
 39 75  1  0  0  0  0
 39 83  2  0  0  0  0
 40 70  1  0  0  0  0
 40 76  1  0  0  0  0
 40 84  2  0  0  0  0
 41 44  1  0  0  0  0
 42 51  1  0  0  0  0
 43 69  1  0  0  0  0
 44 46  1  0  0  0  0
 45 47  1  0  0  0  0
 45 48  1  0  0  0  0
 46 50  1  0  0  0  0
 47 52  1  0  0  0  0
 48 70  1  0  0  0  0
 49 52  1  0  0  0  0
 49 70  1  0  0  0  0
 50 74  1  0  0  0  0
 51 69  1  0  0  0  0
 52 68  1  0  0  0  0
 54 65  1  0  0  0  0
 55 66  1  0  0  0  0
 56 66  1  0  0  0  0
 57 66  1  0  0  0  0
 58 77  1  0  0  0  0
 59 61  1  0  0  0  0
 60 76  1  0  0  0  0
 62 73  1  0  0  0  0
 63 86  1  0  0  0  0
 64 66  1  0  0  0  0
 64 75  1  0  0  0  0
 65 77  1  0  0  0  0
 67 68  1  0  0  0  0
M  CHG  1  77   1
M  ISO  4  40 100  63 101  76 100  86 101
M  END
> <Batch ID>
0167

> <Smiles>
CNC(C)C(=O)NC(C(=O)N1Cc2cc([101O:1][101CH2:1]C(=O)CNc3cc(F)c(C[100NH:0][100C:0](=O)N4CCCC(n5nc(-c6ccc(Oc7ccc(F)cc7F)cc6)c(C(N)=O)c5N)C4)c(CCC(C)=O)c3)ccc2CC1C(=O)NC1CCCc2ccccc21)C(C)(C)C

> <Shape>
0.229

> <Color>
0.204

> <Negative vol penalty>
0.000

$$$$

  -OEChem-04052304113D

 86 94  0     1  0  0  0  0  0999 V2000
  -26.6312  -31.2123   12.2630 C   0  0  0  0  0  0  0  0  0  0  0  0
  -27.1683  -30.6220   13.4025 C   0  0  0  0  0  0  0  0  0  0  0  0
  -23.1151   -9.8524   20.4370 C   0  0  0  0  0  0  0  0  0  0  0  0
  -23.7763  -10.3073   22.7158 C   0  0  0  0  0  0  0  0  0  0  0  0
  -25.6363  -32.1815   12.3845 C   0  0  0  0  0  0  0  0  0  0  0  0
  -26.7115  -31.0012   14.6642 C   0  0  0  0  0  0  0  0  0  0  0  0
  -25.8794  -27.0358   17.7020 C   0  0  0  0  0  0  0  0  0  0  0  0
  -22.3620   -8.7623   20.8731 C   0  0  0  0  0  0  0  0  0  0  0  0
  -23.0231   -9.2173   23.1519 C   0  0  0  0  0  0  0  0  0  0  0  0
  -26.9937  -26.4410   18.2922 C   0  0  0  0  0  0  0  0  0  0  0  0
  -19.7727   -8.5217   23.7614 C   0  0  0  0  0  0  0  0  0  0  0  0
  -18.9664   -8.7011   24.8854 C   0  0  0  0  0  0  0  0  0  0  0  0
  -26.5388  -27.6339   20.3390 C   0  0  0  0  0  0  0  0  0  0  0  0
  -29.7704  -17.9759   22.3941 C   0  0  0  0  0  0  0  0  0  0  0  0
  -31.6960  -19.0827   23.3448 C   0  0  0  0  0  0  0  0  0  0  0  0
  -31.9781  -17.0491   22.0713 C   0  0  0  0  0  0  0  0  0  0  0  0
  -20.1765   -6.9527   26.0325 C   0  0  0  0  0  0  0  0  0  0  0  0
  -23.8223  -10.6248   21.3583 C   0  0  0  0  0  0  0  0  0  0  0  0
  -24.1673  -13.0826   20.7685 C   0  0  0  0  0  0  0  0  0  0  0  0
  -25.1602  -32.5658   13.6479 C   0  0  0  0  0  0  0  0  0  0  0  0
  -25.0914  -27.9440   18.4236 C   0  0  0  0  0  0  0  0  0  0  0  0
  -25.7102  -31.9774   14.8027 C   0  0  0  0  0  0  0  0  0  0  0  0
  -25.4136  -28.2370   19.7565 C   0  0  0  0  0  0  0  0  0  0  0  0
  -30.3182  -19.0227   23.1355 C   0  0  0  0  0  0  0  0  0  0  0  0
  -30.6004  -16.9891   21.8620 C   0  0  0  0  0  0  0  0  0  0  0  0
  -22.3159   -8.4448   22.2306 C   0  0  0  0  0  0  0  0  0  0  0  0
  -27.3252  -26.7423   19.6100 C   0  0  0  0  0  0  0  0  0  0  0  0
  -20.7808   -7.5577   23.7729 C   0  0  0  0  0  0  0  0  0  0  0  0
  -19.1683   -7.9167   26.0209 C   0  0  0  0  0  0  0  0  0  0  0  0
  -32.5260  -18.0960   22.8127 C   0  0  0  0  0  0  0  0  0  0  0  0
  -20.9827   -6.7733   24.9085 C   0  0  0  0  0  0  0  0  0  0  0  0
  -24.6009  -11.7506   20.9084 C   0  0  0  0  0  0  0  0  0  0  0  0
  -25.2735  -13.7578   20.3136 C   0  0  0  0  0  0  0  0  0  0  0  0
  -29.0092  -22.9515   21.3111 C   0  0  0  0  0  0  0  0  0  0  0  0
  -22.8797  -13.6581   21.0267 C   0  0  0  0  0  0  0  0  0  0  0  0
  -29.4846  -24.1099   20.8202 C   0  0  0  0  0  0  0  0  0  0  0  0
  -29.6774  -22.1609   22.3849 C   0  0  0  0  0  0  0  0  0  0  0  0
  -24.3392  -31.0150   18.0962 C   0  0  0  0  0  0  0  0  0  0  0  0
  -22.3741  -30.3990   20.6024 C   0  0  0  0  0  0  0  0  0  0  0  0
  -21.6656  -28.4604   23.3203 C   0  0  0  0  0  0  0  0  0  0  0  0
  -30.7265  -14.8660   20.5119 C   0  0  0  0  0  0  0  0  0  0  0  0
  -24.1169  -33.6518   13.7309 C   0  0  0  0  0  0  0  0  0  0  0  0
  -23.8772  -28.5567   17.7811 C   0  0  0  0  0  0  0  0  0  0  0  0
  -24.5883  -29.1898   20.5808 C   0  0  0  0  0  0  0  0  0  0  0  0
  -23.4231  -33.7274   15.0886 C   0  0  0  0  0  0  0  0  0  0  0  0
  -29.7159  -12.0317   18.6085 C   0  0  0  0  0  0  0  0  0  0  0  0
  -24.4487  -33.6675   16.2162 C   0  0  0  0  0  0  0  0  0  0  0  0
  -28.2594  -11.8155   19.0257 C   0  0  0  0  0  0  0  0  0  0  0  0
  -30.5787  -12.4956   19.7808 C   0  0  0  0  0  0  0  0  0  0  0  0
  -28.6140  -13.4554   20.9157 C   0  0  0  0  0  0  0  0  0  0  0  0
  -25.2232  -32.3443   16.1878 C   0  0  1  0  0  0  0  0  0  0  0  0
  -23.4435  -29.8601   18.4448 C   0  0  1  0  0  0  0  0  0  0  0  0
  -27.6925  -13.0501   19.7537 C   0  0  2  0  0  0  0  0  0  0  0  0
  -20.0148  -28.2250   25.1956 C   0  0  0  0  0  0  0  0  0  0  0  0
  -23.6754  -32.7544   22.0405 C   0  0  0  0  0  0  0  0  0  0  0  0
  -22.7022  -31.8953   24.1812 C   0  0  0  0  0  0  0  0  0  0  0  0
  -21.1953  -32.6010   22.3228 C   0  0  0  0  0  0  0  0  0  0  0  0
  -20.8466  -25.7643   22.4155 C   0  0  0  0  0  0  0  0  0  0  0  0
  -29.4254  -20.0854   23.7080 C   0  0  0  0  0  0  0  0  0  0  0  0
  -28.7745  -24.8606   19.7324 C   0  0  0  0  0  0  0  0  0  1  0  0
  -22.5091  -30.4519   22.1050 C   0  0  1  0  0  0  0  0  0  0  0  0
  -20.3770  -27.8028   23.7802 C   0  0  2  0  0  0  0  0  0  0  0  0
  -22.5374  -31.9091   22.6465 C   0  0  0  0  0  0  0  0  0  0  0  0
  -25.8825  -11.5873   20.5696 N   0  0  0  0  0  0  0  0  0  0  0  0
  -26.2637  -12.8255   20.2123 N   0  0  0  0  0  0  0  0  0  0  0  0
  -23.4145  -29.7680   19.9059 N   0  0  0  0  0  0  0  0  0  0  0  0
  -29.9821  -13.6710   20.4190 N   0  0  0  0  0  0  0  0  0  0  0  0
  -25.4859  -15.0522   19.9943 N   0  0  0  0  0  0  0  0  0  0  0  0
  -21.8549  -12.8219   21.4902 N   0  0  0  0  0  0  0  0  0  0  0  0
  -30.0442  -15.9254   21.1089 N   0  0  0  0  0  0  0  0  0  0  0  0
  -28.9707  -21.0114   22.6972 N   0  0  0  0  0  0  0  0  0  0  0  0
  -24.4192  -31.2760   16.7416 N   0  0  0  0  0  0  0  0  0  0  0  0
  -21.4250  -29.6362   22.6413 N   0  0  0  0  0  0  0  0  0  0  0  0
  -20.5142  -26.3191   23.7529 N   0  3  0  0  0  0  0  0  0  0  0  0
  -22.6404  -14.8746   20.8360 O   0  0  0  0  0  0  0  0  0  0  0  0
  -30.7290  -22.5093   22.9111 O   0  0  0  0  0  0  0  0  0  0  0  0
  -24.9139  -31.6251   18.9901 O   0  0  0  0  0  0  0  0  0  0  0  0
  -21.3785  -30.8927   20.0669 O   0  0  0  0  0  0  0  0  0  0  0  0
  -22.7749  -27.9811   23.5445 O   0  0  0  0  0  0  0  0  0  0  0  0
  -31.8745  -14.9515   20.0681 O   0  0  0  0  0  0  0  0  0  0  0  0
  -30.6542  -24.7139   21.2314 O   0  0  0  0  0  0  0  0  0  0  0  0
  -21.5810   -7.3813   22.6565 O   0  0  0  0  0  0  0  0  0  0  0  0
  -28.4127  -26.1636   20.1883 O   0  0  0  0  0  0  0  0  0  1  0  0
  -18.3950   -8.0902   27.1008 F   0  0  0  0  0  0  0  0  0  0  0  0
  -33.8490  -18.1537   23.0138 F   0  0  0  0  0  0  0  0  0  0  0  0
  -21.9504   -5.8464   24.9259 F   0  0  0  0  0  0  0  0  0  0  0  0
  1  2  1  0  0  0  0
  1  5  2  0  0  0  0
  2  6  2  0  0  0  0
  3  8  2  0  0  0  0
  3 18  1  0  0  0  0
  4  9  1  0  0  0  0
  4 18  2  0  0  0  0
  5 20  1  0  0  0  0
  6 22  1  0  0  0  0
  7 10  2  0  0  0  0
  7 21  1  0  0  0  0
  8 26  1  0  0  0  0
  9 26  2  0  0  0  0
 10 27  1  0  0  0  0
 11 12  2  0  0  0  0
 11 28  1  0  0  0  0
 12 29  1  0  0  0  0
 13 23  1  0  0  0  0
 13 27  2  0  0  0  0
 14 24  2  0  0  0  0
 14 25  1  0  0  0  0
 15 24  1  0  0  0  0
 15 30  2  0  0  0  0
 16 25  2  0  0  0  0
 16 30  1  0  0  0  0
 17 29  2  0  0  0  0
 17 31  1  0  0  0  0
 18 32  1  0  0  0  0
 19 32  1  0  0  0  0
 19 33  2  0  0  0  0
 19 35  1  0  0  0  0
 20 22  2  0  0  0  0
 20 42  1  0  0  0  0
 21 23  2  0  0  0  0
 21 43  1  0  0  0  0
 22 51  1  0  0  0  0
 23 44  1  0  0  0  0
 24 59  1  0  0  0  0
 25 70  1  0  0  0  0
 26 82  1  0  0  0  0
 27 83  1  0  0  0  0
 28 31  2  0  0  0  0
 28 82  1  0  0  0  0
 29 84  1  0  0  0  0
 30 85  1  0  0  0  0
 31 86  1  0  0  0  0
 32 64  2  0  0  0  0
 33 65  1  0  0  0  0
 33 68  1  0  0  0  0
 34 36  2  0  0  0  0
 34 37  1  0  0  0  0
 35 69  1  0  0  0  0
 35 75  2  0  0  0  0
 36 60  1  0  0  0  0
 36 81  1  0  0  0  0
 37 71  1  0  0  0  0
 37 76  2  0  0  0  0
 38 52  1  0  0  0  0
 38 72  1  0  0  0  0
 38 77  2  0  0  0  0
 39 61  1  0  0  0  0
 39 66  1  0  0  0  0
 39 78  2  0  0  0  0
 40 62  1  0  0  0  0
 40 73  1  0  0  0  0
 40 79  2  0  0  0  0
 41 67  1  0  0  0  0
 41 70  1  0  0  0  0
 41 80  2  0  0  0  0
 42 45  1  0  0  0  0
 43 52  1  0  0  0  0
 44 66  1  0  0  0  0
 45 47  1  0  0  0  0
 46 48  1  0  0  0  0
 46 49  1  0  0  0  0
 47 51  1  0  0  0  0
 48 53  1  0  0  0  0
 49 67  1  0  0  0  0
 50 53  1  0  0  0  0
 50 67  1  0  0  0  0
 51 72  1  0  0  0  0
 52 66  1  0  0  0  0
 53 65  1  0  0  0  0
 54 62  1  0  0  0  0
 55 63  1  0  0  0  0
 56 63  1  0  0  0  0
 57 63  1  0  0  0  0
 58 74  1  0  0  0  0
 59 71  1  0  0  0  0
 60 83  1  0  0  0  0
 61 63  1  0  0  0  0
 61 73  1  0  0  0  0
 62 74  1  0  0  0  0
 64 65  1  0  0  0  0
M  CHG  1  74   1
M  ISO  4  41 100  60 101  70 100  83 101
M  END
> <Batch ID>
0167

> <Smiles>
CNC(C)C(=O)NC(C(=O)N1Cc2cc([101O:1][101CH2:1]C(=O)CC(=O)NCc3cc(F)cc([100NH:0][100C:0](=O)N4CCCC(n5nc(-c6ccc(Oc7ccc(F)cc7F)cc6)c(C(N)=O)c5N)C4)c3)ccc2CC1C(=O)NC1CCCc2ccccc21)C(C)(C)C

> <Shape>
0.295

> <Color>
0.210

> <Negative vol penalty>
0.000

$$$$

  -OEChem-04052304113D

 88 96  0     1  0  0  0  0  0999 V2000
  -19.4152  -33.2717   20.7961 C   0  0  0  0  0  0  0  0  0  0  0  0
  -20.7315  -32.8967   20.5467 C   0  0  0  0  0  0  0  0  0  0  0  0
  -22.4529  -11.4960   19.4972 C   0  0  0  0  0  0  0  0  0  0  0  0
  -23.1430  -10.0212   21.2821 C   0  0  0  0  0  0  0  0  0  0  0  0
  -18.6587  -32.5729   21.7360 C   0  0  0  0  0  0  0  0  0  0  0  0
  -21.2924  -31.8233   21.2378 C   0  0  0  0  0  0  0  0  0  0  0  0
  -25.3737  -27.7924   19.0930 C   0  0  0  0  0  0  0  0  0  0  0  0
  -21.3776  -10.6531   19.2165 C   0  0  0  0  0  0  0  0  0  0  0  0
  -22.0676   -9.1783   21.0014 C   0  0  0  0  0  0  0  0  0  0  0  0
  -26.7595  -27.7042   19.2174 C   0  0  0  0  0  0  0  0  0  0  0  0
  -18.7451   -9.0941   21.6131 C   0  0  0  0  0  0  0  0  0  0  0  0
  -17.9982   -8.6181   22.6907 C   0  0  0  0  0  0  0  0  0  0  0  0
  -27.9657  -18.6690   19.5807 C   0  0  0  0  0  0  0  0  0  0  0  0
  -26.4904  -26.1744   21.0631 C   0  0  0  0  0  0  0  0  0  0  0  0
  -28.0026  -20.9182   20.4619 C   0  0  0  0  0  0  0  0  0  0  0  0
  -18.5488   -6.3490   22.0701 C   0  0  0  0  0  0  0  0  0  0  0  0
  -23.3356  -11.1800   20.5300 C   0  0  0  0  0  0  0  0  0  0  0  0
  -29.3509  -18.5901   19.7239 C   0  0  0  0  0  0  0  0  0  0  0  0
  -24.4640  -13.1383   21.7130 C   0  0  0  0  0  0  0  0  0  0  0  0
  -19.2076  -31.4843   22.4320 C   0  0  0  0  0  0  0  0  0  0  0  0
  -24.5343  -27.0795   19.9611 C   0  0  0  0  0  0  0  0  0  0  0  0
  -20.5430  -31.1102   22.1889 C   0  0  0  0  0  0  0  0  0  0  0  0
  -25.0943  -26.2533   20.9459 C   0  0  0  0  0  0  0  0  0  0  0  0
  -30.0620  -19.6753   20.2361 C   0  0  0  0  0  0  0  0  0  0  0  0
  -29.3879  -20.8394   20.6051 C   0  0  0  0  0  0  0  0  0  0  0  0
  -21.1849   -9.4942   19.9685 C   0  0  0  0  0  0  0  0  0  0  0  0
  -27.3181  -26.8974   20.2044 C   0  0  0  0  0  0  0  0  0  0  0  0
  -19.3938   -8.1975   20.7639 C   0  0  0  0  0  0  0  0  0  0  0  0
  -17.9001   -7.2456   22.9192 C   0  0  0  0  0  0  0  0  0  0  0  0
  -27.2915  -19.8331   19.9497 C   0  0  0  0  0  0  0  0  0  0  0  0
  -19.2957   -6.8250   20.9925 C   0  0  0  0  0  0  0  0  0  0  0  0
  -24.4469  -12.0500   20.8202 C   0  0  0  0  0  0  0  0  0  0  0  0
  -25.7428  -13.6322   21.6279 C   0  0  0  0  0  0  0  0  0  0  0  0
  -30.0347  -17.3470   19.3253 C   0  0  0  0  0  0  0  0  0  0  0  0
  -30.4997  -22.8045   20.2515 C   0  0  0  0  0  0  0  0  0  0  0  0
  -23.4176  -13.6563   22.5450 C   0  0  0  0  0  0  0  0  0  0  0  0
  -22.3299  -27.8770   22.1079 C   0  0  0  0  0  0  0  0  0  0  0  0
  -30.5793  -25.3202   20.2539 C   0  0  0  0  0  0  0  0  0  0  0  0
  -21.8651  -24.6697   22.2472 C   0  0  0  0  0  0  0  0  0  0  0  0
  -23.1286  -21.5357   21.7695 C   0  0  0  0  0  0  0  0  0  0  0  0
  -30.0915  -15.2005   18.5002 C   0  0  0  0  0  0  0  0  0  0  0  0
  -18.3660  -30.7893   23.4728 C   0  0  0  0  0  0  0  0  0  0  0  0
  -23.0416  -27.1645   19.7966 C   0  0  0  0  0  0  0  0  0  0  0  0
  -24.2371  -25.4518   21.8900 C   0  0  0  0  0  0  0  0  0  0  0  0
  -18.9157  -29.4280   23.8910 C   0  0  0  0  0  0  0  0  0  0  0  0
  -29.8834  -11.7279   19.4500 C   0  0  0  0  0  0  0  0  0  0  0  0
  -20.4142  -29.5178   24.1621 C   0  0  0  0  0  0  0  0  0  0  0  0
  -28.4396  -11.5857   19.9315 C   0  0  0  0  0  0  0  0  0  0  0  0
  -29.9931  -12.7164   18.2931 C   0  0  0  0  0  0  0  0  0  0  0  0
  -27.9753  -13.9255   19.0775 C   0  0  0  0  0  0  0  0  0  0  0  0
  -21.1790  -29.9357   22.9004 C   0  0  1  0  0  0  0  0  0  0  0  0
  -22.2787  -26.7962   21.0654 C   0  0  1  0  0  0  0  0  0  0  0  0
  -27.8303  -12.9591   20.2654 C   0  0  1  0  0  0  0  0  0  0  0  0
  -31.9568  -18.7705   21.6063 C   0  0  0  0  0  0  0  0  0  0  0  0
  -23.1510  -19.0300   21.6327 C   0  0  0  0  0  0  0  0  0  0  0  0
  -22.2546  -24.8705   25.2668 C   0  0  0  0  0  0  0  0  0  0  0  0
  -22.5901  -22.3900   25.3183 C   0  0  0  0  0  0  0  0  0  0  0  0
  -20.4131  -23.3367   24.5521 C   0  0  0  0  0  0  0  0  0  0  0  0
  -22.2894  -21.5672   18.9316 C   0  0  0  0  0  0  0  0  0  0  0  0
  -31.5485  -19.5942   20.3902 C   0  0  0  0  0  0  0  0  0  0  0  0
  -29.1989  -25.5820   20.8273 C   0  0  0  0  0  0  0  0  0  1  0  0
  -31.2510  -24.0306   20.6887 C   0  0  2  0  0  0  0  0  0  0  0  0
  -22.4458  -23.5397   23.0625 C   0  0  1  0  0  0  0  0  0  0  0  0
  -22.5551  -20.3134   21.0754 C   0  0  2  0  0  0  0  0  0  0  0  0
  -21.9423  -23.5507   24.5335 C   0  0  0  0  0  0  0  0  0  0  0  0
  -25.6215  -11.8632   20.2124 N   0  0  0  0  0  0  0  0  0  0  0  0
  -30.0855  -21.9433   21.1228 N   0  0  0  0  0  0  0  0  0  0  0  0
  -29.3847  -16.3345   18.8522 N   0  0  0  0  0  0  0  0  0  0  0  0
  -26.3886  -12.8408   20.7241 N   0  0  0  0  0  0  0  0  0  0  0  0
  -22.7831  -25.5732   21.6932 N   0  0  0  0  0  0  0  0  0  0  0  0
  -29.3743  -13.9977   18.6355 N   0  0  0  0  0  0  0  0  0  0  0  0
  -26.3665  -14.6620   22.2386 N   0  0  0  0  0  0  0  0  0  0  0  0
  -22.1645  -13.0295   22.5106 N   0  0  0  0  0  0  0  0  0  0  0  0
  -21.3186  -28.8123   21.9987 N   0  0  0  0  0  0  0  0  0  0  0  0
  -22.1399  -22.3125   22.3354 N   0  0  0  0  0  0  0  0  0  0  0  0
  -32.6368  -23.9547   20.1421 N   0  3  0  0  0  0  0  0  0  0  0  0
  -22.8389  -20.3672   19.6134 N   0  3  0  0  0  0  0  0  0  0  0  0
  -23.5839  -14.6559   23.2845 O   0  0  0  0  0  0  0  0  0  0  0  0
  -23.2201  -27.8626   22.9499 O   0  0  0  0  0  0  0  0  0  0  0  0
  -31.1219  -26.1179   19.4896 O   0  0  0  0  0  0  0  0  0  0  0  0
  -20.6425  -24.7439   22.1010 O   0  0  0  0  0  0  0  0  0  0  0  0
  -24.3334  -21.7752   21.8091 O   0  0  0  0  0  0  0  0  0  0  0  0
  -31.2552  -15.2148   18.0921 O   0  0  0  0  0  0  0  0  0  0  0  0
  -20.1356   -8.6716   19.6950 O   0  0  0  0  0  0  0  0  0  0  0  0
  -28.6704  -26.8101   20.3285 O   0  0  0  0  0  0  0  0  0  1  0  0
  -17.1840   -6.7888   23.9549 F   0  0  0  0  0  0  0  0  0  0  0  0
  -25.9612  -19.9086   19.8127 F   0  0  0  0  0  0  0  0  0  0  0  0
  -19.9177   -5.9588   20.1808 F   0  0  0  0  0  0  0  0  0  0  0  0
  1  2  1  0  0  0  0
  1  5  2  0  0  0  0
  2  6  2  0  0  0  0
  3  8  2  0  0  0  0
  3 17  1  0  0  0  0
  4  9  1  0  0  0  0
  4 17  2  0  0  0  0
  5 20  1  0  0  0  0
  6 22  1  0  0  0  0
  7 10  2  0  0  0  0
  7 21  1  0  0  0  0
  8 26  1  0  0  0  0
  9 26  2  0  0  0  0
 10 27  1  0  0  0  0
 11 12  2  0  0  0  0
 11 28  1  0  0  0  0
 12 29  1  0  0  0  0
 13 18  2  0  0  0  0
 13 30  1  0  0  0  0
 14 23  1  0  0  0  0
 14 27  2  0  0  0  0
 15 25  1  0  0  0  0
 15 30  2  0  0  0  0
 16 29  2  0  0  0  0
 16 31  1  0  0  0  0
 17 32  1  0  0  0  0
 18 24  1  0  0  0  0
 18 34  1  0  0  0  0
 19 32  1  0  0  0  0
 19 33  2  0  0  0  0
 19 36  1  0  0  0  0
 20 22  2  0  0  0  0
 20 42  1  0  0  0  0
 21 23  2  0  0  0  0
 21 43  1  0  0  0  0
 22 51  1  0  0  0  0
 23 44  1  0  0  0  0
 24 25  2  0  0  0  0
 24 60  1  0  0  0  0
 25 67  1  0  0  0  0
 26 84  1  0  0  0  0
 27 85  1  0  0  0  0
 28 31  2  0  0  0  0
 28 84  1  0  0  0  0
 29 86  1  0  0  0  0
 30 87  1  0  0  0  0
 31 88  1  0  0  0  0
 32 66  2  0  0  0  0
 33 69  1  0  0  0  0
 33 72  1  0  0  0  0
 34 68  2  0  0  0  0
 35 62  1  0  0  0  0
 35 67  2  0  0  0  0
 36 73  1  0  0  0  0
 36 78  2  0  0  0  0
 37 52  1  0  0  0  0
 37 74  1  0  0  0  0
 37 79  2  0  0  0  0
 38 61  1  0  0  0  0
 38 62  1  0  0  0  0
 38 80  2  0  0  0  0
 39 63  1  0  0  0  0
 39 70  1  0  0  0  0
 39 81  2  0  0  0  0
 40 64  1  0  0  0  0
 40 75  1  0  0  0  0
 40 82  2  0  0  0  0
 41 68  1  0  0  0  0
 41 71  1  0  0  0  0
 41 83  2  0  0  0  0
 42 45  1  0  0  0  0
 43 52  1  0  0  0  0
 44 70  1  0  0  0  0
 45 47  1  0  0  0  0
 46 48  1  0  0  0  0
 46 49  1  0  0  0  0
 47 51  1  0  0  0  0
 48 53  1  0  0  0  0
 49 71  1  0  0  0  0
 50 53  1  0  0  0  0
 50 71  1  0  0  0  0
 51 74  1  0  0  0  0
 52 70  1  0  0  0  0
 53 69  1  0  0  0  0
 54 60  1  0  0  0  0
 55 64  1  0  0  0  0
 56 65  1  0  0  0  0
 57 65  1  0  0  0  0
 58 65  1  0  0  0  0
 59 77  1  0  0  0  0
 61 85  1  0  0  0  0
 62 76  1  0  0  0  0
 63 65  1  0  0  0  0
 63 75  1  0  0  0  0
 64 77  1  0  0  0  0
 66 69  1  0  0  0  0
M  CHG  2  76   1  77   1
M  ISO  4  41 100  61 101  68 100  85 101
M  END
> <Batch ID>
0167

> <Smiles>
CCc1c(C=[100N:0][100C:0](=O)N2CCCC(n3nc(-c4ccc(Oc5ccc(F)cc5F)cc4)c(C(N)=O)c3N)C2)cc(F)cc1NCC(=N)C(=O)[101CH2:1][101O:1]c1ccc2c(c1)CN(C(=O)C(NC(=O)C(C)NC)C(C)(C)C)C(C(=O)NC1CCCc3ccccc31)C2

> <Shape>
0.242

> <Color>
0.108

> <Negative vol penalty>
0.000

$$$$

  -OEChem-04052304113D

 89 97  0     1  0  0  0  0  0999 V2000
  -28.5638  -32.2860   27.0205 C   0  0  0  0  0  0  0  0  0  0  0  0
  -28.4237  -31.1444   26.2379 C   0  0  0  0  0  0  0  0  0  0  0  0
  -24.9181   -8.0528   21.3191 C   0  0  0  0  0  0  0  0  0  0  0  0
  -23.6762  -10.1236   21.3992 C   0  0  0  0  0  0  0  0  0  0  0  0
  -27.4589  -33.0994   27.2689 C   0  0  0  0  0  0  0  0  0  0  0  0
  -27.1783  -30.8149   25.7041 C   0  0  0  0  0  0  0  0  0  0  0  0
  -27.4552  -29.4219   20.8432 C   0  0  0  0  0  0  0  0  0  0  0  0
  -24.1099   -7.5290   22.3281 C   0  0  0  0  0  0  0  0  0  0  0  0
  -22.8679   -9.5998   22.4082 C   0  0  0  0  0  0  0  0  0  0  0  0
  -27.9037  -28.1292   20.5759 C   0  0  0  0  0  0  0  0  0  0  0  0
  -21.0182   -6.1870   22.5985 C   0  0  0  0  0  0  0  0  0  0  0  0
  -20.5374   -4.8879   22.4351 C   0  0  0  0  0  0  0  0  0  0  0  0
  -25.6225  -27.4076   20.2689 C   0  0  0  0  0  0  0  0  0  0  0  0
  -28.1752  -21.1942   18.3946 C   0  0  0  0  0  0  0  0  0  0  0  0
  -28.2941  -21.0776   20.8048 C   0  0  0  0  0  0  0  0  0  0  0  0
  -21.6600   -4.2171   24.4666 C   0  0  0  0  0  0  0  0  0  0  0  0
  -24.7013   -9.3501   20.8547 C   0  0  0  0  0  0  0  0  0  0  0  0
  -28.0360  -19.0551   19.5087 C   0  0  0  0  0  0  0  0  0  0  0  0
  -25.3195   -9.8159   18.4239 C   0  0  0  0  0  0  0  0  0  0  0  0
  -26.2015  -32.7849   26.7299 C   0  0  0  0  0  0  0  0  0  0  0  0
  -26.0839  -29.7152   20.8361 C   0  0  0  0  0  0  0  0  0  0  0  0
  -26.0553  -31.6241   25.9466 C   0  0  0  0  0  0  0  0  0  0  0  0
  -25.1592  -28.7054   20.5340 C   0  0  0  0  0  0  0  0  0  0  0  0
  -28.0429  -19.8070   18.3339 C   0  0  0  0  0  0  0  0  0  0  0  0
  -28.3009  -21.8295   19.6300 C   0  0  0  0  0  0  0  0  0  0  0  0
  -23.0848   -8.3025   22.8726 C   0  0  0  0  0  0  0  0  0  0  0  0
  -26.9872  -27.1212   20.2915 C   0  0  0  0  0  0  0  0  0  0  0  0
  -21.8200   -6.5012   23.6958 C   0  0  0  0  0  0  0  0  0  0  0  0
  -20.8583   -3.9029   23.3692 C   0  0  0  0  0  0  0  0  0  0  0  0
  -28.1617  -19.6903   20.7442 C   0  0  0  0  0  0  0  0  0  0  0  0
  -22.1408   -5.5162   24.6299 C   0  0  0  0  0  0  0  0  0  0  0  0
  -25.5362   -9.8919   19.8128 C   0  0  0  0  0  0  0  0  0  0  0  0
  -26.3884  -10.4792   17.8727 C   0  0  0  0  0  0  0  0  0  0  0  0
  -27.8966  -17.5757   19.4687 C   0  0  0  0  0  0  0  0  0  0  0  0
  -24.2477   -9.2006   17.6970 C   0  0  0  0  0  0  0  0  0  0  0  0
  -24.0014  -30.7559   23.0004 C   0  0  0  0  0  0  0  0  0  0  0  0
  -29.8273  -25.8507   19.8044 C   0  0  0  0  0  0  0  0  0  0  0  0
  -21.9952  -30.8527   20.4532 C   0  0  0  0  0  0  0  0  0  0  0  0
  -21.2121  -29.7032   17.3367 C   0  0  0  0  0  0  0  0  0  0  0  0
  -30.0390  -14.7495   19.9607 C   0  0  0  0  0  0  0  0  0  0  0  0
  -25.0263  -33.6689   27.0650 C   0  0  0  0  0  0  0  0  0  0  0  0
  -25.6177  -31.1207   21.1003 C   0  0  0  0  0  0  0  0  0  0  0  0
  -23.6776  -28.9730   20.4938 C   0  0  0  0  0  0  0  0  0  0  0  0
  -23.8216  -33.4524   26.1529 C   0  0  0  0  0  0  0  0  0  0  0  0
  -30.9758  -11.5427   18.7167 C   0  0  0  0  0  0  0  0  0  0  0  0
  -23.5395  -31.9626   25.9858 C   0  0  0  0  0  0  0  0  0  0  0  0
  -29.6700  -10.7471   18.7338 C   0  0  0  0  0  0  0  0  0  0  0  0
  -31.0693  -12.4965   19.9052 C   0  0  0  0  0  0  0  0  0  0  0  0
  -28.6119  -12.6189   20.0695 C   0  0  0  0  0  0  0  0  0  0  0  0
  -24.7261  -31.2466   25.3295 C   0  0  1  0  0  0  0  0  0  0  0  0
  -24.1686  -31.1909   21.5719 C   0  0  1  0  0  0  0  0  0  0  0  0
  -28.4499  -11.6781   18.8630 C   0  0  2  0  0  0  0  0  0  0  0  0
  -31.2001  -25.5616   20.3557 C   0  0  0  0  0  0  0  0  0  0  0  0
  -26.5100  -19.3105   16.4129 C   0  0  0  0  0  0  0  0  0  0  0  0
  -19.4925  -29.9398   15.5244 C   0  0  0  0  0  0  0  0  0  0  0  0
  -20.0534  -29.1486   22.0765 C   0  0  0  0  0  0  0  0  0  0  0  0
  -18.8373  -28.6326   19.9498 C   0  0  0  0  0  0  0  0  0  0  0  0
  -18.9811  -30.9866   20.7626 C   0  0  0  0  0  0  0  0  0  0  0  0
  -23.2223  -30.6805   15.3969 C   0  0  0  0  0  0  0  0  0  0  0  0
  -27.9101  -19.1523   16.9976 C   0  0  0  0  0  0  0  0  0  0  0  0
  -28.5676  -23.9446   20.9266 C   0  0  0  0  0  0  0  0  0  0  0  0
  -28.6333  -25.4453   20.6627 C   0  0  2  0  0  0  0  0  0  1  0  0
  -21.0418  -29.8777   19.8055 C   0  0  1  0  0  0  0  0  0  0  0  0
  -20.8275  -30.4317   16.0616 C   0  0  2  0  0  0  0  0  0  0  0  0
  -19.7562  -29.6556   20.6512 C   0  0  0  0  0  0  0  0  0  0  0  0
  -26.6550  -10.5514   20.1247 N   0  0  0  0  0  0  0  0  0  0  0  0
  -27.1509  -10.8958   18.9240 N   0  0  0  0  0  0  0  0  0  0  0  0
  -23.2709  -30.3617   20.7652 N   0  0  0  0  0  0  0  0  0  0  0  0
  -29.8832  -13.3533   19.9758 N   0  0  0  0  0  0  0  0  0  0  0  0
  -26.7411  -10.7410   16.5962 N   0  0  0  0  0  0  0  0  0  0  0  0
  -23.2306   -8.5619   18.4193 N   0  0  0  0  0  0  0  0  0  0  0  0
  -28.4323  -23.2065   19.6906 N   0  0  0  0  0  0  0  0  0  0  0  0
  -28.9432  -16.8586   20.0161 N   0  0  0  0  0  0  0  0  0  0  0  0
  -24.7408  -31.4952   23.9038 N   0  0  0  0  0  0  0  0  0  0  0  0
  -20.7921  -30.3836   18.4601 N   0  0  0  0  0  0  0  0  0  0  0  0
  -28.8651  -15.4835   20.0286 N   0  0  0  0  0  0  0  0  0  0  0  0
  -21.8635  -30.2199   15.0115 N   0  3  0  0  0  0  0  0  0  0  0  0
  -26.8831  -17.0793   18.9830 O   0  0  0  0  0  0  0  0  0  0  0  0
  -24.2020   -9.2027   16.4434 O   0  0  0  0  0  0  0  0  0  0  0  0
  -23.2556  -29.8198   23.2636 O   0  0  0  0  0  0  0  0  0  0  0  0
  -29.6889  -26.3993   18.7109 O   0  0  0  0  0  0  0  0  0  0  0  0
  -21.6242  -32.0094   20.6676 O   0  0  0  0  0  0  0  0  0  0  0  0
  -21.8207  -28.6354   17.3362 O   0  0  0  0  0  0  0  0  0  0  0  0
  -31.1452  -15.2966   19.8897 O   0  0  0  0  0  0  0  0  0  0  0  0
  -22.2958   -7.7916   23.8570 O   0  0  0  0  0  0  0  0  0  0  0  0
  -27.4223  -25.8584   20.0308 O   0  0  0  0  0  0  0  0  0  1  0  0
  -20.3953   -2.6558   23.2130 F   0  0  0  0  0  0  0  0  0  0  0  0
  -28.1565  -18.9787   21.8805 F   0  0  0  0  0  0  0  0  0  0  0  0
  -22.9097   -5.8123   25.6868 F   0  0  0  0  0  0  0  0  0  0  0  0
  1  2  1  0  0  0  0
  1  5  2  0  0  0  0
  2  6  2  0  0  0  0
  3  8  2  0  0  0  0
  3 17  1  0  0  0  0
  4  9  1  0  0  0  0
  4 17  2  0  0  0  0
  5 20  1  0  0  0  0
  6 22  1  0  0  0  0
  7 10  2  0  0  0  0
  7 21  1  0  0  0  0
  8 26  1  0  0  0  0
  9 26  2  0  0  0  0
 10 27  1  0  0  0  0
 11 12  2  0  0  0  0
 11 28  1  0  0  0  0
 12 29  1  0  0  0  0
 13 23  1  0  0  0  0
 13 27  2  0  0  0  0
 14 24  1  0  0  0  0
 14 25  2  0  0  0  0
 15 25  1  0  0  0  0
 15 30  2  0  0  0  0
 16 29  2  0  0  0  0
 16 31  1  0  0  0  0
 17 32  1  0  0  0  0
 18 24  2  0  0  0  0
 18 30  1  0  0  0  0
 18 34  1  0  0  0  0
 19 32  1  0  0  0  0
 19 33  2  0  0  0  0
 19 35  1  0  0  0  0
 20 22  2  0  0  0  0
 20 41  1  0  0  0  0
 21 23  2  0  0  0  0
 21 42  1  0  0  0  0
 22 50  1  0  0  0  0
 23 43  1  0  0  0  0
 24 60  1  0  0  0  0
 25 72  1  0  0  0  0
 26 85  1  0  0  0  0
 27 86  1  0  0  0  0
 28 31  2  0  0  0  0
 28 85  1  0  0  0  0
 29 87  1  0  0  0  0
 30 88  1  0  0  0  0
 31 89  1  0  0  0  0
 32 66  2  0  0  0  0
 33 67  1  0  0  0  0
 33 70  1  0  0  0  0
 34 73  1  0  0  0  0
 34 78  2  0  0  0  0
 35 71  1  0  0  0  0
 35 79  2  0  0  0  0
 36 51  1  0  0  0  0
 36 74  1  0  0  0  0
 36 80  2  0  0  0  0
 37 53  1  0  0  0  0
 37 62  1  0  0  0  0
 37 81  2  0  0  0  0
 38 63  1  0  0  0  0
 38 68  1  0  0  0  0
 38 82  2  0  0  0  0
 39 64  1  0  0  0  0
 39 75  1  0  0  0  0
 39 83  2  0  0  0  0
 40 69  1  0  0  0  0
 40 76  1  0  0  0  0
 40 84  2  0  0  0  0
 41 44  1  0  0  0  0
 42 51  1  0  0  0  0
 43 68  1  0  0  0  0
 44 46  1  0  0  0  0
 45 47  1  0  0  0  0
 45 48  1  0  0  0  0
 46 50  1  0  0  0  0
 47 52  1  0  0  0  0
 48 69  1  0  0  0  0
 49 52  1  0  0  0  0
 49 69  1  0  0  0  0
 50 74  1  0  0  0  0
 51 68  1  0  0  0  0
 52 67  1  0  0  0  0
 54 60  1  0  0  0  0
 55 64  1  0  0  0  0
 56 65  1  0  0  0  0
 57 65  1  0  0  0  0
 58 65  1  0  0  0  0
 59 77  1  0  0  0  0
 61 62  1  0  0  0  0
 61 72  1  0  0  0  0
 62 86  1  0  0  0  0
 63 65  1  0  0  0  0
 63 75  1  0  0  0  0
 64 77  1  0  0  0  0
 66 67  1  0  0  0  0
 73 76  1  0  0  0  0
M  CHG  1  77   1
M  ISO  4  40 100  62 101  76 100  86 101
M  END
> <Batch ID>
0167

> <Smiles>
CCc1cc(NC[101CH:1](C(C)=O)[101O:1]c2ccc3c(c2)CN(C(=O)C(NC(=O)C(C)NC)C(C)(C)C)C(C(=O)NC2CCCc4ccccc42)C3)cc(F)c1C(=O)N[100NH:0][100C:0](=O)N1CCCC(n2nc(-c3ccc(Oc4ccc(F)cc4F)cc3)c(C(N)=O)c2N)C1

> <Shape>
0.323

> <Color>
0.080

> <Negative vol penalty>
0.000

$$$$

  -OEChem-04052304113D

 88 96  0     1  0  0  0  0  0999 V2000
  -19.9860   -7.2940   22.0768 C   0  0  0  0  0  0  0  0  0  0  0  0
  -20.4630   -8.4680   22.6509 C   0  0  0  0  0  0  0  0  0  0  0  0
  -28.1648  -19.2234   20.0045 C   0  0  0  0  0  0  0  0  0  0  0  0
  -25.7293  -30.5697   20.1498 C   0  0  0  0  0  0  0  0  0  0  0  0
  -25.1316  -28.9623   21.8515 C   0  0  0  0  0  0  0  0  0  0  0  0
  -27.6089  -19.0601   21.2733 C   0  0  0  0  0  0  0  0  0  0  0  0
  -20.8646   -6.4335   21.4200 C   0  0  0  0  0  0  0  0  0  0  0  0
  -21.8193   -8.7816   22.5695 C   0  0  0  0  0  0  0  0  0  0  0  0
  -22.6222  -13.6248   21.3271 C   0  0  0  0  0  0  0  0  0  0  0  0
  -28.6763  -20.4632   19.6214 C   0  0  0  0  0  0  0  0  0  0  0  0
  -24.4332  -31.0841   20.1803 C   0  0  0  0  0  0  0  0  0  0  0  0
  -23.8354  -29.4767   21.8820 C   0  0  0  0  0  0  0  0  0  0  0  0
  -22.4706  -14.5746   22.3363 C   0  0  0  0  0  0  0  0  0  0  0  0
  -22.6227  -33.1600   22.1413 C   0  0  0  0  0  0  0  0  0  0  0  0
  -22.4760  -34.5470   22.1621 C   0  0  0  0  0  0  0  0  0  0  0  0
  -24.8643  -14.6379   22.6282 C   0  0  0  0  0  0  0  0  0  0  0  0
  -21.2350  -34.4469   20.0916 C   0  0  0  0  0  0  0  0  0  0  0  0
  -26.0785  -29.5088   20.9853 C   0  0  0  0  0  0  0  0  0  0  0  0
  -27.5644  -20.1368   22.1590 C   0  0  0  0  0  0  0  0  0  0  0  0
  -28.5152  -29.3910   21.7312 C   0  0  0  0  0  0  0  0  0  0  0  0
  -22.2307   -6.7414   21.3222 C   0  0  0  0  0  0  0  0  0  0  0  0
  -23.8975  -13.1656   20.9676 C   0  0  0  0  0  0  0  0  0  0  0  0
  -22.7173   -7.9237   21.9120 C   0  0  0  0  0  0  0  0  0  0  0  0
  -25.0296  -13.6841   21.6123 C   0  0  0  0  0  0  0  0  0  0  0  0
  -28.6319  -21.5399   20.5071 C   0  0  0  0  0  0  0  0  0  0  0  0
  -23.4862  -30.5376   21.0464 C   0  0  0  0  0  0  0  0  0  0  0  0
  -23.5915  -15.0792   22.9890 C   0  0  0  0  0  0  0  0  0  0  0  0
  -22.0756  -32.4165   21.0956 C   0  0  0  0  0  0  0  0  0  0  0  0
  -21.7821  -35.1904   21.1373 C   0  0  0  0  0  0  0  0  0  0  0  0
  -21.3817  -33.0599   20.0708 C   0  0  0  0  0  0  0  0  0  0  0  0
  -28.0759  -21.3767   21.7759 C   0  0  0  0  0  0  0  0  0  0  0  0
  -27.4172  -28.9766   20.9538 C   0  0  0  0  0  0  0  0  0  0  0  0
  -29.5472  -28.5792   21.3281 C   0  0  0  0  0  0  0  0  0  0  0  0
  -26.9759  -19.9603   23.5018 C   0  0  0  0  0  0  0  0  0  0  0  0
  -28.5952  -30.4178   22.7287 C   0  0  0  0  0  0  0  0  0  0  0  0
  -25.3601  -10.3438   21.0112 C   0  0  0  0  0  0  0  0  0  0  0  0
  -24.4411  -20.7030   25.2540 C   0  0  0  0  0  0  0  0  0  0  0  0
  -23.9787  -18.2708   24.6491 C   0  0  0  0  0  0  0  0  0  0  0  0
  -27.7122  -11.9768   19.4869 C   0  0  0  0  0  0  0  0  0  0  0  0
  -29.2046  -14.9765   18.8379 C   0  0  0  0  0  0  0  0  0  0  0  0
  -29.7392  -23.1258   18.8931 C   0  0  0  0  0  0  0  0  0  0  0  0
  -23.1500   -5.7571   20.6433 C   0  0  0  0  0  0  0  0  0  0  0  0
  -24.0459  -12.1604   19.8585 C   0  0  0  0  0  0  0  0  0  0  0  0
  -26.4221  -13.2389   21.2498 C   0  0  0  0  0  0  0  0  0  0  0  0
  -24.5095   -6.3465   20.2765 C   0  0  0  0  0  0  0  0  0  0  0  0
  -31.1098  -26.1159   17.5301 C   0  0  0  0  0  0  0  0  0  0  0  0
  -25.0850   -7.1323   21.4504 C   0  0  0  0  0  0  0  0  0  0  0  0
  -30.4229  -27.2264   18.3283 C   0  0  0  0  0  0  0  0  0  0  0  0
  -30.1655  -24.9467   17.2566 C   0  0  0  0  0  0  0  0  0  0  0  0
  -28.8180  -25.5016   19.2429 C   0  0  0  0  0  0  0  0  0  0  0  0
  -24.1775   -8.3108   21.8232 C   0  0  1  0  0  0  0  0  0  0  0  0
  -25.3575  -11.3842   19.9272 C   0  0  1  0  0  0  0  0  0  0  0  0
  -29.7485  -26.6726   19.5988 C   0  0  2  0  0  0  0  0  0  0  0  0
  -24.3599  -21.0043   26.7288 C   0  0  0  0  0  0  0  0  0  0  0  0
  -30.7847  -16.6088   17.7720 C   0  0  0  0  0  0  0  0  0  0  0  0
  -29.6346  -10.9565   21.6254 C   0  0  0  0  0  0  0  0  0  0  0  0
  -31.2638  -12.7138   20.9002 C   0  0  0  0  0  0  0  0  0  0  0  0
  -30.5549  -10.9362   19.3001 C   0  0  0  0  0  0  0  0  0  0  0  0
  -27.3521  -15.4760   16.5845 C   0  0  0  0  0  0  0  0  0  0  0  0
  -24.5103  -16.9405   24.1497 C   0  0  0  0  0  0  0  0  0  1  0  0
  -25.0057  -19.3588   24.8633 C   0  0  1  0  0  0  0  0  0  0  0  0
  -28.9236  -12.7641   19.9245 C   0  0  1  0  0  0  0  0  0  0  0  0
  -29.6566  -15.6162   17.5375 C   0  0  2  0  0  0  0  0  0  0  0  0
  -30.0680  -11.8498   20.4460 C   0  0  0  0  0  0  0  0  0  0  0  0
  -27.7230  -27.9792   20.1198 N   0  0  0  0  0  0  0  0  0  0  0  0
  -29.0249  -27.7600   20.3708 N   0  0  0  0  0  0  0  0  0  0  0  0
  -26.5148  -12.2498   20.1633 N   0  0  0  0  0  0  0  0  0  0  0  0
  -29.5672  -24.4718   18.5062 N   0  0  0  0  0  0  0  0  0  0  0  0
  -30.8413  -28.4933   21.7026 N   0  0  0  0  0  0  0  0  0  0  0  0
  -27.4409  -31.1572   23.0205 N   0  0  0  0  0  0  0  0  0  0  0  0
  -29.1532  -22.7978   20.1152 N   0  0  0  0  0  0  0  0  0  0  0  0
  -25.6901  -19.5821   23.5985 N   0  0  0  0  0  0  0  0  0  0  0  0
  -24.3565   -9.4018   20.8893 N   0  0  0  0  0  0  0  0  0  0  0  0
  -29.2978  -13.6016   18.7901 N   0  0  0  0  0  0  0  0  0  0  0  0
  -27.7508  -20.1882   24.5623 N   0  3  0  0  0  0  0  0  0  0  0  0
  -28.5226  -16.3372   16.8933 N   0  3  0  0  0  0  0  0  0  0  0  0
  -29.6629  -30.6832   23.3312 O   0  0  0  0  0  0  0  0  0  0  0  0
  -26.2107  -10.3912   21.8921 O   0  0  0  0  0  0  0  0  0  0  0  0
  -24.0754  -21.5295   24.4183 O   0  0  0  0  0  0  0  0  0  0  0  0
  -22.7802  -18.4451   24.8689 O   0  0  0  0  0  0  0  0  0  0  0  0
  -27.8226  -11.1551   18.5735 O   0  0  0  0  0  0  0  0  0  0  0  0
  -28.8118  -15.6311   19.8011 O   0  0  0  0  0  0  0  0  0  0  0  0
  -30.3837  -22.3301   18.2050 O   0  0  0  0  0  0  0  0  0  0  0  0
  -22.2214  -31.0395   21.0767 O   0  0  0  0  0  0  0  0  0  0  0  0
  -23.4463  -16.0058   23.9750 O   0  0  0  0  0  0  0  0  0  1  0  0
  -21.6400  -36.5221   21.1583 F   0  0  0  0  0  0  0  0  0  0  0  0
  -20.8529  -32.3508   19.0641 F   0  0  0  0  0  0  0  0  0  0  0  0
  -28.0327  -22.4112   22.6292 F   0  0  0  0  0  0  0  0  0  0  0  0
  1  2  1  0  0  0  0
  1  7  2  0  0  0  0
  2  8  2  0  0  0  0
  3  6  2  0  0  0  0
  3 10  1  0  0  0  0
  4 11  2  0  0  0  0
  4 18  1  0  0  0  0
  5 12  1  0  0  0  0
  5 18  2  0  0  0  0
  6 19  1  0  0  0  0
  7 21  1  0  0  0  0
  8 23  1  0  0  0  0
  9 13  2  0  0  0  0
  9 22  1  0  0  0  0
 10 25  2  0  0  0  0
 11 26  1  0  0  0  0
 12 26  2  0  0  0  0
 13 27  1  0  0  0  0
 14 15  2  0  0  0  0
 14 28  1  0  0  0  0
 15 29  1  0  0  0  0
 16 24  1  0  0  0  0
 16 27  2  0  0  0  0
 17 29  2  0  0  0  0
 17 30  1  0  0  0  0
 18 32  1  0  0  0  0
 19 31  2  0  0  0  0
 19 34  1  0  0  0  0
 20 32  1  0  0  0  0
 20 33  2  0  0  0  0
 20 35  1  0  0  0  0
 21 23  2  0  0  0  0
 21 42  1  0  0  0  0
 22 24  2  0  0  0  0
 22 43  1  0  0  0  0
 23 51  1  0  0  0  0
 24 44  1  0  0  0  0
 25 31  1  0  0  0  0
 25 71  1  0  0  0  0
 26 84  1  0  0  0  0
 27 85  1  0  0  0  0
 28 30  2  0  0  0  0
 28 84  1  0  0  0  0
 29 86  1  0  0  0  0
 30 87  1  0  0  0  0
 31 88  1  0  0  0  0
 32 65  2  0  0  0  0
 33 66  1  0  0  0  0
 33 69  1  0  0  0  0
 34 72  1  0  0  0  0
 34 75  2  0  0  0  0
 35 70  1  0  0  0  0
 35 77  2  0  0  0  0
 36 52  1  0  0  0  0
 36 73  1  0  0  0  0
 36 78  2  0  0  0  0
 37 54  1  0  0  0  0
 37 61  1  0  0  0  0
 37 79  2  0  0  0  0
 38 60  1  0  0  0  0
 38 61  1  0  0  0  0
 38 80  2  0  0  0  0
 39 62  1  0  0  0  0
 39 67  1  0  0  0  0
 39 81  2  0  0  0  0
 40 63  1  0  0  0  0
 40 74  1  0  0  0  0
 40 82  2  0  0  0  0
 41 68  1  0  0  0  0
 41 71  1  0  0  0  0
 41 83  2  0  0  0  0
 42 45  1  0  0  0  0
 43 52  1  0  0  0  0
 44 67  1  0  0  0  0
 45 47  1  0  0  0  0
 46 48  1  0  0  0  0
 46 49  1  0  0  0  0
 47 51  1  0  0  0  0
 48 53  1  0  0  0  0
 49 68  1  0  0  0  0
 50 53  1  0  0  0  0
 50 68  1  0  0  0  0
 51 73  1  0  0  0  0
 52 67  1  0  0  0  0
 53 66  1  0  0  0  0
 55 63  1  0  0  0  0
 56 64  1  0  0  0  0
 57 64  1  0  0  0  0
 58 64  1  0  0  0  0
 59 76  1  0  0  0  0
 60 85  1  0  0  0  0
 61 72  1  0  0  0  0
 62 64  1  0  0  0  0
 62 74  1  0  0  0  0
 63 76  1  0  0  0  0
 65 66  1  0  0  0  0
M  CHG  2  75   1  76   1
M  ISO  4  41 100  60 101  71 100  85 101
M  END
> <Batch ID>
0167

> <Smiles>
CNC(C)C(=O)NC(C(=O)N1Cc2cc([101O:1][101CH2:1]C(=O)C(NC(=N)c3cccc([100NH:0][100C:0](=O)N4CCCC(n5nc(-c6ccc(Oc7ccc(F)cc7F)cc6)c(C(N)=O)c5N)C4)c3F)C(C)=O)ccc2CC1C(=O)NC1CCCc2ccccc21)C(C)(C)C

> <Shape>
0.271

> <Color>
0.039

> <Negative vol penalty>
0.000

$$$$

  -OEChem-04052304113D

 86 94  0     1  0  0  0  0  0999 V2000
  -29.4482  -23.3868   17.5964 C   0  0  0  0  0  0  0  0  0  0  0  0
  -28.1368  -23.8022   17.8043 C   0  0  0  0  0  0  0  0  0  0  0  0
  -26.4105  -15.2260   19.7544 C   0  0  0  0  0  0  0  0  0  0  0  0
  -27.7949  -14.7095   21.6658 C   0  0  0  0  0  0  0  0  0  0  0  0
  -30.3979  -23.5500   18.6040 C   0  0  0  0  0  0  0  0  0  0  0  0
  -27.7742  -24.3801   19.0204 C   0  0  0  0  0  0  0  0  0  0  0  0
  -24.9051  -28.5110   18.4296 C   0  0  0  0  0  0  0  0  0  0  0  0
  -26.0165  -13.8901   19.6787 C   0  0  0  0  0  0  0  0  0  0  0  0
  -27.4009  -13.3736   21.5902 C   0  0  0  0  0  0  0  0  0  0  0  0
  -23.5579  -28.3130   18.1302 C   0  0  0  0  0  0  0  0  0  0  0  0
  -24.3660  -10.6860   19.2043 C   0  0  0  0  0  0  0  0  0  0  0  0
  -23.0109  -10.4196   19.0087 C   0  0  0  0  0  0  0  0  0  0  0  0
  -22.9929  -28.7030   20.4427 C   0  0  0  0  0  0  0  0  0  0  0  0
  -23.9439  -24.2396   23.5473 C   0  0  0  0  0  0  0  0  0  0  0  0
  -22.1804  -24.9829   22.0726 C   0  0  0  0  0  0  0  0  0  0  0  0
  -22.4871  -11.5729   21.0661 C   0  0  0  0  0  0  0  0  0  0  0  0
  -27.2997  -15.6357   20.7479 C   0  0  0  0  0  0  0  0  0  0  0  0
  -28.3743  -17.7623   19.8366 C   0  0  0  0  0  0  0  0  0  0  0  0
  -30.0490  -24.1389   19.8296 C   0  0  0  0  0  0  0  0  0  0  0  0
  -25.3081  -28.7962   19.7421 C   0  0  0  0  0  0  0  0  0  0  0  0
  -28.7198  -24.5501   20.0459 C   0  0  0  0  0  0  0  0  0  0  0  0
  -24.3456  -28.9067   20.7557 C   0  0  0  0  0  0  0  0  0  0  0  0
  -23.7358  -22.9240   23.1330 C   0  0  0  0  0  0  0  0  0  0  0  0
  -21.9723  -23.6674   21.6583 C   0  0  0  0  0  0  0  0  0  0  0  0
  -26.5117  -12.9639   20.5966 C   0  0  0  0  0  0  0  0  0  0  0  0
  -22.6019  -28.4062   19.1373 C   0  0  0  0  0  0  0  0  0  0  0  0
  -24.7817  -11.3959   20.3309 C   0  0  0  0  0  0  0  0  0  0  0  0
  -22.0714  -10.8631   19.9395 C   0  0  0  0  0  0  0  0  0  0  0  0
  -23.1661  -25.2691   23.0171 C   0  0  0  0  0  0  0  0  0  0  0  0
  -23.8423  -11.8393   21.2617 C   0  0  0  0  0  0  0  0  0  0  0  0
  -22.7500  -22.6379   22.1886 C   0  0  0  0  0  0  0  0  0  0  0  0
  -27.7075  -17.0155   20.8262 C   0  0  0  0  0  0  0  0  0  0  0  0
  -28.5318  -19.0076   20.3941 C   0  0  0  0  0  0  0  0  0  0  0  0
  -28.8122  -17.3658   18.5302 C   0  0  0  0  0  0  0  0  0  0  0  0
  -27.1659  -27.3553   21.8813 C   0  0  0  0  0  0  0  0  0  0  0  0
  -20.8905  -25.0978   19.0102 C   0  0  0  0  0  0  0  0  0  0  0  0
  -26.6446  -30.0669   23.5836 C   0  0  0  0  0  0  0  0  0  0  0  0
  -24.6526  -32.7718   24.1857 C   0  0  0  0  0  0  0  0  0  0  0  0
  -25.5452  -21.9957   24.6198 C   0  0  0  0  0  0  0  0  0  0  0  0
  -31.0992  -24.2512   20.9062 C   0  0  0  0  0  0  0  0  0  0  0  0
  -26.7625  -29.0334   20.0436 C   0  0  0  0  0  0  0  0  0  0  0  0
  -24.7242  -29.2307   22.1770 C   0  0  0  0  0  0  0  0  0  0  0  0
  -30.7207  -25.2143   22.0283 C   0  0  0  0  0  0  0  0  0  0  0  0
  -29.0105  -21.1783   24.6359 C   0  0  0  0  0  0  0  0  0  0  0  0
  -29.2871  -24.9642   22.4856 C   0  0  0  0  0  0  0  0  0  0  0  0
  -29.1314  -20.0903   23.5664 C   0  0  0  0  0  0  0  0  0  0  0  0
  -27.7043  -21.0609   25.4193 C   0  0  0  0  0  0  0  0  0  0  0  0
  -26.6098  -19.9250   23.5270 C   0  0  0  0  0  0  0  0  0  0  0  0
  -28.2936  -25.2038   21.3424 C   0  0  1  0  0  0  0  0  0  0  0  0
  -27.1124  -28.8107   21.5117 C   0  0  1  0  0  0  0  0  0  0  0  0
  -27.8798  -20.0415   22.6683 C   0  0  2  0  0  0  0  0  0  0  0  0
  -23.9344  -34.9577   25.1873 C   0  0  0  0  0  0  0  0  0  0  0  0
  -20.2625  -28.1324   16.7025 C   0  0  0  0  0  0  0  0  0  0  0  0
  -25.7261  -28.2932   25.8902 C   0  0  0  0  0  0  0  0  0  0  0  0
  -24.6841  -30.3144   26.9377 C   0  0  0  0  0  0  0  0  0  0  0  0
  -27.1500  -30.2337   26.5694 C   0  0  0  0  0  0  0  0  0  0  0  0
  -26.0221  -34.3238   22.0703 C   0  0  0  0  0  0  0  0  0  0  0  0
  -20.1025  -26.1819   18.2848 C   0  0  0  0  0  0  0  0  0  0  0  0
  -20.1439  -24.3850   20.1196 C   0  0  0  0  0  0  0  0  0  0  0  0
  -25.6091  -30.5179   24.5852 C   0  0  1  0  0  0  0  0  0  0  0  0
  -24.9762  -34.2472   24.3372 C   0  0  2  0  0  0  0  0  0  0  0  0
  -20.9814  -27.3243   17.7737 C   0  0  2  0  0  0  0  0  0  1  0  0
  -25.7851  -29.8318   25.9693 C   0  0  0  0  0  0  0  0  0  0  0  0
  -27.4585  -17.7269   21.9289 N   0  0  0  0  0  0  0  0  0  0  0  0
  -27.9718  -18.9338   21.6355 N   0  0  0  0  0  0  0  0  0  0  0  0
  -26.1595  -29.4478   22.4229 N   0  0  0  0  0  0  0  0  0  0  0  0
  -26.5621  -21.0246   24.5034 N   0  0  0  0  0  0  0  0  0  0  0  0
  -29.0933  -20.1477   19.9386 N   0  0  0  0  0  0  0  0  0  0  0  0
  -30.1013  -16.8338   18.3905 N   0  0  0  0  0  0  0  0  0  0  0  0
  -24.5269  -21.8804   23.6741 N   0  0  0  0  0  0  0  0  0  0  0  0
  -20.9911  -23.3857   20.7185 N   0  0  0  0  0  0  0  0  0  0  0  0
  -28.0791  -26.6218   21.1481 N   0  0  0  0  0  0  0  0  0  0  0  0
  -25.6876  -31.9741   24.6259 N   0  0  0  0  0  0  0  0  0  0  0  0
  -25.0226  -34.9071   23.0018 N   0  3  0  0  0  0  0  0  0  0  0  0
  -28.0880  -17.4951   17.5141 O   0  0  0  0  0  0  0  0  0  0  0  0
  -26.4340  -26.9296   22.7672 O   0  0  0  0  0  0  0  0  0  0  0  0
  -22.0528  -24.8231   18.7152 O   0  0  0  0  0  0  0  0  0  0  0  0
  -27.8394  -30.2632   23.8190 O   0  0  0  0  0  0  0  0  0  0  0  0
  -23.5868  -32.3673   23.7264 O   0  0  0  0  0  0  0  0  0  0  0  0
  -25.5892  -22.8820   25.4769 O   0  0  0  0  0  0  0  0  0  0  0  0
  -26.1273  -11.6602   20.5233 O   0  0  0  0  0  0  0  0  0  0  0  0
  -21.2863  -28.2128   18.8480 O   0  0  0  0  0  0  0  0  0  1  0  0
  -20.7700  -10.6085   19.7507 F   0  0  0  0  0  0  0  0  0  0  0  0
  -23.3669  -26.5325   23.4140 F   0  0  0  0  0  0  0  0  0  0  0  0
  -24.2355  -12.5227   22.3453 F   0  0  0  0  0  0  0  0  0  0  0  0
  -22.5488  -21.3724   21.7901 F   0  0  0  0  0  0  0  0  0  0  0  0
  1  2  1  0  0  0  0
  1  5  2  0  0  0  0
  2  6  2  0  0  0  0
  3  8  2  0  0  0  0
  3 17  1  0  0  0  0
  4  9  1  0  0  0  0
  4 17  2  0  0  0  0
  5 19  1  0  0  0  0
  6 21  1  0  0  0  0
  7 10  2  0  0  0  0
  7 20  1  0  0  0  0
  8 25  1  0  0  0  0
  9 25  2  0  0  0  0
 10 26  1  0  0  0  0
 11 12  2  0  0  0  0
 11 27  1  0  0  0  0
 12 28  1  0  0  0  0
 13 22  1  0  0  0  0
 13 26  2  0  0  0  0
 14 23  2  0  0  0  0
 14 29  1  0  0  0  0
 15 24  1  0  0  0  0
 15 29  2  0  0  0  0
 16 28  2  0  0  0  0
 16 30  1  0  0  0  0
 17 32  1  0  0  0  0
 18 32  1  0  0  0  0
 18 33  2  0  0  0  0
 18 34  1  0  0  0  0
 19 21  2  0  0  0  0
 19 40  1  0  0  0  0
 20 22  2  0  0  0  0
 20 41  1  0  0  0  0
 21 49  1  0  0  0  0
 22 42  1  0  0  0  0
 23 31  1  0  0  0  0
 23 70  1  0  0  0  0
 24 31  2  0  0  0  0
 24 71  1  0  0  0  0
 25 81  1  0  0  0  0
 26 82  1  0  0  0  0
 27 30  2  0  0  0  0
 27 81  1  0  0  0  0
 28 83  1  0  0  0  0
 29 84  1  0  0  0  0
 30 85  1  0  0  0  0
 31 86  1  0  0  0  0
 32 64  2  0  0  0  0
 33 65  1  0  0  0  0
 33 68  1  0  0  0  0
 34 69  1  0  0  0  0
 34 75  2  0  0  0  0
 35 50  1  0  0  0  0
 35 72  1  0  0  0  0
 35 76  2  0  0  0  0
 36 58  1  0  0  0  0
 36 59  1  0  0  0  0
 36 77  2  0  0  0  0
 37 60  1  0  0  0  0
 37 66  1  0  0  0  0
 37 78  2  0  0  0  0
 38 61  1  0  0  0  0
 38 73  1  0  0  0  0
 38 79  2  0  0  0  0
 39 67  1  0  0  0  0
 39 70  1  0  0  0  0
 39 80  2  0  0  0  0
 40 43  1  0  0  0  0
 41 50  1  0  0  0  0
 42 66  1  0  0  0  0
 43 45  1  0  0  0  0
 44 46  1  0  0  0  0
 44 47  1  0  0  0  0
 45 49  1  0  0  0  0
 46 51  1  0  0  0  0
 47 67  1  0  0  0  0
 48 51  1  0  0  0  0
 48 67  1  0  0  0  0
 49 72  1  0  0  0  0
 50 66  1  0  0  0  0
 51 65  1  0  0  0  0
 52 61  1  0  0  0  0
 53 62  1  0  0  0  0
 54 63  1  0  0  0  0
 55 63  1  0  0  0  0
 56 63  1  0  0  0  0
 57 74  1  0  0  0  0
 58 62  1  0  0  0  0
 59 71  1  0  0  0  0
 60 63  1  0  0  0  0
 60 73  1  0  0  0  0
 61 74  1  0  0  0  0
 62 82  1  0  0  0  0
 64 65  1  0  0  0  0
M  CHG  1  74   1
M  ISO  4  39 100  62 101  70 100  82 101
M  END
> <Batch ID>
0167

> <Smiles>
CNC(C)C(=O)NC(C(=O)N1Cc2cc([101O:1][101CH:1](C)CC(=O)CNc3cc(F)cc([100NH:0][100C:0](=O)N4CCCC(n5nc(-c6ccc(Oc7ccc(F)cc7F)cc6)c(C(N)=O)c5N)C4)c3F)ccc2CC1C(=O)NC1CCCc2ccccc21)C(C)(C)C

> <Shape>
0.232

> <Color>
0.060

> <Negative vol penalty>
0.000

$$$$

  -OEChem-04052304113D

 86 94  0     1  0  0  0  0  0999 V2000
  -17.5644  -28.9626   18.1989 C   0  0  0  0  0  0  0  0  0  0  0  0
  -18.1258  -27.9283   18.9408 C   0  0  0  0  0  0  0  0  0  0  0  0
  -22.9455  -10.0894   19.9253 C   0  0  0  0  0  0  0  0  0  0  0  0
  -23.9860   -9.6897   22.0688 C   0  0  0  0  0  0  0  0  0  0  0  0
  -18.3140  -30.1043   17.9183 C   0  0  0  0  0  0  0  0  0  0  0  0
  -19.4375  -28.0346   19.4018 C   0  0  0  0  0  0  0  0  0  0  0  0
  -21.6766  -25.8560   24.6692 C   0  0  0  0  0  0  0  0  0  0  0  0
  -22.2040   -8.9165   20.0664 C   0  0  0  0  0  0  0  0  0  0  0  0
  -23.2444   -8.5167   22.2100 C   0  0  0  0  0  0  0  0  0  0  0  0
  -22.3923  -24.6999   24.9774 C   0  0  0  0  0  0  0  0  0  0  0  0
  -20.0941   -7.6525   23.0756 C   0  0  0  0  0  0  0  0  0  0  0  0
  -19.4886   -7.4149   24.3095 C   0  0  0  0  0  0  0  0  0  0  0  0
  -24.4541  -25.9431   24.8257 C   0  0  0  0  0  0  0  0  0  0  0  0
  -30.2738  -18.5402   23.0297 C   0  0  0  0  0  0  0  0  0  0  0  0
  -31.2803  -16.9830   24.5785 C   0  0  0  0  0  0  0  0  0  0  0  0
  -30.1901  -18.9744   25.4049 C   0  0  0  0  0  0  0  0  0  0  0  0
  -20.7528   -5.3686   24.5359 C   0  0  0  0  0  0  0  0  0  0  0  0
  -23.8366  -10.4760   20.9264 C   0  0  0  0  0  0  0  0  0  0  0  0
  -24.2374  -12.9804   21.2000 C   0  0  0  0  0  0  0  0  0  0  0  0
  -19.6323  -30.2288   18.3843 C   0  0  0  0  0  0  0  0  0  0  0  0
  -22.3460  -27.0639   24.4259 C   0  0  0  0  0  0  0  0  0  0  0  0
  -20.2059  -29.1784   19.1261 C   0  0  0  0  0  0  0  0  0  0  0  0
  -23.7444  -27.1137   24.5172 C   0  0  0  0  0  0  0  0  0  0  0  0
  -30.9727  -17.3574   23.2705 C   0  0  0  0  0  0  0  0  0  0  0  0
  -29.8825  -19.3487   24.0969 C   0  0  0  0  0  0  0  0  0  0  0  0
  -22.3534   -8.1302   21.2088 C   0  0  0  0  0  0  0  0  0  0  0  0
  -23.7814  -24.7427   25.0528 C   0  0  0  0  0  0  0  0  0  0  0  0
  -21.0289   -6.7480   22.5718 C   0  0  0  0  0  0  0  0  0  0  0  0
  -19.8179   -6.2730   25.0396 C   0  0  0  0  0  0  0  0  0  0  0  0
  -30.8890  -17.7915   25.6457 C   0  0  0  0  0  0  0  0  0  0  0  0
  -21.3583   -5.6061   23.3019 C   0  0  0  0  0  0  0  0  0  0  0  0
  -24.6033  -11.6873   20.7810 C   0  0  0  0  0  0  0  0  0  0  0  0
  -25.2978  -13.7729   20.8340 C   0  0  0  0  0  0  0  0  0  0  0  0
  -25.3917  -23.1612   24.4392 C   0  0  0  0  0  0  0  0  0  1  0  0
  -27.8951  -20.4329   23.8292 C   0  0  0  0  0  0  0  0  0  0  0  0
  -23.0455  -13.4256   21.8610 C   0  0  0  0  0  0  0  0  0  0  0  0
  -26.1348  -22.0653   24.6296 C   0  0  0  0  0  0  0  0  0  0  0  0
  -27.0895  -21.6610   23.5711 C   0  0  0  0  0  0  0  0  0  0  0  0
  -22.5964  -29.0284   21.9395 C   0  0  0  0  0  0  0  0  0  0  0  0
  -30.8214  -14.6159   20.5699 C   0  0  0  0  0  0  0  0  0  0  0  0
  -24.1988  -30.8841   24.0634 C   0  0  0  0  0  0  0  0  0  0  0  0
  -26.0254  -31.0794   26.9396 C   0  0  0  0  0  0  0  0  0  0  0  0
  -20.4192  -31.4615   18.0156 C   0  0  0  0  0  0  0  0  0  0  0  0
  -21.5578  -28.3082   24.1210 C   0  0  0  0  0  0  0  0  0  0  0  0
  -24.5093  -28.3901   24.2847 C   0  0  0  0  0  0  0  0  0  0  0  0
  -21.6762  -31.6567   18.8595 C   0  0  0  0  0  0  0  0  0  0  0  0
  -29.2849  -12.7992   17.8905 C   0  0  0  0  0  0  0  0  0  0  0  0
  -22.4534  -30.3489   18.9700 C   0  0  0  0  0  0  0  0  0  0  0  0
  -27.9118  -12.4283   18.4493 C   0  0  0  0  0  0  0  0  0  0  0  0
  -30.3538  -12.7818   18.9787 C   0  0  0  0  0  0  0  0  0  0  0  0
  -28.6636  -13.2764   20.7166 C   0  0  0  0  0  0  0  0  0  0  0  0
  -21.6173  -29.2672   19.6646 C   0  0  1  0  0  0  0  0  0  0  0  0
  -22.3738  -29.3674   23.3863 C   0  0  1  0  0  0  0  0  0  0  0  0
  -27.5490  -13.3119   19.6560 C   0  0  2  0  0  0  0  0  0  0  0  0
  -27.2293  -32.7267   28.4006 C   0  0  0  0  0  0  0  0  0  0  0  0
  -26.4904  -30.9900   22.0517 C   0  0  0  0  0  0  0  0  0  0  0  0
  -27.9775  -31.8047   23.8937 C   0  0  0  0  0  0  0  0  0  0  0  0
  -26.0041  -33.1608   23.1942 C   0  0  0  0  0  0  0  0  0  0  0  0
  -24.2798  -30.4795   29.2529 C   0  0  0  0  0  0  0  0  0  0  0  0
  -31.3895  -16.4916   22.1299 C   0  0  0  0  0  0  0  0  0  0  0  0
  -30.3468  -15.4349   21.7437 C   0  0  0  0  0  0  0  0  0  0  0  0
  -25.6407  -31.0203   24.4895 C   0  0  1  0  0  0  0  0  0  0  0  0
  -25.9179  -32.0018   28.1404 C   0  0  2  0  0  0  0  0  0  0  0  0
  -26.5142  -31.7193   23.4098 C   0  0  0  0  0  0  0  0  0  0  0  0
  -25.8024  -11.6556   20.1936 N   0  0  0  0  0  0  0  0  0  0  0  0
  -29.1780  -20.5401   23.8545 N   0  0  0  0  0  0  0  0  0  0  0  0
  -26.1992  -12.9387   20.2408 N   0  0  0  0  0  0  0  0  0  0  0  0
  -23.6941  -29.5785   23.9834 N   0  0  0  0  0  0  0  0  0  0  0  0
  -29.9617  -13.6150   20.1168 N   0  0  0  0  0  0  0  0  0  0  0  0
  -25.5379  -15.0949   20.9648 N   0  0  0  0  0  0  0  0  0  0  0  0
  -22.0565  -12.4798   22.1638 N   0  0  0  0  0  0  0  0  0  0  0  0
  -21.6008  -29.4825   21.0957 N   0  0  0  0  0  0  0  0  0  0  0  0
  -25.6227  -31.7040   25.7781 N   0  0  0  0  0  0  0  0  0  0  0  0
  -25.5607  -31.2242   29.3605 N   0  3  0  0  0  0  0  0  0  0  0  0
  -22.8558  -14.6292   22.1591 O   0  0  0  0  0  0  0  0  0  0  0  0
  -27.2733  -22.2493   22.5174 O   0  0  0  0  0  0  0  0  0  0  0  0
  -23.5981  -28.4026   21.6128 O   0  0  0  0  0  0  0  0  0  0  0  0
  -31.9222  -14.8617   20.0700 O   0  0  0  0  0  0  0  0  0  0  0  0
  -23.5424  -31.8992   23.8178 O   0  0  0  0  0  0  0  0  0  0  0  0
  -26.4300  -29.9219   27.0229 O   0  0  0  0  0  0  0  0  0  0  0  0
  -26.0539  -21.2886   25.7643 O   0  0  0  0  0  0  0  0  0  0  0  0
  -21.6298   -6.9857   21.3470 O   0  0  0  0  0  0  0  0  0  0  0  0
  -24.4825  -23.6156   25.3528 O   0  0  0  0  0  0  0  0  0  1  0  0
  -19.2375   -6.0458   26.2252 F   0  0  0  0  0  0  0  0  0  0  0  0
  -31.1830  -17.4313   26.9018 F   0  0  0  0  0  0  0  0  0  0  0  0
  -22.2565   -4.7342   22.8237 F   0  0  0  0  0  0  0  0  0  0  0  0
  1  2  1  0  0  0  0
  1  5  2  0  0  0  0
  2  6  2  0  0  0  0
  3  8  2  0  0  0  0
  3 18  1  0  0  0  0
  4  9  1  0  0  0  0
  4 18  2  0  0  0  0
  5 20  1  0  0  0  0
  6 22  1  0  0  0  0
  7 10  2  0  0  0  0
  7 21  1  0  0  0  0
  8 26  1  0  0  0  0
  9 26  2  0  0  0  0
 10 27  1  0  0  0  0
 11 12  2  0  0  0  0
 11 28  1  0  0  0  0
 12 29  1  0  0  0  0
 13 23  1  0  0  0  0
 13 27  2  0  0  0  0
 14 24  1  0  0  0  0
 14 25  2  0  0  0  0
 15 24  2  0  0  0  0
 15 30  1  0  0  0  0
 16 25  1  0  0  0  0
 16 30  2  0  0  0  0
 17 29  2  0  0  0  0
 17 31  1  0  0  0  0
 18 32  1  0  0  0  0
 19 32  1  0  0  0  0
 19 33  2  0  0  0  0
 19 36  1  0  0  0  0
 20 22  2  0  0  0  0
 20 43  1  0  0  0  0
 21 23  2  0  0  0  0
 21 44  1  0  0  0  0
 22 52  1  0  0  0  0
 23 45  1  0  0  0  0
 24 60  1  0  0  0  0
 25 66  1  0  0  0  0
 26 82  1  0  0  0  0
 27 83  1  0  0  0  0
 28 31  2  0  0  0  0
 28 82  1  0  0  0  0
 29 84  1  0  0  0  0
 30 85  1  0  0  0  0
 31 86  1  0  0  0  0
 32 65  2  0  0  0  0
 33 67  1  0  0  0  0
 33 70  1  0  0  0  0
 34 37  2  0  0  0  0
 34 83  1  0  0  0  0
 35 38  1  0  0  0  0
 35 66  2  0  0  0  0
 36 71  1  0  0  0  0
 36 75  2  0  0  0  0
 37 38  1  0  0  0  0
 37 81  1  0  0  0  0
 38 76  2  0  0  0  0
 39 53  1  0  0  0  0
 39 72  1  0  0  0  0
 39 77  2  0  0  0  0
 40 61  1  0  0  0  0
 40 69  1  0  0  0  0
 40 78  2  0  0  0  0
 41 62  1  0  0  0  0
 41 68  1  0  0  0  0
 41 79  2  0  0  0  0
 42 63  1  0  0  0  0
 42 73  1  0  0  0  0
 42 80  2  0  0  0  0
 43 46  1  0  0  0  0
 44 53  1  0  0  0  0
 45 68  1  0  0  0  0
 46 48  1  0  0  0  0
 47 49  1  0  0  0  0
 47 50  1  0  0  0  0
 48 52  1  0  0  0  0
 49 54  1  0  0  0  0
 50 69  1  0  0  0  0
 51 54  1  0  0  0  0
 51 69  1  0  0  0  0
 52 72  1  0  0  0  0
 53 68  1  0  0  0  0
 54 67  1  0  0  0  0
 55 63  1  0  0  0  0
 56 64  1  0  0  0  0
 57 64  1  0  0  0  0
 58 64  1  0  0  0  0
 59 74  1  0  0  0  0
 60 61  1  0  0  0  0
 62 64  1  0  0  0  0
 62 73  1  0  0  0  0
 63 74  1  0  0  0  0
 65 67  1  0  0  0  0
M  CHG  1  74   1
M  ISO  4  34 101  40 100  61 100  83 101
M  END
> <Batch ID>
0167

> <Smiles>
CNC(C)C(=O)NC(C(=O)N1Cc2cc([101O:1][101CH2:1]C(=O)C(=O)CNc3cc(F)cc(C=[100CH:0][100C:0](=O)N4CCCC(n5nc(-c6ccc(Oc7ccc(F)cc7F)cc6)c(C(N)=O)c5N)C4)c3)ccc2CC1C(=O)NC1CCCc2ccccc21)C(C)(C)C

> <Shape>
0.275

> <Color>
0.197

> <Negative vol penalty>
0.000

$$$$

  -OEChem-04052304113D

 85 93  0     1  0  0  0  0  0999 V2000
  -20.1765   -8.5591   18.9807 C   0  0  0  0  0  0  0  0  0  0  0  0
  -19.9546   -9.9182   19.1782 C   0  0  0  0  0  0  0  0  0  0  0  0
  -29.5651  -28.5203   20.6401 C   0  0  0  0  0  0  0  0  0  0  0  0
  -27.9476  -27.4291   19.2153 C   0  0  0  0  0  0  0  0  0  0  0  0
  -21.2696   -7.9376   19.5830 C   0  0  0  0  0  0  0  0  0  0  0  0
  -20.8253  -10.6564   19.9791 C   0  0  0  0  0  0  0  0  0  0  0  0
  -22.4856  -16.4993   19.1983 C   0  0  0  0  0  0  0  0  0  0  0  0
  -30.4680  -27.4823   20.4100 C   0  0  0  0  0  0  0  0  0  0  0  0
  -28.8505  -26.3911   18.9851 C   0  0  0  0  0  0  0  0  0  0  0  0
  -22.0433  -17.6860   19.7813 C   0  0  0  0  0  0  0  0  0  0  0  0
  -29.9459  -23.6359   20.6099 C   0  0  0  0  0  0  0  0  0  0  0  0
  -29.4628  -22.3293   20.6801 C   0  0  0  0  0  0  0  0  0  0  0  0
  -23.8549  -17.5734   21.3703 C   0  0  0  0  0  0  0  0  0  0  0  0
  -19.4059  -27.5828   19.9614 C   0  0  0  0  0  0  0  0  0  0  0  0
  -19.5787  -25.1988   19.6095 C   0  0  0  0  0  0  0  0  0  0  0  0
  -30.1118  -21.9659   18.3814 C   0  0  0  0  0  0  0  0  0  0  0  0
  -28.3048  -28.4937   20.0427 C   0  0  0  0  0  0  0  0  0  0  0  0
  -27.2295  -30.7503   19.5338 C   0  0  0  0  0  0  0  0  0  0  0  0
  -22.1595   -8.6706   20.3838 C   0  0  0  0  0  0  0  0  0  0  0  0
  -23.6113  -15.8339   19.7047 C   0  0  0  0  0  0  0  0  0  0  0  0
  -21.9306  -10.0439   20.5938 C   0  0  0  0  0  0  0  0  0  0  0  0
  -24.3109  -16.3798   20.7904 C   0  0  0  0  0  0  0  0  0  0  0  0
  -19.7764  -27.4128   21.2953 C   0  0  0  0  0  0  0  0  0  0  0  0
  -20.0481  -26.1358   21.7864 C   0  0  0  0  0  0  0  0  0  0  0  0
  -19.9493  -25.0288   20.9435 C   0  0  0  0  0  0  0  0  0  0  0  0
  -30.1107  -26.4178   19.5825 C   0  0  0  0  0  0  0  0  0  0  0  0
  -22.7263  -18.2217   20.8693 C   0  0  0  0  0  0  0  0  0  0  0  0
  -30.5118  -24.1076   19.4255 C   0  0  0  0  0  0  0  0  0  0  0  0
  -29.5458  -21.4943   19.5659 C   0  0  0  0  0  0  0  0  0  0  0  0
  -19.3069  -26.4758   19.1185 C   0  0  0  0  0  0  0  0  0  0  0  0
  -30.5948  -23.2726   18.3112 C   0  0  0  0  0  0  0  0  0  0  0  0
  -27.3714  -29.5653   20.2805 C   0  0  0  0  0  0  0  0  0  0  0  0
  -26.2156  -31.4321   20.1613 C   0  0  0  0  0  0  0  0  0  0  0  0
  -27.9496  -31.1949   18.3765 C   0  0  0  0  0  0  0  0  0  0  0  0
  -24.1341  -12.9812   21.0057 C   0  0  0  0  0  0  0  0  0  0  0  0
  -21.2396  -21.5592   21.3651 C   0  0  0  0  0  0  0  0  0  0  0  0
  -27.2366  -13.9174   20.8633 C   0  0  0  0  0  0  0  0  0  0  0  0
  -29.4862  -16.4801   20.7286 C   0  0  0  0  0  0  0  0  0  0  0  0
  -21.6259  -29.6737   23.5810 C   0  0  0  0  0  0  0  0  0  0  0  0
  -23.3004   -7.9453   21.0524 C   0  0  0  0  0  0  0  0  0  0  0  0
  -24.0913  -14.5688   19.0477 C   0  0  0  0  0  0  0  0  0  0  0  0
  -25.5370  -15.7149   21.3588 C   0  0  0  0  0  0  0  0  0  0  0  0
  -24.3873   -8.8769   21.5825 C   0  0  0  0  0  0  0  0  0  0  0  0
  -24.1791  -31.9967   24.4537 C   0  0  0  0  0  0  0  0  0  0  0  0
  -23.7660  -10.0409   22.3479 C   0  0  0  0  0  0  0  0  0  0  0  0
  -25.2740  -31.7439   23.4158 C   0  0  0  0  0  0  0  0  0  0  0  0
  -23.4795  -30.7024   24.8627 C   0  0  0  0  0  0  0  0  0  0  0  0
  -24.0398  -29.6537   22.7039 C   0  0  0  0  0  0  0  0  0  0  0  0
  -22.8666  -10.8837   21.4356 C   0  0  1  0  0  0  0  0  0  0  0  0
  -24.9465  -13.7044   19.9691 C   0  0  1  0  0  0  0  0  0  0  0  0
  -24.7363  -30.9366   22.2189 C   0  0  2  0  0  0  0  0  0  0  0  0
  -20.4453  -25.9573   23.2183 C   0  0  0  0  0  0  0  0  0  0  0  0
  -31.7154  -17.6129   20.5170 C   0  0  0  0  0  0  0  0  0  0  0  0
  -27.4340  -13.2844   23.8416 C   0  0  0  0  0  0  0  0  0  0  0  0
  -29.5508  -14.6192   23.9139 C   0  0  0  0  0  0  0  0  0  0  0  0
  -29.4155  -12.5750   22.4908 C   0  0  0  0  0  0  0  0  0  0  0  0
  -29.2875  -16.5761   17.7773 C   0  0  0  0  0  0  0  0  0  0  0  0
  -19.8753  -28.6150   22.1761 C   0  0  0  0  0  0  0  0  0  0  0  0
  -20.5406  -22.6351   20.5614 C   0  0  0  0  0  0  0  0  0  0  0  0
  -21.6359  -20.3169   20.5912 C   0  0  0  0  0  0  0  0  0  1  0  0
  -28.1724  -14.6606   21.7857 C   0  0  1  0  0  0  0  0  0  0  0  0
  -30.6925  -16.7158   19.8376 C   0  0  2  0  0  0  0  0  0  0  0  0
  -28.6190  -13.7965   22.9987 C   0  0  0  0  0  0  0  0  0  0  0  0
  -26.5163  -29.4953   21.3041 N   0  0  0  0  0  0  0  0  0  0  0  0
  -25.8273  -30.6448   21.2052 N   0  0  0  0  0  0  0  0  0  0  0  0
  -25.9632  -14.4768   20.6859 N   0  0  0  0  0  0  0  0  0  0  0  0
  -22.9918  -29.9855   23.6819 N   0  0  0  0  0  0  0  0  0  0  0  0
  -25.6273  -32.6222   19.9164 N   0  0  0  0  0  0  0  0  0  0  0  0
  -28.9600  -30.3716   17.8612 N   0  0  0  0  0  0  0  0  0  0  0  0
  -20.2153  -23.7505   21.4129 N   0  0  0  0  0  0  0  0  0  0  0  0
  -23.6672  -11.7473   20.5945 N   0  0  0  0  0  0  0  0  0  0  0  0
  -29.2724  -15.1367   20.9541 N   0  0  0  0  0  0  0  0  0  0  0  0
  -21.2466  -28.9990   22.4270 N   0  0  0  0  0  0  0  0  0  0  0  0
  -30.2753  -17.3615   18.5610 N   0  3  0  0  0  0  0  0  0  0  0  0
  -27.7154  -32.2973   17.8258 O   0  0  0  0  0  0  0  0  0  0  0  0
  -23.9460  -13.5033   22.0983 O   0  0  0  0  0  0  0  0  0  0  0  0
  -21.4756  -21.6742   22.5671 O   0  0  0  0  0  0  0  0  0  0  0  0
  -27.6236  -12.8826   20.3146 O   0  0  0  0  0  0  0  0  0  0  0  0
  -28.8042  -17.3963   21.1824 O   0  0  0  0  0  0  0  0  0  0  0  0
  -20.8044  -29.9791   24.4521 O   0  0  0  0  0  0  0  0  0  0  0  0
  -30.9916  -25.4049   19.3576 O   0  0  0  0  0  0  0  0  0  0  0  0
  -22.2964  -19.3796   21.4406 O   0  0  0  0  0  0  0  0  0  1  0  0
  -29.0833  -20.2390   19.6339 F   0  0  0  0  0  0  0  0  0  0  0  0
  -18.9508  -26.6391   17.8375 F   0  0  0  0  0  0  0  0  0  0  0  0
  -31.1385  -23.7197   17.1710 F   0  0  0  0  0  0  0  0  0  0  0  0
  1  2  1  0  0  0  0
  1  5  2  0  0  0  0
  2  6  2  0  0  0  0
  3  8  2  0  0  0  0
  3 17  1  0  0  0  0
  4  9  1  0  0  0  0
  4 17  2  0  0  0  0
  5 19  1  0  0  0  0
  6 21  1  0  0  0  0
  7 10  2  0  0  0  0
  7 20  1  0  0  0  0
  8 26  1  0  0  0  0
  9 26  2  0  0  0  0
 10 27  1  0  0  0  0
 11 12  2  0  0  0  0
 11 28  1  0  0  0  0
 12 29  1  0  0  0  0
 13 22  1  0  0  0  0
 13 27  2  0  0  0  0
 14 23  2  0  0  0  0
 14 30  1  0  0  0  0
 15 25  1  0  0  0  0
 15 30  2  0  0  0  0
 16 29  2  0  0  0  0
 16 31  1  0  0  0  0
 17 32  1  0  0  0  0
 18 32  1  0  0  0  0
 18 33  2  0  0  0  0
 18 34  1  0  0  0  0
 19 21  2  0  0  0  0
 19 40  1  0  0  0  0
 20 22  2  0  0  0  0
 20 41  1  0  0  0  0
 21 49  1  0  0  0  0
 22 42  1  0  0  0  0
 23 24  1  0  0  0  0
 23 58  1  0  0  0  0
 24 25  2  0  0  0  0
 24 52  1  0  0  0  0
 25 70  1  0  0  0  0
 26 81  1  0  0  0  0
 27 82  1  0  0  0  0
 28 31  2  0  0  0  0
 28 81  1  0  0  0  0
 29 83  1  0  0  0  0
 30 84  1  0  0  0  0
 31 85  1  0  0  0  0
 32 64  2  0  0  0  0
 33 65  1  0  0  0  0
 33 68  1  0  0  0  0
 34 69  1  0  0  0  0
 34 75  2  0  0  0  0
 35 50  1  0  0  0  0
 35 71  1  0  0  0  0
 35 76  2  0  0  0  0
 36 59  1  0  0  0  0
 36 60  1  0  0  0  0
 36 77  2  0  0  0  0
 37 61  1  0  0  0  0
 37 66  1  0  0  0  0
 37 78  2  0  0  0  0
 38 62  1  0  0  0  0
 38 72  1  0  0  0  0
 38 79  2  0  0  0  0
 39 67  1  0  0  0  0
 39 73  1  0  0  0  0
 39 80  2  0  0  0  0
 40 43  1  0  0  0  0
 41 50  1  0  0  0  0
 42 66  1  0  0  0  0
 43 45  1  0  0  0  0
 44 46  1  0  0  0  0
 44 47  1  0  0  0  0
 45 49  1  0  0  0  0
 46 51  1  0  0  0  0
 47 67  1  0  0  0  0
 48 51  1  0  0  0  0
 48 67  1  0  0  0  0
 49 71  1  0  0  0  0
 50 66  1  0  0  0  0
 51 65  1  0  0  0  0
 53 62  1  0  0  0  0
 54 63  1  0  0  0  0
 55 63  1  0  0  0  0
 56 63  1  0  0  0  0
 57 74  1  0  0  0  0
 58 73  1  0  0  0  0
 59 70  1  0  0  0  0
 60 82  1  0  0  0  0
 61 63  1  0  0  0  0
 61 72  1  0  0  0  0
 62 74  1  0  0  0  0
 64 65  1  0  0  0  0
M  CHG  1  74   1
M  ISO  4  39 100  60 101  73 100  82 101
M  END
> <Batch ID>
0167

> <Smiles>
CNC(C)C(=O)NC(C(=O)N1Cc2cc([101O:1][101CH2:1]C(=O)CNc3cc(F)cc(C[100NH:0][100C:0](=O)N4CCCC(n5nc(-c6ccc(Oc7ccc(F)cc7F)cc6)c(C(N)=O)c5N)C4)c3C)ccc2CC1C(=O)NC1CCCc2ccccc21)C(C)(C)C

> <Shape>
0.304

> <Color>
0.053

> <Negative vol penalty>
0.000

$$$$

  -OEChem-04052304113D

 87 95  0     1  0  0  0  0  0999 V2000
  -18.8664  -28.8665   19.9704 C   0  0  0  0  0  0  0  0  0  0  0  0
  -19.9179  -28.1408   20.5209 C   0  0  0  0  0  0  0  0  0  0  0  0
  -23.2214   -9.7138   19.9690 C   0  0  0  0  0  0  0  0  0  0  0  0
  -23.7971   -9.9437   22.3041 C   0  0  0  0  0  0  0  0  0  0  0  0
  -17.9270  -29.4719   20.8040 C   0  0  0  0  0  0  0  0  0  0  0  0
  -20.0313  -28.0211   21.9055 C   0  0  0  0  0  0  0  0  0  0  0  0
  -21.0953  -23.2902   23.3656 C   0  0  0  0  0  0  0  0  0  0  0  0
  -22.5127   -8.5478   20.2585 C   0  0  0  0  0  0  0  0  0  0  0  0
  -23.0884   -8.7777   22.5937 C   0  0  0  0  0  0  0  0  0  0  0  0
  -22.4153  -22.8630   23.2278 C   0  0  0  0  0  0  0  0  0  0  0  0
  -19.8619   -7.8664   23.0178 C   0  0  0  0  0  0  0  0  0  0  0  0
  -19.0177   -7.8818   24.1280 C   0  0  0  0  0  0  0  0  0  0  0  0
  -29.4034  -17.8747   23.0184 C   0  0  0  0  0  0  0  0  0  0  0  0
  -31.2446  -18.9608   24.1440 C   0  0  0  0  0  0  0  0  0  0  0  0
  -22.7879  -23.2768   25.5749 C   0  0  0  0  0  0  0  0  0  0  0  0
  -31.6631  -17.0956   22.6665 C   0  0  0  0  0  0  0  0  0  0  0  0
  -20.2830   -6.0759   25.1153 C   0  0  0  0  0  0  0  0  0  0  0  0
  -23.8637  -10.4118   20.9918 C   0  0  0  0  0  0  0  0  0  0  0  0
  -29.8776  -18.8584   23.8861 C   0  0  0  0  0  0  0  0  0  0  0  0
  -24.1000  -12.9333   20.6862 C   0  0  0  0  0  0  0  0  0  0  0  0
  -18.0235  -29.3514   22.1993 C   0  0  0  0  0  0  0  0  0  0  0  0
  -20.6141  -23.7250   24.6089 C   0  0  0  0  0  0  0  0  0  0  0  0
  -19.0931  -28.6265   22.7586 C   0  0  0  0  0  0  0  0  0  0  0  0
  -21.4608  -23.7067   25.7264 C   0  0  0  0  0  0  0  0  0  0  0  0
  -30.2961  -16.9932   22.4086 C   0  0  0  0  0  0  0  0  0  0  0  0
  -22.4462   -8.0798   21.5708 C   0  0  0  0  0  0  0  0  0  0  0  0
  -23.2626  -22.8590   24.3319 C   0  0  0  0  0  0  0  0  0  0  0  0
  -20.9167   -6.9557   22.9563 C   0  0  0  0  0  0  0  0  0  0  0  0
  -19.2282   -6.9866   25.1767 C   0  0  0  0  0  0  0  0  0  0  0  0
  -32.1374  -18.0794   23.5342 C   0  0  0  0  0  0  0  0  0  0  0  0
  -21.1273   -6.0605   24.0050 C   0  0  0  0  0  0  0  0  0  0  0  0
  -24.5963  -11.6160   20.6933 C   0  0  0  0  0  0  0  0  0  0  0  0
  -25.1826  -13.7063   20.3440 C   0  0  0  0  0  0  0  0  0  0  0  0
  -28.9329  -19.7909   24.5330 C   0  0  0  0  0  0  0  0  0  0  0  0
  -22.7786  -13.4153   20.9641 C   0  0  0  0  0  0  0  0  0  0  0  0
  -19.4520  -26.4622   25.7318 C   0  0  0  0  0  0  0  0  0  0  0  0
  -26.2231  -20.8429   24.9135 C   0  0  0  0  0  0  0  0  0  0  0  0
  -18.8932  -24.6848   28.3872 C   0  0  0  0  0  0  0  0  0  0  0  0
  -19.6948  -21.9497   30.2643 C   0  0  0  0  0  0  0  0  0  0  0  0
  -30.5655  -15.0414   20.8389 C   0  0  0  0  0  0  0  0  0  0  0  0
  -17.0108  -30.0630   23.0611 C   0  0  0  0  0  0  0  0  0  0  0  0
  -19.1801  -24.1576   24.7467 C   0  0  0  0  0  0  0  0  0  0  0  0
  -20.9871  -24.1444   27.0875 C   0  0  0  0  0  0  0  0  0  0  0  0
  -16.9910  -29.5744   24.5072 C   0  0  0  0  0  0  0  0  0  0  0  0
  -29.7508  -12.3914   18.6049 C   0  0  0  0  0  0  0  0  0  0  0  0
  -18.4110  -29.4688   25.0545 C   0  0  0  0  0  0  0  0  0  0  0  0
  -28.2963  -12.0618   18.9485 C   0  0  0  0  0  0  0  0  0  0  0  0
  -30.5572  -12.7625   19.8482 C   0  0  0  0  0  0  0  0  0  0  0  0
  -28.5167  -13.4967   21.0172 C   0  0  0  0  0  0  0  0  0  0  0  0
  -19.2362  -28.4531   24.2552 C   0  0  1  0  0  0  0  0  0  0  0  0
  -18.9428  -25.0655   25.9495 C   0  0  1  0  0  0  0  0  0  0  0  0
  -27.6485  -13.1799   19.7886 C   0  0  2  0  0  0  0  0  0  0  0  0
  -19.0909  -20.7817   32.4017 C   0  0  0  0  0  0  0  0  0  0  0  0
  -27.7384  -21.0536   26.9389 C   0  0  0  0  0  0  0  0  0  0  0  0
  -26.0582  -19.1727   26.7872 C   0  0  0  0  0  0  0  0  0  0  0  0
  -20.4226  -26.7974   29.9709 C   0  0  0  0  0  0  0  0  0  0  0  0
  -20.6094  -25.1533   31.8498 C   0  0  0  0  0  0  0  0  0  0  0  0
  -18.3632  -25.9361   31.0985 C   0  0  0  0  0  0  0  0  0  0  0  0
  -18.8700  -19.4976   28.8270 C   0  0  0  0  0  0  0  0  0  0  0  0
  -25.1597  -21.8406   25.3418 C   0  0  0  0  0  0  0  0  0  1  0  0
  -19.6766  -24.3488   29.6331 C   0  0  1  0  0  0  0  0  0  0  0  0
  -18.8299  -20.8803   30.9067 C   0  0  2  0  0  0  0  0  0  0  0  0
  -26.9839  -20.1054   26.0159 C   0  0  0  0  0  0  0  0  0  0  0  0
  -19.7777  -25.5524   30.6122 C   0  0  0  0  0  0  0  0  0  0  0  0
  -25.8933  -11.5519   20.3804 N   0  0  0  0  0  0  0  0  0  0  0  0
  -26.2210  -12.8387   20.1733 N   0  0  0  0  0  0  0  0  0  0  0  0
  -19.5785  -24.5646   27.1699 N   0  0  0  0  0  0  0  0  0  0  0  0
  -29.8851  -13.8304   20.5916 N   0  0  0  0  0  0  0  0  0  0  0  0
  -25.3381  -15.0366   20.1755 N   0  0  0  0  0  0  0  0  0  0  0  0
  -29.0780  -21.0951   24.2986 N   0  0  0  0  0  0  0  0  0  0  0  0
  -21.7852  -12.4854   21.2998 N   0  0  0  0  0  0  0  0  0  0  0  0
  -29.8148  -15.9947   21.5260 N   0  0  0  0  0  0  0  0  0  0  0  0
  -18.8900  -27.1028   24.6440 N   0  0  0  0  0  0  0  0  0  0  0  0
  -19.0453  -23.1646   30.2053 N   0  0  0  0  0  0  0  0  0  0  0  0
  -27.9836  -19.2804   25.3211 N   0  3  0  0  0  0  0  0  0  0  0  0
  -19.1077  -19.5512   30.2925 N   0  3  0  0  0  0  0  0  0  0  0  0
  -22.4835  -14.6328   20.9001 O   0  0  0  0  0  0  0  0  0  0  0  0
  -20.2915  -26.9251   26.4952 O   0  0  0  0  0  0  0  0  0  0  0  0
  -26.4388  -20.6251   23.7193 O   0  0  0  0  0  0  0  0  0  0  0  0
  -17.7146  -25.0339   28.4897 O   0  0  0  0  0  0  0  0  0  0  0  0
  -20.8341  -21.7303   29.8590 O   0  0  0  0  0  0  0  0  0  0  0  0
  -31.7192  -15.2297   20.4446 O   0  0  0  0  0  0  0  0  0  0  0  0
  -21.7545   -6.9422   21.8538 O   0  0  0  0  0  0  0  0  0  0  0  0
  -24.5516  -22.4430   24.2000 O   0  0  0  0  0  0  0  0  0  1  0  0
  -18.4183   -7.0025   26.2435 F   0  0  0  0  0  0  0  0  0  0  0  0
  -33.4500  -18.1778   23.7820 F   0  0  0  0  0  0  0  0  0  0  0  0
  -22.1396   -5.1841   23.9522 F   0  0  0  0  0  0  0  0  0  0  0  0
  1  2  1  0  0  0  0
  1  5  2  0  0  0  0
  2  6  2  0  0  0  0
  3  8  2  0  0  0  0
  3 18  1  0  0  0  0
  4  9  1  0  0  0  0
  4 18  2  0  0  0  0
  5 21  1  0  0  0  0
  6 23  1  0  0  0  0
  7 10  2  0  0  0  0
  7 22  1  0  0  0  0
  8 26  1  0  0  0  0
  9 26  2  0  0  0  0
 10 27  1  0  0  0  0
 11 12  2  0  0  0  0
 11 28  1  0  0  0  0
 12 29  1  0  0  0  0
 13 19  2  0  0  0  0
 13 25  1  0  0  0  0
 14 19  1  0  0  0  0
 14 30  2  0  0  0  0
 15 24  1  0  0  0  0
 15 27  2  0  0  0  0
 16 25  2  0  0  0  0
 16 30  1  0  0  0  0
 17 29  2  0  0  0  0
 17 31  1  0  0  0  0
 18 32  1  0  0  0  0
 19 34  1  0  0  0  0
 20 32  1  0  0  0  0
 20 33  2  0  0  0  0
 20 35  1  0  0  0  0
 21 23  2  0  0  0  0
 21 41  1  0  0  0  0
 22 24  2  0  0  0  0
 22 42  1  0  0  0  0
 23 50  1  0  0  0  0
 24 43  1  0  0  0  0
 25 72  1  0  0  0  0
 26 83  1  0  0  0  0
 27 84  1  0  0  0  0
 28 31  2  0  0  0  0
 28 83  1  0  0  0  0
 29 85  1  0  0  0  0
 30 86  1  0  0  0  0
 31 87  1  0  0  0  0
 32 65  2  0  0  0  0
 33 66  1  0  0  0  0
 33 69  1  0  0  0  0
 34 70  1  0  0  0  0
 34 75  2  0  0  0  0
 35 71  1  0  0  0  0
 35 77  2  0  0  0  0
 36 51  1  0  0  0  0
 36 73  1  0  0  0  0
 36 78  2  0  0  0  0
 37 60  1  0  0  0  0
 37 63  1  0  0  0  0
 37 79  2  0  0  0  0
 38 61  1  0  0  0  0
 38 67  1  0  0  0  0
 38 80  2  0  0  0  0
 39 62  1  0  0  0  0
 39 74  1  0  0  0  0
 39 81  2  0  0  0  0
 40 68  1  0  0  0  0
 40 72  1  0  0  0  0
 40 82  2  0  0  0  0
 41 44  1  0  0  0  0
 42 51  1  0  0  0  0
 43 67  1  0  0  0  0
 44 46  1  0  0  0  0
 45 47  1  0  0  0  0
 45 48  1  0  0  0  0
 46 50  1  0  0  0  0
 47 52  1  0  0  0  0
 48 68  1  0  0  0  0
 49 52  1  0  0  0  0
 49 68  1  0  0  0  0
 50 73  1  0  0  0  0
 51 67  1  0  0  0  0
 52 66  1  0  0  0  0
 53 62  1  0  0  0  0
 54 63  1  0  0  0  0
 55 63  1  0  0  0  0
 56 64  1  0  0  0  0
 57 64  1  0  0  0  0
 58 64  1  0  0  0  0
 59 76  1  0  0  0  0
 60 84  1  0  0  0  0
 61 64  1  0  0  0  0
 61 74  1  0  0  0  0
 62 76  1  0  0  0  0
 63 75  1  0  0  0  0
 65 66  1  0  0  0  0
M  CHG  2  75   1  76   1
M  ISO  4  40 100  60 101  72 100  84 101
M  END
> <Batch ID>
0167

> <Smiles>
CNC(C)C(=O)NC(C(=O)N1Cc2cc([101O:1][101CH2:1]C(=O)C(C)(C)NC(=N)c3cc(F)cc([100NH:0][100C:0](=O)N4CCCC(n5nc(-c6ccc(Oc7ccc(F)cc7F)cc6)c(C(N)=O)c5N)C4)c3)ccc2CC1C(=O)NC1CCCc2ccccc21)C(C)(C)C

> <Shape>
0.203

> <Color>
0.192

> <Negative vol penalty>
0.000

$$$$

  -OEChem-04052304113D

 85 93  0     1  0  0  0  0  0999 V2000
  -27.8084  -24.3470   16.7483 C   0  0  0  0  0  0  0  0  0  0  0  0
  -26.6441  -24.5752   17.4748 C   0  0  0  0  0  0  0  0  0  0  0  0
  -25.4525  -14.8434   20.0102 C   0  0  0  0  0  0  0  0  0  0  0  0
  -23.1164  -14.5171   20.5328 C   0  0  0  0  0  0  0  0  0  0  0  0
  -29.0265  -24.8414   17.2126 C   0  0  0  0  0  0  0  0  0  0  0  0
  -26.6975  -25.2970   18.6666 C   0  0  0  0  0  0  0  0  0  0  0  0
  -22.9942  -28.7326   19.0245 C   0  0  0  0  0  0  0  0  0  0  0  0
  -25.7530  -13.6069   20.5814 C   0  0  0  0  0  0  0  0  0  0  0  0
  -23.4169  -13.2804   21.1039 C   0  0  0  0  0  0  0  0  0  0  0  0
  -21.7262  -28.2681   19.3710 C   0  0  0  0  0  0  0  0  0  0  0  0
  -23.5189   -9.8764   22.3767 C   0  0  0  0  0  0  0  0  0  0  0  0
  -22.6949   -8.7968   22.0585 C   0  0  0  0  0  0  0  0  0  0  0  0
  -18.2457  -20.9005   22.4415 C   0  0  0  0  0  0  0  0  0  0  0  0
  -16.7277  -22.5857   23.2418 C   0  0  0  0  0  0  0  0  0  0  0  0
  -22.0966  -28.9734   21.6480 C   0  0  0  0  0  0  0  0  0  0  0  0
  -23.2529   -9.0593   19.7226 C   0  0  0  0  0  0  0  0  0  0  0  0
  -24.1342  -15.2986   19.9860 C   0  0  0  0  0  0  0  0  0  0  0  0
  -16.9626  -21.2828   22.8167 C   0  0  0  0  0  0  0  0  0  0  0  0
  -23.4867  -16.8337   18.0542 C   0  0  0  0  0  0  0  0  0  0  0  0
  -29.0934  -25.5780   18.4058 C   0  0  0  0  0  0  0  0  0  0  0  0
  -23.8287  -29.3120   19.9912 C   0  0  0  0  0  0  0  0  0  0  0  0
  -27.9178  -25.8006   19.1480 C   0  0  0  0  0  0  0  0  0  0  0  0
  -23.3739  -29.4467   21.3107 C   0  0  0  0  0  0  0  0  0  0  0  0
  -24.7353  -12.8254   21.1282 C   0  0  0  0  0  0  0  0  0  0  0  0
  -21.2783  -28.3859   20.6835 C   0  0  0  0  0  0  0  0  0  0  0  0
  -24.2098  -10.5475   21.3678 C   0  0  0  0  0  0  0  0  0  0  0  0
  -22.5619   -8.3883   20.7315 C   0  0  0  0  0  0  0  0  0  0  0  0
  -24.0769  -10.1389   20.0407 C   0  0  0  0  0  0  0  0  0  0  0  0
  -23.8232  -16.5761   19.3967 C   0  0  0  0  0  0  0  0  0  0  0  0
  -19.2514  -21.8512   22.5089 C   0  0  0  0  0  0  0  0  0  0  0  0
  -17.8015  -23.4608   23.2736 C   0  0  0  0  0  0  0  0  0  0  0  0
  -23.2852  -18.1914   18.0052 C   0  0  0  0  0  0  0  0  0  0  0  0
  -15.8707  -20.3239   22.7648 C   0  0  0  0  0  0  0  0  0  0  0  0
  -23.3669  -15.9268   16.9502 C   0  0  0  0  0  0  0  0  0  0  0  0
  -26.6762  -28.6022   21.2125 C   0  0  0  0  0  0  0  0  0  0  0  0
  -18.8237  -26.3663   22.4162 C   0  0  0  0  0  0  0  0  0  0  0  0
  -26.3116  -31.4562   22.7106 C   0  0  0  0  0  0  0  0  0  0  0  0
  -24.1959  -33.8664   23.8774 C   0  0  0  0  0  0  0  0  0  0  0  0
  -21.7094  -22.2353   22.1124 C   0  0  0  0  0  0  0  0  0  0  0  0
  -30.4402  -26.0518   18.8919 C   0  0  0  0  0  0  0  0  0  0  0  0
  -25.1834  -29.8323   19.5956 C   0  0  0  0  0  0  0  0  0  0  0  0
  -24.2231  -30.0795   22.3815 C   0  0  0  0  0  0  0  0  0  0  0  0
  -30.3541  -27.1278   19.9712 C   0  0  0  0  0  0  0  0  0  0  0  0
  -24.6618  -22.2604   20.1225 C   0  0  0  0  0  0  0  0  0  0  0  0
  -29.3346  -26.7357   21.0359 C   0  0  0  0  0  0  0  0  0  0  0  0
  -24.7479  -20.8306   19.5834 C   0  0  0  0  0  0  0  0  0  0  0  0
  -24.1301  -22.2957   21.5542 C   0  0  0  0  0  0  0  0  0  0  0  0
  -22.9442  -20.1619   21.2226 C   0  0  0  0  0  0  0  0  0  0  0  0
  -27.9313  -26.6004   20.4326 C   0  0  1  0  0  0  0  0  0  0  0  0
  -26.1494  -29.9385   20.7715 C   0  0  1  0  0  0  0  0  0  0  0  0
  -23.4133  -20.0803   19.7607 C   0  0  2  0  0  0  0  0  0  0  0  0
  -15.9482  -19.2399   21.7291 C   0  0  0  0  0  0  0  0  0  0  0  0
  -24.1899  -36.0634   25.0901 C   0  0  0  0  0  0  0  0  0  0  0  0
  -26.8535  -30.0042   25.3389 C   0  0  0  0  0  0  0  0  0  0  0  0
  -25.9137  -31.9856   26.5467 C   0  0  0  0  0  0  0  0  0  0  0  0
  -27.9552  -32.2402   25.1360 C   0  0  0  0  0  0  0  0  0  0  0  0
  -22.9370  -35.2582   21.5889 C   0  0  0  0  0  0  0  0  0  0  0  0
  -18.5619  -25.7810   23.7877 C   0  0  0  0  0  0  0  0  0  0  0  0
  -19.8663  -27.4660   22.3616 C   0  0  0  0  0  0  0  0  0  1  0  0
  -25.7110  -31.9072   24.0201 C   0  0  1  0  0  0  0  0  0  0  0  0
  -24.2128  -35.3775   23.7330 C   0  0  2  0  0  0  0  0  0  0  0  0
  -26.5929  -31.5206   25.2409 C   0  0  0  0  0  0  0  0  0  0  0  0
  -23.8359  -17.6815   20.1463 N   0  0  0  0  0  0  0  0  0  0  0  0
  -19.0617  -23.1261   22.9167 N   0  0  0  0  0  0  0  0  0  0  0  0
  -23.5050  -18.6469   19.2719 N   0  0  0  0  0  0  0  0  0  0  0  0
  -25.5424  -30.5671   21.9466 N   0  0  0  0  0  0  0  0  0  0  0  0
  -22.8619  -21.5689   21.6449 N   0  0  0  0  0  0  0  0  0  0  0  0
  -22.9433  -19.0283   17.0026 N   0  0  0  0  0  0  0  0  0  0  0  0
  -23.6084  -14.5646   17.1753 N   0  0  0  0  0  0  0  0  0  0  0  0
  -20.5555  -21.4524   22.1241 N   0  0  0  0  0  0  0  0  0  0  0  0
  -17.5520  -24.7575   23.6999 N   0  0  0  0  0  0  0  0  0  0  0  0
  -27.3433  -27.9060   20.2227 N   0  0  0  0  0  0  0  0  0  0  0  0
  -25.4702  -33.3399   23.8868 N   0  0  0  0  0  0  0  0  0  0  0  0
  -23.0280  -35.8367   22.9543 N   0  3  0  0  0  0  0  0  0  0  0  0
  -14.8837  -20.3361   23.5036 O   0  0  0  0  0  0  0  0  0  0  0  0
  -23.0711  -16.3151   15.7947 O   0  0  0  0  0  0  0  0  0  0  0  0
  -26.4924  -28.2310   22.3658 O   0  0  0  0  0  0  0  0  0  0  0  0
  -18.2353  -25.9831   21.4059 O   0  0  0  0  0  0  0  0  0  0  0  0
  -27.4192  -31.8828   22.3745 O   0  0  0  0  0  0  0  0  0  0  0  0
  -23.1563  -33.2183   23.9760 O   0  0  0  0  0  0  0  0  0  0  0  0
  -21.7378  -23.4216   22.4498 O   0  0  0  0  0  0  0  0  0  0  0  0
  -25.0281  -11.6186   21.6853 O   0  0  0  0  0  0  0  0  0  0  0  0
  -20.0413  -27.9328   21.0245 O   0  0  0  0  0  0  0  0  0  1  0  0
  -21.7718   -7.3506   20.4263 F   0  0  0  0  0  0  0  0  0  0  0  0
  -24.7391  -10.7790   19.0673 F   0  0  0  0  0  0  0  0  0  0  0  0
  1  2  1  0  0  0  0
  1  5  2  0  0  0  0
  2  6  2  0  0  0  0
  3  8  2  0  0  0  0
  3 17  1  0  0  0  0
  4  9  1  0  0  0  0
  4 17  2  0  0  0  0
  5 20  1  0  0  0  0
  6 22  1  0  0  0  0
  7 10  2  0  0  0  0
  7 21  1  0  0  0  0
  8 24  1  0  0  0  0
  9 24  2  0  0  0  0
 10 25  1  0  0  0  0
 11 12  2  0  0  0  0
 11 26  1  0  0  0  0
 12 27  1  0  0  0  0
 13 18  1  0  0  0  0
 13 30  2  0  0  0  0
 14 18  2  0  0  0  0
 14 31  1  0  0  0  0
 15 23  1  0  0  0  0
 15 25  2  0  0  0  0
 16 27  2  0  0  0  0
 16 28  1  0  0  0  0
 17 29  1  0  0  0  0
 18 33  1  0  0  0  0
 19 29  1  0  0  0  0
 19 32  2  0  0  0  0
 19 34  1  0  0  0  0
 20 22  2  0  0  0  0
 20 40  1  0  0  0  0
 21 23  2  0  0  0  0
 21 41  1  0  0  0  0
 22 49  1  0  0  0  0
 23 42  1  0  0  0  0
 24 82  1  0  0  0  0
 25 83  1  0  0  0  0
 26 28  2  0  0  0  0
 26 82  1  0  0  0  0
 27 84  1  0  0  0  0
 28 85  1  0  0  0  0
 29 63  2  0  0  0  0
 30 64  1  0  0  0  0
 30 70  1  0  0  0  0
 31 64  2  0  0  0  0
 31 71  1  0  0  0  0
 32 65  1  0  0  0  0
 32 68  1  0  0  0  0
 33 52  1  0  0  0  0
 33 75  2  0  0  0  0
 34 69  1  0  0  0  0
 34 76  2  0  0  0  0
 35 50  1  0  0  0  0
 35 72  1  0  0  0  0
 35 77  2  0  0  0  0
 36 58  1  0  0  0  0
 36 59  1  0  0  0  0
 36 78  2  0  0  0  0
 37 60  1  0  0  0  0
 37 66  1  0  0  0  0
 37 79  2  0  0  0  0
 38 61  1  0  0  0  0
 38 73  1  0  0  0  0
 38 80  2  0  0  0  0
 39 67  1  0  0  0  0
 39 70  1  0  0  0  0
 39 81  2  0  0  0  0
 40 43  1  0  0  0  0
 41 50  1  0  0  0  0
 42 66  1  0  0  0  0
 43 45  1  0  0  0  0
 44 46  1  0  0  0  0
 44 47  1  0  0  0  0
 45 49  1  0  0  0  0
 46 51  1  0  0  0  0
 47 67  1  0  0  0  0
 48 51  1  0  0  0  0
 48 67  1  0  0  0  0
 49 72  1  0  0  0  0
 50 66  1  0  0  0  0
 51 65  1  0  0  0  0
 53 61  1  0  0  0  0
 54 62  1  0  0  0  0
 55 62  1  0  0  0  0
 56 62  1  0  0  0  0
 57 74  1  0  0  0  0
 58 71  1  0  0  0  0
 59 83  1  0  0  0  0
 60 62  1  0  0  0  0
 60 73  1  0  0  0  0
 61 74  1  0  0  0  0
 63 65  1  0  0  0  0
M  CHG  1  74   1
M  ISO  4  39 100  59 101  70 100  83 101
M  END
> <Batch ID>
0167

> <Smiles>
CNC(C)C(=O)NC(C(=O)N1Cc2cc([101O:1][101CH2:1]C(=O)CNc3cc(C(C)=O)cc([100NH:0][100C:0](=O)N4CCCC(n5nc(-c6ccc(Oc7ccc(F)cc7F)cc6)c(C(N)=O)c5N)C4)n3)ccc2CC1C(=O)NC1CCCc2ccccc21)C(C)(C)C

> <Shape>
0.267

> <Color>
0.071

> <Negative vol penalty>
0.000

$$$$

  -OEChem-04052304113D

 87 95  0     1  0  0  0  0  0999 V2000
  -18.3000  -25.6033   19.7150 C   0  0  0  0  0  0  0  0  0  0  0  0
  -19.2331  -24.7214   20.2508 C   0  0  0  0  0  0  0  0  0  0  0  0
  -23.1123   -9.8291   19.8897 C   0  0  0  0  0  0  0  0  0  0  0  0
  -23.9460   -9.7265   22.1550 C   0  0  0  0  0  0  0  0  0  0  0  0
  -18.2036  -26.9019   20.2133 C   0  0  0  0  0  0  0  0  0  0  0  0
  -20.0710  -25.1380   21.2846 C   0  0  0  0  0  0  0  0  0  0  0  0
  -22.1369  -21.7427   25.9440 C   0  0  0  0  0  0  0  0  0  0  0  0
  -22.4218   -8.6338   20.0896 C   0  0  0  0  0  0  0  0  0  0  0  0
  -23.2555   -8.5311   22.3549 C   0  0  0  0  0  0  0  0  0  0  0  0
  -23.3448  -21.0803   26.1586 C   0  0  0  0  0  0  0  0  0  0  0  0
  -20.1491   -5.7967   20.1189 C   0  0  0  0  0  0  0  0  0  0  0  0
  -18.8310   -5.7260   19.6684 C   0  0  0  0  0  0  0  0  0  0  0  0
  -24.1521  -22.9728   27.4178 C   0  0  0  0  0  0  0  0  0  0  0  0
  -29.7199  -17.4774   23.3472 C   0  0  0  0  0  0  0  0  0  0  0  0
  -31.9146  -16.7566   22.6397 C   0  0  0  0  0  0  0  0  0  0  0  0
  -18.2351   -7.5601   21.1238 C   0  0  0  0  0  0  0  0  0  0  0  0
  -23.8745  -10.3755   20.9224 C   0  0  0  0  0  0  0  0  0  0  0  0
  -24.1150  -12.9150   20.9499 C   0  0  0  0  0  0  0  0  0  0  0  0
  -19.0342  -27.3316   21.2602 C   0  0  0  0  0  0  0  0  0  0  0  0
  -21.9314  -23.0318   26.4564 C   0  0  0  0  0  0  0  0  0  0  0  0
  -19.9865  -26.4440   21.7965 C   0  0  0  0  0  0  0  0  0  0  0  0
  -22.9399  -23.6485   27.2105 C   0  0  0  0  0  0  0  0  0  0  0  0
  -31.6908  -18.3940   24.4020 C   0  0  0  0  0  0  0  0  0  0  0  0
  -30.5260  -16.6914   22.5239 C   0  0  0  0  0  0  0  0  0  0  0  0
  -30.3023  -18.3288   24.2863 C   0  0  0  0  0  0  0  0  0  0  0  0
  -22.4934   -7.9848   21.3222 C   0  0  0  0  0  0  0  0  0  0  0  0
  -24.3537  -21.6964   26.8932 C   0  0  0  0  0  0  0  0  0  0  0  0
  -20.5103   -6.7490   21.0720 C   0  0  0  0  0  0  0  0  0  0  0  0
  -17.8740   -6.6077   20.1708 C   0  0  0  0  0  0  0  0  0  0  0  0
  -32.4970  -17.6079   23.5787 C   0  0  0  0  0  0  0  0  0  0  0  0
  -19.5533   -7.6308   21.5744 C   0  0  0  0  0  0  0  0  0  0  0  0
  -24.5884  -11.6099   20.7163 C   0  0  0  0  0  0  0  0  0  0  0  0
  -25.1651  -13.7287   20.6012 C   0  0  0  0  0  0  0  0  0  0  0  0
  -22.8400  -13.3525   21.4385 C   0  0  0  0  0  0  0  0  0  0  0  0
  -21.3573  -25.8868   25.1822 C   0  0  0  0  0  0  0  0  0  0  0  0
  -27.4743  -20.0449   26.0581 C   0  0  0  0  0  0  0  0  0  0  0  0
  -21.0046  -26.7679   28.2841 C   0  0  0  0  0  0  0  0  0  0  0  0
  -21.7209  -26.1664   31.5662 C   0  0  0  0  0  0  0  0  0  0  0  0
  -30.5899  -14.9813   20.6752 C   0  0  0  0  0  0  0  0  0  0  0  0
  -18.9255  -28.7594   21.7338 C   0  0  0  0  0  0  0  0  0  0  0  0
  -20.6129  -23.7222   26.2388 C   0  0  0  0  0  0  0  0  0  0  0  0
  -22.7615  -25.0232   27.7993 C   0  0  0  0  0  0  0  0  0  0  0  0
  -19.5941  -29.0059   23.0838 C   0  0  0  0  0  0  0  0  0  0  0  0
  -29.4920  -12.6739   18.1957 C   0  0  0  0  0  0  0  0  0  0  0  0
  -20.9808  -28.3713   23.1165 C   0  0  0  0  0  0  0  0  0  0  0  0
  -28.0795  -12.2988   18.6496 C   0  0  0  0  0  0  0  0  0  0  0  0
  -30.4365  -12.8655   19.3810 C   0  0  0  0  0  0  0  0  0  0  0  0
  -28.5494  -13.4266   20.8619 C   0  0  0  0  0  0  0  0  0  0  0  0
  -20.8962  -26.8509   22.9353 C   0  0  1  0  0  0  0  0  0  0  0  0
  -20.7039  -25.2393   26.3703 C   0  0  1  0  0  0  0  0  0  0  0  0
  -27.5459  -13.2866   19.7056 C   0  0  2  0  0  0  0  0  0  0  0  0
  -21.3226  -27.0807   33.8690 C   0  0  0  0  0  0  0  0  0  0  0  0
  -23.0495  -28.9711   27.7604 C   0  0  0  0  0  0  0  0  0  0  0  0
  -23.3155  -29.2170   30.2377 C   0  0  0  0  0  0  0  0  0  0  0  0
  -21.1054  -29.6662   29.1717 C   0  0  0  0  0  0  0  0  0  0  0  0
  -20.3416  -23.6960   32.4344 C   0  0  0  0  0  0  0  0  0  0  0  0
  -28.0460  -19.0870   25.0346 C   0  0  0  0  0  0  0  0  0  0  0  0
  -25.9611  -20.1345   26.0979 C   0  0  0  0  0  0  0  0  0  1  0  0
  -21.9288  -27.2833   29.3608 C   0  0  1  0  0  0  0  0  0  0  0  0
  -20.8349  -26.1174   32.7979 C   0  0  2  0  0  0  0  0  0  0  0  0
  -32.3382  -19.2974   25.4009 C   0  0  0  0  0  0  0  0  0  0  0  0
  -22.3542  -28.7593   29.1200 C   0  0  0  0  0  0  0  0  0  0  0  0
  -25.8416  -11.5910   20.2547 N   0  0  0  0  0  0  0  0  0  0  0  0
  -26.1646  -12.8941   20.1954 N   0  0  0  0  0  0  0  0  0  0  0  0
  -21.4570  -25.6599   27.5536 N   0  0  0  0  0  0  0  0  0  0  0  0
  -29.8674  -13.8173   20.3375 N   0  0  0  0  0  0  0  0  0  0  0  0
  -25.3217  -15.0695   20.6051 N   0  0  0  0  0  0  0  0  0  0  0  0
  -21.8753  -12.3843   21.7489 N   0  0  0  0  0  0  0  0  0  0  0  0
  -29.9346  -15.8277   21.5689 N   0  0  0  0  0  0  0  0  0  0  0  0
  -29.4851  -19.1030   25.0975 N   0  0  0  0  0  0  0  0  0  0  0  0
  -20.4791  -26.2176   24.1679 N   0  0  0  0  0  0  0  0  0  0  0  0
  -21.2437  -27.0581   30.6290 N   0  0  0  0  0  0  0  0  0  0  0  0
  -20.8226  -24.7425   33.3727 N   0  3  0  0  0  0  0  0  0  0  0  0
  -22.5587  -14.5668   21.5797 O   0  0  0  0  0  0  0  0  0  0  0  0
  -22.5684  -26.0738   25.1861 O   0  0  0  0  0  0  0  0  0  0  0  0
  -28.1810  -20.7119   26.8128 O   0  0  0  0  0  0  0  0  0  0  0  0
  -19.9183  -27.3233   28.1028 O   0  0  0  0  0  0  0  0  0  0  0  0
  -22.7368  -25.4847   31.4488 O   0  0  0  0  0  0  0  0  0  0  0  0
  -31.6957  -15.2237   20.1850 O   0  0  0  0  0  0  0  0  0  0  0  0
  -21.8196   -6.8185   21.5177 O   0  0  0  0  0  0  0  0  0  0  0  0
  -25.5338  -21.0523   27.1035 O   0  0  0  0  0  0  0  0  0  1  0  0
  -16.6085   -6.5408   19.7368 F   0  0  0  0  0  0  0  0  0  0  0  0
  -33.8323  -17.6625   23.6825 F   0  0  0  0  0  0  0  0  0  0  0  0
  -19.8946   -8.5486   22.4892 F   0  0  0  0  0  0  0  0  0  0  0  0
  -31.4466  -20.0130   26.1463 F   0  0  0  0  0  0  0  0  0  0  0  0
  -33.1155  -18.6372   26.3078 F   0  0  0  0  0  0  0  0  0  0  0  0
  -33.1554  -20.2204   24.8176 F   0  0  0  0  0  0  0  0  0  0  0  0
  1  2  1  0  0  0  0
  1  5  2  0  0  0  0
  2  6  2  0  0  0  0
  3  8  2  0  0  0  0
  3 17  1  0  0  0  0
  4  9  1  0  0  0  0
  4 17  2  0  0  0  0
  5 19  1  0  0  0  0
  6 21  1  0  0  0  0
  7 10  2  0  0  0  0
  7 20  1  0  0  0  0
  8 26  1  0  0  0  0
  9 26  2  0  0  0  0
 10 27  1  0  0  0  0
 11 12  2  0  0  0  0
 11 28  1  0  0  0  0
 12 29  1  0  0  0  0
 13 22  1  0  0  0  0
 13 27  2  0  0  0  0
 14 24  2  0  0  0  0
 14 25  1  0  0  0  0
 15 24  1  0  0  0  0
 15 30  2  0  0  0  0
 16 29  2  0  0  0  0
 16 31  1  0  0  0  0
 17 32  1  0  0  0  0
 18 32  1  0  0  0  0
 18 33  2  0  0  0  0
 18 34  1  0  0  0  0
 19 21  2  0  0  0  0
 19 40  1  0  0  0  0
 20 22  2  0  0  0  0
 20 41  1  0  0  0  0
 21 49  1  0  0  0  0
 22 42  1  0  0  0  0
 23 25  2  0  0  0  0
 23 30  1  0  0  0  0
 23 61  1  0  0  0  0
 24 69  1  0  0  0  0
 25 70  1  0  0  0  0
 26 80  1  0  0  0  0
 27 81  1  0  0  0  0
 28 31  2  0  0  0  0
 28 80  1  0  0  0  0
 29 82  1  0  0  0  0
 30 83  1  0  0  0  0
 31 84  1  0  0  0  0
 32 63  2  0  0  0  0
 33 64  1  0  0  0  0
 33 67  1  0  0  0  0
 34 68  1  0  0  0  0
 34 74  2  0  0  0  0
 35 50  1  0  0  0  0
 35 71  1  0  0  0  0
 35 75  2  0  0  0  0
 36 57  1  0  0  0  0
 36 58  1  0  0  0  0
 36 76  2  0  0  0  0
 37 59  1  0  0  0  0
 37 65  1  0  0  0  0
 37 77  2  0  0  0  0
 38 60  1  0  0  0  0
 38 72  1  0  0  0  0
 38 78  2  0  0  0  0
 39 66  1  0  0  0  0
 39 69  1  0  0  0  0
 39 79  2  0  0  0  0
 40 43  1  0  0  0  0
 41 50  1  0  0  0  0
 42 65  1  0  0  0  0
 43 45  1  0  0  0  0
 44 46  1  0  0  0  0
 44 47  1  0  0  0  0
 45 49  1  0  0  0  0
 46 51  1  0  0  0  0
 47 66  1  0  0  0  0
 48 51  1  0  0  0  0
 48 66  1  0  0  0  0
 49 71  1  0  0  0  0
 50 65  1  0  0  0  0
 51 64  1  0  0  0  0
 52 60  1  0  0  0  0
 53 62  1  0  0  0  0
 54 62  1  0  0  0  0
 55 62  1  0  0  0  0
 56 73  1  0  0  0  0
 57 70  1  0  0  0  0
 58 81  1  0  0  0  0
 59 62  1  0  0  0  0
 59 72  1  0  0  0  0
 60 73  1  0  0  0  0
 61 85  1  0  0  0  0
 61 86  1  0  0  0  0
 61 87  1  0  0  0  0
 63 64  1  0  0  0  0
M  CHG  1  73   1
M  ISO  4  39 100  58 101  69 100  81 101
M  END
> <Batch ID>
0167

> <Smiles>
CNC(C)C(=O)NC(C(=O)N1Cc2cc([101O:1][101CH2:1]C(=O)CNc3cc([100NH:0][100C:0](=O)N4CCCC(n5nc(-c6ccc(Oc7ccc(F)cc7F)cc6)c(C(N)=O)c5N)C4)cc(F)c3C(F)(F)F)ccc2CC1C(=O)NC1CCCc2ccccc21)C(C)(C)C

> <Shape>
0.195

> <Color>
0.196

> <Negative vol penalty>
0.000

$$$$

  -OEChem-04052304112D

  0  0  0     0  0  0  0  0  0999 V2000
M  END
$$$$

  -OEChem-04052304113D

 89 97  0     1  0  0  0  0  0999 V2000
  -16.6591  -29.9554   23.9312 C   0  0  0  0  0  0  0  0  0  0  0  0
  -17.7870  -30.4442   24.5826 C   0  0  0  0  0  0  0  0  0  0  0  0
  -28.8090  -15.3459   21.0035 C   0  0  0  0  0  0  0  0  0  0  0  0
  -27.5673  -15.9080   22.9983 C   0  0  0  0  0  0  0  0  0  0  0  0
  -16.7841  -28.9216   23.0040 C   0  0  0  0  0  0  0  0  0  0  0  0
  -19.0406  -29.8987   24.3079 C   0  0  0  0  0  0  0  0  0  0  0  0
  -24.3997  -32.8606   24.1943 C   0  0  0  0  0  0  0  0  0  0  0  0
  -29.3299  -14.2218   21.6445 C   0  0  0  0  0  0  0  0  0  0  0  0
  -28.0881  -14.7839   23.6393 C   0  0  0  0  0  0  0  0  0  0  0  0
  -25.4232  -32.9840   25.1329 C   0  0  0  0  0  0  0  0  0  0  0  0
  -28.2980  -11.0979   22.4251 C   0  0  0  0  0  0  0  0  0  0  0  0
  -28.3125   -9.8964   21.7168 C   0  0  0  0  0  0  0  0  0  0  0  0
  -26.6089  -31.1724   24.0691 C   0  0  0  0  0  0  0  0  0  0  0  0
  -27.2344  -25.3627   26.8707 C   0  0  0  0  0  0  0  0  0  0  0  0
  -28.2320  -25.2096   24.6756 C   0  0  0  0  0  0  0  0  0  0  0  0
  -30.7175   -9.8015   21.9268 C   0  0  0  0  0  0  0  0  0  0  0  0
  -27.9278  -16.1890   21.6805 C   0  0  0  0  0  0  0  0  0  0  0  0
  -26.2059  -17.4254   20.2613 C   0  0  0  0  0  0  0  0  0  0  0  0
  -18.0411  -28.3698   22.7107 C   0  0  0  0  0  0  0  0  0  0  0  0
  -24.4680  -31.8833   23.1910 C   0  0  0  0  0  0  0  0  0  0  0  0
  -19.1823  -28.8557   23.3769 C   0  0  0  0  0  0  0  0  0  0  0  0
  -25.5861  -31.0404   23.1175 C   0  0  0  0  0  0  0  0  0  0  0  0
  -26.4317  -24.2589   26.5829 C   0  0  0  0  0  0  0  0  0  0  0  0
  -28.1345  -25.8381   25.9170 C   0  0  0  0  0  0  0  0  0  0  0  0
  -27.4294  -24.1057   24.3878 C   0  0  0  0  0  0  0  0  0  0  0  0
  -28.9694  -13.9408   22.9623 C   0  0  0  0  0  0  0  0  0  0  0  0
  -26.5267  -32.1380   25.0721 C   0  0  0  0  0  0  0  0  0  0  0  0
  -29.4933  -11.6513   22.8842 C   0  0  0  0  0  0  0  0  0  0  0  0
  -29.5223   -9.2482   21.4677 C   0  0  0  0  0  0  0  0  0  0  0  0
  -30.7030  -11.0031   22.6351 C   0  0  0  0  0  0  0  0  0  0  0  0
  -26.5292  -23.6303   25.3415 C   0  0  0  0  0  0  0  0  0  0  0  0
  -27.3899  -17.3507   21.0191 C   0  0  0  0  0  0  0  0  0  0  0  0
  -26.1416  -18.7353   19.8531 C   0  0  0  0  0  0  0  0  0  0  0  0
  -25.2497  -16.4023   19.9538 C   0  0  0  0  0  0  0  0  0  0  0  0
  -29.5425  -29.9880   28.2352 C   0  0  0  0  0  0  0  0  0  0  0  0
  -29.8868  -28.7808   27.4139 C   0  0  0  0  0  0  0  0  0  0  0  0
  -28.7404  -31.1539   27.7383 C   0  0  0  0  0  0  0  0  0  0  0  0
  -22.7092  -29.3578   22.3960 C   0  0  0  0  0  0  0  0  0  0  0  0
  -24.7189  -29.2476   19.8522 C   0  0  0  0  0  0  0  0  0  0  0  0
  -27.7609  -30.0448   18.5264 C   0  0  0  0  0  0  0  0  0  0  0  0
  -28.3726  -23.8160   22.0699 C   0  0  0  0  0  0  0  0  0  0  0  0
  -18.1202  -27.2216   21.7359 C   0  0  0  0  0  0  0  0  0  0  0  0
  -23.3683  -31.7807   22.1700 C   0  0  0  0  0  0  0  0  0  0  0  0
  -25.7171  -29.9883   22.0477 C   0  0  0  0  0  0  0  0  0  0  0  0
  -19.5334  -26.9525   21.2252 C   0  0  0  0  0  0  0  0  0  0  0  0
  -28.9454  -22.4779   18.8205 C   0  0  0  0  0  0  0  0  0  0  0  0
  -20.5269  -26.9454   22.3827 C   0  0  0  0  0  0  0  0  0  0  0  0
  -28.4980  -21.0196   18.9450 C   0  0  0  0  0  0  0  0  0  0  0  0
  -29.6249  -22.9734   20.0959 C   0  0  0  0  0  0  0  0  0  0  0  0
  -28.4033  -21.3193   21.4526 C   0  0  0  0  0  0  0  0  0  0  0  0
  -20.5626  -28.3067   23.0876 C   0  0  1  0  0  0  0  0  0  0  0  0
  -23.2993  -30.4110   21.5016 C   0  0  1  0  0  0  0  0  0  0  0  0
  -27.6554  -20.7951   20.2158 C   0  0  2  0  0  0  0  0  0  0  0  0
  -24.0321  -24.1636   27.3036 C   0  0  0  0  0  0  0  0  0  0  0  0
  -29.1280  -29.7878   16.4378 C   0  0  0  0  0  0  0  0  0  0  0  0
  -25.2795  -26.3379   20.5800 C   0  0  0  0  0  0  0  0  0  0  0  0
  -27.2980  -26.4298   19.1018 C   0  0  0  0  0  0  0  0  0  0  0  0
  -25.0260  -26.7701   18.1299 C   0  0  0  0  0  0  0  0  0  0  0  0
  -27.9221  -32.9737   18.1327 C   0  0  0  0  0  0  0  0  0  0  0  0
  -25.4709  -23.7525   27.6052 C   0  0  0  0  0  0  0  0  0  0  0  0
  -28.9003  -27.6460   27.4568 C   0  0  0  0  0  0  0  0  0  0  0  0
  -28.2470  -31.0694   26.3189 C   0  0  0  0  0  0  0  0  0  1  0  0
  -26.0447  -28.5852   19.5650 C   0  0  1  0  0  0  0  0  0  0  0  0
  -28.1484  -30.6685   17.1978 C   0  0  2  0  0  0  0  0  0  0  0  0
  -25.9090  -27.0492   19.3656 C   0  0  0  0  0  0  0  0  0  0  0  0
  -28.0316  -18.5200   21.0897 N   0  0  0  0  0  0  0  0  0  0  0  0
  -27.2480  -19.3418   20.3709 N   0  0  0  0  0  0  0  0  0  0  0  0
  -24.6128  -29.9230   21.0762 N   0  0  0  0  0  0  0  0  0  0  0  0
  -28.7666  -22.7317   21.2576 N   0  0  0  0  0  0  0  0  0  0  0  0
  -25.2471  -19.4159   19.1054 N   0  0  0  0  0  0  0  0  0  0  0  0
  -25.4688  -15.1112   20.4531 N   0  0  0  0  0  0  0  0  0  0  0  0
  -27.5305  -23.4692   23.1259 N   0  0  0  0  0  0  0  0  0  0  0  0
  -28.9331  -26.9358   26.2034 N   0  0  0  0  0  0  0  0  0  0  0  0
  -21.3335  -29.2564   22.3141 N   0  0  0  0  0  0  0  0  0  0  0  0
  -26.6129  -29.2885   18.4201 N   0  0  0  0  0  0  0  0  0  0  0  0
  -28.7839  -31.9988   17.4158 N   0  3  0  0  0  0  0  0  0  0  0  0
  -24.2397  -16.6225   19.2432 O   0  0  0  0  0  0  0  0  0  0  0  0
  -29.9443  -30.0247   29.3888 O   0  0  0  0  0  0  0  0  0  0  0  0
  -30.9266  -28.8136   26.7732 O   0  0  0  0  0  0  0  0  0  0  0  0
  -28.5335  -32.0745   28.5140 O   0  0  0  0  0  0  0  0  0  0  0  0
  -23.4474  -28.6858   23.1068 O   0  0  0  0  0  0  0  0  0  0  0  0
  -23.8132  -29.1746   19.0179 O   0  0  0  0  0  0  0  0  0  0  0  0
  -28.4134  -30.2089   19.5549 O   0  0  0  0  0  0  0  0  0  0  0  0
  -28.7321  -24.9713   21.8293 O   0  0  0  0  0  0  0  0  0  0  0  0
  -29.4772  -12.8439   23.5879 O   0  0  0  0  0  0  0  0  0  0  0  0
  -27.5269  -32.2559   25.9873 O   0  0  0  0  0  0  0  0  0  1  0  0
  -29.5359   -8.0936   20.7888 F   0  0  0  0  0  0  0  0  0  0  0  0
  -31.8544  -11.5293   23.0748 F   0  0  0  0  0  0  0  0  0  0  0  0
  -25.7566  -22.5685   25.0664 F   0  0  0  0  0  0  0  0  0  0  0  0
  1  2  1  0  0  0  0
  1  5  2  0  0  0  0
  2  6  2  0  0  0  0
  3  8  2  0  0  0  0
  3 17  1  0  0  0  0
  4  9  1  0  0  0  0
  4 17  2  0  0  0  0
  5 19  1  0  0  0  0
  6 21  1  0  0  0  0
  7 10  2  0  0  0  0
  7 20  1  0  0  0  0
  8 26  1  0  0  0  0
  9 26  2  0  0  0  0
 10 27  1  0  0  0  0
 11 12  2  0  0  0  0
 11 28  1  0  0  0  0
 12 29  1  0  0  0  0
 13 22  1  0  0  0  0
 13 27  2  0  0  0  0
 14 23  1  0  0  0  0
 14 24  2  0  0  0  0
 15 24  1  0  0  0  0
 15 25  2  0  0  0  0
 16 29  2  0  0  0  0
 16 30  1  0  0  0  0
 17 32  1  0  0  0  0
 18 32  1  0  0  0  0
 18 33  2  0  0  0  0
 18 34  1  0  0  0  0
 19 21  2  0  0  0  0
 19 42  1  0  0  0  0
 20 22  2  0  0  0  0
 20 43  1  0  0  0  0
 21 51  1  0  0  0  0
 22 44  1  0  0  0  0
 23 31  2  0  0  0  0
 23 60  1  0  0  0  0
 24 73  1  0  0  0  0
 25 31  1  0  0  0  0
 25 72  1  0  0  0  0
 26 85  1  0  0  0  0
 27 86  1  0  0  0  0
 28 30  2  0  0  0  0
 28 85  1  0  0  0  0
 29 87  1  0  0  0  0
 30 88  1  0  0  0  0
 31 89  1  0  0  0  0
 32 66  2  0  0  0  0
 33 67  1  0  0  0  0
 33 70  1  0  0  0  0
 34 71  1  0  0  0  0
 34 77  2  0  0  0  0
 35 36  1  0  0  0  0
 35 37  1  0  0  0  0
 35 78  2  0  0  0  0
 36 61  1  0  0  0  0
 36 79  2  0  0  0  0
 37 62  1  0  0  0  0
 37 80  2  0  0  0  0
 38 52  1  0  0  0  0
 38 74  1  0  0  0  0
 38 81  2  0  0  0  0
 39 63  1  0  0  0  0
 39 68  1  0  0  0  0
 39 82  2  0  0  0  0
 40 64  1  0  0  0  0
 40 75  1  0  0  0  0
 40 83  2  0  0  0  0
 41 69  1  0  0  0  0
 41 72  1  0  0  0  0
 41 84  2  0  0  0  0
 42 45  1  0  0  0  0
 43 52  1  0  0  0  0
 44 68  1  0  0  0  0
 45 47  1  0  0  0  0
 46 48  1  0  0  0  0
 46 49  1  0  0  0  0
 47 51  1  0  0  0  0
 48 53  1  0  0  0  0
 49 69  1  0  0  0  0
 50 53  1  0  0  0  0
 50 69  1  0  0  0  0
 51 74  1  0  0  0  0
 52 68  1  0  0  0  0
 53 67  1  0  0  0  0
 54 60  1  0  0  0  0
 55 64  1  0  0  0  0
 56 65  1  0  0  0  0
 57 65  1  0  0  0  0
 58 65  1  0  0  0  0
 59 76  1  0  0  0  0
 61 73  1  0  0  0  0
 62 86  1  0  0  0  0
 63 65  1  0  0  0  0
 63 75  1  0  0  0  0
 64 76  1  0  0  0  0
 66 67  1  0  0  0  0
M  CHG  1  76   1
M  ISO  4  41 100  62 101  72 100  86 101
M  END
> <Batch ID>
0167

> <Smiles>
CCc1cc(NCC(=O)C(=O)C(=O)[101CH2:1][101O:1]c2ccc3c(c2)CN(C(=O)C(NC(=O)C(C)NC)C(C)(C)C)C(C(=O)NC2CCCc4ccccc42)C3)cc([100NH:0][100C:0](=O)N2CCCC(n3nc(-c4ccc(Oc5ccc(F)cc5F)cc4)c(C(N)=O)c3N)C2)c1F

> <Shape>
0.252

> <Color>
0.092

> <Negative vol penalty>
0.000

$$$$

  -OEChem-04052304113D

 91 99  0     1  0  0  0  0  0999 V2000
  -17.9645  -25.9078   23.5619 C   0  0  0  0  0  0  0  0  0  0  0  0
  -19.0804  -25.6480   22.7728 C   0  0  0  0  0  0  0  0  0  0  0  0
  -28.4282  -19.4475   13.7821 C   0  0  0  0  0  0  0  0  0  0  0  0
  -26.2899  -12.2216   21.4856 C   0  0  0  0  0  0  0  0  0  0  0  0
  -25.5854  -12.6512   19.2149 C   0  0  0  0  0  0  0  0  0  0  0  0
  -28.6296  -20.8236   13.8888 C   0  0  0  0  0  0  0  0  0  0  0  0
  -17.5223  -27.2191   23.7319 C   0  0  0  0  0  0  0  0  0  0  0  0
  -19.7542  -26.6994   22.1524 C   0  0  0  0  0  0  0  0  0  0  0  0
  -25.7782  -27.1191   21.1320 C   0  0  0  0  0  0  0  0  0  0  0  0
  -28.9165  -18.5924   14.7701 C   0  0  0  0  0  0  0  0  0  0  0  0
  -24.9735  -11.9240   21.8378 C   0  0  0  0  0  0  0  0  0  0  0  0
  -24.2689  -12.3536   19.5671 C   0  0  0  0  0  0  0  0  0  0  0  0
  -26.5586  -26.8650   20.0049 C   0  0  0  0  0  0  0  0  0  0  0  0
  -22.8408   -9.3183   21.5298 C   0  0  0  0  0  0  0  0  0  0  0  0
  -22.6193   -8.1846   22.3116 C   0  0  0  0  0  0  0  0  0  0  0  0
  -29.8078  -20.4896   15.9715 C   0  0  0  0  0  0  0  0  0  0  0  0
  -26.4825  -29.2069   19.4317 C   0  0  0  0  0  0  0  0  0  0  0  0
  -21.6332   -9.5640   24.0326 C   0  0  0  0  0  0  0  0  0  0  0  0
  -26.5959  -12.5853   20.1742 C   0  0  0  0  0  0  0  0  0  0  0  0
  -29.3195  -21.3446   14.9835 C   0  0  0  0  0  0  0  0  0  0  0  0
  -28.9327  -11.9972   19.3370 C   0  0  0  0  0  0  0  0  0  0  0  0
  -18.1968  -28.2880   23.1211 C   0  0  0  0  0  0  0  0  0  0  0  0
  -25.3342  -28.4194   21.4119 C   0  0  0  0  0  0  0  0  0  0  0  0
  -19.3199  -28.0261   22.3133 C   0  0  0  0  0  0  0  0  0  0  0  0
  -25.6987  -29.4753   20.5643 C   0  0  0  0  0  0  0  0  0  0  0  0
  -29.6063  -19.1135   15.8648 C   0  0  0  0  0  0  0  0  0  0  0  0
  -23.9630  -11.9900   20.8785 C   0  0  0  0  0  0  0  0  0  0  0  0
  -26.9084  -27.9085   19.1530 C   0  0  0  0  0  0  0  0  0  0  0  0
  -22.4585  -10.5749   21.9994 C   0  0  0  0  0  0  0  0  0  0  0  0
  -22.0155   -8.3074   23.5630 C   0  0  0  0  0  0  0  0  0  0  0  0
  -21.8547  -10.6977   23.2508 C   0  0  0  0  0  0  0  0  0  0  0  0
  -27.9555  -12.8933   19.8099 C   0  0  0  0  0  0  0  0  0  0  0  0
  -30.0459  -12.7767   19.1382 C   0  0  0  0  0  0  0  0  0  0  0  0
  -29.5328  -22.8014   15.0977 C   0  0  0  0  0  0  0  0  0  0  0  0
  -28.8422  -10.5863   19.0986 C   0  0  0  0  0  0  0  0  0  0  0  0
  -22.4882  -29.8126   21.6631 C   0  0  0  0  0  0  0  0  0  0  0  0
  -28.6390  -25.3275   16.7753 C   0  0  0  0  0  0  0  0  0  0  0  0
  -24.2538  -32.3615   22.6162 C   0  0  0  0  0  0  0  0  0  0  0  0
  -27.2595  -33.9776   22.5871 C   0  0  0  0  0  0  0  0  0  0  0  0
  -30.8072  -18.5966   18.0182 C   0  0  0  0  0  0  0  0  0  0  0  0
  -17.6534  -29.6840   23.2957 C   0  0  0  0  0  0  0  0  0  0  0  0
  -24.5155  -28.6813   22.6462 C   0  0  0  0  0  0  0  0  0  0  0  0
  -25.2646  -30.8926   20.8313 C   0  0  0  0  0  0  0  0  0  0  0  0
  -18.6461  -30.7769   22.9079 C   0  0  0  0  0  0  0  0  0  0  0  0
  -32.1658  -16.7579   20.7477 C   0  0  0  0  0  0  0  0  0  0  0  0
  -19.3003  -30.4532   21.5686 C   0  0  0  0  0  0  0  0  0  0  0  0
  -31.3332  -15.4740   20.7701 C   0  0  0  0  0  0  0  0  0  0  0  0
  -31.3228  -17.9739   20.3680 C   0  0  0  0  0  0  0  0  0  0  0  0
  -29.7270  -16.5515   19.1435 C   0  0  0  0  0  0  0  0  0  0  0  0
  -20.0922  -29.1422   21.6440 C   0  0  1  0  0  0  0  0  0  0  0  0
  -23.6887  -29.9602   22.5546 C   0  0  1  0  0  0  0  0  0  0  0  0
  -30.5468  -15.2893   19.4575 C   0  0  2  0  0  0  0  0  0  0  0  0
  -28.3854  -36.0585   23.4233 C   0  0  0  0  0  0  0  0  0  0  0  0
  -26.0479  -26.7370   12.7019 C   0  0  0  0  0  0  0  0  0  0  0  0
  -28.5305  -26.9259   12.8898 C   0  0  0  0  0  0  0  0  0  0  0  0
  -27.4932  -24.7191   12.3536 C   0  0  0  0  0  0  0  0  0  0  0  0
  -22.8303  -33.9928   20.4662 C   0  0  0  0  0  0  0  0  0  0  0  0
  -24.6176  -35.7304   20.6997 C   0  0  0  0  0  0  0  0  0  0  0  0
  -23.1487  -35.1858   22.6410 C   0  0  0  0  0  0  0  0  0  0  0  0
  -29.7755  -28.2449   18.8223 C   0  0  0  0  0  0  0  0  0  0  0  0
  -29.2252  -32.4214   24.1597 C   0  0  0  0  0  0  0  0  0  0  0  0
  -29.4940  -26.5173   17.1747 C   0  0  0  0  0  0  0  0  0  0  0  0
  -27.2891  -25.7070   14.6929 C   0  0  0  0  0  0  0  0  0  0  0  0
  -28.5424  -25.0557   15.2820 C   0  0  2  0  0  0  0  0  0  0  0  0
  -24.9136  -33.5261   21.9181 C   0  0  1  0  0  0  0  0  0  0  0  0
  -28.0821  -34.5949   23.7036 C   0  0  2  0  0  0  0  0  0  0  0  0
  -27.3195  -26.0125   13.1690 C   0  0  0  0  0  0  0  0  0  0  0  0
  -23.8843  -34.5819   21.4249 C   0  0  0  0  0  0  0  0  0  0  0  0
  -28.4082  -14.1463   19.9060 N   0  0  0  0  0  0  0  0  0  0  0  0
  -29.6821  -14.0430   19.4908 N   0  0  0  0  0  0  0  0  0  0  0  0
  -24.4601  -31.0968   22.0473 N   0  0  0  0  0  0  0  0  0  0  0  0
  -30.6100  -17.7280   19.1124 N   0  0  0  0  0  0  0  0  0  0  0  0
  -31.2908  -12.4956   18.6980 N   0  0  0  0  0  0  0  0  0  0  0  0
  -27.6243   -9.9420   19.3553 N   0  0  0  0  0  0  0  0  0  0  0  0
  -30.1020  -18.2441   16.8679 N   0  0  0  0  0  0  0  0  0  0  0  0
  -28.4596  -23.6032   15.1509 N   0  0  0  0  0  0  0  0  0  0  0  0
  -21.3581  -29.3541   22.3127 N   0  0  0  0  0  0  0  0  0  0  0  0
  -25.9076  -34.0499   22.8487 N   0  0  0  0  0  0  0  0  0  0  0  0
  -28.9742  -27.0933   18.4065 N   0  0  2  0  0  0  0  0  0  1  0  0
  -30.7869  -23.2513   15.1400 N   0  3  0  0  0  0  0  0  0  0  0  0
  -29.3741  -33.8683   23.8576 N   0  3  0  0  0  0  0  0  0  0  0  0
  -29.8175   -9.9137   18.6861 O   0  0  0  0  0  0  0  0  0  0  0  0
  -22.5801  -30.0953   20.4743 O   0  0  0  0  0  0  0  0  0  0  0  0
  -28.0423  -24.6318   17.5977 O   0  0  0  0  0  0  0  0  0  0  0  0
  -23.5859  -32.5656   23.6331 O   0  0  0  0  0  0  0  0  0  0  0  0
  -27.7654  -33.4842   21.5815 O   0  0  0  0  0  0  0  0  0  0  0  0
  -31.5682  -19.5651   18.0873 O   0  0  0  0  0  0  0  0  0  0  0  0
  -22.6783  -11.6995   21.2218 O   0  0  0  0  0  0  0  0  0  0  0  0
  -27.6788  -27.6601   18.0384 O   0  0  0  0  0  0  0  0  0  1  0  0
  -21.8015   -7.2184   24.3129 F   0  0  0  0  0  0  0  0  0  0  0  0
  -21.4842  -11.9021   23.7069 F   0  0  0  0  0  0  0  0  0  0  0  0
  1  2  1  0  0  0  0
  1  7  2  0  0  0  0
  2  8  2  0  0  0  0
  3  6  2  0  0  0  0
  3 10  1  0  0  0  0
  4 11  2  0  0  0  0
  4 19  1  0  0  0  0
  5 12  1  0  0  0  0
  5 19  2  0  0  0  0
  6 20  1  0  0  0  0
  7 22  1  0  0  0  0
  8 24  1  0  0  0  0
  9 13  2  0  0  0  0
  9 23  1  0  0  0  0
 10 26  2  0  0  0  0
 11 27  1  0  0  0  0
 12 27  2  0  0  0  0
 13 28  1  0  0  0  0
 14 15  2  0  0  0  0
 14 29  1  0  0  0  0
 15 30  1  0  0  0  0
 16 20  2  0  0  0  0
 16 26  1  0  0  0  0
 17 25  1  0  0  0  0
 17 28  2  0  0  0  0
 18 30  2  0  0  0  0
 18 31  1  0  0  0  0
 19 32  1  0  0  0  0
 20 34  1  0  0  0  0
 21 32  1  0  0  0  0
 21 33  2  0  0  0  0
 21 35  1  0  0  0  0
 22 24  2  0  0  0  0
 22 41  1  0  0  0  0
 23 25  2  0  0  0  0
 23 42  1  0  0  0  0
 24 50  1  0  0  0  0
 25 43  1  0  0  0  0
 26 75  1  0  0  0  0
 27 88  1  0  0  0  0
 28 89  1  0  0  0  0
 29 31  2  0  0  0  0
 29 88  1  0  0  0  0
 30 90  1  0  0  0  0
 31 91  1  0  0  0  0
 32 69  2  0  0  0  0
 33 70  1  0  0  0  0
 33 73  1  0  0  0  0
 34 76  1  0  0  0  0
 34 80  2  0  0  0  0
 35 74  1  0  0  0  0
 35 82  2  0  0  0  0
 36 51  1  0  0  0  0
 36 77  1  0  0  0  0
 36 83  2  0  0  0  0
 37 62  1  0  0  0  0
 37 64  1  0  0  0  0
 37 84  2  0  0  0  0
 38 65  1  0  0  0  0
 38 71  1  0  0  0  0
 38 85  2  0  0  0  0
 39 66  1  0  0  0  0
 39 78  1  0  0  0  0
 39 86  2  0  0  0  0
 40 72  1  0  0  0  0
 40 75  1  0  0  0  0
 40 87  2  0  0  0  0
 41 44  1  0  0  0  0
 42 51  1  0  0  0  0
 43 71  1  0  0  0  0
 44 46  1  0  0  0  0
 45 47  1  0  0  0  0
 45 48  1  0  0  0  0
 46 50  1  0  0  0  0
 47 52  1  0  0  0  0
 48 72  1  0  0  0  0
 49 52  1  0  0  0  0
 49 72  1  0  0  0  0
 50 77  1  0  0  0  0
 51 71  1  0  0  0  0
 52 70  1  0  0  0  0
 53 66  1  0  0  0  0
 54 67  1  0  0  0  0
 55 67  1  0  0  0  0
 56 67  1  0  0  0  0
 57 68  1  0  0  0  0
 58 68  1  0  0  0  0
 59 68  1  0  0  0  0
 60 79  1  0  0  0  0
 61 81  1  0  0  0  0
 62 79  1  0  0  0  0
 63 64  1  0  0  0  0
 63 67  1  0  0  0  0
 64 76  1  0  0  0  0
 65 68  1  0  0  0  0
 65 78  1  0  0  0  0
 66 81  1  0  0  0  0
 69 70  1  0  0  0  0
 79 89  1  0  0  0  0
M  CHG  2  80   1  81   1
M  ISO  4  40 100  75 100  79 101  89 101
M  END
> <Batch ID>
0167

> <Smiles>
CNC(C)C(=O)NC(C(=O)N1Cc2cc([101O:1][101N:1](C)CC(=O)C(CC(C)(C)C)NC(=N)c3cccc([100NH:0][100C:0](=O)N4CCCC(n5nc(-c6ccc(Oc7ccc(F)cc7F)cc6)c(C(N)=O)c5N)C4)c3)ccc2CC1C(=O)NC1CCCc2ccccc21)C(C)(C)C

> <Shape>
0.274

> <Color>
0.109

> <Negative vol penalty>
0.000

$$$$

  -OEChem-04052304113D

 87 95  0     1  0  0  0  0  0999 V2000
  -18.0943  -28.4605   22.6037 C   0  0  0  0  0  0  0  0  0  0  0  0
  -17.9372  -27.0783   22.5860 C   0  0  0  0  0  0  0  0  0  0  0  0
  -25.1261  -11.5981   20.8680 C   0  0  0  0  0  0  0  0  0  0  0  0
  -29.8210  -23.3924   20.8576 C   0  0  0  0  0  0  0  0  0  0  0  0
  -29.6650  -23.0638   18.4692 C   0  0  0  0  0  0  0  0  0  0  0  0
  -19.3718  -29.0165   22.5505 C   0  0  0  0  0  0  0  0  0  0  0  0
  -19.0576  -26.2513   22.5138 C   0  0  0  0  0  0  0  0  0  0  0  0
  -19.7634  -20.7700   25.1526 C   0  0  0  0  0  0  0  0  0  0  0  0
  -25.9244  -12.0439   19.8147 C   0  0  0  0  0  0  0  0  0  0  0  0
  -24.0239  -12.3501   21.2745 C   0  0  0  0  0  0  0  0  0  0  0  0
  -30.4726  -24.6077   20.6479 C   0  0  0  0  0  0  0  0  0  0  0  0
  -30.3166  -24.2791   18.2594 C   0  0  0  0  0  0  0  0  0  0  0  0
  -19.6278  -19.4704   24.6662 C   0  0  0  0  0  0  0  0  0  0  0  0
  -31.8556  -27.9684   20.7387 C   0  0  0  0  0  0  0  0  0  0  0  0
  -31.4459  -29.0635   21.4992 C   0  0  0  0  0  0  0  0  0  0  0  0
  -22.0045  -19.3799   24.2629 C   0  0  0  0  0  0  0  0  0  0  0  0
  -29.2209  -28.8714   20.5775 C   0  0  0  0  0  0  0  0  0  0  0  0
  -29.4172  -22.6204   19.7683 C   0  0  0  0  0  0  0  0  0  0  0  0
  -27.3581  -21.1524   20.1039 C   0  0  0  0  0  0  0  0  0  0  0  0
  -20.5089  -28.1957   22.4874 C   0  0  0  0  0  0  0  0  0  0  0  0
  -21.0210  -21.3893   25.1876 C   0  0  0  0  0  0  0  0  0  0  0  0
  -20.3514  -26.7969   22.4583 C   0  0  0  0  0  0  0  0  0  0  0  0
  -22.1537  -20.6865   24.7526 C   0  0  0  0  0  0  0  0  0  0  0  0
  -25.6206  -13.2419   19.1680 C   0  0  0  0  0  0  0  0  0  0  0  0
  -24.5185  -13.9940   19.5745 C   0  0  0  0  0  0  0  0  0  0  0  0
  -23.7201  -13.5481   20.6278 C   0  0  0  0  0  0  0  0  0  0  0  0
  -30.7204  -25.0511   19.3488 C   0  0  0  0  0  0  0  0  0  0  0  0
  -20.7480  -18.7762   24.2186 C   0  0  0  0  0  0  0  0  0  0  0  0
  -30.9479  -27.3247   19.8975 C   0  0  0  0  0  0  0  0  0  0  0  0
  -30.1286  -29.5150   21.4187 C   0  0  0  0  0  0  0  0  0  0  0  0
  -29.6306  -27.7762   19.8169 C   0  0  0  0  0  0  0  0  0  0  0  0
  -28.7446  -21.3646   19.9843 C   0  0  0  0  0  0  0  0  0  0  0  0
  -27.2333  -19.7984   20.2974 C   0  0  0  0  0  0  0  0  0  0  0  0
  -22.6339  -14.6836   22.2779 C   0  0  0  0  0  0  0  0  0  0  0  0
  -26.2793  -22.0950   20.0451 C   0  0  0  0  0  0  0  0  0  0  0  0
  -21.4792  -15.4763   22.7985 C   0  0  0  0  0  0  0  0  0  0  0  0
  -22.2916  -23.9654   23.8264 C   0  0  0  0  0  0  0  0  0  0  0  0
  -24.8139  -23.2520   25.7372 C   0  0  0  0  0  0  0  0  0  0  0  0
  -26.5286  -20.8948   27.5121 C   0  0  0  0  0  0  0  0  0  0  0  0
  -28.6151  -14.5491   19.0009 C   0  0  0  0  0  0  0  0  0  0  0  0
  -21.8669  -28.8435   22.3838 C   0  0  0  0  0  0  0  0  0  0  0  0
  -21.1543  -22.7819   25.7401 C   0  0  0  0  0  0  0  0  0  0  0  0
  -23.5292  -21.2990   24.7882 C   0  0  0  0  0  0  0  0  0  0  0  0
  -23.0208  -27.8911   22.6868 C   0  0  0  0  0  0  0  0  0  0  0  0
  -30.7287  -16.2781   21.2856 C   0  0  0  0  0  0  0  0  0  0  0  0
  -22.8286  -26.5687   21.9512 C   0  0  0  0  0  0  0  0  0  0  0  0
  -30.2909  -17.7380   21.1558 C   0  0  0  0  0  0  0  0  0  0  0  0
  -30.6750  -15.5514   19.9436 C   0  0  0  0  0  0  0  0  0  0  0  0
  -28.9404  -17.0942   19.1161 C   0  0  0  0  0  0  0  0  0  0  0  0
  -21.5436  -25.8662   22.4057 C   0  0  1  0  0  0  0  0  0  0  0  0
  -22.4075  -23.5014   25.2508 C   0  0  1  0  0  0  0  0  0  0  0  0
  -28.9244  -17.8533   20.4539 C   0  0  2  0  0  0  0  0  0  0  0  0
  -28.5724  -20.6037   28.9388 C   0  0  0  0  0  0  0  0  0  0  0  0
  -26.5639  -23.3137   23.2385 C   0  0  0  0  0  0  0  0  0  0  0  0
  -28.3369  -22.1125   24.5354 C   0  0  0  0  0  0  0  0  0  0  0  0
  -27.5877  -24.3801   25.2557 C   0  0  0  0  0  0  0  0  0  0  0  0
  -24.9184  -20.0659   29.8529 C   0  0  0  0  0  0  0  0  0  0  0  0
  -26.4909  -13.6961   18.0421 C   0  0  0  0  0  0  0  0  0  0  0  0
  -21.8080  -16.8553   23.3007 C   0  0  0  0  0  0  0  0  0  1  0  0
  -26.0528  -22.4006   25.5988 C   0  0  1  0  0  0  0  0  0  0  0  0
  -27.0814  -20.9030   28.9258 C   0  0  2  0  0  0  0  0  0  0  0  0
  -24.1934  -15.2794   18.8815 C   0  0  0  0  0  0  0  0  0  0  0  0
  -27.1093  -23.0406   24.6545 C   0  0  0  0  0  0  0  0  0  0  0  0
  -29.4502  -20.2357   20.0930 N   0  0  0  0  0  0  0  0  0  0  0  0
  -22.6054  -14.2908   21.0519 N   0  0  0  0  0  0  0  0  0  0  0  0
  -28.5033  -19.3012   20.2830 N   0  0  0  0  0  0  0  0  0  0  0  0
  -23.6070  -22.6653   25.3312 N   0  0  0  0  0  0  0  0  0  0  0  0
  -29.3523  -15.6982   19.3312 N   0  0  0  0  0  0  0  0  0  0  0  0
  -26.1623  -18.9964   20.4770 N   0  0  0  0  0  0  0  0  0  0  0  0
  -26.5843  -23.4475   19.8399 N   0  0  0  0  0  0  0  0  0  0  0  0
  -21.7439  -25.2265   23.6884 N   0  0  0  0  0  0  0  0  0  0  0  0
  -26.5334  -22.1558   26.9544 N   0  0  0  0  0  0  0  0  0  0  0  0
  -27.3689  -14.7774   18.4303 N   0  0  0  0  0  0  0  0  0  0  0  0
  -26.3892  -19.8792   29.7587 N   0  3  0  0  0  0  0  0  0  0  0  0
  -25.0816  -21.7505   20.1873 O   0  0  0  0  0  0  0  0  0  0  0  0
  -20.3695  -14.9681   22.7691 O   0  0  0  0  0  0  0  0  0  0  0  0
  -22.6723  -23.2341   22.9198 O   0  0  0  0  0  0  0  0  0  0  0  0
  -24.9123  -24.3930   26.1956 O   0  0  0  0  0  0  0  0  0  0  0  0
  -26.1354  -19.8713   26.9566 O   0  0  0  0  0  0  0  0  0  0  0  0
  -29.0340  -13.4046   19.2046 O   0  0  0  0  0  0  0  0  0  0  0  0
  -31.3559  -26.2371   19.1437 O   0  0  0  0  0  0  0  0  0  0  0  0
  -20.6184  -17.5079   23.7428 O   0  0  0  0  0  0  0  0  0  1  0  0
  -29.7350  -30.5658   22.1502 F   0  0  0  0  0  0  0  0  0  0  0  0
  -28.7538  -27.1612   19.0115 F   0  0  0  0  0  0  0  0  0  0  0  0
  -25.0603  -15.5873   17.8742 F   0  0  0  0  0  0  0  0  0  0  0  0
  -22.9563  -15.2878   18.3070 F   0  0  0  0  0  0  0  0  0  0  0  0
  -24.2156  -16.3473   19.7283 F   0  0  0  0  0  0  0  0  0  0  0  0
  1  2  1  0  0  0  0
  1  6  2  0  0  0  0
  2  7  2  0  0  0  0
  3  9  1  0  0  0  0
  3 10  2  0  0  0  0
  4 11  2  0  0  0  0
  4 18  1  0  0  0  0
  5 12  1  0  0  0  0
  5 18  2  0  0  0  0
  6 20  1  0  0  0  0
  7 22  1  0  0  0  0
  8 13  2  0  0  0  0
  8 21  1  0  0  0  0
  9 24  2  0  0  0  0
 10 26  1  0  0  0  0
 11 27  1  0  0  0  0
 12 27  2  0  0  0  0
 13 28  1  0  0  0  0
 14 15  2  0  0  0  0
 14 29  1  0  0  0  0
 15 30  1  0  0  0  0
 16 23  1  0  0  0  0
 16 28  2  0  0  0  0
 17 30  2  0  0  0  0
 17 31  1  0  0  0  0
 18 32  1  0  0  0  0
 19 32  1  0  0  0  0
 19 33  2  0  0  0  0
 19 35  1  0  0  0  0
 20 22  2  0  0  0  0
 20 41  1  0  0  0  0
 21 23  2  0  0  0  0
 21 42  1  0  0  0  0
 22 50  1  0  0  0  0
 23 43  1  0  0  0  0
 24 25  1  0  0  0  0
 24 58  1  0  0  0  0
 25 26  2  0  0  0  0
 25 62  1  0  0  0  0
 26 65  1  0  0  0  0
 27 81  1  0  0  0  0
 28 82  1  0  0  0  0
 29 31  2  0  0  0  0
 29 81  1  0  0  0  0
 30 83  1  0  0  0  0
 31 84  1  0  0  0  0
 32 64  2  0  0  0  0
 33 66  1  0  0  0  0
 33 69  1  0  0  0  0
 34 36  1  0  0  0  0
 34 65  2  0  0  0  0
 35 70  1  0  0  0  0
 35 75  2  0  0  0  0
 36 59  1  0  0  0  0
 36 76  2  0  0  0  0
 37 51  1  0  0  0  0
 37 71  1  0  0  0  0
 37 77  2  0  0  0  0
 38 60  1  0  0  0  0
 38 67  1  0  0  0  0
 38 78  2  0  0  0  0
 39 61  1  0  0  0  0
 39 72  1  0  0  0  0
 39 79  2  0  0  0  0
 40 68  1  0  0  0  0
 40 73  1  0  0  0  0
 40 80  2  0  0  0  0
 41 44  1  0  0  0  0
 42 51  1  0  0  0  0
 43 67  1  0  0  0  0
 44 46  1  0  0  0  0
 45 47  1  0  0  0  0
 45 48  1  0  0  0  0
 46 50  1  0  0  0  0
 47 52  1  0  0  0  0
 48 68  1  0  0  0  0
 49 52  1  0  0  0  0
 49 68  1  0  0  0  0
 50 71  1  0  0  0  0
 51 67  1  0  0  0  0
 52 66  1  0  0  0  0
 53 61  1  0  0  0  0
 54 63  1  0  0  0  0
 55 63  1  0  0  0  0
 56 63  1  0  0  0  0
 57 74  1  0  0  0  0
 58 73  1  0  0  0  0
 59 82  1  0  0  0  0
 60 63  1  0  0  0  0
 60 72  1  0  0  0  0
 61 74  1  0  0  0  0
 62 85  1  0  0  0  0
 62 86  1  0  0  0  0
 62 87  1  0  0  0  0
 64 66  1  0  0  0  0
M  CHG  1  74   1
M  ISO  4  40 100  59 101  73 100  82 101
M  END
> <Batch ID>
0167

> <Smiles>
CNC(C)C(=O)NC(C(=O)N1Cc2cc([101O:1][101CH2:1]C(=O)CNc3cccc(C=[100N:0][100C:0](=O)N4CCCC(n5nc(-c6ccc(Oc7ccc(F)cc7F)cc6)c(C(N)=O)c5N)C4)c3C(F)(F)F)ccc2CC1C(=O)NC1CCCc2ccccc21)C(C)(C)C

> <Shape>
0.223

> <Color>
0.069

> <Negative vol penalty>
0.000

$$$$

  -OEChem-04052304113D

 86 94  0     1  0  0  0  0  0999 V2000
  -16.8534  -30.7695   23.3486 C   0  0  0  0  0  0  0  0  0  0  0  0
  -18.0622  -31.3517   23.7165 C   0  0  0  0  0  0  0  0  0  0  0  0
  -25.2168  -14.8728   20.2503 C   0  0  0  0  0  0  0  0  0  0  0  0
  -27.0810  -14.6253   21.7671 C   0  0  0  0  0  0  0  0  0  0  0  0
  -16.8160  -29.4321   22.9565 C   0  0  0  0  0  0  0  0  0  0  0  0
  -19.2341  -30.5963   23.6936 C   0  0  0  0  0  0  0  0  0  0  0  0
  -24.8560  -32.5655   22.2712 C   0  0  0  0  0  0  0  0  0  0  0  0
  -25.1309  -13.4859   20.1295 C   0  0  0  0  0  0  0  0  0  0  0  0
  -26.9951  -13.2383   21.6463 C   0  0  0  0  0  0  0  0  0  0  0  0
  -25.9400  -32.9552   23.0566 C   0  0  0  0  0  0  0  0  0  0  0  0
  -23.9037  -10.8999   21.9295 C   0  0  0  0  0  0  0  0  0  0  0  0
  -22.6373  -10.3200   22.0027 C   0  0  0  0  0  0  0  0  0  0  0  0
  -26.8668  -30.7361   22.8679 C   0  0  0  0  0  0  0  0  0  0  0  0
  -22.9211   -9.4191   19.7790 C   0  0  0  0  0  0  0  0  0  0  0  0
  -29.5609  -23.9045   23.9755 C   0  0  0  0  0  0  0  0  0  0  0  0
  -26.1919  -15.4425   21.0691 C   0  0  0  0  0  0  0  0  0  0  0  0
  -25.6237  -17.6893   22.1353 C   0  0  0  0  0  0  0  0  0  0  0  0
  -17.9895  -28.6626   22.9195 C   0  0  0  0  0  0  0  0  0  0  0  0
  -24.7636  -31.2529   21.7865 C   0  0  0  0  0  0  0  0  0  0  0  0
  -19.2121  -29.2470   23.3019 C   0  0  0  0  0  0  0  0  0  0  0  0
  -25.7819  -30.3329   22.0744 C   0  0  0  0  0  0  0  0  0  0  0  0
  -26.0200  -12.6686   20.8275 C   0  0  0  0  0  0  0  0  0  0  0  0
  -26.9442  -32.0397   23.3574 C   0  0  0  0  0  0  0  0  0  0  0  0
  -24.6789  -10.7395   20.7810 C   0  0  0  0  0  0  0  0  0  0  0  0
  -22.1460   -9.5796   20.9275 C   0  0  0  0  0  0  0  0  0  0  0  0
  -24.1876   -9.9991   19.7058 C   0  0  0  0  0  0  0  0  0  0  0  0
  -26.2815  -16.8752   21.1938 C   0  0  0  0  0  0  0  0  0  0  0  0
  -30.3605  -26.0294   24.2494 C   0  0  0  0  0  0  0  0  0  0  0  0
  -29.9595  -23.9244   22.6571 C   0  0  0  0  0  0  0  0  0  0  0  0
  -30.7598  -26.0491   22.9311 C   0  0  0  0  0  0  0  0  0  0  0  0
  -26.0379  -18.9641   21.8357 C   0  0  0  0  0  0  0  0  0  0  0  0
  -24.7194  -17.3257   23.1868 C   0  0  0  0  0  0  0  0  0  0  0  0
  -29.7350  -30.7571   24.1624 C   0  0  0  0  0  0  0  0  0  0  0  0
  -30.4922  -29.6709   24.8686 C   0  0  0  0  0  0  0  0  0  0  0  0
  -22.7086  -28.8587   22.1719 C   0  0  0  0  0  0  0  0  0  0  0  0
  -24.5436  -27.4345   19.9078 C   0  0  0  0  0  0  0  0  0  0  0  0
  -27.5692  -27.2212   18.3433 C   0  0  0  0  0  0  0  0  0  0  0  0
  -30.0421  -22.6008   20.5152 C   0  0  0  0  0  0  0  0  0  0  0  0
  -17.8918  -27.2078   22.5341 C   0  0  0  0  0  0  0  0  0  0  0  0
  -23.6013  -30.8556   20.9184 C   0  0  0  0  0  0  0  0  0  0  0  0
  -25.7401  -28.9174   21.5615 C   0  0  0  0  0  0  0  0  0  0  0  0
  -19.2371  -26.5804   22.1778 C   0  0  0  0  0  0  0  0  0  0  0  0
  -28.5917  -20.7454   17.8448 C   0  0  0  0  0  0  0  0  0  0  0  0
  -20.2906  -26.9501   23.2172 C   0  0  0  0  0  0  0  0  0  0  0  0
  -27.8072  -19.6401   18.5555 C   0  0  0  0  0  0  0  0  0  0  0  0
  -29.8997  -21.0661   18.5660 C   0  0  0  0  0  0  0  0  0  0  0  0
  -28.9770  -20.2674   20.7061 C   0  0  0  0  0  0  0  0  0  0  0  0
  -20.5086  -28.4672   23.2663 C   0  0  1  0  0  0  0  0  0  0  0  0
  -23.3516  -29.3507   20.9062 C   0  0  1  0  0  0  0  0  0  0  0  0
  -27.6209  -19.9548   20.0528 C   0  0  2  0  0  0  0  0  0  0  0  0
  -30.0685  -26.9570   26.5831 C   0  0  0  0  0  0  0  0  0  0  0  0
  -28.7776  -25.9363   16.5584 C   0  0  0  0  0  0  0  0  0  0  0  0
  -24.8407  -25.0706   21.8140 C   0  0  0  0  0  0  0  0  0  0  0  0
  -26.7679  -24.2816   20.4242 C   0  0  0  0  0  0  0  0  0  0  0  0
  -24.4905  -24.4418   19.4190 C   0  0  0  0  0  0  0  0  0  0  0  0
  -28.0104  -29.6592   16.7244 C   0  0  0  0  0  0  0  0  0  0  0  0
  -28.6142  -31.4097   24.9291 C   0  0  0  0  0  0  0  0  0  1  0  0
  -30.5795  -27.2131   25.1667 C   0  0  2  0  0  0  0  0  0  0  0  0
  -25.7744  -26.5605   19.9234 C   0  0  1  0  0  0  0  0  0  0  0  0
  -27.9410  -27.1668   16.8725 C   0  0  2  0  0  0  0  0  0  0  0  0
  -25.4685  -25.1147   20.4066 C   0  0  0  0  0  0  0  0  0  0  0  0
  -29.7542  -24.9566   24.7953 N   0  0  0  0  0  0  0  0  0  0  0  0
  -27.0545  -17.5742   20.3585 N   0  0  0  0  0  0  0  0  0  0  0  0
  -30.5661  -24.9971   22.1112 N   0  0  0  0  0  0  0  0  0  0  0  0
  -26.8852  -18.8410   20.7741 N   0  0  0  0  0  0  0  0  0  0  0  0
  -24.5800  -28.5753   20.7220 N   0  0  0  0  0  0  0  0  0  0  0  0
  -29.6447  -21.3580   19.9783 N   0  0  0  0  0  0  0  0  0  0  0  0
  -31.3917  -27.2037   22.4177 N   0  0  0  0  0  0  0  0  0  0  0  0
  -25.7562  -20.1673   22.3794 N   0  0  0  0  0  0  0  0  0  0  0  0
  -24.4011  -15.9712   23.3557 N   0  0  0  0  0  0  0  0  0  0  0  0
  -29.7180  -22.7782   21.8599 N   0  0  0  0  0  0  0  0  0  0  0  0
  -29.9893  -28.4140   24.6229 N   0  0  0  0  0  0  0  0  0  0  0  0
  -21.3274  -28.8964   22.1528 N   0  0  0  0  0  0  0  0  0  0  0  0
  -26.3446  -26.6344   18.5826 N   0  0  0  0  0  0  0  0  0  0  0  0
  -28.7229  -28.3767   16.4908 N   0  3  0  0  0  0  0  0  0  0  0  0
  -24.1958  -18.1783   23.9434 O   0  0  0  0  0  0  0  0  0  0  0  0
  -30.0913  -31.0494   23.0308 O   0  0  0  0  0  0  0  0  0  0  0  0
  -31.4587  -29.9954   25.5405 O   0  0  0  0  0  0  0  0  0  0  0  0
  -23.4133  -28.4721   23.0969 O   0  0  0  0  0  0  0  0  0  0  0  0
  -23.5880  -27.1205   19.1938 O   0  0  0  0  0  0  0  0  0  0  0  0
  -28.2943  -27.7300   19.1953 O   0  0  0  0  0  0  0  0  0  0  0  0
  -30.6026  -23.4563   19.8253 O   0  0  0  0  0  0  0  0  0  0  0  0
  -25.9364  -11.3152   20.7101 O   0  0  0  0  0  0  0  0  0  0  0  0
  -28.0030  -32.4173   24.1244 O   0  0  0  0  0  0  0  0  0  1  0  0
  -20.9304   -9.0215   20.9987 F   0  0  0  0  0  0  0  0  0  0  0  0
  -24.9282   -9.8405   18.6002 F   0  0  0  0  0  0  0  0  0  0  0  0
  1  2  1  0  0  0  0
  1  5  2  0  0  0  0
  2  6  2  0  0  0  0
  3  8  2  0  0  0  0
  3 16  1  0  0  0  0
  4  9  1  0  0  0  0
  4 16  2  0  0  0  0
  5 18  1  0  0  0  0
  6 20  1  0  0  0  0
  7 10  2  0  0  0  0
  7 19  1  0  0  0  0
  8 22  1  0  0  0  0
  9 22  2  0  0  0  0
 10 23  1  0  0  0  0
 11 12  2  0  0  0  0
 11 24  1  0  0  0  0
 12 25  1  0  0  0  0
 13 21  1  0  0  0  0
 13 23  2  0  0  0  0
 14 25  2  0  0  0  0
 14 26  1  0  0  0  0
 15 29  1  0  0  0  0
 15 62  2  0  0  0  0
 16 27  1  0  0  0  0
 17 27  1  0  0  0  0
 17 31  2  0  0  0  0
 17 32  1  0  0  0  0
 18 20  2  0  0  0  0
 18 39  1  0  0  0  0
 19 21  2  0  0  0  0
 19 40  1  0  0  0  0
 20 48  1  0  0  0  0
 21 41  1  0  0  0  0
 22 83  1  0  0  0  0
 23 84  1  0  0  0  0
 24 26  2  0  0  0  0
 24 83  1  0  0  0  0
 25 85  1  0  0  0  0
 26 86  1  0  0  0  0
 27 63  2  0  0  0  0
 28 30  2  0  0  0  0
 28 58  1  0  0  0  0
 28 62  1  0  0  0  0
 29 64  2  0  0  0  0
 29 71  1  0  0  0  0
 30 64  1  0  0  0  0
 30 68  1  0  0  0  0
 31 65  1  0  0  0  0
 31 69  1  0  0  0  0
 32 70  1  0  0  0  0
 32 76  2  0  0  0  0
 33 34  1  0  0  0  0
 33 57  1  0  0  0  0
 33 77  2  0  0  0  0
 34 72  1  0  0  0  0
 34 78  2  0  0  0  0
 35 49  1  0  0  0  0
 35 73  1  0  0  0  0
 35 79  2  0  0  0  0
 36 59  1  0  0  0  0
 36 66  1  0  0  0  0
 36 80  2  0  0  0  0
 37 60  1  0  0  0  0
 37 74  1  0  0  0  0
 37 81  2  0  0  0  0
 38 67  1  0  0  0  0
 38 71  1  0  0  0  0
 38 82  2  0  0  0  0
 39 42  1  0  0  0  0
 40 49  1  0  0  0  0
 41 66  1  0  0  0  0
 42 44  1  0  0  0  0
 43 45  1  0  0  0  0
 43 46  1  0  0  0  0
 44 48  1  0  0  0  0
 45 50  1  0  0  0  0
 46 67  1  0  0  0  0
 47 50  1  0  0  0  0
 47 67  1  0  0  0  0
 48 73  1  0  0  0  0
 49 66  1  0  0  0  0
 50 65  1  0  0  0  0
 51 58  1  0  0  0  0
 52 60  1  0  0  0  0
 53 61  1  0  0  0  0
 54 61  1  0  0  0  0
 55 61  1  0  0  0  0
 56 75  1  0  0  0  0
 57 84  1  0  0  0  0
 58 72  1  0  0  0  0
 59 61  1  0  0  0  0
 59 74  1  0  0  0  0
 60 75  1  0  0  0  0
 63 65  1  0  0  0  0
M  CHG  1  75   1
M  ISO  4  38 100  57 101  71 100  84 101
M  END
> <Batch ID>
0167

> <Smiles>
CNC(C)C(=O)NC(C(=O)N1Cc2cc([101O:1][101CH2:1]C(=O)C(=O)NC(C)c3ncc([100NH:0][100C:0](=O)N4CCCC(n5nc(-c6ccc(Oc7ccc(F)cc7F)cc6)c(C(N)=O)c5N)C4)nc3N)ccc2CC1C(=O)NC1CCCc2ccccc21)C(C)(C)C

> <Shape>
0.280

> <Color>
0.099

> <Negative vol penalty>
0.000

$$$$

  -OEChem-04052304113D

 83 91  0     1  0  0  0  0  0999 V2000
  -34.4842  -34.0980   26.6333 C   0  0  0  0  0  0  0  0  0  0  0  0
  -34.0275  -32.7997   26.4299 C   0  0  0  0  0  0  0  0  0  0  0  0
  -23.1512   -9.7892   20.1386 C   0  0  0  0  0  0  0  0  0  0  0  0
  -23.8394  -10.0577   22.4389 C   0  0  0  0  0  0  0  0  0  0  0  0
  -33.5721  -35.1332   26.8337 C   0  0  0  0  0  0  0  0  0  0  0  0
  -32.6583  -32.5358   26.4277 C   0  0  0  0  0  0  0  0  0  0  0  0
  -29.7129  -28.3930   23.0120 C   0  0  0  0  0  0  0  0  0  0  0  0
  -22.4293   -8.6479   20.4878 C   0  0  0  0  0  0  0  0  0  0  0  0
  -23.1174   -8.9165   22.7881 C   0  0  0  0  0  0  0  0  0  0  0  0
  -29.2616  -27.1024   23.2848 C   0  0  0  0  0  0  0  0  0  0  0  0
  -19.8933   -8.0950   23.3805 C   0  0  0  0  0  0  0  0  0  0  0  0
  -19.1018   -8.1565   24.5273 C   0  0  0  0  0  0  0  0  0  0  0  0
  -27.0709  -27.9804   23.7841 C   0  0  0  0  0  0  0  0  0  0  0  0
  -29.4260  -19.1994   22.0218 C   0  0  0  0  0  0  0  0  0  0  0  0
  -20.3682   -6.3427   25.4986 C   0  0  0  0  0  0  0  0  0  0  0  0
  -23.8563  -10.4941   21.1142 C   0  0  0  0  0  0  0  0  0  0  0  0
  -24.1379  -13.0014   20.7381 C   0  0  0  0  0  0  0  0  0  0  0  0
  -32.1907  -34.8835   26.8244 C   0  0  0  0  0  0  0  0  0  0  0  0
  -28.8480  -29.4901   23.1340 C   0  0  0  0  0  0  0  0  0  0  0  0
  -31.7268  -33.5685   26.6295 C   0  0  0  0  0  0  0  0  0  0  0  0
  -27.5130  -29.2836   23.5098 C   0  0  0  0  0  0  0  0  0  0  0  0
  -30.3579  -18.2409   22.4865 C   0  0  0  0  0  0  0  0  0  0  0  0
  -22.4123   -8.2116   21.8126 C   0  0  0  0  0  0  0  0  0  0  0  0
  -27.9412  -26.8962   23.6737 C   0  0  0  0  0  0  0  0  0  0  0  0
  -20.9223   -7.1574   23.2926 C   0  0  0  0  0  0  0  0  0  0  0  0
  -19.3392   -7.2803   25.5864 C   0  0  0  0  0  0  0  0  0  0  0  0
  -21.1598   -6.2812   24.3517 C   0  0  0  0  0  0  0  0  0  0  0  0
  -24.6027  -11.6727   20.7540 C   0  0  0  0  0  0  0  0  0  0  0  0
  -30.5955  -18.5477   23.8061 C   0  0  0  0  0  0  0  0  0  0  0  0
  -29.1604  -20.0235   23.0906 C   0  0  0  0  0  0  0  0  0  0  0  0
  -25.2215  -13.7394   20.3287 C   0  0  0  0  0  0  0  0  0  0  0  0
  -28.6488  -22.0517   23.9942 C   0  0  0  0  0  0  0  0  0  0  0  0
  -22.8425  -13.5221   21.0644 C   0  0  0  0  0  0  0  0  0  0  0  0
  -27.7808  -23.2611   24.1229 C   0  0  0  0  0  0  0  0  0  0  0  0
  -28.7854  -32.1074   24.9366 C   0  0  0  0  0  0  0  0  0  0  0  0
  -30.6889  -14.8722   20.6665 C   0  0  0  0  0  0  0  0  0  0  0  0
  -26.2480  -32.8653   23.0633 C   0  0  0  0  0  0  0  0  0  0  0  0
  -23.7243  -31.7936   21.0312 C   0  0  0  0  0  0  0  0  0  0  0  0
  -31.2445  -36.0269   27.0925 C   0  0  0  0  0  0  0  0  0  0  0  0
  -29.3431  -30.8730   22.8103 C   0  0  0  0  0  0  0  0  0  0  0  0
  -26.5390  -30.4255   23.6360 C   0  0  0  0  0  0  0  0  0  0  0  0
  -29.7996  -35.7260   26.7025 C   0  0  0  0  0  0  0  0  0  0  0  0
  -29.6600  -12.2953   18.3992 C   0  0  0  0  0  0  0  0  0  0  0  0
  -29.3836  -34.3509   27.2150 C   0  0  0  0  0  0  0  0  0  0  0  0
  -28.2250  -11.9918   18.8280 C   0  0  0  0  0  0  0  0  0  0  0  0
  -30.5376  -12.6484   19.5959 C   0  0  0  0  0  0  0  0  0  0  0  0
  -28.5739  -13.4714   20.8563 C   0  0  0  0  0  0  0  0  0  0  0  0
  -30.2486  -33.2465   26.5956 C   0  0  1  0  0  0  0  0  0  0  0  0
  -28.5134  -31.9731   23.4650 C   0  0  1  0  0  0  0  0  0  0  0  0
  -27.6463  -13.1398   19.6739 C   0  0  2  0  0  0  0  0  0  0  0  0
  -31.4492  -17.9505   24.8438 C   0  0  0  0  0  0  0  0  0  0  0  0
  -21.7896  -32.6432   19.6775 C   0  0  0  0  0  0  0  0  0  0  0  0
  -24.6390  -33.2734   25.6235 C   0  0  0  0  0  0  0  0  0  0  0  0
  -22.5517  -33.1771   24.2443 C   0  0  0  0  0  0  0  0  0  0  0  0
  -24.2247  -34.9843   23.8471 C   0  0  0  0  0  0  0  0  0  0  0  0
  -24.8716  -30.7390   18.5151 C   0  0  0  0  0  0  0  0  0  0  0  0
  -30.9515  -17.1378   21.7092 C   0  0  0  0  0  0  0  0  0  0  0  0
  -28.4403  -24.5745   23.8031 C   0  0  0  0  0  0  0  0  0  1  0  0
  -30.0071  -15.9415   21.4825 C   0  0  0  0  0  0  0  0  0  0  0  0
  -24.7598  -32.6201   23.1285 C   0  0  1  0  0  0  0  0  0  0  0  0
  -23.2626  -32.2653   19.6641 C   0  0  2  0  0  0  0  0  0  0  0  0
  -24.0624  -33.4922   24.2105 C   0  0  0  0  0  0  0  0  0  0  0  0
  -25.8819  -11.5695   20.3839 N   0  0  0  0  0  0  0  0  0  0  0  0
  -28.3025  -21.1340   23.1599 N   0  0  0  0  0  0  0  0  0  0  0  0
  -26.2302  -12.8427   20.1315 N   0  0  0  0  0  0  0  0  0  0  0  0
  -27.0725  -31.7596   23.3148 N   0  0  0  0  0  0  0  0  0  0  0  0
  -29.9425  -13.7275   20.3864 N   0  0  0  0  0  0  0  0  0  0  0  0
  -25.4005  -15.0613   20.1216 N   0  0  0  0  0  0  0  0  0  0  0  0
  -21.8439  -12.6249   21.4671 N   0  0  0  0  0  0  0  0  0  0  0  0
  -29.8213  -32.9698   25.2409 N   0  0  0  0  0  0  0  0  0  0  0  0
  -24.2524  -32.8265   21.7764 N   0  0  0  0  0  0  0  0  0  0  0  0
  -23.4631  -31.1912   18.6506 N   0  3  0  0  0  0  0  0  0  0  0  0
  -22.5736  -14.7448   20.9850 O   0  0  0  0  0  0  0  0  0  0  0  0
  -26.6174  -23.1043   24.4580 O   0  0  0  0  0  0  0  0  0  0  0  0
  -28.1048  -31.4765   25.7368 O   0  0  0  0  0  0  0  0  0  0  0  0
  -31.8493  -15.0521   20.2878 O   0  0  0  0  0  0  0  0  0  0  0  0
  -26.6635  -33.9946   22.7918 O   0  0  0  0  0  0  0  0  0  0  0  0
  -23.6230  -30.6263   21.4023 O   0  0  0  0  0  0  0  0  0  0  0  0
  -29.8692  -19.6329   24.1821 O   0  0  0  0  0  0  0  0  0  0  0  0
  -21.7078   -7.0981   22.1537 O   0  0  0  0  0  0  0  0  0  0  0  0
  -27.4983  -25.6376   23.9411 O   0  0  0  0  0  0  0  0  0  1  0  0
  -18.5800   -7.3405   26.6883 F   0  0  0  0  0  0  0  0  0  0  0  0
  -22.1476   -5.3791   24.2736 F   0  0  0  0  0  0  0  0  0  0  0  0
  1  2  1  0  0  0  0
  1  5  2  0  0  0  0
  2  6  2  0  0  0  0
  3  8  2  0  0  0  0
  3 16  1  0  0  0  0
  4  9  1  0  0  0  0
  4 16  2  0  0  0  0
  5 18  1  0  0  0  0
  6 20  1  0  0  0  0
  7 10  2  0  0  0  0
  7 19  1  0  0  0  0
  8 23  1  0  0  0  0
  9 23  2  0  0  0  0
 10 24  1  0  0  0  0
 11 12  2  0  0  0  0
 11 25  1  0  0  0  0
 12 26  1  0  0  0  0
 13 21  1  0  0  0  0
 13 24  2  0  0  0  0
 14 22  1  0  0  0  0
 14 30  2  0  0  0  0
 15 26  2  0  0  0  0
 15 27  1  0  0  0  0
 16 28  1  0  0  0  0
 17 28  1  0  0  0  0
 17 31  2  0  0  0  0
 17 33  1  0  0  0  0
 18 20  2  0  0  0  0
 18 39  1  0  0  0  0
 19 21  2  0  0  0  0
 19 40  1  0  0  0  0
 20 48  1  0  0  0  0
 21 41  1  0  0  0  0
 22 29  2  0  0  0  0
 22 57  1  0  0  0  0
 23 80  1  0  0  0  0
 24 81  1  0  0  0  0
 25 27  2  0  0  0  0
 25 80  1  0  0  0  0
 26 82  1  0  0  0  0
 27 83  1  0  0  0  0
 28 63  2  0  0  0  0
 29 51  1  0  0  0  0
 29 79  1  0  0  0  0
 30 64  1  0  0  0  0
 30 79  1  0  0  0  0
 31 65  1  0  0  0  0
 31 68  1  0  0  0  0
 32 34  1  0  0  0  0
 32 64  2  0  0  0  0
 33 69  1  0  0  0  0
 33 73  2  0  0  0  0
 34 58  1  0  0  0  0
 34 74  2  0  0  0  0
 35 49  1  0  0  0  0
 35 70  1  0  0  0  0
 35 75  2  0  0  0  0
 36 59  1  0  0  0  0
 36 67  1  0  0  0  0
 36 76  2  0  0  0  0
 37 60  1  0  0  0  0
 37 66  1  0  0  0  0
 37 77  2  0  0  0  0
 38 61  1  0  0  0  0
 38 71  1  0  0  0  0
 38 78  2  0  0  0  0
 39 42  1  0  0  0  0
 40 49  1  0  0  0  0
 41 66  1  0  0  0  0
 42 44  1  0  0  0  0
 43 45  1  0  0  0  0
 43 46  1  0  0  0  0
 44 48  1  0  0  0  0
 45 50  1  0  0  0  0
 46 67  1  0  0  0  0
 47 50  1  0  0  0  0
 47 67  1  0  0  0  0
 48 70  1  0  0  0  0
 49 66  1  0  0  0  0
 50 65  1  0  0  0  0
 52 61  1  0  0  0  0
 53 62  1  0  0  0  0
 54 62  1  0  0  0  0
 55 62  1  0  0  0  0
 56 72  1  0  0  0  0
 57 59  1  0  0  0  0
 58 81  1  0  0  0  0
 60 62  1  0  0  0  0
 60 71  1  0  0  0  0
 61 72  1  0  0  0  0
 63 65  1  0  0  0  0
M  CHG  1  72   1
M  ISO  4  36 100  58 101  59 100  81 101
M  END
> <Batch ID>
0167

> <Smiles>
CNC(C)C(=O)NC(C(=O)N1Cc2cc([101O:1][101CH2:1]C(=O)CNc3cc(C=[100CH:0][100C:0](=O)N4CCCC(n5nc(-c6ccc(Oc7ccc(F)cc7F)cc6)c(C(N)=O)c5N)C4)c(C)o3)ccc2CC1C(=O)NC1CCCc2ccccc21)C(C)(C)C

> <Shape>
0.262

> <Color>
0.190

> <Negative vol penalty>
0.000

$$$$

  -OEChem-04052304113D

 87 95  0     1  0  0  0  0  0999 V2000
  -26.9856  -32.0117   23.6508 C   0  0  0  0  0  0  0  0  0  0  0  0
  -27.6377  -30.8263   23.3268 C   0  0  0  0  0  0  0  0  0  0  0  0
  -24.2585   -9.2783   21.3912 C   0  0  0  0  0  0  0  0  0  0  0  0
  -24.8428  -10.2640   23.5182 C   0  0  0  0  0  0  0  0  0  0  0  0
  -25.8147  -32.3670   22.9825 C   0  0  0  0  0  0  0  0  0  0  0  0
  -27.1186  -29.9949   22.3349 C   0  0  0  0  0  0  0  0  0  0  0  0
  -30.6802  -28.3051   19.1562 C   0  0  0  0  0  0  0  0  0  0  0  0
  -23.8961   -8.0970   22.0382 C   0  0  0  0  0  0  0  0  0  0  0  0
  -24.4804   -9.0826   24.1652 C   0  0  0  0  0  0  0  0  0  0  0  0
  -31.4864  -27.2584   19.6015 C   0  0  0  0  0  0  0  0  0  0  0  0
  -21.2612   -6.9343   23.8097 C   0  0  0  0  0  0  0  0  0  0  0  0
  -20.0641   -6.3279   23.4294 C   0  0  0  0  0  0  0  0  0  0  0  0
  -30.1456  -25.6979   18.3419 C   0  0  0  0  0  0  0  0  0  0  0  0
  -30.4487  -19.0728   22.8733 C   0  0  0  0  0  0  0  0  0  0  0  0
  -21.2760   -4.3393   22.7859 C   0  0  0  0  0  0  0  0  0  0  0  0
  -24.7319  -10.3619   22.1312 C   0  0  0  0  0  0  0  0  0  0  0  0
  -24.2792  -12.6852   21.1800 C   0  0  0  0  0  0  0  0  0  0  0  0
  -25.2863  -31.5443   21.9752 C   0  0  0  0  0  0  0  0  0  0  0  0
  -29.5923  -28.0543   18.3077 C   0  0  0  0  0  0  0  0  0  0  0  0
  -25.9388  -30.3389   21.6535 C   0  0  0  0  0  0  0  0  0  0  0  0
  -29.3287  -26.7435   17.8852 C   0  0  0  0  0  0  0  0  0  0  0  0
  -30.3938  -17.6921   23.2210 C   0  0  0  0  0  0  0  0  0  0  0  0
  -24.0071   -7.9991   23.4252 C   0  0  0  0  0  0  0  0  0  0  0  0
  -31.2174  -25.9542   19.1967 C   0  0  0  0  0  0  0  0  0  0  0  0
  -22.4658   -6.2433   23.6781 C   0  0  0  0  0  0  0  0  0  0  0  0
  -20.0714   -5.0304   22.9175 C   0  0  0  0  0  0  0  0  0  0  0  0
  -22.4731   -4.9458   23.1662 C   0  0  0  0  0  0  0  0  0  0  0  0
  -25.1069  -11.5823   21.4634 C   0  0  0  0  0  0  0  0  0  0  0  0
  -31.4106  -16.9702   22.6357 C   0  0  0  0  0  0  0  0  0  0  0  0
  -25.1039  -13.5781   20.5405 C   0  0  0  0  0  0  0  0  0  0  0  0
  -31.5057  -19.3536   22.0355 C   0  0  0  0  0  0  0  0  0  0  0  0
  -31.4136  -23.9283   20.3490 C   0  0  0  0  0  0  0  0  0  1  0  0
  -22.8891  -12.8847   21.4689 C   0  0  0  0  0  0  0  0  0  0  0  0
  -32.0890  -22.8749   20.8241 C   0  0  0  0  0  0  0  0  0  0  0  0
  -31.3497  -21.8269   21.6010 C   0  0  0  0  0  0  0  0  0  0  0  0
  -26.4455  -28.4506   18.5181 C   0  0  0  0  0  0  0  0  0  0  0  0
  -26.5116  -27.5099   15.4144 C   0  0  0  0  0  0  0  0  0  0  0  0
  -28.1388  -25.8266   12.9313 C   0  0  0  0  0  0  0  0  0  0  0  0
  -31.0298  -14.4321   20.6183 C   0  0  0  0  0  0  0  0  0  0  0  0
  -23.9922  -31.9471   21.3135 C   0  0  0  0  0  0  0  0  0  0  0  0
  -28.7484  -29.1976   17.8148 C   0  0  0  0  0  0  0  0  0  0  0  0
  -28.1851  -26.4237   16.9588 C   0  0  0  0  0  0  0  0  0  0  0  0
  -23.7123  -31.1949   20.0149 C   0  0  0  0  0  0  0  0  0  0  0  0
  -29.0016  -13.7546   17.7715 C   0  0  0  0  0  0  0  0  0  0  0  0
  -23.9574  -29.7008   20.2000 C   0  0  0  0  0  0  0  0  0  0  0  0
  -27.6988  -13.2206   18.3693 C   0  0  0  0  0  0  0  0  0  0  0  0
  -30.2191  -13.2965   18.5714 C   0  0  0  0  0  0  0  0  0  0  0  0
  -28.8576  -13.0617   20.6122 C   0  0  0  0  0  0  0  0  0  0  0  0
  -25.4203  -29.4229   20.5662 C   0  0  1  0  0  0  0  0  0  0  0  0
  -27.3569  -28.7628   17.3651 C   0  0  1  0  0  0  0  0  0  0  0  0
  -27.5978  -13.5432   19.8723 C   0  0  2  0  0  0  0  0  0  0  0  0
  -27.9283  -25.2007   10.5103 C   0  0  0  0  0  0  0  0  0  0  0  0
  -24.4542  -25.3790   16.1467 C   0  0  0  0  0  0  0  0  0  0  0  0
  -24.9927  -24.2188   13.9945 C   0  0  0  0  0  0  0  0  0  0  0  0
  -24.0385  -26.5234   13.9622 C   0  0  0  0  0  0  0  0  0  0  0  0
  -30.6158  -27.2818   12.2199 C   0  0  0  0  0  0  0  0  0  0  0  0
  -31.7040  -15.5230   22.7430 C   0  0  0  0  0  0  0  0  0  0  0  0
  -26.4335  -26.1837   14.6974 C   0  0  1  0  0  0  0  0  0  0  0  0
  -28.4739  -26.2157   11.5027 C   0  0  2  0  0  0  0  0  0  0  0  0
  -29.3587  -17.1122   24.1095 C   0  0  0  0  0  0  0  0  0  0  0  0
  -25.0002  -25.5816   14.7192 C   0  0  0  0  0  0  0  0  0  0  0  0
  -26.3612  -11.7564   21.0387 N   0  0  0  0  0  0  0  0  0  0  0  0
  -26.3278  -12.9790   20.4818 N   0  0  0  0  0  0  0  0  0  0  0  0
  -27.3850  -27.5749   16.5093 N   0  0  0  0  0  0  0  0  0  0  0  0
  -30.0609  -13.6338   19.9881 N   0  0  0  0  0  0  0  0  0  0  0  0
  -24.8944  -14.8095   20.0283 N   0  0  0  0  0  0  0  0  0  0  0  0
  -22.1915  -11.8657   22.1319 N   0  0  0  0  0  0  0  0  0  0  0  0
  -31.9278  -20.5735   21.4539 N   0  0  0  0  0  0  0  0  0  0  0  0
  -26.2602  -29.5061   19.3905 N   0  0  0  0  0  0  0  0  0  0  0  0
  -26.9655  -26.4118   13.3582 N   0  0  0  0  0  0  0  0  0  0  0  0
  -30.8003  -14.7098   21.9603 N   0  0  0  0  0  0  0  0  0  0  0  0
  -29.9506  -26.3026   11.3223 N   0  3  0  0  0  0  0  0  0  0  0  0
  -22.2794  -13.9286   21.1341 O   0  0  0  0  0  0  0  0  0  0  0  0
  -30.3602  -22.1159   22.2652 O   0  0  0  0  0  0  0  0  0  0  0  0
  -25.9460  -27.3353   18.6086 O   0  0  0  0  0  0  0  0  0  0  0  0
  -25.8284  -28.4553   15.0133 O   0  0  0  0  0  0  0  0  0  0  0  0
  -28.8452  -25.0756   13.6002 O   0  0  0  0  0  0  0  0  0  0  0  0
  -32.0229  -14.8696   20.0273 O   0  0  0  0  0  0  0  0  0  0  0  0
  -33.4451  -22.7120   20.6260 O   0  0  0  0  0  0  0  0  0  0  0  0
  -23.6533   -6.8465   24.0569 O   0  0  0  0  0  0  0  0  0  0  0  0
  -32.0023  -24.9307   19.6304 O   0  0  0  0  0  0  0  0  0  1  0  0
  -18.9216   -4.4475   22.5537 F   0  0  0  0  0  0  0  0  0  0  0  0
  -23.6271   -4.2765   23.0385 F   0  0  0  0  0  0  0  0  0  0  0  0
  -28.4489  -18.0248   24.5738 F   0  0  0  0  0  0  0  0  0  0  0  0
  -28.6013  -16.1365   23.5178 F   0  0  0  0  0  0  0  0  0  0  0  0
  -29.8831  -16.5278   25.2303 F   0  0  0  0  0  0  0  0  0  0  0  0
  -32.4258  -17.9561   21.6714 S   0  0  0  0  0  0  0  0  0  0  0  0
  1  2  1  0  0  0  0
  1  5  2  0  0  0  0
  2  6  2  0  0  0  0
  3  8  2  0  0  0  0
  3 16  1  0  0  0  0
  4  9  1  0  0  0  0
  4 16  2  0  0  0  0
  5 18  1  0  0  0  0
  6 20  1  0  0  0  0
  7 10  2  0  0  0  0
  7 19  1  0  0  0  0
  8 23  1  0  0  0  0
  9 23  2  0  0  0  0
 10 24  1  0  0  0  0
 11 12  2  0  0  0  0
 11 25  1  0  0  0  0
 12 26  1  0  0  0  0
 13 21  1  0  0  0  0
 13 24  2  0  0  0  0
 14 22  1  0  0  0  0
 14 31  2  0  0  0  0
 15 26  2  0  0  0  0
 15 27  1  0  0  0  0
 16 28  1  0  0  0  0
 17 28  1  0  0  0  0
 17 30  2  0  0  0  0
 17 33  1  0  0  0  0
 18 20  2  0  0  0  0
 18 40  1  0  0  0  0
 19 21  2  0  0  0  0
 19 41  1  0  0  0  0
 20 49  1  0  0  0  0
 21 42  1  0  0  0  0
 22 29  2  0  0  0  0
 22 60  1  0  0  0  0
 23 80  1  0  0  0  0
 24 81  1  0  0  0  0
 25 27  2  0  0  0  0
 25 80  1  0  0  0  0
 26 82  1  0  0  0  0
 27 83  1  0  0  0  0
 28 62  2  0  0  0  0
 29 57  1  0  0  0  0
 29 87  1  0  0  0  0
 30 63  1  0  0  0  0
 30 66  1  0  0  0  0
 31 68  1  0  0  0  0
 31 87  1  0  0  0  0
 32 34  2  0  0  0  0
 32 81  1  0  0  0  0
 33 67  1  0  0  0  0
 33 73  2  0  0  0  0
 34 35  1  0  0  0  0
 34 79  1  0  0  0  0
 35 68  1  0  0  0  0
 35 74  2  0  0  0  0
 36 50  1  0  0  0  0
 36 69  1  0  0  0  0
 36 75  2  0  0  0  0
 37 58  1  0  0  0  0
 37 64  1  0  0  0  0
 37 76  2  0  0  0  0
 38 59  1  0  0  0  0
 38 70  1  0  0  0  0
 38 77  2  0  0  0  0
 39 65  1  0  0  0  0
 39 71  1  0  0  0  0
 39 78  2  0  0  0  0
 40 43  1  0  0  0  0
 41 50  1  0  0  0  0
 42 64  1  0  0  0  0
 43 45  1  0  0  0  0
 44 46  1  0  0  0  0
 44 47  1  0  0  0  0
 45 49  1  0  0  0  0
 46 51  1  0  0  0  0
 47 65  1  0  0  0  0
 48 51  1  0  0  0  0
 48 65  1  0  0  0  0
 49 69  1  0  0  0  0
 50 64  1  0  0  0  0
 51 63  1  0  0  0  0
 52 59  1  0  0  0  0
 53 61  1  0  0  0  0
 54 61  1  0  0  0  0
 55 61  1  0  0  0  0
 56 72  1  0  0  0  0
 57 71  1  0  0  0  0
 58 61  1  0  0  0  0
 58 70  1  0  0  0  0
 59 72  1  0  0  0  0
 60 84  1  0  0  0  0
 60 85  1  0  0  0  0
 60 86  1  0  0  0  0
 62 63  1  0  0  0  0
M  CHG  1  72   1
M  ISO  4  32 101  39 100  71 100  81 101
M  END
> <Batch ID>
0167

> <Smiles>
CNC(C)C(=O)NC(C(=O)N1Cc2cc([101O:1][101CH2:1]C(=O)C(=O)Nc3cc(C(F)(F)F)c(C[100NH:0][100C:0](=O)N4CCCC(n5nc(-c6ccc(Oc7ccc(F)cc7F)cc6)c(C(N)=O)c5N)C4)s3)ccc2CC1C(=O)NC1CCCc2ccccc21)C(C)(C)C

> <Shape>
0.261

> <Color>
0.132

> <Negative vol penalty>
0.000

$$$$

  -OEChem-04052304113D

 83 91  0     1  0  0  0  0  0999 V2000
  -33.8189  -27.5805   17.0131 C   0  0  0  0  0  0  0  0  0  0  0  0
  -33.0330  -26.7747   17.8307 C   0  0  0  0  0  0  0  0  0  0  0  0
  -32.2140  -19.0364   21.0511 C   0  0  0  0  0  0  0  0  0  0  0  0
  -23.8683   -9.8162   21.9601 C   0  0  0  0  0  0  0  0  0  0  0  0
  -24.3660  -11.1835   23.8888 C   0  0  0  0  0  0  0  0  0  0  0  0
  -33.9387  -28.9424   17.2863 C   0  0  0  0  0  0  0  0  0  0  0  0
  -32.3672  -27.3303   18.9227 C   0  0  0  0  0  0  0  0  0  0  0  0
  -27.5756  -25.7343   19.2942 C   0  0  0  0  0  0  0  0  0  0  0  0
  -23.3618   -8.8212   22.7961 C   0  0  0  0  0  0  0  0  0  0  0  0
  -23.8594  -10.1885   24.7249 C   0  0  0  0  0  0  0  0  0  0  0  0
  -27.3676  -24.4617   19.8241 C   0  0  0  0  0  0  0  0  0  0  0  0
  -20.5121   -8.2247   24.5155 C   0  0  0  0  0  0  0  0  0  0  0  0
  -19.3021   -7.6306   24.1569 C   0  0  0  0  0  0  0  0  0  0  0  0
  -32.4150  -17.7128   21.4264 C   0  0  0  0  0  0  0  0  0  0  0  0
  -31.1093  -19.7298   21.5330 C   0  0  0  0  0  0  0  0  0  0  0  0
  -26.8156  -25.4462   21.9561 C   0  0  0  0  0  0  0  0  0  0  0  0
  -20.3931   -5.4780   24.0426 C   0  0  0  0  0  0  0  0  0  0  0  0
  -24.3705  -10.9974   22.5064 C   0  0  0  0  0  0  0  0  0  0  0  0
  -24.1840  -13.0959   21.0680 C   0  0  0  0  0  0  0  0  0  0  0  0
  -33.2663  -29.5168   18.3765 C   0  0  0  0  0  0  0  0  0  0  0  0
  -27.4154  -26.8739   20.0955 C   0  0  0  0  0  0  0  0  0  0  0  0
  -32.4792  -28.7010   19.2115 C   0  0  0  0  0  0  0  0  0  0  0  0
  -27.0196  -26.7323   21.4332 C   0  0  0  0  0  0  0  0  0  0  0  0
  -23.3573   -9.0074   24.1785 C   0  0  0  0  0  0  0  0  0  0  0  0
  -26.9904  -24.3173   21.1560 C   0  0  0  0  0  0  0  0  0  0  0  0
  -21.6626   -7.4455   24.6377 C   0  0  0  0  0  0  0  0  0  0  0  0
  -19.2426   -6.2572   23.9205 C   0  0  0  0  0  0  0  0  0  0  0  0
  -21.6031   -6.0721   24.4013 C   0  0  0  0  0  0  0  0  0  0  0  0
  -24.8944  -12.0253   21.6433 C   0  0  0  0  0  0  0  0  0  0  0  0
  -31.4896  -17.1328   22.2791 C   0  0  0  0  0  0  0  0  0  0  0  0
  -30.2422  -19.0594   22.3807 C   0  0  0  0  0  0  0  0  0  0  0  0
  -25.1258  -13.7812   20.3401 C   0  0  0  0  0  0  0  0  0  0  0  0
  -22.7967  -13.4401   21.1814 C   0  0  0  0  0  0  0  0  0  0  0  0
  -29.3300  -29.2146   21.0749 C   0  0  0  0  0  0  0  0  0  0  0  0
  -26.5766  -30.4360   22.2785 C   0  0  0  0  0  0  0  0  0  0  0  0
  -28.7735  -21.0945   22.5938 C   0  0  0  0  0  0  0  0  0  0  0  0
  -23.4002  -29.8725   23.3921 C   0  0  0  0  0  0  0  0  0  0  0  0
  -31.0780  -14.2500   20.7895 C   0  0  0  0  0  0  0  0  0  0  0  0
  -33.4641  -30.9849   18.6598 C   0  0  0  0  0  0  0  0  0  0  0  0
  -27.6175  -28.2409   19.5016 C   0  0  0  0  0  0  0  0  0  0  0  0
  -26.8146  -27.9248   22.3301 C   0  0  0  0  0  0  0  0  0  0  0  0
  -32.4261  -31.5660   19.6164 C   0  0  0  0  0  0  0  0  0  0  0  0
  -29.2263  -13.1264   17.9636 C   0  0  0  0  0  0  0  0  0  0  0  0
  -32.2385  -30.6495   20.8213 C   0  0  0  0  0  0  0  0  0  0  0  0
  -27.8420  -12.8134   18.5344 C   0  0  0  0  0  0  0  0  0  0  0  0
  -30.3370  -12.7676   18.9483 C   0  0  0  0  0  0  0  0  0  0  0  0
  -28.8079  -13.0509   20.8602 C   0  0  0  0  0  0  0  0  0  0  0  0
  -31.7217  -29.2713   20.3909 C   0  0  1  0  0  0  0  0  0  0  0  0
  -27.9260  -29.3074   20.5480 C   0  0  1  0  0  0  0  0  0  0  0  0
  -27.6525  -13.4477   19.9254 C   0  0  2  0  0  0  0  0  0  0  0  0
  -21.4078  -31.0616   24.3479 C   0  0  0  0  0  0  0  0  0  0  0  0
  -27.9868  -30.6241   24.9778 C   0  0  0  0  0  0  0  0  0  0  0  0
  -25.7422  -30.8963   26.0530 C   0  0  0  0  0  0  0  0  0  0  0  0
  -26.5508  -32.5918   24.4116 C   0  0  0  0  0  0  0  0  0  0  0  0
  -21.6877  -29.0796   21.1123 C   0  0  0  0  0  0  0  0  0  0  0  0
  -31.6738  -15.7138   22.7030 C   0  0  0  0  0  0  0  0  0  0  0  0
  -27.4894  -21.4695   23.3248 C   0  0  0  0  0  0  0  0  0  0  0  0
  -27.0524  -22.9037   23.0675 C   0  0  0  0  0  0  0  0  0  1  0  0
  -25.8340  -30.3119   23.5870 C   0  0  1  0  0  0  0  0  0  0  0  0
  -22.0858  -30.5651   23.0805 C   0  0  2  0  0  0  0  0  0  0  0  0
  -26.5341  -31.0833   24.7413 C   0  0  0  0  0  0  0  0  0  0  0  0
  -26.1877  -12.0262   21.3096 N   0  0  0  0  0  0  0  0  0  0  0  0
  -30.4045  -17.7743   22.7676 N   0  0  0  0  0  0  0  0  0  0  0  0
  -26.2974  -13.1056   20.5166 N   0  0  0  0  0  0  0  0  0  0  0  0
  -27.0305  -29.2400   21.7046 N   0  0  0  0  0  0  0  0  0  0  0  0
  -30.0984  -13.4020   20.2470 N   0  0  0  0  0  0  0  0  0  0  0  0
  -25.0578  -14.8898   19.5727 N   0  0  0  0  0  0  0  0  0  0  0  0
  -21.9692  -12.6285   21.9693 N   0  0  0  0  0  0  0  0  0  0  0  0
  -29.1221  -19.7745   22.8672 N   0  0  0  0  0  0  0  0  0  0  0  0
  -30.3048  -29.3304   20.1023 N   0  0  0  0  0  0  0  0  0  0  0  0
  -24.4660  -30.7445   23.3227 N   0  0  0  0  0  0  0  0  0  0  0  0
  -30.7694  -14.8152   22.0207 N   0  0  0  0  0  0  0  0  0  0  0  0
  -21.1577  -29.6273   22.3875 N   0  3  0  0  0  0  0  0  0  0  0  0
  -22.3022  -14.4284   20.5879 O   0  0  0  0  0  0  0  0  0  0  0  0
  -29.5154  -29.0515   22.2752 O   0  0  0  0  0  0  0  0  0  0  0  0
  -26.7413  -31.5524   21.7803 O   0  0  0  0  0  0  0  0  0  0  0  0
  -29.3730  -21.8894   21.8776 O   0  0  0  0  0  0  0  0  0  0  0  0
  -23.4737  -28.6782   23.6729 O   0  0  0  0  0  0  0  0  0  0  0  0
  -32.1461  -14.4901   20.2163 O   0  0  0  0  0  0  0  0  0  0  0  0
  -22.8629   -8.0368   24.9946 O   0  0  0  0  0  0  0  0  0  0  0  0
  -26.7874  -23.0762   21.6760 O   0  0  0  0  0  0  0  0  0  1  0  0
  -18.0803   -5.6866   23.5775 F   0  0  0  0  0  0  0  0  0  0  0  0
  -22.7047   -5.3182   24.5182 F   0  0  0  0  0  0  0  0  0  0  0  0
  1  2  1  0  0  0  0
  1  6  2  0  0  0  0
  2  7  2  0  0  0  0
  3 14  1  0  0  0  0
  3 15  2  0  0  0  0
  4  9  2  0  0  0  0
  4 18  1  0  0  0  0
  5 10  1  0  0  0  0
  5 18  2  0  0  0  0
  6 20  1  0  0  0  0
  7 22  1  0  0  0  0
  8 11  2  0  0  0  0
  8 21  1  0  0  0  0
  9 24  1  0  0  0  0
 10 24  2  0  0  0  0
 11 25  1  0  0  0  0
 12 13  2  0  0  0  0
 12 26  1  0  0  0  0
 13 27  1  0  0  0  0
 14 30  2  0  0  0  0
 15 31  1  0  0  0  0
 16 23  1  0  0  0  0
 16 25  2  0  0  0  0
 17 27  2  0  0  0  0
 17 28  1  0  0  0  0
 18 29  1  0  0  0  0
 19 29  1  0  0  0  0
 19 32  2  0  0  0  0
 19 33  1  0  0  0  0
 20 22  2  0  0  0  0
 20 39  1  0  0  0  0
 21 23  2  0  0  0  0
 21 40  1  0  0  0  0
 22 48  1  0  0  0  0
 23 41  1  0  0  0  0
 24 80  1  0  0  0  0
 25 81  1  0  0  0  0
 26 28  2  0  0  0  0
 26 80  1  0  0  0  0
 27 82  1  0  0  0  0
 28 83  1  0  0  0  0
 29 62  2  0  0  0  0
 30 56  1  0  0  0  0
 30 63  1  0  0  0  0
 31 63  2  0  0  0  0
 31 69  1  0  0  0  0
 32 64  1  0  0  0  0
 32 67  1  0  0  0  0
 33 68  1  0  0  0  0
 33 74  2  0  0  0  0
 34 49  1  0  0  0  0
 34 70  1  0  0  0  0
 34 75  2  0  0  0  0
 35 59  1  0  0  0  0
 35 65  1  0  0  0  0
 35 76  2  0  0  0  0
 36 57  1  0  0  0  0
 36 69  1  0  0  0  0
 36 77  2  0  0  0  0
 37 60  1  0  0  0  0
 37 71  1  0  0  0  0
 37 78  2  0  0  0  0
 38 66  1  0  0  0  0
 38 72  1  0  0  0  0
 38 79  2  0  0  0  0
 39 42  1  0  0  0  0
 40 49  1  0  0  0  0
 41 65  1  0  0  0  0
 42 44  1  0  0  0  0
 43 45  1  0  0  0  0
 43 46  1  0  0  0  0
 44 48  1  0  0  0  0
 45 50  1  0  0  0  0
 46 66  1  0  0  0  0
 47 50  1  0  0  0  0
 47 66  1  0  0  0  0
 48 70  1  0  0  0  0
 49 65  1  0  0  0  0
 50 64  1  0  0  0  0
 51 60  1  0  0  0  0
 52 61  1  0  0  0  0
 53 61  1  0  0  0  0
 54 61  1  0  0  0  0
 55 73  1  0  0  0  0
 56 72  1  0  0  0  0
 57 58  1  0  0  0  0
 58 81  1  0  0  0  0
 59 61  1  0  0  0  0
 59 71  1  0  0  0  0
 60 73  1  0  0  0  0
 62 64  1  0  0  0  0
M  CHG  1  73   1
M  ISO  4  38 100  58 101  72 100  81 101
M  END
> <Batch ID>
0167

> <Smiles>
CNC(C)C(=O)NC(C(=O)N1Cc2cc([101O:1][101CH2:1]CC(=O)Nc3cccc(C[100NH:0][100C:0](=O)N4CCCC(n5nc(-c6ccc(Oc7ccc(F)cc7F)cc6)c(C(N)=O)c5N)C4)n3)ccc2CC1C(=O)NC1CCCc2ccccc21)C(C)(C)C

> <Shape>
0.277

> <Color>
0.175

> <Negative vol penalty>
0.000

$$$$

  -OEChem-04052304113D

 84 92  0     1  0  0  0  0  0999 V2000
  -22.8550  -17.7343   22.8958 C   0  0  0  0  0  0  0  0  0  0  0  0
  -23.2697  -18.6245   21.9105 C   0  0  0  0  0  0  0  0  0  0  0  0
  -26.7290  -12.7519   20.7104 C   0  0  0  0  0  0  0  0  0  0  0  0
  -25.3171  -14.3123   19.5235 C   0  0  0  0  0  0  0  0  0  0  0  0
  -21.7247  -18.0198   23.6607 C   0  0  0  0  0  0  0  0  0  0  0  0
  -22.5538  -19.8004   21.6888 C   0  0  0  0  0  0  0  0  0  0  0  0
  -25.5643  -23.8393   21.1699 C   0  0  0  0  0  0  0  0  0  0  0  0
  -25.8555  -11.7142   20.3855 C   0  0  0  0  0  0  0  0  0  0  0  0
  -24.4435  -13.2745   19.1985 C   0  0  0  0  0  0  0  0  0  0  0  0
  -26.2021  -24.0044   19.9412 C   0  0  0  0  0  0  0  0  0  0  0  0
  -22.8784  -10.5344   21.4669 C   0  0  0  0  0  0  0  0  0  0  0  0
  -22.5320   -9.6390   22.4788 C   0  0  0  0  0  0  0  0  0  0  0  0
  -24.5354  -25.6265   19.3008 C   0  0  0  0  0  0  0  0  0  0  0  0
  -29.7596  -23.9269   22.7532 C   0  0  0  0  0  0  0  0  0  0  0  0
  -23.4613   -7.8205   21.1879 C   0  0  0  0  0  0  0  0  0  0  0  0
  -26.4598  -14.0510   20.2794 C   0  0  0  0  0  0  0  0  0  0  0  0
  -28.4729  -15.5639   19.8718 C   0  0  0  0  0  0  0  0  0  0  0  0
  -21.0002  -19.2044   23.4547 C   0  0  0  0  0  0  0  0  0  0  0  0
  -24.3992  -24.5597   21.4695 C   0  0  0  0  0  0  0  0  0  0  0  0
  -21.4121  -20.1014   22.4506 C   0  0  0  0  0  0  0  0  0  0  0  0
  -23.8862  -25.4706   20.5351 C   0  0  0  0  0  0  0  0  0  0  0  0
  -30.4001  -24.9344   21.9754 C   0  0  0  0  0  0  0  0  0  0  0  0
  -24.7127  -11.9755   19.6295 C   0  0  0  0  0  0  0  0  0  0  0  0
  -25.6860  -24.8959   19.0053 C   0  0  0  0  0  0  0  0  0  0  0  0
  -23.5162  -10.0728   20.3154 C   0  0  0  0  0  0  0  0  0  0  0  0
  -22.8235   -8.2821   22.3393 C   0  0  0  0  0  0  0  0  0  0  0  0
  -23.8077   -8.7159   20.1759 C   0  0  0  0  0  0  0  0  0  0  0  0
  -27.3616  -15.1235   20.6153 C   0  0  0  0  0  0  0  0  0  0  0  0
  -30.5580  -24.5514   20.6616 C   0  0  0  0  0  0  0  0  0  0  0  0
  -28.9927  -16.5981   20.6114 C   0  0  0  0  0  0  0  0  0  0  0  0
  -29.4523  -22.8123   22.0041 C   0  0  0  0  0  0  0  0  0  0  0  0
  -28.9893  -15.0814   18.6243 C   0  0  0  0  0  0  0  0  0  0  0  0
  -21.3883  -23.7822   22.1283 C   0  0  0  0  0  0  0  0  0  0  0  0
  -21.0983  -26.9647   22.6854 C   0  0  0  0  0  0  0  0  0  0  0  0
  -29.0716  -26.2498   18.5815 C   0  0  0  0  0  0  0  0  0  0  0  0
  -22.2517  -30.1241   22.1071 C   0  0  0  0  0  0  0  0  0  0  0  0
  -28.3487  -21.2337   23.6279 C   0  0  0  0  0  0  0  0  0  0  0  0
  -19.7576  -19.4471   24.2743 C   0  0  0  0  0  0  0  0  0  0  0  0
  -23.7382  -24.3900   22.8099 C   0  0  0  0  0  0  0  0  0  0  0  0
  -22.6494  -26.2830   20.8160 C   0  0  0  0  0  0  0  0  0  0  0  0
  -19.2716  -20.8935   24.2299 C   0  0  0  0  0  0  0  0  0  0  0  0
  -27.9505  -18.1278   25.3226 C   0  0  0  0  0  0  0  0  0  0  0  0
  -19.2641  -21.4104   22.7948 C   0  0  0  0  0  0  0  0  0  0  0  0
  -27.8532  -17.1055   24.1878 C   0  0  0  0  0  0  0  0  0  0  0  0
  -27.2603  -19.4422   24.9625 C   0  0  0  0  0  0  0  0  0  0  0  0
  -27.5935  -19.0198   22.5584 C   0  0  0  0  0  0  0  0  0  0  0  0
  -20.6761  -21.3992   22.1969 C   0  0  1  0  0  0  0  0  0  0  0  0
  -22.2673  -24.7948   22.8064 C   0  0  1  0  0  0  0  0  0  0  0  0
  -28.3305  -17.7022   22.8493 C   0  0  2  0  0  0  0  0  0  0  0  0
  -30.8402  -26.2380   22.5267 C   0  0  0  0  0  0  0  0  0  0  0  0
  -21.7867  -32.5248   22.6706 C   0  0  0  0  0  0  0  0  0  0  0  0
  -26.0667  -26.8513   16.2336 C   0  0  0  0  0  0  0  0  0  0  0  0
  -18.7508  -26.9650   20.7363 C   0  0  0  0  0  0  0  0  0  0  0  0
  -18.9456  -29.4579   20.6107 C   0  0  0  0  0  0  0  0  0  0  0  0
  -18.4066  -28.3586   22.7841 C   0  0  0  0  0  0  0  0  0  0  0  0
  -24.8954  -30.4545   23.3959 C   0  0  0  0  0  0  0  0  0  0  0  0
  -31.1783  -25.3130   19.5261 C   0  0  0  0  0  0  0  0  0  0  0  0
  -28.2907  -26.3016   17.2764 C   0  0  0  0  0  0  0  0  0  0  0  0
  -20.7468  -28.1693   21.8462 C   0  0  1  0  0  0  0  0  0  0  0  0
  -22.5606  -31.2722   23.0510 C   0  0  2  0  0  0  0  0  0  0  0  0
  -26.7787  -26.3677   17.4901 C   0  0  2  0  0  0  0  0  0  1  0  0
  -19.2347  -28.2211   21.4880 C   0  0  0  0  0  0  0  0  0  0  0  0
  -27.1850  -15.8206   21.7408 N   0  0  0  0  0  0  0  0  0  0  0  0
  -28.1924  -16.7096   21.7101 N   0  0  0  0  0  0  0  0  0  0  0  0
  -22.0356  -26.0770   22.1382 N   0  0  0  0  0  0  0  0  0  0  0  0
  -27.7658  -19.9501   23.6852 N   0  0  0  0  0  0  0  0  0  0  0  0
  -30.0516  -17.4137   20.4225 N   0  0  0  0  0  0  0  0  0  0  0  0
  -28.3342  -14.0118   17.9990 N   0  0  0  0  0  0  0  0  0  0  0  0
  -28.8229  -21.5959   22.3675 N   0  0  0  0  0  0  0  0  0  0  0  0
  -21.4436  -22.5218   22.6921 N   0  0  0  0  0  0  0  0  0  0  0  0
  -30.2456  -25.5231   18.4425 N   0  0  0  0  0  0  0  0  0  0  0  0
  -21.2267  -29.3338   22.5824 N   0  0  0  0  0  0  0  0  0  0  0  0
  -24.0160  -31.5912   23.0198 N   0  3  0  0  0  0  0  0  0  0  0  0
  -30.0112  -15.5733   18.0884 O   0  0  0  0  0  0  0  0  0  0  0  0
  -20.7090  -24.1199   21.1658 O   0  0  0  0  0  0  0  0  0  0  0  0
  -20.5665  -26.8205   23.7890 O   0  0  0  0  0  0  0  0  0  0  0  0
  -28.6915  -26.7897   19.6167 O   0  0  0  0  0  0  0  0  0  0  0  0
  -22.8566  -29.9483   21.0518 O   0  0  0  0  0  0  0  0  0  0  0  0
  -28.4464  -21.9473   24.6295 O   0  0  0  0  0  0  0  0  0  0  0  0
  -23.8602  -10.9631   19.3120 O   0  0  0  0  0  0  0  0  0  0  0  0
  -26.3062  -25.0585   17.8049 O   0  0  0  0  0  0  0  0  0  1  0  0
  -22.4922   -7.4227   23.3118 F   0  0  0  0  0  0  0  0  0  0  0  0
  -24.4214   -8.2667   19.0725 F   0  0  0  0  0  0  0  0  0  0  0  0
  -29.9355  -22.9830   20.3703 S   0  0  0  0  0  0  0  0  0  0  0  0
  1  2  1  0  0  0  0
  1  5  2  0  0  0  0
  2  6  2  0  0  0  0
  3  8  2  0  0  0  0
  3 16  1  0  0  0  0
  4  9  1  0  0  0  0
  4 16  2  0  0  0  0
  5 18  1  0  0  0  0
  6 20  1  0  0  0  0
  7 10  2  0  0  0  0
  7 19  1  0  0  0  0
  8 23  1  0  0  0  0
  9 23  2  0  0  0  0
 10 24  1  0  0  0  0
 11 12  2  0  0  0  0
 11 25  1  0  0  0  0
 12 26  1  0  0  0  0
 13 21  1  0  0  0  0
 13 24  2  0  0  0  0
 14 22  1  0  0  0  0
 14 31  2  0  0  0  0
 15 26  2  0  0  0  0
 15 27  1  0  0  0  0
 16 28  1  0  0  0  0
 17 28  1  0  0  0  0
 17 30  2  0  0  0  0
 17 32  1  0  0  0  0
 18 20  2  0  0  0  0
 18 38  1  0  0  0  0
 19 21  2  0  0  0  0
 19 39  1  0  0  0  0
 20 47  1  0  0  0  0
 21 40  1  0  0  0  0
 22 29  2  0  0  0  0
 22 50  1  0  0  0  0
 23 80  1  0  0  0  0
 24 81  1  0  0  0  0
 25 27  2  0  0  0  0
 25 80  1  0  0  0  0
 26 82  1  0  0  0  0
 27 83  1  0  0  0  0
 28 63  2  0  0  0  0
 29 57  1  0  0  0  0
 29 84  1  0  0  0  0
 30 64  1  0  0  0  0
 30 67  1  0  0  0  0
 31 69  1  0  0  0  0
 31 84  1  0  0  0  0
 32 68  1  0  0  0  0
 32 74  2  0  0  0  0
 33 48  1  0  0  0  0
 33 70  1  0  0  0  0
 33 75  2  0  0  0  0
 34 59  1  0  0  0  0
 34 65  1  0  0  0  0
 34 76  2  0  0  0  0
 35 58  1  0  0  0  0
 35 71  1  0  0  0  0
 35 77  2  0  0  0  0
 36 60  1  0  0  0  0
 36 72  1  0  0  0  0
 36 78  2  0  0  0  0
 37 66  1  0  0  0  0
 37 69  1  0  0  0  0
 37 79  2  0  0  0  0
 38 41  1  0  0  0  0
 39 48  1  0  0  0  0
 40 65  1  0  0  0  0
 41 43  1  0  0  0  0
 42 44  1  0  0  0  0
 42 45  1  0  0  0  0
 43 47  1  0  0  0  0
 44 49  1  0  0  0  0
 45 66  1  0  0  0  0
 46 49  1  0  0  0  0
 46 66  1  0  0  0  0
 47 70  1  0  0  0  0
 48 65  1  0  0  0  0
 49 64  1  0  0  0  0
 51 60  1  0  0  0  0
 52 61  1  0  0  0  0
 53 62  1  0  0  0  0
 54 62  1  0  0  0  0
 55 62  1  0  0  0  0
 56 73  1  0  0  0  0
 57 71  1  0  0  0  0
 58 61  1  0  0  0  0
 59 62  1  0  0  0  0
 59 72  1  0  0  0  0
 60 73  1  0  0  0  0
 61 81  1  0  0  0  0
 63 64  1  0  0  0  0
M  CHG  1  73   1
M  ISO  4  37 100  61 101  69 100  81 101
M  END
> <Batch ID>
0167

> <Smiles>
CNC(C)C(=O)NC(C(=O)N1Cc2cc([101O:1][101CH:1](C)CC(=O)NCc3sc([100NH:0][100C:0](=O)N4CCCC(n5nc(-c6ccc(Oc7ccc(F)cc7F)cc6)c(C(N)=O)c5N)C4)cc3C)ccc2CC1C(=O)NC1CCCc2ccccc21)C(C)(C)C

> <Shape>
0.202

> <Color>
0.074

> <Negative vol penalty>
0.000

$$$$
